
     RDKit          3D

 16 16  0  0  0  0  0  0  0  0999 V2000
   -1.9890   -1.1700   -1.6700 C   0  0  0  0  0  0  0  0  0  0  0  0
   -1.7630    0.2710   -1.9610 C   0  0  0  0  0  0  0  0  0  0  0  0
   -2.2700    1.1650   -0.8430 C   0  0  0  0  0  0  0  0  0  0  0  0
   -3.3800    1.8160   -0.9650 N   0  0  0  0  0  0  0  0  0  0  0  0
   -3.8730    2.6170   -0.0110 C   0  0  0  0  0  0  0  0  0  0  0  0
   -4.8590    3.3080    0.1020 O   0  0  0  0  0  0  0  0  0  0  0  0
   -2.5610    2.4210    1.2590 S   0  0  0  0  0  0  0  0  0  0  0  0
   -1.5490    1.2980    0.3280 C   0  0  0  0  0  0  0  0  0  0  0  0
   -0.2950    0.7620    0.8540 C   0  0  0  0  0  0  0  0  0  0  0  0
    0.0290    1.1620    2.0390 O   0  0  0  0  0  0  0  0  0  0  0  0
    0.6170   -0.1100    0.2970 N   0  0  0  0  0  0  0  0  0  0  0  0
    1.8460   -0.5360    1.0040 C   0  0  2  0  0  0  0  0  0  0  0  0
    1.5260   -1.2300    2.2840 C   0  0  0  0  0  0  0  0  0  0  0  0
    2.6070    0.7340    1.3030 C   0  0  0  0  0  0  0  0  0  0  0  0
    2.6680   -1.4300    0.1150 C   0  0  0  0  0  0  0  0  0  0  0  0
    3.8190   -1.8170    0.7960 O   0  0  0  0  0  0  0  0  0  0  0  0
  1  2  1  0
  2  3  1  0
  3  4  1  0
  3  8  2  0
  4  5  1  0
  5  6  2  0
  5  7  1  0
  7  8  1  0
  8  9  1  0
  9 10  2  0
  9 11  1  0
 11 12  1  0
 12 13  1  1
 12 14  1  0
 12 15  1  0
 15 16  1  0
M  END
