
     RDKit          3D

 15 15  0  0  0  0  0  0  0  0999 V2000
    5.9710    0.7040   -0.6720 C   0  0  0  0  0  0  0  0  0  0  0  0
    4.6010    0.3180   -0.3670 N   0  0  0  0  0  0  0  0  0  0  0  0
    4.3180   -0.8160    0.4370 C   0  0  0  0  0  0  0  0  0  0  0  0
    5.3390   -1.4570    0.8630 O   0  0  0  0  0  0  0  0  0  0  0  0
    2.9750   -1.2900    0.8030 C   0  0  0  0  0  0  0  0  0  0  0  0
    1.8840   -0.5180    0.2860 N   0  0  0  0  0  0  0  0  0  0  0  0
    0.5530   -0.9340    0.6100 C   0  0  0  0  0  0  0  0  0  0  0  0
    0.3780   -1.9520    1.3300 O   0  0  0  0  0  0  0  0  0  0  0  0
   -0.5930   -0.1620    0.0950 C   0  0  0  0  0  0  0  0  0  0  0  0
   -1.8300   -0.7450    0.5350 O   0  0  0  0  0  0  0  0  0  0  0  0
   -3.0510   -0.1670    0.1570 C   0  0  0  0  0  0  0  0  0  0  0  0
   -3.2830    0.6100   -0.8860 C   0  0  0  0  0  0  0  0  0  0  0  0
   -4.7360    1.0040   -0.9050 C   0  0  0  0  0  0  0  0  0  0  0  0
   -5.0890    0.8880    0.5880 C   0  0  0  0  0  0  0  0  0  0  0  0
   -4.3060   -0.3610    0.9190 C   0  0  0  0  0  0  0  0  0  0  0  0
  1  2  1  0
  2  3  1  0
  3  4  2  0
  3  5  1  0
  5  6  1  0
  6  7  1  0
  7  8  2  0
  7  9  1  0
  9 10  1  0
 10 11  1  0
 11 12  2  0
 11 15  1  0
 12 13  1  0
 13 14  1  0
 14 15  1  0
M  END
