
     RDKit          3D

 16 16  0  0  0  0  0  0  0  0999 V2000
   -4.2920   -0.6220   -1.9100 O   0  0  0  0  0  0  0  0  0  0  0  0
   -5.0170   -0.5690   -0.8850 C   0  0  0  0  0  0  0  0  0  0  0  0
   -4.4810   -0.7770    0.3980 N   0  0  0  0  0  0  0  0  0  0  0  0
   -3.0850   -1.0560    0.5910 C   0  0  0  0  0  0  0  0  0  0  0  0
   -2.2490    0.0710    0.0910 C   0  0  0  0  0  0  0  0  0  0  0  0
   -0.7720   -0.2260    0.3050 C   0  0  0  0  0  0  0  0  0  0  0  0
   -0.4450   -1.2880    0.8290 O   0  0  0  0  0  0  0  0  0  0  0  0
    0.2020    0.7140   -0.0990 N   0  0  0  0  0  0  0  0  0  0  0  0
    1.5980    0.5870    0.0300 C   0  0  0  0  0  0  0  0  0  0  0  0
    2.2330   -0.4940    0.5780 C   0  0  0  0  0  0  0  0  0  0  0  0
    3.6210   -0.6090    0.7000 C   0  0  0  0  0  0  0  0  0  0  0  0
    4.3670   -2.0480    1.4250 S   0  0  0  0  0  0  0  0  0  0  0  0
    4.3950    0.4150    0.2470 C   0  0  0  0  0  0  0  0  0  0  0  0
    3.8250    1.5130   -0.3060 C   0  0  0  0  0  0  0  0  0  0  0  0
    2.4210    1.6110   -0.4210 C   0  0  0  0  0  0  0  0  0  0  0  0
    1.9320    2.7520   -0.9920 O   0  0  0  0  0  0  0  0  0  0  0  0
  1  2  2  0
  2  3  1  0
  3  4  1  0
  4  5  1  0
  5  6  1  0
  6  7  2  0
  6  8  1  0
  8  9  1  0
  9 10  2  0
  9 15  1  0
 10 11  1  0
 11 12  1  0
 11 13  2  0
 13 14  1  0
 14 15  2  0
 15 16  1  0
M  END
