
     RDKit          3D

 16 16  0  0  0  0  0  0  0  0999 V2000
   -1.4400    4.1070   -0.1070 C   0  0  0  0  0  0  0  0  0  0  0  0
   -1.4730    2.7490    0.2530 O   0  0  0  0  0  0  0  0  0  0  0  0
   -0.3860    1.9120    0.0460 C   0  0  0  0  0  0  0  0  0  0  0  0
    0.6350    2.4190   -0.4800 O   0  0  0  0  0  0  0  0  0  0  0  0
   -0.4440    0.4730    0.4360 C   0  0  0  0  0  0  0  0  0  0  0  0
   -1.5220    0.0080    0.9730 C   0  0  0  0  0  0  0  0  0  0  0  0
   -1.7590   -1.3140    1.4030 N   0  0  0  0  0  0  0  0  0  0  0  0
   -2.5230   -2.2110    0.5920 C   0  0  0  0  0  0  0  0  0  0  0  0
   -3.0590   -1.8100   -0.6500 N   0  0  0  0  0  0  0  0  0  0  0  0
   -2.8010   -3.7440    1.0850 S   0  0  0  0  0  0  0  0  0  0  0  0
    0.7610   -0.3080    0.1680 C   0  0  0  0  0  0  0  0  0  0  0  0
    0.9600   -1.6340    0.4310 C   0  0  0  0  0  0  0  0  0  0  0  0
    2.2610   -1.9060   -0.0050 C   0  0  0  0  0  0  0  0  0  0  0  0
    2.7890   -0.7410   -0.5080 C   0  0  0  0  0  0  0  0  0  0  0  0
    4.1670   -0.5570   -1.0900 C   0  0  0  0  0  0  0  0  0  0  0  0
    1.8760    0.1710   -0.3870 O   0  0  0  0  0  0  0  0  0  0  0  0
  1  2  1  0
  2  3  1  0
  3  4  2  0
  3  5  1  0
  5  6  2  3
  5 11  1  0
  6  7  1  0
  7  8  1  0
  8  9  1  0
  8 10  2  0
 11 12  2  0
 11 16  1  0
 12 13  1  0
 13 14  2  0
 14 15  1  0
 14 16  1  0
M  END
