
     RDKit          3D

 16 16  0  0  0  0  0  0  0  0999 V2000
    5.3540   -0.7710    0.7960 C   0  0  0  0  0  0  0  0  0  0  0  0
    4.3980   -0.5410   -0.0960 C   0  0  0  0  0  0  0  0  0  0  0  0
    4.1130    0.8800   -0.5030 C   0  0  0  0  0  0  0  0  0  0  0  0
    2.3680    1.2590   -0.0820 S   0  0  0  0  0  0  0  0  0  0  0  0
    1.3630    0.2090   -1.1790 C   0  0  0  0  0  0  0  0  0  0  0  0
   -0.0790    0.3810   -0.9480 C   0  0  0  0  0  0  0  0  0  0  0  0
   -0.6470    1.3320   -1.5790 O   0  0  0  0  0  0  0  0  0  0  0  0
   -0.8250   -0.4570   -0.0700 N   0  0  0  0  0  0  0  0  0  0  0  0
   -2.2050   -0.2910    0.1530 C   0  0  0  0  0  0  0  0  0  0  0  0
   -2.7130    0.4960    1.1660 C   0  0  0  0  0  0  0  0  0  0  0  0
   -1.8090    1.1590    2.0150 O   0  0  0  0  0  0  0  0  0  0  0  0
   -4.0710    0.5930    1.2960 C   0  0  0  0  0  0  0  0  0  0  0  0
   -4.8820   -0.0950    0.4150 C   0  0  0  0  0  0  0  0  0  0  0  0
   -4.3760   -0.8520   -0.5610 N   0  0  0  0  0  0  0  0  0  0  0  0
   -3.0490   -0.9760   -0.7250 C   0  0  0  0  0  0  0  0  0  0  0  0
   -2.5790   -1.6940   -1.6500 O   0  0  0  0  0  0  0  0  0  0  0  0
  1  2  2  0
  2  3  1  0
  3  4  1  0
  4  5  1  0
  5  6  1  0
  6  7  2  0
  6  8  1  0
  8  9  1  0
  9 10  2  0
  9 15  1  0
 10 11  1  0
 10 12  1  0
 12 13  2  0
 13 14  1  0
 14 15  1  0
 15 16  2  0
M  END
