
     RDKit          3D

 16 16  0  0  0  0  0  0  0  0999 V2000
    4.0150   -2.3060   -0.0010 O   0  0  0  0  0  0  0  0  0  0  0  0
    3.0460   -1.3410    0.0170 C   0  0  0  0  0  0  0  0  0  0  0  0
    3.2620   -0.0960   -0.3730 C   0  0  0  0  0  0  0  0  0  0  0  0
    4.6470    0.2580   -0.8510 C   0  0  0  0  0  0  0  0  0  0  0  0
    5.1830    1.2710   -0.0610 O   0  0  0  0  0  0  0  0  0  0  0  0
    2.2240    0.9170   -0.3620 C   0  0  0  0  0  0  0  0  0  0  0  0
    2.6350    2.4370   -0.8570 S   0  0  0  0  0  0  0  0  0  0  0  0
    0.8760    0.6970    0.0270 N   0  0  0  0  0  0  0  0  0  0  0  0
   -0.1100    1.7350    0.0120 C   0  0  0  0  0  0  0  0  0  0  0  0
   -1.5110    1.3370    0.3080 C   0  0  0  0  0  0  0  0  0  0  0  0
   -2.1090    0.3710   -0.5540 N   0  0  0  0  0  0  0  0  0  0  0  0
   -3.5700    0.4760   -0.3230 C   0  0  0  0  0  0  0  0  0  0  0  0
   -3.9490   -0.2520    0.9280 C   0  0  0  0  0  0  0  0  0  0  0  0
   -3.9940   -1.6100    0.5900 O   0  0  0  0  0  0  0  0  0  0  0  0
   -3.0040   -1.9200   -0.3350 C   0  0  0  0  0  0  0  0  0  0  0  0
   -1.7940   -1.0130   -0.2120 C   0  0  0  0  0  0  0  0  0  0  0  0
  1  2  1  0
  2  3  2  3
  3  4  1  0
  3  6  1  0
  4  5  1  0
  6  7  2  0
  6  8  1  0
  8  9  1  0
  9 10  1  0
 10 11  1  0
 11 12  1  0
 11 16  1  0
 12 13  1  0
 13 14  1  0
 14 15  1  0
 15 16  1  0
M  END
