
     RDKit          3D

 21 22  0  0  0  0  0  0  0  0999 V2000
    0.1220   -2.0340    0.1320 O   0  0  0  0  0  0  0  0  0  0  0  0
    0.2170   -0.8870    0.4740 C   0  0  0  0  0  0  0  0  0  0  0  0
    1.2500   -0.0790    0.4650 O   0  0  0  0  0  0  0  0  0  0  0  0
    2.4880   -0.6770    0.0660 C   0  0  0  0  0  0  0  0  0  0  0  0
    3.5670    0.3270   -0.2150 C   0  0  0  0  0  0  0  0  0  0  0  0
    4.6900   -0.4290   -0.6240 O   0  0  0  0  0  0  0  0  0  0  0  0
    6.0100    0.0130    0.3740 P   0  0  0  0  0  0  0  0  0  0  0  0
    7.1370   -1.3320    0.5100 O   0  0  0  0  0  0  0  0  0  0  0  0
    6.7540    1.4970    0.0870 O   0  0  0  0  0  0  0  0  0  0  0  0
   -1.1020   -0.2830    0.9330 N   0  0  0  0  0  0  0  0  0  0  0  0
   -1.1610    1.1130    1.2550 C   0  0  0  0  0  0  0  0  0  0  0  0
   -1.8600    1.7500    0.0400 C   0  0  0  0  0  0  0  0  0  0  0  0
   -2.9890    0.9090   -0.4110 C   0  0  1  0  0  0  0  0  0  0  0  0
   -3.3030    1.2090   -1.7470 O   0  0  0  0  0  0  0  0  0  0  0  0
   -4.3450    0.6540   -2.2200 O   0  0  0  0  0  0  0  0  0  0  0  0
   -4.9580   -0.3120   -1.5530 N   0  0  0  0  0  0  0  0  0  0  0  0
   -4.1990   -1.1230   -0.6950 C   0  0  0  0  0  0  0  0  0  0  0  0
   -4.6360   -2.2270   -0.2150 O   0  0  0  0  0  0  0  0  0  0  0  0
   -2.9080   -0.5930   -0.3520 C   0  0  1  0  0  0  0  0  0  0  0  0
   -2.0210   -1.1010   -1.3190 O   0  0  0  0  0  0  0  0  0  0  0  0
   -2.3150   -1.0490    0.9820 C   0  0  0  0  0  0  0  0  0  0  0  0
  1  2  2  0
  2  3  1  0
  2 10  1  0
  3  4  1  0
  4  5  1  0
  5  6  1  0
  6  7  1  0
  7  8  1  0
  7  9  1  0
 10 11  1  0
 10 21  1  0
 11 12  1  0
 13 12  1  6
 13 14  1  0
 13 19  1  0
 14 15  1  0
 15 16  1  0
 16 17  1  0
 17 18  2  0
 17 19  1  0
 19 20  1  6
 19 21  1  0
M  END
