
     RDKit          3D

 21 21  0  0  0  0  0  0  0  0999 V2000
    0.8270   -1.1690   -1.0750 O   0  0  0  0  0  0  0  0  0  0  0  0
    1.0420   -0.3810   -0.1470 C   0  0  0  0  0  0  0  0  0  0  0  0
    2.2170   -0.4660    0.6450 N   0  0  0  0  0  0  0  0  0  0  0  0
    3.2620   -1.3890    0.5230 C   0  0  0  0  0  0  0  0  0  0  0  0
    4.0830   -1.0840   -0.7520 C   0  0  0  0  0  0  0  0  0  0  0  0
    4.4320    0.2630   -0.3960 O   0  0  0  0  0  0  0  0  0  0  0  0
    6.0370    0.6020   -0.2190 P   0  0  0  0  0  0  0  0  0  0  0  0
    6.2330    1.5190    1.3040 O   0  0  0  0  0  0  0  0  0  0  0  0
    7.0340    1.1460   -1.3930 O   0  0  0  0  0  0  0  0  0  0  0  0
    0.1090    0.6010    0.1380 N   0  0  0  0  0  0  0  0  0  0  0  0
   -1.1720    0.8390   -0.4900 C   0  0  2  0  0  0  0  0  0  0  0  0
   -2.0680    1.4090    0.5820 C   0  0  0  0  0  0  0  0  0  0  0  0
   -2.2990    0.3070    1.4540 O   0  0  0  0  0  0  0  0  0  0  0  0
   -3.6490    0.1320    1.5290 C   0  0  0  0  0  0  0  0  0  0  0  0
   -4.2550   -0.2870    0.2240 C   0  0  1  0  0  0  0  0  0  0  0  0
   -4.6920   -1.6240    0.3360 O   0  0  0  0  0  0  0  0  0  0  0  0
   -5.3650    0.4980   -0.0290 O   0  0  0  0  0  0  0  0  0  0  0  0
   -5.9760    0.1730   -1.1510 O   0  0  0  0  0  0  0  0  0  0  0  0
   -3.2880   -0.2930   -0.8780 C   0  0  0  0  0  0  0  0  0  0  0  0
   -3.7520   -0.1100   -2.0030 O   0  0  0  0  0  0  0  0  0  0  0  0
   -1.8190   -0.5040   -0.8750 C   0  0  0  0  0  0  0  0  0  0  0  0
  1  2  2  0
  2  3  1  0
  2 10  1  0
  3  4  1  0
  4  5  1  0
  5  6  1  0
  6  7  1  0
  7  8  1  0
  7  9  1  0
 11 10  1  1
 11 12  1  0
 11 21  1  0
 12 13  1  0
 13 14  1  0
 14 15  1  0
 15 16  1  1
 15 17  1  0
 15 19  1  0
 17 18  1  0
 19 20  2  0
 19 21  1  0
M  END
