
     RDKit          3D

 20 20  0  0  0  0  0  0  0  0999 V2000
    5.9940   -0.5910    1.4020 C   0  0  0  0  0  0  0  0  0  0  0  0
    4.7000   -0.9940    0.9790 O   0  0  0  0  0  0  0  0  0  0  0  0
    3.6600   -0.0760    1.0250 C   0  0  0  0  0  0  0  0  0  0  0  0
    3.9240    1.0920    1.4500 O   0  0  0  0  0  0  0  0  0  0  0  0
    2.3690   -0.3600    0.6400 O   0  0  0  0  0  0  0  0  0  0  0  0
    1.3640    0.5950    0.7060 C   0  0  0  0  0  0  0  0  0  0  0  0
    1.7090    1.7240    1.1370 O   0  0  0  0  0  0  0  0  0  0  0  0
    0.0040    0.3150    0.3070 N   0  0  0  0  0  0  0  0  0  0  0  0
   -1.0360    1.2990    0.3790 C   0  0  0  0  0  0  0  0  0  0  0  0
   -2.0470    0.8310   -0.6230 C   0  0  1  0  0  0  0  0  0  0  0  0
   -1.7320    1.4570   -2.3180 P   0  0  0  0  0  0  0  0  0  0  0  0
   -0.3420    2.4900   -2.3960 O   0  0  0  0  0  0  0  0  0  0  0  0
   -3.0750    2.2920   -3.0010 O   0  0  0  0  0  0  0  0  0  0  0  0
   -1.9390   -0.6960   -0.5850 C   0  0  2  0  0  0  0  0  0  0  0  0
   -2.9060   -1.1510    0.5030 C   0  0  0  0  0  0  0  0  0  0  0  0
   -4.2540   -0.7520    0.2090 N   0  0  0  0  0  0  0  0  0  0  0  0
   -0.5160   -0.9030   -0.1930 C   0  0  1  0  0  0  0  0  0  0  0  0
    0.2850   -1.5030   -1.2740 C   0  0  0  0  0  0  0  0  0  0  0  0
    1.3070   -0.9290   -1.6850 O   0  0  0  0  0  0  0  0  0  0  0  0
   -0.1020   -2.7010   -1.8250 O   0  0  0  0  0  0  0  0  0  0  0  0
  1  2  1  0
  2  3  1  0
  3  4  2  0
  3  5  1  0
  5  6  1  0
  6  7  2  0
  6  8  1  0
  8  9  1  0
  8 17  1  0
  9 10  1  0
 10 11  1  6
 10 14  1  0
 11 12  1  0
 11 13  1  0
 14 15  1  1
 14 17  1  0
 15 16  1  0
 17 18  1  6
 18 19  2  0
 18 20  1  0
M  END
