
     RDKit          3D

 20 21  0  0  0  0  0  0  0  0999 V2000
   -1.3180    1.7420   -0.9230 O   0  0  0  0  0  0  0  0  0  0  0  0
   -2.0950    1.1170   -0.2260 C   0  0  0  0  0  0  0  0  0  0  0  0
   -3.1760    1.8360    0.4220 N   0  0  0  0  0  0  0  0  0  0  0  0
   -4.4820    1.1840    0.2770 C   0  0  0  0  0  0  0  0  0  0  0  0
   -4.4000   -0.1810   -0.3380 C   0  0  2  0  0  0  0  0  0  0  0  0
   -5.5480   -0.8800   -0.1660 O   0  0  0  0  0  0  0  0  0  0  0  0
   -3.2610   -0.9710    0.1930 C   0  0  0  0  0  0  0  0  0  0  0  0
   -1.9440   -0.2890   -0.0410 N   0  0  0  0  0  0  0  0  0  0  0  0
   -0.8220   -1.0600   -0.3230 C   0  0  0  0  0  0  0  0  0  0  0  0
   -1.0440   -2.2660   -0.6860 O   0  0  0  0  0  0  0  0  0  0  0  0
    0.5230   -0.6010   -0.2410 C   0  0  0  0  0  0  0  0  0  0  0  0
    0.9920    0.5260    0.2010 C   0  0  0  0  0  0  0  0  0  0  0  0
    2.3320    0.5310    0.0760 O   0  0  0  0  0  0  0  0  0  0  0  0
    2.7680   -0.6210   -0.5570 C   0  0  1  0  0  0  0  0  0  0  0  0
    3.7030   -1.2830    0.4670 C   0  0  0  0  0  0  0  0  0  0  0  0
    4.2020   -0.1890    1.1640 O   0  0  0  0  0  0  0  0  0  0  0  0
    5.4380    0.5960    0.4240 P   0  0  0  0  0  0  0  0  0  0  0  0
    6.9140    0.0090    0.0210 O   0  0  0  0  0  0  0  0  0  0  0  0
    5.1570    2.3080    0.2440 O   0  0  0  0  0  0  0  0  0  0  0  0
    1.6130   -1.4080   -0.6750 O   0  0  0  0  0  0  0  0  0  0  0  0
  1  2  2  0
  2  3  1  0
  2  8  1  0
  3  4  1  0
  4  5  1  0
  5  6  1  1
  5  7  1  0
  7  8  1  0
  8  9  1  0
  9 10  2  0
  9 11  1  0
 11 12  2  0
 11 20  1  0
 12 13  1  0
 13 14  1  0
 14 15  1  1
 14 20  1  0
 15 16  1  0
 16 17  1  0
 17 18  1  0
 17 19  1  0
M  END
