
     RDKit          3D

 20 21  0  0  0  0  0  0  0  0999 V2000
   -4.6940    2.2370   -2.4620 O   0  0  0  0  0  0  0  0  0  0  0  0
   -4.3000    1.8970   -1.3160 C   0  0  0  0  0  0  0  0  0  0  0  0
   -5.1070    1.5430   -0.1810 N   0  0  0  0  0  0  0  0  0  0  0  0
   -4.1860    1.0540    0.8290 C   0  0  0  0  0  0  0  0  0  0  0  0
   -2.9010    1.7340    0.4220 C   0  0  1  0  0  0  0  0  0  0  0  0
   -1.6980    0.9590    0.8410 C   0  0  0  0  0  0  0  0  0  0  0  0
   -1.4670    0.7730    2.0630 O   0  0  0  0  0  0  0  0  0  0  0  0
   -0.7980    0.4210   -0.0480 O   0  0  0  0  0  0  0  0  0  0  0  0
    0.3410   -0.3100    0.2870 C   0  0  1  0  0  0  0  0  0  0  0  0
    0.3400   -1.6950   -0.2430 C   0  0  0  0  0  0  0  0  0  0  0  0
   -0.4020   -2.5730    0.1450 O   0  0  0  0  0  0  0  0  0  0  0  0
    1.4020   -1.7360   -1.2940 C   0  0  0  0  0  0  0  0  0  0  0  0
    2.3610   -0.7860   -0.7650 N   0  0  0  0  0  0  0  0  0  0  0  0
    3.8160   -0.9150   -0.8370 C   0  0  0  0  0  0  0  0  0  0  0  0
    4.4780   -1.8180    0.6480 P   0  0  0  0  0  0  0  0  0  0  0  0
    3.2450   -1.8230    1.8560 O   0  0  0  0  0  0  0  0  0  0  0  0
    5.9120   -1.0650    1.2680 O   0  0  0  0  0  0  0  0  0  0  0  0
    1.5990    0.2560   -0.1840 C   0  0  0  0  0  0  0  0  0  0  0  0
    1.9640    1.4490   -0.1000 O   0  0  0  0  0  0  0  0  0  0  0  0
   -2.9550    1.8140   -0.9820 O   0  0  0  0  0  0  0  0  0  0  0  0
  1  2  2  0
  2  3  1  0
  2 20  1  0
  3  4  1  0
  4  5  1  0
  5  6  1  6
  5 20  1  0
  6  7  2  0
  6  8  1  0
  9  8  1  6
  9 10  1  0
  9 18  1  0
 10 11  2  0
 10 12  1  0
 12 13  1  0
 13 14  1  0
 13 18  1  0
 14 15  1  0
 15 16  1  0
 15 17  1  0
 18 19  2  0
M  END
