
     RDKit          3D

 33 34  0  0  0  0  0  0  0  0999 V2000
   -0.5420   -1.6450   -1.9050 C   0  0  0  0  0  0  0  0  0  0  0  0
   -0.0160   -0.4500   -1.1600 C   0  0  0  0  0  0  0  0  0  0  0  0
    0.2710   -0.6870    0.2300 N   0  0  0  0  0  0  0  0  0  0  0  0
   -0.8470   -0.4890    1.1280 C   0  0  0  0  0  0  0  0  0  0  0  0
   -0.7130   -0.6690    2.3860 O   0  0  0  0  0  0  0  0  0  0  0  0
   -2.0980   -0.1020    0.6990 O   0  0  0  0  0  0  0  0  0  0  0  0
   -3.1510    0.0760    1.6240 C   0  0  0  0  0  0  0  0  0  0  0  0
   -4.4290    0.5000    0.9330 C   0  0  1  0  0  0  0  0  0  0  0  0
   -4.1500    1.7630    0.1360 C   0  0  0  0  0  0  0  0  0  0  0  0
   -5.3690    2.1100   -0.5290 O   0  0  0  0  0  0  0  0  0  0  0  0
   -5.4730    3.2100   -1.3410 N   0  0  0  0  0  0  0  0  0  0  0  0
   -4.7160    3.4770   -2.2720 O   0  0  0  0  0  0  0  0  0  0  0  0
   -6.5260    4.0760   -1.0700 O   0  0  0  0  0  0  0  0  0  0  0  0
   -4.8260   -0.4860   -0.0010 O   0  0  0  0  0  0  0  0  0  0  0  0
   -6.0820   -1.0290    0.0400 N   0  0  0  0  0  0  0  0  0  0  0  0
   -6.9540   -0.4580    0.7150 O   0  0  0  0  0  0  0  0  0  0  0  0
   -6.4090   -2.1720   -0.6320 O   0  0  0  0  0  0  0  0  0  0  0  0
    1.5290   -1.0510    0.8070 C   0  0  1  0  0  0  0  0  0  0  0  0
    2.0500   -2.4040    0.5640 C   0  0  0  0  0  0  0  0  0  0  0  0
    2.5420   -2.7970   -0.7720 C   0  0  2  0  0  0  0  0  0  0  0  0
    3.4140   -4.0560   -0.5450 C   0  0  0  0  0  0  0  0  0  0  0  0
    3.5340   -1.5110   -1.4930 S   0  0  1  0  0  0  0  0  0  0  0  0
    4.9500   -2.0440   -1.6290 O   0  0  0  0  0  0  0  0  0  0  0  0
    3.1050   -1.1410   -2.8750 O   0  0  0  0  0  0  0  0  0  0  0  0
    3.4700   -0.1780   -0.3970 C   0  0  0  0  0  0  0  0  0  0  0  0
    4.5820    1.2960   -0.3270 S   0  0  0  0  0  0  0  0  0  0  0  0
    3.7120    2.0070    1.0790 C   0  0  0  0  0  0  0  0  0  0  0  0
    4.1600    3.5290    1.8340 S   0  0  2  0  0  0  0  0  0  0  0  0
    4.0720    4.8320    0.6910 N   0  0  0  0  0  0  0  0  0  0  0  0
    5.5640    3.4960    2.3500 O   0  0  0  0  0  0  0  0  0  0  0  0
    3.1930    3.8210    2.9180 O   0  0  0  0  0  0  0  0  0  0  0  0
    2.7290    1.1410    1.3590 C   0  0  0  0  0  0  0  0  0  0  0  0
    2.5840    0.0220    0.6230 C   0  0  0  0  0  0  0  0  0  0  0  0
  1  2  1  0
  2  3  1  0
  3  4  1  0
 18  3  1  6
  4  5  2  0
  4  6  1  0
  6  7  1  0
  8  7  1  6
  8  9  1  0
  8 14  1  0
  9 10  1  0
 10 11  1  0
 11 12  2  0
 11 13  1  0
 14 15  1  0
 15 16  2  0
 15 17  1  0
 18 19  1  0
 18 33  1  0
 19 20  1  0
 20 21  1  1
 20 22  1  0
 22 23  2  0
 22 24  2  0
 22 25  1  1
 25 26  1  0
 25 33  2  0
 26 27  1  0
 27 28  1  0
 27 32  2  0
 28 29  1  6
 28 30  2  0
 28 31  2  0
 32 33  1  0
M  CHG  4  11   1  13  -1  15   1  17  -1
M  END
