
     RDKit          3D

 31 31  0  0  0  0  0  0  0  0999 V2000
    5.9000   -2.7510   -1.3510 N   0  0  0  0  0  0  0  0  0  0  0  0
    4.8460   -2.2460   -0.5740 C   0  0  0  0  0  0  0  0  0  0  0  0
    3.7690   -2.8830   -0.5130 O   0  0  0  0  0  0  0  0  0  0  0  0
    5.0480   -0.9410    0.1690 C   0  0  2  0  0  0  0  0  0  0  0  0
    6.3280   -0.4990   -0.1070 O   0  0  0  0  0  0  0  0  0  0  0  0
    6.4170    0.7000   -0.7610 C   0  0  0  0  0  0  0  0  0  0  0  0
    5.7820    1.7880    0.0410 C   0  0  0  0  0  0  0  0  0  0  0  0
    6.4450    1.8740    1.2660 O   0  0  0  0  0  0  0  0  0  0  0  0
    4.9710   -1.1560    1.5270 O   0  0  0  0  0  0  0  0  0  0  0  0
    3.9840   -0.4770    2.2050 C   0  0  0  0  0  0  0  0  0  0  0  0
    2.6350   -0.8770    1.7080 C   0  0  0  0  0  0  0  0  0  0  0  0
    1.6020   -0.2140    2.3690 O   0  0  0  0  0  0  0  0  0  0  0  0
    0.3570   -0.5630    1.9290 C   0  0  1  0  0  0  0  0  0  0  0  0
   -0.5170   -1.1510    2.9400 C   0  0  0  0  0  0  0  0  0  0  0  0
   -0.3710   -2.3250    3.3530 O   0  0  0  0  0  0  0  0  0  0  0  0
   -1.5520   -0.4030    3.4750 O   0  0  0  0  0  0  0  0  0  0  0  0
   -0.2600    0.6400    1.2820 C   0  0  0  0  0  0  0  0  0  0  0  0
    0.3710    1.7440    1.2180 O   0  0  0  0  0  0  0  0  0  0  0  0
   -1.5170    0.5950    0.7400 O   0  0  0  0  0  0  0  0  0  0  0  0
   -2.0620    1.7500    0.1400 C   0  0  0  0  0  0  0  0  0  0  0  0
   -3.4510    1.4240   -0.3740 C   0  0  2  0  0  0  0  0  0  0  0  0
   -4.2720    0.9930    0.8060 C   0  0  2  0  0  0  0  0  0  0  0  0
   -3.6970    1.4470    1.9890 O   0  0  0  0  0  0  0  0  0  0  0  0
   -4.4180   -0.5050    0.8970 C   0  0  0  0  0  0  0  0  0  0  0  0
   -5.1820   -0.9130   -0.3430 C   0  0  2  0  0  0  0  0  0  0  0  0
   -5.2930   -2.3150   -0.2880 O   0  0  0  0  0  0  0  0  0  0  0  0
   -4.5710   -0.4740   -1.6190 C   0  0  1  0  0  0  0  0  0  0  0  0
   -5.6940    0.1580   -2.4580 C   0  0  0  0  0  0  0  0  0  0  0  0
   -5.1790    0.5840   -3.6590 O   0  0  0  0  0  0  0  0  0  0  0  0
   -3.4310    0.4740   -1.5130 C   0  0  1  0  0  0  0  0  0  0  0  0
   -3.3390    1.2070   -2.6980 O   0  0  0  0  0  0  0  0  0  0  0  0
  1  2  1  0
  2  3  2  0
  2  4  1  0
  4  5  1  1
  4  9  1  0
  5  6  1  0
  6  7  1  0
  7  8  1  0
  9 10  1  0
 10 11  1  0
 11 12  1  0
 13 12  1  1
 13 14  1  0
 13 17  1  0
 14 15  2  0
 14 16  1  0
 17 18  2  0
 17 19  1  0
 19 20  1  0
 21 20  1  1
 21 22  1  0
 21 30  1  0
 22 23  1  1
 22 24  1  0
 24 25  1  0
 25 26  1  6
 25 27  1  0
 27 28  1  6
 27 30  1  0
 28 29  1  0
 30 31  1  6
M  CHG  1  16  -1
M  END
