
     RDKit          3D

 32 32  0  0  0  0  0  0  0  0999 V2000
    6.2730   -0.3860    1.7640 O   0  0  0  0  0  0  0  0  0  0  0  0
    6.9800    0.0520    0.8260 C   0  0  0  0  0  0  0  0  0  0  0  0
    8.1870    0.6490    1.2250 O   0  0  0  0  0  0  0  0  0  0  0  0
    6.6100   -0.0320   -0.6040 C   0  0  0  0  0  0  0  0  0  0  0  0
    5.2780   -0.6770   -0.7740 C   0  0  1  0  0  0  0  0  0  0  0  0
    5.3250   -1.9650   -0.2310 O   0  0  0  0  0  0  0  0  0  0  0  0
    4.1190    0.1180   -0.2200 C   0  0  0  0  0  0  0  0  0  0  0  0
    2.9600   -0.5750   -0.5540 O   0  0  0  0  0  0  0  0  0  0  0  0
    1.8060    0.0480   -0.1040 C   0  0  2  0  0  0  0  0  0  0  0  0
    1.1550   -0.8790    0.8930 C   0  0  0  0  0  0  0  0  0  0  0  0
    1.5620   -2.2430    0.6880 N   0  0  0  0  0  0  0  0  0  0  0  0
    0.8670   -3.3640    1.2100 C   0  0  0  0  0  0  0  0  0  0  0  0
    1.5520   -4.3650    1.5360 O   0  0  0  0  0  0  0  0  0  0  0  0
   -0.4850   -3.3460    1.3480 O   0  0  0  0  0  0  0  0  0  0  0  0
   -1.4580   -2.9620    0.4270 C   0  0  0  0  0  0  0  0  0  0  0  0
   -2.6040   -2.3400    1.1850 C   0  0  1  0  0  0  0  0  0  0  0  0
   -2.1850   -1.5110    2.2160 O   0  0  0  0  0  0  0  0  0  0  0  0
   -3.5110   -1.5240    0.2940 C   0  0  0  0  0  0  0  0  0  0  0  0
   -2.9740   -0.2940   -0.0240 O   0  0  0  0  0  0  0  0  0  0  0  0
   -3.8750    0.7410    0.0400 C   0  0  2  0  0  0  0  0  0  0  0  0
   -4.9500    0.6280   -1.0390 C   0  0  0  0  0  0  0  0  0  0  0  0
   -5.6700   -0.5390   -0.9250 O   0  0  0  0  0  0  0  0  0  0  0  0
   -3.1510    2.0320   -0.0710 C   0  0  0  0  0  0  0  0  0  0  0  0
   -3.7360    3.2120    0.6220 C   0  0  2  0  0  0  0  0  0  0  0  0
   -3.8010    2.9160    2.0030 O   0  0  0  0  0  0  0  0  0  0  0  0
   -5.0350    3.4710    0.2120 O   0  0  0  0  0  0  0  0  0  0  0  0
   -2.9240    4.3340    0.5060 O   0  0  0  0  0  0  0  0  0  0  0  0
   -2.0290    2.2120   -0.7380 C   0  0  0  0  0  0  0  0  0  0  0  0
   -1.4310    3.4900   -0.7730 O   0  0  0  0  0  0  0  0  0  0  0  0
   -1.3240    1.1410   -1.4780 C   0  0  0  0  0  0  0  0  0  0  0  0
   -0.4550    0.4170   -0.6830 O   0  0  0  0  0  0  0  0  0  0  0  0
    0.8440    0.3880   -1.1890 C   0  0  0  0  0  0  0  0  0  0  0  0
  1  2  2  0
  2  3  1  0
  2  4  1  0
  4  5  1  0
  5  6  1  1
  5  7  1  0
  7  8  1  0
  9  8  1  6
  9 10  1  0
  9 32  1  0
 10 11  1  0
 11 12  1  0
 12 13  2  0
 12 14  1  0
 14 15  1  0
 15 16  1  0
 16 17  1  1
 16 18  1  0
 18 19  1  0
 19 20  1  0
 20 21  1  6
 20 23  1  0
 21 22  1  0
 23 24  1  0
 23 28  2  0
 24 25  1  1
 24 26  1  0
 24 27  1  0
 28 29  1  0
 28 30  1  0
 30 31  1  0
 31 32  1  0
M  CHG  1  25  -1
M  END
