
     RDKit          3D

 31 31  0  0  0  0  0  0  0  0999 V2000
    7.3970    0.3970    0.1080 N   0  0  0  0  0  0  0  0  0  0  0  0
    6.7930    0.2090   -1.1630 C   0  0  0  0  0  0  0  0  0  0  0  0
    7.4740    0.3560   -2.1890 O   0  0  0  0  0  0  0  0  0  0  0  0
    5.3360   -0.1620   -1.1710 C   0  0  2  0  0  0  0  0  0  0  0  0
    4.8610   -0.3160   -2.4510 O   0  0  0  0  0  0  0  0  0  0  0  0
    4.6300    0.9220   -0.3990 C   0  0  0  0  0  0  0  0  0  0  0  0
    3.2400    0.7020   -0.2560 O   0  0  0  0  0  0  0  0  0  0  0  0
    2.7090   -0.3990    0.3780 C   0  0  0  0  0  0  0  0  0  0  0  0
    3.5060   -1.2440    0.8490 O   0  0  0  0  0  0  0  0  0  0  0  0
    1.2550   -0.6370    0.5320 C   0  0  1  0  0  0  0  0  0  0  0  0
    1.0690   -1.8330    1.2150 O   0  0  0  0  0  0  0  0  0  0  0  0
    0.4580   -2.9850    0.7740 C   0  0  0  0  0  0  0  0  0  0  0  0
    1.0290   -4.0970    0.6630 O   0  0  0  0  0  0  0  0  0  0  0  0
   -0.9760   -2.9060    0.4050 C   0  0  0  0  0  0  0  0  0  0  0  0
   -1.1960   -2.4300   -0.8650 O   0  0  0  0  0  0  0  0  0  0  0  0
   -2.5320   -2.6390   -1.1890 C   0  0  1  0  0  0  0  0  0  0  0  0
   -2.9990   -3.8480   -0.6580 O   0  0  0  0  0  0  0  0  0  0  0  0
   -3.4460   -1.5590   -0.6680 C   0  0  2  0  0  0  0  0  0  0  0  0
   -4.7530   -2.0290   -0.5180 O   0  0  0  0  0  0  0  0  0  0  0  0
   -3.5070   -0.3780   -1.6060 C   0  0  0  0  0  0  0  0  0  0  0  0
   -4.3650    0.7090   -1.0550 C   0  0  1  0  0  0  0  0  0  0  0  0
   -5.6580    0.2420   -0.8080 O   0  0  0  0  0  0  0  0  0  0  0  0
   -3.7550    1.3550    0.1540 C   0  0  0  0  0  0  0  0  0  0  0  0
   -2.8950    2.4830   -0.3110 C   0  0  0  0  0  0  0  0  0  0  0  0
   -1.6930    2.7660    0.1590 C   0  0  0  0  0  0  0  0  0  0  0  0
   -0.9840    3.9360   -0.4290 C   0  0  0  0  0  0  0  0  0  0  0  0
   -1.7980    4.5090   -1.3960 O   0  0  0  0  0  0  0  0  0  0  0  0
   -1.1890    1.9740    1.1450 O   0  0  0  0  0  0  0  0  0  0  0  0
   -0.8440    0.6090    1.1050 C   0  0  0  0  0  0  0  0  0  0  0  0
    0.6910    0.5740    1.2450 C   0  0  2  0  0  0  0  0  0  0  0  0
    1.1630    1.6960    0.5700 O   0  0  0  0  0  0  0  0  0  0  0  0
  1  2  1  0
  2  3  2  0
  2  4  1  0
  4  5  1  6
  4  6  1  0
  6  7  1  0
  7  8  1  0
  8  9  2  0
 10  8  1  1
 10 11  1  0
 10 30  1  0
 11 12  1  0
 12 13  2  0
 12 14  1  0
 14 15  1  0
 15 16  1  0
 16 17  1  1
 16 18  1  0
 18 19  1  6
 18 20  1  0
 20 21  1  0
 21 22  1  1
 21 23  1  0
 23 24  1  0
 24 25  2  0
 25 26  1  0
 25 28  1  0
 26 27  1  0
 28 29  1  0
 29 30  1  0
 30 31  1  6
M  CHG  1  27  -1
M  END
