
     RDKit          3D

 31 32  0  0  0  0  0  0  0  0999 V2000
    4.8550   -2.2460    1.4260 N   0  0  0  0  0  0  0  0  0  0  0  0
    3.6590   -1.5700    1.7780 C   0  0  0  0  0  0  0  0  0  0  0  0
    3.1270   -1.9170    2.8610 O   0  0  0  0  0  0  0  0  0  0  0  0
    3.0600   -0.5120    0.9220 C   0  0  1  0  0  0  0  0  0  0  0  0
    3.8900   -0.2980   -0.2330 O   0  0  0  0  0  0  0  0  0  0  0  0
    4.5270    0.9110   -0.4570 C   0  0  0  0  0  0  0  0  0  0  0  0
    4.3400    1.8140    0.4060 O   0  0  0  0  0  0  0  0  0  0  0  0
    5.3900    1.1600   -1.6430 C   0  0  0  0  0  0  0  0  0  0  0  0
    5.8860    2.4670   -1.5870 O   0  0  0  0  0  0  0  0  0  0  0  0
    6.7170    3.0340   -2.5220 C   0  0  0  0  0  0  0  0  0  0  0  0
    7.0700    2.3440   -3.5070 O   0  0  0  0  0  0  0  0  0  0  0  0
    7.1300    4.3460   -2.3340 O   0  0  0  0  0  0  0  0  0  0  0  0
    1.6530   -0.8050    0.5140 C   0  0  2  0  0  0  0  0  0  0  0  0
    1.2260    0.3230   -0.2310 O   0  0  0  0  0  0  0  0  0  0  0  0
    0.7870   -1.0250    1.7070 C   0  0  0  0  0  0  0  0  0  0  0  0
    0.2620   -2.4540    1.6930 C   0  0  0  0  0  0  0  0  0  0  0  0
   -0.5540   -2.6200    0.4160 C   0  0  1  0  0  0  0  0  0  0  0  0
   -1.8400   -1.9380    0.6120 C   0  0  0  0  0  0  0  0  0  0  0  0
   -2.5690   -2.2910    1.5730 O   0  0  0  0  0  0  0  0  0  0  0  0
   -2.3250   -0.9170   -0.1940 O   0  0  0  0  0  0  0  0  0  0  0  0
   -3.5660   -0.3060    0.0480 C   0  0  2  0  0  0  0  0  0  0  0  0
   -4.4740   -0.2940   -1.1490 C   0  0  0  0  0  0  0  0  0  0  0  0
   -5.3900    0.9130   -0.9640 C   0  0  2  0  0  0  0  0  0  0  0  0
   -5.7200    1.4610   -2.2030 O   0  0  0  0  0  0  0  0  0  0  0  0
   -4.5570    1.8910   -0.1940 C   0  0  1  0  0  0  0  0  0  0  0  0
   -5.3250    2.2720    1.0640 C   0  0  0  0  0  0  0  0  0  0  0  0
   -4.5200    3.1860    1.7610 O   0  0  0  0  0  0  0  0  0  0  0  0
   -3.3040    1.1840    0.2460 C   0  0  2  0  0  0  0  0  0  0  0  0
   -2.2320    1.5330   -0.5530 O   0  0  0  0  0  0  0  0  0  0  0  0
    0.1630   -2.1610   -0.6590 O   0  0  0  0  0  0  0  0  0  0  0  0
    1.5240   -1.9850   -0.4130 C   0  0  0  0  0  0  0  0  0  0  0  0
  1  2  1  0
  2  3  2  0
  2  4  1  0
  4  5  1  6
  4 13  1  0
  5  6  1  0
  6  7  2  0
  6  8  1  0
  8  9  1  0
  9 10  1  0
 10 11  2  0
 10 12  1  0
 13 14  1  6
 13 15  1  0
 13 31  1  0
 15 16  1  0
 16 17  1  0
 17 18  1  1
 17 30  1  0
 18 19  2  0
 18 20  1  0
 21 20  1  6
 21 22  1  0
 21 28  1  0
 22 23  1  0
 23 24  1  6
 23 25  1  0
 25 26  1  1
 25 28  1  0
 26 27  1  0
 28 29  1  6
 30 31  1  0
M  CHG  1  12  -1
M  END
