
     RDKit          3D

 31 31  0  0  0  0  0  0  0  0999 V2000
    2.0120   -0.3830   -2.4530 O   0  0  0  0  0  0  0  0  0  0  0  0
    2.4930   -0.8210   -1.3840 C   0  0  0  0  0  0  0  0  0  0  0  0
    1.8760   -0.5140   -0.2040 O   0  0  0  0  0  0  0  0  0  0  0  0
    0.6810    0.3010   -0.1210 C   0  0  2  0  0  0  0  0  0  0  0  0
    0.9360    1.4390    0.7650 C   0  0  0  0  0  0  0  0  0  0  0  0
    2.0510    1.5420    1.3870 O   0  0  0  0  0  0  0  0  0  0  0  0
    0.0310    2.4400    0.9820 O   0  0  0  0  0  0  0  0  0  0  0  0
    0.2260    3.5500    1.8160 C   0  0  0  0  0  0  0  0  0  0  0  0
    1.3970    4.4090    1.4130 C   0  0  0  0  0  0  0  0  0  0  0  0
    1.4450    5.4680    2.3490 O   0  0  0  0  0  0  0  0  0  0  0  0
   -0.3840   -0.6630    0.3460 C   0  0  1  0  0  0  0  0  0  0  0  0
   -0.1370   -1.1990    1.5750 O   0  0  0  0  0  0  0  0  0  0  0  0
   -1.8040   -0.2600    0.0410 C   0  0  1  0  0  0  0  0  0  0  0  0
   -2.5910   -1.5520   -0.2350 C   0  0  2  0  0  0  0  0  0  0  0  0
   -4.0500   -1.2610   -0.5460 C   0  0  0  0  0  0  0  0  0  0  0  0
   -4.7870   -2.5560   -0.8340 C   0  0  0  0  0  0  0  0  0  0  0  0
   -6.1400   -2.2540   -1.1250 O   0  0  0  0  0  0  0  0  0  0  0  0
   -2.4380   -2.5480    0.8250 C   0  0  0  0  0  0  0  0  0  0  0  0
   -1.4160   -3.2760    0.9940 O   0  0  0  0  0  0  0  0  0  0  0  0
   -3.4510   -2.7830    1.7790 O   0  0  0  0  0  0  0  0  0  0  0  0
   -2.4300    0.4770    1.1340 C   0  0  0  0  0  0  0  0  0  0  0  0
   -3.1810    1.7210    0.7260 C   0  0  0  0  0  0  0  0  0  0  0  0
   -2.6740    2.3340   -0.3750 O   0  0  0  0  0  0  0  0  0  0  0  0
   -2.3720    1.5130   -1.4180 C   0  0  0  0  0  0  0  0  0  0  0  0
   -1.7460    0.3490   -1.2030 O   0  0  0  0  0  0  0  0  0  0  0  0
    3.7200   -1.6720   -1.3320 C   0  0  1  0  0  0  0  0  0  0  0  0
    4.2330   -1.8990   -2.5970 O   0  0  0  0  0  0  0  0  0  0  0  0
    4.7510   -0.9330   -0.5250 C   0  0  1  0  0  0  0  0  0  0  0  0
    4.2040   -0.7170    0.7470 O   0  0  0  0  0  0  0  0  0  0  0  0
    6.0190   -1.7450   -0.3680 C   0  0  0  0  0  0  0  0  0  0  0  0
    6.6110   -1.9950   -1.5890 O   0  0  0  0  0  0  0  0  0  0  0  0
  1  2  2  0
  2  3  1  0
  2 26  1  0
  4  3  1  1
  4  5  1  0
  4 11  1  0
  5  6  2  0
  5  7  1  0
  7  8  1  0
  8  9  1  0
  9 10  1  0
 11 12  1  1
 11 13  1  0
 13 14  1  0
 13 21  1  1
 13 25  1  0
 14 15  1  1
 14 18  1  0
 15 16  1  0
 16 17  1  0
 18 19  2  0
 18 20  1  0
 21 22  1  0
 22 23  1  0
 23 24  1  0
 24 25  1  0
 26 27  1  6
 26 28  1  0
 28 29  1  1
 28 30  1  0
 30 31  1  0
M  CHG  1  20  -1
M  END
