
     RDKit          3D

 23 25  0  0  0  0  0  0  0  0999 V2000
    4.3420    2.5290    0.9550 C   0  0  0  0  0  0  0  0  0  0  0  0
    5.0420    1.5540    0.4050 C   0  0  0  0  0  0  0  0  0  0  0  0
    4.4330    0.4050   -0.2190 C   0  0  0  0  0  0  0  0  0  0  0  0
    5.1500   -0.5580   -0.7630 C   0  0  0  0  0  0  0  0  0  0  0  0
    4.5140   -1.7490   -1.4090 C   0  0  0  0  0  0  0  0  0  0  0  0
    2.9640    0.2860   -0.2580 C   0  0  0  0  0  0  0  0  0  0  0  0
    2.4170    0.2680    1.0820 N   0  0  0  0  0  0  0  0  0  0  0  0
    1.0100    0.1580    1.2330 C   0  0  0  0  0  0  0  0  0  0  0  0
    0.5260    0.1430    2.5010 N   0  0  0  0  0  0  0  0  0  0  0  0
   -0.7830    0.0410    2.6600 N   0  0  0  0  0  0  0  0  0  0  0  0
   -1.6380   -0.0470    1.6260 C   0  0  0  0  0  0  0  0  0  0  0  0
   -2.9980   -0.1520    1.8300 C   0  0  0  0  0  0  0  0  0  0  0  0
   -3.8810   -0.2430    0.7780 C   0  0  0  0  0  0  0  0  0  0  0  0
   -5.2430   -0.3490    0.9520 C   0  0  0  0  0  0  0  0  0  0  0  0
   -5.6850   -0.3620    2.1300 O   0  0  0  0  0  0  0  0  0  0  0  0
   -6.0230   -0.4320   -0.1350 N   0  0  0  0  0  0  0  0  0  0  0  0
   -5.5610   -0.4200   -1.3980 C   0  0  0  0  0  0  0  0  0  0  0  0
   -6.3610   -0.5040   -2.4340 N   0  0  0  0  0  0  0  0  0  0  0  0
   -4.2300   -0.3160   -1.5630 N   0  0  0  0  0  0  0  0  0  0  0  0
   -3.3860   -0.2280   -0.5090 C   0  0  0  0  0  0  0  0  0  0  0  0
   -2.0090   -0.1220   -0.7090 C   0  0  0  0  0  0  0  0  0  0  0  0
   -1.1450   -0.0320    0.3400 C   0  0  0  0  0  0  0  0  0  0  0  0
    0.2040    0.0730    0.1620 N   0  0  0  0  0  0  0  0  0  0  0  0
  1  2  2  0
  2  3  1  0
  3  4  2  3
  3  6  1  0
  4  5  1  0
  6  7  1  0
  7  8  1  0
  8  9  2  0
  8 23  1  0
  9 10  1  0
 10 11  2  0
 11 12  1  0
 11 22  1  0
 12 13  2  0
 13 14  1  0
 13 20  1  0
 14 15  2  0
 14 16  1  0
 16 17  1  0
 17 18  2  0
 17 19  1  0
 19 20  1  0
 20 21  2  0
 21 22  1  0
 22 23  2  0
M  END
