
     RDKit          3D

 12 12  0  0  0  0  0  0  0  0999 V2000
   -1.7330   -1.7670   -1.0020 C   0  0  0  0  0  0  0  0  0  0  0  0
   -1.7950   -1.1960    0.1830 C   0  0  0  0  0  0  0  0  0  0  0  0
   -0.9730   -0.0480    0.5580 C   0  0  0  0  0  0  0  0  0  0  0  0
   -1.0640    0.4950    1.7540 C   0  0  0  0  0  0  0  0  0  0  0  0
   -0.0060    0.4900   -0.4050 C   0  0  0  0  0  0  0  0  0  0  0  0
   -0.3000    0.9110   -1.6630 N   0  0  0  0  0  0  0  0  0  0  0  0
    0.7960    1.3110   -2.2530 N   0  0  0  0  0  0  0  0  0  0  0  0
    1.7810    1.1620   -1.4220 N   0  0  0  0  0  0  0  0  0  0  0  0
    1.3400    0.6440   -0.2300 C   0  0  0  0  0  0  0  0  0  0  0  0
    2.1570    0.3390    0.8860 N   0  0  0  0  0  0  0  0  0  0  0  0
    3.3710    0.5760    0.7910 O   0  0  0  0  0  0  0  0  0  0  0  0
    1.6940   -0.1920    2.0430 O   0  0  0  0  0  0  0  0  0  0  0  0
  1  2  2  0
  2  3  1  0
  3  4  2  0
  3  5  1  0
  5  6  1  0
  5  9  2  0
  6  7  2  0
  7  8  1  0
  8  9  1  0
  9 10  1  0
 10 11  2  0
 10 12  1  0
M  CHG  2  10   1  12  -1
M  END
