
     RDKit          3D

 12 13  0  0  0  0  0  0  0  0999 V2000
    4.9030    0.4930   -0.1490 O   0  0  0  0  0  0  0  0  0  0  0  0
    3.5370    0.5780   -0.2250 N   0  0  0  0  0  0  0  0  0  0  0  0
    2.8620    1.1840   -1.1750 N   0  0  0  0  0  0  0  0  0  0  0  0
    1.5530    1.0790   -0.9440 N   0  0  0  0  0  0  0  0  0  0  0  0
    1.4430    0.3790    0.1930 C   0  0  0  0  0  0  0  0  0  0  0  0
    0.1200    0.0300    0.8180 C   0  0  2  0  0  0  0  0  0  0  0  0
   -0.3640   -1.2180    0.1710 C   0  0  0  0  0  0  0  0  0  0  0  0
   -1.8660   -1.2310    0.0070 C   0  0  0  0  0  0  0  0  0  0  0  0
   -2.2220    0.0360   -0.7300 C   0  0  0  0  0  0  0  0  0  0  0  0
   -1.6710    1.2380   -0.0700 C   0  0  0  0  0  0  0  0  0  0  0  0
   -0.6900    1.0940    0.8200 O   0  0  0  0  0  0  0  0  0  0  0  0
    2.6760    0.0740    0.6300 N   0  0  0  0  0  0  0  0  0  0  0  0
  1  2  1  0
  2  3  2  0
  2 12  1  0
  3  4  1  0
  4  5  2  0
  6  5  1  6
  5 12  1  0
  6  7  1  0
  6 11  1  0
  7  8  1  0
  8  9  1  0
  9 10  1  0
 10 11  1  0
M  CHG  2   1  -1   2   1
M  END
