
     RDKit          3D

 12 12  0  0  0  0  0  0  0  0999 V2000
   -3.2240    1.1450    0.1930 C   0  0  0  0  0  0  0  0  0  0  0  0
   -1.9840    0.7210    0.1150 C   0  0  0  0  0  0  0  0  0  0  0  0
   -0.7720    1.4660    0.0930 N   0  0  0  0  0  0  0  0  0  0  0  0
    0.2940    0.5310   -0.0010 C   0  0  0  0  0  0  0  0  0  0  0  0
    1.7550    0.7990   -0.0560 C   0  0  0  0  0  0  0  0  0  0  0  0
    2.5390   -0.4870   -0.1530 C   0  0  0  0  0  0  0  0  0  0  0  0
    3.9530   -0.2300   -0.2070 N   0  0  0  0  0  0  0  0  0  0  0  0
    4.3550    0.9370   -0.1710 O   0  0  0  0  0  0  0  0  0  0  0  0
    4.8500   -1.2530   -0.2970 O   0  0  0  0  0  0  0  0  0  0  0  0
   -0.2080   -0.6540   -0.0330 N   0  0  0  0  0  0  0  0  0  0  0  0
   -1.5890   -0.6430    0.0320 N   0  0  0  0  0  0  0  0  0  0  0  0
   -2.4210   -1.8290    0.0140 C   0  0  0  0  0  0  0  0  0  0  0  0
  1  2  2  0
  2  3  1  0
  2 11  1  0
  3  4  1  0
  4  5  1  0
  4 10  2  0
  5  6  1  0
  6  7  1  0
  7  8  2  0
  7  9  1  0
 10 11  1  0
 11 12  1  0
M  CHG  2   7   1   9  -1
M  END
