
     RDKit          3D

 23 23  0  0  0  0  0  0  0  0999 V2000
   -4.3530    0.2340    0.4610 C   0  0  0  0  0  0  0  0  0  0  0  0
   -2.9670    0.1330    0.9540 C   0  0  0  0  0  0  0  0  0  0  0  0
   -1.9290   -0.4760    0.0470 C   0  0  2  0  0  0  0  0  0  0  0  0
   -2.2080   -1.8640   -0.2980 C   0  0  0  0  0  0  0  0  0  0  0  0
   -3.4990   -2.0900   -1.0430 C   0  0  0  0  0  0  0  0  0  0  0  0
   -0.5720   -0.0460    0.4700 C   0  0  2  0  0  0  0  0  0  0  0  0
   -0.5640    1.4070    0.3730 N   0  0  0  0  0  0  0  0  0  0  0  0
   -0.4860    2.2960    1.4590 C   0  0  0  0  0  0  0  0  0  0  0  0
   -0.4820    3.7730    1.3200 C   0  0  0  0  0  0  0  0  0  0  0  0
   -0.4150    1.8080    2.6240 O   0  0  0  0  0  0  0  0  0  0  0  0
    0.6620   -0.5390   -0.1340 C   0  0  2  0  0  0  0  0  0  0  0  0
    0.9540   -1.9870   -0.0750 C   0  0  2  0  0  0  0  0  0  0  0  0
    0.3590   -2.5780    1.0380 O   0  0  0  0  0  0  0  0  0  0  0  0
    2.4360   -2.1140    0.1160 C   0  0  1  0  0  0  0  0  0  0  0  0
    3.0770   -2.9280   -0.9800 C   0  0  0  0  0  0  0  0  0  0  0  0
    2.3720   -3.4040   -1.9050 O   0  0  0  0  0  0  0  0  0  0  0  0
    4.4360   -3.1470   -0.9660 O   0  0  0  0  0  0  0  0  0  0  0  0
    3.0220   -0.7590    0.0260 C   0  0  0  0  0  0  0  0  0  0  0  0
    1.8540    0.0780    0.5130 C   0  0  1  0  0  0  0  0  0  0  0  0
    2.1040    1.4500    0.4230 N   0  0  0  0  0  0  0  0  0  0  0  0
    2.1360    2.1240   -0.6300 C   0  0  0  0  0  0  0  0  0  0  0  0
    1.9180    1.5950   -1.9140 N   0  0  0  0  0  0  0  0  0  0  0  0
    2.4070    3.5290   -0.5640 N   0  0  0  0  0  0  0  0  0  0  0  0
  1  2  1  0
  3  2  1  1
  3  4  1  0
  3  6  1  0
  4  5  1  0
  6  7  1  6
  6 11  1  0
  7  8  1  0
  8  9  1  0
  8 10  2  0
 11 12  1  0
 11 19  1  1
 12 13  1  1
 12 14  1  0
 14 15  1  6
 14 18  1  0
 15 16  2  0
 15 17  1  0
 18 19  1  0
 19 20  1  6
 20 21  2  3
 21 22  1  0
 21 23  1  0
M  CHG  1  20   1
M  END
