
     RDKit          3D

 12 12  0  0  0  0  0  0  0  0999 V2000
   -2.5910    1.4310    0.3770 C   0  0  0  0  0  0  0  0  0  0  0  0
   -1.4450    0.7960    0.2110 C   0  0  0  0  0  0  0  0  0  0  0  0
   -0.1950    1.4700    0.1600 N   0  0  0  0  0  0  0  0  0  0  0  0
    0.9380    0.8270   -0.0050 C   0  0  0  0  0  0  0  0  0  0  0  0
    2.1720    1.5240   -0.0530 N   0  0  0  0  0  0  0  0  0  0  0  0
    0.9580   -0.6250   -0.1440 C   0  0  0  0  0  0  0  0  0  0  0  0
    2.2290   -1.2600   -0.3210 N   0  0  0  0  0  0  0  0  0  0  0  0
    2.5780   -2.1510    0.4790 O   0  0  0  0  0  0  0  0  0  0  0  0
    3.0860   -0.9420   -1.3250 O   0  0  0  0  0  0  0  0  0  0  0  0
   -0.1500   -1.3730   -0.1130 C   0  0  0  0  0  0  0  0  0  0  0  0
   -1.4100   -0.6560    0.0710 C   0  0  0  0  0  0  0  0  0  0  0  0
   -2.5280   -1.2820    0.1150 N   0  0  0  0  0  0  0  0  0  0  0  0
  1  2  2  0
  2  3  1  0
  2 11  1  0
  3  4  2  0
  4  5  1  0
  4  6  1  0
  6  7  1  0
  6 10  2  0
  7  8  2  0
  7  9  1  0
 10 11  1  0
 11 12  2  0
M  CHG  2   7   1   9  -1
M  END
