
     RDKit          3D

 15 15  0  0  0  0  0  0  0  0999 V2000
    4.4410    1.1960   -0.0810 C   0  0  0  0  0  0  0  0  0  0  0  0
    4.4100   -0.3100   -0.0280 C   0  0  0  0  0  0  0  0  0  0  0  0
    3.2210   -0.8570   -0.5380 O   0  0  0  0  0  0  0  0  0  0  0  0
    1.9660   -0.5960   -0.0320 C   0  0  0  0  0  0  0  0  0  0  0  0
    1.8420    0.1750    0.9450 O   0  0  0  0  0  0  0  0  0  0  0  0
    0.7740   -1.2210   -0.6390 C   0  0  0  0  0  0  0  0  0  0  0  0
   -0.5260   -0.8660   -0.0250 C   0  0  1  0  0  0  0  0  0  0  0  0
   -1.5190   -1.5640   -0.7450 O   0  0  0  0  0  0  0  0  0  0  0  0
   -0.7030   -1.2690    1.4110 C   0  0  0  0  0  0  0  0  0  0  0  0
   -2.1440   -1.0360    1.7610 C   0  0  0  0  0  0  0  0  0  0  0  0
   -2.6660    0.1510    1.4210 O   0  0  0  0  0  0  0  0  0  0  0  0
   -2.3030    0.7500    0.2670 C   0  0  2  0  0  0  0  0  0  0  0  0
   -2.5450    2.2570    0.4730 C   0  0  0  0  0  0  0  0  0  0  0  0
   -3.0780    0.3010   -0.9560 C   0  0  0  0  0  0  0  0  0  0  0  0
   -0.8300    0.6280   -0.0660 C   0  0  0  0  0  0  0  0  0  0  0  0
  1  2  1  0
  2  3  1  0
  3  4  1  0
  4  5  2  0
  4  6  1  0
  6  7  1  0
  7  8  1  6
  7  9  1  0
  7 15  1  0
  9 10  1  0
 10 11  1  0
 11 12  1  0
 12 13  1  1
 12 14  1  0
 12 15  1  0
M  END
