
     RDKit          3D

 13 13  0  0  0  0  0  0  0  0999 V2000
    3.2760    0.4000   -0.6910 O   0  0  0  0  0  0  0  0  0  0  0  0
    2.4630   -0.2770   -0.0190 C   0  0  0  0  0  0  0  0  0  0  0  0
    2.9250   -1.4700    0.5250 O   0  0  0  0  0  0  0  0  0  0  0  0
    1.0610    0.1070    0.2310 C   0  0  1  0  0  0  0  0  0  0  0  0
    0.7150    1.3700   -0.3920 N   0  0  0  0  0  0  0  0  0  0  0  0
   -0.6680    1.7000   -0.4670 C   0  0  0  0  0  0  0  0  0  0  0  0
   -0.9930    2.8470   -0.8630 O   0  0  0  0  0  0  0  0  0  0  0  0
   -1.7480    0.7680   -0.1030 C   0  0  2  0  0  0  0  0  0  0  0  0
   -2.5940    1.3110    0.8850 O   0  0  0  0  0  0  0  0  0  0  0  0
   -1.2590   -0.5600    0.3730 C   0  0  1  0  0  0  0  0  0  0  0  0
   -2.1790   -1.5810    0.2040 O   0  0  0  0  0  0  0  0  0  0  0  0
    0.0710   -0.9050   -0.2680 C   0  0  2  0  0  0  0  0  0  0  0  0
    0.4420   -2.2110    0.0190 O   0  0  0  0  0  0  0  0  0  0  0  0
  1  2  2  0
  2  3  1  0
  4  2  1  6
  4  5  1  0
  4 12  1  0
  5  6  1  0
  6  7  2  0
  6  8  1  0
  8  9  1  1
  8 10  1  0
 10 11  1  6
 10 12  1  0
 12 13  1  1
M  END
