
     RDKit          3D

 15 15  0  0  0  0  0  0  0  0999 V2000
    3.3360    1.7690   -0.4620 C   0  0  0  0  0  0  0  0  0  0  0  0
    3.3820    0.3510   -0.0670 C   0  0  0  0  0  0  0  0  0  0  0  0
    4.5050   -0.1770    0.2150 O   0  0  0  0  0  0  0  0  0  0  0  0
    2.1680   -0.5000    0.0170 C   0  0  0  0  0  0  0  0  0  0  0  0
    2.4270   -1.8790    0.4650 C   0  0  0  0  0  0  0  0  0  0  0  0
    1.3400   -2.6900    0.5950 O   0  0  0  0  0  0  0  0  0  0  0  0
    0.9950   -0.0430   -0.2530 C   0  0  0  0  0  0  0  0  0  0  0  0
    0.9530    1.3340   -0.6320 O   0  0  0  0  0  0  0  0  0  0  0  0
   -0.3160   -0.6930   -0.2490 C   0  0  0  0  0  0  0  0  0  0  0  0
   -1.2440   -0.2630    0.8680 C   0  0  2  0  0  0  0  0  0  0  0  0
   -2.5550   -1.0010    0.7560 C   0  0  0  0  0  0  0  0  0  0  0  0
   -3.6050   -0.2480    0.0010 C   0  0  0  0  0  0  0  0  0  0  0  0
   -3.5830    1.1080    0.1720 O   0  0  0  0  0  0  0  0  0  0  0  0
   -2.3440    1.6420   -0.1590 C   0  0  0  0  0  0  0  0  0  0  0  0
   -1.4090    1.2050    0.9720 C   0  0  0  0  0  0  0  0  0  0  0  0
  1  2  1  0
  2  3  2  0
  2  4  1  0
  4  5  1  0
  4  7  2  3
  5  6  1  0
  7  8  1  0
  7  9  1  0
 10  9  1  6
 10 11  1  0
 10 15  1  0
 11 12  1  0
 12 13  1  0
 13 14  1  0
 14 15  1  0
M  END
