
     RDKit          3D

 15 15  0  0  0  0  0  0  0  0999 V2000
    5.9060    0.4660   -0.1690 C   0  0  0  0  0  0  0  0  0  0  0  0
    4.4990    0.4830   -0.7450 C   0  0  0  0  0  0  0  0  0  0  0  0
    3.5690    0.5050    0.4250 C   0  0  0  0  0  0  0  0  0  0  0  0
    2.2120    0.5180    0.1180 O   0  0  0  0  0  0  0  0  0  0  0  0
    1.5060   -0.4640   -0.5650 C   0  0  0  0  0  0  0  0  0  0  0  0
    2.1460   -1.4670   -0.9460 O   0  0  0  0  0  0  0  0  0  0  0  0
    0.0270   -0.3040   -0.8250 C   0  0  0  0  0  0  0  0  0  0  0  0
   -0.6610   -0.3800    0.5110 C   0  0  0  0  0  0  0  0  0  0  0  0
   -2.1240   -0.2370    0.4960 C   0  0  2  0  0  0  0  0  0  0  0  0
   -2.6020   -0.3220    1.8100 O   0  0  0  0  0  0  0  0  0  0  0  0
   -2.9040   -1.1560   -0.3700 C   0  0  0  0  0  0  0  0  0  0  0  0
   -4.3770   -0.7940   -0.1790 C   0  0  0  0  0  0  0  0  0  0  0  0
   -4.6370    0.5380   -0.3660 O   0  0  0  0  0  0  0  0  0  0  0  0
   -3.9010    1.3820    0.4530 C   0  0  0  0  0  0  0  0  0  0  0  0
   -2.4400    1.1890    0.0240 C   0  0  0  0  0  0  0  0  0  0  0  0
  1  2  1  0
  2  3  1  0
  3  4  1  0
  4  5  1  0
  5  6  2  0
  5  7  1  0
  7  8  1  0
  8  9  1  0
  9 10  1  1
  9 11  1  0
  9 15  1  0
 11 12  1  0
 12 13  1  0
 13 14  1  0
 14 15  1  0
M  END
