
     RDKit          3D

 15 16  0  0  0  0  0  0  0  0999 V2000
    1.1740   -0.1830    2.5580 O   0  0  0  0  0  0  0  0  0  0  0  0
    2.2310    0.0920    1.9700 C   0  0  0  0  0  0  0  0  0  0  0  0
    3.2910    0.5910    2.7130 O   0  0  0  0  0  0  0  0  0  0  0  0
    2.4120   -0.0830    0.5350 C   0  0  0  0  0  0  0  0  0  0  0  0
    3.5070    0.1870   -0.1650 C   0  0  0  0  0  0  0  0  0  0  0  0
    3.2800   -0.1300   -1.5790 C   0  0  0  0  0  0  0  0  0  0  0  0
    1.8810   -0.6220   -1.5650 C   0  0  0  0  0  0  0  0  0  0  0  0
    1.3690   -0.6000   -0.3490 C   0  0  0  0  0  0  0  0  0  0  0  0
    0.1140   -0.9790    0.0350 O   0  0  0  0  0  0  0  0  0  0  0  0
   -1.0130   -0.1980    0.1650 C   0  0  1  0  0  0  0  0  0  0  0  0
   -1.4520    0.4940   -1.1010 C   0  0  0  0  0  0  0  0  0  0  0  0
   -2.8150    1.1110   -0.8890 C   0  0  0  0  0  0  0  0  0  0  0  0
   -3.7630    0.1970   -0.4930 O   0  0  0  0  0  0  0  0  0  0  0  0
   -3.4400   -0.3260    0.7650 C   0  0  0  0  0  0  0  0  0  0  0  0
   -2.1660   -1.1100    0.6020 C   0  0  0  0  0  0  0  0  0  0  0  0
  1  2  2  0
  2  3  1  0
  2  4  1  0
  4  5  2  0
  4  8  1  0
  5  6  1  0
  6  7  1  0
  7  8  2  0
  8  9  1  0
 10  9  1  6
 10 11  1  0
 10 15  1  0
 11 12  1  0
 12 13  1  0
 13 14  1  0
 14 15  1  0
M  END
