
     RDKit          3D

 15 15  0  0  0  0  0  0  0  0999 V2000
    3.5210    0.4170   -1.0100 C   0  0  0  0  0  0  0  0  0  0  0  0
    3.1840   -0.1550    0.3400 C   0  0  1  0  0  0  0  0  0  0  0  0
    4.1300   -1.3230    0.6260 C   0  0  0  0  0  0  0  0  0  0  0  0
    3.4340    0.8850    1.3760 C   0  0  0  0  0  0  0  0  0  0  0  0
    1.8760   -0.6900    0.3850 O   0  0  0  0  0  0  0  0  0  0  0  0
    0.7330    0.0470    0.1470 C   0  0  0  0  0  0  0  0  0  0  0  0
    0.8960    1.2680   -0.1240 O   0  0  0  0  0  0  0  0  0  0  0  0
   -0.6340   -0.5440    0.2010 C   0  0  0  0  0  0  0  0  0  0  0  0
   -1.5730    0.4590   -0.0860 O   0  0  0  0  0  0  0  0  0  0  0  0
   -2.9320    0.2800   -0.1270 C   0  0  0  0  0  0  0  0  0  0  0  0
   -3.6940    1.0840   -0.8310 C   0  0  0  0  0  0  0  0  0  0  0  0
   -5.1620    0.9430   -0.9140 C   0  0  0  0  0  0  0  0  0  0  0  0
   -5.6820   -0.1220   -0.1780 O   0  0  0  0  0  0  0  0  0  0  0  0
   -4.8400   -0.9450    0.5510 C   0  0  0  0  0  0  0  0  0  0  0  0
   -3.5420   -0.8040    0.6120 C   0  0  0  0  0  0  0  0  0  0  0  0
  2  1  1  6
  2  3  1  0
  2  4  1  0
  2  5  1  0
  5  6  1  0
  6  7  2  0
  6  8  1  0
  8  9  1  0
  9 10  1  0
 10 11  2  0
 10 15  1  0
 11 12  1  0
 12 13  1  0
 13 14  1  0
 14 15  2  0
M  END
