
     RDKit          3D

 14 14  0  0  0  0  0  0  0  0999 V2000
    4.5530    1.1850   -1.1560 C   0  0  0  0  0  0  0  0  0  0  0  0
    3.4980    0.3020   -1.0190 O   0  0  0  0  0  0  0  0  0  0  0  0
    3.5820   -0.3130    0.2170 C   0  0  0  0  0  0  0  0  0  0  0  0
    2.4320   -1.2970    0.4070 C   0  0  0  0  0  0  0  0  0  0  0  0
    1.2320   -0.5810    0.3160 O   0  0  0  0  0  0  0  0  0  0  0  0
   -0.0070   -1.1470    0.4390 C   0  0  0  0  0  0  0  0  0  0  0  0
   -0.1290   -2.3770    0.6440 O   0  0  0  0  0  0  0  0  0  0  0  0
   -1.2380   -0.3400    0.3340 C   0  0  0  0  0  0  0  0  0  0  0  0
   -1.1730    0.9500    0.1200 C   0  0  0  0  0  0  0  0  0  0  0  0
   -2.3660    1.7840    0.0100 C   0  0  0  0  0  0  0  0  0  0  0  0
   -3.6450    1.0660   -0.2690 C   0  0  0  0  0  0  0  0  0  0  0  0
   -3.3950   -0.3580   -0.6880 C   0  0  0  0  0  0  0  0  0  0  0  0
   -2.5770   -0.9720    0.4630 C   0  0  1  0  0  0  0  0  0  0  0  0
   -2.5430   -2.3440    0.3870 O   0  0  0  0  0  0  0  0  0  0  0  0
  1  2  1  0
  2  3  1  0
  3  4  1  0
  4  5  1  0
  5  6  1  0
  6  7  2  0
  6  8  1  0
  8  9  2  0
  8 13  1  0
  9 10  1  0
 10 11  1  0
 11 12  1  0
 12 13  1  0
 13 14  1  6
M  END
