
     RDKit          3D

 15 15  0  0  0  0  0  0  0  0999 V2000
   -3.2860    1.7500    0.7620 O   0  0  0  0  0  0  0  0  0  0  0  0
   -2.7780    0.7100   -0.0240 C   0  0  0  0  0  0  0  0  0  0  0  0
   -2.7750    1.0240   -1.4470 C   0  0  0  0  0  0  0  0  0  0  0  0
   -1.7180    1.0650   -2.2200 C   0  0  0  0  0  0  0  0  0  0  0  0
   -1.7430    1.3880   -3.6690 C   0  0  0  0  0  0  0  0  0  0  0  0
   -0.5040    1.3380   -4.1240 C   0  0  0  0  0  0  0  0  0  0  0  0
    0.3870    0.9870   -3.0280 C   0  0  0  0  0  0  0  0  0  0  0  0
   -0.3200    0.8240   -1.8990 C   0  0  0  0  0  0  0  0  0  0  0  0
    0.1920    0.4860   -0.6470 O   0  0  0  0  0  0  0  0  0  0  0  0
    1.5870    0.6010   -0.4440 C   0  0  0  0  0  0  0  0  0  0  0  0
    1.9550    0.1920    0.9700 C   0  0  0  0  0  0  0  0  0  0  0  0
    1.5750   -1.1320    1.1850 O   0  0  0  0  0  0  0  0  0  0  0  0
    1.9020   -1.5240    2.4700 C   0  0  0  0  0  0  0  0  0  0  0  0
    1.4850   -2.9600    2.6870 C   0  0  0  0  0  0  0  0  0  0  0  0
    1.8180   -3.3450    3.9820 O   0  0  0  0  0  0  0  0  0  0  0  0
  1  2  1  0
  2  3  1  0
  3  4  2  3
  4  5  1  0
  4  8  1  0
  5  6  2  0
  6  7  1  0
  7  8  2  0
  8  9  1  0
  9 10  1  0
 10 11  1  0
 11 12  1  0
 12 13  1  0
 13 14  1  0
 14 15  1  0
M  END
