
     RDKit          3D

 15 14  0  0  0  0  0  0  0  0999 V2000
    3.4970    2.7740   -0.6220 C   0  0  0  0  0  0  0  0  0  0  0  0
    2.1940    2.0830   -0.4600 C   0  0  0  0  0  0  0  0  0  0  0  0
    2.1960    0.7830   -0.1870 C   0  0  0  0  0  0  0  0  0  0  0  0
    0.9510    0.0740   -0.0210 C   0  0  0  0  0  0  0  0  0  0  0  0
    0.9380   -1.2360    0.2520 C   0  0  0  0  0  0  0  0  0  0  0  0
    2.2950   -1.8250    0.3550 C   0  0  0  0  0  0  0  0  0  0  0  0
   -0.3230   -1.9490    0.4200 C   0  0  0  0  0  0  0  0  0  0  0  0
   -0.3540   -3.2300    0.6920 C   0  0  0  0  0  0  0  0  0  0  0  0
    0.7220   -4.0380    0.8500 O   0  0  0  0  0  0  0  0  0  0  0  0
   -1.6350   -1.3080    0.3000 C   0  0  0  0  0  0  0  0  0  0  0  0
   -2.6550   -2.0740    0.4760 O   0  0  0  0  0  0  0  0  0  0  0  0
   -1.9370   -0.0160    0.0300 O   0  0  0  0  0  0  0  0  0  0  0  0
   -3.2340    0.5110   -0.0660 C   0  0  0  0  0  0  0  0  0  0  0  0
   -3.2330    1.9880   -0.3790 C   0  0  0  0  0  0  0  0  0  0  0  0
   -4.5700    2.3780   -0.4450 O   0  0  0  0  0  0  0  0  0  0  0  0
  1  2  1  0
  2  3  2  3
  3  4  1  0
  4  5  2  3
  5  6  1  0
  5  7  1  0
  7  8  2  3
  7 10  1  0
  8  9  1  0
 10 11  2  0
 10 12  1  0
 12 13  1  0
 13 14  1  0
 14 15  1  0
M  END
