
     RDKit          3D

 27 29  0  0  0  0  0  0  0  0999 V2000
   -6.7970    1.6110   -0.6660 C   0  0  0  0  0  0  0  0  0  0  0  0
   -5.6440    0.6950   -0.7770 C   0  0  0  0  0  0  0  0  0  0  0  0
   -5.8100   -0.4690   -1.4480 F   0  0  0  0  0  0  0  0  0  0  0  0
   -4.4720    0.9750   -0.2460 C   0  0  0  0  0  0  0  0  0  0  0  0
   -3.3940    0.0460   -0.3880 N   0  0  0  0  0  0  0  0  0  0  0  0
   -2.2670    0.3310    0.1300 C   0  0  0  0  0  0  0  0  0  0  0  0
   -1.1040   -0.5420    0.0450 C   0  0  0  0  0  0  0  0  0  0  0  0
    0.1780    0.0070   -0.0250 C   0  0  0  0  0  0  0  0  0  0  0  0
    1.2920   -0.7570   -0.1020 C   0  0  0  0  0  0  0  0  0  0  0  0
    2.5960   -0.2480   -0.1880 N   0  0  0  0  0  0  0  0  0  0  0  0
    2.9950    1.1130   -0.1680 C   0  0  0  0  0  0  0  0  0  0  0  0
    2.1450    1.9930   -0.0640 O   0  0  0  0  0  0  0  0  0  0  0  0
    4.3550    1.5110   -0.2650 N   0  0  0  0  0  0  0  0  0  0  0  0
    4.8100    2.8620   -0.2450 C   0  0  0  0  0  0  0  0  0  0  0  0
    4.5250    3.6460    0.9880 C   0  0  0  0  0  0  0  0  0  0  0  0
    3.2170    3.8030    1.3110 F   0  0  0  0  0  0  0  0  0  0  0  0
    1.1430   -2.1660   -0.1110 C   0  0  0  0  0  0  0  0  0  0  0  0
   -0.1090   -2.7210   -0.0430 C   0  0  0  0  0  0  0  0  0  0  0  0
   -1.2410   -1.9020    0.0360 C   0  0  0  0  0  0  0  0  0  0  0  0
   -0.2870   -4.0870   -0.0510 O   0  0  0  0  0  0  0  0  0  0  0  0
    0.7660   -4.9170   -0.5020 C   0  0  0  0  0  0  0  0  0  0  0  0
    2.0570   -4.4440    0.1030 C   0  0  0  0  0  0  0  0  0  0  0  0
    2.3490   -2.9990   -0.1860 C   0  0  0  0  0  0  0  0  0  0  0  0
   -2.0760    1.5560    0.8430 N   0  0  0  0  0  0  0  0  0  0  0  0
   -3.1180    2.4990    1.0030 C   0  0  0  0  0  0  0  0  0  0  0  0
   -4.3030    2.2250    0.4730 C   0  0  0  0  0  0  0  0  0  0  0  0
   -5.2880    3.1380    0.6360 F   0  0  0  0  0  0  0  0  0  0  0  0
  1  2  1  0
  2  3  1  0
  2  4  2  3
  4  5  1  0
  4 26  1  0
  5  6  2  0
  6  7  1  0
  6 24  1  0
  7  8  2  0
  7 19  1  0
  8  9  1  0
  9 10  1  0
  9 17  2  0
 10 11  1  0
 11 12  2  0
 11 13  1  0
 13 14  1  0
 14 15  1  0
 15 16  1  0
 17 18  1  0
 17 23  1  0
 18 19  2  0
 18 20  1  0
 20 21  1  0
 21 22  1  0
 22 23  1  0
 24 25  1  0
 25 26  2  0
 26 27  1  0
M  END
