
     RDKit          3D

 25 28  0  0  0  0  0  0  0  0999 V2000
   -0.5780    3.5540    0.1010 N   0  0  0  0  0  0  0  0  0  0  0  0
   -0.7050    2.1590    0.3910 C   0  0  0  0  0  0  0  0  0  0  0  0
    0.3150    1.4870    1.0090 C   0  0  0  0  0  0  0  0  0  0  0  0
    0.1850    0.1430    1.2860 C   0  0  0  0  0  0  0  0  0  0  0  0
    1.2690   -0.5090    1.9330 N   0  0  0  0  0  0  0  0  0  0  0  0
    2.4150   -0.5700    1.3280 C   0  0  0  0  0  0  0  0  0  0  0  0
    2.7320   -0.0820    0.1230 N   0  0  0  0  0  0  0  0  0  0  0  0
    4.0200   -0.3410   -0.1700 C   0  0  0  0  0  0  0  0  0  0  0  0
    4.8070   -0.0560   -1.2610 C   0  0  0  0  0  0  0  0  0  0  0  0
    6.1360   -0.4460   -1.3130 C   0  0  0  0  0  0  0  0  0  0  0  0
    6.6410   -1.1350   -0.2240 C   0  0  0  0  0  0  0  0  0  0  0  0
    5.8690   -1.4290    0.8740 C   0  0  0  0  0  0  0  0  0  0  0  0
    4.5490   -1.0380    0.9190 C   0  0  0  0  0  0  0  0  0  0  0  0
    3.5440   -1.1550    1.8020 N   0  0  0  0  0  0  0  0  0  0  0  0
   -0.9710   -0.4920    0.9320 C   0  0  0  0  0  0  0  0  0  0  0  0
   -2.0480    0.1530    0.2940 C   0  0  0  0  0  0  0  0  0  0  0  0
   -3.1950   -0.6360   -0.0910 C   0  0  0  0  0  0  0  0  0  0  0  0
   -3.5520   -0.8550   -1.4030 C   0  0  0  0  0  0  0  0  0  0  0  0
   -4.6630   -1.6120   -1.7220 C   0  0  0  0  0  0  0  0  0  0  0  0
   -5.4340   -2.1630   -0.7160 C   0  0  0  0  0  0  0  0  0  0  0  0
   -5.0860   -1.9490    0.5850 C   0  0  0  0  0  0  0  0  0  0  0  0
   -3.9730   -1.1900    0.9040 C   0  0  0  0  0  0  0  0  0  0  0  0
   -1.8880    1.4790    0.0370 C   0  0  0  0  0  0  0  0  0  0  0  0
   -2.9490    2.2870   -0.5890 C   0  0  0  0  0  0  0  0  0  0  0  0
   -4.0950    1.6360   -0.8970 O   0  0  0  0  0  0  0  0  0  0  0  0
  1  2  1  0
  2  3  2  0
  2 23  1  0
  3  4  1  0
  4  5  1  0
  4 15  2  0
  5  6  2  3
  6  7  1  0
  6 14  1  0
  7  8  1  0
  8  9  2  0
  8 13  1  0
  9 10  1  0
 10 11  2  0
 11 12  1  0
 12 13  2  0
 13 14  1  0
 15 16  1  0
 16 17  1  0
 16 23  2  0
 17 18  2  0
 17 22  1  0
 18 19  1  0
 19 20  2  0
 20 21  1  0
 21 22  2  0
 23 24  1  0
 24 25  1  0
M  CHG  1   5   1
M  END
