
     RDKit          3D

 27 29  0  0  0  0  0  0  0  0999 V2000
   -4.4800    2.2900   -1.2300 C   0  0  0  0  0  0  0  0  0  0  0  0
   -3.5760    1.3470   -0.7200 O   0  0  0  0  0  0  0  0  0  0  0  0
   -3.9740    0.0840   -0.2800 C   0  0  0  0  0  0  0  0  0  0  0  0
   -5.3240   -0.2410   -0.3550 C   0  0  0  0  0  0  0  0  0  0  0  0
   -5.7670   -1.4800    0.0690 C   0  0  0  0  0  0  0  0  0  0  0  0
   -4.8400   -2.3720    0.5620 C   0  0  0  0  0  0  0  0  0  0  0  0
   -5.2860   -3.5800    0.9740 F   0  0  0  0  0  0  0  0  0  0  0  0
   -3.5080   -2.0300    0.6270 C   0  0  0  0  0  0  0  0  0  0  0  0
   -3.0390   -0.7990    0.2100 C   0  0  0  0  0  0  0  0  0  0  0  0
   -1.6650   -0.4480    0.2780 N   0  0  0  0  0  0  0  0  0  0  0  0
   -0.7690   -1.0480   -0.5210 C   0  0  0  0  0  0  0  0  0  0  0  0
   -1.2180   -2.0410   -1.4360 N   0  0  0  0  0  0  0  0  0  0  0  0
    0.5100   -0.6780   -0.4140 N   0  0  0  0  0  0  0  0  0  0  0  0
    0.9720    0.2400    0.4220 C   0  0  0  0  0  0  0  0  0  0  0  0
    2.3740    0.6120    0.5050 C   0  0  0  0  0  0  0  0  0  0  0  0
    2.8890    1.5440    1.3450 C   0  0  0  0  0  0  0  0  0  0  0  0
    4.2600    1.7950    1.3120 C   0  0  0  0  0  0  0  0  0  0  0  0
    5.1070    1.1200    0.4470 C   0  0  0  0  0  0  0  0  0  0  0  0
    4.5800    0.1740   -0.4050 C   0  0  0  0  0  0  0  0  0  0  0  0
    5.4330   -0.5390   -1.3090 N   0  0  0  0  0  0  0  0  0  0  0  0
    6.8600   -0.2490   -1.3180 C   0  0  1  0  0  0  0  0  0  0  0  0
    7.4720   -1.0490   -2.2590 F   0  0  0  0  0  0  0  0  0  0  0  0
    6.9850    1.0730   -1.7050 F   0  0  0  0  0  0  0  0  0  0  0  0
    3.2420   -0.0620   -0.3630 C   0  0  0  0  0  0  0  0  0  0  0  0
    0.0720    0.8640    1.2470 C   0  0  0  0  0  0  0  0  0  0  0  0
   -1.2750    0.5010    1.1610 C   0  0  0  0  0  0  0  0  0  0  0  0
   -2.1180    1.0600    1.9080 O   0  0  0  0  0  0  0  0  0  0  0  0
  1  2  1  0
  2  3  1  0
  3  4  2  0
  3  9  1  0
  4  5  1  0
  5  6  2  0
  6  7  1  0
  6  8  1  0
  8  9  2  0
  9 10  1  0
 10 11  1  0
 10 26  1  0
 11 12  1  0
 11 13  2  0
 13 14  1  0
 14 15  1  0
 14 25  2  0
 15 16  2  0
 15 24  1  0
 16 17  1  0
 17 18  2  0
 18 19  1  0
 19 20  1  0
 19 24  2  0
 20 21  1  0
 21 22  1  6
 21 23  1  0
 25 26  1  0
 26 27  2  0
M  END
