
     RDKit          3D

 26 28  0  0  0  0  0  0  0  0999 V2000
   -5.3110   -2.6300    0.9410 C   0  0  0  0  0  0  0  0  0  0  0  0
   -4.5440   -1.4110    0.5410 C   0  0  0  0  0  0  0  0  0  0  0  0
   -3.2960   -1.5780    0.0720 C   0  0  0  0  0  0  0  0  0  0  0  0
   -2.4890   -0.4320   -0.3370 C   0  0  0  0  0  0  0  0  0  0  0  0
   -1.1630   -0.5460   -0.8410 N   0  0  0  0  0  0  0  0  0  0  0  0
   -0.0180   -0.1740   -0.1150 C   0  0  0  0  0  0  0  0  0  0  0  0
   -0.1600    0.3300    1.1550 C   0  0  0  0  0  0  0  0  0  0  0  0
    0.9740    0.6880    1.8500 C   0  0  0  0  0  0  0  0  0  0  0  0
    2.2310    0.5370    1.2650 C   0  0  0  0  0  0  0  0  0  0  0  0
    2.4100    0.0400    0.0070 C   0  0  0  0  0  0  0  0  0  0  0  0
    3.6380   -0.1470   -0.6640 N   0  0  0  0  0  0  0  0  0  0  0  0
    4.9160    0.1430   -0.1550 C   0  0  0  0  0  0  0  0  0  0  0  0
    5.0500    0.6140    0.9950 O   0  0  0  0  0  0  0  0  0  0  0  0
    6.1560   -0.1090   -0.9860 C   0  0  0  0  0  0  0  0  0  0  0  0
    7.3560    0.2960   -0.1780 C   0  0  2  0  0  0  0  0  0  0  0  0
    7.2610    1.6470    0.1430 F   0  0  0  0  0  0  0  0  0  0  0  0
    8.5390    0.0410   -0.8120 F   0  0  0  0  0  0  0  0  0  0  0  0
    7.3790   -0.4090    1.0200 F   0  0  0  0  0  0  0  0  0  0  0  0
    1.2360   -0.3110   -0.6650 C   0  0  0  0  0  0  0  0  0  0  0  0
   -3.0100    0.7680   -0.2370 C   0  0  0  0  0  0  0  0  0  0  0  0
   -2.4870    2.1110   -0.5530 C   0  0  0  0  0  0  0  0  0  0  0  0
   -1.3800    2.4260   -1.0080 O   0  0  0  0  0  0  0  0  0  0  0  0
   -3.5450    2.9950   -0.2170 N   0  0  0  0  0  0  0  0  0  0  0  0
   -4.6190    2.2780    0.2590 N   0  0  0  0  0  0  0  0  0  0  0  0
   -4.3580    1.0150    0.2640 C   0  0  0  0  0  0  0  0  0  0  0  0
   -5.1970   -0.1110    0.6840 C   0  0  0  0  0  0  0  0  0  0  0  0
  1  2  1  0
  2  3  2  0
  2 26  1  0
  3  4  1  0
  4  5  1  0
  4 20  2  0
  5  6  1  0
  6  7  2  0
  6 19  1  0
  7  8  1  0
  8  9  2  0
  9 10  1  0
 10 11  1  0
 10 19  2  0
 11 12  1  0
 12 13  2  0
 12 14  1  0
 14 15  1  0
 15 16  1  1
 15 17  1  0
 15 18  1  0
 20 21  1  0
 20 25  1  0
 21 22  2  0
 21 23  1  0
 23 24  1  0
 24 25  2  0
 25 26  1  0
M  END
