
     RDKit          3D

 15 15  0  0  0  0  0  0  0  0999 V2000
    3.7130   -2.4440   -1.5200 O   0  0  0  0  0  0  0  0  0  0  0  0
    2.4740   -2.2840   -1.1300 O   0  0  0  0  0  0  0  0  0  0  0  0
    2.4360   -1.4580   -0.1130 O   0  0  0  0  0  0  0  0  0  0  0  0
    2.4840   -0.1480   -0.5750 C   0  0  0  0  0  0  0  0  0  0  0  0
    2.4420    0.8230    0.5860 C   0  0  0  0  0  0  0  0  0  0  0  0
    1.3170    0.7120    1.3480 O   0  0  0  0  0  0  0  0  0  0  0  0
    0.1150    0.9300    0.7520 C   0  0  2  0  0  0  0  0  0  0  0  0
   -0.7410    1.9590    1.4590 C   0  0  0  0  0  0  0  0  0  0  0  0
   -1.7590    1.2430    2.0350 O   0  0  0  0  0  0  0  0  0  0  0  0
   -1.4410   -0.0080    2.0730 O   0  0  0  0  0  0  0  0  0  0  0  0
   -0.8160   -0.2870    0.8570 C   0  0  1  0  0  0  0  0  0  0  0  0
   -1.8820   -0.1980   -0.2130 C   0  0  0  0  0  0  0  0  0  0  0  0
   -2.9070   -1.1130    0.0170 O   0  0  0  0  0  0  0  0  0  0  0  0
   -3.8290   -0.9440   -1.0230 C   0  0  0  0  0  0  0  0  0  0  0  0
   -2.8990   -1.3020   -2.6860 Br  0  0  0  0  0  0  0  0  0  0  0  0
  1  2  1  0
  2  3  1  0
  3  4  1  0
  4  5  1  0
  5  6  1  0
  7  6  1  1
  7  8  1  0
  7 11  1  0
  8  9  1  0
  9 10  1  0
 10 11  1  0
 11 12  1  6
 12 13  1  0
 13 14  1  0
 14 15  1  0
M  END
