
     RDKit          3D

 15 15  0  0  0  0  0  0  0  0999 V2000
   -0.7700   -0.5910    1.7210 C   0  0  0  0  0  0  0  0  0  0  0  0
   -0.3500   -0.3480    0.2850 C   0  0  1  0  0  0  0  0  0  0  0  0
   -1.3230    0.6610   -0.2900 C   0  0  0  0  0  0  0  0  0  0  0  0
   -2.7480    0.1540   -0.2540 C   0  0  0  0  0  0  0  0  0  0  0  0
   -3.5440    1.1630   -0.8060 O   0  0  0  0  0  0  0  0  0  0  0  0
   -4.7980    0.7680   -0.7970 O   0  0  0  0  0  0  0  0  0  0  0  0
    0.9300    0.1900    0.1770 O   0  0  0  0  0  0  0  0  0  0  0  0
    1.9170   -0.4910   -0.5040 C   0  0  0  0  0  0  0  0  0  0  0  0
    1.6030   -1.5980   -1.0100 O   0  0  0  0  0  0  0  0  0  0  0  0
    3.2790    0.0330   -0.6460 C   0  0  0  0  0  0  0  0  0  0  0  0
    4.2620   -0.5720   -1.2840 C   0  0  0  0  0  0  0  0  0  0  0  0
    4.2160   -2.2410   -2.1810 Br  0  0  0  0  0  0  0  0  0  0  0  0
    5.3560    0.2910   -1.1570 O   0  0  0  0  0  0  0  0  0  0  0  0
    4.9500    1.4580   -0.6240 O   0  0  0  0  0  0  0  0  0  0  0  0
    3.7230    1.2360   -0.1290 O   0  0  0  0  0  0  0  0  0  0  0  0
  2  1  1  1
  2  3  1  0
  2  7  1  0
  3  4  1  0
  4  5  1  0
  5  6  1  0
  7  8  1  0
  8  9  2  0
  8 10  1  0
 10 11  2  0
 10 15  1  0
 11 12  1  0
 11 13  1  0
 13 14  1  0
 14 15  1  0
M  END
