
     RDKit          3D

 16 16  0  0  0  0  0  0  0  0999 V2000
    1.6800   -1.3740   -1.1550 O   0  0  0  0  0  0  0  0  0  0  0  0
    2.2650   -0.8880   -0.1680 C   0  0  0  0  0  0  0  0  0  0  0  0
    1.5230   -0.8460    0.9920 O   0  0  0  0  0  0  0  0  0  0  0  0
    0.2350   -1.2750    1.1670 C   0  0  0  0  0  0  0  0  0  0  0  0
   -0.8260   -0.6300    0.3330 C   0  0  0  0  0  0  0  0  0  0  0  0
   -2.0340   -1.2240    0.6860 O   0  0  0  0  0  0  0  0  0  0  0  0
   -3.1350   -0.7790    0.0220 C   0  0  0  0  0  0  0  0  0  0  0  0
   -3.3960    0.6790    0.2060 C   0  0  0  0  0  0  0  0  0  0  0  0
   -4.5500    1.0570   -0.5090 O   0  0  0  0  0  0  0  0  0  0  0  0
   -4.7040    2.3460   -0.2920 O   0  0  0  0  0  0  0  0  0  0  0  0
    3.6360   -0.3850   -0.1870 C   0  0  2  0  0  0  0  0  0  0  0  0
    4.0810    0.1070    1.0090 O   0  0  0  0  0  0  0  0  0  0  0  0
    4.4050    1.3650    0.8470 O   0  0  0  0  0  0  0  0  0  0  0  0
    4.7840    1.5370   -0.3790 O   0  0  0  0  0  0  0  0  0  0  0  0
    3.7860    0.8420   -1.0970 C   0  0  1  0  0  0  0  0  0  0  0  0
    4.3160    0.3920   -2.7100 Cl  0  0  0  0  0  0  0  0  0  0  0  0
  1  2  2  0
  2  3  1  0
 11  2  1  1
  3  4  1  0
  4  5  1  0
  5  6  1  0
  6  7  1  0
  7  8  1  0
  8  9  1  0
  9 10  1  0
 11 12  1  0
 11 15  1  0
 12 13  1  0
 13 14  1  0
 14 15  1  0
 15 16  1  6
M  END
