
     RDKit          3D

 15 15  0  0  0  0  0  0  0  0999 V2000
    4.8270   -0.2040    2.3070 O   0  0  0  0  0  0  0  0  0  0  0  0
    3.9020    0.4990    1.7050 O   0  0  0  0  0  0  0  0  0  0  0  0
    3.2670   -0.2900    0.7390 C   0  0  0  0  0  0  0  0  0  0  0  0
    2.2130    0.6020    0.0940 C   0  0  0  0  0  0  0  0  0  0  0  0
    1.4440   -0.1050   -0.9670 C   0  0  2  0  0  0  0  0  0  0  0  0
    0.5080    0.7720   -1.5030 O   0  0  0  0  0  0  0  0  0  0  0  0
   -0.6250    0.7260   -0.7160 C   0  0  0  0  0  0  0  0  0  0  0  0
   -1.2670   -0.6260   -0.9100 C   0  0  2  0  0  0  0  0  0  0  0  0
   -2.3340   -0.5930   -2.5490 Br  0  0  0  0  0  0  0  0  0  0  0  0
   -2.1880   -1.0240    0.2150 C   0  0  0  0  0  0  0  0  0  0  0  0
   -3.3310   -0.0610    0.4040 C   0  0  0  0  0  0  0  0  0  0  0  0
   -2.9310    1.2190    0.7050 O   0  0  0  0  0  0  0  0  0  0  0  0
   -3.9700    2.0000    0.8560 O   0  0  0  0  0  0  0  0  0  0  0  0
   -0.2600   -1.5470   -1.1240 O   0  0  0  0  0  0  0  0  0  0  0  0
    0.8350   -1.2350   -0.4200 O   0  0  0  0  0  0  0  0  0  0  0  0
  1  2  1  0
  2  3  1  0
  3  4  1  0
  5  4  1  1
  5  6  1  0
  5 15  1  0
  6  7  1  0
  7  8  1  0
  8  9  1  6
  8 10  1  0
  8 14  1  0
 10 11  1  0
 11 12  1  0
 12 13  1  0
 14 15  1  0
M  END
