
     RDKit          3D

 15 14  0  0  0  0  0  0  0  0999 V2000
    3.7100    1.0620   -0.1680 C   0  0  0  0  0  0  0  0  0  0  0  0
    2.6350    0.2500    0.5300 C   0  0  2  0  0  0  0  0  0  0  0  0
    2.9290   -1.1570    0.1680 N   0  0  0  0  0  0  0  0  0  0  0  0
    1.0060    0.5600   -0.0100 P   0  0  0  0  0  0  0  0  0  0  0  0
    1.4170    0.3730   -1.4820 O   0  0  0  0  0  0  0  0  0  0  0  0
    0.5240    1.2820    1.2810 O   0  0  0  0  0  0  0  0  0  0  0  0
   -0.1750   -0.7330    0.1320 C   0  0  0  0  0  0  0  0  0  0  0  0
   -1.5870   -0.1840    0.3180 C   0  0  2  0  0  0  0  0  0  0  0  0
   -2.5530   -1.3190    0.4340 C   0  0  0  0  0  0  0  0  0  0  0  0
   -3.9310   -0.8060    0.6150 C   0  0  0  0  0  0  0  0  0  0  0  0
   -4.1330    0.4180    0.6510 O   0  0  0  0  0  0  0  0  0  0  0  0
   -5.0300   -1.6490    0.7510 O   0  0  0  0  0  0  0  0  0  0  0  0
   -1.9540    0.6090   -0.8840 C   0  0  0  0  0  0  0  0  0  0  0  0
   -2.2490    1.8250   -0.8270 O   0  0  0  0  0  0  0  0  0  0  0  0
   -1.9680   -0.0340   -2.1150 O   0  0  0  0  0  0  0  0  0  0  0  0
  2  1  1  6
  2  3  1  0
  2  4  1  0
  4  5  1  0
  4  6  1  0
  4  7  1  0
  8  7  1  6
  8  9  1  0
  8 13  1  0
  9 10  1  0
 10 11  2  0
 10 12  1  0
 13 14  2  0
 13 15  1  0
M  CHG  1   3   1
M  END
