
     RDKit          3D

 20 21  0  0  0  0  0  0  0  0999 V2000
   -1.8430    2.2780   -1.4510 C   0  0  0  0  0  0  0  0  0  0  0  0
   -1.8210    1.1750   -0.3770 C   0  0  2  0  0  0  0  0  0  0  0  0
   -3.0820    1.1460    0.3730 C   0  0  0  0  0  0  0  0  0  0  0  0
   -4.1480    0.8690   -0.2280 O   0  0  0  0  0  0  0  0  0  0  0  0
   -3.1530    1.4210    1.7640 N   0  0  0  0  0  0  0  0  0  0  0  0
   -4.3220    1.3940    2.4610 O   0  0  0  0  0  0  0  0  0  0  0  0
   -0.7080    1.5030    0.4330 O   0  0  0  0  0  0  0  0  0  0  0  0
    0.3820    0.7430   -0.1170 C   0  0  0  0  0  0  0  0  0  0  0  0
    1.5710    1.1700   -0.2130 N   0  0  0  0  0  0  0  0  0  0  0  0
    2.7080    0.5030   -0.7360 C   0  0  0  0  0  0  0  0  0  0  0  0
    3.4310   -0.3250    0.3040 C   0  0  0  0  0  0  0  0  0  0  0  0
    3.8740    0.4960    1.3560 O   0  0  0  0  0  0  0  0  0  0  0  0
    4.4930   -0.2350    2.2400 O   0  0  0  0  0  0  0  0  0  0  0  0
   -0.3240   -0.5060   -0.4580 C   0  0  2  0  0  0  0  0  0  0  0  0
   -0.5910   -1.2580    0.8430 C   0  0  0  0  0  0  0  0  0  0  0  0
   -0.2760   -2.7130    0.6210 C   0  0  0  0  0  0  0  0  0  0  0  0
   -0.7640   -3.1970   -0.5670 O   0  0  0  0  0  0  0  0  0  0  0  0
   -0.4800   -2.5340   -1.6330 O   0  0  0  0  0  0  0  0  0  0  0  0
    0.3740   -1.4240   -1.3930 C   0  0  0  0  0  0  0  0  0  0  0  0
   -1.5260   -0.0290   -0.9830 O   0  0  0  0  0  0  0  0  0  0  0  0
  2  1  1  6
  2  3  1  0
  2  7  1  0
  2 20  1  0
  3  4  2  0
  3  5  1  0
  5  6  1  0
  7  8  1  0
  8  9  2  3
  8 14  1  0
  9 10  1  0
 10 11  1  0
 11 12  1  0
 12 13  1  0
 14 15  1  1
 14 19  1  0
 14 20  1  0
 15 16  1  0
 16 17  1  0
 17 18  1  0
 18 19  1  0
M  END
