
     RDKit          3D

 15 15  0  0  0  0  0  0  0  0999 V2000
    6.1050   -0.2800   -0.6520 O   0  0  0  0  0  0  0  0  0  0  0  0
    5.2680    0.0000    0.3300 O   0  0  0  0  0  0  0  0  0  0  0  0
    4.1450   -0.6020    0.0490 O   0  0  0  0  0  0  0  0  0  0  0  0
    3.3020    0.1850   -0.7520 C   0  0  0  0  0  0  0  0  0  0  0  0
    2.0960   -0.7050   -1.0310 C   0  0  0  0  0  0  0  0  0  0  0  0
    1.6410   -1.1090    0.2160 O   0  0  0  0  0  0  0  0  0  0  0  0
    0.3490   -1.0700    0.3430 O   0  0  0  0  0  0  0  0  0  0  0  0
   -0.1800    0.2110    0.3850 C   0  0  0  0  0  0  0  0  0  0  0  0
   -1.6600    0.0320    0.0590 C   0  0  2  0  0  0  0  0  0  0  0  0
   -2.3010    1.2510    0.0200 O   0  0  0  0  0  0  0  0  0  0  0  0
   -3.6010    1.0930    0.4620 C   0  0  0  0  0  0  0  0  0  0  0  0
   -4.0990   -0.2840    0.0920 C   0  0  0  0  0  0  0  0  0  0  0  0
   -3.5350   -1.1900    0.9780 O   0  0  0  0  0  0  0  0  0  0  0  0
   -2.1900   -0.9080    1.1080 C   0  0  2  0  0  0  0  0  0  0  0  0
   -1.7170   -0.2740    2.8670 Br  0  0  0  0  0  0  0  0  0  0  0  0
  1  2  1  0
  2  3  1  0
  3  4  1  0
  4  5  1  0
  5  6  1  0
  6  7  1  0
  7  8  1  0
  9  8  1  1
  9 10  1  0
  9 14  1  0
 10 11  1  0
 11 12  1  0
 12 13  1  0
 13 14  1  0
 14 15  1  1
M  END
