
     RDKit          3D

 15 15  0  0  0  0  0  0  0  0999 V2000
    6.1510    0.5220   -1.4020 O   0  0  0  0  0  0  0  0  0  0  0  0
    4.8990    0.8440   -1.2770 O   0  0  0  0  0  0  0  0  0  0  0  0
    4.3800    0.1640   -0.2640 O   0  0  0  0  0  0  0  0  0  0  0  0
    3.0090    0.4010   -0.1520 C   0  0  0  0  0  0  0  0  0  0  0  0
    2.4800   -0.3890    1.0040 C   0  0  0  0  0  0  0  0  0  0  0  0
    1.0180   -0.2370    1.2510 C   0  0  0  0  0  0  0  0  0  0  0  0
    0.1260   -0.6410    0.1370 C   0  0  0  0  0  0  0  0  0  0  0  0
   -1.1890   -0.4400    0.5250 O   0  0  0  0  0  0  0  0  0  0  0  0
   -2.1180   -0.7730   -0.4140 C   0  0  1  0  0  0  0  0  0  0  0  0
   -3.3580   -2.1280    0.1570 Br  0  0  0  0  0  0  0  0  0  0  0  0
   -2.9520    0.4430   -0.8330 C   0  0  2  0  0  0  0  0  0  0  0  0
   -3.5750    0.8950    0.3250 O   0  0  0  0  0  0  0  0  0  0  0  0
   -4.9140    0.9190   -0.0400 C   0  0  0  0  0  0  0  0  0  0  0  0
   -5.0260   -0.1790   -0.8760 O   0  0  0  0  0  0  0  0  0  0  0  0
   -3.9710   -0.0350   -1.6530 O   0  0  0  0  0  0  0  0  0  0  0  0
  1  2  1  0
  2  3  1  0
  3  4  1  0
  4  5  1  0
  5  6  1  0
  6  7  1  0
  7  8  1  0
  8  9  1  0
  9 10  1  1
  9 11  1  0
 11 12  1  1
 11 15  1  0
 12 13  1  0
 13 14  1  0
 14 15  1  0
M  END
