
     RDKit          3D

 15 15  0  0  0  0  0  0  0  0999 V2000
   -4.1040   -0.4740   -0.8850 C   0  0  0  0  0  0  0  0  0  0  0  0
   -2.7100   -0.2370   -0.2950 C   0  0  2  0  0  0  0  0  0  0  0  0
   -2.6400    1.1920    0.2070 C   0  0  0  0  0  0  0  0  0  0  0  0
   -1.7970   -0.4410   -1.3180 O   0  0  0  0  0  0  0  0  0  0  0  0
   -0.9740   -1.4180   -1.0810 O   0  0  0  0  0  0  0  0  0  0  0  0
   -0.3150   -1.3190    0.1260 C   0  0  1  0  0  0  0  0  0  0  0  0
   -0.5960   -2.8420    1.2650 Br  0  0  0  0  0  0  0  0  0  0  0  0
    1.1870   -1.2020   -0.1170 C   0  0  2  0  0  0  0  0  0  0  0  0
    1.8750   -1.1020    1.0660 O   0  0  0  0  0  0  0  0  0  0  0  0
    2.8770   -0.1740    0.9230 C   0  0  0  0  0  0  0  0  0  0  0  0
    2.4830    0.6050   -0.3100 C   0  0  1  0  0  0  0  0  0  0  0  0
    3.5560    0.6400   -1.2230 O   0  0  0  0  0  0  0  0  0  0  0  0
    3.8810    1.8770   -1.4660 O   0  0  0  0  0  0  0  0  0  0  0  0
    4.6450    2.3660   -0.5100 O   0  0  0  0  0  0  0  0  0  0  0  0
    1.4530   -0.1000   -0.8860 O   0  0  0  0  0  0  0  0  0  0  0  0
  2  1  1  6
  2  3  1  0
  2  4  1  0
  4  5  1  0
  5  6  1  0
  6  7  1  1
  6  8  1  0
  8  9  1  1
  8 15  1  0
  9 10  1  0
 10 11  1  0
 11 12  1  6
 11 15  1  0
 12 13  1  0
 13 14  1  0
M  END
