
     RDKit          3D

 15 15  0  0  0  0  0  0  0  0999 V2000
    4.6650    0.1140    1.0190 O   0  0  0  0  0  0  0  0  0  0  0  0
    4.3450   -0.6440    2.0430 O   0  0  0  0  0  0  0  0  0  0  0  0
    3.0550   -0.5360    2.3360 O   0  0  0  0  0  0  0  0  0  0  0  0
    2.3510   -0.2200    1.2860 O   0  0  0  0  0  0  0  0  0  0  0  0
    2.1950   -1.2510    0.3960 C   0  0  0  0  0  0  0  0  0  0  0  0
    1.3830   -0.8380   -0.7860 C   0  0  0  0  0  0  0  0  0  0  0  0
    0.1220   -0.4200   -0.6020 O   0  0  0  0  0  0  0  0  0  0  0  0
   -0.1810    0.6590    0.1580 C   0  0  1  0  0  0  0  0  0  0  0  0
   -0.7550    1.6950   -0.6280 O   0  0  0  0  0  0  0  0  0  0  0  0
   -1.7240    1.1880   -1.4800 C   0  0  0  0  0  0  0  0  0  0  0  0
   -3.0010    0.8060   -0.8160 C   0  0  0  0  0  0  0  0  0  0  0  0
   -3.0140   -0.5110   -0.1290 C   0  0  0  0  0  0  0  0  0  0  0  0
   -1.9250   -0.8130    0.6420 O   0  0  0  0  0  0  0  0  0  0  0  0
   -1.2550    0.2990    1.1560 C   0  0  1  0  0  0  0  0  0  0  0  0
   -0.5960    0.0000    2.9240 Br  0  0  0  0  0  0  0  0  0  0  0  0
  1  2  1  0
  2  3  1  0
  3  4  1  0
  4  5  1  0
  5  6  1  0
  6  7  1  0
  8  7  1  6
  8  9  1  0
  8 14  1  0
  9 10  1  0
 10 11  1  0
 11 12  1  0
 12 13  1  0
 13 14  1  0
 14 15  1  1
M  END
