
     RDKit          3D

 20 20  0  0  0  0  0  0  0  0999 V2000
   -1.5540   -1.3980    0.9300 O   0  0  0  0  0  0  0  0  0  0  0  0
   -1.2300   -0.5630    0.0490 C   0  0  0  0  0  0  0  0  0  0  0  0
    0.1150   -0.4230   -0.2260 O   0  0  0  0  0  0  0  0  0  0  0  0
    1.0840   -1.2030    0.4700 C   0  0  0  0  0  0  0  0  0  0  0  0
    2.3540   -0.9050    0.0410 O   0  0  0  0  0  0  0  0  0  0  0  0
    2.6520    0.4510    0.2580 C   0  0  0  0  0  0  0  0  0  0  0  0
    4.0800    0.6990   -0.2460 C   0  0  0  0  0  0  0  0  0  0  0  0
    4.9740   -0.2090    0.5600 C   0  0  0  0  0  0  0  0  0  0  0  0
    6.7490   -0.0590    0.1010 P   0  0  0  0  0  0  0  0  0  0  0  0
    7.1170    1.3750   -0.7640 O   0  0  0  0  0  0  0  0  0  0  0  0
    7.2800   -1.4590   -0.7830 O   0  0  0  0  0  0  0  0  0  0  0  0
   -2.2390    0.1400   -0.5660 O   0  0  0  0  0  0  0  0  0  0  0  0
   -3.6170   -0.0300   -0.2550 C   0  0  2  0  0  0  0  0  0  0  0  0
   -4.4090   -0.4260   -1.4900 C   0  0  0  0  0  0  0  0  0  0  0  0
   -5.7180    0.0700   -1.4380 O   0  0  0  0  0  0  0  0  0  0  0  0
   -6.3400   -0.1830   -0.2390 C   0  0  0  0  0  0  0  0  0  0  0  0
   -6.6040    1.0490    0.3720 O   0  0  0  0  0  0  0  0  0  0  0  0
   -5.4460    1.7130    0.4790 N   0  0  0  0  0  0  0  0  0  0  0  0
   -4.1070    1.2890    0.2660 C   0  0  0  0  0  0  0  0  0  0  0  0
   -3.2540    2.1570    0.5660 O   0  0  0  0  0  0  0  0  0  0  0  0
  1  2  2  0
  2  3  1  0
  2 12  1  0
  3  4  1  0
  4  5  1  0
  5  6  1  0
  6  7  1  0
  7  8  1  0
  8  9  1  0
  9 10  1  0
  9 11  1  0
 13 12  1  6
 13 14  1  0
 13 19  1  0
 14 15  1  0
 15 16  1  0
 16 17  1  0
 17 18  1  0
 18 19  1  0
 19 20  2  0
M  END
