
     RDKit          3D

 14 13  0  0  0  0  0  0  0  0999 V2000
    1.1900    1.5530   -0.0020 O   0  0  0  0  0  0  0  0  0  0  0  0
    1.9540    0.6140    0.3100 C   0  0  0  0  0  0  0  0  0  0  0  0
    3.2770    0.5970   -0.1810 N   0  0  0  0  0  0  0  0  0  0  0  0
    3.7200    1.5990   -0.9910 O   0  0  0  0  0  0  0  0  0  0  0  0
    1.4670   -0.4640    1.1860 C   0  0  2  0  0  0  0  0  0  0  0  0
    2.5700   -1.3320    1.4120 O   0  0  0  0  0  0  0  0  0  0  0  0
    0.3940   -1.3120    0.5440 C   0  0  2  0  0  0  0  0  0  0  0  0
    0.7560   -1.8700   -0.6580 O   0  0  0  0  0  0  0  0  0  0  0  0
   -0.9400   -0.6690    0.4180 C   0  0  0  0  0  0  0  0  0  0  0  0
   -1.0090    0.3060   -0.5200 O   0  0  0  0  0  0  0  0  0  0  0  0
   -2.3990    1.0940   -0.7700 P   0  0  0  0  0  0  0  0  0  0  0  0
   -3.2230    1.8280    0.5290 O   0  0  0  0  0  0  0  0  0  0  0  0
   -3.2820   -0.1330   -0.5380 O   0  0  0  0  0  0  0  0  0  0  0  0
   -2.9260    1.4330   -2.2830 O   0  0  0  0  0  0  0  0  0  0  0  0
  1  2  2  0
  2  3  1  0
  2  5  1  0
  3  4  1  0
  5  6  1  6
  5  7  1  0
  7  8  1  6
  7  9  1  0
  9 10  1  0
 10 11  1  0
 11 12  1  0
 11 13  1  0
 11 14  1  0
M  END
