
     RDKit          3D

 28 28  0  0  0  0  0  0  0  0999 V2000
   -3.3150    4.2880    0.0060 C   0  0  0  0  0  0  0  0  0  0  0  0
   -2.3950    3.2280   -0.4920 C   0  0  0  0  0  0  0  0  0  0  0  0
   -1.1120    3.4540   -0.7900 N   0  0  0  0  0  0  0  0  0  0  0  0
   -0.5540    2.3160   -1.2080 N   0  0  0  0  0  0  0  0  0  0  0  0
    0.8410    2.1890   -1.6230 C   0  0  0  0  0  0  0  0  0  0  0  0
    1.6850    1.8480   -0.4430 C   0  0  0  0  0  0  0  0  0  0  0  0
    1.2670    0.5240    0.1510 C   0  0  0  0  0  0  0  0  0  0  0  0
    1.4550   -0.5730   -0.8660 C   0  0  0  0  0  0  0  0  0  0  0  0
    2.8520   -0.6370   -1.2440 N   0  0  0  0  0  0  0  0  0  0  0  0
    3.9140   -0.9010   -0.3730 C   0  0  0  0  0  0  0  0  0  0  0  0
    3.6710   -1.1070    0.8460 O   0  0  0  0  0  0  0  0  0  0  0  0
    5.2480   -0.9520   -0.7660 O   0  0  0  0  0  0  0  0  0  0  0  0
    6.2590   -1.2280    0.1940 C   0  0  2  0  0  0  0  0  0  0  0  0
    6.1950   -0.1430    1.2460 C   0  0  0  0  0  0  0  0  0  0  0  0
    7.6100   -1.1850   -0.4850 C   0  0  0  0  0  0  0  0  0  0  0  0
    6.0870   -2.5960    0.8200 C   0  0  0  0  0  0  0  0  0  0  0  0
   -1.4780    1.3680   -1.1780 C   0  0  0  0  0  0  0  0  0  0  0  0
   -2.6820    1.9000   -0.7240 C   0  0  0  0  0  0  0  0  0  0  0  0
   -3.9410    1.2700   -0.5430 N   0  0  0  0  0  0  0  0  0  0  0  0
   -4.1870   -0.1420   -0.7330 C   0  0  2  0  0  0  0  0  0  0  0  0
   -5.6850   -0.3670   -0.6180 C   0  0  0  0  0  0  0  0  0  0  0  0
   -6.0490   -1.8240   -0.8040 C   0  0  0  0  0  0  0  0  0  0  0  0
   -5.6560   -2.2940   -2.0540 O   0  0  0  0  0  0  0  0  0  0  0  0
   -3.4660   -0.8650    0.3940 C   0  0  0  0  0  0  0  0  0  0  0  0
   -3.9500   -0.4590    1.6380 O   0  0  0  0  0  0  0  0  0  0  0  0
   -3.0590   -1.3440    2.8430 P   0  0  0  0  0  0  0  0  0  0  0  0
   -3.3410   -3.0430    2.5350 O   0  0  0  0  0  0  0  0  0  0  0  0
   -3.8340   -1.0000    4.3790 O   0  0  0  0  0  0  0  0  0  0  0  0
  1  2  1  0
  2  3  2  0
  2 18  1  0
  3  4  1  0
  4  5  1  0
  4 17  1  0
  5  6  1  0
  6  7  1  0
  7  8  1  0
  8  9  1  0
  9 10  1  0
 10 11  2  0
 10 12  1  0
 12 13  1  0
 13 14  1  1
 13 15  1  0
 13 16  1  0
 17 18  2  0
 18 19  1  0
 19 20  1  0
 20 21  1  1
 20 24  1  0
 21 22  1  0
 22 23  1  0
 24 25  1  0
 25 26  1  0
 26 27  1  0
 26 28  1  0
M  END
