
     RDKit          3D

 20 20  0  0  0  0  0  0  0  0999 V2000
   -6.2910    1.9760   -0.5260 C   0  0  0  0  0  0  0  0  0  0  0  0
   -5.2400    1.0600   -0.8190 O   0  0  0  0  0  0  0  0  0  0  0  0
   -4.2570    1.4160   -0.0410 O   0  0  0  0  0  0  0  0  0  0  0  0
   -3.0000    1.4840   -0.4680 C   0  0  0  0  0  0  0  0  0  0  0  0
   -2.2290   -0.0380   -1.0870 P   0  0  0  0  0  0  0  0  0  0  0  0
   -2.5260   -1.5110   -0.2400 O   0  0  0  0  0  0  0  0  0  0  0  0
   -1.3050   -2.1960   -0.2340 C   0  0  2  0  0  0  0  0  0  0  0  0
   -1.5570   -3.6100    0.2220 C   0  0  0  0  0  0  0  0  0  0  0  0
   -2.1630   -3.4230    1.4960 O   0  0  0  0  0  0  0  0  0  0  0  0
   -0.3670   -1.5660    0.7600 N   0  0  0  0  0  0  0  0  0  0  0  0
   -0.0900   -0.2470    0.2760 C   0  0  1  0  0  0  0  0  0  0  0  0
    1.2370    0.3280    0.6090 C   0  0  0  0  0  0  0  0  0  0  0  0
    1.5530    0.9820    1.5900 O   0  0  0  0  0  0  0  0  0  0  0  0
    2.2840    0.1090   -0.3160 O   0  0  0  0  0  0  0  0  0  0  0  0
    3.5360    0.5270   -0.4180 C   0  0  0  0  0  0  0  0  0  0  0  0
    4.7090    0.6810    0.4180 C   0  0  0  0  0  0  0  0  0  0  0  0
    4.7190    0.6160    1.6430 O   0  0  0  0  0  0  0  0  0  0  0  0
    5.9260    0.9240   -0.2440 O   0  0  0  0  0  0  0  0  0  0  0  0
    7.1700    1.1160    0.3610 C   0  0  0  0  0  0  0  0  0  0  0  0
   -0.4520    0.0860   -0.9730 O   0  0  0  0  0  0  0  0  0  0  0  0
  1  2  1  0
  2  3  1  0
  3  4  1  0
  4  5  1  0
  5  6  1  0
  5 20  1  0
  6  7  1  0
  7  8  1  1
  7 10  1  0
  8  9  1  0
 10 11  1  0
 11 12  1  6
 11 20  1  0
 12 13  2  0
 12 14  1  0
 14 15  1  0
 15 16  1  0
 16 17  2  0
 16 18  1  0
 18 19  1  0
M  END
