
     RDKit          3D

 20 20  0  0  0  0  0  0  0  0999 V2000
   -4.3110    2.6160   -1.7040 O   0  0  0  0  0  0  0  0  0  0  0  0
   -4.0340    1.5860   -1.0410 C   0  0  0  0  0  0  0  0  0  0  0  0
   -5.0480    0.6460   -0.9030 O   0  0  0  0  0  0  0  0  0  0  0  0
   -2.7180    1.3920   -0.4520 C   0  0  0  0  0  0  0  0  0  0  0  0
   -2.4540    0.3030    0.2380 C   0  0  0  0  0  0  0  0  0  0  0  0
   -3.4110   -0.7990    0.4860 C   0  0  0  0  0  0  0  0  0  0  0  0
   -2.6510   -1.7240    1.2750 N   0  0  0  0  0  0  0  0  0  0  0  0
   -1.3430   -1.2220    1.4810 C   0  0  0  0  0  0  0  0  0  0  0  0
   -1.2030   -0.0490    0.8900 C   0  0  0  0  0  0  0  0  0  0  0  0
   -0.0180    0.7100    0.9100 O   0  0  0  0  0  0  0  0  0  0  0  0
    1.1280    0.0270    0.8660 O   0  0  0  0  0  0  0  0  0  0  0  0
    1.6020    0.0170   -0.4200 C   0  0  1  0  0  0  0  0  0  0  0  0
    2.8940    0.7960   -0.4760 C   0  0  0  0  0  0  0  0  0  0  0  0
    3.8800    0.2280    0.3780 O   0  0  0  0  0  0  0  0  0  0  0  0
    5.1270    0.8220    0.4450 C   0  0  0  0  0  0  0  0  0  0  0  0
    5.3370    1.8540   -0.2620 O   0  0  0  0  0  0  0  0  0  0  0  0
    6.1640    0.3620    1.2370 O   0  0  0  0  0  0  0  0  0  0  0  0
    1.7050   -1.3200   -0.9970 C   0  0  0  0  0  0  0  0  0  0  0  0
    2.1210   -1.4810   -2.1580 O   0  0  0  0  0  0  0  0  0  0  0  0
    1.3400   -2.4180   -0.2530 O   0  0  0  0  0  0  0  0  0  0  0  0
  1  2  2  0
  2  3  1  0
  2  4  1  0
  4  5  2  3
  5  6  1  0
  5  9  1  0
  6  7  1  0
  7  8  1  0
  8  9  2  0
  9 10  1  0
 10 11  1  0
 11 12  1  0
 12 13  1  1
 12 18  1  0
 13 14  1  0
 14 15  1  0
 15 16  2  0
 15 17  1  0
 18 19  2  0
 18 20  1  0
M  END
