
     RDKit          3D

 20 19  0  0  0  0  0  0  0  0999 V2000
   -7.0180    0.0700    0.2370 C   0  0  0  0  0  0  0  0  0  0  0  0
   -5.7920   -0.3180    0.9660 C   0  0  0  0  0  0  0  0  0  0  0  0
   -4.6740    0.3920    0.4730 O   0  0  0  0  0  0  0  0  0  0  0  0
   -3.2710   -0.1120    1.3220 P   0  0  0  0  0  0  0  0  0  0  0  0
   -3.5450   -0.1510    3.0580 O   0  0  0  0  0  0  0  0  0  0  0  0
   -1.8400    0.9770    0.9960 C   0  0  0  0  0  0  0  0  0  0  0  0
   -1.4530    1.0070   -0.4220 N   0  0  0  0  0  0  0  0  0  0  0  0
   -0.1310    0.5160   -0.4530 C   0  0  0  0  0  0  0  0  0  0  0  0
    0.6640    0.7230   -1.7170 C   0  0  0  0  0  0  0  0  0  0  0  0
    1.8570    0.0650   -1.4180 O   0  0  0  0  0  0  0  0  0  0  0  0
    2.9900   -0.1730   -2.0910 C   0  0  0  0  0  0  0  0  0  0  0  0
    3.1010    0.2810   -3.2510 O   0  0  0  0  0  0  0  0  0  0  0  0
    4.0910   -0.9720   -1.4590 C   0  0  2  0  0  0  0  0  0  0  0  0
    3.4550   -2.0300   -0.5640 C   0  0  0  0  0  0  0  0  0  0  0  0
    2.6850   -1.4540    0.4330 O   0  0  0  0  0  0  0  0  0  0  0  0
    5.0500   -0.1830   -0.7030 C   0  0  0  0  0  0  0  0  0  0  0  0
    4.9100    1.0620   -0.5470 O   0  0  0  0  0  0  0  0  0  0  0  0
    6.1680   -0.7730   -0.1100 O   0  0  0  0  0  0  0  0  0  0  0  0
    7.0930   -0.0870    0.6050 O   0  0  0  0  0  0  0  0  0  0  0  0
    6.5800    0.3650    1.7450 O   0  0  0  0  0  0  0  0  0  0  0  0
  1  2  1  0
  2  3  1  0
  3  4  1  0
  4  5  1  0
  4  6  1  0
  6  7  1  0
  7  8  1  0
  8  9  1  0
  9 10  1  0
 10 11  1  0
 11 12  2  0
 11 13  1  0
 13 14  1  1
 13 16  1  0
 14 15  1  0
 16 17  2  0
 16 18  1  0
 18 19  1  0
 19 20  1  0
M  END
