
     RDKit          3D

 28 28  0  0  0  0  0  0  0  0999 V2000
    2.0800   -1.3600   -1.3290 N   0  0  0  0  0  0  0  0  0  0  0  0
    2.6130   -0.7070   -0.1320 C   0  0  1  0  0  0  0  0  0  0  0  0
    2.6920   -1.6910    0.8770 O   0  0  0  0  0  0  0  0  0  0  0  0
    3.3170   -0.9930    2.3320 P   0  0  0  0  0  0  0  0  0  0  0  0
    4.9300   -0.3980    2.1220 O   0  0  0  0  0  0  0  0  0  0  0  0
    3.1990   -2.1420    3.6070 O   0  0  0  0  0  0  0  0  0  0  0  0
    3.9190   -0.2900   -0.3910 O   0  0  0  0  0  0  0  0  0  0  0  0
    4.2090    0.8750   -1.0980 C   0  0  0  0  0  0  0  0  0  0  0  0
    5.2610    1.0120   -1.7800 O   0  0  0  0  0  0  0  0  0  0  0  0
    3.2620    1.9220   -1.0220 N   0  0  0  0  0  0  0  0  0  0  0  0
    3.4550    3.1530   -1.7020 C   0  0  0  0  0  0  0  0  0  0  0  0
    4.4840    3.3250   -2.3870 O   0  0  0  0  0  0  0  0  0  0  0  0
    2.1050    1.7240   -0.2510 C   0  0  0  0  0  0  0  0  0  0  0  0
    1.3900    2.7110    0.0540 O   0  0  0  0  0  0  0  0  0  0  0  0
    1.6650    0.3830    0.2390 C   0  0  1  0  0  0  0  0  0  0  0  0
    0.3670    0.1690   -0.2870 O   0  0  0  0  0  0  0  0  0  0  0  0
   -0.7660    0.0570    0.4900 C   0  0  0  0  0  0  0  0  0  0  0  0
   -0.6540    0.1490    1.7270 O   0  0  0  0  0  0  0  0  0  0  0  0
   -2.0240   -0.1560   -0.1150 N   0  0  0  0  0  0  0  0  0  0  0  0
   -3.2440   -0.2790    0.6810 C   0  0  0  0  0  0  0  0  0  0  0  0
   -3.4510   -1.7380    1.0330 C   0  0  0  0  0  0  0  0  0  0  0  0
   -4.9570   -2.0190    2.0360 P   0  0  0  0  0  0  0  0  0  0  0  0
   -6.3090   -2.5340    1.0900 O   0  0  0  0  0  0  0  0  0  0  0  0
   -5.3540   -0.6780    3.0530 O   0  0  0  0  0  0  0  0  0  0  0  0
   -2.0800   -0.2530   -1.5570 C   0  0  0  0  0  0  0  0  0  0  0  0
   -2.3450    1.3970   -2.3540 P   0  0  0  0  0  0  0  0  0  0  0  0
   -2.3270    1.1560   -4.0820 O   0  0  0  0  0  0  0  0  0  0  0  0
   -0.9470    2.3820   -1.9740 O   0  0  0  0  0  0  0  0  0  0  0  0
  2  1  1  6
  2  3  1  0
  2  7  1  0
  2 15  1  0
  3  4  1  0
  4  5  1  0
  4  6  1  0
  7  8  1  0
  8  9  2  0
  8 10  1  0
 10 11  1  0
 10 13  1  0
 11 12  2  0
 13 14  2  0
 13 15  1  0
 15 16  1  6
 16 17  1  0
 17 18  2  0
 17 19  1  0
 19 20  1  0
 19 25  1  0
 20 21  1  0
 21 22  1  0
 22 23  1  0
 22 24  1  0
 25 26  1  0
 26 27  1  0
 26 28  1  0
M  END
