
     RDKit          3D

 28 30  0  0  0  0  0  0  0  0999 V2000
   -5.5220    2.4780    1.8000 O   0  0  0  0  0  0  0  0  0  0  0  0
   -4.8330    1.8620    0.9520 C   0  0  0  0  0  0  0  0  0  0  0  0
   -5.5420    1.3900   -0.2390 C   0  0  0  0  0  0  0  0  0  0  0  0
   -5.5280   -0.0980   -0.4010 C   0  0  2  0  0  0  0  0  0  0  0  0
   -6.4910   -0.9540    0.9430 P   0  0  0  0  0  0  0  0  0  0  0  0
   -6.6810   -2.6160    0.5520 O   0  0  0  0  0  0  0  0  0  0  0  0
   -5.8310   -0.6820    2.5000 O   0  0  0  0  0  0  0  0  0  0  0  0
   -4.2150   -0.6470   -0.5530 N   0  0  0  0  0  0  0  0  0  0  0  0
   -2.9070   -0.2580   -0.1650 C   0  0  0  0  0  0  0  0  0  0  0  0
   -1.9030   -1.0250   -0.6620 C   0  0  0  0  0  0  0  0  0  0  0  0
   -0.5800   -0.7260   -0.3400 C   0  0  0  0  0  0  0  0  0  0  0  0
   -0.2340    0.3310    0.4740 C   0  0  0  0  0  0  0  0  0  0  0  0
    1.1080    0.6660    0.7820 N   0  0  0  0  0  0  0  0  0  0  0  0
    2.1620    0.6190   -0.1730 C   0  0  0  0  0  0  0  0  0  0  0  0
    1.9340    0.4780   -1.5210 C   0  0  0  0  0  0  0  0  0  0  0  0
    3.0020    0.4770   -2.4060 C   0  0  0  0  0  0  0  0  0  0  0  0
    4.2910    0.6190   -1.9320 C   0  0  0  0  0  0  0  0  0  0  0  0
    5.2980    0.6140   -2.8150 F   0  0  0  0  0  0  0  0  0  0  0  0
    4.5640    0.7640   -0.5910 C   0  0  0  0  0  0  0  0  0  0  0  0
    5.8260    0.9050   -0.1140 O   0  0  0  0  0  0  0  0  0  0  0  0
    6.6990   -0.1010    0.2850 C   0  0  0  0  0  0  0  0  0  0  0  0
    6.1590   -0.9390    1.4240 C   0  0  0  0  0  0  0  0  0  0  0  0
    7.1050   -1.9120    1.7460 O   0  0  0  0  0  0  0  0  0  0  0  0
    3.4920    0.7610    0.2610 C   0  0  0  0  0  0  0  0  0  0  0  0
    3.6710    0.9000    1.6160 F   0  0  0  0  0  0  0  0  0  0  0  0
   -1.2880    1.0970    0.9660 C   0  0  0  0  0  0  0  0  0  0  0  0
   -2.5980    0.8180    0.6610 C   0  0  0  0  0  0  0  0  0  0  0  0
   -3.4970    1.7180    1.2650 O   0  0  0  0  0  0  0  0  0  0  0  0
  1  2  2  0
  2  3  1  0
  2 28  1  0
  3  4  1  0
  4  5  1  1
  4  8  1  0
  5  6  1  0
  5  7  1  0
  8  9  1  0
  9 10  2  0
  9 27  1  0
 10 11  1  0
 11 12  2  0
 12 13  1  0
 12 26  1  0
 13 14  1  0
 14 15  2  0
 14 24  1  0
 15 16  1  0
 16 17  2  0
 17 18  1  0
 17 19  1  0
 19 20  1  0
 19 24  2  0
 20 21  1  0
 21 22  1  0
 22 23  1  0
 24 25  1  0
 26 27  2  0
 27 28  1  0
M  END
