
     RDKit          3D

 29 30  0  0  0  0  0  0  0  0999 V2000
    2.7540    0.2020    1.6750 O   0  0  0  0  0  0  0  0  0  0  0  0
    1.7350   -0.1510    0.9100 C   0  0  0  0  0  0  0  0  0  0  0  0
    1.9110   -1.4480    0.4380 N   0  0  0  0  0  0  0  0  0  0  0  0
    3.0390   -2.3030    0.7760 C   0  0  0  0  0  0  0  0  0  0  0  0
    4.3660   -1.7580    0.3700 C   0  0  0  0  0  0  0  0  0  0  0  0
    5.3240   -2.7170    0.7760 O   0  0  0  0  0  0  0  0  0  0  0  0
    6.9230   -2.1940    0.3560 P   0  0  0  0  0  0  0  0  0  0  0  0
    6.8780   -0.4520    0.1440 O   0  0  0  0  0  0  0  0  0  0  0  0
    7.4160   -2.8600   -1.1730 O   0  0  0  0  0  0  0  0  0  0  0  0
    0.7130    0.8310    0.7200 C   0  0  0  0  0  0  0  0  0  0  0  0
   -0.5260    0.8290    0.0530 C   0  0  0  0  0  0  0  0  0  0  0  0
   -1.4160    0.0180   -0.4120 C   0  0  0  0  0  0  0  0  0  0  0  0
   -1.4930   -1.4070   -0.4080 C   0  0  0  0  0  0  0  0  0  0  0  0
   -2.4290   -2.1610   -0.9560 C   0  0  0  0  0  0  0  0  0  0  0  0
   -3.6470   -1.8590   -1.7200 C   0  0  0  0  0  0  0  0  0  0  0  0
   -4.2550   -3.1800   -2.0070 C   0  0  0  0  0  0  0  0  0  0  0  0
   -3.4910   -4.1030   -1.5010 C   0  0  0  0  0  0  0  0  0  0  0  0
   -2.3920   -3.5830   -0.8700 O   0  0  0  0  0  0  0  0  0  0  0  0
   -2.5650    0.6890   -1.0440 N   0  0  0  0  0  0  0  0  0  0  0  0
   -3.4070    1.5590   -0.2840 C   0  0  1  0  0  0  0  0  0  0  0  0
   -4.5790    2.0480   -1.1240 C   0  0  0  0  0  0  0  0  0  0  0  0
   -5.4110    1.2070   -0.4110 O   0  0  0  0  0  0  0  0  0  0  0  0
   -4.4740    0.9870    0.5720 C   0  0  0  0  0  0  0  0  0  0  0  0
    1.1730    2.0850    1.0710 C   0  0  0  0  0  0  0  0  0  0  0  0
    2.4290    2.2310    1.5140 F   0  0  0  0  0  0  0  0  0  0  0  0
    0.3120    3.2580    0.9830 C   0  0  1  0  0  0  0  0  0  0  0  0
   -0.8420    3.1380    1.7390 F   0  0  0  0  0  0  0  0  0  0  0  0
    1.0890    4.4550    1.5760 C   0  0  0  0  0  0  0  0  0  0  0  0
    1.3880    4.1450    2.8970 O   0  0  0  0  0  0  0  0  0  0  0  0
  1  2  2  0
  2  3  1  0
  2 10  1  0
  3  4  1  0
  4  5  1  0
  5  6  1  0
  6  7  1  0
  7  8  1  0
  7  9  1  0
 10 11  1  0
 10 24  2  3
 11 12  2  3
 12 13  1  0
 12 19  1  0
 13 14  2  3
 14 15  1  0
 14 18  1  0
 15 16  1  0
 16 17  2  0
 17 18  1  0
 20 19  1  6
 20 21  1  0
 20 23  1  0
 21 22  1  0
 22 23  1  0
 24 25  1  0
 24 26  1  0
 26 27  1  1
 26 28  1  0
 28 29  1  0
M  END
