
     RDKit          3D

 29 30  0  0  0  0  0  0  0  0999 V2000
   -1.0620    1.1430   -1.2400 O   0  0  0  0  0  0  0  0  0  0  0  0
   -1.6790    0.2530   -0.6370 C   0  0  0  0  0  0  0  0  0  0  0  0
   -1.0790   -1.0150   -0.3220 C   0  0  0  0  0  0  0  0  0  0  0  0
    0.1610   -1.3670   -0.3140 O   0  0  0  0  0  0  0  0  0  0  0  0
    1.0890   -0.7640    0.6510 C   0  0  1  0  0  0  0  0  0  0  0  0
    0.9650   -1.8530    1.8310 C   0  0  0  0  0  0  0  0  0  0  0  0
   -0.3370   -1.9450    2.2440 O   0  0  0  0  0  0  0  0  0  0  0  0
    2.3130   -1.0810   -0.0420 C   0  0  0  0  0  0  0  0  0  0  0  0
    2.5450   -2.4620   -0.3280 C   0  0  0  0  0  0  0  0  0  0  0  0
    3.6310   -2.9300   -1.0020 C   0  0  0  0  0  0  0  0  0  0  0  0
    4.5660   -2.0560   -1.4450 C   0  0  0  0  0  0  0  0  0  0  0  0
    5.6390   -2.5070   -2.1280 F   0  0  0  0  0  0  0  0  0  0  0  0
    4.3930   -0.7110   -1.1950 C   0  0  0  0  0  0  0  0  0  0  0  0
    3.2760   -0.2170   -0.5050 C   0  0  0  0  0  0  0  0  0  0  0  0
    3.2120    1.1870   -0.2090 C   0  0  0  0  0  0  0  0  0  0  0  0
    2.2190    1.8150    0.2610 C   0  0  0  0  0  0  0  0  0  0  0  0
    2.3000    3.2040    0.5260 O   0  0  0  0  0  0  0  0  0  0  0  0
    4.3590    2.0570   -0.6570 C   0  0  0  0  0  0  0  0  0  0  0  0
    4.3670    3.3870   -0.4130 F   0  0  0  0  0  0  0  0  0  0  0  0
    5.3830    1.5530   -1.2960 C   0  0  0  0  0  0  0  0  0  0  0  0
    5.4370    0.1630   -1.5910 N   0  0  0  0  0  0  0  0  0  0  0  0
   -3.0410    0.5180   -0.2490 N   0  0  0  0  0  0  0  0  0  0  0  0
   -3.7660    1.6630   -0.6850 C   0  0  0  0  0  0  0  0  0  0  0  0
   -3.6120    2.8870    0.1640 C   0  0  0  0  0  0  0  0  0  0  0  0
   -4.4320    3.8920   -0.4150 O   0  0  0  0  0  0  0  0  0  0  0  0
   -3.7180   -0.3570    0.7130 C   0  0  0  0  0  0  0  0  0  0  0  0
   -4.5450   -1.7890   -0.0670 P   0  0  0  0  0  0  0  0  0  0  0  0
   -4.8450   -1.6310   -1.7420 O   0  0  0  0  0  0  0  0  0  0  0  0
   -5.7880   -2.5030    0.8580 O   0  0  0  0  0  0  0  0  0  0  0  0
  1  2  2  0
  2  3  1  0
  2 22  1  0
  3  4  1  0
  4  5  1  0
  5  6  1  1
  5  8  1  0
  6  7  1  0
  8  9  2  0
  8 14  1  0
  9 10  1  0
 10 11  2  0
 11 12  1  0
 11 13  1  0
 13 14  2  0
 13 21  1  0
 14 15  1  0
 15 16  2  3
 15 18  1  0
 16 17  1  0
 18 19  1  0
 18 20  2  0
 20 21  1  0
 22 23  1  0
 22 26  1  0
 23 24  1  0
 24 25  1  0
 26 27  1  0
 27 28  1  0
 27 29  1  0
M  END
