
     RDKit          3D

 29 30  0  0  0  0  0  0  0  0999 V2000
   -7.6970    2.1100    0.6510 N   0  0  0  0  0  0  0  0  0  0  0  0
   -6.4630    1.4250    0.5620 C   0  0  0  0  0  0  0  0  0  0  0  0
   -6.2610    0.3350   -0.2560 C   0  0  0  0  0  0  0  0  0  0  0  0
   -5.0090   -0.2890   -0.2880 C   0  0  0  0  0  0  0  0  0  0  0  0
   -3.9890    0.1520    0.4670 N   0  0  0  0  0  0  0  0  0  0  0  0
   -2.7350   -0.5250    0.3910 C   0  0  2  0  0  0  0  0  0  0  0  0
   -1.7800   -0.0310    1.2520 O   0  0  0  0  0  0  0  0  0  0  0  0
   -0.6000   -0.6430    0.8640 C   0  0  2  0  0  0  0  0  0  0  0  0
    0.6240    0.1840    1.2060 C   0  0  0  0  0  0  0  0  0  0  0  0
    1.7330   -0.5510    0.7600 O   0  0  0  0  0  0  0  0  0  0  0  0
    3.1790    0.2340    1.0660 P   0  0  2  0  0  0  0  0  0  0  0  0
    4.0970   -0.6880    1.8730 O   0  0  0  0  0  0  0  0  0  0  0  0
    2.9950    1.6410    1.9550 O   0  0  0  0  0  0  0  0  0  0  0  0
    3.9920    0.5390   -0.3970 O   0  0  0  0  0  0  0  0  0  0  0  0
    4.9050   -0.8230   -0.7820 P   0  0  2  0  0  0  0  0  0  0  0  0
    5.7950   -0.6030   -1.9630 O   0  0  0  0  0  0  0  0  0  0  0  0
    3.9020   -2.1340   -1.0980 O   0  0  0  0  0  0  0  0  0  0  0  0
    5.8920   -1.2380    0.5340 O   0  0  0  0  0  0  0  0  0  0  0  0
    7.1460   -0.1120    0.7290 P   0  0  1  0  0  0  0  0  0  0  0  0
    6.8470    1.1520   -0.0400 O   0  0  0  0  0  0  0  0  0  0  0  0
    7.2990    0.1900    2.3850 O   0  0  0  0  0  0  0  0  0  0  0  0
    8.6080   -0.7640    0.1880 O   0  0  0  0  0  0  0  0  0  0  0  0
   -0.6540   -0.8410   -0.6170 C   0  0  1  0  0  0  0  0  0  0  0  0
   -0.6140   -2.1990   -0.9550 O   0  0  0  0  0  0  0  0  0  0  0  0
   -2.0530   -0.3500   -0.9610 C   0  0  1  0  0  0  0  0  0  0  0  0
   -2.6530   -1.1260   -1.9420 O   0  0  0  0  0  0  0  0  0  0  0  0
   -4.2090    1.2140    1.2550 C   0  0  0  0  0  0  0  0  0  0  0  0
   -3.2640    1.6290    1.9590 O   0  0  0  0  0  0  0  0  0  0  0  0
   -5.4160    1.8390    1.3050 N   0  0  0  0  0  0  0  0  0  0  0  0
  1  2  1  0
  2  3  1  0
  2 29  2  0
  3  4  2  0
  4  5  1  0
  6  5  1  6
  5 27  1  0
  6  7  1  0
  6 25  1  0
  7  8  1  0
  8  9  1  6
  8 23  1  0
  9 10  1  0
 10 11  1  0
 11 12  2  0
 11 13  1  1
 11 14  1  0
 14 15  1  0
 15 16  2  0
 15 17  1  6
 15 18  1  0
 18 19  1  0
 19 20  2  0
 19 21  1  1
 19 22  1  0
 23 24  1  1
 23 25  1  0
 25 26  1  6
 27 28  2  0
 27 29  1  0
M  END
