
     RDKit          3D

 29 30  0  0  0  0  0  0  0  0999 V2000
   -2.9700   -3.0990    1.2130 O   0  0  0  0  0  0  0  0  0  0  0  0
   -2.0600   -2.3250    0.8570 C   0  0  0  0  0  0  0  0  0  0  0  0
   -0.7660   -2.7830    0.6830 O   0  0  0  0  0  0  0  0  0  0  0  0
   -2.3500   -0.9200    0.6160 C   0  0  0  0  0  0  0  0  0  0  0  0
   -3.6610   -0.5000    0.8030 C   0  0  0  0  0  0  0  0  0  0  0  0
   -3.9570    0.8100    0.5780 C   0  0  0  0  0  0  0  0  0  0  0  0
   -5.2550    1.3300    0.7640 N   0  0  0  0  0  0  0  0  0  0  0  0
   -6.4560    0.6070    1.0180 C   0  0  0  0  0  0  0  0  0  0  0  0
   -6.9840   -0.0270   -0.2430 C   0  0  0  0  0  0  0  0  0  0  0  0
   -6.1270   -0.9130   -0.8410 O   0  0  0  0  0  0  0  0  0  0  0  0
   -2.9530    1.6730    0.1780 C   0  0  0  0  0  0  0  0  0  0  0  0
   -3.2120    2.9890   -0.0550 F   0  0  0  0  0  0  0  0  0  0  0  0
   -1.6650    1.2340    0.0010 C   0  0  0  0  0  0  0  0  0  0  0  0
   -0.6910    2.1410   -0.4040 O   0  0  0  0  0  0  0  0  0  0  0  0
    0.6670    1.8100   -0.6200 C   0  0  0  0  0  0  0  0  0  0  0  0
    1.3680    1.2710    0.5760 C   0  0  0  0  0  0  0  0  0  0  0  0
    2.6800    0.9550    0.3360 O   0  0  0  0  0  0  0  0  0  0  0  0
    3.2130    0.0020   -0.4730 C   0  0  0  0  0  0  0  0  0  0  0  0
    2.5130   -0.9110   -1.2290 C   0  0  0  0  0  0  0  0  0  0  0  0
    3.1260   -1.8630   -2.0340 C   0  0  0  0  0  0  0  0  0  0  0  0
    2.3440   -2.7180   -2.7430 F   0  0  0  0  0  0  0  0  0  0  0  0
    4.4930   -1.8890   -2.0720 C   0  0  0  0  0  0  0  0  0  0  0  0
    5.2180   -0.9900   -1.3270 C   0  0  0  0  0  0  0  0  0  0  0  0
    4.6260   -0.0530   -0.5350 C   0  0  0  0  0  0  0  0  0  0  0  0
    5.4140    0.9090    0.2700 C   0  0  0  0  0  0  0  0  0  0  0  0
    5.3940    0.3250    2.0590 P   0  0  0  0  0  0  0  0  0  0  0  0
    5.9250   -1.3450    2.1270 O   0  0  0  0  0  0  0  0  0  0  0  0
    6.4590    1.2870    3.0210 O   0  0  0  0  0  0  0  0  0  0  0  0
   -1.3870   -0.0570    0.2230 N   0  0  0  0  0  0  0  0  0  0  0  0
  1  2  2  0
  2  3  1  0
  2  4  1  0
  4  5  2  0
  4 29  1  0
  5  6  1  0
  6  7  1  0
  6 11  2  0
  7  8  1  0
  8  9  1  0
  9 10  1  0
 11 12  1  0
 11 13  1  0
 13 14  1  0
 13 29  2  0
 14 15  1  0
 15 16  1  0
 16 17  1  0
 17 18  1  0
 18 19  2  0
 18 24  1  0
 19 20  1  0
 20 21  1  0
 20 22  2  0
 22 23  1  0
 23 24  2  0
 24 25  1  0
 25 26  1  0
 26 27  1  0
 26 28  1  0
M  END
