
     RDKit          3D

 29 30  0  0  0  0  0  0  0  0999 V2000
   -4.6310    4.4640    0.8000 N   0  0  0  0  0  0  0  0  0  0  0  0
   -3.9030    3.4720    0.1130 C   0  0  0  0  0  0  0  0  0  0  0  0
   -4.3720    2.4750   -0.6890 C   0  0  0  0  0  0  0  0  0  0  0  0
   -3.3470    1.8060   -1.1020 O   0  0  0  0  0  0  0  0  0  0  0  0
   -2.1990    2.2940   -0.6250 C   0  0  0  0  0  0  0  0  0  0  0  0
   -0.8640    1.8040   -0.8810 C   0  0  0  0  0  0  0  0  0  0  0  0
   -0.2750    0.7110   -0.0310 C   0  0  2  0  0  0  0  0  0  0  0  0
   -0.1310    1.0070    1.4150 C   0  0  0  0  0  0  0  0  0  0  0  0
   -1.2740    1.3220    2.2690 C   0  0  0  0  0  0  0  0  0  0  0  0
   -2.2440    0.3080    2.2890 F   0  0  0  0  0  0  0  0  0  0  0  0
    1.1410    0.7520   -0.4830 O   0  0  0  0  0  0  0  0  0  0  0  0
    2.0870   -0.1060   -0.0610 C   0  0  0  0  0  0  0  0  0  0  0  0
    1.8140   -1.0100    0.7380 O   0  0  0  0  0  0  0  0  0  0  0  0
    3.4650    0.0630   -0.5810 C   0  0  0  0  0  0  0  0  0  0  0  0
    3.7350    1.0480   -1.4430 F   0  0  0  0  0  0  0  0  0  0  0  0
    4.4290   -0.7470   -0.2030 C   0  0  0  0  0  0  0  0  0  0  0  0
    5.7910   -0.5620   -0.7310 C   0  0  0  0  0  0  0  0  0  0  0  0
    6.9620   -0.2430    0.7030 P   0  0  0  0  0  0  0  0  0  0  0  0
    8.5490   -0.0170   -0.0080 O   0  0  0  0  0  0  0  0  0  0  0  0
    7.0340   -1.7070    1.6290 O   0  0  0  0  0  0  0  0  0  0  0  0
   -0.6910   -0.5020   -0.3830 O   0  0  0  0  0  0  0  0  0  0  0  0
   -1.5400   -1.4510   -0.5870 C   0  0  0  0  0  0  0  0  0  0  0  0
   -1.0420   -2.6680   -1.1080 C   0  0  0  0  0  0  0  0  0  0  0  0
   -1.8560   -3.7460   -1.3620 C   0  0  0  0  0  0  0  0  0  0  0  0
   -3.1930   -3.6740   -1.1150 C   0  0  0  0  0  0  0  0  0  0  0  0
   -3.9700   -4.7990   -1.3930 O   0  0  0  0  0  0  0  0  0  0  0  0
   -3.7240   -2.5240   -0.6130 C   0  0  0  0  0  0  0  0  0  0  0  0
   -2.8990   -1.4470   -0.3600 C   0  0  0  0  0  0  0  0  0  0  0  0
   -2.5850    3.3330    0.1300 N   0  0  0  0  0  0  0  0  0  0  0  0
  1  2  1  0
  2  3  2  0
  2 29  1  0
  3  4  1  0
  4  5  1  0
  5  6  1  0
  5 29  2  0
  7  6  1  6
  7  8  1  0
  7 11  1  0
  7 21  1  0
  8  9  1  0
  9 10  1  0
 11 12  1  0
 12 13  2  0
 12 14  1  0
 14 15  1  0
 14 16  2  3
 16 17  1  0
 17 18  1  0
 18 19  1  0
 18 20  1  0
 21 22  1  0
 22 23  2  0
 22 28  1  0
 23 24  1  0
 24 25  2  0
 25 26  1  0
 25 27  1  0
 27 28  2  0
M  END
