
     RDKit          3D

 29 30  0  0  0  0  0  0  0  0999 V2000
    8.7780    1.0940   -0.4860 C   0  0  0  0  0  0  0  0  0  0  0  0
    7.5920    0.1810   -0.5790 C   0  0  0  0  0  0  0  0  0  0  0  0
    6.5740    0.6970    0.2130 O   0  0  0  0  0  0  0  0  0  0  0  0
    5.1470   -0.2880    0.1740 P   0  0  0  0  0  0  0  0  0  0  0  0
    5.4970   -1.9560    0.3290 O   0  0  0  0  0  0  0  0  0  0  0  0
    4.0860    0.1180   -1.2700 C   0  0  0  0  0  0  0  0  0  0  0  0
    2.6480   -0.1140   -0.9890 C   0  0  0  0  0  0  0  0  0  0  0  0
    2.0580    0.6420    0.0720 N   0  0  0  0  0  0  0  0  0  0  0  0
    2.4890    0.2850    1.3590 C   0  0  0  0  0  0  0  0  0  0  0  0
    1.4770    0.4830    2.4580 C   0  0  0  0  0  0  0  0  0  0  0  0
    0.0730    0.1080    2.1230 C   0  0  0  0  0  0  0  0  0  0  0  0
   -0.0230   -0.3290    0.7050 C   0  0  1  0  0  0  0  0  0  0  0  0
    0.7650   -1.4830    0.5710 F   0  0  0  0  0  0  0  0  0  0  0  0
   -1.3220   -0.6580    0.2200 N   0  0  0  0  0  0  0  0  0  0  0  0
   -2.4220    0.2520    0.1770 C   0  0  0  0  0  0  0  0  0  0  0  0
   -2.1390    1.4190    0.6240 O   0  0  0  0  0  0  0  0  0  0  0  0
   -3.7670   -0.0560   -0.3200 C   0  0  2  0  0  0  0  0  0  0  0  0
   -4.6840    1.1490   -0.1360 C   0  0  0  0  0  0  0  0  0  0  0  0
   -4.7620    1.4740    1.2570 O   0  0  0  0  0  0  0  0  0  0  0  0
   -5.5290    2.5250    1.7330 C   0  0  0  0  0  0  0  0  0  0  0  0
   -6.1720    3.2070    0.8990 O   0  0  0  0  0  0  0  0  0  0  0  0
   -5.5800    2.8070    3.0860 O   0  0  0  0  0  0  0  0  0  0  0  0
   -4.4390   -1.2970    0.1780 C   0  0  0  0  0  0  0  0  0  0  0  0
   -4.4010   -1.9340   -1.1790 C   0  0  1  0  0  0  0  0  0  0  0  0
   -3.4870   -2.9720   -1.3280 F   0  0  0  0  0  0  0  0  0  0  0  0
   -5.7580   -2.3580   -1.6370 C   0  0  0  0  0  0  0  0  0  0  0  0
   -6.6160   -1.2940   -1.7170 O   0  0  0  0  0  0  0  0  0  0  0  0
   -3.8620   -0.6350   -1.7160 C   0  0  0  0  0  0  0  0  0  0  0  0
    0.6550    0.7420   -0.1340 C   0  0  0  0  0  0  0  0  0  0  0  0
  1  2  1  0
  2  3  1  0
  3  4  1  0
  4  5  1  0
  4  6  1  0
  6  7  1  0
  7  8  1  0
  8  9  1  0
  8 29  1  0
  9 10  1  0
 10 11  1  0
 11 12  1  0
 12 13  1  1
 12 14  1  0
 12 29  1  0
 14 15  1  0
 15 16  2  0
 15 17  1  0
 17 18  1  6
 17 23  1  0
 17 28  1  0
 18 19  1  0
 19 20  1  0
 20 21  2  0
 20 22  1  0
 23 24  1  0
 24 25  1  1
 24 26  1  0
 24 28  1  0
 26 27  1  0
M  END
