
     RDKit          3D

 29 29  0  0  0  0  0  0  0  0999 V2000
   -1.5360   -4.2050    0.8770 O   0  0  0  0  0  0  0  0  0  0  0  0
   -2.2300   -3.5020    2.0800 P   0  0  0  0  0  0  0  0  0  0  0  0
   -2.0980   -1.8330    2.4080 O   0  0  0  0  0  0  0  0  0  0  0  0
   -1.6660   -1.0430    1.3880 C   0  0  2  0  0  0  0  0  0  0  0  0
   -2.4900   -1.0680    0.2680 O   0  0  0  0  0  0  0  0  0  0  0  0
   -3.7750   -0.6340    0.5780 C   0  0  2  0  0  0  0  0  0  0  0  0
   -4.7430   -1.6220    0.0870 C   0  0  0  0  0  0  0  0  0  0  0  0
   -4.3500   -2.6370   -0.5230 O   0  0  0  0  0  0  0  0  0  0  0  0
   -6.1190   -1.4710    0.2780 O   0  0  0  0  0  0  0  0  0  0  0  0
   -4.0610    0.6610   -0.1330 C   0  0  0  0  0  0  0  0  0  0  0  0
   -5.1740    1.2090    0.0240 O   0  0  0  0  0  0  0  0  0  0  0  0
   -3.1340    1.2720   -0.9580 O   0  0  0  0  0  0  0  0  0  0  0  0
   -3.4770    2.4990   -1.5980 C   0  0  0  0  0  0  0  0  0  0  0  0
   -4.6000    2.2430   -2.4020 O   0  0  0  0  0  0  0  0  0  0  0  0
   -0.2570   -1.3430    0.9320 C   0  0  0  0  0  0  0  0  0  0  0  0
    0.3120   -0.0820    0.5270 N   0  0  0  0  0  0  0  0  0  0  0  0
    1.5010    0.1480   -0.2170 C   0  0  0  0  0  0  0  0  0  0  0  0
    1.9000    1.3030   -0.5130 O   0  0  0  0  0  0  0  0  0  0  0  0
    2.3240   -0.9240   -0.6800 N   0  0  0  0  0  0  0  0  0  0  0  0
    3.5200   -0.7590   -1.4250 C   0  0  0  0  0  0  0  0  0  0  0  0
    4.8380    0.1970   -0.6100 P   0  0  0  0  0  0  0  0  0  0  0  0
    4.4100    0.8530    0.9090 O   0  0  0  0  0  0  0  0  0  0  0  0
    5.7170    1.2350   -1.6220 O   0  0  0  0  0  0  0  0  0  0  0  0
    7.4260    1.0420   -1.2760 P   0  0  0  0  0  0  0  0  0  0  0  0
    8.0590    2.3900   -0.4250 O   0  0  0  0  0  0  0  0  0  0  0  0
    7.7270   -0.4440   -0.4390 O   0  0  0  0  0  0  0  0  0  0  0  0
   -0.5530    0.9260    1.0180 C   0  0  0  0  0  0  0  0  0  0  0  0
   -0.3880    2.1700    0.7740 O   0  0  0  0  0  0  0  0  0  0  0  0
   -1.5970    0.3550    1.7980 N   0  0  0  0  0  0  0  0  0  0  0  0
  1  2  2  0
  2  3  1  0
  4  3  1  1
  4  5  1  0
  4 15  1  0
  4 29  1  0
  6  5  1  6
  6  7  1  0
  6 10  1  0
  7  8  2  0
  7  9  1  0
 10 11  2  0
 10 12  1  0
 12 13  1  0
 13 14  1  0
 15 16  1  0
 16 17  1  0
 16 27  1  0
 17 18  2  0
 17 19  1  0
 19 20  1  0
 20 21  1  0
 21 22  1  0
 21 23  1  0
 23 24  1  0
 24 25  1  0
 24 26  1  0
 27 28  2  0
 27 29  1  0
M  END
