
     RDKit          3D

 28 28  0  0  0  0  0  0  0  0999 V2000
    0.3440   -2.2440   -0.0760 O   0  0  0  0  0  0  0  0  0  0  0  0
    0.6090   -1.0430   -0.1080 C   0  0  0  0  0  0  0  0  0  0  0  0
    2.0590   -0.6810    0.0230 C   0  0  0  0  0  0  0  0  0  0  0  0
    2.2550    0.6710   -0.0220 O   0  0  0  0  0  0  0  0  0  0  0  0
    3.5980    0.9700    0.0670 C   0  0  0  0  0  0  0  0  0  0  0  0
    4.2320    0.4990    1.3320 C   0  0  0  0  0  0  0  0  0  0  0  0
    5.6230    0.8520    1.3650 O   0  0  0  0  0  0  0  0  0  0  0  0
    6.5560    0.4240    0.4660 C   0  0  0  0  0  0  0  0  0  0  0  0
    6.2360   -0.3310   -0.4690 O   0  0  0  0  0  0  0  0  0  0  0  0
    7.8950    0.8030    0.5480 O   0  0  0  0  0  0  0  0  0  0  0  0
   -0.4010   -0.0720   -0.2580 N   0  0  0  0  0  0  0  0  0  0  0  0
   -1.7780   -0.3700   -0.3760 C   0  0  2  0  0  0  0  0  0  0  0  0
   -2.4640    0.8670   -0.5580 O   0  0  0  0  0  0  0  0  0  0  0  0
   -2.2080    1.9220    0.7800 P   0  0  0  0  0  0  0  0  0  0  0  0
   -0.9070    2.9990    0.3760 O   0  0  0  0  0  0  0  0  0  0  0  0
   -3.9980    3.1700    1.1360 P   0  0  0  0  0  0  0  0  0  0  0  0
   -3.7170    4.8170    0.6720 O   0  0  0  0  0  0  0  0  0  0  0  0
   -5.3560    2.5970    0.2290 O   0  0  0  0  0  0  0  0  0  0  0  0
   -2.4720   -1.0130    0.7600 C   0  0  2  0  0  0  0  0  0  0  0  0
   -2.0200   -2.2850    1.2100 N   0  0  0  0  0  0  0  0  0  0  0  0
   -2.6900   -3.2820    0.4070 C   0  0  0  0  0  0  0  0  0  0  0  0
   -2.3800   -4.4760    0.2150 O   0  0  0  0  0  0  0  0  0  0  0  0
   -3.8490   -2.6570   -0.1810 N   0  0  0  0  0  0  0  0  0  0  0  0
   -3.8770   -1.3060    0.2590 C   0  0  0  0  0  0  0  0  0  0  0  0
   -4.7770   -0.4480    0.2840 O   0  0  0  0  0  0  0  0  0  0  0  0
   -2.1660   -1.2660   -1.9860 P   0  0  0  0  0  0  0  0  0  0  0  0
   -1.2360   -2.7070   -2.1380 O   0  0  0  0  0  0  0  0  0  0  0  0
   -1.8240   -0.1570   -3.2670 O   0  0  0  0  0  0  0  0  0  0  0  0
  1  2  2  0
  2  3  1  0
  2 11  1  0
  3  4  1  0
  4  5  1  0
  5  6  1  0
  6  7  1  0
  7  8  1  0
  8  9  2  0
  8 10  1  0
 12 11  1  1
 12 13  1  0
 12 19  1  0
 12 26  1  0
 13 14  1  0
 14 15  1  0
 14 16  1  0
 16 17  1  0
 16 18  1  0
 19 20  1  6
 19 24  1  0
 20 21  1  0
 21 22  2  0
 21 23  1  0
 23 24  1  0
 24 25  2  0
 26 27  1  0
 26 28  1  0
M  END
