
     RDKit          3D

 23 24  0  0  0  0  0  0  0  0999 V2000
   -4.9890   -1.8990    0.0150 C   0  0  0  0  0  0  0  0  0  0  0  0
   -5.4640   -0.4870   -0.0150 C   0  0  0  0  0  0  0  0  0  0  0  0
   -6.7610   -0.1670    0.1340 C   0  0  0  0  0  0  0  0  0  0  0  0
   -6.8580    1.2940    0.0520 C   0  0  0  0  0  0  0  0  0  0  0  0
   -5.4780    1.7250   -0.1560 C   0  0  0  0  0  0  0  0  0  0  0  0
   -4.6300    0.6690   -0.1990 C   0  0  0  0  0  0  0  0  0  0  0  0
   -3.1930    0.8140   -0.3950 C   0  0  0  0  0  0  0  0  0  0  0  0
   -2.7090    2.0060   -0.5320 O   0  0  0  0  0  0  0  0  0  0  0  0
   -2.2660   -0.2300   -0.4500 N   0  0  0  0  0  0  0  0  0  0  0  0
   -0.8980    0.1010   -0.6470 N   0  0  0  0  0  0  0  0  0  0  0  0
    0.0720   -0.3020    0.3030 C   0  0  0  0  0  0  0  0  0  0  0  0
   -0.2970   -0.9510    1.3090 O   0  0  0  0  0  0  0  0  0  0  0  0
    1.4950    0.0230    0.1310 C   0  0  0  0  0  0  0  0  0  0  0  0
    1.8810    0.6720   -0.8610 O   0  0  0  0  0  0  0  0  0  0  0  0
    2.6890   -0.5110    1.3460 S   0  0  0  0  0  0  0  0  0  0  0  0
    4.3340    0.0170    0.9120 C   0  0  0  0  0  0  0  0  0  0  0  0
    4.8160    1.2450    1.3530 C   0  0  0  0  0  0  0  0  0  0  0  0
    6.0880    1.6530    1.0170 C   0  0  0  0  0  0  0  0  0  0  0  0
    6.8960    0.8510    0.2430 C   0  0  0  0  0  0  0  0  0  0  0  0
    6.4090   -0.3750   -0.1940 C   0  0  0  0  0  0  0  0  0  0  0  0
    7.1890   -1.2420   -0.9910 N   0  0  0  0  0  0  0  0  0  0  0  0
    5.1230   -0.8080    0.1340 C   0  0  0  0  0  0  0  0  0  0  0  0
    4.6720   -2.0420   -0.3240 O   0  0  0  0  0  0  0  0  0  0  0  0
  1  2  1  0
  2  3  2  0
  2  6  1  0
  3  4  1  0
  4  5  1  0
  5  6  2  0
  6  7  1  0
  7  8  2  0
  7  9  1  0
  9 10  1  0
 10 11  1  0
 11 12  2  0
 11 13  1  0
 13 14  2  0
 13 15  1  0
 15 16  1  0
 16 17  2  0
 16 22  1  0
 17 18  1  0
 18 19  2  0
 19 20  1  0
 20 21  1  0
 20 22  2  0
 22 23  1  0
M  END
