
     RDKit          3D

 22 23  0  0  0  0  0  0  0  0999 V2000
   -4.9610   -0.8200    1.4820 N   0  0  0  0  0  0  0  0  0  0  0  0
   -4.7030    0.1970    0.5300 C   0  0  0  0  0  0  0  0  0  0  0  0
   -5.5390    1.2890    0.4140 C   0  0  0  0  0  0  0  0  0  0  0  0
   -5.2800    2.2820   -0.5230 C   0  0  0  0  0  0  0  0  0  0  0  0
   -4.1930    2.1680   -1.3260 C   0  0  0  0  0  0  0  0  0  0  0  0
   -3.3360    1.0700   -1.2220 C   0  0  0  0  0  0  0  0  0  0  0  0
   -3.5950    0.0940   -0.2980 C   0  0  0  0  0  0  0  0  0  0  0  0
   -2.7640   -1.0230   -0.1620 N   0  0  0  0  0  0  0  0  0  0  0  0
   -1.6050   -1.3580   -0.8780 C   0  0  0  0  0  0  0  0  0  0  0  0
   -1.1840   -0.6110   -1.7810 O   0  0  0  0  0  0  0  0  0  0  0  0
   -0.8280   -2.6210   -0.5910 C   0  0  0  0  0  0  0  0  0  0  0  0
    0.4850   -2.3530    0.5970 S   0  0  0  0  0  0  0  0  0  0  0  0
    1.7580   -1.2730   -0.0520 C   0  0  0  0  0  0  0  0  0  0  0  0
    1.5680   -0.8230   -1.1850 O   0  0  0  0  0  0  0  0  0  0  0  0
    2.9150   -0.9500    0.6830 N   0  0  0  0  0  0  0  0  0  0  0  0
    3.9770   -0.1040    0.2600 C   0  0  0  0  0  0  0  0  0  0  0  0
    3.9850    0.5660   -0.9440 C   0  0  0  0  0  0  0  0  0  0  0  0
    5.0750    1.3830   -1.2650 C   0  0  0  0  0  0  0  0  0  0  0  0
    6.1420    1.5450   -0.4210 C   0  0  0  0  0  0  0  0  0  0  0  0
    6.1440    0.8840    0.7790 C   0  0  0  0  0  0  0  0  0  0  0  0
    5.0650    0.0590    1.1240 C   0  0  0  0  0  0  0  0  0  0  0  0
    5.0910   -0.5880    2.3230 O   0  0  0  0  0  0  0  0  0  0  0  0
  1  2  1  0
  2  3  2  0
  2  7  1  0
  3  4  1  0
  4  5  2  0
  5  6  1  0
  6  7  2  0
  7  8  1  0
  8  9  1  0
  9 10  2  0
  9 11  1  0
 11 12  1  0
 12 13  1  0
 13 14  2  0
 13 15  1  0
 15 16  1  0
 16 17  2  0
 16 21  1  0
 17 18  1  0
 18 19  2  0
 19 20  1  0
 20 21  2  0
 21 22  1  0
M  END
