
     RDKit          3D

 23 24  0  0  0  0  0  0  0  0999 V2000
    6.8270    0.3640    0.7920 N   0  0  0  0  0  0  0  0  0  0  0  0
    5.6470    0.8810    0.1370 C   0  0  0  0  0  0  0  0  0  0  0  0
    5.7460    2.0100   -0.6320 C   0  0  0  0  0  0  0  0  0  0  0  0
    4.6060    2.4640   -1.2340 C   0  0  0  0  0  0  0  0  0  0  0  0
    3.3920    1.7930   -1.0630 C   0  0  0  0  0  0  0  0  0  0  0  0
    3.2900    0.6690   -0.2960 C   0  0  0  0  0  0  0  0  0  0  0  0
    2.0630   -0.0480   -0.0540 N   0  0  0  0  0  0  0  0  0  0  0  0
    0.7780    0.4830   -0.0660 C   0  0  0  0  0  0  0  0  0  0  0  0
    0.5680    2.1150   -0.3080 S   0  0  0  0  0  0  0  0  0  0  0  0
   -0.4160   -0.2300    0.1530 N   0  0  0  0  0  0  0  0  0  0  0  0
   -0.5240   -1.6120    0.3810 C   0  0  0  0  0  0  0  0  0  0  0  0
    0.5540   -2.3150    0.3850 O   0  0  0  0  0  0  0  0  0  0  0  0
   -1.7350   -2.4030    0.6230 C   0  0  0  0  0  0  0  0  0  0  0  0
   -2.9390   -1.8870    0.8220 O   0  0  0  0  0  0  0  0  0  0  0  0
   -3.8930   -1.1030    0.3280 C   0  0  0  0  0  0  0  0  0  0  0  0
   -4.0940    0.1920    0.8260 C   0  0  0  0  0  0  0  0  0  0  0  0
   -3.2780    0.6580    1.8690 O   0  0  0  0  0  0  0  0  0  0  0  0
   -5.0770    0.9970    0.3060 C   0  0  0  0  0  0  0  0  0  0  0  0
   -5.9120    0.5900   -0.7160 C   0  0  0  0  0  0  0  0  0  0  0  0
   -5.7390   -0.6790   -1.2230 C   0  0  0  0  0  0  0  0  0  0  0  0
   -4.7530   -1.4880   -0.7040 C   0  0  0  0  0  0  0  0  0  0  0  0
   -4.5760   -2.7730   -1.2130 O   0  0  0  0  0  0  0  0  0  0  0  0
    4.4610    0.2230    0.3080 C   0  0  0  0  0  0  0  0  0  0  0  0
  1  2  1  0
  2  3  2  0
  2 23  1  0
  3  4  1  0
  4  5  2  0
  5  6  1  0
  6  7  1  0
  6 23  2  0
  7  8  1  0
  8  9  2  0
  8 10  1  0
 10 11  1  0
 11 12  2  0
 11 13  1  0
 13 14  1  0
 14 15  1  0
 15 16  2  0
 15 21  1  0
 16 17  1  0
 16 18  1  0
 18 19  2  0
 19 20  1  0
 20 21  2  0
 21 22  1  0
M  END
