
     RDKit          3D

 19 20  0  0  0  0  0  0  0  0999 V2000
    5.8010    0.4470   -1.6060 O   0  0  0  0  0  0  0  0  0  0  0  0
    4.9330    0.6310   -0.7140 C   0  0  0  0  0  0  0  0  0  0  0  0
    5.2150    1.1670    0.4870 N   0  0  0  0  0  0  0  0  0  0  0  0
    4.2780    1.3600    1.4340 C   0  0  0  0  0  0  0  0  0  0  0  0
    3.0140    1.0190    1.2090 N   0  0  0  0  0  0  0  0  0  0  0  0
    2.6860    0.4760    0.0150 C   0  0  0  0  0  0  0  0  0  0  0  0
    1.4490    0.0560   -0.4220 C   0  0  0  0  0  0  0  0  0  0  0  0
    0.1460    0.0940    0.3190 C   0  0  0  0  0  0  0  0  0  0  0  0
   -0.9200   -0.4490   -0.5110 N   0  0  0  0  0  0  0  0  0  0  0  0
   -1.9820   -0.8890    0.3340 C   0  0  2  0  0  0  0  0  0  0  0  0
   -2.9590   -1.8000   -0.3820 C   0  0  0  0  0  0  0  0  0  0  0  0
   -3.9830   -2.2130    0.4650 O   0  0  0  0  0  0  0  0  0  0  0  0
   -2.7150    0.1710    1.0800 C   0  0  2  0  0  0  0  0  0  0  0  0
   -3.6990   -0.5150    1.8420 O   0  0  0  0  0  0  0  0  0  0  0  0
   -3.3970    1.2020    0.2070 C   0  0  0  0  0  0  0  0  0  0  0  0
   -2.4750    1.8980   -0.5430 O   0  0  0  0  0  0  0  0  0  0  0  0
    1.6430   -0.4140   -1.6950 C   0  0  0  0  0  0  0  0  0  0  0  0
    2.9520   -0.2750   -1.9960 N   0  0  0  0  0  0  0  0  0  0  0  0
    3.6250    0.2660   -0.9770 C   0  0  0  0  0  0  0  0  0  0  0  0
  1  2  2  0
  2  3  1  0
  2 19  1  0
  3  4  1  0
  4  5  2  0
  5  6  1  0
  6  7  1  0
  6 19  2  0
  7  8  1  0
  7 17  2  0
  8  9  1  0
  9 10  1  0
 10 11  1  6
 10 13  1  0
 11 12  1  0
 13 14  1  6
 13 15  1  0
 15 16  1  0
 17 18  1  0
 18 19  1  0
M  CHG  1   9   1
M  END
