
     RDKit          3D

 23 24  0  0  0  0  0  0  0  0999 V2000
   -4.0620   -3.1600    1.0410 C   0  0  0  0  0  0  0  0  0  0  0  0
   -3.7870   -1.8370    0.6750 O   0  0  0  0  0  0  0  0  0  0  0  0
   -2.4870   -1.3900    0.5430 C   0  0  0  0  0  0  0  0  0  0  0  0
   -1.5480   -2.1680    0.7510 O   0  0  0  0  0  0  0  0  0  0  0  0
   -2.2500   -0.0210    0.1650 C   0  0  0  0  0  0  0  0  0  0  0  0
   -3.2540    0.8020   -0.0550 C   0  0  0  0  0  0  0  0  0  0  0  0
   -4.5930    0.3470    0.0790 N   0  0  0  0  0  0  0  0  0  0  0  0
   -2.9990    2.1490   -0.4280 N   0  0  0  0  0  0  0  0  0  0  0  0
   -1.7060    2.6560   -0.5780 C   0  0  0  0  0  0  0  0  0  0  0  0
   -1.4930    3.8840   -0.9180 N   0  0  0  0  0  0  0  0  0  0  0  0
   -0.5140    1.7820   -0.3460 C   0  0  0  0  0  0  0  0  0  0  0  0
    0.6820    2.2840   -0.4560 C   0  0  0  0  0  0  0  0  0  0  0  0
    1.8990    1.5540   -0.2680 C   0  0  0  0  0  0  0  0  0  0  0  0
    2.8060    1.9960    0.7090 C   0  0  0  0  0  0  0  0  0  0  0  0
    4.0200    1.3950    0.9330 C   0  0  0  0  0  0  0  0  0  0  0  0
    4.4080    0.3050    0.1890 C   0  0  0  0  0  0  0  0  0  0  0  0
    5.6370   -0.2750    0.4430 O   0  0  0  0  0  0  0  0  0  0  0  0
    3.5380   -0.1490   -0.7760 C   0  0  0  0  0  0  0  0  0  0  0  0
    4.0030   -1.5580   -1.7600 S   0  0  0  0  0  0  0  0  0  0  0  0
    3.4120   -3.0690   -0.9070 C   0  0  0  0  0  0  0  0  0  0  0  0
    2.3120    0.4590   -1.0020 C   0  0  0  0  0  0  0  0  0  0  0  0
   -0.8460    0.4240    0.0320 C   0  0  0  0  0  0  0  0  0  0  0  0
    0.0870   -0.3920    0.2550 O   0  0  0  0  0  0  0  0  0  0  0  0
  1  2  1  0
  2  3  1  0
  3  4  2  0
  3  5  1  0
  5  6  2  0
  5 22  1  0
  6  7  1  0
  6  8  1  0
  8  9  1  0
  9 10  2  0
  9 11  1  0
 11 12  2  3
 11 22  1  0
 12 13  1  0
 13 14  2  0
 13 21  1  0
 14 15  1  0
 15 16  2  0
 16 17  1  0
 16 18  1  0
 18 19  1  0
 18 21  2  0
 19 20  1  0
 22 23  2  0
M  END
