
     RDKit          3D

 23 24  0  0  0  0  0  0  0  0999 V2000
   -3.1080   -0.7710    1.1780 C   0  0  0  0  0  0  0  0  0  0  0  0
   -3.2220   -0.2400   -0.2070 C   0  0  1  0  0  0  0  0  0  0  0  0
   -2.3590   -0.8990   -1.2210 C   0  0  0  0  0  0  0  0  0  0  0  0
   -0.9750   -0.8290   -1.1950 N   0  0  0  0  0  0  0  0  0  0  0  0
   -0.0130   -1.2170   -0.1940 C   0  0  0  0  0  0  0  0  0  0  0  0
   -0.4360   -1.6920    0.8410 O   0  0  0  0  0  0  0  0  0  0  0  0
    1.3870   -1.0120   -0.4700 C   0  0  0  0  0  0  0  0  0  0  0  0
    1.9170   -0.8400   -1.5060 O   0  0  0  0  0  0  0  0  0  0  0  0
    2.3480   -1.0010    0.9290 N   0  0  0  0  0  0  0  0  0  0  0  0
    3.5650   -0.7900    0.2680 C   0  0  0  0  0  0  0  0  0  0  0  0
    3.9380   -0.8140   -0.9090 O   0  0  0  0  0  0  0  0  0  0  0  0
    4.5730   -0.4730    1.3380 N   0  0  0  0  0  0  0  0  0  0  0  0
    5.8540   -0.2380    0.8870 C   0  0  0  0  0  0  0  0  0  0  0  0
    6.9360   -0.9310    1.1580 C   0  0  0  0  0  0  0  0  0  0  0  0
    8.1430   -0.4870    0.5630 C   0  0  0  0  0  0  0  0  0  0  0  0
    9.1670   -1.2010    0.2890 O   0  0  0  0  0  0  0  0  0  0  0  0
    8.1650    0.9830    0.2460 C   0  0  0  0  0  0  0  0  0  0  0  0
    6.3640    1.1150   -0.1580 S   0  0  0  0  0  0  0  0  0  0  0  0
   -4.6450   -0.3190   -0.7030 C   0  0  0  0  0  0  0  0  0  0  0  0
   -5.6250    0.5510   -0.0010 C   0  0  0  0  0  0  0  0  0  0  0  0
   -5.1550    1.9740   -0.0290 C   0  0  0  0  0  0  0  0  0  0  0  0
   -3.7740    2.0670    0.5680 C   0  0  0  0  0  0  0  0  0  0  0  0
   -2.7690    1.2460   -0.1920 C   0  0  0  0  0  0  0  0  0  0  0  0
  2  1  1  1
  2  3  1  0
  2 19  1  0
  2 23  1  0
  3  4  1  0
  4  5  1  0
  5  6  2  0
  5  7  1  0
  7  8  2  0
  7  9  1  0
  9 10  1  0
 10 11  2  0
 10 12  1  0
 12 13  1  0
 13 14  2  0
 13 18  1  0
 14 15  1  0
 15 16  2  0
 15 17  1  0
 17 18  1  0
 19 20  1  0
 20 21  1  0
 21 22  1  0
 22 23  1  0
M  END
