
     RDKit          3D

 22 23  0  0  0  0  0  0  0  0999 V2000
   -5.0840    0.0970   -1.2050 C   0  0  0  0  0  0  0  0  0  0  0  0
   -4.5430   -0.5350    0.0600 C   0  0  1  0  0  0  0  0  0  0  0  0
   -5.1370    0.1900    1.2380 C   0  0  0  0  0  0  0  0  0  0  0  0
   -4.9980   -1.9750    0.0610 C   0  0  0  0  0  0  0  0  0  0  0  0
   -3.0860   -0.5220    0.0830 N   0  0  0  0  0  0  0  0  0  0  0  0
   -2.3300    0.6520    0.0310 C   0  0  0  0  0  0  0  0  0  0  0  0
   -3.0780    1.7230   -0.0310 O   0  0  0  0  0  0  0  0  0  0  0  0
   -0.9190    0.8620    0.0330 C   0  0  0  0  0  0  0  0  0  0  0  0
    0.0750    0.0380    0.0590 C   0  0  0  0  0  0  0  0  0  0  0  0
    0.2170   -1.4580    0.0840 C   0  0  0  0  0  0  0  0  0  0  0  0
    1.3450   -1.5330   -0.8760 O   0  0  0  0  0  0  0  0  0  0  0  0
    2.2460   -0.5710   -0.4730 C   0  0  0  0  0  0  0  0  0  0  0  0
    3.6070   -0.5070   -0.5820 C   0  0  0  0  0  0  0  0  0  0  0  0
    4.3290    0.5520   -0.1070 C   0  0  0  0  0  0  0  0  0  0  0  0
    5.7390    0.6970   -0.2020 N   0  0  0  0  0  0  0  0  0  0  0  0
    6.5820   -0.0660   -1.0070 C   0  0  0  0  0  0  0  0  0  0  0  0
    8.0160    0.1680   -1.0180 N   0  0  0  0  0  0  0  0  0  0  0  0
    6.1430   -0.9760   -1.7470 O   0  0  0  0  0  0  0  0  0  0  0  0
    3.5940    1.5690    0.5000 C   0  0  0  0  0  0  0  0  0  0  0  0
    2.1920    1.5190    0.6220 C   0  0  0  0  0  0  0  0  0  0  0  0
    1.5400    2.5400    1.2390 O   0  0  0  0  0  0  0  0  0  0  0  0
    1.5280    0.4320    0.1210 C   0  0  0  0  0  0  0  0  0  0  0  0
  2  1  1  6
  2  3  1  0
  2  4  1  0
  2  5  1  0
  5  6  1  0
  6  7  2  0
  6  8  1  0
  8  9  2  3
  9 10  1  0
  9 22  1  0
 10 11  1  0
 11 12  1  0
 12 13  2  0
 12 22  1  0
 13 14  1  0
 14 15  1  0
 14 19  2  0
 15 16  1  0
 16 17  1  0
 16 18  2  0
 19 20  1  0
 20 21  1  0
 20 22  2  0
M  END
