
     RDKit          3D

 38 42  0  0  0  0  0  0  0  0999 V2000
   -3.3340    1.5460   -2.9580 N   0  0  0  0  0  0  0  0  0  0  0  0
   -3.1430    0.9920   -1.6630 C   0  0  0  0  0  0  0  0  0  0  0  0
   -1.9670    1.1090   -1.0330 C   0  0  0  0  0  0  0  0  0  0  0  0
   -1.8030    0.5720    0.2030 C   0  0  0  0  0  0  0  0  0  0  0  0
   -0.5820    0.7020    0.9340 N   0  0  0  0  0  0  0  0  0  0  0  0
    0.6510    1.1880    0.4110 C   0  0  0  0  0  0  0  0  0  0  0  0
    1.4920    0.2240   -0.3420 C   0  0  1  0  0  0  0  0  0  0  0  0
    0.8890   -0.3950   -1.5610 C   0  0  0  0  0  0  0  0  0  0  0  0
    2.0560   -1.5400   -2.3280 Cl  0  0  0  0  0  0  0  0  0  0  0  0
    2.7060    1.0000   -0.8020 C   0  0  0  0  0  0  0  0  0  0  0  0
    2.6250    1.8870   -1.8100 N   0  0  0  0  0  0  0  0  0  0  0  0
    3.8570    2.4440   -2.0010 C   0  0  0  0  0  0  0  0  0  0  0  0
    4.3320    3.3870   -2.8810 C   0  0  0  0  0  0  0  0  0  0  0  0
    5.6560    3.7450   -2.8200 C   0  0  0  0  0  0  0  0  0  0  0  0
    6.4770    3.1550   -1.8840 C   0  0  0  0  0  0  0  0  0  0  0  0
    8.1710    3.5960   -1.7880 Cl  0  0  0  0  0  0  0  0  0  0  0  0
    5.9960    2.2130   -1.0080 C   0  0  0  0  0  0  0  0  0  0  0  0
    4.6620    1.8370   -1.0530 C   0  0  0  0  0  0  0  0  0  0  0  0
    3.9570    0.9530   -0.3180 N   0  0  0  0  0  0  0  0  0  0  0  0
    4.4400    0.1440    0.7620 C   0  0  0  0  0  0  0  0  0  0  0  0
    4.9820   -1.1670    0.3450 C   0  0  0  0  0  0  0  0  0  0  0  0
    5.0350   -1.5350   -0.8440 O   0  0  0  0  0  0  0  0  0  0  0  0
    5.4700   -2.0390    1.4310 C   0  0  0  0  0  0  0  0  0  0  0  0
    5.4920   -1.8040    2.7880 C   0  0  0  0  0  0  0  0  0  0  0  0
    6.0340   -2.8860    3.4500 C   0  0  0  0  0  0  0  0  0  0  0  0
    6.3450   -3.7800    2.5250 N   0  0  0  0  0  0  0  0  0  0  0  0
    6.0240   -3.3130    1.2970 C   0  0  0  0  0  0  0  0  0  0  0  0
   -2.8760   -0.0950    0.7940 C   0  0  0  0  0  0  0  0  0  0  0  0
   -2.6290   -0.6840    2.0640 N   0  0  0  0  0  0  0  0  0  0  0  0
   -4.1240   -0.2440    0.1810 C   0  0  0  0  0  0  0  0  0  0  0  0
   -5.2010   -0.9180    0.9240 C   0  0  0  0  0  0  0  0  0  0  0  0
   -6.3740   -1.1990    0.5340 N   0  0  0  0  0  0  0  0  0  0  0  0
   -7.1970   -1.8650    1.4960 C   0  0  0  0  0  0  0  0  0  0  0  0
   -6.5840   -1.3750    2.7800 C   0  0  0  0  0  0  0  0  0  0  0  0
   -5.0810   -1.3470    2.3520 C   0  0  0  0  0  0  0  0  0  0  0  0
   -4.2700    0.3060   -1.0720 C   0  0  0  0  0  0  0  0  0  0  0  0
   -5.4210    0.3060   -1.9230 C   0  0  0  0  0  0  0  0  0  0  0  0
   -6.6850   -0.1990   -1.8030 N   0  0  0  0  0  0  0  0  0  0  0  0
  1  2  1  0
  2  3  2  0
  2 36  1  0
  3  4  1  0
  4  5  1  0
  4 28  2  0
  5  6  1  0
  7  6  1  6
  7  8  1  0
  7 10  1  0
  8  9  1  0
 10 11  2  0
 10 19  1  0
 11 12  1  0
 12 13  2  0
 12 18  1  0
 13 14  1  0
 14 15  2  0
 15 16  1  0
 15 17  1  0
 17 18  2  0
 18 19  1  0
 19 20  1  0
 20 21  1  0
 21 22  2  0
 21 23  1  0
 23 24  1  0
 23 27  2  0
 24 25  2  0
 25 26  1  0
 26 27  1  0
 28 29  1  0
 28 30  1  0
 30 31  1  0
 30 36  2  0
 31 32  2  0
 31 35  1  0
 32 33  1  0
 33 34  1  0
 34 35  1  0
 36 37  1  0
 37 38  1  0
M  CHG  1  38   1
M  END
