
     RDKit          3D

 38 42  0  0  0  0  0  0  0  0999 V2000
   -8.9850    2.9130   -0.1630 C   0  0  0  0  0  0  0  0  0  0  0  0
   -8.0950    1.7380   -0.2340 C   0  0  0  0  0  0  0  0  0  0  0  0
   -6.7470    1.8910   -0.1660 C   0  0  0  0  0  0  0  0  0  0  0  0
   -5.8870    0.7760   -0.1980 C   0  0  0  0  0  0  0  0  0  0  0  0
   -6.4060   -0.4910   -0.2950 C   0  0  0  0  0  0  0  0  0  0  0  0
   -5.7060   -1.6960   -0.2870 N   0  0  0  0  0  0  0  0  0  0  0  0
   -4.3990   -1.9400    0.1510 C   0  0  0  0  0  0  0  0  0  0  0  0
   -4.0160   -3.2970    0.3370 C   0  0  0  0  0  0  0  0  0  0  0  0
   -2.7870   -3.6460    0.8310 C   0  0  0  0  0  0  0  0  0  0  0  0
   -1.8550   -2.6830    1.1740 C   0  0  0  0  0  0  0  0  0  0  0  0
   -2.1690   -1.3540    1.0080 C   0  0  0  0  0  0  0  0  0  0  0  0
   -1.2880   -0.2670    1.3940 C   0  0  0  0  0  0  0  0  0  0  0  0
   -0.3570    0.2410    0.3150 C   0  0  2  0  0  0  0  0  0  0  0  0
   -1.2190    0.7570   -0.7920 N   0  0  0  0  0  0  0  0  0  0  0  0
    0.4720   -0.8060   -0.2980 C   0  0  0  0  0  0  0  0  0  0  0  0
    0.0120   -1.9530   -0.8700 N   0  0  0  0  0  0  0  0  0  0  0  0
    1.0330   -2.6440   -1.3360 N   0  0  0  0  0  0  0  0  0  0  0  0
    2.1650   -1.9810   -1.0900 C   0  0  0  0  0  0  0  0  0  0  0  0
    3.4940   -2.4390   -1.3910 N   0  0  0  0  0  0  0  0  0  0  0  0
    1.8340   -0.8120   -0.4410 C   0  0  0  0  0  0  0  0  0  0  0  0
    2.8010    0.1170    0.0750 C   0  0  0  0  0  0  0  0  0  0  0  0
    4.0240   -0.2980    0.1210 O   0  0  0  0  0  0  0  0  0  0  0  0
    2.6220    1.4320    0.5350 N   0  0  0  0  0  0  0  0  0  0  0  0
    3.6900    2.2020    1.0690 N   0  0  0  0  0  0  0  0  0  0  0  0
    4.9200    1.5310    1.1800 C   0  0  0  0  0  0  0  0  0  0  0  0
    5.8480    1.5550    0.1870 N   0  0  0  0  0  0  0  0  0  0  0  0
    7.0130    0.9140    0.2650 C   0  0  0  0  0  0  0  0  0  0  0  0
    8.0060    0.9510   -0.8550 C   0  0  2  0  0  0  0  0  0  0  0  0
    9.4700    0.9590   -0.4850 C   0  0  0  0  0  0  0  0  0  0  0  0
    8.8170    2.2220   -0.9250 C   0  0  0  0  0  0  0  0  0  0  0  0
    7.2730    0.1850    1.4390 C   0  0  0  0  0  0  0  0  0  0  0  0
    6.3620    0.1270    2.4830 C   0  0  0  0  0  0  0  0  0  0  0  0
    5.1770    0.8150    2.3310 C   0  0  0  0  0  0  0  0  0  0  0  0
    3.9530    0.7990    3.5830 Cl  0  0  0  0  0  0  0  0  0  0  0  0
   -3.4430   -1.0540    0.5000 C   0  0  0  0  0  0  0  0  0  0  0  0
   -7.8190   -0.6410   -0.3670 C   0  0  0  0  0  0  0  0  0  0  0  0
   -8.5490   -2.2140   -0.4970 Cl  0  0  0  0  0  0  0  0  0  0  0  0
   -8.5890    0.4820   -0.3340 C   0  0  0  0  0  0  0  0  0  0  0  0
  1  2  1  0
  2  3  2  0
  2 38  1  0
  3  4  1  0
  4  5  2  0
  5  6  1  0
  5 36  1  0
  6  7  1  0
  7  8  2  0
  7 35  1  0
  8  9  1  0
  9 10  2  0
 10 11  1  0
 11 12  1  0
 11 35  2  0
 12 13  1  0
 13 14  1  6
 13 15  1  0
 15 16  1  0
 15 20  2  0
 16 17  1  0
 17 18  2  0
 18 19  1  0
 18 20  1  0
 20 21  1  0
 21 22  2  0
 21 23  1  0
 23 24  1  0
 24 25  1  0
 25 26  2  0
 25 33  1  0
 26 27  1  0
 28 27  1  1
 27 31  2  0
 28 29  1  0
 28 30  1  0
 29 30  1  0
 31 32  1  0
 32 33  2  0
 33 34  1  0
 36 37  1  0
 36 38  2  0
M  CHG  1  14   1
M  END
