
     RDKit          3D

 38 38  0  0  0  0  0  0  0  0999 V2000
   -7.0330    4.2050   -0.7790 C   0  0  0  0  0  0  0  0  0  0  0  0
   -5.8710    3.9790    0.1250 C   0  0  0  0  0  0  0  0  0  0  0  0
   -6.0180    2.6250    0.8220 C   0  0  0  0  0  0  0  0  0  0  0  0
   -6.0310    1.5230   -0.0840 C   0  0  0  0  0  0  0  0  0  0  0  0
   -7.1370    1.4070   -0.9930 N   0  0  0  0  0  0  0  0  0  0  0  0
   -5.0900    0.5280   -0.1830 C   0  0  0  0  0  0  0  0  0  0  0  0
   -3.9850    0.5900    0.6900 C   0  0  0  0  0  0  0  0  0  0  0  0
   -2.9320   -0.0210    0.9910 C   0  0  0  0  0  0  0  0  0  0  0  0
   -1.9880   -1.0550    0.8720 C   0  0  0  0  0  0  0  0  0  0  0  0
   -0.9690   -0.9480    1.7480 O   0  0  0  0  0  0  0  0  0  0  0  0
   -1.8090   -2.1730    0.0910 N   0  0  0  0  0  0  0  0  0  0  0  0
   -0.6490   -3.1210    0.2450 C   0  0  1  0  0  0  0  0  0  0  0  0
   -0.6670   -4.0700   -0.8810 C   0  0  0  0  0  0  0  0  0  0  0  0
    0.5220   -4.9630   -0.9400 C   0  0  0  0  0  0  0  0  0  0  0  0
    0.8340   -5.7940    0.0590 O   0  0  0  0  0  0  0  0  0  0  0  0
    0.5540   -2.4690    0.5750 N   0  0  0  0  0  0  0  0  0  0  0  0
    1.3110   -1.6000   -0.2890 C   0  0  0  0  0  0  0  0  0  0  0  0
    0.8800   -1.4000   -1.4270 O   0  0  0  0  0  0  0  0  0  0  0  0
    2.4760   -1.0020    0.1170 O   0  0  0  0  0  0  0  0  0  0  0  0
    3.2670   -0.1420   -0.6790 C   0  0  0  0  0  0  0  0  0  0  0  0
    4.4800    0.3510    0.0820 C   0  0  0  0  0  0  0  0  0  0  0  0
    5.2150    1.1970   -0.7700 O   0  0  0  0  0  0  0  0  0  0  0  0
    6.3990    1.8470   -0.4100 C   0  0  0  0  0  0  0  0  0  0  0  0
    6.5410    3.0840   -0.8120 C   0  0  0  0  0  0  0  0  0  0  0  0
    7.7200    3.8990   -0.5180 C   0  0  1  0  0  0  0  0  0  0  0  0
    8.2840    4.2120   -1.7830 F   0  0  0  0  0  0  0  0  0  0  0  0
    7.3330    5.1410    0.0300 F   0  0  0  0  0  0  0  0  0  0  0  0
    8.7640    3.2510    0.2680 C   0  0  2  0  0  0  0  0  0  0  0  0
   10.0340    3.3620   -0.3630 O   0  0  0  0  0  0  0  0  0  0  0  0
    8.5050    1.8710    0.6650 C   0  0  0  0  0  0  0  0  0  0  0  0
    7.4190    1.1930    0.3660 C   0  0  0  0  0  0  0  0  0  0  0  0
    7.2740   -0.1080    0.7890 F   0  0  0  0  0  0  0  0  0  0  0  0
   -1.1200   -3.8700    1.4820 C   0  0  0  0  0  0  0  0  0  0  0  0
   -0.8670   -5.1960    1.8080 N   0  0  0  0  0  0  0  0  0  0  0  0
   -1.8410   -3.2150    2.3390 O   0  0  0  0  0  0  0  0  0  0  0  0
   -5.3620   -0.4760   -1.1760 C   0  0  0  0  0  0  0  0  0  0  0  0
   -4.5490   -1.5790   -1.4500 N   0  0  0  0  0  0  0  0  0  0  0  0
   -6.4580   -0.3700   -1.8980 O   0  0  0  0  0  0  0  0  0  0  0  0
  1  2  1  0
  2  3  1  0
  3  4  1  0
  4  5  1  0
  4  6  2  3
  6  7  1  0
  6 36  1  0
  7  8  2  3
  8  9  1  0
  9 10  2  0
  9 11  1  0
 11 12  1  0
 12 13  1  6
 12 16  1  0
 12 33  1  0
 13 14  1  0
 14 15  1  0
 16 17  1  0
 17 18  2  0
 17 19  1  0
 19 20  1  0
 20 21  1  0
 21 22  1  0
 22 23  1  0
 23 24  2  0
 23 31  1  0
 24 25  1  0
 25 26  1  6
 25 27  1  0
 25 28  1  0
 28 29  1  6
 28 30  1  0
 30 31  2  0
 31 32  1  0
 33 34  1  0
 33 35  2  0
 36 37  1  0
 36 38  2  0
M  END
