
     RDKit          3D

 38 41  0  0  0  0  0  0  0  0999 V2000
   -2.7530   -0.7380    3.8640 C   0  0  0  0  0  0  0  0  0  0  0  0
   -3.5640   -0.5140    2.8560 C   0  0  0  0  0  0  0  0  0  0  0  0
   -3.4120   -1.3070    1.6920 N   0  0  0  0  0  0  0  0  0  0  0  0
   -4.6550    0.4920    2.9210 C   0  0  0  0  0  0  0  0  0  0  0  0
   -5.4900    0.8080    2.0370 C   0  0  0  0  0  0  0  0  0  0  0  0
   -5.6670    0.3350    0.6970 C   0  0  0  0  0  0  0  0  0  0  0  0
   -6.8700   -0.3280    0.4120 C   0  0  0  0  0  0  0  0  0  0  0  0
   -7.9560   -0.6540    1.7500 Cl  0  0  0  0  0  0  0  0  0  0  0  0
   -7.2580   -0.7380   -0.8170 C   0  0  0  0  0  0  0  0  0  0  0  0
   -6.3980   -0.4790   -1.8660 C   0  0  0  0  0  0  0  0  0  0  0  0
   -6.7800   -0.8860   -3.1850 C   0  0  0  0  0  0  0  0  0  0  0  0
   -7.0860   -1.2330   -4.2420 N   0  0  0  0  0  0  0  0  0  0  0  0
   -5.2150    0.1650   -1.6430 C   0  0  0  0  0  0  0  0  0  0  0  0
   -4.4180    0.4420   -2.7910 N   0  0  0  0  0  0  0  0  0  0  0  0
   -4.8200    0.5820   -0.3920 C   0  0  0  0  0  0  0  0  0  0  0  0
   -3.6330    1.4060   -0.1290 C   0  0  0  0  0  0  0  0  0  0  0  0
   -2.7230    1.6030   -1.2220 N   0  0  0  0  0  0  0  0  0  0  0  0
   -1.8990    0.5700   -1.7580 C   0  0  0  0  0  0  0  0  0  0  0  0
   -1.9170   -0.5860   -1.2690 O   0  0  0  0  0  0  0  0  0  0  0  0
   -1.0600    0.8670   -2.8550 N   0  0  0  0  0  0  0  0  0  0  0  0
   -0.2040   -0.1270   -3.4640 C   0  0  0  0  0  0  0  0  0  0  0  0
    1.0160   -0.3480   -2.6810 C   0  0  0  0  0  0  0  0  0  0  0  0
    1.7940   -1.5000   -2.7990 C   0  0  0  0  0  0  0  0  0  0  0  0
    2.8240   -1.3730   -1.9730 N   0  0  0  0  0  0  0  0  0  0  0  0
    2.7860   -0.1980   -1.3030 C   0  0  0  0  0  0  0  0  0  0  0  0
    3.7970    0.2070   -0.3340 C   0  0  0  0  0  0  0  0  0  0  0  0
    3.8170    1.3860    0.3870 C   0  0  0  0  0  0  0  0  0  0  0  0
    4.9310    1.3400    1.1570 N   0  0  0  0  0  0  0  0  0  0  0  0
    5.6100    0.2060    0.9610 C   0  0  0  0  0  0  0  0  0  0  0  0
    6.8480   -0.2640    1.5670 C   0  0  0  0  0  0  0  0  0  0  0  0
    7.3940   -1.4830    1.2250 C   0  0  0  0  0  0  0  0  0  0  0  0
    8.5690   -1.9550    1.7830 C   0  0  0  0  0  0  0  0  0  0  0  0
    9.2380   -1.1920    2.7210 C   0  0  0  0  0  0  0  0  0  0  0  0
   10.7230   -1.7750    3.4420 Cl  0  0  0  0  0  0  0  0  0  0  0  0
    8.6920    0.0320    3.0660 C   0  0  0  0  0  0  0  0  0  0  0  0
    7.5060    0.5000    2.4960 C   0  0  0  0  0  0  0  0  0  0  0  0
    4.8970   -0.4760    0.0440 N   0  0  0  0  0  0  0  0  0  0  0  0
    1.6640    0.4300   -1.7470 C   0  0  0  0  0  0  0  0  0  0  0  0
  1  2  2  0
  2  3  1  0
  2  4  1  0
  4  5  2  3
  5  6  1  0
  6  7  2  0
  6 15  1  0
  7  8  1  0
  7  9  1  0
  9 10  2  0
 10 11  1  0
 10 13  1  0
 11 12  3  0
 13 14  1  0
 13 15  2  0
 15 16  1  0
 16 17  1  0
 17 18  1  0
 18 19  2  0
 18 20  1  0
 20 21  1  0
 21 22  1  0
 22 23  2  0
 22 38  1  0
 23 24  1  0
 24 25  1  0
 25 26  1  0
 25 38  2  0
 26 27  2  0
 26 37  1  0
 27 28  1  0
 28 29  1  0
 29 30  1  0
 29 37  2  0
 30 31  2  0
 30 36  1  0
 31 32  1  0
 32 33  2  0
 33 34  1  0
 33 35  1  0
 35 36  2  0
M  CHG  1  37   1
M  END
