
     RDKit          3D

 38 42  0  0  0  0  0  0  0  0999 V2000
    6.8080    1.8530   -0.8080 N   0  0  0  0  0  0  0  0  0  0  0  0
    6.5390    0.7120   -0.0090 C   0  0  0  0  0  0  0  0  0  0  0  0
    5.4530    0.0400   -0.1780 N   0  0  0  0  0  0  0  0  0  0  0  0
    4.4810    0.4030   -1.1620 C   0  0  0  0  0  0  0  0  0  0  0  0
    3.4660    1.1580   -0.8150 C   0  0  0  0  0  0  0  0  0  0  0  0
    3.4340    1.6640    0.9050 Cl  0  0  0  0  0  0  0  0  0  0  0  0
    2.3730    1.5630   -1.7070 C   0  0  2  0  0  0  0  0  0  0  0  0
    1.0660    0.9870   -1.2790 C   0  0  0  0  0  0  0  0  0  0  0  0
    0.8850    0.1950   -0.1800 C   0  0  0  0  0  0  0  0  0  0  0  0
   -0.3750   -0.3030    0.1720 C   0  0  0  0  0  0  0  0  0  0  0  0
   -1.4700   -0.0050   -0.5860 C   0  0  0  0  0  0  0  0  0  0  0  0
   -2.7510   -0.5060   -0.2950 N   0  0  0  0  0  0  0  0  0  0  0  0
   -3.0630   -1.7820    0.2310 C   0  0  0  0  0  0  0  0  0  0  0  0
   -2.2420   -2.8040    0.4690 N   0  0  0  0  0  0  0  0  0  0  0  0
   -2.9200   -3.8670    0.9240 N   0  0  0  0  0  0  0  0  0  0  0  0
   -4.2020   -3.5270    0.9800 C   0  0  0  0  0  0  0  0  0  0  0  0
   -4.3540   -2.2330    0.5590 C   0  0  0  0  0  0  0  0  0  0  0  0
   -5.5890   -1.5040    0.4860 C   0  0  0  0  0  0  0  0  0  0  0  0
   -6.6960   -2.1050   -0.1280 C   0  0  0  0  0  0  0  0  0  0  0  0
   -7.8810   -1.4170   -0.1950 C   0  0  0  0  0  0  0  0  0  0  0  0
   -8.0010   -0.1370    0.3340 C   0  0  0  0  0  0  0  0  0  0  0  0
   -9.2870    0.5710    0.2440 C   0  0  0  0  0  0  0  0  0  0  0  0
   -9.1650    1.8680    0.8570 N   0  0  0  0  0  0  0  0  0  0  0  0
   -6.9130    0.4450    0.9350 C   0  0  0  0  0  0  0  0  0  0  0  0
   -5.7270   -0.2380    1.0040 C   0  0  0  0  0  0  0  0  0  0  0  0
   -1.2980    0.8080   -1.7170 C   0  0  0  0  0  0  0  0  0  0  0  0
   -0.0540    1.2950   -2.0560 C   0  0  0  0  0  0  0  0  0  0  0  0
    2.6460    1.2830   -3.0730 N   0  0  0  0  0  0  0  0  0  0  0  0
    3.7230    0.4590   -3.4650 C   0  0  0  0  0  0  0  0  0  0  0  0
    3.8590    0.1160   -4.6820 O   0  0  0  0  0  0  0  0  0  0  0  0
    4.6700   -0.0000   -2.5210 N   0  0  0  0  0  0  0  0  0  0  0  0
    7.5010    0.3030    1.0080 C   0  0  0  0  0  0  0  0  0  0  0  0
    8.6780    0.9820    1.2340 C   0  0  0  0  0  0  0  0  0  0  0  0
    9.5910    0.5870    2.2060 C   0  0  0  0  0  0  0  0  0  0  0  0
    9.3200   -0.5230    2.9770 C   0  0  0  0  0  0  0  0  0  0  0  0
    8.1470   -1.2120    2.7610 C   0  0  0  0  0  0  0  0  0  0  0  0
    7.2530   -0.8060    1.7940 C   0  0  0  0  0  0  0  0  0  0  0  0
    5.7690   -1.7380    1.5740 Cl  0  0  0  0  0  0  0  0  0  0  0  0
  1  2  1  0
  2  3  2  3
  2 32  1  0
  3  4  1  0
  4  5  2  0
  4 31  1  0
  5  6  1  0
  5  7  1  0
  7  8  1  1
  7 28  1  0
  8  9  2  0
  8 27  1  0
  9 10  1  0
 10 11  2  0
 11 12  1  0
 11 26  1  0
 12 13  1  0
 13 14  1  0
 13 17  2  0
 14 15  1  0
 15 16  2  0
 16 17  1  0
 17 18  1  0
 18 19  2  0
 18 25  1  0
 19 20  1  0
 20 21  2  0
 21 22  1  0
 21 24  1  0
 22 23  1  0
 24 25  2  0
 26 27  2  0
 28 29  1  0
 29 30  2  0
 29 31  1  0
 32 33  2  0
 32 37  1  0
 33 34  1  0
 34 35  2  0
 35 36  1  0
 36 37  2  0
 37 38  1  0
M  CHG  1  23   1
M  END
