
     RDKit          3D

 38 42  0  0  0  0  0  0  0  0999 V2000
    8.7980    0.6590    2.5060 C   0  0  0  0  0  0  0  0  0  0  0  0
    9.0220   -0.7040    1.8950 C   0  0  0  0  0  0  0  0  0  0  0  0
    9.0290   -0.5580    0.4190 C   0  0  0  0  0  0  0  0  0  0  0  0
   10.1240   -0.5740   -0.3550 N   0  0  0  0  0  0  0  0  0  0  0  0
    9.8270   -0.4220   -1.6230 N   0  0  0  0  0  0  0  0  0  0  0  0
   10.7230   -0.3820   -2.7860 C   0  0  0  0  0  0  0  0  0  0  0  0
    8.4680   -0.3020   -1.6720 C   0  0  0  0  0  0  0  0  0  0  0  0
    7.5730   -0.0770   -3.1670 Cl  0  0  0  0  0  0  0  0  0  0  0  0
    7.9210   -0.3800   -0.4240 C   0  0  0  0  0  0  0  0  0  0  0  0
    6.5530   -0.3120    0.0700 C   0  0  0  0  0  0  0  0  0  0  0  0
    6.3500   -0.4190    1.3250 O   0  0  0  0  0  0  0  0  0  0  0  0
    5.4400   -0.1370   -0.7520 N   0  0  0  0  0  0  0  0  0  0  0  0
    4.0650   -0.0550   -0.3570 C   0  0  0  0  0  0  0  0  0  0  0  0
    3.6150    0.0460    0.9290 C   0  0  0  0  0  0  0  0  0  0  0  0
    2.2660    0.1110    1.2740 C   0  0  0  0  0  0  0  0  0  0  0  0
    1.3400    0.0740    0.2880 C   0  0  0  0  0  0  0  0  0  0  0  0
   -0.1070    0.1410    0.5870 C   0  0  0  0  0  0  0  0  0  0  0  0
   -1.0960    0.1120   -0.3230 N   0  0  0  0  0  0  0  0  0  0  0  0
   -2.3010    0.1920    0.2610 C   0  0  0  0  0  0  0  0  0  0  0  0
   -3.5830    0.2010   -0.2330 C   0  0  0  0  0  0  0  0  0  0  0  0
   -4.7070    0.2970    0.6080 C   0  0  0  0  0  0  0  0  0  0  0  0
   -6.0640    0.2870    0.0540 C   0  0  2  0  0  0  0  0  0  0  0  0
   -6.9130   -0.8480    0.4980 C   0  0  0  0  0  0  0  0  0  0  0  0
   -6.4610   -2.2300    0.2420 C   0  0  0  0  0  0  0  0  0  0  0  0
   -6.2940   -2.6640   -1.1020 N   0  0  0  0  0  0  0  0  0  0  0  0
   -6.0340    0.4540   -1.4360 C   0  0  0  0  0  0  0  0  0  0  0  0
   -7.4140    0.9970   -1.7820 C   0  0  0  0  0  0  0  0  0  0  0  0
   -7.6160    2.0160   -0.7080 C   0  0  1  0  0  0  0  0  0  0  0  0
   -9.0210    2.1690   -0.3680 N   0  0  0  0  0  0  0  0  0  0  0  0
   -6.7810    1.6180    0.4580 C   0  0  0  0  0  0  0  0  0  0  0  0
   -4.4450    0.3810    1.9440 C   0  0  0  0  0  0  0  0  0  0  0  0
   -5.7820    0.5330    3.0870 Cl  0  0  0  0  0  0  0  0  0  0  0  0
   -3.1320    0.3700    2.4430 C   0  0  0  0  0  0  0  0  0  0  0  0
   -2.0580    0.2760    1.6150 C   0  0  0  0  0  0  0  0  0  0  0  0
   -0.7060    0.2420    1.7710 N   0  0  0  0  0  0  0  0  0  0  0  0
    1.7470   -0.0270   -1.0290 C   0  0  0  0  0  0  0  0  0  0  0  0
    0.7290   -0.0630   -2.0310 N   0  0  0  0  0  0  0  0  0  0  0  0
    3.0750   -0.0900   -1.3460 C   0  0  0  0  0  0  0  0  0  0  0  0
  1  2  1  0
  2  3  1  0
  3  4  2  0
  3  9  1  0
  4  5  1  0
  5  6  1  0
  5  7  1  0
  7  8  1  0
  7  9  2  0
  9 10  1  0
 10 11  2  0
 10 12  1  0
 12 13  1  0
 13 14  2  0
 13 38  1  0
 14 15  1  0
 15 16  2  0
 16 17  1  0
 16 36  1  0
 17 18  2  0
 17 35  1  0
 18 19  1  0
 19 20  2  0
 19 34  1  0
 20 21  1  0
 21 22  1  0
 21 31  2  0
 22 23  1  6
 22 26  1  0
 22 30  1  0
 23 24  1  0
 24 25  1  0
 26 27  1  0
 27 28  1  0
 28 29  1  1
 28 30  1  0
 31 32  1  0
 31 33  1  0
 33 34  2  0
 34 35  1  0
 36 37  1  0
 36 38  2  0
M  CHG  1  25   1
M  END
