
     RDKit          3D

 22 23  0  0  0  0  0  0  0  0999 V2000
    2.9980   -1.4620   -1.3290 C   0  0  0  0  0  0  0  0  0  0  0  0
    2.4500   -0.5260   -0.3110 C   0  0  0  0  0  0  0  0  0  0  0  0
    3.2750    0.3220    0.5160 C   0  0  0  0  0  0  0  0  0  0  0  0
    4.5290    0.5170    0.6340 C   0  0  0  0  0  0  0  0  0  0  0  0
    5.7050   -0.0040    0.0110 C   0  0  0  0  0  0  0  0  0  0  0  0
    5.7440   -0.9410   -0.9730 O   0  0  0  0  0  0  0  0  0  0  0  0
    6.9090    0.4500    0.4060 C   0  0  0  0  0  0  0  0  0  0  0  0
    6.9420    1.4010    1.3990 O   0  0  0  0  0  0  0  0  0  0  0  0
    1.1150   -0.4480   -0.1450 C   0  0  0  0  0  0  0  0  0  0  0  0
    0.4120    0.3990    0.7940 C   0  0  0  0  0  0  0  0  0  0  0  0
   -0.8350    0.6600    0.3260 C   0  0  0  0  0  0  0  0  0  0  0  0
   -1.8170    1.4980    1.0470 C   0  0  1  0  0  0  0  0  0  0  0  0
   -2.1250    2.6320    0.2640 O   0  0  0  0  0  0  0  0  0  0  0  0
   -3.0810    0.8210    1.4580 C   0  0  0  0  0  0  0  0  0  0  0  0
   -3.8550    0.4390    0.3770 O   0  0  0  0  0  0  0  0  0  0  0  0
   -5.0240   -0.1870    0.7520 C   0  0  2  0  0  0  0  0  0  0  0  0
   -5.3030   -1.4160   -0.0680 C   0  0  0  0  0  0  0  0  0  0  0  0
   -6.6590   -1.0530   -0.2250 O   0  0  0  0  0  0  0  0  0  0  0  0
   -6.2480    0.2690   -0.0160 C   0  0  0  0  0  0  0  0  0  0  0  0
   -0.9610   -0.0130   -0.9730 C   0  0  2  0  0  0  0  0  0  0  0  0
   -2.2020   -0.4920   -1.2900 O   0  0  0  0  0  0  0  0  0  0  0  0
    0.0600   -1.1650   -0.8550 C   0  0  0  0  0  0  0  0  0  0  0  0
  1  2  1  0
  2  3  1  0
  2  9  2  3
  3  4  2  3
  4  5  1  0
  5  6  1  0
  5  7  2  3
  7  8  1  0
  9 10  1  0
  9 22  1  0
 10 11  2  0
 11 12  1  0
 11 20  1  0
 12 13  1  6
 12 14  1  0
 14 15  1  0
 16 15  1  6
 16 17  1  0
 16 19  1  0
 17 18  1  0
 18 19  1  0
 20 21  1  1
 20 22  1  0
M  END
