
     RDKit          3D

 22 23  0  0  0  0  0  0  0  0999 V2000
   -2.3820    2.8330   -0.7370 O   0  0  0  0  0  0  0  0  0  0  0  0
   -3.7080    2.5470   -0.7850 C   0  0  0  0  0  0  0  0  0  0  0  0
   -4.0930    1.2200   -0.3390 C   0  0  0  0  0  0  0  0  0  0  0  0
   -3.2970    0.2260    0.1270 C   0  0  0  0  0  0  0  0  0  0  0  0
   -4.0360   -0.9810    0.4780 C   0  0  0  0  0  0  0  0  0  0  0  0
   -3.6550   -2.0930    1.0080 C   0  0  0  0  0  0  0  0  0  0  0  0
   -4.6900   -3.0710    1.1990 O   0  0  0  0  0  0  0  0  0  0  0  0
   -2.4200   -2.4750    1.4220 O   0  0  0  0  0  0  0  0  0  0  0  0
   -1.8720    0.4860    0.3550 C   0  0  0  0  0  0  0  0  0  0  0  0
   -0.9000   -0.0090   -0.6370 C   0  0  2  0  0  0  0  0  0  0  0  0
   -0.8400   -1.4440   -0.9370 C   0  0  0  0  0  0  0  0  0  0  0  0
   -0.1970   -1.6210   -2.1950 O   0  0  0  0  0  0  0  0  0  0  0  0
    0.8510   -0.7500   -2.2910 C   0  0  0  0  0  0  0  0  0  0  0  0
    1.4820   -0.5030   -0.9240 C   0  0  1  0  0  0  0  0  0  0  0  0
    2.8240    0.1020   -1.1690 C   0  0  1  0  0  0  0  0  0  0  0  0
    2.7400    1.3020   -1.8630 O   0  0  0  0  0  0  0  0  0  0  0  0
    3.6140    0.3570    0.0770 C   0  0  2  0  0  0  0  0  0  0  0  0
    3.6790   -0.8540    1.0000 C   0  0  0  0  0  0  0  0  0  0  0  0
    4.2970   -0.1820    2.2350 C   0  0  0  0  0  0  0  0  0  0  0  0
    3.7460    1.2170    2.0970 C   0  0  0  0  0  0  0  0  0  0  0  0
    3.0600    1.3020    0.9160 O   0  0  0  0  0  0  0  0  0  0  0  0
    0.5390    0.4170   -0.1950 C   0  0  0  0  0  0  0  0  0  0  0  0
  1  2  1  0
  2  3  1  0
  3  4  2  3
  4  5  1  0
  4  9  1  0
  5  6  2  3
  6  7  1  0
  6  8  1  0
 10  9  1  1
 10 11  1  0
 10 22  1  0
 11 12  1  0
 12 13  1  0
 14 13  1  6
 14 15  1  0
 14 22  1  0
 15 16  1  1
 15 17  1  0
 17 18  1  1
 17 21  1  0
 18 19  1  0
 19 20  1  0
 20 21  1  0
M  END
