
     RDKit          3D

 22 23  0  0  0  0  0  0  0  0999 V2000
    0.6420   -2.9900    0.7570 C   0  0  0  0  0  0  0  0  0  0  0  0
    1.2190   -1.7390    0.1070 C   0  0  2  0  0  0  0  0  0  0  0  0
    2.2630   -1.1320    0.9630 C   0  0  0  0  0  0  0  0  0  0  0  0
    2.8950    0.0940    0.4180 C   0  0  0  0  0  0  0  0  0  0  0  0
    2.8320    1.2520    1.0800 C   0  0  0  0  0  0  0  0  0  0  0  0
    3.4300    2.5160    0.6120 C   0  0  0  0  0  0  0  0  0  0  0  0
    4.0790    2.3260   -0.6100 O   0  0  0  0  0  0  0  0  0  0  0  0
    4.1650    1.1510   -1.3170 C   0  0  0  0  0  0  0  0  0  0  0  0
    3.6020    0.0550   -0.8460 C   0  0  0  0  0  0  0  0  0  0  0  0
    3.6830   -1.1330   -1.5490 O   0  0  0  0  0  0  0  0  0  0  0  0
    0.1750   -0.8420   -0.4470 C   0  0  0  0  0  0  0  0  0  0  0  0
   -0.8320   -0.3230    0.5100 C   0  0  1  0  0  0  0  0  0  0  0  0
   -1.4980   -1.4060    1.0750 O   0  0  0  0  0  0  0  0  0  0  0  0
   -0.2730    0.4640    1.5320 O   0  0  0  0  0  0  0  0  0  0  0  0
   -1.3550    1.0710    2.1640 C   0  0  0  0  0  0  0  0  0  0  0  0
   -2.3910    1.3120    1.0830 C   0  0  0  0  0  0  0  0  0  0  0  0
   -1.8260    0.5840   -0.1280 C   0  0  1  0  0  0  0  0  0  0  0  0
   -1.1380    1.6890   -0.9480 C   0  0  0  0  0  0  0  0  0  0  0  0
   -2.1450    2.4690   -1.5010 O   0  0  0  0  0  0  0  0  0  0  0  0
   -2.8500   -0.0330   -1.0010 C   0  0  0  0  0  0  0  0  0  0  0  0
   -3.7690   -1.0350   -0.4010 C   0  0  0  0  0  0  0  0  0  0  0  0
   -4.6540   -1.4200   -1.4530 O   0  0  0  0  0  0  0  0  0  0  0  0
  2  1  1  1
  2  3  1  0
  2 11  1  0
  3  4  1  0
  4  5  2  0
  4  9  1  0
  5  6  1  0
  6  7  1  0
  7  8  1  0
  8  9  2  0
  9 10  1  0
 11 12  1  0
 12 13  1  1
 12 14  1  0
 12 17  1  0
 14 15  1  0
 15 16  1  0
 16 17  1  0
 17 18  1  6
 17 20  1  0
 18 19  1  0
 20 21  1  0
 21 22  1  0
M  END
