
     RDKit          3D

 22 23  0  0  0  0  0  0  0  0999 V2000
   -5.7000    0.5200    1.0580 C   0  0  0  0  0  0  0  0  0  0  0  0
   -4.4940    1.0540    1.4890 O   0  0  0  0  0  0  0  0  0  0  0  0
   -3.5310    0.0930    1.7150 C   0  0  0  0  0  0  0  0  0  0  0  0
   -3.0720   -0.7170    0.5860 C   0  0  0  0  0  0  0  0  0  0  0  0
   -2.4020   -0.1340   -0.5780 C   0  0  1  0  0  0  0  0  0  0  0  0
   -3.2030    0.8850   -1.3380 C   0  0  0  0  0  0  0  0  0  0  0  0
   -3.4380    2.0650   -0.6390 O   0  0  0  0  0  0  0  0  0  0  0  0
   -1.0120    0.3830   -0.3550 C   0  0  0  0  0  0  0  0  0  0  0  0
   -0.0030   -0.7700   -0.2540 C   0  0  2  0  0  0  0  0  0  0  0  0
    1.2750   -0.2230    0.3030 C   0  0  1  0  0  0  0  0  0  0  0  0
    2.3460   -1.2530    0.4500 C   0  0  0  0  0  0  0  0  0  0  0  0
    3.4890   -0.6990    1.2720 C   0  0  0  0  0  0  0  0  0  0  0  0
    4.0560    0.4950    0.5490 C   0  0  1  0  0  0  0  0  0  0  0  0
    5.0030    1.0670    1.4130 O   0  0  0  0  0  0  0  0  0  0  0  0
    4.7680    0.1080   -0.7290 C   0  0  0  0  0  0  0  0  0  0  0  0
    5.3180    1.2870   -1.2760 O   0  0  0  0  0  0  0  0  0  0  0  0
    2.9860    1.5100    0.3270 C   0  0  0  0  0  0  0  0  0  0  0  0
    1.8050    0.9510   -0.4500 C   0  0  0  0  0  0  0  0  0  0  0  0
    0.1410   -1.3040   -1.6630 C   0  0  1  0  0  0  0  0  0  0  0  0
    0.4900   -2.6570   -1.6810 O   0  0  0  0  0  0  0  0  0  0  0  0
   -1.2080   -1.0690   -2.3350 C   0  0  0  0  0  0  0  0  0  0  0  0
   -2.2600   -1.2310   -1.4720 O   0  0  0  0  0  0  0  0  0  0  0  0
  1  2  1  0
  2  3  1  0
  3  4  1  0
  5  4  1  1
  5  6  1  0
  5  8  1  0
  5 22  1  0
  6  7  1  0
  9  8  1  6
  9 10  1  0
  9 19  1  0
 10 11  1  6
 10 18  1  0
 11 12  1  0
 12 13  1  0
 13 14  1  1
 13 15  1  0
 13 17  1  0
 15 16  1  0
 17 18  1  0
 19 20  1  1
 19 21  1  0
 21 22  1  0
M  END
