
     RDKit          3D

 23 25  0  0  0  0  0  0  0  0999 V2000
   -3.7190   -0.5880   -2.9740 C   0  0  0  0  0  0  0  0  0  0  0  0
   -2.7020   -0.7000   -1.9930 O   0  0  0  0  0  0  0  0  0  0  0  0
   -3.0370   -0.3510   -0.6910 C   0  0  0  0  0  0  0  0  0  0  0  0
   -4.2810    0.0890   -0.3130 C   0  0  0  0  0  0  0  0  0  0  0  0
   -4.5890    0.4310    0.9920 C   0  0  0  0  0  0  0  0  0  0  0  0
   -3.5750    0.3090    1.9180 C   0  0  0  0  0  0  0  0  0  0  0  0
   -3.8750    0.6510    3.2370 O   0  0  0  0  0  0  0  0  0  0  0  0
   -2.3100   -0.1320    1.5730 C   0  0  0  0  0  0  0  0  0  0  0  0
   -2.0490   -0.4590    0.2690 C   0  0  0  0  0  0  0  0  0  0  0  0
   -0.7330   -0.9210   -0.1110 N   0  0  0  0  0  0  0  0  0  0  0  0
    0.2810   -1.0370    0.8490 C   0  0  0  0  0  0  0  0  0  0  0  0
    1.4820   -0.6090    0.7030 C   0  0  0  0  0  0  0  0  0  0  0  0
    1.9100    0.0630   -0.5100 C   0  0  0  0  0  0  0  0  0  0  0  0
    1.0760    0.8870   -1.2090 C   0  0  0  0  0  0  0  0  0  0  0  0
    1.5350    1.5040   -2.3800 C   0  0  0  0  0  0  0  0  0  0  0  0
    2.8260    1.2670   -2.8090 C   0  0  0  0  0  0  0  0  0  0  0  0
    3.4220    2.0350   -4.2830 Cl  0  0  0  0  0  0  0  0  0  0  0  0
    3.6660    0.4250   -2.0850 C   0  0  0  0  0  0  0  0  0  0  0  0
    3.2230   -0.1720   -0.9510 C   0  0  0  0  0  0  0  0  0  0  0  0
    4.0510   -1.0510   -0.1320 C   0  0  0  0  0  0  0  0  0  0  0  0
    3.5740   -1.4840    1.0540 O   0  0  0  0  0  0  0  0  0  0  0  0
    2.6070   -0.7810    1.7080 C   0  0  1  0  0  0  0  0  0  0  0  0
    3.0320    0.5310    2.2810 C   0  0  0  0  0  0  0  0  0  0  0  0
  1  2  1  0
  2  3  1  0
  3  4  2  0
  3  9  1  0
  4  5  1  0
  5  6  2  0
  6  7  1  0
  6  8  1  0
  8  9  2  0
  9 10  1  0
 10 11  1  0
 11 12  2  3
 12 13  1  0
 12 22  1  0
 13 14  2  0
 13 19  1  0
 14 15  1  0
 15 16  2  0
 16 17  1  0
 16 18  1  0
 18 19  2  0
 19 20  1  0
 20 21  1  0
 21 22  1  0
 22 23  1  6
M  END
