
     RDKit          3D

 22 23  0  0  0  0  0  0  0  0999 V2000
   -4.3510    0.8810   -0.1670 C   0  0  0  0  0  0  0  0  0  0  0  0
   -3.5380   -0.1340    0.5590 C   0  0  2  0  0  0  0  0  0  0  0  0
   -4.3180   -0.4830    1.8560 C   0  0  0  0  0  0  0  0  0  0  0  0
   -2.1780    0.3100    0.8980 C   0  0  0  0  0  0  0  0  0  0  0  0
   -1.2080    0.6890   -0.1580 C   0  0  1  0  0  0  0  0  0  0  0  0
   -1.5980    1.8600   -0.9860 C   0  0  0  0  0  0  0  0  0  0  0  0
   -1.7820    2.9940   -0.1690 O   0  0  0  0  0  0  0  0  0  0  0  0
    0.1150    0.9930    0.5160 C   0  0  0  0  0  0  0  0  0  0  0  0
    1.0840    0.2860   -0.4410 C   0  0  1  0  0  0  0  0  0  0  0  0
    1.1710    1.1100   -1.5320 O   0  0  0  0  0  0  0  0  0  0  0  0
    2.4230    0.1500    0.1380 C   0  0  0  0  0  0  0  0  0  0  0  0
    2.6980    0.5230    1.3660 C   0  0  0  0  0  0  0  0  0  0  0  0
    4.0380    0.4070    2.0060 C   0  0  0  0  0  0  0  0  0  0  0  0
    5.0250   -0.1390    1.2040 O   0  0  0  0  0  0  0  0  0  0  0  0
    4.7600   -0.5350   -0.0900 C   0  0  0  0  0  0  0  0  0  0  0  0
    5.8080   -1.0670   -0.8170 O   0  0  0  0  0  0  0  0  0  0  0  0
    3.5370   -0.4100   -0.6200 C   0  0  0  0  0  0  0  0  0  0  0  0
    3.4170   -0.8430   -1.9200 O   0  0  0  0  0  0  0  0  0  0  0  0
    0.3000   -0.9190   -0.7170 C   0  0  1  0  0  0  0  0  0  0  0  0
    0.6600   -1.7610   -1.9090 C   0  0  0  0  0  0  0  0  0  0  0  0
    0.2200   -1.8950    0.4290 C   0  0  0  0  0  0  0  0  0  0  0  0
   -0.9820   -0.4410   -0.9610 O   0  0  0  0  0  0  0  0  0  0  0  0
  2  1  1  1
  2  3  1  0
  2  4  1  0
  5  4  1  1
  5  6  1  0
  5  8  1  0
  5 22  1  0
  6  7  1  0
  8  9  1  0
  9 10  1  6
  9 11  1  0
  9 19  1  0
 11 12  2  0
 11 17  1  0
 12 13  1  0
 13 14  1  0
 14 15  1  0
 15 16  1  0
 15 17  2  0
 17 18  1  0
 19 20  1  6
 19 21  1  0
 19 22  1  0
M  END
