
     RDKit          3D

 19 21  0  0  0  0  0  0  0  0999 V2000
    3.9600    2.0130    1.4700 C   0  0  0  0  0  0  0  0  0  0  0  0
    2.9450    1.0780    0.9420 C   0  0  0  0  0  0  0  0  0  0  0  0
    3.2860   -0.0960    0.2900 C   0  0  0  0  0  0  0  0  0  0  0  0
    2.3510   -0.9730   -0.2050 C   0  0  0  0  0  0  0  0  0  0  0  0
    2.7190   -2.2350   -0.9060 C   0  0  0  0  0  0  0  0  0  0  0  0
    1.0090   -0.7020   -0.0640 C   0  0  0  0  0  0  0  0  0  0  0  0
    0.6230    0.4630    0.5830 C   0  0  0  0  0  0  0  0  0  0  0  0
    1.5950    1.3320    1.0740 C   0  0  0  0  0  0  0  0  0  0  0  0
   -0.7600    0.7160    0.7140 N   0  0  0  0  0  0  0  0  0  0  0  0
   -1.7760    0.1430   -0.1480 C   0  0  2  0  0  0  0  0  0  0  0  0
   -1.1580   -0.7870   -1.1510 C   0  0  0  0  0  0  0  0  0  0  0  0
   -0.0260   -1.6050   -0.5740 C   0  0  0  0  0  0  0  0  0  0  0  0
   -2.4580    1.3090   -0.8470 C   0  0  0  0  0  0  0  0  0  0  0  0
   -3.8010    1.5730   -0.3070 C   0  0  0  0  0  0  0  0  0  0  0  0
   -4.2070    2.7400   -0.0760 O   0  0  0  0  0  0  0  0  0  0  0  0
   -4.7080    0.5440   -0.0180 O   0  0  0  0  0  0  0  0  0  0  0  0
   -4.1420   -0.7750   -0.0050 C   0  0  0  0  0  0  0  0  0  0  0  0
   -2.7930   -0.6260    0.6250 C   0  0  0  0  0  0  0  0  0  0  0  0
   -2.5740   -1.1200    1.7110 O   0  0  0  0  0  0  0  0  0  0  0  0
  1  2  1  0
  2  3  2  0
  2  8  1  0
  3  4  1  0
  4  5  1  0
  4  6  2  0
  6  7  1  0
  6 12  1  0
  7  8  2  0
  7  9  1  0
  9 10  1  0
 10 11  1  6
 10 13  1  0
 10 18  1  0
 11 12  1  0
 13 14  1  0
 14 15  2  0
 14 16  1  0
 16 17  1  0
 17 18  1  0
 18 19  2  0
M  END
