
     RDKit          3D

 19 20  0  0  0  0  0  0  0  0999 V2000
    4.5970   -0.5830    1.0650 C   0  0  0  0  0  0  0  0  0  0  0  0
    4.0680   -0.9600   -0.2040 O   0  0  0  0  0  0  0  0  0  0  0  0
    2.6200   -0.9220   -0.3270 C   0  0  0  0  0  0  0  0  0  0  0  0
    2.0600   -1.8850    0.3770 C   0  0  0  0  0  0  0  0  0  0  0  0
    0.5930   -2.1500    0.4810 C   0  0  0  0  0  0  0  0  0  0  0  0
   -0.1440   -1.0480    0.2430 O   0  0  0  0  0  0  0  0  0  0  0  0
   -0.9890   -1.0430   -0.8410 C   0  0  0  0  0  0  0  0  0  0  0  0
   -1.9930    0.1020   -0.6850 C   0  0  1  0  0  0  0  0  0  0  0  0
   -3.3420   -0.5450   -0.8750 C   0  0  0  0  0  0  0  0  0  0  0  0
   -4.0760   -0.3710    0.4320 C   0  0  0  0  0  0  0  0  0  0  0  0
   -3.4400    0.9080    0.9120 C   0  0  0  0  0  0  0  0  0  0  0  0
   -1.9930    0.6400    0.6550 N   0  0  0  0  0  0  0  0  0  0  0  0
   -0.8880    0.8560    1.5150 C   0  0  0  0  0  0  0  0  0  0  0  0
   -0.9830    0.1970    2.6500 O   0  0  0  0  0  0  0  0  0  0  0  0
    0.2900    1.6560    1.3680 C   0  0  0  0  0  0  0  0  0  0  0  0
    1.2050    1.8270    0.4480 C   0  0  0  0  0  0  0  0  0  0  0  0
    1.4500    1.2670   -0.8590 C   0  0  0  0  0  0  0  0  0  0  0  0
    1.0540    2.1340   -2.0550 C   0  0  0  0  0  0  0  0  0  0  0  0
    2.0530    0.0960   -1.1480 C   0  0  0  0  0  0  0  0  0  0  0  0
  1  2  1  0
  2  3  1  0
  3  4  2  0
  3 19  1  0
  4  5  1  0
  5  6  1  0
  6  7  1  0
  8  7  1  1
  8  9  1  0
  8 12  1  0
  9 10  1  0
 10 11  1  0
 11 12  1  0
 12 13  1  0
 13 14  2  0
 13 15  1  0
 15 16  2  0
 16 17  1  0
 17 18  1  0
 17 19  2  0
M  END
