
     RDKit          3D

 19 20  0  0  0  0  0  0  0  0999 V2000
   -1.0220    1.6130   -1.6300 C   0  0  0  0  0  0  0  0  0  0  0  0
   -1.7630    0.8390   -0.6530 C   0  0  0  0  0  0  0  0  0  0  0  0
   -1.1840   -0.0310    0.1630 C   0  0  0  0  0  0  0  0  0  0  0  0
    0.2370   -0.2660    0.1350 C   0  0  0  0  0  0  0  0  0  0  0  0
    0.7330   -1.3050    0.7740 C   0  0  0  0  0  0  0  0  0  0  0  0
   -0.0190   -2.3410    1.5310 C   0  0  0  0  0  0  0  0  0  0  0  0
    2.2000   -1.4900    0.9160 C   0  0  0  0  0  0  0  0  0  0  0  0
    2.6530   -2.6170    1.5890 O   0  0  0  0  0  0  0  0  0  0  0  0
    3.0270   -0.6300    0.4290 C   0  0  0  0  0  0  0  0  0  0  0  0
    2.6260    0.5690   -0.2770 C   0  0  2  0  0  0  0  0  0  0  0  0
    3.4160    0.5950   -1.5940 C   0  0  0  0  0  0  0  0  0  0  0  0
    3.1510    1.7940    0.4840 C   0  0  0  0  0  0  0  0  0  0  0  0
    1.1470    0.6980   -0.5530 C   0  0  0  0  0  0  0  0  0  0  0  0
   -1.9490   -0.5480    1.3720 C   0  0  0  0  0  0  0  0  0  0  0  0
   -1.3790   -0.3640    2.4720 O   0  0  0  0  0  0  0  0  0  0  0  0
   -3.1800   -1.1600    1.2450 O   0  0  0  0  0  0  0  0  0  0  0  0
   -4.3900   -0.6370    0.7370 C   0  0  0  0  0  0  0  0  0  0  0  0
   -4.3220    0.1450   -0.5060 C   0  0  0  0  0  0  0  0  0  0  0  0
   -3.2290    1.0220   -0.7250 N   0  0  0  0  0  0  0  0  0  0  0  0
  1  2  1  0
  2  3  2  0
  2 19  1  0
  3  4  1  0
  3 14  1  0
  4  5  2  0
  4 13  1  0
  5  6  1  0
  5  7  1  0
  7  8  1  0
  7  9  2  0
  9 10  1  0
 10 11  1  6
 10 12  1  0
 10 13  1  0
 14 15  2  0
 14 16  1  0
 16 17  1  0
 17 18  1  0
 18 19  1  0
M  END
