
     RDKit          3D

 19 21  0  0  0  0  0  0  0  0999 V2000
   -5.8030   -1.0200   -1.7150 O   0  0  0  0  0  0  0  0  0  0  0  0
   -4.6250   -0.9930   -1.2830 C   0  0  0  0  0  0  0  0  0  0  0  0
   -3.9720   -2.2540   -1.0180 C   0  0  0  0  0  0  0  0  0  0  0  0
   -2.7600   -2.2420   -0.5630 C   0  0  0  0  0  0  0  0  0  0  0  0
   -1.9560   -1.0000   -0.2810 C   0  0  0  0  0  0  0  0  0  0  0  0
   -0.6530   -1.1610    0.2820 C   0  0  0  0  0  0  0  0  0  0  0  0
   -0.3560   -2.4150    0.5900 O   0  0  0  0  0  0  0  0  0  0  0  0
    0.4260   -0.3180    0.6040 N   0  0  0  0  0  0  0  0  0  0  0  0
    1.5960   -0.7960    1.3920 C   0  0  0  0  0  0  0  0  0  0  0  0
    2.6830    0.0650    0.9250 C   0  0  0  0  0  0  0  0  0  0  0  0
    4.0630   -0.0700    1.0780 C   0  0  0  0  0  0  0  0  0  0  0  0
    4.8870    0.8930    0.5490 C   0  0  0  0  0  0  0  0  0  0  0  0
    4.3720    1.9890   -0.1300 C   0  0  0  0  0  0  0  0  0  0  0  0
    3.0140    2.1310   -0.2860 C   0  0  0  0  0  0  0  0  0  0  0  0
    2.2050    1.1430    0.2590 C   0  0  0  0  0  0  0  0  0  0  0  0
    0.6990    1.0240    0.2340 C   0  0  0  0  0  0  0  0  0  0  0  0
   -2.5980    0.1140   -0.5410 C   0  0  0  0  0  0  0  0  0  0  0  0
   -1.9110    1.3240   -0.2930 O   0  0  0  0  0  0  0  0  0  0  0  0
   -3.9810    0.2740   -1.0720 C   0  0  0  0  0  0  0  0  0  0  0  0
  1  2  2  0
  2  3  1  0
  2 19  1  0
  3  4  2  0
  4  5  1  0
  5  6  1  0
  5 17  2  0
  6  7  2  0
  6  8  1  0
  8  9  1  0
  8 16  1  0
  9 10  1  0
 10 11  2  0
 10 15  1  0
 11 12  1  0
 12 13  2  0
 13 14  1  0
 14 15  2  0
 15 16  1  0
 17 18  1  0
 17 19  1  0
M  END
