
     RDKit          3D

 19 20  0  0  0  0  0  0  0  0999 V2000
    1.5730    0.8550   -2.3960 C   0  0  0  0  0  0  0  0  0  0  0  0
    1.2140    0.4180   -1.0400 N   0  0  0  0  0  0  0  0  0  0  0  0
   -0.1970    0.1650   -0.8130 C   0  0  0  0  0  0  0  0  0  0  0  0
   -0.8690    0.3810   -1.8520 O   0  0  0  0  0  0  0  0  0  0  0  0
   -0.7910   -0.2650    0.3910 C   0  0  0  0  0  0  0  0  0  0  0  0
   -1.8950   -0.5720    0.9440 C   0  0  0  0  0  0  0  0  0  0  0  0
   -3.2960   -0.6890    0.7190 C   0  0  0  0  0  0  0  0  0  0  0  0
   -4.0720   -1.0920    1.7470 C   0  0  0  0  0  0  0  0  0  0  0  0
   -5.5320   -1.2710    1.7060 C   0  0  0  0  0  0  0  0  0  0  0  0
   -6.0710   -0.9750    0.4600 O   0  0  0  0  0  0  0  0  0  0  0  0
   -5.3200   -0.5670   -0.5960 C   0  0  0  0  0  0  0  0  0  0  0  0
   -3.9950   -0.4220   -0.5010 C   0  0  0  0  0  0  0  0  0  0  0  0
   -3.3810   -0.0010   -1.6590 O   0  0  0  0  0  0  0  0  0  0  0  0
    2.1700    0.2640   -0.0230 C   0  0  2  0  0  0  0  0  0  0  0  0
    2.8430    1.6200    0.2270 C   0  0  0  0  0  0  0  0  0  0  0  0
    3.6550    1.4780    1.4700 C   0  0  0  0  0  0  0  0  0  0  0  0
    4.5530    0.4990    1.4430 C   0  0  0  0  0  0  0  0  0  0  0  0
    4.6290   -0.3000    0.2210 C   0  0  0  0  0  0  0  0  0  0  0  0
    3.3000   -0.6840   -0.3790 C   0  0  0  0  0  0  0  0  0  0  0  0
  1  2  1  0
  2  3  1  0
 14  2  1  6
  3  4  2  0
  3  5  1  0
  5  6  2  3
  6  7  1  0
  7  8  2  0
  7 12  1  0
  8  9  1  0
  9 10  1  0
 10 11  1  0
 11 12  2  0
 12 13  1  0
 14 15  1  0
 14 19  1  0
 15 16  1  0
 16 17  2  0
 17 18  1  0
 18 19  1  0
M  END
