
     RDKit          3D

 19 21  0  0  0  0  0  0  0  0999 V2000
    4.8700   -1.5140   -1.1100 C   0  0  0  0  0  0  0  0  0  0  0  0
    4.5210   -0.6850   -0.1420 C   0  0  0  0  0  0  0  0  0  0  0  0
    5.3400    0.3100    0.3640 O   0  0  0  0  0  0  0  0  0  0  0  0
    4.6530    1.0070    1.3870 C   0  0  0  0  0  0  0  0  0  0  0  0
    3.3380    0.3190    1.4350 C   0  0  0  0  0  0  0  0  0  0  0  0
    3.2490   -0.6500    0.5670 C   0  0  0  0  0  0  0  0  0  0  0  0
    2.1120   -1.5690    0.3020 C   0  0  0  0  0  0  0  0  0  0  0  0
    0.9360   -1.2980    1.1820 C   0  0  1  0  0  0  0  0  0  0  0  0
    1.2140   -1.4290    2.5290 O   0  0  0  0  0  0  0  0  0  0  0  0
    0.2110   -0.0300    0.8600 C   0  0  0  0  0  0  0  0  0  0  0  0
   -0.9080   -0.4280   -0.0340 C   0  0  0  0  0  0  0  0  0  0  0  0
   -1.7570    0.5340   -0.8320 C   0  0  1  0  0  0  0  0  0  0  0  0
   -2.7480   -0.2710   -1.5830 C   0  0  0  0  0  0  0  0  0  0  0  0
   -3.9920    0.5650   -1.8450 C   0  0  0  0  0  0  0  0  0  0  0  0
   -4.6070    0.7780   -0.4810 C   0  0  0  0  0  0  0  0  0  0  0  0
   -3.7070    1.4930    0.4610 C   0  0  0  0  0  0  0  0  0  0  0  0
   -2.2790    1.5800    0.0580 C   0  0  0  0  0  0  0  0  0  0  0  0
   -0.9900   -1.6940    0.0170 N   0  0  0  0  0  0  0  0  0  0  0  0
   -0.0630   -2.2720    0.8430 O   0  0  0  0  0  0  0  0  0  0  0  0
  1  2  2  0
  2  3  1  0
  2  6  1  0
  3  4  1  0
  4  5  1  0
  5  6  2  0
  6  7  1  0
  7  8  1  0
  8  9  1  1
  8 10  1  0
  8 19  1  0
 10 11  1  0
 12 11  1  1
 11 18  2  0
 12 13  1  0
 12 17  1  0
 13 14  1  0
 14 15  1  0
 15 16  1  0
 16 17  1  0
 18 19  1  0
M  END
