
     RDKit          3D

 19 21  0  0  0  0  0  0  0  0999 V2000
    0.4050    3.0170    0.4630 C   0  0  0  0  0  0  0  0  0  0  0  0
   -0.5970    1.9880    0.1540 C   0  0  0  0  0  0  0  0  0  0  0  0
   -0.0950    0.7020    0.0850 C   0  0  0  0  0  0  0  0  0  0  0  0
   -0.8430   -0.4830    0.0560 C   0  0  0  0  0  0  0  0  0  0  0  0
   -0.1680   -1.6320    0.4220 C   0  0  0  0  0  0  0  0  0  0  0  0
   -0.7830   -2.8790    0.4400 C   0  0  0  0  0  0  0  0  0  0  0  0
   -2.1090   -2.9520    0.0770 C   0  0  0  0  0  0  0  0  0  0  0  0
   -2.8180   -1.8420   -0.2930 C   0  0  0  0  0  0  0  0  0  0  0  0
   -2.1810   -0.6240   -0.3000 C   0  0  0  0  0  0  0  0  0  0  0  0
   -3.0480    0.3520   -0.6930 N   0  0  0  0  0  0  0  0  0  0  0  0
   -2.9780    1.6790   -0.5630 C   0  0  0  0  0  0  0  0  0  0  0  0
   -3.9340    2.4000   -0.9400 O   0  0  0  0  0  0  0  0  0  0  0  0
   -1.9250    2.3950   -0.0350 C   0  0  0  0  0  0  0  0  0  0  0  0
   -2.1710    3.5620    0.3250 O   0  0  0  0  0  0  0  0  0  0  0  0
    1.1720   -1.5630    0.7900 O   0  0  0  0  0  0  0  0  0  0  0  0
    2.0210   -0.6020    0.1800 C   0  0  2  0  0  0  0  0  0  0  0  0
    2.4300   -1.1900   -1.1630 C   0  0  0  0  0  0  0  0  0  0  0  0
    3.2730   -0.5020    1.0120 C   0  0  0  0  0  0  0  0  0  0  0  0
    1.3770    0.7370    0.0430 C   0  0  0  0  0  0  0  0  0  0  0  0
  1  2  1  0
  2  3  2  0
  2 13  1  0
  3  4  1  0
  3 19  1  0
  4  5  2  0
  4  9  1  0
  5  6  1  0
  5 15  1  0
  6  7  2  0
  7  8  1  0
  8  9  2  0
  9 10  1  0
 10 11  1  0
 11 12  2  0
 11 13  1  0
 13 14  2  0
 15 16  1  0
 16 17  1  6
 16 18  1  0
 16 19  1  0
M  END
