
     RDKit          3D

 19 21  0  0  0  0  0  0  0  0999 V2000
   -0.1950    1.6310   -1.1140 O   0  0  0  0  0  0  0  0  0  0  0  0
    0.1290    0.6200   -0.4530 C   0  0  0  0  0  0  0  0  0  0  0  0
   -0.8770   -0.2080    0.0110 O   0  0  0  0  0  0  0  0  0  0  0  0
   -2.2520    0.0370   -0.2290 C   0  0  2  0  0  0  0  0  0  0  0  0
   -2.9150    0.3030    1.0890 C   0  0  0  0  0  0  0  0  0  0  0  0
   -4.3840    0.5670    0.8180 C   0  0  0  0  0  0  0  0  0  0  0  0
   -4.9760   -0.6800    0.2480 C   0  0  0  0  0  0  0  0  0  0  0  0
   -4.3180   -1.1750   -0.9900 C   0  0  0  0  0  0  0  0  0  0  0  0
   -2.8340   -1.0910   -1.0000 C   0  0  0  0  0  0  0  0  0  0  0  0
    1.5230    0.3240   -0.1800 C   0  0  0  0  0  0  0  0  0  0  0  0
    2.5230    1.1410   -0.6370 C   0  0  0  0  0  0  0  0  0  0  0  0
    3.8690    0.8900   -0.3950 C   0  0  0  0  0  0  0  0  0  0  0  0
    4.1610   -0.2460    0.3430 C   0  0  0  0  0  0  0  0  0  0  0  0
    3.1420   -1.0740    0.8060 C   0  0  0  0  0  0  0  0  0  0  0  0
    3.4470   -2.0880    1.4680 O   0  0  0  0  0  0  0  0  0  0  0  0
    1.8910   -0.7620    0.5320 N   0  0  0  0  0  0  0  0  0  0  0  0
    5.4550   -0.3450    0.4850 C   0  0  0  0  0  0  0  0  0  0  0  0
    6.1010    0.7930   -0.1970 C   0  0  0  0  0  0  0  0  0  0  0  0
    4.9520    1.5420   -0.7420 C   0  0  0  0  0  0  0  0  0  0  0  0
  1  2  2  0
  2  3  1  0
  2 10  1  0
  4  3  1  1
  4  5  1  0
  4  9  1  0
  5  6  1  0
  6  7  1  0
  7  8  1  0
  8  9  1  0
 10 11  2  0
 10 16  1  0
 11 12  1  0
 12 13  1  0
 12 19  2  0
 13 14  1  0
 13 17  2  0
 14 15  2  0
 14 16  1  0
 17 18  1  0
 18 19  1  0
M  END
