
     RDKit          3D

 31 32  0  0  0  0  0  0  0  0999 V2000
    6.8240   -3.2540   -1.2280 C   0  0  0  0  0  0  0  0  0  0  0  0
    7.1730   -1.8610   -1.0870 C   0  0  0  0  0  0  0  0  0  0  0  0
    6.3340   -0.9310   -0.5740 C   0  0  0  0  0  0  0  0  0  0  0  0
    6.8800    0.3850   -0.5200 C   0  0  0  0  0  0  0  0  0  0  0  0
    6.5110    1.5510   -0.1300 C   0  0  0  0  0  0  0  0  0  0  0  0
    7.3880    2.6790   -0.2490 O   0  0  0  0  0  0  0  0  0  0  0  0
    8.2070    3.2020    1.2050 P   0  0  0  0  0  0  0  0  0  0  0  0
    9.8660    3.5480    0.7680 O   0  0  0  0  0  0  0  0  0  0  0  0
    7.4740    4.7100    1.6740 O   0  0  0  0  0  0  0  0  0  0  0  0
    5.0570   -1.4810   -0.2450 C   0  0  0  0  0  0  0  0  0  0  0  0
    4.6290   -2.5590   -0.3380 O   0  0  0  0  0  0  0  0  0  0  0  0
    3.9810   -0.3250    0.3890 N   0  0  0  0  0  0  0  0  0  0  0  0
    2.7550   -1.2480    0.4410 C   0  0  0  0  0  0  0  0  0  0  0  0
    2.7050   -2.3910    0.2270 O   0  0  0  0  0  0  0  0  0  0  0  0
    1.8510   -0.2270    0.7870 N   0  0  0  0  0  0  0  0  0  0  0  0
    0.4180   -1.1430    0.5100 C   0  0  0  0  0  0  0  0  0  0  0  0
    0.6320   -2.2580    0.2060 O   0  0  0  0  0  0  0  0  0  0  0  0
   -0.7580   -0.3820    0.6870 C   0  0  0  0  0  0  0  0  0  0  0  0
   -0.8390    0.7550    1.1580 O   0  0  0  0  0  0  0  0  0  0  0  0
   -1.9720   -0.9630    0.2820 O   0  0  0  0  0  0  0  0  0  0  0  0
   -3.1920   -0.2730    0.4130 C   0  0  0  0  0  0  0  0  0  0  0  0
   -4.2360   -1.1630   -0.2190 C   0  0  0  0  0  0  0  0  0  0  0  0
   -5.5500   -0.5990   -0.1790 N   0  0  0  0  0  0  0  0  0  0  0  0
   -6.4070   -0.8950    0.9450 C   0  0  0  0  0  0  0  0  0  0  0  0
   -7.6000    0.0180    0.9190 C   0  0  1  0  0  0  0  0  0  0  0  0
   -7.1110    1.4510    0.9000 C   0  0  0  0  0  0  0  0  0  0  0  0
   -7.5490    1.9430   -0.4860 C   0  0  0  0  0  0  0  0  0  0  0  0
   -7.4670    0.6020   -1.2340 C   0  0  2  0  0  0  0  0  0  0  0  0
   -8.2670   -0.2300   -0.3620 N   0  0  0  0  0  0  0  0  0  0  0  0
   -6.0330    0.2340   -1.2190 C   0  0  0  0  0  0  0  0  0  0  0  0
   -5.2460    0.6650   -2.1370 O   0  0  0  0  0  0  0  0  0  0  0  0
  1  2  1  0
  2  3  2  3
  3  4  1  0
  3 10  1  0
  4  5  2  3
  5  6  1  0
  6  7  1  0
  7  8  1  0
  7  9  1  0
 10 11  2  0
 10 12  1  0
 12 13  1  0
 13 14  2  0
 13 15  1  0
 15 16  1  0
 16 17  2  0
 16 18  1  0
 18 19  2  0
 18 20  1  0
 20 21  1  0
 21 22  1  0
 22 23  1  0
 23 24  1  0
 23 30  1  0
 25 24  1  6
 25 26  1  0
 25 29  1  0
 26 27  1  0
 28 27  1  1
 28 29  1  0
 28 30  1  0
 30 31  2  0
M  END
