
     RDKit          3D

 31 33  0  0  0  0  0  0  0  0999 V2000
    6.0380   -0.0110   -1.3660 C   0  0  0  0  0  0  0  0  0  0  0  0
    4.5650   -0.1350   -1.3030 C   0  0  0  0  0  0  0  0  0  0  0  0
    3.8380   -0.1100   -0.1750 C   0  0  0  0  0  0  0  0  0  0  0  0
    2.3960   -0.2460   -0.3060 C   0  0  0  0  0  0  0  0  0  0  0  0
    1.7040   -0.2260    0.7270 O   0  0  0  0  0  0  0  0  0  0  0  0
    1.7140   -0.4000   -1.5260 N   0  0  0  0  0  0  0  0  0  0  0  0
    0.3280   -0.5370   -1.7310 C   0  0  0  0  0  0  0  0  0  0  0  0
   -0.6230   -0.5510   -0.8460 C   0  0  0  0  0  0  0  0  0  0  0  0
   -0.6220   -0.4440    0.5430 O   0  0  0  0  0  0  0  0  0  0  0  0
   -1.9600   -0.2270    1.0490 C   0  0  0  0  0  0  0  0  0  0  0  0
   -2.7370    0.1540   -0.1710 C   0  0  2  0  0  0  0  0  0  0  0  0
   -4.1730   -0.0530   -0.1710 C   0  0  0  0  0  0  0  0  0  0  0  0
   -4.9120    0.2890    0.8260 O   0  0  0  0  0  0  0  0  0  0  0  0
   -4.9070   -0.6390   -1.2390 N   0  0  0  0  0  0  0  0  0  0  0  0
   -6.3600   -0.5980   -1.2760 C   0  0  1  0  0  0  0  0  0  0  0  0
   -6.9550   -1.1510   -0.0450 C   0  0  0  0  0  0  0  0  0  0  0  0
   -7.5570   -0.2140    0.5810 N   0  0  0  0  0  0  0  0  0  0  0  0
   -7.4800    1.0170   -0.0580 N   0  0  0  0  0  0  0  0  0  0  0  0
   -6.7300    0.8270   -1.2430 C   0  0  0  0  0  0  0  0  0  0  0  0
   -6.4590    1.7440   -2.0780 O   0  0  0  0  0  0  0  0  0  0  0  0
   -4.1890   -1.2710   -2.2820 C   0  0  0  0  0  0  0  0  0  0  0  0
   -4.7450   -1.8220   -3.2620 O   0  0  0  0  0  0  0  0  0  0  0  0
   -2.7290   -1.2620   -2.1810 C   0  0  0  0  0  0  0  0  0  0  0  0
   -2.0670   -0.7070   -1.2190 C   0  0  0  0  0  0  0  0  0  0  0  0
    4.5710    0.0490    1.0480 C   0  0  0  0  0  0  0  0  0  0  0  0
    4.1140    0.1030    2.2510 C   0  0  0  0  0  0  0  0  0  0  0  0
    2.8200    0.0220    2.6530 O   0  0  0  0  0  0  0  0  0  0  0  0
    6.0050    0.1680    0.9840 O   0  0  0  0  0  0  0  0  0  0  0  0
    6.8360    1.2390    2.1070 P   0  0  0  0  0  0  0  0  0  0  0  0
    5.6670    2.4180    2.6480 O   0  0  0  0  0  0  0  0  0  0  0  0
    8.0280    2.1330    1.1800 O   0  0  0  0  0  0  0  0  0  0  0  0
  1  2  1  0
  2  3  2  3
  3  4  1  0
  3 25  1  0
  4  5  2  0
  4  6  1  0
  6  7  1  0
  7  8  2  3
  8  9  1  0
  8 24  1  0
  9 10  1  0
 11 10  1  1
 11 12  1  0
 11 24  1  0
 12 13  2  0
 12 14  1  0
 15 14  1  1
 14 21  1  0
 15 16  1  0
 15 19  1  0
 16 17  2  0
 17 18  1  0
 18 19  1  0
 19 20  2  0
 21 22  2  0
 21 23  1  0
 23 24  2  0
 25 26  2  3
 25 28  1  0
 26 27  1  0
 28 29  1  0
 29 30  1  0
 29 31  1  0
M  END
