
     RDKit          3D

 31 33  0  0  0  0  0  0  0  0999 V2000
   -4.7770    3.2400   -0.8470 C   0  0  0  0  0  0  0  0  0  0  0  0
   -3.8570    2.1600   -0.4380 C   0  0  0  0  0  0  0  0  0  0  0  0
   -4.3950    0.9120   -0.1470 C   0  0  0  0  0  0  0  0  0  0  0  0
   -3.5920   -0.1320    0.2380 C   0  0  0  0  0  0  0  0  0  0  0  0
   -4.1330   -1.3450    0.5170 N   0  0  0  0  0  0  0  0  0  0  0  0
   -3.3610   -2.3770    0.8930 C   0  0  0  0  0  0  0  0  0  0  0  0
   -3.8450   -3.6360    1.1900 C   0  0  0  0  0  0  0  0  0  0  0  0
   -5.0700   -3.8350    1.1060 O   0  0  0  0  0  0  0  0  0  0  0  0
   -2.9940   -4.6240    1.5620 N   0  0  0  0  0  0  0  0  0  0  0  0
   -1.6710   -4.3870    1.6460 C   0  0  0  0  0  0  0  0  0  0  0  0
   -0.9300   -5.3290    1.9930 O   0  0  0  0  0  0  0  0  0  0  0  0
   -1.1500   -3.1550    1.3610 N   0  0  0  0  0  0  0  0  0  0  0  0
   -1.9450   -2.1550    0.9910 C   0  0  0  0  0  0  0  0  0  0  0  0
   -1.4130   -0.9530    0.7150 N   0  0  0  0  0  0  0  0  0  0  0  0
   -0.0120   -0.7840    0.8260 C   0  0  0  0  0  0  0  0  0  0  0  0
    0.7470   -1.0540   -0.4470 C   0  0  2  0  0  0  0  0  0  0  0  0
    0.5610   -2.3590   -0.9010 O   0  0  0  0  0  0  0  0  0  0  0  0
    2.2240   -0.8570   -0.1910 C   0  0  2  0  0  0  0  0  0  0  0  0
    2.6900   -1.7420    0.7680 O   0  0  0  0  0  0  0  0  0  0  0  0
    2.5730    0.5750    0.1150 C   0  0  2  0  0  0  0  0  0  0  0  0
    2.0510    1.3800   -0.9050 O   0  0  0  0  0  0  0  0  0  0  0  0
    4.0710    0.8030    0.0910 C   0  0  0  0  0  0  0  0  0  0  0  0
    4.6160    0.4440   -1.1430 O   0  0  0  0  0  0  0  0  0  0  0  0
    6.2660    0.6820   -1.2090 P   0  0  1  0  0  0  0  0  0  0  0  0
    6.6650    1.0430   -2.6330 O   0  0  0  0  0  0  0  0  0  0  0  0
    6.7620    1.8990   -0.1630 O   0  0  0  0  0  0  0  0  0  0  0  0
    7.1190   -0.7410   -0.8220 O   0  0  0  0  0  0  0  0  0  0  0  0
   -2.2070    0.0640    0.3410 C   0  0  0  0  0  0  0  0  0  0  0  0
   -1.7110    1.3130    0.0440 C   0  0  0  0  0  0  0  0  0  0  0  0
   -2.5040    2.3880   -0.3490 C   0  0  0  0  0  0  0  0  0  0  0  0
   -1.9470    3.7280   -0.6650 C   0  0  0  0  0  0  0  0  0  0  0  0
  1  2  1  0
  2  3  2  0
  2 30  1  0
  3  4  1  0
  4  5  1  0
  4 28  2  0
  5  6  2  0
  6  7  1  0
  6 13  1  0
  7  8  2  0
  7  9  1  0
  9 10  1  0
 10 11  2  0
 10 12  1  0
 12 13  2  0
 13 14  1  0
 14 15  1  0
 14 28  1  0
 15 16  1  0
 16 17  1  1
 16 18  1  0
 18 19  1  1
 18 20  1  0
 20 21  1  6
 20 22  1  0
 22 23  1  0
 23 24  1  0
 24 25  2  0
 24 26  1  1
 24 27  1  0
 28 29  1  0
 29 30  2  0
 30 31  1  0
M  END
