
     RDKit          3D

 30 32  0  0  0  0  0  0  0  0999 V2000
   -5.6980   -3.7630    2.5170 O   0  0  0  0  0  0  0  0  0  0  0  0
   -4.7540   -3.9140    1.6880 C   0  0  0  0  0  0  0  0  0  0  0  0
   -4.7100   -5.1160    1.0110 O   0  0  0  0  0  0  0  0  0  0  0  0
   -3.7850   -2.9000    1.4620 N   0  0  0  0  0  0  0  0  0  0  0  0
   -2.6900   -3.1920    0.8630 C   0  0  0  0  0  0  0  0  0  0  0  0
   -2.4430   -4.4840    0.4350 O   0  0  0  0  0  0  0  0  0  0  0  0
   -1.3850   -4.7340   -0.4490 C   0  0  0  0  0  0  0  0  0  0  0  0
   -0.1780   -3.9820    0.1280 C   0  0  0  0  0  0  0  0  0  0  0  0
   -0.5240   -2.5690   -0.0360 N   0  0  0  0  0  0  0  0  0  0  0  0
   -1.6830   -2.1060    0.6360 C   0  0  0  0  0  0  0  0  0  0  0  0
   -1.9640   -0.9230    1.0340 C   0  0  0  0  0  0  0  0  0  0  0  0
   -1.2330    0.3000    0.9700 C   0  0  0  0  0  0  0  0  0  0  0  0
   -1.9460    1.3340    1.5080 N   0  0  0  0  0  0  0  0  0  0  0  0
   -1.3740    2.5550    1.5150 O   0  0  0  0  0  0  0  0  0  0  0  0
   -2.1950    3.6920    1.3630 C   0  0  0  0  0  0  0  0  0  0  0  0
   -1.4010    4.9770    1.3920 C   0  0  1  0  0  0  0  0  0  0  0  0
   -0.3570    5.1290    0.3380 C   0  0  0  0  0  0  0  0  0  0  0  0
   -1.5710    5.9720    0.2900 C   0  0  0  0  0  0  0  0  0  0  0  0
    0.0890    0.6210    0.4820 C   0  0  1  0  0  0  0  0  0  0  0  0
    1.1710   -0.0190    1.2300 C   0  0  0  0  0  0  0  0  0  0  0  0
    2.4520    0.3540    0.8270 O   0  0  0  0  0  0  0  0  0  0  0  0
    2.8890   -0.3730   -0.2750 C   0  0  0  0  0  0  0  0  0  0  0  0
    2.6420    0.4650   -1.4930 C   0  0  1  0  0  0  0  0  0  0  0  0
    3.5530    0.0920   -2.6430 C   0  0  0  0  0  0  0  0  0  0  0  0
    5.3320    0.3180   -2.1680 P   0  0  0  0  0  0  0  0  0  0  0  0
    5.9630   -1.0580   -1.3250 O   0  0  0  0  0  0  0  0  0  0  0  0
    5.4600    1.7060   -1.1360 O   0  0  0  0  0  0  0  0  0  0  0  0
    1.2290    0.4280   -1.8540 C   0  0  0  0  0  0  0  0  0  0  0  0
    0.9520    0.2380   -3.0510 O   0  0  0  0  0  0  0  0  0  0  0  0
    0.1440    0.5920   -0.9510 N   0  0  0  0  0  0  0  0  0  0  0  0
  1  2  2  0
  2  3  1  0
  2  4  1  0
  4  5  2  3
  5  6  1  0
  5 10  1  0
  6  7  1  0
  7  8  1  0
  8  9  1  0
  9 10  1  0
 10 11  2  3
 11 12  1  0
 12 13  2  3
 19 12  1  6
 13 14  1  0
 14 15  1  0
 16 15  1  6
 16 17  1  0
 16 18  1  0
 17 18  1  0
 19 20  1  0
 19 30  1  0
 20 21  1  0
 21 22  1  0
 22 23  1  0
 23 24  1  6
 23 28  1  0
 24 25  1  0
 25 26  1  0
 25 27  1  0
 28 29  2  0
 28 30  1  0
M  END
