
     RDKit          3D

 31 33  0  0  0  0  0  0  0  0999 V2000
    7.0760   -0.5290    0.7930 O   0  0  0  0  0  0  0  0  0  0  0  0
    6.2790   -1.4190    0.3300 C   0  0  0  0  0  0  0  0  0  0  0  0
    6.8650   -2.6270    0.0360 O   0  0  0  0  0  0  0  0  0  0  0  0
    4.8760   -1.0510    0.1710 C   0  0  0  0  0  0  0  0  0  0  0  0
    3.9340   -1.9360   -0.3450 C   0  0  0  0  0  0  0  0  0  0  0  0
    2.5830   -1.5700   -0.4730 C   0  0  0  0  0  0  0  0  0  0  0  0
    2.1510   -0.3280   -0.0880 C   0  0  0  0  0  0  0  0  0  0  0  0
    0.8250    0.1530   -0.0940 N   0  0  0  0  0  0  0  0  0  0  0  0
    0.1630    0.5940   -1.2710 C   0  0  0  0  0  0  0  0  0  0  0  0
    0.8270    0.4810   -2.3840 O   0  0  0  0  0  0  0  0  0  0  0  0
   -1.1600    1.1550   -1.3900 C   0  0  2  0  0  0  0  0  0  0  0  0
   -1.0700    2.6850   -1.4690 C   0  0  0  0  0  0  0  0  0  0  0  0
   -0.4920    3.0780   -0.1390 C   0  0  0  0  0  0  0  0  0  0  0  0
   -0.3420    4.8870    0.1420 P   0  0  0  0  0  0  0  0  0  0  0  0
   -0.7310    5.7900   -1.2840 O   0  0  0  0  0  0  0  0  0  0  0  0
   -1.3460    5.3920    1.4800 O   0  0  0  0  0  0  0  0  0  0  0  0
   -2.1790    0.8550   -0.5010 N   0  0  0  0  0  0  0  0  0  0  0  0
   -2.6750   -0.3790   -0.0540 C   0  0  0  0  0  0  0  0  0  0  0  0
   -1.9140   -1.3960    0.1750 N   0  0  0  0  0  0  0  0  0  0  0  0
   -2.6750   -2.5000    0.6210 C   0  0  0  0  0  0  0  0  0  0  0  0
   -2.4230   -3.7660    0.9820 N   0  0  0  0  0  0  0  0  0  0  0  0
   -3.4250   -4.6020    1.3710 C   0  0  0  0  0  0  0  0  0  0  0  0
   -3.1920   -5.7990    1.7040 O   0  0  0  0  0  0  0  0  0  0  0  0
   -4.6840   -4.2310    1.4150 O   0  0  0  0  0  0  0  0  0  0  0  0
   -5.0270   -2.9810    1.0710 C   0  0  0  0  0  0  0  0  0  0  0  0
   -6.2350   -2.6050    1.1060 O   0  0  0  0  0  0  0  0  0  0  0  0
   -4.0190   -2.0970    0.6650 C   0  0  0  0  0  0  0  0  0  0  0  0
   -4.0840   -0.7170    0.2390 C   0  0  0  0  0  0  0  0  0  0  0  0
   -5.1110    0.0420    0.1430 O   0  0  0  0  0  0  0  0  0  0  0  0
    3.0960    0.5280    0.4170 C   0  0  0  0  0  0  0  0  0  0  0  0
    4.4410    0.2090    0.5540 C   0  0  0  0  0  0  0  0  0  0  0  0
  1  2  2  0
  2  3  1  0
  2  4  1  0
  4  5  2  0
  4 31  1  0
  5  6  1  0
  6  7  2  0
  7  8  1  0
  7 30  1  0
  8  9  1  0
  9 10  2  0
  9 11  1  0
 11 12  1  1
 11 17  1  0
 12 13  1  0
 13 14  1  0
 14 15  1  0
 14 16  1  0
 17 18  1  0
 18 19  2  0
 18 28  1  0
 19 20  1  0
 20 21  1  0
 20 27  2  0
 21 22  1  0
 22 23  2  0
 22 24  1  0
 24 25  1  0
 25 26  2  0
 25 27  1  0
 27 28  1  0
 28 29  2  0
 30 31  2  0
M  END
