
     RDKit          3D

 17 17  0  0  0  0  0  0  0  0999 V2000
   -7.7100    0.2590    0.1540 O   0  0  0  0  0  0  0  0  0  0  0  0
   -6.6860   -0.0550    0.9100 O   0  0  0  0  0  0  0  0  0  0  0  0
   -6.3290   -1.3210    0.6810 O   0  0  0  0  0  0  0  0  0  0  0  0
   -5.0640   -1.3330    0.3660 O   0  0  0  0  0  0  0  0  0  0  0  0
   -4.5390   -0.0440    0.2500 C   0  0  0  0  0  0  0  0  0  0  0  0
   -3.0510   -0.1630   -0.1210 C   0  0  0  0  0  0  0  0  0  0  0  0
   -2.3750   -0.8600    0.8640 O   0  0  0  0  0  0  0  0  0  0  0  0
   -1.0370   -1.0340    0.5930 C   0  0  0  0  0  0  0  0  0  0  0  0
   -0.2770    0.2530    0.4540 C   0  0  0  0  0  0  0  0  0  0  0  0
    1.0860   -0.0400    0.1840 O   0  0  0  0  0  0  0  0  0  0  0  0
    1.7080    1.2110    0.0720 C   0  0  0  0  0  0  0  0  0  0  0  0
    3.1810    1.0250   -0.2180 C   0  0  1  0  0  0  0  0  0  0  0  0
    3.9080    0.3990    0.9380 C   0  0  0  0  0  0  0  0  0  0  0  0
    4.2080   -0.9360    0.7320 O   0  0  0  0  0  0  0  0  0  0  0  0
    4.8620   -1.2000   -0.4400 C   0  0  0  0  0  0  0  0  0  0  0  0
    4.7480   -0.0510   -1.3940 C   0  0  0  0  0  0  0  0  0  0  0  0
    3.3850    0.3270   -1.4080 O   0  0  0  0  0  0  0  0  0  0  0  0
  1  2  1  0
  2  3  1  0
  3  4  1  0
  4  5  1  0
  5  6  1  0
  6  7  1  0
  7  8  1  0
  8  9  1  0
  9 10  1  0
 10 11  1  0
 12 11  1  1
 12 13  1  0
 12 17  1  0
 13 14  1  0
 14 15  1  0
 15 16  1  0
 16 17  1  0
M  END
