
     RDKit          3D

 17 18  0  0  0  0  0  0  0  0999 V2000
    6.2220    0.5930    0.3080 O   0  0  0  0  0  0  0  0  0  0  0  0
    6.0130   -0.4060   -0.5250 O   0  0  0  0  0  0  0  0  0  0  0  0
    4.7600   -0.7370   -0.5830 O   0  0  0  0  0  0  0  0  0  0  0  0
    3.9620    0.3690   -0.2960 C   0  0  0  0  0  0  0  0  0  0  0  0
    2.4880   -0.0480   -0.3700 C   0  0  0  0  0  0  0  0  0  0  0  0
    2.3150   -1.0440    0.5670 O   0  0  0  0  0  0  0  0  0  0  0  0
    1.0380   -1.5430    0.6400 C   0  0  0  0  0  0  0  0  0  0  0  0
    0.0010   -0.4990    0.9980 C   0  0  0  0  0  0  0  0  0  0  0  0
   -1.3520   -1.2100    1.0370 C   0  0  2  0  0  0  0  0  0  0  0  0
   -1.6680   -1.7760   -0.1730 O   0  0  0  0  0  0  0  0  0  0  0  0
   -2.9710   -1.3490   -0.5010 C   0  0  0  0  0  0  0  0  0  0  0  0
   -2.9260    0.0530    0.1190 C   0  0  2  0  0  0  0  0  0  0  0  0
   -4.1680    0.6000    0.2680 O   0  0  0  0  0  0  0  0  0  0  0  0
   -4.2950    1.4800   -0.7980 C   0  0  0  0  0  0  0  0  0  0  0  0
   -2.8760    2.0580   -0.8700 C   0  0  0  0  0  0  0  0  0  0  0  0
   -2.1260    0.9090   -0.5890 O   0  0  0  0  0  0  0  0  0  0  0  0
   -2.2970   -0.2430    1.3290 O   0  0  0  0  0  0  0  0  0  0  0  0
  1  2  1  0
  2  3  1  0
  3  4  1  0
  4  5  1  0
  5  6  1  0
  6  7  1  0
  7  8  1  0
  9  8  1  6
  9 10  1  0
  9 17  1  0
 10 11  1  0
 12 11  1  6
 12 13  1  0
 12 16  1  0
 12 17  1  0
 13 14  1  0
 14 15  1  0
 15 16  1  0
M  END
