
     RDKit          3D

 17 18  0  0  0  0  0  0  0  0999 V2000
    4.5300    0.9700    0.5360 O   0  0  0  0  0  0  0  0  0  0  0  0
    4.0250    0.1340    1.5260 C   0  0  0  0  0  0  0  0  0  0  0  0
    2.5150    0.2530    1.5310 C   0  0  0  0  0  0  0  0  0  0  0  0
    2.0460   -0.1330    0.2770 O   0  0  0  0  0  0  0  0  0  0  0  0
    0.6740   -0.0530    0.1970 C   0  0  2  0  0  0  0  0  0  0  0  0
    0.0990   -1.4700    0.0760 C   0  0  0  0  0  0  0  0  0  0  0  0
   -1.3960   -1.2370   -0.1970 C   0  0  1  0  0  0  0  0  0  0  0  0
   -2.0800   -2.4090   -0.0030 O   0  0  0  0  0  0  0  0  0  0  0  0
   -1.7790   -0.2390    0.7130 O   0  0  0  0  0  0  0  0  0  0  0  0
   -3.1340    0.0610    0.6040 C   0  0  0  0  0  0  0  0  0  0  0  0
   -3.4020    1.0550    1.5450 O   0  0  0  0  0  0  0  0  0  0  0  0
   -4.6430    1.4370    1.5550 O   0  0  0  0  0  0  0  0  0  0  0  0
   -1.4640   -0.8090   -1.5110 O   0  0  0  0  0  0  0  0  0  0  0  0
   -0.8740    0.3940   -1.7390 C   0  0  2  0  0  0  0  0  0  0  0  0
   -1.7220    1.3610   -2.3250 O   0  0  0  0  0  0  0  0  0  0  0  0
    0.5350    0.4720   -2.2740 C   0  0  0  0  0  0  0  0  0  0  0  0
    0.1510    0.8610   -0.8420 C   0  0  2  0  0  0  0  0  0  0  0  0
  1  2  1  0
  2  3  1  0
  3  4  1  0
  5  4  1  6
  5  6  1  0
  5 17  1  0
  6  7  1  0
  7  8  1  6
  7  9  1  0
  7 13  1  0
  9 10  1  0
 10 11  1  0
 11 12  1  0
 13 14  1  0
 14 15  1  6
 14 16  1  0
 14 17  1  0
 17 16  1  6
M  END
