
     RDKit          3D

 21 21  0  0  0  0  0  0  0  0999 V2000
    0.7480    0.7400   -1.7000 O   0  0  0  0  0  0  0  0  0  0  0  0
    0.7350   -0.2730   -0.9790 C   0  0  0  0  0  0  0  0  0  0  0  0
    1.9070   -0.7290   -0.4310 O   0  0  0  0  0  0  0  0  0  0  0  0
    3.0940   -0.1750   -0.6030 O   0  0  0  0  0  0  0  0  0  0  0  0
    4.0100   -0.8310    0.2270 C   0  0  0  0  0  0  0  0  0  0  0  0
    5.6740   -0.0340   -0.0320 P   0  0  0  0  0  0  0  0  0  0  0  0
    5.5930    1.2490   -1.1870 O   0  0  0  0  0  0  0  0  0  0  0  0
    6.3730    0.4760    1.4640 O   0  0  0  0  0  0  0  0  0  0  0  0
   -0.5200   -1.0090   -0.6890 C   0  0  2  0  0  0  0  0  0  0  0  0
   -1.6220   -0.4600   -1.2900 O   0  0  0  0  0  0  0  0  0  0  0  0
   -2.4050    0.1440   -0.3420 C   0  0  1  0  0  0  0  0  0  0  0  0
   -2.5630    1.6070   -0.7330 C   0  0  0  0  0  0  0  0  0  0  0  0
   -3.3630    2.1900    0.2490 O   0  0  0  0  0  0  0  0  0  0  0  0
   -3.5460    3.4510   -0.0150 O   0  0  0  0  0  0  0  0  0  0  0  0
   -4.0650   -0.6600   -0.1690 P   0  0  0  0  0  0  0  0  0  0  0  0
   -4.8380   -0.0650    1.2650 O   0  0  0  0  0  0  0  0  0  0  0  0
   -3.8570   -2.3720   -0.0020 O   0  0  0  0  0  0  0  0  0  0  0  0
   -1.7470    0.0670    0.8730 O   0  0  0  0  0  0  0  0  0  0  0  0
   -0.8030   -0.9290    0.7760 C   0  0  2  0  0  0  0  0  0  0  0  0
    0.3120   -0.5280    1.5180 O   0  0  0  0  0  0  0  0  0  0  0  0
   -1.2430   -2.1530    1.2740 O   0  0  0  0  0  0  0  0  0  0  0  0
  1  2  2  0
  2  3  1  0
  9  2  1  1
  3  4  1  0
  4  5  1  0
  5  6  1  0
  6  7  1  0
  6  8  1  0
  9 10  1  0
  9 19  1  0
 10 11  1  0
 11 12  1  6
 11 15  1  0
 11 18  1  0
 12 13  1  0
 13 14  1  0
 15 16  1  0
 15 17  1  0
 18 19  1  0
 19 20  1  1
 19 21  1  0
M  END
