
     RDKit          3D

 17 18  0  0  0  0  0  0  0  0999 V2000
   -2.1250   -3.1490    0.5950 O   0  0  0  0  0  0  0  0  0  0  0  0
   -1.8710   -2.0210    0.4630 C   0  0  0  0  0  0  0  0  0  0  0  0
   -2.1390   -0.8210    1.0380 O   0  0  0  0  0  0  0  0  0  0  0  0
   -2.1440    0.1650    0.0100 C   0  0  1  0  0  0  0  0  0  0  0  0
   -3.6010    0.5140   -0.2930 C   0  0  0  0  0  0  0  0  0  0  0  0
   -3.6900    1.9620    0.0700 C   0  0  0  0  0  0  0  0  0  0  0  0
   -2.6430    2.2490    0.9150 O   0  0  0  0  0  0  0  0  0  0  0  0
   -1.5750    1.4960    0.4400 C   0  0  0  0  0  0  0  0  0  0  0  0
   -1.4550   -0.3610   -1.0220 O   0  0  0  0  0  0  0  0  0  0  0  0
   -0.9190   -1.5990   -0.6410 C   0  0  1  0  0  0  0  0  0  0  0  0
    0.4030   -1.3890    0.0640 C   0  0  0  0  0  0  0  0  0  0  0  0
    1.2630   -0.6150   -0.8240 O   0  0  0  0  0  0  0  0  0  0  0  0
    2.2690   -0.1250   -0.2330 C   0  0  0  0  0  0  0  0  0  0  0  0
    3.5870   -0.7650    0.0060 C   0  0  0  0  0  0  0  0  0  0  0  0
    4.1840    0.2900    0.7920 O   0  0  0  0  0  0  0  0  0  0  0  0
    5.0640    0.9860    0.3560 O   0  0  0  0  0  0  0  0  0  0  0  0
    5.7860    0.9770   -0.6330 O   0  0  0  0  0  0  0  0  0  0  0  0
  1  2  2  0
  2  3  1  0
  2 10  1  0
  3  4  1  0
  4  5  1  6
  4  8  1  0
  4  9  1  0
  5  6  1  0
  6  7  1  0
  7  8  1  0
  9 10  1  0
 10 11  1  1
 11 12  1  0
 12 13  1  0
 13 14  1  0
 14 15  1  0
 15 16  1  0
 16 17  1  0
M  END
