
     RDKit          3D

 17 17  0  0  0  0  0  0  0  0999 V2000
    2.6630    1.7500    0.9480 O   0  0  0  0  0  0  0  0  0  0  0  0
    2.7400    0.8980    0.0440 C   0  0  0  0  0  0  0  0  0  0  0  0
    1.5640    0.2930   -0.5290 O   0  0  0  0  0  0  0  0  0  0  0  0
    0.3940    0.7240    0.0850 C   0  0  0  0  0  0  0  0  0  0  0  0
   -0.8050    0.2600   -0.5980 C   0  0  0  0  0  0  0  0  0  0  0  0
   -1.9810    0.6520    0.3540 C   0  0  0  0  0  0  0  0  0  0  0  0
   -3.2490    0.2920   -0.2250 C   0  0  2  0  0  0  0  0  0  0  0  0
   -4.3110    0.7420    0.6490 O   0  0  0  0  0  0  0  0  0  0  0  0
   -3.6460   -1.2060   -0.2550 C   0  0  0  0  0  0  0  0  0  0  0  0
   -4.8630   -0.9960   -1.0100 O   0  0  0  0  0  0  0  0  0  0  0  0
   -5.9700   -1.2110   -0.4000 O   0  0  0  0  0  0  0  0  0  0  0  0
    4.0770    0.5120   -0.4300 C   0  0  2  0  0  0  0  0  0  0  0  0
    4.0280   -0.8360   -0.8410 O   0  0  0  0  0  0  0  0  0  0  0  0
    4.6540   -1.5550    0.1720 C   0  0  0  0  0  0  0  0  0  0  0  0
    5.0190   -0.7250    1.2350 O   0  0  0  0  0  0  0  0  0  0  0  0
    5.0410    0.5790    0.6660 C   0  0  0  0  0  0  0  0  0  0  0  0
    5.7490    1.4870    1.0730 O   0  0  0  0  0  0  0  0  0  0  0  0
  1  2  2  0
  2  3  1  0
 12  2  1  1
  3  4  1  0
  4  5  1  0
  5  6  1  0
  6  7  1  0
  7  8  1  1
  7  9  1  0
  9 10  1  0
 10 11  1  0
 12 13  1  0
 12 16  1  0
 13 14  1  0
 14 15  1  0
 15 16  1  0
 16 17  2  0
M  END
