
     RDKit          3D

 17 17  0  0  0  0  0  0  0  0999 V2000
    3.5210    0.2200    2.0270 O   0  0  0  0  0  0  0  0  0  0  0  0
    3.1810    0.4670    0.8500 C   0  0  0  0  0  0  0  0  0  0  0  0
    3.9800    1.3210    0.1080 O   0  0  0  0  0  0  0  0  0  0  0  0
    5.1540    1.9150    0.6380 C   0  0  0  0  0  0  0  0  0  0  0  0
    5.7200    2.7140   -0.3610 O   0  0  0  0  0  0  0  0  0  0  0  0
    1.9610   -0.1620    0.3260 C   0  0  1  0  0  0  0  0  0  0  0  0
    2.2650   -1.1920   -0.7580 C   0  0  0  0  0  0  0  0  0  0  0  0
    1.0270   -1.8770   -0.7630 O   0  0  0  0  0  0  0  0  0  0  0  0
    0.5760   -1.8710    0.5310 C   0  0  2  0  0  0  0  0  0  0  0  0
   -0.8930   -1.4270    0.6160 C   0  0  0  0  0  0  0  0  0  0  0  0
   -0.9840   -0.1610    0.1030 O   0  0  0  0  0  0  0  0  0  0  0  0
   -2.2150    0.4230    0.0970 C   0  0  0  0  0  0  0  0  0  0  0  0
   -3.2230   -0.3510   -0.7100 C   0  0  0  0  0  0  0  0  0  0  0  0
   -4.5660    0.3910   -0.6590 C   0  0  0  0  0  0  0  0  0  0  0  0
   -5.4690   -0.3410   -1.4060 O   0  0  0  0  0  0  0  0  0  0  0  0
   -6.6470    0.2340   -1.4100 O   0  0  0  0  0  0  0  0  0  0  0  0
    1.3340   -0.9790    1.2650 O   0  0  0  0  0  0  0  0  0  0  0  0
  1  2  2  0
  2  3  1  0
  6  2  1  1
  3  4  1  0
  4  5  1  0
  6  7  1  0
  6 17  1  0
  7  8  1  0
  8  9  1  0
  9 10  1  6
  9 17  1  0
 10 11  1  0
 11 12  1  0
 12 13  1  0
 13 14  1  0
 14 15  1  0
 15 16  1  0
M  END
