
     RDKit          3D

 38 41  0  0  0  0  0  0  0  0999 V2000
   -3.6860    1.0800   -1.7950 C   0  0  0  0  0  0  0  0  0  0  0  0
   -3.4810    0.8810   -0.3090 C   0  0  1  0  0  0  0  0  0  0  0  0
   -4.6010    0.0870    0.2520 C   0  0  0  0  0  0  0  0  0  0  0  0
   -5.8510    0.8380    0.0130 N   0  0  0  0  0  0  0  0  0  0  0  0
   -7.0920    0.2850    0.4570 C   0  0  0  0  0  0  0  0  0  0  0  0
   -7.0620   -0.8200    1.0360 O   0  0  0  0  0  0  0  0  0  0  0  0
   -8.3110    0.9640    0.2490 N   0  0  0  0  0  0  0  0  0  0  0  0
   -9.5760    0.5070    0.6420 C   0  0  0  0  0  0  0  0  0  0  0  0
   -9.9270   -0.5770    1.2530 C   0  0  0  0  0  0  0  0  0  0  0  0
  -11.3170   -0.7600    1.5160 C   0  0  0  0  0  0  0  0  0  0  0  0
  -12.1240    0.1950    1.1100 C   0  0  0  0  0  0  0  0  0  0  0  0
  -11.0670    1.3760    0.3620 S   0  0  1  0  0  0  0  0  0  0  0  0
  -11.1010    2.6800    1.0780 O   0  0  0  0  0  0  0  0  0  0  0  0
  -11.3540    1.5180   -1.1040 O   0  0  0  0  0  0  0  0  0  0  0  0
   -2.0940    0.5110    0.0700 C   0  0  0  0  0  0  0  0  0  0  0  0
   -1.5280   -0.7250   -0.5090 C   0  0  2  0  0  0  0  0  0  0  0  0
   -2.3030   -1.9690   -0.1500 C   0  0  0  0  0  0  0  0  0  0  0  0
   -1.4550   -3.1610    0.1840 C   0  0  0  0  0  0  0  0  0  0  0  0
   -0.2800   -3.3770   -0.7050 C   0  0  0  0  0  0  0  0  0  0  0  0
    0.4590   -2.1090   -1.0030 C   0  0  0  0  0  0  0  0  0  0  0  0
   -0.0400   -0.9300   -0.1620 C   0  0  2  0  0  0  0  0  0  0  0  0
    0.1550   -1.2230    1.1680 O   0  0  0  0  0  0  0  0  0  0  0  0
    0.8080    0.2420   -0.5510 C   0  0  0  0  0  0  0  0  0  0  0  0
    2.2560    0.0810   -0.2020 C   0  0  0  0  0  0  0  0  0  0  0  0
    2.5730   -0.8740    0.5250 O   0  0  0  0  0  0  0  0  0  0  0  0
    3.1300    1.0480   -0.7430 N   0  0  0  0  0  0  0  0  0  0  0  0
    4.5220    1.0110   -0.4890 C   0  0  0  0  0  0  0  0  0  0  0  0
    5.0980    0.2880    0.5080 C   0  0  0  0  0  0  0  0  0  0  0  0
    6.4770    0.2910    0.6610 C   0  0  0  0  0  0  0  0  0  0  0  0
    7.2890    1.0080   -0.1690 C   0  0  0  0  0  0  0  0  0  0  0  0
    8.6450    1.0350   -0.0520 O   0  0  0  0  0  0  0  0  0  0  0  0
    9.4610    0.3850    0.8690 C   0  0  2  0  0  0  0  0  0  0  0  0
   10.3180    1.3640    1.6550 C   0  0  0  0  0  0  0  0  0  0  0  0
   11.6600    1.1930    0.9770 C   0  0  0  0  0  0  0  0  0  0  0  0
   11.7220   -0.1360    0.5950 O   0  0  0  0  0  0  0  0  0  0  0  0
   10.4710   -0.5240    0.1710 C   0  0  0  0  0  0  0  0  0  0  0  0
    6.6820    1.7320   -1.1700 C   0  0  0  0  0  0  0  0  0  0  0  0
    5.3240    1.7530   -1.3510 C   0  0  0  0  0  0  0  0  0  0  0  0
  2  1  1  6
  2  3  1  0
  2 15  1  0
  3  4  1  0
  4  5  1  0
  5  6  2  0
  5  7  1  0
  7  8  1  0
  8  9  2  0
  8 12  1  0
  9 10  1  0
 10 11  2  0
 12 11  1  1
 12 13  2  0
 12 14  2  0
 16 15  1  1
 16 17  1  0
 16 21  1  0
 17 18  1  0
 18 19  1  0
 19 20  1  0
 20 21  1  0
 21 22  1  1
 21 23  1  0
 23 24  1  0
 24 25  2  0
 24 26  1  0
 26 27  1  0
 27 28  2  0
 27 38  1  0
 28 29  1  0
 29 30  2  0
 30 31  1  0
 30 37  1  0
 32 31  1  6
 32 33  1  0
 32 36  1  0
 33 34  1  0
 34 35  1  0
 35 36  1  0
 37 38  2  0
M  END
