
     RDKit          3D

 38 41  0  0  0  0  0  0  0  0999 V2000
   10.5690   -2.5020   -1.0720 C   0  0  0  0  0  0  0  0  0  0  0  0
    9.9570   -1.3580   -1.6000 O   0  0  0  0  0  0  0  0  0  0  0  0
    8.7150   -0.9170   -1.1610 C   0  0  0  0  0  0  0  0  0  0  0  0
    8.0070   -1.5610   -0.1890 C   0  0  0  0  0  0  0  0  0  0  0  0
    6.7720   -1.0920    0.2240 C   0  0  0  0  0  0  0  0  0  0  0  0
    6.2150    0.0400   -0.3310 C   0  0  0  0  0  0  0  0  0  0  0  0
    5.0040    0.5310    0.0500 O   0  0  0  0  0  0  0  0  0  0  0  0
    4.1750   -0.0340    1.0360 C   0  0  0  0  0  0  0  0  0  0  0  0
    2.9140    0.7620    1.2060 C   0  0  0  0  0  0  0  0  0  0  0  0
    2.7910    1.7760    0.4720 O   0  0  0  0  0  0  0  0  0  0  0  0
    1.9280    0.3820    2.1420 N   0  0  0  0  0  0  0  0  0  0  0  0
    1.9680   -0.7650    3.0290 C   0  0  0  0  0  0  0  0  0  0  0  0
    0.5210   -1.2530    3.0950 C   0  0  0  0  0  0  0  0  0  0  0  0
   -0.2480   -0.2000    2.2690 C   0  0  0  0  0  0  0  0  0  0  0  0
    0.6380    1.0100    2.4700 C   0  0  2  0  0  0  0  0  0  0  0  0
    0.3530    2.1570    1.5780 C   0  0  0  0  0  0  0  0  0  0  0  0
   -1.1670    3.0000    1.9280 S   0  0  0  0  0  0  0  0  0  0  0  0
   -2.6730    2.1890    1.6440 C   0  0  0  0  0  0  0  0  0  0  0  0
   -3.2010    2.1870    0.3560 C   0  0  0  0  0  0  0  0  0  0  0  0
   -4.4070    1.6100    0.0260 C   0  0  0  0  0  0  0  0  0  0  0  0
   -5.1320    1.0010    1.0210 C   0  0  0  0  0  0  0  0  0  0  0  0
   -6.3780    0.3680    0.7480 N   0  0  0  0  0  0  0  0  0  0  0  0
   -6.5480   -0.9100    0.1090 C   0  0  2  0  0  0  0  0  0  0  0  0
   -6.0090   -0.9150   -1.2650 C   0  0  0  0  0  0  0  0  0  0  0  0
   -6.8610   -0.0720   -2.1730 C   0  0  1  0  0  0  0  0  0  0  0  0
   -6.1680    0.1860   -3.4660 C   0  0  0  0  0  0  0  0  0  0  0  0
   -6.7530   -0.1590   -4.5190 O   0  0  0  0  0  0  0  0  0  0  0  0
   -4.9310    0.7770   -3.5580 O   0  0  0  0  0  0  0  0  0  0  0  0
   -8.1230   -0.7000   -2.3640 N   0  0  0  0  0  0  0  0  0  0  0  0
   -8.4700   -1.6000   -1.3320 C   0  0  0  0  0  0  0  0  0  0  0  0
   -8.0550   -1.1780    0.0420 C   0  0  1  0  0  0  0  0  0  0  0  0
   -8.3690   -2.2240    0.9190 O   0  0  0  0  0  0  0  0  0  0  0  0
   -4.6410    0.9770    2.3360 C   0  0  0  0  0  0  0  0  0  0  0  0
   -3.4320    1.5670    2.6170 C   0  0  0  0  0  0  0  0  0  0  0  0
    6.9330    0.6880   -1.3120 C   0  0  0  0  0  0  0  0  0  0  0  0
    8.1720    0.2310   -1.7380 C   0  0  0  0  0  0  0  0  0  0  0  0
    8.8990    0.8690   -2.7170 O   0  0  0  0  0  0  0  0  0  0  0  0
    8.4700    2.0340   -3.3800 C   0  0  0  0  0  0  0  0  0  0  0  0
  1  2  1  0
  2  3  1  0
  3  4  2  0
  3 36  1  0
  4  5  1  0
  5  6  2  0
  6  7  1  0
  6 35  1  0
  7  8  1  0
  8  9  1  0
  9 10  2  0
  9 11  1  0
 11 12  1  0
 11 15  1  0
 12 13  1  0
 13 14  1  0
 14 15  1  0
 15 16  1  6
 16 17  1  0
 17 18  1  0
 18 19  2  0
 18 34  1  0
 19 20  1  0
 20 21  2  0
 21 22  1  0
 21 33  1  0
 23 22  1  6
 23 24  1  0
 23 31  1  0
 24 25  1  0
 25 26  1  6
 25 29  1  0
 26 27  2  0
 26 28  1  0
 29 30  1  0
 30 31  1  0
 31 32  1  1
 33 34  2  0
 35 36  2  0
 36 37  1  0
 37 38  1  0
M  END
