
     RDKit          3D

 37 40  0  0  0  0  0  0  0  0999 V2000
   -9.1670    1.9350    1.8980 C   0  0  0  0  0  0  0  0  0  0  0  0
   -7.9890    2.4360    1.5900 C   0  0  0  0  0  0  0  0  0  0  0  0
   -6.8470    2.2210    2.5050 C   0  0  0  0  0  0  0  0  0  0  0  0
   -5.7740    1.5300    1.8960 O   0  0  0  0  0  0  0  0  0  0  0  0
   -5.9270    0.2570    1.3690 C   0  0  0  0  0  0  0  0  0  0  0  0
   -7.0420   -0.2800    1.4360 O   0  0  0  0  0  0  0  0  0  0  0  0
   -4.7950   -0.4750    0.7290 C   0  0  2  0  0  0  0  0  0  0  0  0
   -5.2370   -1.6990    0.2100 N   0  0  0  0  0  0  0  0  0  0  0  0
   -6.2210   -1.7640   -0.7780 C   0  0  0  0  0  0  0  0  0  0  0  0
   -5.9180   -1.2730   -2.1530 C   0  0  0  0  0  0  0  0  0  0  0  0
   -3.8600   -0.7370    1.9480 C   0  0  0  0  0  0  0  0  0  0  0  0
   -2.2430   -0.8330    1.1480 S   0  0  0  0  0  0  0  0  0  0  0  0
   -2.7700   -0.3880   -0.5570 C   0  0  2  0  0  0  0  0  0  0  0  0
   -1.7690    0.4390   -1.2550 C   0  0  2  0  0  0  0  0  0  0  0  0
   -2.2900    0.7170   -2.6740 C   0  0  0  0  0  0  0  0  0  0  0  0
   -1.2140    0.7720   -3.6450 N   0  0  0  0  0  0  0  0  0  0  0  0
   -0.4790   -0.4720   -3.7780 C   0  0  0  0  0  0  0  0  0  0  0  0
   -0.4450   -1.1940   -2.4320 C   0  0  0  0  0  0  0  0  0  0  0  0
   -0.4420   -0.2170   -1.4030 N   0  0  0  0  0  0  0  0  0  0  0  0
    0.5520    0.2580   -0.6030 C   0  0  0  0  0  0  0  0  0  0  0  0
    0.1930    1.0950    0.3590 O   0  0  0  0  0  0  0  0  0  0  0  0
    1.9840    0.0180   -0.6040 C   0  0  0  0  0  0  0  0  0  0  0  0
    2.6210   -0.7380   -1.4770 C   0  0  0  0  0  0  0  0  0  0  0  0
    3.9860   -0.9340   -1.4310 O   0  0  0  0  0  0  0  0  0  0  0  0
    4.8300   -0.3390   -0.4420 C   0  0  0  0  0  0  0  0  0  0  0  0
    6.0820   -0.6220   -0.5370 C   0  0  0  0  0  0  0  0  0  0  0  0
    7.2610   -0.2980    0.1620 C   0  0  0  0  0  0  0  0  0  0  0  0
    7.4780    0.4110    1.1520 O   0  0  0  0  0  0  0  0  0  0  0  0
    8.4710   -0.8830   -0.3350 O   0  0  0  0  0  0  0  0  0  0  0  0
    9.7020   -0.5980    0.3190 C   0  0  0  0  0  0  0  0  0  0  0  0
    9.7130   -1.0100    1.7540 C   0  0  1  0  0  0  0  0  0  0  0  0
   10.9750   -0.7490    2.5240 C   0  0  0  0  0  0  0  0  0  0  0  0
    9.7550    0.0930    2.8090 C   0  0  0  0  0  0  0  0  0  0  0  0
    4.1490    0.4820    0.5050 C   0  0  0  0  0  0  0  0  0  0  0  0
    4.8920    1.1800    1.6010 C   0  0  0  0  0  0  0  0  0  0  0  0
    2.8400    0.6340    0.4150 C   0  0  0  0  0  0  0  0  0  0  0  0
   -4.0180    0.4000   -0.1770 C   0  0  0  0  0  0  0  0  0  0  0  0
  1  2  2  0
  2  3  1  0
  3  4  1  0
  4  5  1  0
  5  6  2  0
  5  7  1  0
  7  8  1  6
  7 11  1  0
  7 37  1  0
  8  9  1  0
  9 10  1  0
 11 12  1  0
 12 13  1  0
 13 14  1  0
 13 37  1  1
 14 15  1  6
 14 19  1  0
 15 16  1  0
 16 17  1  0
 17 18  1  0
 18 19  1  0
 19 20  1  0
 20 21  2  0
 20 22  1  0
 22 23  2  0
 22 36  1  0
 23 24  1  0
 24 25  1  0
 25 26  2  3
 25 34  1  0
 26 27  1  0
 27 28  2  0
 27 29  1  0
 29 30  1  0
 31 30  1  6
 31 32  1  0
 31 33  1  0
 32 33  1  0
 34 35  1  0
 34 36  2  0
M  CHG  1  16   1
M  END
