
     RDKit          3D

 38 39  0  0  0  0  0  0  0  0999 V2000
    8.6270    3.3660    0.9610 C   0  0  0  0  0  0  0  0  0  0  0  0
    7.6460    2.4410    1.6520 C   0  0  0  0  0  0  0  0  0  0  0  0
    6.5250    2.2180    0.8280 O   0  0  0  0  0  0  0  0  0  0  0  0
    5.4960    1.3920    1.2730 C   0  0  0  0  0  0  0  0  0  0  0  0
    5.5790    0.7950    2.5220 C   0  0  0  0  0  0  0  0  0  0  0  0
    4.5590   -0.0230    2.9610 C   0  0  0  0  0  0  0  0  0  0  0  0
    3.4670   -0.2540    2.1850 C   0  0  0  0  0  0  0  0  0  0  0  0
    3.3890    0.3430    0.9430 C   0  0  0  0  0  0  0  0  0  0  0  0
    2.1960    0.0800    0.1150 C   0  0  0  0  0  0  0  0  0  0  0  0
    1.2990   -0.7970    0.7700 O   0  0  0  0  0  0  0  0  0  0  0  0
    0.1330   -1.1250    0.0950 C   0  0  0  0  0  0  0  0  0  0  0  0
   -0.9280   -0.3890    0.2710 C   0  0  0  0  0  0  0  0  0  0  0  0
   -2.2250   -0.5980   -0.3670 C   0  0  2  0  0  0  0  0  0  0  0  0
   -3.3020   -0.6350    0.6670 C   0  0  1  0  0  0  0  0  0  0  0  0
   -3.0810   -1.6670    1.6050 O   0  0  0  0  0  0  0  0  0  0  0  0
   -3.7390    0.6190    1.2820 C   0  0  0  0  0  0  0  0  0  0  0  0
   -4.6940    0.4680    2.4280 C   0  0  0  0  0  0  0  0  0  0  0  0
   -5.0630   -0.8380    2.8540 N   0  0  0  0  0  0  0  0  0  0  0  0
   -5.1220    1.4990    2.9560 O   0  0  0  0  0  0  0  0  0  0  0  0
   -3.4470    1.8410    0.9470 C   0  0  0  0  0  0  0  0  0  0  0  0
   -2.6310    2.3130   -0.1020 N   0  0  0  0  0  0  0  0  0  0  0  0
   -4.0240    2.8610    1.7410 O   0  0  0  0  0  0  0  0  0  0  0  0
   -4.3850    4.1170    1.2790 C   0  0  0  0  0  0  0  0  0  0  0  0
   -5.4110    4.1270    0.1840 C   0  0  0  0  0  0  0  0  0  0  0  0
   -5.6850    5.4450   -0.1890 O   0  0  0  0  0  0  0  0  0  0  0  0
   -2.3010   -1.8070   -1.2880 C   0  0  1  0  0  0  0  0  0  0  0  0
   -2.8310   -1.3880   -2.6360 C   0  0  0  0  0  0  0  0  0  0  0  0
   -2.9960   -2.4960   -3.5690 C   0  0  0  0  0  0  0  0  0  0  0  0
   -3.3060   -2.2220   -4.9610 N   0  0  0  0  0  0  0  0  0  0  0  0
   -2.8820   -3.6840   -3.2220 O   0  0  0  0  0  0  0  0  0  0  0  0
   -1.0540   -2.5700   -1.4260 C   0  0  0  0  0  0  0  0  0  0  0  0
    0.0640   -2.2910   -0.8160 C   0  0  0  0  0  0  0  0  0  0  0  0
    1.2540   -2.9940   -0.9270 O   0  0  0  0  0  0  0  0  0  0  0  0
    1.5010   -4.0890   -1.6680 C   0  0  0  0  0  0  0  0  0  0  0  0
    0.6380   -4.6320   -2.3830 O   0  0  0  0  0  0  0  0  0  0  0  0
    2.7780   -4.7160   -1.6900 O   0  0  0  0  0  0  0  0  0  0  0  0
    3.0060   -5.8600   -2.4740 C   0  0  0  0  0  0  0  0  0  0  0  0
    4.3930    1.1610    0.4840 C   0  0  0  0  0  0  0  0  0  0  0  0
  1  2  1  0
  2  3  1  0
  3  4  1  0
  4  5  2  0
  4 38  1  0
  5  6  1  0
  6  7  2  0
  7  8  1  0
  8  9  1  0
  8 38  2  0
  9 10  1  0
 10 11  1  0
 11 12  2  0
 11 32  1  0
 13 12  1  1
 13 14  1  0
 13 26  1  0
 14 15  1  1
 14 16  1  0
 16 17  1  0
 16 20  2  3
 17 18  1  0
 17 19  2  0
 20 21  1  0
 20 22  1  0
 22 23  1  0
 23 24  1  0
 24 25  1  0
 26 27  1  6
 26 31  1  0
 27 28  1  0
 28 29  1  0
 28 30  2  0
 31 32  2  0
 32 33  1  0
 33 34  1  0
 34 35  2  0
 34 36  1  0
 36 37  1  0
M  END
