
     RDKit          3D

 37 40  0  0  0  0  0  0  0  0999 V2000
   -7.4650    3.1730   -1.5320 C   0  0  0  0  0  0  0  0  0  0  0  0
   -6.1120    2.5910   -1.7940 C   0  0  0  0  0  0  0  0  0  0  0  0
   -5.3220    2.3950   -0.5430 C   0  0  0  0  0  0  0  0  0  0  0  0
   -5.8390    1.4280    0.4520 C   0  0  2  0  0  0  0  0  0  0  0  0
   -7.2120    1.7020    1.0200 C   0  0  0  0  0  0  0  0  0  0  0  0
   -4.9160    1.4490    1.6640 C   0  0  0  0  0  0  0  0  0  0  0  0
   -3.5480    1.0500    1.2640 C   0  0  0  0  0  0  0  0  0  0  0  0
   -2.6400    1.9630    0.8500 O   0  0  0  0  0  0  0  0  0  0  0  0
   -1.5190    1.4100    0.5510 C   0  0  0  0  0  0  0  0  0  0  0  0
   -0.2950    1.8870    0.0900 C   0  0  0  0  0  0  0  0  0  0  0  0
   -0.1420    3.1310   -0.1200 O   0  0  0  0  0  0  0  0  0  0  0  0
    0.7530    1.0810   -0.1480 N   0  0  0  0  0  0  0  0  0  0  0  0
    0.6620   -0.2400    0.0530 C   0  0  0  0  0  0  0  0  0  0  0  0
    1.7400   -1.1910   -0.1310 C   0  0  0  0  0  0  0  0  0  0  0  0
    1.5930   -2.4150    0.1180 O   0  0  0  0  0  0  0  0  0  0  0  0
    2.9990   -0.7700   -0.5920 N   0  0  0  0  0  0  0  0  0  0  0  0
    4.1110   -1.7320   -0.7440 C   0  0  1  0  0  0  0  0  0  0  0  0
    4.2040   -1.9920   -2.2450 C   0  0  0  0  0  0  0  0  0  0  0  0
    5.3150   -1.0590   -0.2060 C   0  0  0  0  0  0  0  0  0  0  0  0
    5.2350    0.1610    0.0190 O   0  0  0  0  0  0  0  0  0  0  0  0
    6.5440   -1.7170    0.0700 N   0  0  0  0  0  0  0  0  0  0  0  0
    7.7510   -1.1670    0.5650 C   0  0  0  0  0  0  0  0  0  0  0  0
    8.5320   -0.2230   -0.2520 C   0  0  1  0  0  0  0  0  0  0  0  0
    7.9060    1.0710   -0.6510 C   0  0  0  0  0  0  0  0  0  0  0  0
    8.8980    1.9910   -1.0820 O   0  0  0  0  0  0  0  0  0  0  0  0
    9.6010    2.4770    0.0200 C   0  0  0  0  0  0  0  0  0  0  0  0
    9.5780    1.3680    1.0730 C   0  0  0  0  0  0  0  0  0  0  0  0
    9.6810    0.1230    0.5120 O   0  0  0  0  0  0  0  0  0  0  0  0
   -0.5450   -0.7400    0.5090 C   0  0  0  0  0  0  0  0  0  0  0  0
   -1.6100    0.0580    0.7520 C   0  0  0  0  0  0  0  0  0  0  0  0
   -2.9300   -0.1690    1.2140 C   0  0  0  0  0  0  0  0  0  0  0  0
   -3.5250   -1.7500    1.6120 S   0  0  0  0  0  0  0  0  0  0  0  0
   -4.1040   -2.8370    0.3620 C   0  0  1  0  0  0  0  0  0  0  0  0
   -4.3300   -4.1900    1.0510 C   0  0  0  0  0  0  0  0  0  0  0  0
   -5.6030   -4.3160    1.3740 C   0  0  0  0  0  0  0  0  0  0  0  0
   -6.3680   -3.1040    0.9550 C   0  0  0  0  0  0  0  0  0  0  0  0
   -5.4760   -2.6360   -0.2030 C   0  0  0  0  0  0  0  0  0  0  0  0
  1  2  1  0
  2  3  1  0
  3  4  1  0
  4  5  1  1
  4  6  1  0
  6  7  1  0
  7  8  1  0
  7 31  2  0
  8  9  1  0
  9 10  1  0
  9 30  2  0
 10 11  2  0
 10 12  1  0
 12 13  1  0
 13 14  1  0
 13 29  2  0
 14 15  2  0
 14 16  1  0
 16 17  1  0
 17 18  1  6
 17 19  1  0
 19 20  2  0
 19 21  1  0
 21 22  1  0
 23 22  1  1
 23 24  1  0
 23 28  1  0
 24 25  1  0
 25 26  1  0
 26 27  1  0
 27 28  1  0
 29 30  1  0
 30 31  1  0
 31 32  1  0
 33 32  1  1
 33 34  1  0
 33 37  1  0
 34 35  2  0
 35 36  1  0
 36 37  1  0
M  END
