
     RDKit          3D

 38 41  0  0  0  0  0  0  0  0999 V2000
   -1.2310   -3.3580   -1.4090 C   0  0  0  0  0  0  0  0  0  0  0  0
   -0.1590   -2.7560   -0.5920 C   0  0  0  0  0  0  0  0  0  0  0  0
   -0.4290   -2.2040    0.7450 C   0  0  2  0  0  0  0  0  0  0  0  0
   -0.9990   -3.3970    1.6190 C   0  0  0  0  0  0  0  0  0  0  0  0
   -1.4530   -1.1600    0.8480 C   0  0  0  0  0  0  0  0  0  0  0  0
   -2.8600   -1.5130    0.5100 C   0  0  0  0  0  0  0  0  0  0  0  0
   -3.2420   -2.6860    0.4630 O   0  0  0  0  0  0  0  0  0  0  0  0
   -3.8030   -0.4680    0.2300 N   0  0  0  0  0  0  0  0  0  0  0  0
   -5.1540   -0.6490   -0.1060 C   0  0  0  0  0  0  0  0  0  0  0  0
   -5.7280   -1.8930   -0.3320 C   0  0  0  0  0  0  0  0  0  0  0  0
   -7.0770   -1.9560   -0.6930 C   0  0  0  0  0  0  0  0  0  0  0  0
   -7.8650   -0.8450   -0.8350 C   0  0  0  0  0  0  0  0  0  0  0  0
   -7.2550    0.3830   -0.6010 C   0  0  0  0  0  0  0  0  0  0  0  0
   -5.9310    0.5080   -0.2420 C   0  0  0  0  0  0  0  0  0  0  0  0
   -5.3770    1.7730    0.0250 N   0  0  0  0  0  0  0  0  0  0  0  0
   -6.1960    2.9560   -0.3100 C   0  0  2  0  0  0  0  0  0  0  0  0
   -6.3140    3.0720   -1.8030 C   0  0  0  0  0  0  0  0  0  0  0  0
   -6.1520    4.5510   -1.4240 C   0  0  0  0  0  0  0  0  0  0  0  0
   -5.4940    4.1350   -0.2780 O   0  0  0  0  0  0  0  0  0  0  0  0
    0.8400   -1.8750    1.4930 C   0  0  2  0  0  0  0  0  0  0  0  0
    0.3970   -1.3770    2.7440 O   0  0  0  0  0  0  0  0  0  0  0  0
    1.8180   -1.0020    0.8860 C   0  0  0  0  0  0  0  0  0  0  0  0
    1.7810   -0.1280   -0.0550 C   0  0  0  0  0  0  0  0  0  0  0  0
    2.9680    0.5720   -0.3980 C   0  0  0  0  0  0  0  0  0  0  0  0
    4.0660    0.2820    0.2920 C   0  0  0  0  0  0  0  0  0  0  0  0
    5.3710    0.8580    0.1260 C   0  0  0  0  0  0  0  0  0  0  0  0
    6.4470    0.6350    0.7960 C   0  0  0  0  0  0  0  0  0  0  0  0
    6.7000   -0.2350    1.9130 C   0  0  0  0  0  0  0  0  0  0  0  0
    5.9490   -1.0000    2.5790 O   0  0  0  0  0  0  0  0  0  0  0  0
    8.1060   -0.1010    2.2190 N   0  0  0  0  0  0  0  0  0  0  0  0
    8.6550    0.8140    1.3150 C   0  0  0  0  0  0  0  0  0  0  0  0
    7.7560    1.2740    0.4730 C   0  0  0  0  0  0  0  0  0  0  0  0
    8.0530    2.2440   -0.5770 C   0  0  0  0  0  0  0  0  0  0  0  0
    7.2330    2.7060   -1.3950 O   0  0  0  0  0  0  0  0  0  0  0  0
    9.3690    2.7300   -0.7160 O   0  0  0  0  0  0  0  0  0  0  0  0
    9.7020    3.6590   -1.7050 C   0  0  0  0  0  0  0  0  0  0  0  0
    3.5730   -1.0070    1.3690 S   0  0  0  0  0  0  0  0  0  0  0  0
    4.1760   -2.2970    0.6900 O   0  0  0  0  0  0  0  0  0  0  0  0
  1  2  1  0
  2  3  1  0
  3  4  1  1
  3  5  1  0
  3 20  1  0
  5  6  1  0
  6  7  2  0
  6  8  1  0
  8  9  1  0
  9 10  2  0
  9 14  1  0
 10 11  1  0
 11 12  2  0
 12 13  1  0
 13 14  2  0
 14 15  1  0
 16 15  1  6
 16 17  1  0
 16 19  1  0
 17 18  1  0
 18 19  1  0
 20 21  1  1
 20 22  1  0
 22 23  2  0
 37 22  1  6
 23 24  1  0
 24 25  2  0
 25 26  1  0
 25 37  1  0
 26 27  2  3
 27 28  1  0
 27 32  1  0
 28 29  2  0
 28 30  1  0
 30 31  1  0
 31 32  2  0
 32 33  1  0
 33 34  2  0
 33 35  1  0
 35 36  1  0
 37 38  2  0
M  END
