
     RDKit          3D

 38 41  0  0  0  0  0  0  0  0999 V2000
   -4.5470   -1.1860    3.8310 C   0  0  0  0  0  0  0  0  0  0  0  0
   -5.5460   -0.3140    3.1280 C   0  0  0  0  0  0  0  0  0  0  0  0
   -5.3380   -0.3720    1.6160 C   0  0  0  0  0  0  0  0  0  0  0  0
   -6.3880    0.5250    0.9960 C   0  0  1  0  0  0  0  0  0  0  0  0
   -6.3830    0.6330   -0.5340 C   0  0  1  0  0  0  0  0  0  0  0  0
   -5.2560    0.0800   -1.1860 N   0  0  0  0  0  0  0  0  0  0  0  0
   -4.6110    0.7740   -2.2570 C   0  0  0  0  0  0  0  0  0  0  0  0
   -5.1160    1.8660   -2.5560 O   0  0  0  0  0  0  0  0  0  0  0  0
   -3.4460    0.2510   -2.9550 C   0  0  0  0  0  0  0  0  0  0  0  0
   -2.7150    1.2380   -3.7590 C   0  0  0  0  0  0  0  0  0  0  0  0
   -2.0050    2.3580   -3.0950 C   0  0  1  0  0  0  0  0  0  0  0  0
   -2.7360    3.3340   -2.2730 C   0  0  0  0  0  0  0  0  0  0  0  0
   -0.9040    1.7660   -2.3860 O   0  0  0  0  0  0  0  0  0  0  0  0
    0.3990    1.9590   -2.7720 C   0  0  0  0  0  0  0  0  0  0  0  0
    0.6120    2.6760   -3.7810 O   0  0  0  0  0  0  0  0  0  0  0  0
    1.5360    1.3580   -2.0470 C   0  0  0  0  0  0  0  0  0  0  0  0
    1.5770    0.5810   -0.9650 C   0  0  0  0  0  0  0  0  0  0  0  0
    2.7570    0.1560   -0.4930 C   0  0  0  0  0  0  0  0  0  0  0  0
    3.8840    0.5510   -1.1610 C   0  0  0  0  0  0  0  0  0  0  0  0
    5.3140    0.2800   -0.9330 C   0  0  0  0  0  0  0  0  0  0  0  0
    6.1670    0.7600   -1.7050 O   0  0  0  0  0  0  0  0  0  0  0  0
    5.7480   -0.5130    0.1430 N   0  0  0  0  0  0  0  0  0  0  0  0
    7.0530   -0.8680    0.4940 C   0  0  0  0  0  0  0  0  0  0  0  0
    8.1540   -0.6920   -0.3000 C   0  0  0  0  0  0  0  0  0  0  0  0
    9.4430   -1.0560    0.1270 C   0  0  0  0  0  0  0  0  0  0  0  0
    9.6750   -1.6070    1.3600 C   0  0  0  0  0  0  0  0  0  0  0  0
    8.5590   -1.7880    2.1700 C   0  0  0  0  0  0  0  0  0  0  0  0
    7.3060   -1.4330    1.7520 C   0  0  0  0  0  0  0  0  0  0  0  0
    8.8110   -2.3750    3.4900 C   0  0  0  0  0  0  0  0  0  0  0  0
    7.8100   -2.5460    4.2360 O   0  0  0  0  0  0  0  0  0  0  0  0
   10.1100   -2.7180    3.8750 O   0  0  0  0  0  0  0  0  0  0  0  0
   11.1430   -1.9330    3.2850 C   0  0  0  0  0  0  0  0  0  0  0  0
   11.0380   -1.9780    1.7760 C   0  0  0  0  0  0  0  0  0  0  0  0
    3.2340    1.5490   -2.4890 S   0  0  0  0  0  0  0  0  0  0  0  0
   -7.4420   -0.1570    0.1100 C   0  0  1  0  0  0  0  0  0  0  0  0
   -7.4110   -1.5320    0.1790 O   0  0  0  0  0  0  0  0  0  0  0  0
   -8.7590    0.4320    0.2470 N   0  0  0  0  0  0  0  0  0  0  0  0
   -9.6780   -0.1910   -0.6900 C   0  0  0  0  0  0  0  0  0  0  0  0
  1  2  1  0
  2  3  1  0
  4  3  1  6
  4  5  1  0
  4 35  1  0
  5  6  1  6
  5 35  1  0
  6  7  1  0
  7  8  2  0
  7  9  1  0
  9 10  1  0
 10 11  1  0
 11 12  1  1
 11 13  1  0
 13 14  1  0
 14 15  2  0
 14 16  1  0
 16 17  2  0
 16 34  1  0
 17 18  1  0
 18 19  2  0
 19 20  1  0
 19 34  1  0
 20 21  2  0
 20 22  1  0
 22 23  1  0
 23 24  2  0
 23 28  1  0
 24 25  1  0
 25 26  2  0
 26 27  1  0
 26 33  1  0
 27 28  2  0
 27 29  1  0
 29 30  2  0
 29 31  1  0
 31 32  1  0
 32 33  1  0
 35 36  1  6
 35 37  1  0
 37 38  1  0
M  END
