
     RDKit          3D

 45 49  0  0  0  0  0  0  0  0999 V2000
   -7.2300    2.1400    2.0400 C   0  0  0  0  0  0  0  0  0  0  0  0
   -7.0820    0.8680    2.7950 C   0  0  0  0  0  0  0  0  0  0  0  0
   -8.2330    0.2350    3.1800 C   0  0  0  0  0  0  0  0  0  0  0  0
   -8.2100   -0.9420    3.8860 C   0  0  0  0  0  0  0  0  0  0  0  0
   -6.9640   -1.4600    4.1910 C   0  0  0  0  0  0  0  0  0  0  0  0
   -5.7970   -0.8340    3.8120 C   0  0  0  0  0  0  0  0  0  0  0  0
   -4.5020   -1.4450    4.2460 C   0  0  0  0  0  0  0  0  0  0  0  0
   -5.8200    0.3370    3.1080 C   0  0  0  0  0  0  0  0  0  0  0  0
   -4.7400    1.0370    2.6860 O   0  0  0  0  0  0  0  0  0  0  0  0
   -4.0400    1.1550    1.5280 C   0  0  0  0  0  0  0  0  0  0  0  0
   -3.4370   -0.0250    0.9000 C   0  0  0  0  0  0  0  0  0  0  0  0
   -3.6450   -1.1710    1.3320 O   0  0  0  0  0  0  0  0  0  0  0  0
   -2.5730    0.1050   -0.2520 N   0  0  0  0  0  0  0  0  0  0  0  0
   -1.9640   -1.0350   -0.8990 C   0  0  1  0  0  0  0  0  0  0  0  0
   -2.3980   -1.1090   -2.3090 C   0  0  0  0  0  0  0  0  0  0  0  0
   -2.0900    0.0550   -3.1530 C   0  0  0  0  0  0  0  0  0  0  0  0
   -2.9860    1.1200   -3.2360 C   0  0  0  0  0  0  0  0  0  0  0  0
   -2.7090    2.2070   -4.0360 C   0  0  0  0  0  0  0  0  0  0  0  0
   -1.5160    2.2070   -4.7520 C   0  0  0  0  0  0  0  0  0  0  0  0
   -0.6310    1.1500   -4.6680 C   0  0  0  0  0  0  0  0  0  0  0  0
   -0.9180    0.0690   -3.8660 C   0  0  0  0  0  0  0  0  0  0  0  0
   -0.4930   -1.0540   -0.6220 C   0  0  2  0  0  0  0  0  0  0  0  0
    0.1390    0.0510   -1.0800 O   0  0  0  0  0  0  0  0  0  0  0  0
    0.1420   -2.3530   -0.8290 C   0  0  0  0  0  0  0  0  0  0  0  0
   -0.7110   -3.3300   -0.8650 O   0  0  0  0  0  0  0  0  0  0  0  0
    1.4820   -2.7100   -0.9910 N   0  0  0  0  0  0  0  0  0  0  0  0
    1.8090   -4.1500   -1.3350 C   0  0  0  0  0  0  0  0  0  0  0  0
    2.7610   -3.7540   -2.8690 S   0  0  0  0  0  0  0  0  0  0  0  0
    3.4350   -2.1340   -2.2610 C   0  0  2  0  0  0  0  0  0  0  0  0
    3.0230   -1.0190   -3.1590 C   0  0  0  0  0  0  0  0  0  0  0  0
    4.9420   -2.2680   -2.1880 C   0  0  0  0  0  0  0  0  0  0  0  0
    2.7780   -2.1320   -0.9050 C   0  0  1  0  0  0  0  0  0  0  0  0
    2.9800   -0.9600   -0.0750 C   0  0  0  0  0  0  0  0  0  0  0  0
    2.1730   -0.7550    0.8920 O   0  0  0  0  0  0  0  0  0  0  0  0
    3.9910    0.0180   -0.2000 N   0  0  0  0  0  0  0  0  0  0  0  0
    4.0910    1.1660    0.7120 C   0  0  1  0  0  0  0  0  0  0  0  0
    5.2680    1.0390    1.5900 C   0  0  0  0  0  0  0  0  0  0  0  0
    5.6180    0.1570    2.5930 C   0  0  0  0  0  0  0  0  0  0  0  0
    6.7950    0.2360    3.2900 C   0  0  0  0  0  0  0  0  0  0  0  0
    7.6900    1.2500    2.9850 C   0  0  0  0  0  0  0  0  0  0  0  0
    7.3790    2.1430    1.9990 C   0  0  0  0  0  0  0  0  0  0  0  0
    6.1670    2.0350    1.3040 C   0  0  0  0  0  0  0  0  0  0  0  0
    5.6900    2.9110    0.2270 C   0  0  0  0  0  0  0  0  0  0  0  0
    4.3450    2.3780   -0.1350 C   0  0  1  0  0  0  0  0  0  0  0  0
    4.3690    2.0730   -1.5130 O   0  0  0  0  0  0  0  0  0  0  0  0
  1  2  1  0
  2  3  2  0
  2  8  1  0
  3  4  1  0
  4  5  2  0
  5  6  1  0
  6  7  1  0
  6  8  2  0
  8  9  1  0
  9 10  1  0
 10 11  1  0
 11 12  2  0
 11 13  1  0
 13 14  1  0
 14 15  1  6
 14 22  1  0
 15 16  1  0
 16 17  2  0
 16 21  1  0
 17 18  1  0
 18 19  2  0
 19 20  1  0
 20 21  2  0
 22 23  1  6
 22 24  1  0
 24 25  2  0
 24 26  1  0
 26 27  1  0
 26 32  1  0
 27 28  1  0
 28 29  1  0
 29 30  1  6
 29 31  1  0
 29 32  1  0
 32 33  1  6
 33 34  2  0
 33 35  1  0
 36 35  1  6
 36 37  1  0
 36 44  1  0
 37 38  2  0
 37 42  1  0
 38 39  1  0
 39 40  2  0
 40 41  1  0
 41 42  2  0
 42 43  1  0
 43 44  1  0
 44 45  1  6
M  END
