
     RDKit          3D

 45 49  0  0  0  0  0  0  0  0999 V2000
   -6.7500   -3.8900    0.1430 C   0  0  0  0  0  0  0  0  0  0  0  0
   -6.9230   -2.5880   -0.5910 C   0  0  0  0  0  0  0  0  0  0  0  0
   -6.6270   -1.3690    0.3160 C   0  0  1  0  0  0  0  0  0  0  0  0
   -5.2000   -1.5790    0.6910 C   0  0  0  0  0  0  0  0  0  0  0  0
   -4.2020   -0.8580    0.2480 C   0  0  0  0  0  0  0  0  0  0  0  0
   -4.4450    0.2590   -0.6520 C   0  0  0  0  0  0  0  0  0  0  0  0
   -5.7080    0.5420   -0.9520 C   0  0  0  0  0  0  0  0  0  0  0  0
   -6.8120   -0.1560   -0.4090 N   0  0  0  0  0  0  0  0  0  0  0  0
   -8.1380    0.4370   -0.4640 C   0  0  0  0  0  0  0  0  0  0  0  0
   -8.3100    1.7670   -0.8270 C   0  0  0  0  0  0  0  0  0  0  0  0
   -9.5300    2.4040   -0.8600 C   0  0  0  0  0  0  0  0  0  0  0  0
  -10.6630    1.6940   -0.5110 C   0  0  0  0  0  0  0  0  0  0  0  0
  -12.2710    2.5100   -0.5300 S   0  0  0  0  0  0  0  0  0  0  0  0
  -10.5220    0.3770   -0.1480 C   0  0  0  0  0  0  0  0  0  0  0  0
   -9.2650   -0.2500   -0.1240 C   0  0  0  0  0  0  0  0  0  0  0  0
   -3.1390    0.8210   -0.9380 C   0  0  0  0  0  0  0  0  0  0  0  0
   -2.9480    1.7980   -1.6860 O   0  0  0  0  0  0  0  0  0  0  0  0
   -2.1060    0.0680   -0.2190 C   0  0  0  0  0  0  0  0  0  0  0  0
   -2.7430   -0.9220    0.4800 C   0  0  0  0  0  0  0  0  0  0  0  0
   -1.7970   -1.5680    1.1500 N   0  0  0  0  0  0  0  0  0  0  0  0
   -0.5650   -1.0180    0.9040 C   0  0  0  0  0  0  0  0  0  0  0  0
    0.6760   -1.5050    1.5820 C   0  0  0  0  0  0  0  0  0  0  0  0
   -0.7060    0.0220    0.0400 C   0  0  0  0  0  0  0  0  0  0  0  0
    0.1830    0.9830   -0.5450 C   0  0  0  0  0  0  0  0  0  0  0  0
   -0.3220    2.0800   -1.0270 O   0  0  0  0  0  0  0  0  0  0  0  0
    1.6090    0.8990   -0.6690 C   0  0  0  0  0  0  0  0  0  0  0  0
    2.3650   -0.2400   -0.7540 C   0  0  0  0  0  0  0  0  0  0  0  0
    3.7620   -0.2060   -0.8120 C   0  0  0  0  0  0  0  0  0  0  0  0
    4.4160    0.9890   -0.7880 C   0  0  0  0  0  0  0  0  0  0  0  0
    5.9300    1.0490   -0.7930 C   0  0  1  0  0  0  0  0  0  0  0  0
    6.3000    0.5810   -2.2050 C   0  0  0  0  0  0  0  0  0  0  0  0
    6.2710    2.4290   -0.6230 N   0  0  0  0  0  0  0  0  0  0  0  0
    6.0420    3.1550    0.5350 C   0  0  0  0  0  0  0  0  0  0  0  0
    5.5140    2.6940    1.5550 O   0  0  0  0  0  0  0  0  0  0  0  0
    6.4400    4.5050    0.5280 O   0  0  0  0  0  0  0  0  0  0  0  0
    6.2500    5.3550    1.6440 C   0  0  0  0  0  0  0  0  0  0  0  0
    6.4230    0.1330    0.2220 C   0  0  0  0  0  0  0  0  0  0  0  0
    6.3510    0.3690    1.4360 O   0  0  0  0  0  0  0  0  0  0  0  0
    7.0190   -1.0690   -0.1400 O   0  0  0  0  0  0  0  0  0  0  0  0
    7.5020   -1.9590    0.8630 C   0  0  0  0  0  0  0  0  0  0  0  0
    8.1930   -3.1010    0.1670 C   0  0  1  0  0  0  0  0  0  0  0  0
    9.3950   -2.4480   -0.5510 C   0  0  0  0  0  0  0  0  0  0  0  0
    8.6740   -4.0490    1.0770 O   0  0  0  0  0  0  0  0  0  0  0  0
    3.6800    2.1260   -0.7100 C   0  0  0  0  0  0  0  0  0  0  0  0
    2.3220    2.1280   -0.6480 C   0  0  0  0  0  0  0  0  0  0  0  0
  1  2  1  0
  3  2  1  6
  3  4  1  0
  3  8  1  0
  4  5  2  0
  5  6  1  0
  5 19  1  0
  6  7  2  0
  6 16  1  0
  7  8  1  0
  8  9  1  0
  9 10  2  0
  9 15  1  0
 10 11  1  0
 11 12  2  0
 12 13  1  0
 12 14  1  0
 14 15  2  0
 16 17  2  0
 16 18  1  0
 18 19  2  0
 18 23  1  0
 19 20  1  0
 20 21  1  0
 21 22  1  0
 21 23  2  0
 23 24  1  0
 24 25  2  0
 24 26  1  0
 26 27  2  0
 26 45  1  0
 27 28  1  0
 28 29  2  0
 29 30  1  0
 29 44  1  0
 30 31  1  6
 30 32  1  0
 30 37  1  0
 32 33  1  0
 33 34  2  0
 33 35  1  0
 35 36  1  0
 37 38  2  0
 37 39  1  0
 39 40  1  0
 40 41  1  0
 41 42  1  1
 41 43  1  0
 44 45  2  0
M  END
