
     RDKit          3D

 45 49  0  0  0  0  0  0  0  0999 V2000
    8.4490   -4.6700    1.0160 C   0  0  0  0  0  0  0  0  0  0  0  0
    7.1570   -3.9490    0.8380 C   0  0  0  0  0  0  0  0  0  0  0  0
    7.0830   -2.7060    0.2590 C   0  0  0  0  0  0  0  0  0  0  0  0
    5.8400   -2.0730    0.1170 C   0  0  0  0  0  0  0  0  0  0  0  0
    4.6680   -2.6610    0.5410 C   0  0  0  0  0  0  0  0  0  0  0  0
    3.3810   -2.1180    0.4200 N   0  0  0  0  0  0  0  0  0  0  0  0
    2.9660   -1.1430   -0.5200 C   0  0  0  0  0  0  0  0  0  0  0  0
    3.5870   -0.9600   -1.7260 C   0  0  0  0  0  0  0  0  0  0  0  0
    3.1590    0.0300   -2.5990 C   0  0  0  0  0  0  0  0  0  0  0  0
    2.1170    0.8350   -2.2720 C   0  0  0  0  0  0  0  0  0  0  0  0
    1.4960    0.6490   -1.0620 C   0  0  0  0  0  0  0  0  0  0  0  0
    0.3440    1.5370   -0.6910 C   0  0  2  0  0  0  0  0  0  0  0  0
    0.6990    2.3320    0.5670 C   0  0  0  0  0  0  0  0  0  0  0  0
    1.9060    3.1710    0.3130 C   0  0  0  0  0  0  0  0  0  0  0  0
    2.4640    3.1540   -0.7950 O   0  0  0  0  0  0  0  0  0  0  0  0
    2.3940    3.9810    1.3630 N   0  0  0  0  0  0  0  0  0  0  0  0
    3.5070    4.8340    1.3280 C   0  0  0  0  0  0  0  0  0  0  0  0
    3.7700    5.6290    2.4440 C   0  0  0  0  0  0  0  0  0  0  0  0
    4.8400    6.4910    2.5050 C   0  0  0  0  0  0  0  0  0  0  0  0
    5.6680    6.5610    1.4270 C   0  0  0  0  0  0  0  0  0  0  0  0
    5.4690    5.8130    0.3060 C   0  0  0  0  0  0  0  0  0  0  0  0
    4.3710    4.9520    0.2880 C   0  0  0  0  0  0  0  0  0  0  0  0
   -0.8780    0.7480   -0.4870 C   0  0  0  0  0  0  0  0  0  0  0  0
   -1.4670    0.7500    0.6110 O   0  0  0  0  0  0  0  0  0  0  0  0
   -1.3760    0.0020   -1.5190 O   0  0  0  0  0  0  0  0  0  0  0  0
   -2.5460   -0.7980   -1.4460 C   0  0  0  0  0  0  0  0  0  0  0  0
   -3.7400   -0.0010   -1.1180 C   0  0  0  0  0  0  0  0  0  0  0  0
   -3.5610    1.2290   -0.9270 O   0  0  0  0  0  0  0  0  0  0  0  0
   -5.0420   -0.5310   -1.0140 N   0  0  0  0  0  0  0  0  0  0  0  0
   -5.2830   -1.9200   -1.1820 C   0  0  0  0  0  0  0  0  0  0  0  0
   -5.3030   -2.7730    0.0200 C   0  0  1  0  0  0  0  0  0  0  0  0
   -5.4300   -4.2630   -0.3420 C   0  0  0  0  0  0  0  0  0  0  0  0
   -5.1150   -4.9220    0.9730 C   0  0  0  0  0  0  0  0  0  0  0  0
   -4.4980   -3.7770    1.7570 C   0  0  0  0  0  0  0  0  0  0  0  0
   -4.1570   -2.8110    0.7910 O   0  0  0  0  0  0  0  0  0  0  0  0
   -6.1330    0.4260   -0.7260 C   0  0  1  0  0  0  0  0  0  0  0  0
   -5.8980    1.0540    0.5580 C   0  0  0  0  0  0  0  0  0  0  0  0
   -6.0300    2.5200    0.5650 C   0  0  0  0  0  0  0  0  0  0  0  0
   -6.9080    2.8570   -0.9430 S   0  0  1  0  0  0  0  0  0  0  0  0
   -8.3920    2.8050   -0.7180 O   0  0  0  0  0  0  0  0  0  0  0  0
   -6.4590    4.1060   -1.6060 O   0  0  0  0  0  0  0  0  0  0  0  0
   -6.3570    1.3960   -1.8240 C   0  0  0  0  0  0  0  0  0  0  0  0
    1.9050   -0.3170   -0.1980 C   0  0  0  0  0  0  0  0  0  0  0  0
    4.8120   -3.9220    1.1200 C   0  0  0  0  0  0  0  0  0  0  0  0
    5.9980   -4.5670    1.2760 C   0  0  0  0  0  0  0  0  0  0  0  0
  1  2  1  0
  2  3  2  0
  2 45  1  0
  3  4  1  0
  4  5  2  0
  5  6  1  0
  5 44  1  0
  6  7  1  0
  7  8  2  0
  7 43  1  0
  8  9  1  0
  9 10  2  0
 10 11  1  0
 11 12  1  0
 11 43  2  0
 12 13  1  1
 12 23  1  0
 13 14  1  0
 14 15  2  0
 14 16  1  0
 16 17  1  0
 17 18  2  0
 17 22  1  0
 18 19  1  0
 19 20  2  0
 20 21  1  0
 21 22  2  0
 23 24  2  0
 23 25  1  0
 25 26  1  0
 26 27  1  0
 27 28  2  0
 27 29  1  0
 29 30  1  0
 36 29  1  6
 31 30  1  6
 31 32  1  0
 31 35  1  0
 32 33  1  0
 33 34  1  0
 34 35  1  0
 36 37  1  0
 36 42  1  0
 37 38  1  0
 39 38  1  1
 39 40  2  0
 39 41  2  0
 39 42  1  0
 44 45  2  0
M  END
