
     RDKit          3D

 45 49  0  0  0  0  0  0  0  0999 V2000
  -10.7250   -2.5750    3.8500 C   0  0  0  0  0  0  0  0  0  0  0  0
   -9.6180   -1.7360    3.3600 N   0  0  0  0  0  0  0  0  0  0  0  0
   -9.2190   -1.8350    2.0160 C   0  0  0  0  0  0  0  0  0  0  0  0
   -9.8750   -2.6760    1.3030 O   0  0  0  0  0  0  0  0  0  0  0  0
   -8.1460   -1.0590    1.4380 C   0  0  0  0  0  0  0  0  0  0  0  0
   -7.3030   -0.1590    2.0020 C   0  0  0  0  0  0  0  0  0  0  0  0
   -7.2610    0.2740    3.4260 C   0  0  0  0  0  0  0  0  0  0  0  0
   -6.4580    0.3050    1.0230 N   0  0  0  0  0  0  0  0  0  0  0  0
   -6.7280   -0.2630   -0.1420 C   0  0  0  0  0  0  0  0  0  0  0  0
   -6.0570   -0.0420   -1.4130 C   0  0  0  0  0  0  0  0  0  0  0  0
   -6.3440   -0.6660   -2.4540 O   0  0  0  0  0  0  0  0  0  0  0  0
   -5.0000    0.9300   -1.5420 N   0  0  0  0  0  0  0  0  0  0  0  0
   -4.3270    1.1490   -2.8000 C   0  0  2  0  0  0  0  0  0  0  0  0
   -2.8370    1.0580   -2.5510 C   0  0  0  0  0  0  0  0  0  0  0  0
   -1.8730    1.8690   -3.0680 C   0  0  0  0  0  0  0  0  0  0  0  0
   -0.6460    1.4080   -2.5610 C   0  0  0  0  0  0  0  0  0  0  0  0
   -0.9200    0.3420   -1.7610 C   0  0  0  0  0  0  0  0  0  0  0  0
   -0.0820   -0.5360   -0.9760 C   0  0  0  0  0  0  0  0  0  0  0  0
    1.1470   -0.7010   -0.7440 C   0  0  0  0  0  0  0  0  0  0  0  0
    2.3370   -0.0560   -1.1830 C   0  0  0  0  0  0  0  0  0  0  0  0
    2.3170    0.8950   -1.9880 O   0  0  0  0  0  0  0  0  0  0  0  0
    3.6910   -0.4740   -0.7100 C   0  0  0  0  0  0  0  0  0  0  0  0
    3.8670   -1.4570    0.2030 C   0  0  0  0  0  0  0  0  0  0  0  0
    5.1640   -1.8170    0.6070 C   0  0  0  0  0  0  0  0  0  0  0  0
    6.2750   -1.1920    0.0960 C   0  0  0  0  0  0  0  0  0  0  0  0
    7.6050   -1.5560    0.5140 C   0  0  0  0  0  0  0  0  0  0  0  0
    7.7030   -2.4590    1.4120 O   0  0  0  0  0  0  0  0  0  0  0  0
    8.7680   -1.0240    0.0390 O   0  0  0  0  0  0  0  0  0  0  0  0
   10.0550   -1.3970    0.4750 C   0  0  0  0  0  0  0  0  0  0  0  0
   10.2040   -1.0860    1.9650 C   0  0  2  0  0  0  0  0  0  0  0  0
   10.0110    0.3750    2.2270 C   0  0  0  0  0  0  0  0  0  0  0  0
   11.4100    0.4580    2.7620 C   0  0  0  0  0  0  0  0  0  0  0  0
   11.6310   -0.9770    2.4220 C   0  0  2  0  0  0  0  0  0  0  0  0
   12.6020   -1.2410    1.4830 O   0  0  0  0  0  0  0  0  0  0  0  0
    6.0810   -0.2020   -0.8250 C   0  0  0  0  0  0  0  0  0  0  0  0
    7.2400    0.4980   -1.4130 C   0  0  0  0  0  0  0  0  0  0  0  0
    4.8150    0.1550   -1.2250 C   0  0  0  0  0  0  0  0  0  0  0  0
   -2.2570    0.1910   -1.8050 O   0  0  0  0  0  0  0  0  0  0  0  0
   -4.5620    2.5340   -3.3120 C   0  0  0  0  0  0  0  0  0  0  0  0
   -4.5370    3.7160   -2.6960 C   0  0  0  0  0  0  0  0  0  0  0  0
   -4.7900    4.8370   -3.3910 C   0  0  0  0  0  0  0  0  0  0  0  0
   -5.0690    4.7170   -4.7320 C   0  0  0  0  0  0  0  0  0  0  0  0
   -4.9580    2.9340   -4.9690 S   0  0  0  0  0  0  0  0  0  0  0  0
   -7.7720   -1.1200    0.0660 C   0  0  0  0  0  0  0  0  0  0  0  0
   -8.4830   -2.0120   -0.9090 C   0  0  0  0  0  0  0  0  0  0  0  0
  1  2  1  0
  2  3  1  0
  3  4  2  0
  3  5  1  0
  5  6  2  0
  5 44  1  0
  6  7  1  0
  6  8  1  0
  8  9  1  0
  9 10  1  0
  9 44  2  0
 10 11  2  0
 10 12  1  0
 13 12  1  1
 13 14  1  0
 13 39  1  0
 14 15  2  0
 14 38  1  0
 15 16  1  0
 16 17  2  0
 17 18  1  0
 17 38  1  0
 18 19  2  3
 19 20  1  0
 20 21  2  0
 20 22  1  0
 22 23  2  0
 22 37  1  0
 23 24  1  0
 24 25  2  0
 25 26  1  0
 25 35  1  0
 26 27  2  0
 26 28  1  0
 28 29  1  0
 30 29  1  6
 30 31  1  0
 30 33  1  0
 31 32  1  0
 32 33  1  0
 33 34  1  6
 35 36  1  0
 35 37  2  0
 39 40  2  0
 39 43  1  0
 40 41  1  0
 41 42  2  0
 42 43  1  0
 44 45  1  0
M  END
