
     RDKit          3D

 45 49  0  0  0  0  0  0  0  0999 V2000
    8.5100    3.2130    1.8810 C   0  0  0  0  0  0  0  0  0  0  0  0
    9.4320    2.2880    1.7680 C   0  0  0  0  0  0  0  0  0  0  0  0
   10.6770    2.4800    2.3020 O   0  0  0  0  0  0  0  0  0  0  0  0
   11.3090    1.4600    3.0600 C   0  0  0  0  0  0  0  0  0  0  0  0
    9.1130    1.0300    1.0540 C   0  0  2  0  0  0  0  0  0  0  0  0
   10.0720    0.9570   -0.1200 C   0  0  0  0  0  0  0  0  0  0  0  0
    7.8020    1.1080    0.4950 O   0  0  0  0  0  0  0  0  0  0  0  0
    6.8650    0.1240    0.8220 C   0  0  0  0  0  0  0  0  0  0  0  0
    7.2260   -0.7730    1.5900 O   0  0  0  0  0  0  0  0  0  0  0  0
    5.5370    0.2270    0.2380 C   0  0  0  0  0  0  0  0  0  0  0  0
    5.2070    1.2610   -0.6400 C   0  0  0  0  0  0  0  0  0  0  0  0
    3.9620    1.3690   -1.1990 C   0  0  0  0  0  0  0  0  0  0  0  0
    2.9820    0.4490   -0.9090 C   0  0  0  0  0  0  0  0  0  0  0  0
    3.2680   -0.5900   -0.0440 C   0  0  0  0  0  0  0  0  0  0  0  0
    4.5410   -0.6830    0.5150 C   0  0  0  0  0  0  0  0  0  0  0  0
    4.8560   -1.7970    1.4490 C   0  0  0  0  0  0  0  0  0  0  0  0
    1.6690    0.5230   -1.4700 N   0  0  0  0  0  0  0  0  0  0  0  0
    0.5360    0.1200   -0.7420 C   0  0  0  0  0  0  0  0  0  0  0  0
    0.6640   -0.2590    0.4480 O   0  0  0  0  0  0  0  0  0  0  0  0
   -0.7920    0.0990   -1.2450 N   0  0  0  0  0  0  0  0  0  0  0  0
   -1.9070   -0.3420   -0.4140 C   0  0  0  0  0  0  0  0  0  0  0  0
   -3.1710   -0.2430   -1.2210 C   0  0  1  0  0  0  0  0  0  0  0  0
   -4.3630   -0.6840   -0.4580 C   0  0  0  0  0  0  0  0  0  0  0  0
   -4.2000   -1.4280    0.7150 C   0  0  0  0  0  0  0  0  0  0  0  0
   -5.2850   -1.8580    1.4270 C   0  0  0  0  0  0  0  0  0  0  0  0
   -5.2460   -2.6020    2.6750 C   0  0  0  0  0  0  0  0  0  0  0  0
   -4.2400   -2.8840    3.4010 C   0  0  0  0  0  0  0  0  0  0  0  0
   -2.8300   -2.5840    3.2640 C   0  0  0  0  0  0  0  0  0  0  0  0
   -6.5260   -3.0740    3.1320 O   0  0  0  0  0  0  0  0  0  0  0  0
   -6.5940   -3.8860    4.2560 C   0  0  0  0  0  0  0  0  0  0  0  0
   -6.5040   -1.5030    0.9020 N   0  0  0  0  0  0  0  0  0  0  0  0
   -6.6650   -0.7870   -0.2270 C   0  0  0  0  0  0  0  0  0  0  0  0
   -7.8680   -0.5510   -0.5690 O   0  0  0  0  0  0  0  0  0  0  0  0
   -5.5990   -0.3390   -0.9640 C   0  0  0  0  0  0  0  0  0  0  0  0
   -5.7550    0.4550   -2.2030 C   0  0  2  0  0  0  0  0  0  0  0  0
   -6.9700    1.3590   -2.1780 C   0  0  0  0  0  0  0  0  0  0  0  0
   -7.9970    0.8000   -3.1010 C   0  0  0  0  0  0  0  0  0  0  0  0
   -7.4520   -0.5150   -3.6240 C   0  0  0  0  0  0  0  0  0  0  0  0
   -5.9540   -0.4470   -3.4140 C   0  0  0  0  0  0  0  0  0  0  0  0
   -4.5720    1.3300   -2.4840 C   0  0  0  0  0  0  0  0  0  0  0  0
   -3.4280    1.2210   -1.5370 C   0  0  1  0  0  0  0  0  0  0  0  0
   -3.6420    1.8970   -0.3400 O   0  0  0  0  0  0  0  0  0  0  0  0
    1.5350    1.0440   -2.8020 C   0  0  0  0  0  0  0  0  0  0  0  0
    1.8620    2.5450   -2.8200 C   0  0  0  0  0  0  0  0  0  0  0  0
    3.5910    2.7070   -2.3150 S   0  0  0  0  0  0  0  0  0  0  0  0
  1  2  2  0
  2  3  1  0
  2  5  1  0
  3  4  1  0
  5  6  1  6
  5  7  1  0
  7  8  1  0
  8  9  2  0
  8 10  1  0
 10 11  2  0
 10 15  1  0
 11 12  1  0
 12 13  2  0
 12 45  1  0
 13 14  1  0
 13 17  1  0
 14 15  2  0
 15 16  1  0
 17 18  1  0
 17 43  1  0
 18 19  2  0
 18 20  1  0
 20 21  1  0
 22 21  1  1
 22 23  1  0
 22 41  1  0
 23 24  1  0
 23 34  2  0
 24 25  2  0
 25 26  1  0
 25 31  1  0
 26 27  2  3
 26 29  1  0
 27 28  1  0
 29 30  1  0
 31 32  1  0
 32 33  2  0
 32 34  1  0
 34 35  1  0
 35 36  1  1
 35 39  1  0
 35 40  1  0
 36 37  1  0
 37 38  1  0
 38 39  1  0
 40 41  1  0
 41 42  1  1
 43 44  1  0
 44 45  1  0
M  END
