
     RDKit          3D

 44 48  0  0  0  0  0  0  0  0999 V2000
   -3.5530   -2.7370    1.9510 C   0  0  0  0  0  0  0  0  0  0  0  0
   -2.9690   -2.6570    0.7010 O   0  0  0  0  0  0  0  0  0  0  0  0
   -3.7310   -3.2310   -0.2960 C   0  0  0  0  0  0  0  0  0  0  0  0
   -5.0750   -2.5970   -0.5150 C   0  0  0  0  0  0  0  0  0  0  0  0
   -4.9030   -1.1430   -0.9150 C   0  0  1  0  0  0  0  0  0  0  0  0
   -4.1090   -1.1390   -2.1770 C   0  0  0  0  0  0  0  0  0  0  0  0
   -4.5640   -1.8630   -3.2460 C   0  0  0  0  0  0  0  0  0  0  0  0
   -3.8660   -1.8960   -4.4570 C   0  0  0  0  0  0  0  0  0  0  0  0
   -2.6850   -1.1680   -4.5550 C   0  0  0  0  0  0  0  0  0  0  0  0
   -1.9330   -1.1830   -5.8170 C   0  0  0  0  0  0  0  0  0  0  0  0
   -2.1950   -0.4240   -3.4940 C   0  0  0  0  0  0  0  0  0  0  0  0
   -1.0010    0.2950   -3.6690 N   0  0  0  0  0  0  0  0  0  0  0  0
   -0.3190    1.0830   -2.7300 C   0  0  0  0  0  0  0  0  0  0  0  0
   -0.7620    1.1980   -1.5810 O   0  0  0  0  0  0  0  0  0  0  0  0
    0.8980    1.7820   -3.0370 N   0  0  0  0  0  0  0  0  0  0  0  0
    1.6070    2.5900   -2.0670 C   0  0  0  0  0  0  0  0  0  0  0  0
    2.0470    1.6920   -0.9350 C   0  0  1  0  0  0  0  0  0  0  0  0
    3.1150    0.7700   -1.5420 C   0  0  0  0  0  0  0  0  0  0  0  0
    4.3130    1.6880   -1.4920 C   0  0  0  0  0  0  0  0  0  0  0  0
    4.0340    2.5170   -0.2820 C   0  0  2  0  0  0  0  0  0  0  0  0
    4.9450    2.0020    0.8050 C   0  0  0  0  0  0  0  0  0  0  0  0
    6.1950    2.0850    0.6610 O   0  0  0  0  0  0  0  0  0  0  0  0
    4.4640    1.4330    1.9690 O   0  0  0  0  0  0  0  0  0  0  0  0
    5.2570    0.9290    3.0230 C   0  0  0  0  0  0  0  0  0  0  0  0
    6.1170   -0.1870    2.4740 C   0  0  0  0  0  0  0  0  0  0  0  0
    6.9450   -0.7160    3.5570 C   0  0  0  0  0  0  0  0  0  0  0  0
    6.6960   -2.2590    4.3790 S   0  0  0  0  0  0  0  0  0  0  0  0
    8.0750   -2.1470    5.4850 C   0  0  0  0  0  0  0  0  0  0  0  0
    8.6470   -0.9140    5.1500 C   0  0  0  0  0  0  0  0  0  0  0  0
    8.0580   -0.2080    4.1710 C   0  0  0  0  0  0  0  0  0  0  0  0
    8.5660    1.1630    3.7050 C   0  0  0  0  0  0  0  0  0  0  0  0
    2.7230    2.3780    0.0610 O   0  0  0  0  0  0  0  0  0  0  0  0
   -2.9210   -0.4270   -2.3240 C   0  0  0  0  0  0  0  0  0  0  0  0
   -6.2270   -0.5170   -1.2180 C   0  0  0  0  0  0  0  0  0  0  0  0
   -7.0840   -0.3640   -0.0200 C   0  0  0  0  0  0  0  0  0  0  0  0
   -8.1840   -0.9830    0.0410 O   0  0  0  0  0  0  0  0  0  0  0  0
   -6.8080    0.4320    1.1270 N   0  0  0  0  0  0  0  0  0  0  0  0
   -5.5080    0.8710    1.5250 C   0  0  0  0  0  0  0  0  0  0  0  0
   -5.5100    1.8310    2.5220 C   0  0  0  0  0  0  0  0  0  0  0  0
   -4.2890    2.3100    2.9620 C   0  0  0  0  0  0  0  0  0  0  0  0
   -3.0790    1.8860    2.4640 C   0  0  0  0  0  0  0  0  0  0  0  0
   -3.0760    0.9210    1.4630 C   0  0  0  0  0  0  0  0  0  0  0  0
   -4.2780    0.4420    1.0210 C   0  0  0  0  0  0  0  0  0  0  0  0
   -4.1250   -0.4980    0.0390 O   0  0  0  0  0  0  0  0  0  0  0  0
  1  2  1  0
  2  3  1  0
  3  4  1  0
  5  4  1  1
  5  6  1  0
  5 34  1  0
  5 44  1  0
  6  7  2  0
  6 33  1  0
  7  8  1  0
  8  9  2  0
  9 10  1  0
  9 11  1  0
 11 12  1  0
 11 33  2  0
 12 13  1  0
 13 14  2  0
 13 15  1  0
 15 16  1  0
 17 16  1  6
 17 18  1  0
 17 32  1  0
 18 19  1  0
 19 20  1  0
 20 21  1  1
 20 32  1  0
 21 22  2  0
 21 23  1  0
 23 24  1  0
 24 25  1  0
 25 26  1  0
 26 27  1  0
 26 30  2  0
 27 28  1  0
 28 29  2  0
 29 30  1  0
 30 31  1  0
 34 35  1  0
 35 36  2  0
 35 37  1  0
 37 38  1  0
 38 39  2  0
 38 43  1  0
 39 40  1  0
 40 41  2  0
 41 42  1  0
 42 43  2  0
 43 44  1  0
M  END
