
     RDKit          3D

 45 49  0  0  0  0  0  0  0  0999 V2000
    6.9910   -4.1470   -1.5980 C   0  0  0  0  0  0  0  0  0  0  0  0
    5.6250   -3.7230   -1.1600 C   0  0  0  0  0  0  0  0  0  0  0  0
    4.4920   -4.2630   -1.6940 C   0  0  0  0  0  0  0  0  0  0  0  0
    3.2700   -3.8290   -1.2470 C   0  0  0  0  0  0  0  0  0  0  0  0
    2.0120   -4.3790   -1.7910 C   0  0  0  0  0  0  0  0  0  0  0  0
    3.1830   -2.8440   -0.2560 C   0  0  0  0  0  0  0  0  0  0  0  0
    1.8410   -2.4990    0.2310 C   0  0  0  0  0  0  0  0  0  0  0  0
    1.2560   -3.4860    0.8210 O   0  0  0  0  0  0  0  0  0  0  0  0
    1.2170   -1.2590    0.0920 N   0  0  0  0  0  0  0  0  0  0  0  0
   -0.0660   -0.9800    0.6020 C   0  0  0  0  0  0  0  0  0  0  0  0
   -0.6560   -1.6490    1.6330 C   0  0  0  0  0  0  0  0  0  0  0  0
   -1.9270   -1.3060    2.0240 C   0  0  0  0  0  0  0  0  0  0  0  0
   -2.6030   -0.2800    1.3680 C   0  0  0  0  0  0  0  0  0  0  0  0
   -3.9760   -0.0570    1.8240 C   0  0  0  0  0  0  0  0  0  0  0  0
   -4.9320   -0.9150    1.1020 C   0  0  0  0  0  0  0  0  0  0  0  0
   -5.7120   -1.7540    1.8070 C   0  0  0  0  0  0  0  0  0  0  0  0
   -6.6880   -2.6380    1.1620 C   0  0  0  0  0  0  0  0  0  0  0  0
   -6.7530   -2.5760   -0.2190 O   0  0  0  0  0  0  0  0  0  0  0  0
   -5.9780   -1.7390   -0.9580 C   0  0  0  0  0  0  0  0  0  0  0  0
   -5.1000   -0.9380   -0.3240 C   0  0  0  0  0  0  0  0  0  0  0  0
   -2.0490    0.4190    0.3320 C   0  0  0  0  0  0  0  0  0  0  0  0
   -2.6930    1.5440   -0.3360 C   0  0  0  0  0  0  0  0  0  0  0  0
   -2.0640    2.0440   -1.3380 O   0  0  0  0  0  0  0  0  0  0  0  0
   -3.8730    2.1430   -0.0470 O   0  0  0  0  0  0  0  0  0  0  0  0
   -4.4330    3.2170   -0.7270 C   0  0  2  0  0  0  0  0  0  0  0  0
   -4.6620    4.4080    0.1710 C   0  0  0  0  0  0  0  0  0  0  0  0
   -5.8470    5.0000   -0.2130 O   0  0  0  0  0  0  0  0  0  0  0  0
   -6.2590    4.4520   -1.4180 C   0  0  0  0  0  0  0  0  0  0  0  0
   -5.8530    2.9800   -1.2200 C   0  0  2  0  0  0  0  0  0  0  0  0
   -6.7410    2.4740   -0.1050 C   0  0  0  0  0  0  0  0  0  0  0  0
   -0.7610    0.0460   -0.0400 C   0  0  0  0  0  0  0  0  0  0  0  0
    4.2970   -2.2900    0.2940 C   0  0  0  0  0  0  0  0  0  0  0  0
    4.2910   -1.0790    1.5320 S   0  0  1  0  0  0  0  0  0  0  0  0
    3.4080   -1.5530    2.6650 O   0  0  0  0  0  0  0  0  0  0  0  0
    5.7080   -0.9160    2.0540 O   0  0  0  0  0  0  0  0  0  0  0  0
    3.7280    0.4080    0.9400 N   0  0  0  0  0  0  0  0  0  0  0  0
    4.5900    0.8930   -0.1050 C   0  0  1  0  0  0  0  0  0  0  0  0
    3.8980    1.0790   -1.4310 C   0  0  0  0  0  0  0  0  0  0  0  0
    5.2330    2.1720    0.3110 C   0  0  0  0  0  0  0  0  0  0  0  0
    4.4320    3.1380    0.8870 C   0  0  0  0  0  0  0  0  0  0  0  0
    5.0580    4.3220    1.2710 C   0  0  0  0  0  0  0  0  0  0  0  0
    6.3930    4.5030    1.0800 N   0  0  0  0  0  0  0  0  0  0  0  0
    7.1420    3.5620    0.5240 C   0  0  0  0  0  0  0  0  0  0  0  0
    6.5850    2.3760    0.1260 C   0  0  0  0  0  0  0  0  0  0  0  0
    5.5250   -2.7730   -0.2030 C   0  0  0  0  0  0  0  0  0  0  0  0
  1  2  1  0
  2  3  2  0
  2 45  1  0
  3  4  1  0
  4  5  1  0
  4  6  2  0
  6  7  1  0
  6 32  1  0
  7  8  2  0
  7  9  1  0
  9 10  1  0
 10 11  2  0
 10 31  1  0
 11 12  1  0
 12 13  2  0
 13 14  1  0
 13 21  1  0
 14 15  1  0
 15 16  2  0
 15 20  1  0
 16 17  1  0
 17 18  1  0
 18 19  1  0
 19 20  2  0
 21 22  1  0
 21 31  2  0
 22 23  2  0
 22 24  1  0
 25 24  1  1
 25 26  1  0
 25 29  1  0
 26 27  1  0
 27 28  1  0
 28 29  1  0
 29 30  1  1
 32 33  1  0
 32 45  2  0
 33 34  2  0
 33 35  2  0
 33 36  1  6
 36 37  1  0
 37 38  1  6
 37 39  1  0
 39 40  2  0
 39 44  1  0
 40 41  1  0
 41 42  2  0
 42 43  1  0
 43 44  2  0
M  END
