
     RDKit          3D

 45 49  0  0  0  0  0  0  0  0999 V2000
   -3.5580    2.5620    0.3430 C   0  0  0  0  0  0  0  0  0  0  0  0
   -2.3830    2.3860   -0.3700 O   0  0  0  0  0  0  0  0  0  0  0  0
   -1.8660    1.2410   -0.9170 C   0  0  0  0  0  0  0  0  0  0  0  0
   -2.4470    0.0010   -0.8580 C   0  0  0  0  0  0  0  0  0  0  0  0
   -1.9000   -1.1330   -1.4220 C   0  0  0  0  0  0  0  0  0  0  0  0
   -2.6060   -2.4260   -1.3480 C   0  0  0  0  0  0  0  0  0  0  0  0
   -2.3680   -3.2250   -0.1070 C   0  0  1  0  0  0  0  0  0  0  0  0
   -0.9200   -3.5840    0.0960 C   0  0  0  0  0  0  0  0  0  0  0  0
   -3.0140   -2.6340    1.0890 C   0  0  0  0  0  0  0  0  0  0  0  0
   -2.3950   -2.3030    2.1110 O   0  0  0  0  0  0  0  0  0  0  0  0
   -4.4020   -2.4340    1.0760 O   0  0  0  0  0  0  0  0  0  0  0  0
   -5.0940   -1.8640    2.1850 C   0  0  2  0  0  0  0  0  0  0  0  0
   -6.0620   -2.9420    2.7150 C   0  0  0  0  0  0  0  0  0  0  0  0
   -5.9420   -0.7270    1.7180 C   0  0  0  0  0  0  0  0  0  0  0  0
   -5.9360    0.4970    2.3430 C   0  0  0  0  0  0  0  0  0  0  0  0
   -6.7300    1.5510    1.8850 C   0  0  0  0  0  0  0  0  0  0  0  0
   -7.5510    1.3700    0.7720 C   0  0  0  0  0  0  0  0  0  0  0  0
   -7.5490    0.1460    0.1610 C   0  0  0  0  0  0  0  0  0  0  0  0
   -6.7630   -0.8720    0.6260 C   0  0  0  0  0  0  0  0  0  0  0  0
   -8.4990    0.1770   -0.9860 C   0  0  0  0  0  0  0  0  0  0  0  0
   -9.3800    1.3990   -0.6890 C   0  0  0  0  0  0  0  0  0  0  0  0
   -8.4730    2.3280    0.0690 C   0  0  0  0  0  0  0  0  0  0  0  0
   -0.7050   -0.9610   -2.0670 C   0  0  0  0  0  0  0  0  0  0  0  0
   -0.0730    0.2890   -2.1550 C   0  0  0  0  0  0  0  0  0  0  0  0
   -0.6380    1.4060   -1.5850 C   0  0  0  0  0  0  0  0  0  0  0  0
   -0.0600    2.6560   -1.6500 O   0  0  0  0  0  0  0  0  0  0  0  0
    1.1290    2.9360   -2.2940 C   0  0  0  0  0  0  0  0  0  0  0  0
    2.3560    2.3740   -1.7590 C   0  0  0  0  0  0  0  0  0  0  0  0
    3.4330    2.6880   -2.4030 O   0  0  0  0  0  0  0  0  0  0  0  0
    2.5470    1.5480   -0.6440 N   0  0  0  0  0  0  0  0  0  0  0  0
    3.8300    1.1310   -0.2490 N   0  0  0  0  0  0  0  0  0  0  0  0
    4.6820    0.2790   -0.9620 C   0  0  0  0  0  0  0  0  0  0  0  0
    4.3570   -0.2180   -2.0450 O   0  0  0  0  0  0  0  0  0  0  0  0
    6.0070   -0.0260   -0.3990 C   0  0  0  0  0  0  0  0  0  0  0  0
    6.5070   -1.2630   -0.1790 C   0  0  0  0  0  0  0  0  0  0  0  0
    7.7740   -1.4500    0.3500 C   0  0  0  0  0  0  0  0  0  0  0  0
    8.3120   -2.8250    0.5830 C   0  0  0  0  0  0  0  0  0  0  0  0
    8.4930   -0.3550    0.6410 N   0  0  0  0  0  0  0  0  0  0  0  0
    8.0560    0.8990    0.4470 C   0  0  0  0  0  0  0  0  0  0  0  0
    8.8360    1.9710    0.7610 O   0  0  0  0  0  0  0  0  0  0  0  0
   10.1130    1.9180    1.2990 C   0  0  0  0  0  0  0  0  0  0  0  0
   11.0600    1.1650    0.4320 C   0  0  1  0  0  0  0  0  0  0  0  0
   11.3530    1.5780   -0.9790 C   0  0  0  0  0  0  0  0  0  0  0  0
   12.6630    1.9900    0.1930 S   0  0  0  0  0  0  0  0  0  0  0  0
    6.7860    1.0970   -0.0840 C   0  0  0  0  0  0  0  0  0  0  0  0
  1  2  1  0
  2  3  1  0
  3  4  2  0
  3 25  1  0
  4  5  1  0
  5  6  1  0
  5 23  2  0
  6  7  1  0
  7  8  1  1
  7  9  1  0
  9 10  2  0
  9 11  1  0
 11 12  1  0
 12 13  1  6
 12 14  1  0
 14 15  2  0
 14 19  1  0
 15 16  1  0
 16 17  2  0
 17 18  1  0
 17 22  1  0
 18 19  2  0
 18 20  1  0
 20 21  1  0
 21 22  1  0
 23 24  1  0
 24 25  2  0
 25 26  1  0
 26 27  1  0
 27 28  1  0
 28 29  2  0
 28 30  1  0
 30 31  1  0
 31 32  1  0
 32 33  2  0
 32 34  1  0
 34 35  2  0
 34 45  1  0
 35 36  1  0
 36 37  1  0
 36 38  2  0
 38 39  1  0
 39 40  1  0
 39 45  2  0
 40 41  1  0
 42 41  1  1
 42 43  1  0
 42 44  1  0
 43 44  1  0
M  END
