
     RDKit          3D

 45 49  0  0  0  0  0  0  0  0999 V2000
   -3.4990    3.5410   -0.3850 C   0  0  0  0  0  0  0  0  0  0  0  0
   -2.3290    2.7430   -0.3980 O   0  0  0  0  0  0  0  0  0  0  0  0
   -2.4140    1.3490   -0.1630 C   0  0  0  0  0  0  0  0  0  0  0  0
   -3.6440    0.7630    0.0740 C   0  0  0  0  0  0  0  0  0  0  0  0
   -3.7480   -0.5840    0.3040 C   0  0  0  0  0  0  0  0  0  0  0  0
   -5.0420   -1.1900    0.6050 C   0  0  2  0  0  0  0  0  0  0  0  0
   -5.1460   -2.6200    0.0930 C   0  0  0  0  0  0  0  0  0  0  0  0
   -6.1830   -0.4640    0.1690 N   0  0  0  0  0  0  0  0  0  0  0  0
   -6.3960   -0.3080   -1.2250 C   0  0  0  0  0  0  0  0  0  0  0  0
   -7.7330    0.2760   -1.5980 C   0  0  0  0  0  0  0  0  0  0  0  0
   -8.1490    1.8530   -0.8920 S   0  0  0  0  0  0  0  0  0  0  0  0
   -8.6140    1.8210    0.8190 C   0  0  0  0  0  0  0  0  0  0  0  0
   -9.9470    1.0600    0.9380 C   0  0  0  0  0  0  0  0  0  0  0  0
  -10.9100    1.7170    0.2000 O   0  0  0  0  0  0  0  0  0  0  0  0
   -2.5690   -1.3510    0.2950 C   0  0  0  0  0  0  0  0  0  0  0  0
   -1.3320   -0.8170    0.0690 C   0  0  0  0  0  0  0  0  0  0  0  0
   -0.1030   -1.5260    0.1090 N   0  0  0  0  0  0  0  0  0  0  0  0
    0.0170   -2.8370    0.5440 C   0  0  0  0  0  0  0  0  0  0  0  0
   -0.9250   -3.5270    0.9150 O   0  0  0  0  0  0  0  0  0  0  0  0
    1.3880   -3.4730    0.5900 C   0  0  1  0  0  0  0  0  0  0  0  0
    1.3690   -4.9010    0.2750 C   0  0  0  0  0  0  0  0  0  0  0  0
    2.3580   -2.7690   -0.1080 O   0  0  0  0  0  0  0  0  0  0  0  0
    3.2320   -1.8280    0.2980 C   0  0  0  0  0  0  0  0  0  0  0  0
    3.1910   -1.4970    1.5200 O   0  0  0  0  0  0  0  0  0  0  0  0
    4.2070   -1.1680   -0.5380 C   0  0  0  0  0  0  0  0  0  0  0  0
    4.4050   -1.6660   -1.8270 C   0  0  0  0  0  0  0  0  0  0  0  0
    5.3510   -1.0920   -2.6930 C   0  0  0  0  0  0  0  0  0  0  0  0
    6.0990    0.0000   -2.2370 C   0  0  0  0  0  0  0  0  0  0  0  0
    5.8390    0.4120   -0.9790 C   0  0  0  0  0  0  0  0  0  0  0  0
    4.9460   -0.0880   -0.0870 C   0  0  0  0  0  0  0  0  0  0  0  0
    5.0090    0.6180    1.0120 N   0  0  0  0  0  0  0  0  0  0  0  0
    6.0370    1.6570    0.8350 C   0  0  1  0  0  0  0  0  0  0  0  0
    7.1070    1.5330    1.8170 C   0  0  0  0  0  0  0  0  0  0  0  0
    7.6690    0.3090    2.0940 C   0  0  0  0  0  0  0  0  0  0  0  0
    8.6950    0.1980    3.0420 C   0  0  0  0  0  0  0  0  0  0  0  0
    9.1450    1.3190    3.7020 C   0  0  0  0  0  0  0  0  0  0  0  0
    8.5880    2.5480    3.4310 C   0  0  0  0  0  0  0  0  0  0  0  0
    7.5780    2.6330    2.4920 C   0  0  0  0  0  0  0  0  0  0  0  0
    6.5260    1.4300   -0.5650 C   0  0  0  0  0  0  0  0  0  0  0  0
    7.4160    1.8320   -1.6690 C   0  0  0  0  0  0  0  0  0  0  0  0
    8.1830    2.8000   -1.5860 O   0  0  0  0  0  0  0  0  0  0  0  0
    7.1810    0.8690   -2.8090 C   0  0  0  0  0  0  0  0  0  0  0  0
   -1.3060    0.5680   -0.1620 C   0  0  0  0  0  0  0  0  0  0  0  0
   -0.0680    1.1810   -0.4060 O   0  0  0  0  0  0  0  0  0  0  0  0
    0.3980    1.2800   -1.7410 C   0  0  0  0  0  0  0  0  0  0  0  0
  1  2  1  0
  2  3  1  0
  3  4  2  0
  3 43  1  0
  4  5  1  0
  5  6  1  0
  5 15  2  0
  6  7  1  6
  6  8  1  0
  8  9  1  0
  9 10  1  0
 10 11  1  0
 11 12  1  0
 12 13  1  0
 13 14  1  0
 15 16  1  0
 16 17  1  0
 16 43  2  0
 17 18  1  0
 18 19  2  0
 18 20  1  0
 20 21  1  6
 20 22  1  0
 22 23  1  0
 23 24  2  0
 23 25  1  0
 25 26  2  0
 25 30  1  0
 26 27  1  0
 27 28  2  0
 28 29  1  0
 28 42  1  0
 29 30  1  0
 29 39  2  0
 30 31  2  0
 31 32  1  0
 32 33  1  1
 32 39  1  0
 33 34  2  0
 33 38  1  0
 34 35  1  0
 35 36  2  0
 36 37  1  0
 37 38  2  0
 39 40  1  0
 40 41  2  0
 40 42  1  0
 43 44  1  0
 44 45  1  0
M  END
