
     RDKit          3D

 45 48  0  0  0  0  0  0  0  0999 V2000
   -1.4200    6.5840   -3.9240 C   0  0  0  0  0  0  0  0  0  0  0  0
   -0.0660    6.0420   -3.4880 C   0  0  0  0  0  0  0  0  0  0  0  0
   -0.2780    4.8520   -2.5360 C   0  0  0  0  0  0  0  0  0  0  0  0
   -0.9830    5.3480   -1.4580 O   0  0  0  0  0  0  0  0  0  0  0  0
   -1.4180    4.7210   -0.3150 C   0  0  0  0  0  0  0  0  0  0  0  0
   -1.2140    3.4010   -0.0430 C   0  0  0  0  0  0  0  0  0  0  0  0
   -1.6600    2.7610    1.1490 C   0  0  0  0  0  0  0  0  0  0  0  0
   -1.1980    1.3660    1.3990 C   0  0  2  0  0  0  0  0  0  0  0  0
   -1.5000    0.5200    0.2200 C   0  0  0  0  0  0  0  0  0  0  0  0
   -1.3030   -0.9100    0.1720 C   0  0  0  0  0  0  0  0  0  0  0  0
   -0.4610   -1.4260   -0.5970 O   0  0  0  0  0  0  0  0  0  0  0  0
   -2.0400   -1.7770    0.9620 O   0  0  0  0  0  0  0  0  0  0  0  0
   -2.0080   -3.1380    1.0270 C   0  0  0  0  0  0  0  0  0  0  0  0
   -2.2520   -3.8680   -0.2610 C   0  0  0  0  0  0  0  0  0  0  0  0
   -3.4980   -4.0880   -0.7880 C   0  0  0  0  0  0  0  0  0  0  0  0
   -3.6600   -4.8070   -1.9780 C   0  0  0  0  0  0  0  0  0  0  0  0
   -4.9960   -5.0630   -2.5660 C   0  0  0  0  0  0  0  0  0  0  0  0
   -2.5400   -5.2950   -2.6160 C   0  0  0  0  0  0  0  0  0  0  0  0
   -1.2930   -5.0540   -2.0550 C   0  0  0  0  0  0  0  0  0  0  0  0
   -0.1500   -5.5730   -2.7260 N   0  0  0  0  0  0  0  0  0  0  0  0
   -1.1760   -4.3500   -0.8960 N   0  0  0  0  0  0  0  0  0  0  0  0
   -0.9620    0.8650    2.7300 C   0  0  2  0  0  0  0  0  0  0  0  0
    0.0130    1.7750    3.4990 C   0  0  0  0  0  0  0  0  0  0  0  0
   -0.1320   -0.7340    2.7560 S   0  0  0  0  0  0  0  0  0  0  0  0
   -0.1910   -1.3420    4.1480 O   0  0  0  0  0  0  0  0  0  0  0  0
    1.3830   -0.9600    2.0140 C   0  0  0  0  0  0  0  0  0  0  0  0
    1.6200   -2.2520    1.4640 C   0  0  0  0  0  0  0  0  0  0  0  0
    2.7470   -2.6070    0.7920 C   0  0  0  0  0  0  0  0  0  0  0  0
    3.7280   -1.6590    0.6320 C   0  0  0  0  0  0  0  0  0  0  0  0
    3.5290   -0.4240    1.1480 N   0  0  0  0  0  0  0  0  0  0  0  0
    2.3900   -0.0710    1.8220 C   0  0  0  0  0  0  0  0  0  0  0  0
    2.3980    1.1390    2.2240 O   0  0  0  0  0  0  0  0  0  0  0  0
    4.9590   -1.9890   -0.1100 C   0  0  0  0  0  0  0  0  0  0  0  0
    5.2500   -3.4540   -0.2060 C   0  0  1  0  0  0  0  0  0  0  0  0
    6.3450   -3.6770   -1.2230 C   0  0  0  0  0  0  0  0  0  0  0  0
    5.7060   -4.0650    1.1010 C   0  0  0  0  0  0  0  0  0  0  0  0
    4.0150   -4.2060   -0.7260 C   0  0  0  0  0  0  0  0  0  0  0  0
    2.8960   -3.9630    0.2070 C   0  0  0  0  0  0  0  0  0  0  0  0
    2.0990   -4.8440    0.5050 O   0  0  0  0  0  0  0  0  0  0  0  0
   -2.3180    3.5560    2.0180 C   0  0  0  0  0  0  0  0  0  0  0  0
   -2.9780    3.0040    3.2090 C   0  0  0  0  0  0  0  0  0  0  0  0
   -2.5290    4.9330    1.7290 C   0  0  0  0  0  0  0  0  0  0  0  0
   -2.0980    5.5170    0.5970 C   0  0  0  0  0  0  0  0  0  0  0  0
   -2.2890    6.8470    0.2840 O   0  0  0  0  0  0  0  0  0  0  0  0
   -2.9550    7.7720    1.0840 C   0  0  0  0  0  0  0  0  0  0  0  0
  1  2  1  0
  2  3  1  0
  3  4  1  0
  4  5  1  0
  5  6  2  0
  5 43  1  0
  6  7  1  0
  7  8  1  0
  7 40  2  0
  8  9  1  1
  8 22  1  0
  9 10  1  0
 10 11  2  0
 10 12  1  0
 12 13  1  0
 13 14  1  0
 14 15  2  0
 14 21  1  0
 15 16  1  0
 16 17  1  0
 16 18  2  0
 18 19  1  0
 19 20  1  0
 19 21  2  0
 22 23  1  1
 22 24  1  0
 24 25  2  0
 24 26  1  1
 26 27  2  0
 26 31  1  0
 27 28  1  0
 28 29  2  0
 28 38  1  0
 29 30  1  0
 29 33  1  0
 30 31  1  0
 31 32  2  0
 33 34  1  0
 34 35  1  6
 34 36  1  0
 34 37  1  0
 37 38  1  0
 38 39  2  0
 40 41  1  0
 40 42  1  0
 42 43  2  0
 43 44  1  0
 44 45  1  0
M  END
