
     RDKit          3D

 45 48  0  0  0  0  0  0  0  0999 V2000
   -2.3670    6.6490   -1.0870 C   0  0  0  0  0  0  0  0  0  0  0  0
   -2.4680    5.2070   -0.7370 C   0  0  0  0  0  0  0  0  0  0  0  0
   -1.5990    4.5550    0.1070 C   0  0  0  0  0  0  0  0  0  0  0  0
   -1.7050    3.2030    0.4230 C   0  0  0  0  0  0  0  0  0  0  0  0
   -2.7400    2.4940   -0.1470 C   0  0  0  0  0  0  0  0  0  0  0  0
   -2.8740    1.1100    0.0940 N   0  0  0  0  0  0  0  0  0  0  0  0
   -1.6790    0.3460    0.0230 C   0  0  0  0  0  0  0  0  0  0  0  0
   -0.5550    0.8950    0.1250 O   0  0  0  0  0  0  0  0  0  0  0  0
   -1.5980   -1.1450   -0.1750 C   0  0  0  0  0  0  0  0  0  0  0  0
   -0.2980   -1.7030    0.1330 C   0  0  0  0  0  0  0  0  0  0  0  0
    0.1180   -2.8590    0.0870 O   0  0  0  0  0  0  0  0  0  0  0  0
    0.7320   -0.8060    0.5760 O   0  0  0  0  0  0  0  0  0  0  0  0
    2.0350   -1.2840    0.8950 C   0  0  1  0  0  0  0  0  0  0  0  0
    3.0680   -0.6510    0.0550 C   0  0  0  0  0  0  0  0  0  0  0  0
    4.0400    0.1180    0.4360 C   0  0  0  0  0  0  0  0  0  0  0  0
    5.0330    0.7070   -0.5130 C   0  0  0  0  0  0  0  0  0  0  0  0
    4.7500    0.2930   -1.9380 C   0  0  0  0  0  0  0  0  0  0  0  0
    5.8330    0.9670   -2.7860 C   0  0  1  0  0  0  0  0  0  0  0  0
    5.6740    0.6420   -4.2410 C   0  0  0  0  0  0  0  0  0  0  0  0
    5.6990    2.4660   -2.5640 C   0  0  0  0  0  0  0  0  0  0  0  0
    7.2160    0.5790   -2.2930 C   0  0  0  0  0  0  0  0  0  0  0  0
    4.2170    0.4520    1.8660 C   0  0  0  0  0  0  0  0  0  0  0  0
    5.2190    1.2440    2.2330 C   0  0  0  0  0  0  0  0  0  0  0  0
    5.5540    1.6840    3.5900 C   0  0  0  0  0  0  0  0  0  0  0  0
    6.8440    1.2820    3.9750 O   0  0  0  0  0  0  0  0  0  0  0  0
    3.2820   -0.1060    2.7740 N   0  0  0  0  0  0  0  0  0  0  0  0
    2.2330   -0.9450    2.3210 C   0  0  0  0  0  0  0  0  0  0  0  0
    1.4400   -1.4150    3.1810 O   0  0  0  0  0  0  0  0  0  0  0  0
   -2.5580   -1.9240   -0.5580 C   0  0  0  0  0  0  0  0  0  0  0  0
   -2.3440   -3.3640   -0.7170 C   0  0  0  0  0  0  0  0  0  0  0  0
   -3.2010   -4.1330    0.1930 N   0  0  0  0  0  0  0  0  0  0  0  0
   -2.8710   -3.9910    1.5630 C   0  0  0  0  0  0  0  0  0  0  0  0
   -4.0090   -4.3500    2.4940 C   0  0  0  0  0  0  0  0  0  0  0  0
   -4.7410   -5.8910    1.8110 S   0  0  0  0  0  0  0  0  0  0  0  0
   -5.1120   -5.5190    0.0660 C   0  0  1  0  0  0  0  0  0  0  0  0
   -6.6030   -5.5370   -0.1890 C   0  0  0  0  0  0  0  0  0  0  0  0
   -4.5800   -4.0910   -0.1490 C   0  0  0  0  0  0  0  0  0  0  0  0
   -3.8710   -1.4660   -0.8530 O   0  0  0  0  0  0  0  0  0  0  0  0
   -4.7600   -0.6290   -0.2720 C   0  0  0  0  0  0  0  0  0  0  0  0
   -4.1890    0.6490    0.3350 C   0  0  0  0  0  0  0  0  0  0  0  0
   -5.0430    1.2290    1.1110 C   0  0  0  0  0  0  0  0  0  0  0  0
   -5.0300    2.3890    1.9310 C   0  0  0  0  0  0  0  0  0  0  0  0
   -4.1300    3.2140    2.1530 O   0  0  0  0  0  0  0  0  0  0  0  0
   -3.6410    3.1100   -1.0030 C   0  0  0  0  0  0  0  0  0  0  0  0
   -3.4900    4.4410   -1.2790 C   0  0  0  0  0  0  0  0  0  0  0  0
  1  2  1  0
  2  3  2  0
  2 45  1  0
  3  4  1  0
  4  5  2  0
  5  6  1  0
  5 44  1  0
  6  7  1  0
  6 40  1  0
  7  8  2  0
  7  9  1  0
  9 10  1  0
  9 29  2  0
 10 11  2  0
 10 12  1  0
 13 12  1  6
 13 14  1  0
 13 27  1  0
 14 15  2  0
 15 16  1  0
 15 22  1  0
 16 17  1  0
 17 18  1  0
 18 19  1  6
 18 20  1  0
 18 21  1  0
 22 23  2  3
 22 26  1  0
 23 24  1  0
 24 25  1  0
 26 27  1  0
 27 28  2  0
 29 30  1  0
 29 38  1  0
 30 31  1  0
 31 32  1  0
 31 37  1  0
 32 33  1  0
 33 34  1  0
 34 35  1  0
 35 36  1  1
 35 37  1  0
 38 39  1  0
 39 40  1  0
 40 41  2  3
 41 42  1  0
 42 43  2  0
 44 45  2  0
M  END
