
     RDKit          3D

 20 23  0  0  0  0  0  0  0  0999 V2000
   -5.1960    0.1580    1.1100 O   0  0  0  0  0  0  0  0  0  0  0  0
   -4.4460    0.5650    0.0090 C   0  0  1  0  0  0  0  0  0  0  0  0
   -4.1450    2.0470    0.0760 C   0  0  0  0  0  0  0  0  0  0  0  0
   -3.4090    2.4020   -1.2040 C   0  0  0  0  0  0  0  0  0  0  0  0
   -2.0610    1.7520   -1.1740 C   0  0  0  0  0  0  0  0  0  0  0  0
   -1.9490    0.6130   -0.2270 C   0  0  2  0  0  0  0  0  0  0  0  0
   -0.8300   -0.3040   -0.6080 C   0  0  1  0  0  0  0  0  0  0  0  0
    0.4390    0.5310   -0.6920 C   0  0  0  0  0  0  0  0  0  0  0  0
    1.6200   -0.2760   -1.0650 C   0  0  0  0  0  0  0  0  0  0  0  0
    2.6960   -0.4060   -0.3190 C   0  0  0  0  0  0  0  0  0  0  0  0
    2.9220    0.2320    1.0320 C   0  0  0  0  0  0  0  0  0  0  0  0
    4.2770   -0.2900    1.4650 C   0  0  2  0  0  0  0  0  0  0  0  0
    5.3140    0.3770    0.6220 C   0  0  0  0  0  0  0  0  0  0  0  0
    5.0490   -0.1950   -0.7780 C   0  0  0  0  0  0  0  0  0  0  0  0
    3.9150   -1.1770   -0.5910 C   0  0  1  0  0  0  0  0  0  0  0  0
    4.2380   -1.6890    0.8250 C   0  0  0  0  0  0  0  0  0  0  0  0
   -0.6400   -1.4720    0.2780 C   0  0  0  0  0  0  0  0  0  0  0  0
   -1.8090   -1.9970    0.9930 C   0  0  0  0  0  0  0  0  0  0  0  0
   -3.0040   -1.1010    1.0790 C   0  0  0  0  0  0  0  0  0  0  0  0
   -3.1930   -0.2540   -0.1740 C   0  0  1  0  0  0  0  0  0  0  0  0
  2  1  1  1
  2  3  1  0
  2 20  1  0
  3  4  1  0
  4  5  1  0
  6  5  1  6
  6  7  1  0
  6 20  1  0
  7  8  1  1
  7 17  1  0
  8  9  1  0
  9 10  2  3
 10 11  1  0
 10 15  1  0
 12 11  1  6
 12 13  1  0
 12 16  1  0
 13 14  1  0
 15 14  1  1
 15 16  1  0
 17 18  1  0
 18 19  1  0
 20 19  1  1
M  END
