
     RDKit          3D

 21 24  0  0  0  0  0  0  0  0999 V2000
    0.9430    1.2640    1.2300 C   0  0  0  0  0  0  0  0  0  0  0  0
    1.2470    0.8370   -0.1820 C   0  0  2  0  0  0  0  0  0  0  0  0
    1.9820    1.9740   -0.8600 C   0  0  0  0  0  0  0  0  0  0  0  0
    0.0270    0.5550   -1.0100 C   0  0  2  0  0  0  0  0  0  0  0  0
   -0.8270    1.7320   -1.2620 C   0  0  0  0  0  0  0  0  0  0  0  0
   -2.2860    1.3450   -1.3410 C   0  0  0  0  0  0  0  0  0  0  0  0
   -2.6560    0.7600    0.0000 C   0  0  1  0  0  0  0  0  0  0  0  0
   -4.0700    0.8140    0.3640 C   0  0  0  0  0  0  0  0  0  0  0  0
   -4.6790   -0.4880    0.7220 C   0  0  0  0  0  0  0  0  0  0  0  0
   -4.0610   -1.6470    0.7170 C   0  0  0  0  0  0  0  0  0  0  0  0
   -2.6420   -1.7040    0.3310 C   0  0  0  0  0  0  0  0  0  0  0  0
   -2.0420   -0.5910    0.0110 C   0  0  0  0  0  0  0  0  0  0  0  0
   -0.6490   -0.6280   -0.4100 C   0  0  0  0  0  0  0  0  0  0  0  0
    0.1040   -1.7020   -0.3020 C   0  0  0  0  0  0  0  0  0  0  0  0
    1.5230   -1.5730   -0.7990 C   0  0  0  0  0  0  0  0  0  0  0  0
    2.1530   -0.3850   -0.1590 C   0  0  1  0  0  0  0  0  0  0  0  0
    3.5900   -0.0520   -0.2730 C   0  0  0  0  0  0  0  0  0  0  0  0
    3.0380   -0.6030    1.0090 C   0  0  2  0  0  0  0  0  0  0  0  0
    3.5710   -1.9250    1.3600 C   0  0  0  0  0  0  0  0  0  0  0  0
    3.7300   -2.3010    2.5770 O   0  0  0  0  0  0  0  0  0  0  0  0
    3.9490   -2.8720    0.4280 O   0  0  0  0  0  0  0  0  0  0  0  0
  2  1  1  1
  2  3  1  0
  2  4  1  0
  2 16  1  0
  4  5  1  1
  4 13  1  0
  5  6  1  0
  7  6  1  6
  7  8  1  0
  7 12  1  0
  8  9  1  0
  9 10  2  0
 10 11  1  0
 11 12  2  0
 12 13  1  0
 13 14  2  0
 14 15  1  0
 16 15  1  6
 16 17  1  0
 16 18  1  0
 17 18  1  0
 18 19  1  6
 19 20  2  0
 19 21  1  0
M  END
