
     RDKit          3D

 21 24  0  0  0  0  0  0  0  0999 V2000
    4.5100    1.7910   -0.7310 C   0  0  0  0  0  0  0  0  0  0  0  0
    3.9430    0.4550   -1.1180 C   0  0  1  0  0  0  0  0  0  0  0  0
    4.6330   -0.6930   -0.4050 C   0  0  0  0  0  0  0  0  0  0  0  0
    4.1790   -0.8170    1.0140 C   0  0  0  0  0  0  0  0  0  0  0  0
    2.9930    0.0170    1.3500 C   0  0  0  0  0  0  0  0  0  0  0  0
    2.0600    0.2810    0.2290 C   0  0  2  0  0  0  0  0  0  0  0  0
    0.9440   -0.7740    0.1850 C   0  0  1  0  0  0  0  0  0  0  0  0
    0.1380   -0.7940    1.4360 C   0  0  0  0  0  0  0  0  0  0  0  0
   -1.3080   -1.2340    1.1730 C   0  0  0  0  0  0  0  0  0  0  0  0
   -2.0260   -0.1500    0.3760 C   0  0  2  0  0  0  0  0  0  0  0  0
   -2.8030    0.7530    1.3240 C   0  0  0  0  0  0  0  0  0  0  0  0
   -4.1730    0.1260    1.4520 C   0  0  0  0  0  0  0  0  0  0  0  0
   -4.1320   -1.1240    0.6300 C   0  0  0  0  0  0  0  0  0  0  0  0
   -3.1120   -0.7510   -0.4500 C   0  0  1  0  0  0  0  0  0  0  0  0
   -3.7030    0.2730   -1.3800 C   0  0  0  0  0  0  0  0  0  0  0  0
   -2.6420    0.8130   -2.2810 C   0  0  0  0  0  0  0  0  0  0  0  0
   -1.5230    1.4320   -1.5110 C   0  0  0  0  0  0  0  0  0  0  0  0
   -0.9900    0.5940   -0.4000 C   0  0  2  0  0  0  0  0  0  0  0  0
    0.0350   -0.3600   -0.9590 C   0  0  2  0  0  0  0  0  0  0  0  0
   -0.5610   -1.4560   -1.5460 O   0  0  0  0  0  0  0  0  0  0  0  0
    2.5940    0.3500   -1.0150 O   0  0  0  0  0  0  0  0  0  0  0  0
  2  1  1  1
  2  3  1  0
  2 21  1  0
  3  4  1  0
  4  5  1  0
  6  5  1  1
  6  7  1  0
  6 21  1  0
  7  8  1  1
  7 19  1  0
  8  9  1  0
 10  9  1  1
 10 11  1  0
 10 14  1  0
 10 18  1  0
 11 12  1  0
 12 13  1  0
 14 13  1  1
 14 15  1  0
 15 16  1  0
 16 17  1  0
 18 17  1  6
 18 19  1  0
 19 20  1  1
M  END
