
     RDKit          3D

 21 24  0  0  0  0  0  0  0  0999 V2000
    4.5690   -1.8990   -0.6210 C   0  0  0  0  0  0  0  0  0  0  0  0
    3.4600   -1.2170    0.1830 C   0  0  0  0  0  0  0  0  0  0  0  0
    2.2680   -0.9310   -0.7040 C   0  0  0  0  0  0  0  0  0  0  0  0
    1.1800   -0.2740    0.1210 C   0  0  1  0  0  0  0  0  0  0  0  0
    1.7460    0.9750    0.6580 C   0  0  0  0  0  0  0  0  0  0  0  0
    2.2840    0.7600    1.7450 O   0  0  0  0  0  0  0  0  0  0  0  0
    1.8960    2.4150    0.3430 C   0  0  0  0  0  0  0  0  0  0  0  0
    0.8490    3.1220    1.2090 C   0  0  0  0  0  0  0  0  0  0  0  0
   -0.5390    2.7070    0.6980 C   0  0  0  0  0  0  0  0  0  0  0  0
   -0.9690    1.3710    1.1850 C   0  0  0  0  0  0  0  0  0  0  0  0
   -1.2490    0.3380    0.1540 C   0  0  2  0  0  0  0  0  0  0  0  0
   -2.4180    0.8220   -0.6820 C   0  0  0  0  0  0  0  0  0  0  0  0
   -3.5430    0.8340    0.3640 C   0  0  0  0  0  0  0  0  0  0  0  0
   -3.2340   -0.1840    1.3870 C   0  0  0  0  0  0  0  0  0  0  0  0
   -1.9630   -0.8430    0.8330 C   0  0  1  0  0  0  0  0  0  0  0  0
   -2.4900   -1.7760   -0.2380 C   0  0  0  0  0  0  0  0  0  0  0  0
   -1.5760   -2.0410   -1.3430 C   0  0  2  0  0  0  0  0  0  0  0  0
   -0.2790   -2.6990   -0.9430 C   0  0  0  0  0  0  0  0  0  0  0  0
   -0.3730   -1.2890   -1.5310 C   0  0  2  0  0  0  0  0  0  0  0  0
   -0.0920   -0.0950   -0.6770 C   0  0  2  0  0  0  0  0  0  0  0  0
    0.1950    0.9720   -1.5660 O   0  0  0  0  0  0  0  0  0  0  0  0
  1  2  1  0
  2  3  1  0
  4  3  1  6
  4  5  1  0
  4 20  1  0
  5  6  2  0
  5  7  1  0
  7  8  1  0
  8  9  1  0
  9 10  1  0
 11 10  1  1
 11 12  1  0
 11 15  1  0
 11 20  1  0
 12 13  1  0
 13 14  1  0
 15 14  1  6
 15 16  1  0
 17 16  1  1
 17 18  1  0
 17 19  1  0
 19 18  1  1
 19 20  1  0
 20 21  1  6
M  END
