
     RDKit          3D

 21 24  0  0  0  0  0  0  0  0999 V2000
    2.5810   -1.1900    0.7700 C   0  0  0  0  0  0  0  0  0  0  0  0
    2.3110    0.2570    0.4050 C   0  0  2  0  0  0  0  0  0  0  0  0
    1.5540    0.9570    1.4470 C   0  0  0  0  0  0  0  0  0  0  0  0
    0.1900    1.4220    1.1170 C   0  0  0  0  0  0  0  0  0  0  0  0
   -0.5600    0.6990    0.0720 C   0  0  1  0  0  0  0  0  0  0  0  0
    0.2710   -0.3420   -0.6860 C   0  0  1  0  0  0  0  0  0  0  0  0
   -0.5120   -0.7130   -1.9040 C   0  0  0  0  0  0  0  0  0  0  0  0
   -1.6680   -1.6020   -1.4310 C   0  0  0  0  0  0  0  0  0  0  0  0
   -2.4100   -0.8930   -0.3880 C   0  0  0  0  0  0  0  0  0  0  0  0
   -3.7170   -1.1760   -0.2730 C   0  0  0  0  0  0  0  0  0  0  0  0
   -4.5540   -0.5240    0.7370 C   0  0  0  0  0  0  0  0  0  0  0  0
   -5.6040   -1.0470    1.1850 O   0  0  0  0  0  0  0  0  0  0  0  0
   -4.1670    0.8070    1.2650 C   0  0  0  0  0  0  0  0  0  0  0  0
   -2.8660    1.2460    0.6370 C   0  0  0  0  0  0  0  0  0  0  0  0
   -1.8650    0.0990    0.5470 C   0  0  2  0  0  0  0  0  0  0  0  0
   -1.7590   -0.5030    1.9190 C   0  0  0  0  0  0  0  0  0  0  0  0
    1.5620    0.3350   -0.9350 C   0  0  2  0  0  0  0  0  0  0  0  0
    2.5080   -0.2930   -1.8580 C   0  0  0  0  0  0  0  0  0  0  0  0
    3.8660    0.1270   -1.3290 C   0  0  0  0  0  0  0  0  0  0  0  0
    3.6060    0.8680   -0.0190 C   0  0  2  0  0  0  0  0  0  0  0  0
    4.6180    0.6860    0.8940 O   0  0  0  0  0  0  0  0  0  0  0  0
  2  1  1  1
  2  3  1  0
  2 17  1  0
  2 20  1  0
  3  4  1  0
  5  4  1  1
  5  6  1  0
  5 15  1  0
  6  7  1  6
  6 17  1  0
  7  8  1  0
  8  9  1  0
  9 10  2  0
  9 15  1  0
 10 11  1  0
 11 12  2  0
 11 13  1  0
 13 14  1  0
 14 15  1  0
 15 16  1  1
 17 18  1  6
 18 19  1  0
 19 20  1  0
 20 21  1  1
M  END
