
     RDKit          3D

 21 24  0  0  0  0  0  0  0  0999 V2000
   -3.8600    1.0710   -1.7260 C   0  0  0  0  0  0  0  0  0  0  0  0
   -2.8960    0.0130   -1.2220 C   0  0  2  0  0  0  0  0  0  0  0  0
   -3.7110   -1.2350   -0.9580 C   0  0  0  0  0  0  0  0  0  0  0  0
   -2.2450    0.4950    0.0370 C   0  0  2  0  0  0  0  0  0  0  0  0
   -3.2840    0.7180    0.9710 O   0  0  0  0  0  0  0  0  0  0  0  0
   -1.5720    1.8490   -0.1390 C   0  0  0  0  0  0  0  0  0  0  0  0
   -0.1530    1.6880    0.4480 C   0  0  0  0  0  0  0  0  0  0  0  0
    0.0590    0.3090    0.0890 C   0  0  1  0  0  0  0  0  0  0  0  0
    1.0250   -0.5550    0.6490 C   0  0  0  0  0  0  0  0  0  0  0  0
    2.3990   -0.2460    1.1310 C   0  0  1  0  0  0  0  0  0  0  0  0
    3.1160   -1.4560    1.5660 C   0  0  0  0  0  0  0  0  0  0  0  0
    4.1870   -1.5850    0.8170 C   0  0  0  0  0  0  0  0  0  0  0  0
    4.2410   -0.4850   -0.1420 C   0  0  0  0  0  0  0  0  0  0  0  0
    3.2040    0.2960    0.0360 C   0  0  0  0  0  0  0  0  0  0  0  0
    3.3480    1.3860   -0.9880 C   0  0  0  0  0  0  0  0  0  0  0  0
    4.2330    0.8720   -1.9280 O   0  0  0  0  0  0  0  0  0  0  0  0
    5.1000    0.0450   -1.2680 C   0  0  0  0  0  0  0  0  0  0  0  0
    0.4920   -1.7770    0.6870 C   0  0  0  0  0  0  0  0  0  0  0  0
   -0.9190   -1.6970    0.1120 C   0  0  0  0  0  0  0  0  0  0  0  0
   -1.2340   -0.3330    0.6390 C   0  0  2  0  0  0  0  0  0  0  0  0
   -1.2300   -0.3830    2.1330 C   0  0  0  0  0  0  0  0  0  0  0  0
  2  1  1  1
  2  3  1  0
  2  4  1  0
  4  5  1  1
  4  6  1  0
  4 20  1  0
  6  7  1  0
  8  7  1  1
  8  9  1  0
  8 20  1  0
 10  9  1  6
  9 18  2  0
 10 11  1  0
 10 14  1  0
 11 12  2  0
 12 13  1  0
 13 14  2  0
 13 17  1  0
 14 15  1  0
 15 16  1  0
 16 17  1  0
 18 19  1  0
 19 20  1  0
 20 21  1  1
M  END
