
     RDKit          3D

 21 24  0  0  0  0  0  0  0  0999 V2000
    5.9740    0.2380    1.7140 C   0  0  0  0  0  0  0  0  0  0  0  0
    4.7200   -0.0150    1.4190 C   0  0  0  0  0  0  0  0  0  0  0  0
    3.5490    0.8390    1.7380 C   0  0  0  0  0  0  0  0  0  0  0  0
    2.6300    0.4600    0.5730 C   0  0  2  0  0  0  0  0  0  0  0  0
    1.2470    0.9720    0.7500 C   0  0  0  0  0  0  0  0  0  0  0  0
    0.4040    0.5890   -0.3930 C   0  0  1  0  0  0  0  0  0  0  0  0
    0.9770    1.1400   -1.5640 O   0  0  0  0  0  0  0  0  0  0  0  0
    0.4500   -0.9130   -0.5660 C   0  0  0  0  0  0  0  0  0  0  0  0
   -0.8370   -1.4390   -1.1850 C   0  0  0  0  0  0  0  0  0  0  0  0
   -1.9900   -1.3180   -0.2200 C   0  0  2  0  0  0  0  0  0  0  0  0
   -3.3060   -1.4970   -0.9020 C   0  0  0  0  0  0  0  0  0  0  0  0
   -4.4750   -1.2380    0.0060 C   0  0  0  0  0  0  0  0  0  0  0  0
   -4.3270    0.0820    0.7770 C   0  0  0  0  0  0  0  0  0  0  0  0
   -3.2300    0.8290    0.1300 C   0  0  1  0  0  0  0  0  0  0  0  0
   -2.8370    2.1380    0.7200 C   0  0  0  0  0  0  0  0  0  0  0  0
   -1.3800    2.2850    0.2370 C   0  0  0  0  0  0  0  0  0  0  0  0
   -1.0060    0.9970   -0.3700 C   0  0  2  0  0  0  0  0  0  0  0  0
   -1.9340    0.0330    0.3840 C   0  0  2  0  0  0  0  0  0  0  0  0
    2.7750   -0.9330    0.5490 O   0  0  0  0  0  0  0  0  0  0  0  0
    4.1580   -1.1620    0.7210 C   0  0  0  0  0  0  0  0  0  0  0  0
    4.8390   -2.2270    0.3240 C   0  0  0  0  0  0  0  0  0  0  0  0
  1  2  2  0
  2  3  1  0
  2 20  1  0
  3  4  1  0
  4  5  1  1
  4 19  1  0
  5  6  1  0
  6  7  1  6
  6  8  1  0
  6 17  1  0
  8  9  1  0
 10  9  1  6
 10 11  1  0
 18 10  1  6
 11 12  1  0
 12 13  1  0
 14 13  1  1
 14 15  1  0
 14 18  1  0
 15 16  1  0
 17 16  1  1
 17 18  1  0
 19 20  1  0
 20 21  2  0
M  END
