
     RDKit          3D

 26 28  0  0  0  0  0  0  0  0999 V2000
   -7.1860   -0.7920    1.3320 C   0  0  0  0  0  0  0  0  0  0  0  0
   -5.8760   -0.7960    0.7090 N   0  0  0  0  0  0  0  0  0  0  0  0
   -5.4890    0.1410   -0.2840 C   0  0  0  0  0  0  0  0  0  0  0  0
   -6.3420    1.0050   -0.6230 O   0  0  0  0  0  0  0  0  0  0  0  0
   -4.1170    0.1020   -0.9050 C   0  0  2  0  0  0  0  0  0  0  0  0
   -3.9410   -1.2370   -1.5750 C   0  0  0  0  0  0  0  0  0  0  0  0
   -2.7060   -1.9220   -1.0350 C   0  0  0  0  0  0  0  0  0  0  0  0
   -1.5590   -0.9660   -1.0720 C   0  0  0  0  0  0  0  0  0  0  0  0
   -1.7690    0.1090   -0.1630 N   0  0  0  0  0  0  0  0  0  0  0  0
   -1.0600    1.3180   -0.5250 C   0  0  0  0  0  0  0  0  0  0  0  0
    0.3970    1.0080   -0.5500 C   0  0  0  0  0  0  0  0  0  0  0  0
    0.9910    0.5780   -1.6700 N   0  0  0  0  0  0  0  0  0  0  0  0
    2.3260    0.3000   -1.6690 C   0  0  0  0  0  0  0  0  0  0  0  0
    2.9150   -0.1520   -2.8750 N   0  0  0  0  0  0  0  0  0  0  0  0
    3.0310    0.4560   -0.5650 N   0  0  0  0  0  0  0  0  0  0  0  0
    2.4970    0.8780    0.5740 C   0  0  0  0  0  0  0  0  0  0  0  0
    3.1900    1.0740    1.8200 C   0  0  0  0  0  0  0  0  0  0  0  0
    2.3630    1.5510    2.9310 N   0  0  0  0  0  0  0  0  0  0  0  0
    4.4440    0.8910    2.1070 C   0  0  0  0  0  0  0  0  0  0  0  0
    5.4850    0.4330    1.2250 C   0  0  0  0  0  0  0  0  0  0  0  0
    6.7820    0.2600    1.5820 C   0  0  0  0  0  0  0  0  0  0  0  0
    7.4990   -0.1970    0.4570 N   0  0  0  0  0  0  0  0  0  0  0  0
    6.5270   -0.2800   -0.5870 C   0  0  0  0  0  0  0  0  0  0  0  0
    5.3940    0.0830   -0.1250 N   0  0  0  0  0  0  0  0  0  0  0  0
    1.1530    1.1510    0.5510 N   0  0  0  0  0  0  0  0  0  0  0  0
   -3.1350    0.3420    0.1950 C   0  0  0  0  0  0  0  0  0  0  0  0
  1  2  1  0
  2  3  1  0
  3  4  2  0
  5  3  1  1
  5  6  1  0
  5 26  1  0
  6  7  1  0
  7  8  1  0
  8  9  1  0
  9 10  1  0
  9 26  1  0
 10 11  1  0
 11 12  2  0
 11 25  1  0
 12 13  1  0
 13 14  1  0
 13 15  2  0
 15 16  1  0
 16 17  1  0
 16 25  2  0
 17 18  1  0
 17 19  2  3
 19 20  1  0
 20 21  2  0
 20 24  1  0
 21 22  1  0
 22 23  1  0
 23 24  2  0
M  CHG  1  22   1
M  END
