
     RDKit          3D

 33 35  0  0  0  0  0  0  0  0999 V2000
    5.7110    1.7450    2.7870 C   0  0  0  0  0  0  0  0  0  0  0  0
    5.8500    1.1170    1.4450 C   0  0  0  0  0  0  0  0  0  0  0  0
    4.6170    0.7350    0.8970 O   0  0  0  0  0  0  0  0  0  0  0  0
    4.8570    0.1800   -0.3120 C   0  0  0  0  0  0  0  0  0  0  0  0
    3.7730   -0.3150   -1.1270 C   0  0  0  0  0  0  0  0  0  0  0  0
    4.1780   -0.8500   -2.2460 O   0  0  0  0  0  0  0  0  0  0  0  0
    2.3780   -0.3190   -0.9200 N   0  0  0  0  0  0  0  0  0  0  0  0
    1.8510    0.2760    0.2670 C   0  0  0  0  0  0  0  0  0  0  0  0
    1.7430    1.7560    0.0810 C   0  0  0  0  0  0  0  0  0  0  0  0
    0.9200    2.5190    1.5060 S   0  0  0  0  0  0  0  0  0  0  0  0
   -0.7600    1.7880    1.6950 C   0  0  0  0  0  0  0  0  0  0  0  0
   -1.6810    2.8310    1.0820 C   0  0  0  0  0  0  0  0  0  0  0  0
   -2.6350    2.5170    0.2180 C   0  0  0  0  0  0  0  0  0  0  0  0
   -3.4950    3.5760   -0.3380 C   0  0  0  0  0  0  0  0  0  0  0  0
   -3.1280    4.8410    0.0890 O   0  0  0  0  0  0  0  0  0  0  0  0
   -2.1410    5.1450    0.9870 C   0  0  0  0  0  0  0  0  0  0  0  0
   -1.9010    6.4240    1.3650 F   0  0  0  0  0  0  0  0  0  0  0  0
   -1.3890    4.1930    1.5140 C   0  0  0  0  0  0  0  0  0  0  0  0
   -2.7360    1.1860   -0.0920 O   0  0  0  0  0  0  0  0  0  0  0  0
   -3.2170    0.0610    0.4970 C   0  0  2  0  0  0  0  0  0  0  0  0
   -3.5340    0.0600    1.9450 C   0  0  0  0  0  0  0  0  0  0  0  0
   -2.7790   -0.9950    2.6460 N   0  0  0  0  0  0  0  0  0  0  0  0
   -3.2320   -2.3090    2.2030 C   0  0  0  0  0  0  0  0  0  0  0  0
   -3.3850   -2.3250    0.6890 C   0  0  2  0  0  0  0  0  0  0  0  0
   -3.1270   -3.6470    0.0820 C   0  0  0  0  0  0  0  0  0  0  0  0
   -2.4370   -1.2300    0.1790 C   0  0  1  0  0  0  0  0  0  0  0  0
   -2.1230   -1.3360   -1.1990 N   0  0  0  0  0  0  0  0  0  0  0  0
   -0.7790   -1.8920   -1.4490 C   0  0  1  0  0  0  0  0  0  0  0  0
   -0.9480   -2.8660   -2.5820 C   0  0  0  0  0  0  0  0  0  0  0  0
    0.0920   -0.7090   -1.8120 C   0  0  0  0  0  0  0  0  0  0  0  0
    1.5370   -0.9510   -1.9380 C   0  0  1  0  0  0  0  0  0  0  0  0
    1.9910   -0.3620   -3.2590 C   0  0  0  0  0  0  0  0  0  0  0  0
    1.9350   -2.4060   -1.9610 C   0  0  0  0  0  0  0  0  0  0  0  0
  1  2  1  0
  2  3  1  0
  3  4  1  0
  4  5  1  0
  5  6  2  0
  5  7  1  0
  7  8  1  0
  7 31  1  0
  8  9  1  0
  9 10  1  0
 10 11  1  0
 11 12  1  0
 12 13  2  0
 12 18  1  0
 13 14  1  0
 13 19  1  0
 14 15  1  0
 15 16  1  0
 16 17  1  0
 16 18  2  0
 19 20  1  0
 20 21  1  1
 20 26  1  0
 21 22  1  0
 22 23  1  0
 23 24  1  0
 24 25  1  6
 24 26  1  0
 26 27  1  6
 27 28  1  0
 28 29  1  6
 28 30  1  0
 30 31  1  0
 31 32  1  6
 31 33  1  0
M  CHG  1  27   1
M  END
