
     RDKit          3D

 33 36  0  0  0  0  0  0  0  0999 V2000
   -7.2900    1.3080    2.5960 C   0  0  0  0  0  0  0  0  0  0  0  0
   -6.0970    1.0300    1.7580 C   0  0  0  0  0  0  0  0  0  0  0  0
   -5.8240   -0.2790    1.3730 C   0  0  0  0  0  0  0  0  0  0  0  0
   -4.7310   -0.5650    0.5900 C   0  0  0  0  0  0  0  0  0  0  0  0
   -4.4410   -1.8550    0.1870 C   0  0  0  0  0  0  0  0  0  0  0  0
   -5.3600   -2.9570    0.6430 C   0  0  0  0  0  0  0  0  0  0  0  0
   -3.3830   -2.1240   -0.5800 N   0  0  0  0  0  0  0  0  0  0  0  0
   -2.5180   -1.1980   -1.0240 C   0  0  0  0  0  0  0  0  0  0  0  0
   -1.3590   -1.4920   -1.8990 C   0  0  2  0  0  0  0  0  0  0  0  0
   -0.0770   -1.6380   -1.1500 C   0  0  0  0  0  0  0  0  0  0  0  0
    0.8330   -0.5630   -1.3040 N   0  0  0  0  0  0  0  0  0  0  0  0
    1.8590   -0.3190   -0.2920 C   0  0  0  0  0  0  0  0  0  0  0  0
    1.9000   -1.1410    0.6570 O   0  0  0  0  0  0  0  0  0  0  0  0
    2.7580    0.8010   -0.3770 C   0  0  0  0  0  0  0  0  0  0  0  0
    4.1570    0.8040   -0.0140 C   0  0  0  0  0  0  0  0  0  0  0  0
    4.6740    0.5420    1.3470 C   0  0  1  0  0  0  0  0  0  0  0  0
    4.4310   -0.8020    1.9510 C   0  0  0  0  0  0  0  0  0  0  0  0
    5.8960   -1.3330    2.9430 S   0  0  0  0  0  0  0  0  0  0  0  0
    7.2770   -1.3230    1.7250 C   0  0  0  0  0  0  0  0  0  0  0  0
    7.1560    0.0330    1.0710 C   0  0  0  0  0  0  0  0  0  0  0  0
    8.0680    0.3510    0.2700 O   0  0  0  0  0  0  0  0  0  0  0  0
    6.0950    0.9170    1.3240 N   0  0  0  0  0  0  0  0  0  0  0  0
    6.4130    2.3090    1.5650 C   0  0  0  0  0  0  0  0  0  0  0  0
    0.8140    0.3020   -2.4380 C   0  0  0  0  0  0  0  0  0  0  0  0
   -0.1150   -0.3400   -3.4520 C   0  0  2  0  0  0  0  0  0  0  0  0
   -0.1880    0.4310   -4.7360 C   0  0  0  0  0  0  0  0  0  0  0  0
   -1.3330   -0.4730   -2.8450 O   0  0  0  0  0  0  0  0  0  0  0  0
   -2.7800    0.1080   -0.6350 C   0  0  0  0  0  0  0  0  0  0  0  0
   -3.8600    0.4340    0.1550 C   0  0  0  0  0  0  0  0  0  0  0  0
   -4.1460    1.7180    0.5480 C   0  0  0  0  0  0  0  0  0  0  0  0
   -3.2940    2.7020    0.1250 F   0  0  0  0  0  0  0  0  0  0  0  0
   -5.2420    2.0170    1.3340 C   0  0  0  0  0  0  0  0  0  0  0  0
   -5.5170    3.3250    1.7220 O   0  0  0  0  0  0  0  0  0  0  0  0
  1  2  1  0
  2  3  2  0
  2 32  1  0
  3  4  1  0
  4  5  2  0
  4 29  1  0
  5  6  1  0
  5  7  1  0
  7  8  2  0
  9  8  1  1
  8 28  1  0
  9 10  1  0
  9 27  1  0
 10 11  1  0
 11 12  1  0
 11 24  1  0
 12 13  2  0
 12 14  1  0
 14 15  1  0
 16 15  1  6
 16 17  1  0
 16 22  1  0
 17 18  1  0
 18 19  1  0
 19 20  1  0
 20 21  2  0
 20 22  1  0
 22 23  1  0
 24 25  1  0
 25 26  1  6
 25 27  1  0
 28 29  2  0
 29 30  1  0
 30 31  1  0
 30 32  2  0
 32 33  1  0
M  CHG  1   7   1
M  END
