
     RDKit          3D

 33 36  0  0  0  0  0  0  0  0999 V2000
    5.9320   -1.2290   -1.3980 C   0  0  0  0  0  0  0  0  0  0  0  0
    5.4980   -1.3710    0.0320 C   0  0  0  0  0  0  0  0  0  0  0  0
    4.6150   -0.1900    0.4860 C   0  0  1  0  0  0  0  0  0  0  0  0
    5.3390    1.0090    0.3610 O   0  0  0  0  0  0  0  0  0  0  0  0
    5.4250    2.0320   -0.5410 C   0  0  0  0  0  0  0  0  0  0  0  0
    6.3600    3.1580   -0.1760 C   0  0  0  0  0  0  0  0  0  0  0  0
    6.3470    4.1050   -1.1590 F   0  0  0  0  0  0  0  0  0  0  0  0
    4.7840    2.1360   -1.6820 C   0  0  0  0  0  0  0  0  0  0  0  0
    3.8230    1.2070   -2.2890 C   0  0  0  0  0  0  0  0  0  0  0  0
    3.2090    0.1840   -1.7170 C   0  0  0  0  0  0  0  0  0  0  0  0
    3.3860   -0.2320   -0.2900 C   0  0  0  0  0  0  0  0  0  0  0  0
    2.3960   -0.7110    0.4500 C   0  0  0  0  0  0  0  0  0  0  0  0
    1.0320   -0.8820   -0.0400 C   0  0  0  0  0  0  0  0  0  0  0  0
    0.7540   -0.4740   -1.2450 O   0  0  0  0  0  0  0  0  0  0  0  0
    0.0020   -1.4540    0.6920 N   0  0  0  0  0  0  0  0  0  0  0  0
   -0.0370   -2.0900    1.9620 C   0  0  0  0  0  0  0  0  0  0  0  0
   -0.5820   -1.0820    2.9470 C   0  0  0  0  0  0  0  0  0  0  0  0
   -1.3010    0.0090    2.1800 C   0  0  0  0  0  0  0  0  0  0  0  0
   -2.1730   -0.5350    1.0570 C   0  0  1  0  0  0  0  0  0  0  0  0
   -2.7280    0.6260    0.3160 C   0  0  0  0  0  0  0  0  0  0  0  0
   -2.2570    1.7860    0.6030 O   0  0  0  0  0  0  0  0  0  0  0  0
   -3.7190    0.5920   -0.6730 N   0  0  0  0  0  0  0  0  0  0  0  0
   -4.0620    1.8720   -1.2490 C   0  0  0  0  0  0  0  0  0  0  0  0
   -5.5890    1.9010   -1.3640 C   0  0  0  0  0  0  0  0  0  0  0  0
   -6.1260    1.8590    0.0290 C   0  0  0  0  0  0  0  0  0  0  0  0
   -6.2490    0.2440    0.7430 S   0  0  0  0  0  0  0  0  0  0  0  0
   -5.4370   -1.0700   -0.1160 C   0  0  1  0  0  0  0  0  0  0  0  0
   -6.4570   -1.8310   -0.9400 C   0  0  0  0  0  0  0  0  0  0  0  0
   -4.3090   -0.6630   -1.0220 C   0  0  0  0  0  0  0  0  0  0  0  0
   -1.3620   -1.3530    0.0610 C   0  0  0  0  0  0  0  0  0  0  0  0
    2.8420   -0.9130    1.7860 N   0  0  0  0  0  0  0  0  0  0  0  0
    4.2200   -0.5180    1.8520 C   0  0  0  0  0  0  0  0  0  0  0  0
    4.9340   -0.4690    2.8880 O   0  0  0  0  0  0  0  0  0  0  0  0
  1  2  1  0
  3  2  1  6
  3  4  1  0
  3 11  1  0
  3 32  1  0
  4  5  1  0
  5  6  1  0
  5  8  2  0
  6  7  1  0
  8  9  1  0
  9 10  2  0
 10 11  1  0
 11 12  2  0
 12 13  1  0
 12 31  1  0
 13 14  2  0
 13 15  1  0
 15 16  1  0
 15 30  1  0
 16 17  1  0
 17 18  1  0
 18 19  1  0
 19 20  1  6
 19 30  1  0
 20 21  2  0
 20 22  1  0
 22 23  1  0
 22 29  1  0
 23 24  1  0
 24 25  1  0
 25 26  1  0
 26 27  1  0
 27 28  1  6
 27 29  1  0
 31 32  1  0
 32 33  2  0
M  END
