
     RDKit          3D

 33 36  0  0  0  0  0  0  0  0999 V2000
    3.1980   -1.2970    1.4760 O   0  0  0  0  0  0  0  0  0  0  0  0
    2.4680   -0.3120    1.2040 C   0  0  0  0  0  0  0  0  0  0  0  0
    2.9730    0.9700    1.5860 N   0  0  0  0  0  0  0  0  0  0  0  0
    4.2370    1.1600    2.2440 C   0  0  0  0  0  0  0  0  0  0  0  0
    5.3890    0.6590    1.4270 C   0  0  0  0  0  0  0  0  0  0  0  0
    6.1440    0.9230    0.5650 N   0  0  0  0  0  0  0  0  0  0  0  0
    7.1140    0.2250    0.0370 C   0  0  0  0  0  0  0  0  0  0  0  0
    8.0030    0.5500   -0.9860 C   0  0  0  0  0  0  0  0  0  0  0  0
    7.9590    1.7850   -1.6330 O   0  0  0  0  0  0  0  0  0  0  0  0
    8.9600   -0.3300   -1.4000 C   0  0  0  0  0  0  0  0  0  0  0  0
    9.1360   -1.5810   -0.8690 C   0  0  0  0  0  0  0  0  0  0  0  0
    8.2680   -1.9350    0.1510 C   0  0  0  0  0  0  0  0  0  0  0  0
    7.2880   -1.0330    0.5740 C   0  0  0  0  0  0  0  0  0  0  0  0
    6.0170   -1.1090    1.8200 S   0  0  0  0  0  0  0  0  0  0  0  0
    1.2160   -0.4670    0.5560 N   0  0  0  0  0  0  0  0  0  0  0  0
    0.7960   -1.8070    0.2110 C   0  0  0  0  0  0  0  0  0  0  0  0
    0.3800   -1.7680   -1.2510 C   0  0  0  0  0  0  0  0  0  0  0  0
   -0.8300   -0.8790   -1.3520 C   0  0  0  0  0  0  0  0  0  0  0  0
   -1.0130    0.0360   -0.1830 C   0  0  2  0  0  0  0  0  0  0  0  0
   -1.9030    1.1010   -0.5770 N   0  0  0  0  0  0  0  0  0  0  0  0
   -2.9990    1.2810    0.3340 C   0  0  0  0  0  0  0  0  0  0  0  0
   -4.0360    0.2080    0.2320 C   0  0  1  0  0  0  0  0  0  0  0  0
   -5.1930    0.5860    1.1640 C   0  0  0  0  0  0  0  0  0  0  0  0
   -6.3880    0.3020    0.2560 C   0  0  0  0  0  0  0  0  0  0  0  0
   -7.5480   -0.1610    0.5410 C   0  0  0  0  0  0  0  0  0  0  0  0
   -8.6290   -0.4140   -0.4220 C   0  0  0  0  0  0  0  0  0  0  0  0
   -8.9740   -1.8170   -0.3500 O   0  0  0  0  0  0  0  0  0  0  0  0
   -5.8740    0.7690   -1.0440 C   0  0  0  0  0  0  0  0  0  0  0  0
   -6.3880    1.5270   -1.9540 C   0  0  0  0  0  0  0  0  0  0  0  0
   -5.6750    1.7880   -3.0810 F   0  0  0  0  0  0  0  0  0  0  0  0
   -7.9190    2.3360   -1.7870 Cl  0  0  0  0  0  0  0  0  0  0  0  0
   -4.5830    0.1840   -1.0990 O   0  0  0  0  0  0  0  0  0  0  0  0
    0.3330    0.6240    0.2180 C   0  0  0  0  0  0  0  0  0  0  0  0
  1  2  2  0
  2  3  1  0
  2 15  1  0
  3  4  1  0
  4  5  1  0
  5  6  2  0
  5 14  1  0
  6  7  1  0
  7  8  2  0
  7 13  1  0
  8  9  1  0
  8 10  1  0
 10 11  2  0
 11 12  1  0
 12 13  2  0
 13 14  1  0
 15 16  1  0
 15 33  1  0
 16 17  1  0
 17 18  1  0
 18 19  1  0
 19 20  1  6
 19 33  1  0
 20 21  1  0
 22 21  1  6
 22 23  1  0
 22 32  1  0
 23 24  1  0
 24 25  2  3
 24 28  1  0
 25 26  1  0
 26 27  1  0
 28 29  2  3
 28 32  1  0
 29 30  1  0
 29 31  1  0
M  CHG  1  20   1
M  END
