
     RDKit          3D

 33 36  0  0  0  0  0  0  0  0999 V2000
   -2.8620    1.4550   -0.9630 C   0  0  0  0  0  0  0  0  0  0  0  0
   -2.9970   -0.0430   -0.9710 C   0  0  1  0  0  0  0  0  0  0  0  0
   -3.5140   -0.4360   -2.3470 C   0  0  0  0  0  0  0  0  0  0  0  0
   -1.7800   -0.7140   -0.7710 O   0  0  0  0  0  0  0  0  0  0  0  0
   -1.0070   -0.5560    0.3700 C   0  0  0  0  0  0  0  0  0  0  0  0
   -1.4440    0.2310    1.2460 O   0  0  0  0  0  0  0  0  0  0  0  0
    0.2330   -1.2570    0.5440 N   0  0  0  0  0  0  0  0  0  0  0  0
    0.7370   -2.1650   -0.4670 C   0  0  0  0  0  0  0  0  0  0  0  0
    2.1560   -1.8230   -0.8850 C   0  0  0  0  0  0  0  0  0  0  0  0
    2.5310   -0.5540   -0.1200 C   0  0  2  0  0  0  0  0  0  0  0  0
    3.7580    0.0220   -0.5740 N   0  0  1  0  0  0  0  0  0  0  0  0
    3.6190    1.4740   -0.5080 C   0  0  0  0  0  0  0  0  0  0  0  0
    4.6720    2.1690   -1.3340 C   0  0  0  0  0  0  0  0  0  0  0  0
    5.8950    1.2590   -1.3430 C   0  0  0  0  0  0  0  0  0  0  0  0
    5.9790    0.6360    0.0310 C   0  0  2  0  0  0  0  0  0  0  0  0
    7.3240    0.0760    0.3050 C   0  0  0  0  0  0  0  0  0  0  0  0
    8.2540    0.2340    1.1130 N   0  0  0  0  0  0  0  0  0  0  0  0
    9.3670   -0.4130    1.1320 C   0  0  0  0  0  0  0  0  0  0  0  0
    9.5640   -1.3860    0.1630 C   0  0  0  0  0  0  0  0  0  0  0  0
    7.9740   -1.2310   -0.7350 S   0  0  0  0  0  0  0  0  0  0  0  0
    4.9270   -0.4410    0.1150 C   0  0  0  0  0  0  0  0  0  0  0  0
    2.4740   -0.8350    1.3460 C   0  0  0  0  0  0  0  0  0  0  0  0
    1.0340   -1.0840    1.7390 C   0  0  0  0  0  0  0  0  0  0  0  0
   -4.0450   -0.4520    0.0050 C   0  0  0  0  0  0  0  0  0  0  0  0
   -3.8630   -1.3040    0.9040 O   0  0  0  0  0  0  0  0  0  0  0  0
   -5.2760    0.1480   -0.1010 O   0  0  0  0  0  0  0  0  0  0  0  0
   -6.3790   -0.1240    0.7400 C   0  0  1  0  0  0  0  0  0  0  0  0
   -6.8020    1.1150    1.4560 C   0  0  0  0  0  0  0  0  0  0  0  0
   -7.9650    1.8020    0.7800 C   0  0  0  0  0  0  0  0  0  0  0  0
   -9.1170    0.8310    0.7060 C   0  0  0  0  0  0  0  0  0  0  0  0
   -8.6990   -0.3040   -0.1600 C   0  0  0  0  0  0  0  0  0  0  0  0
   -7.4440   -0.7070   -0.1140 C   0  0  0  0  0  0  0  0  0  0  0  0
   -7.0990   -1.7480   -0.9210 F   0  0  0  0  0  0  0  0  0  0  0  0
  2  1  1  6
  2  3  1  0
  2  4  1  0
  2 24  1  0
  4  5  1  0
  5  6  2  0
  5  7  1  0
  7  8  1  0
  7 23  1  0
  8  9  1  0
 10  9  1  6
 10 11  1  0
 10 22  1  0
 11 12  1  1
 11 21  1  0
 12 13  1  0
 13 14  1  0
 14 15  1  0
 15 16  1  6
 15 21  1  0
 16 17  2  0
 16 20  1  0
 17 18  1  0
 18 19  2  0
 19 20  1  0
 22 23  1  0
 24 25  2  0
 24 26  1  0
 27 26  1  6
 27 28  1  0
 27 32  1  0
 28 29  1  0
 29 30  1  0
 30 31  1  0
 31 32  2  0
 32 33  1  0
M  CHG  1  11   1
M  END
