
     RDKit          3D

 33 36  0  0  0  0  0  0  0  0999 V2000
   -6.3620   -0.1340    2.0890 C   0  0  0  0  0  0  0  0  0  0  0  0
   -4.8910   -0.3850    2.3340 C   0  0  0  0  0  0  0  0  0  0  0  0
   -4.1440   -0.4490    1.0910 N   0  0  0  0  0  0  0  0  0  0  0  0
   -3.9230   -1.6840    0.3410 C   0  0  0  0  0  0  0  0  0  0  0  0
   -3.0810   -1.2650   -0.8440 C   0  0  1  0  0  0  0  0  0  0  0  0
   -3.9390   -1.0060   -2.0550 C   0  0  0  0  0  0  0  0  0  0  0  0
   -4.0510    0.1620   -2.5910 C   0  0  0  0  0  0  0  0  0  0  0  0
   -4.9200    0.3150   -3.7820 C   0  0  0  0  0  0  0  0  0  0  0  0
   -5.9240   -1.2200   -3.6490 S   0  0  0  0  0  0  0  0  0  0  0  0
   -4.6900   -2.1270   -2.6690 C   0  0  0  0  0  0  0  0  0  0  0  0
   -2.3760   -0.0260   -0.3450 C   0  0  2  0  0  0  0  0  0  0  0  0
   -1.4550   -0.4690    0.6750 N   0  0  0  0  0  0  0  0  0  0  0  0
   -0.4080    0.4260    0.9830 C   0  0  2  0  0  0  0  0  0  0  0  0
   -0.7440    1.8780    0.9290 C   0  0  0  0  0  0  0  0  0  0  0  0
    0.4690    2.7060    1.2270 C   0  0  0  0  0  0  0  0  0  0  0  0
    1.6190    1.9220    1.7930 C   0  0  2  0  0  0  0  0  0  0  0  0
    2.7870    2.8880    1.9400 C   0  0  0  0  0  0  0  0  0  0  0  0
    1.9380    0.8080    0.9310 N   0  0  0  0  0  0  0  0  0  0  0  0
    3.2650    0.3220    0.8460 C   0  0  0  0  0  0  0  0  0  0  0  0
    4.1600    0.8670    1.5250 O   0  0  0  0  0  0  0  0  0  0  0  0
    3.6410   -0.7400    0.0410 O   0  0  0  0  0  0  0  0  0  0  0  0
    4.9460   -1.2080   -0.0350 C   0  0  0  0  0  0  0  0  0  0  0  0
    5.3020   -2.2020    0.8610 C   0  0  0  0  0  0  0  0  0  0  0  0
    6.5940   -2.7180    0.8410 C   0  0  0  0  0  0  0  0  0  0  0  0
    7.5000   -2.2370   -0.0630 C   0  0  0  0  0  0  0  0  0  0  0  0
    8.7640   -2.7210   -0.1050 F   0  0  0  0  0  0  0  0  0  0  0  0
    7.1250   -1.2400   -0.9540 C   0  0  0  0  0  0  0  0  0  0  0  0
    5.8550   -0.7270   -0.9410 C   0  0  0  0  0  0  0  0  0  0  0  0
    5.4830    0.2470   -1.8090 O   0  0  0  0  0  0  0  0  0  0  0  0
    6.2620    0.8530   -2.7910 C   0  0  0  0  0  0  0  0  0  0  0  0
    0.8550    0.2070    0.1600 C   0  0  0  0  0  0  0  0  0  0  0  0
   -3.5150    0.6220    0.3970 C   0  0  0  0  0  0  0  0  0  0  0  0
   -3.8660    1.8120    0.4310 O   0  0  0  0  0  0  0  0  0  0  0  0
  1  2  1  0
  2  3  1  0
  3  4  1  0
  3 32  1  0
  4  5  1  0
  5  6  1  6
  5 11  1  0
  6  7  2  0
  6 10  1  0
  7  8  1  0
  8  9  1  0
  9 10  1  0
 11 12  1  1
 11 32  1  0
 13 12  1  6
 13 14  1  0
 13 31  1  0
 14 15  1  0
 15 16  1  0
 16 17  1  6
 16 18  1  0
 18 19  1  0
 18 31  1  0
 19 20  2  0
 19 21  1  0
 21 22  1  0
 22 23  2  0
 22 28  1  0
 23 24  1  0
 24 25  2  0
 25 26  1  0
 25 27  1  0
 27 28  2  0
 28 29  1  0
 29 30  1  0
 32 33  2  0
M  CHG  1  12   1
M  END
