
     RDKit          3D

 29 32  0  0  0  0  0  0  0  0999 V2000
    4.3980   -2.8240   -0.9240 C   0  0  0  0  0  0  0  0  0  0  0  0
    4.7320   -1.3630   -0.9270 C   0  0  0  0  0  0  0  0  0  0  0  0
    5.5870   -0.7330   -1.7710 N   0  0  0  0  0  0  0  0  0  0  0  0
    5.6310    0.5770   -1.4710 C   0  0  0  0  0  0  0  0  0  0  0  0
    6.2100    1.7740   -1.8370 C   0  0  0  0  0  0  0  0  0  0  0  0
    5.7100    2.7200   -0.9910 N   0  0  0  0  0  0  0  0  0  0  0  0
    4.8570    2.1310   -0.1390 C   0  0  0  0  0  0  0  0  0  0  0  0
    4.1880    2.7860    0.8310 F   0  0  0  0  0  0  0  0  0  0  0  0
    4.7670    0.7720   -0.3960 C   0  0  0  0  0  0  0  0  0  0  0  0
    4.2030   -0.4390   -0.0520 C   0  0  0  0  0  0  0  0  0  0  0  0
    3.2700   -0.6100    1.0070 N   0  0  0  0  0  0  0  0  0  0  0  0
    1.8670   -0.4990    0.8230 C   0  0  0  0  0  0  0  0  0  0  0  0
    1.0290   -0.6790    1.9020 C   0  0  0  0  0  0  0  0  0  0  0  0
   -0.3390   -0.5820    1.7710 C   0  0  0  0  0  0  0  0  0  0  0  0
   -1.2160   -0.7520    2.8140 C   0  0  0  0  0  0  0  0  0  0  0  0
   -0.7280   -1.0110    3.9420 O   0  0  0  0  0  0  0  0  0  0  0  0
   -2.5220   -0.6350    2.5740 N   0  0  0  0  0  0  0  0  0  0  0  0
   -3.0240   -0.3600    1.3710 N   0  0  0  0  0  0  0  0  0  0  0  0
   -2.2190   -0.1820    0.3080 C   0  0  0  0  0  0  0  0  0  0  0  0
   -2.8400    0.1190   -0.9980 C   0  0  0  0  0  0  0  0  0  0  0  0
   -4.2790    0.1850   -0.9470 N   0  0  0  0  0  0  0  0  0  0  0  0
   -4.8630   -1.0550   -0.4960 C   0  0  0  0  0  0  0  0  0  0  0  0
   -4.8180    1.2850   -0.2250 C   0  0  0  0  0  0  0  0  0  0  0  0
   -6.3410    1.1690   -0.2990 C   0  0  0  0  0  0  0  0  0  0  0  0
   -6.9670    2.2850    0.4340 C   0  0  0  0  0  0  0  0  0  0  0  0
   -7.4790    3.1560    1.0130 N   0  0  0  0  0  0  0  0  0  0  0  0
   -0.8780   -0.2930    0.5130 C   0  0  0  0  0  0  0  0  0  0  0  0
   -0.0260   -0.1170   -0.5540 C   0  0  0  0  0  0  0  0  0  0  0  0
    1.3100   -0.2240   -0.3700 N   0  0  0  0  0  0  0  0  0  0  0  0
  1  2  1  0
  2  3  1  0
  2 10  2  0
  3  4  1  0
  4  5  2  0
  4  9  1  0
  5  6  1  0
  6  7  1  0
  7  8  1  0
  7  9  2  0
  9 10  1  0
 10 11  1  0
 11 12  1  0
 12 13  2  0
 12 29  1  0
 13 14  1  0
 14 15  1  0
 14 27  2  0
 15 16  2  0
 15 17  1  0
 17 18  1  0
 18 19  2  0
 19 20  1  0
 19 27  1  0
 20 21  1  0
 21 22  1  0
 21 23  1  0
 23 24  1  0
 24 25  1  0
 25 26  3  0
 27 28  1  0
 28 29  2  0
M  END
