
     RDKit          3D

 29 32  0  0  0  0  0  0  0  0999 V2000
    8.3400    0.9960   -0.9920 C   0  0  0  0  0  0  0  0  0  0  0  0
    7.6900   -0.0330   -0.2290 N   0  0  0  0  0  0  0  0  0  0  0  0
    6.2520   -0.0080   -0.1160 C   0  0  0  0  0  0  0  0  0  0  0  0
    5.5200    0.9770   -0.7230 C   0  0  0  0  0  0  0  0  0  0  0  0
    4.1350    0.9400   -0.5720 C   0  0  0  0  0  0  0  0  0  0  0  0
    3.5030   -0.0550    0.1650 C   0  0  0  0  0  0  0  0  0  0  0  0
    2.0870   -0.0110    0.2630 N   0  0  0  0  0  0  0  0  0  0  0  0
    1.4000    1.0510   -0.3970 C   0  0  0  0  0  0  0  0  0  0  0  0
   -0.0880    0.9800   -0.2120 C   0  0  0  0  0  0  0  0  0  0  0  0
   -0.6790    0.0440    0.4790 C   0  0  0  0  0  0  0  0  0  0  0  0
    0.1050   -1.0020    1.1180 C   0  0  0  0  0  0  0  0  0  0  0  0
    1.4380   -1.0250    1.0130 C   0  0  0  0  0  0  0  0  0  0  0  0
    2.1820   -2.1140    1.6850 C   0  0  0  0  0  0  0  0  0  0  0  0
   -2.1390    0.2860    0.4470 C   0  0  2  0  0  0  0  0  0  0  0  0
   -2.7640   -0.8400   -0.2120 N   0  0  0  0  0  0  0  0  0  0  0  0
   -4.1810   -0.9010   -0.3980 C   0  0  0  0  0  0  0  0  0  0  0  0
   -4.7570   -1.9640   -1.0190 C   0  0  0  0  0  0  0  0  0  0  0  0
   -6.1400   -2.0040   -1.1900 C   0  0  0  0  0  0  0  0  0  0  0  0
   -6.9110   -0.9730   -0.7320 C   0  0  0  0  0  0  0  0  0  0  0  0
   -8.2620   -1.0260   -0.9060 F   0  0  0  0  0  0  0  0  0  0  0  0
   -6.3610    0.1500   -0.0820 C   0  0  0  0  0  0  0  0  0  0  0  0
   -7.2390    1.1680    0.3580 N   0  0  0  0  0  0  0  0  0  0  0  0
   -6.7640    2.3170    1.0130 C   0  0  0  0  0  0  0  0  0  0  0  0
   -5.5820    2.5850    1.2810 O   0  0  0  0  0  0  0  0  0  0  0  0
   -5.0030    0.1300    0.0550 C   0  0  0  0  0  0  0  0  0  0  0  0
   -2.2340    1.4820   -0.3580 N   0  0  0  0  0  0  0  0  0  0  0  0
   -1.0900    1.8510   -0.7140 N   0  0  0  0  0  0  0  0  0  0  0  0
    4.2840   -0.9780    0.7260 N   0  0  0  0  0  0  0  0  0  0  0  0
    5.5970   -0.9430    0.5830 N   0  0  0  0  0  0  0  0  0  0  0  0
  1  2  1  0
  2  3  1  0
  3  4  2  0
  3 29  1  0
  4  5  1  0
  5  6  2  0
  6  7  1  0
  6 28  1  0
  7  8  1  0
  7 12  1  0
  8  9  1  0
  9 10  2  0
  9 27  1  0
 10 11  1  0
 10 14  1  0
 11 12  2  0
 12 13  1  0
 14 15  1  6
 14 26  1  0
 15 16  1  0
 16 17  2  0
 16 25  1  0
 17 18  1  0
 18 19  2  0
 19 20  1  0
 19 21  1  0
 21 22  1  0
 21 25  2  0
 22 23  1  0
 23 24  2  0
 26 27  2  0
 28 29  2  0
M  END
