
     RDKit          3D

 30 31  0  0  0  0  0  0  0  0999 V2000
    7.5820   -0.1250   -1.2140 C   0  0  0  0  0  0  0  0  0  0  0  0
    7.5470    0.8620   -0.1270 C   0  0  0  0  0  0  0  0  0  0  0  0
    7.1610    0.4860    1.2400 C   0  0  0  0  0  0  0  0  0  0  0  0
    5.8780   -0.0300    1.3410 O   0  0  0  0  0  0  0  0  0  0  0  0
    5.3460   -1.1890    0.8960 C   0  0  0  0  0  0  0  0  0  0  0  0
    6.0580   -2.0170    0.3040 O   0  0  0  0  0  0  0  0  0  0  0  0
    4.0060   -1.5530    1.0500 O   0  0  0  0  0  0  0  0  0  0  0  0
    3.5130   -2.8020    0.5380 C   0  0  1  0  0  0  0  0  0  0  0  0
    2.8710   -3.6240    1.5890 C   0  0  0  0  0  0  0  0  0  0  0  0
    2.5300   -2.4960   -0.5870 C   0  0  0  0  0  0  0  0  0  0  0  0
    1.4300   -1.7220   -0.1090 C   0  0  0  0  0  0  0  0  0  0  0  0
    1.0120   -1.4890    0.9410 O   0  0  0  0  0  0  0  0  0  0  0  0
    0.5340   -0.9590   -1.3890 N   0  0  0  0  0  0  0  0  0  0  0  0
   -0.4100   -0.3560   -0.5830 C   0  0  0  0  0  0  0  0  0  0  0  0
   -0.8010   -0.3790    0.5310 O   0  0  0  0  0  0  0  0  0  0  0  0
   -1.1700    0.6840   -1.4600 N   0  0  0  0  0  0  0  0  0  0  0  0
   -2.1500    1.3740   -0.7430 C   0  0  0  0  0  0  0  0  0  0  0  0
   -1.9190    2.6500   -0.3060 C   0  0  0  0  0  0  0  0  0  0  0  0
   -3.0860    3.0920    0.4120 C   0  0  0  0  0  0  0  0  0  0  0  0
   -4.0120    2.1750    0.4420 C   0  0  0  0  0  0  0  0  0  0  0  0
   -5.2640    2.1990    1.0270 O   0  0  0  0  0  0  0  0  0  0  0  0
   -6.1900    3.2250    1.0100 C   0  0  0  0  0  0  0  0  0  0  0  0
   -5.6590    4.4610    1.6420 C   0  0  0  0  0  0  0  0  0  0  0  0
   -3.4610    1.0110   -0.3120 C   0  0  0  0  0  0  0  0  0  0  0  0
   -4.2010   -0.0580   -0.6350 C   0  0  0  0  0  0  0  0  0  0  0  0
   -5.5790   -0.3070   -0.0720 C   0  0  0  0  0  0  0  0  0  0  0  0
   -6.2260   -1.3420   -0.9190 C   0  0  0  0  0  0  0  0  0  0  0  0
   -5.1670   -2.0040   -1.6270 N   0  0  0  0  0  0  0  0  0  0  0  0
   -4.0140   -1.1100   -1.5970 C   0  0  0  0  0  0  0  0  0  0  0  0
   -2.7590   -1.3560   -2.6010 S   0  0  0  0  0  0  0  0  0  0  0  0
  1  2  1  0
  2  3  1  0
  3  4  1  0
  4  5  1  0
  5  6  2  0
  5  7  1  0
  7  8  1  0
  8  9  1  1
  8 10  1  0
 10 11  1  0
 11 12  2  0
 11 13  1  0
 13 14  1  0
 14 15  2  0
 14 16  1  0
 16 17  1  0
 17 18  2  0
 17 24  1  0
 18 19  1  0
 19 20  2  0
 20 21  1  0
 20 24  1  0
 21 22  1  0
 22 23  1  0
 24 25  2  3
 25 26  1  0
 25 29  1  0
 26 27  1  0
 27 28  1  0
 28 29  1  0
 29 30  2  0
M  END
