
     RDKit          3D

 30 31  0  0  0  0  0  0  0  0999 V2000
   -7.0370    1.6860    0.2670 C   0  0  0  0  0  0  0  0  0  0  0  0
   -6.4280    2.4830    1.0570 C   0  0  0  0  0  0  0  0  0  0  0  0
   -5.0660    2.6160    1.4220 C   0  0  0  0  0  0  0  0  0  0  0  0
   -4.8220    3.6410    2.3400 C   0  0  0  0  0  0  0  0  0  0  0  0
   -3.8980    1.9310    1.0480 C   0  0  0  0  0  0  0  0  0  0  0  0
   -2.8150    2.3990    1.6530 O   0  0  0  0  0  0  0  0  0  0  0  0
   -3.6260    0.8400    0.1600 C   0  0  0  0  0  0  0  0  0  0  0  0
   -4.4670    0.1600   -0.5810 O   0  0  0  0  0  0  0  0  0  0  0  0
   -3.9390   -0.7650   -1.2790 C   0  0  0  0  0  0  0  0  0  0  0  0
   -4.6000   -1.7090   -2.2150 C   0  0  0  0  0  0  0  0  0  0  0  0
   -3.9440   -2.7180   -2.9630 C   0  0  0  0  0  0  0  0  0  0  0  0
   -4.7340   -3.4640   -3.7490 C   0  0  0  0  0  0  0  0  0  0  0  0
   -6.0320   -3.2760   -3.8250 C   0  0  0  0  0  0  0  0  0  0  0  0
   -6.2360   -1.8530   -2.6370 S   0  0  0  0  0  0  0  0  0  0  0  0
   -2.5800   -0.7260   -0.9940 C   0  0  0  0  0  0  0  0  0  0  0  0
   -2.3530    0.2830   -0.0830 C   0  0  0  0  0  0  0  0  0  0  0  0
   -1.1060    0.6570    0.4700 N   0  0  0  0  0  0  0  0  0  0  0  0
    0.1280    0.0300    0.1570 C   0  0  0  0  0  0  0  0  0  0  0  0
    0.1550   -0.9100   -0.6490 O   0  0  0  0  0  0  0  0  0  0  0  0
    1.4200    0.4600    0.7670 C   0  0  0  0  0  0  0  0  0  0  0  0
    2.4930   -0.3090    0.3050 O   0  0  0  0  0  0  0  0  0  0  0  0
    3.7560   -0.0080    0.7980 C   0  0  0  0  0  0  0  0  0  0  0  0
    3.9010    0.9190    1.6230 O   0  0  0  0  0  0  0  0  0  0  0  0
    4.8510   -0.7640    0.3510 N   0  0  0  0  0  0  0  0  0  0  0  0
    6.1720   -0.4400    0.8760 C   0  0  2  0  0  0  0  0  0  0  0  0
    6.1570   -0.6100    2.3760 C   0  0  0  0  0  0  0  0  0  0  0  0
    6.4990    0.9910    0.5050 C   0  0  0  0  0  0  0  0  0  0  0  0
    7.1380   -1.3950    0.2920 C   0  0  0  0  0  0  0  0  0  0  0  0
    8.5070   -1.2420    0.6880 N   0  0  0  0  0  0  0  0  0  0  0  0
    6.8390   -2.3000   -0.5040 O   0  0  0  0  0  0  0  0  0  0  0  0
  1  2  2  0
  2  3  1  0
  3  4  2  0
  3  5  1  0
  5  6  2  0
  5  7  1  0
  7  8  1  0
  7 16  2  0
  8  9  1  0
  9 10  1  0
  9 15  2  0
 10 11  2  0
 10 14  1  0
 11 12  1  0
 12 13  2  0
 13 14  1  0
 15 16  1  0
 16 17  1  0
 17 18  1  0
 18 19  2  0
 18 20  1  0
 20 21  1  0
 21 22  1  0
 22 23  2  0
 22 24  1  0
 24 25  1  0
 25 26  1  1
 25 27  1  0
 25 28  1  0
 28 29  1  0
 28 30  2  0
M  END
