
     RDKit          3D

 29 32  0  0  0  0  0  0  0  0999 V2000
   -4.2400    2.4600    0.4600 C   0  0  0  0  0  0  0  0  0  0  0  0
   -3.8610    1.0180    0.5640 C   0  0  1  0  0  0  0  0  0  0  0  0
   -4.7470    0.1530   -0.2450 C   0  0  0  0  0  0  0  0  0  0  0  0
   -6.1170    0.0930    0.0180 N   0  0  0  0  0  0  0  0  0  0  0  0
   -6.9770    1.1730   -0.2330 C   0  0  0  0  0  0  0  0  0  0  0  0
   -8.2810    0.7360    0.1070 F   0  0  0  0  0  0  0  0  0  0  0  0
   -2.4890    0.8470    0.1290 N   0  0  0  0  0  0  0  0  0  0  0  0
   -1.8270    1.5610   -0.7950 C   0  0  0  0  0  0  0  0  0  0  0  0
   -2.2690    2.5380   -1.4840 O   0  0  0  0  0  0  0  0  0  0  0  0
   -0.5730    1.1150   -0.9280 N   0  0  0  0  0  0  0  0  0  0  0  0
   -0.4030    0.0850   -0.0760 C   0  0  0  0  0  0  0  0  0  0  0  0
    0.6980   -0.7290    0.1870 C   0  0  0  0  0  0  0  0  0  0  0  0
    0.6420   -1.7350    1.1140 C   0  0  0  0  0  0  0  0  0  0  0  0
    1.7250   -2.5880    1.4460 N   0  0  0  0  0  0  0  0  0  0  0  0
    3.0740   -2.4190    1.1210 C   0  0  0  0  0  0  0  0  0  0  0  0
    4.0080   -3.3830    1.4940 C   0  0  0  0  0  0  0  0  0  0  0  0
    5.3260   -3.1890    1.1800 C   0  0  0  0  0  0  0  0  0  0  0  0
    5.7300   -2.0920    0.5240 N   0  0  0  0  0  0  0  0  0  0  0  0
    4.8290   -1.1320    0.1480 C   0  0  0  0  0  0  0  0  0  0  0  0
    5.3030    0.0570   -0.5670 C   0  0  0  0  0  0  0  0  0  0  0  0
    4.4330    1.0430   -0.9550 C   0  0  0  0  0  0  0  0  0  0  0  0
    4.8550    2.1570   -1.6190 N   0  0  0  0  0  0  0  0  0  0  0  0
    6.1580    2.3040   -1.9040 C   0  0  0  0  0  0  0  0  0  0  0  0
    7.0260    1.3100   -1.5100 C   0  0  0  0  0  0  0  0  0  0  0  0
    6.6170    0.2100   -0.8570 N   0  0  0  0  0  0  0  0  0  0  0  0
    3.5640   -1.3530    0.4680 N   0  0  0  0  0  0  0  0  0  0  0  0
   -0.5830   -1.8870    1.7720 C   0  0  0  0  0  0  0  0  0  0  0  0
   -1.6670   -1.0840    1.5130 C   0  0  0  0  0  0  0  0  0  0  0  0
   -1.6050   -0.0690    0.5750 C   0  0  0  0  0  0  0  0  0  0  0  0
  2  1  1  6
  2  3  1  0
  2  7  1  0
  3  4  1  0
  4  5  1  0
  5  6  1  0
  7  8  1  0
  7 29  1  0
  8  9  2  0
  8 10  1  0
 10 11  1  0
 11 12  2  0
 11 29  1  0
 12 13  1  0
 13 14  1  0
 13 27  2  0
 14 15  1  0
 15 16  2  0
 15 26  1  0
 16 17  1  0
 17 18  2  0
 18 19  1  0
 19 20  1  0
 19 26  2  0
 20 21  2  0
 20 25  1  0
 21 22  1  0
 22 23  2  0
 23 24  1  0
 24 25  2  0
 27 28  1  0
 28 29  2  0
M  END
