
     RDKit          3D

 30 30  0  0  0  0  0  0  0  0999 V2000
    0.1620   -1.2050   -4.1370 C   0  0  0  0  0  0  0  0  0  0  0  0
   -0.9230   -0.4600   -4.1830 C   0  0  0  0  0  0  0  0  0  0  0  0
   -1.4790    0.2450   -2.9970 C   0  0  0  0  0  0  0  0  0  0  0  0
   -0.6550   -0.0360   -1.8940 O   0  0  0  0  0  0  0  0  0  0  0  0
   -0.9180    0.4850   -0.6300 C   0  0  0  0  0  0  0  0  0  0  0  0
   -0.0020    1.2480   -0.0730 C   0  0  0  0  0  0  0  0  0  0  0  0
    1.2340    1.5170   -0.7870 C   0  0  0  0  0  0  0  0  0  0  0  0
    1.3900    1.0070   -1.9230 O   0  0  0  0  0  0  0  0  0  0  0  0
    2.2040    2.3410   -0.1660 N   0  0  0  0  0  0  0  0  0  0  0  0
    3.4430    2.6220   -0.8280 C   0  0  0  0  0  0  0  0  0  0  0  0
    4.2410    1.3980   -1.0150 C   0  0  0  0  0  0  0  0  0  0  0  0
    5.3770    1.4960   -1.6260 O   0  0  0  0  0  0  0  0  0  0  0  0
    3.8850    0.1030   -0.5820 N   0  0  0  0  0  0  0  0  0  0  0  0
    4.7280   -1.0670   -0.7980 C   0  0  0  0  0  0  0  0  0  0  0  0
    5.1470   -1.6800    0.2650 C   0  0  0  0  0  0  0  0  0  0  0  0
    5.9980   -2.8710    0.4110 C   0  0  0  0  0  0  0  0  0  0  0  0
    6.4770   -3.5060   -1.1890 S   0  0  0  0  0  0  0  0  0  0  0  0
    5.7830   -2.5040   -2.4520 C   0  0  0  0  0  0  0  0  0  0  0  0
    5.0350   -1.4650   -2.1610 C   0  0  0  0  0  0  0  0  0  0  0  0
    4.4690   -0.6590   -3.3120 C   0  0  0  0  0  0  0  0  0  0  0  0
   -2.1850    0.1650    0.0170 C   0  0  0  0  0  0  0  0  0  0  0  0
   -3.0130   -0.5760   -0.5850 O   0  0  0  0  0  0  0  0  0  0  0  0
   -2.5400    0.6410    1.2880 N   0  0  0  0  0  0  0  0  0  0  0  0
   -3.8010    0.3120    1.9100 C   0  0  0  0  0  0  0  0  0  0  0  0
   -4.5610   -0.4330    1.2330 O   0  0  0  0  0  0  0  0  0  0  0  0
   -4.1480    0.7770    3.1510 O   0  0  0  0  0  0  0  0  0  0  0  0
   -5.3980    0.4320    3.7330 C   0  0  1  0  0  0  0  0  0  0  0  0
   -6.5500    0.9060    2.8720 C   0  0  0  0  0  0  0  0  0  0  0  0
   -5.5100   -1.0700    3.9170 C   0  0  0  0  0  0  0  0  0  0  0  0
   -5.5500    1.0590    5.0940 C   0  0  0  0  0  0  0  0  0  0  0  0
  1  2  2  0
  2  3  1  0
  3  4  1  0
  4  5  1  0
  5  6  2  3
  5 21  1  0
  6  7  1  0
  7  8  2  0
  7  9  1  0
  9 10  1  0
 10 11  1  0
 11 12  2  0
 11 13  1  0
 13 14  1  0
 14 15  2  0
 14 19  1  0
 15 16  1  0
 16 17  1  0
 17 18  1  0
 18 19  2  0
 19 20  1  0
 21 22  2  0
 21 23  1  0
 23 24  1  0
 24 25  2  0
 24 26  1  0
 26 27  1  0
 27 28  1  6
 27 29  1  0
 27 30  1  0
M  END
