
     RDKit          3D

 18 20  0  0  0  0  0  0  0  0999 V2000
    1.2340   -3.1160   -0.1690 C   0  0  0  0  0  0  0  0  0  0  0  0
    1.7580   -1.7140   -0.2090 C   0  0  0  0  0  0  0  0  0  0  0  0
    3.5590   -1.3930   -0.2770 S   0  0  0  0  0  0  0  0  0  0  0  0
    3.3770    0.3700   -0.2950 C   0  0  0  0  0  0  0  0  0  0  0  0
    4.7250    1.5170   -0.3590 S   0  0  1  0  0  0  0  0  0  0  0  0
    5.6790    1.2010    1.0700 N   0  0  0  0  0  0  0  0  0  0  0  0
    5.5920    1.2690   -1.5350 O   0  0  0  0  0  0  0  0  0  0  0  0
    4.1770    2.8900   -0.2800 O   0  0  0  0  0  0  0  0  0  0  0  0
    2.0800    0.5700   -0.2520 C   0  0  0  0  0  0  0  0  0  0  0  0
    1.2060   -0.4800   -0.2070 C   0  0  0  0  0  0  0  0  0  0  0  0
   -0.2780   -0.2880   -0.1610 C   0  0  0  0  0  0  0  0  0  0  0  0
   -1.3020   -1.1820   -0.1290 C   0  0  0  0  0  0  0  0  0  0  0  0
   -2.5140   -0.6640   -0.0950 N   0  0  0  0  0  0  0  0  0  0  0  0
   -2.8360    0.4640   -0.0870 C   0  0  0  0  0  0  0  0  0  0  0  0
   -4.0250    1.3880   -0.0560 C   0  0  1  0  0  0  0  0  0  0  0  0
   -5.3000    0.8610   -0.6160 C   0  0  0  0  0  0  0  0  0  0  0  0
   -5.1630    0.8970    0.8610 C   0  0  0  0  0  0  0  0  0  0  0  0
   -1.1130    1.2420   -0.1390 S   0  0  0  0  0  0  0  0  0  0  0  0
  1  2  1  0
  2  3  1  0
  2 10  2  0
  3  4  1  0
  4  5  1  0
  4  9  2  0
  5  6  1  1
  5  7  2  0
  5  8  2  0
  9 10  1  0
 10 11  1  0
 11 12  2  0
 11 18  1  0
 12 13  1  0
 13 14  2  0
 15 14  1  6
 14 18  1  0
 15 16  1  0
 15 17  1  0
 16 17  1  0
M  END
