
     RDKit          3D

 18 21  0  0  0  0  0  0  0  0999 V2000
   -5.7780   -0.3130    0.6600 O   0  0  0  0  0  0  0  0  0  0  0  0
   -4.4720   -0.6320    0.0250 S   0  0  2  0  0  0  0  0  0  0  0  0
   -4.5680   -1.6200   -1.0770 O   0  0  0  0  0  0  0  0  0  0  0  0
   -3.2490   -1.1550    1.2030 C   0  0  0  0  0  0  0  0  0  0  0  0
   -2.0380   -0.5190    0.6470 C   0  0  0  0  0  0  0  0  0  0  0  0
   -0.6770   -0.6910    0.7760 N   0  0  0  0  0  0  0  0  0  0  0  0
   -0.0430    0.2000    0.0140 C   0  0  0  0  0  0  0  0  0  0  0  0
    1.4220    0.3690   -0.1470 C   0  0  0  0  0  0  0  0  0  0  0  0
    2.4190   -0.3340    0.4350 C   0  0  0  0  0  0  0  0  0  0  0  0
    3.7280    0.0570    0.0880 C   0  0  0  0  0  0  0  0  0  0  0  0
    4.9820   -0.5680    0.6010 C   0  0  0  0  0  0  0  0  0  0  0  0
    6.2780    0.4360   -0.2650 S   0  0  0  0  0  0  0  0  0  0  0  0
    5.1630    1.4630   -1.1200 C   0  0  0  0  0  0  0  0  0  0  0  0
    3.9390    0.9750   -0.6920 C   0  0  0  0  0  0  0  0  0  0  0  0
    2.2230    1.5510   -1.1580 S   0  0  0  0  0  0  0  0  0  0  0  0
   -0.9800    0.9210   -0.5850 N   0  0  0  0  0  0  0  0  0  0  0  0
   -2.2160    0.4910   -0.2060 C   0  0  0  0  0  0  0  0  0  0  0  0
   -3.6180    0.8620   -0.5060 C   0  0  0  0  0  0  0  0  0  0  0  0
  1  2  2  0
  2  3  2  0
  2  4  1  1
  2 18  1  0
  4  5  1  0
  5  6  1  0
  5 17  2  0
  6  7  2  0
  7  8  1  0
  7 16  1  0
  8  9  2  0
  8 15  1  0
  9 10  1  0
 10 11  2  0
 10 14  1  0
 11 12  1  0
 12 13  1  0
 13 14  2  0
 14 15  1  0
 16 17  1  0
 17 18  1  0
M  END
