
     RDKit          3D

 17 19  0  0  0  0  0  0  0  0999 V2000
   -3.3400    2.8750   -0.6400 N   0  0  0  0  0  0  0  0  0  0  0  0
   -3.2020    1.5710   -0.0910 C   0  0  0  0  0  0  0  0  0  0  0  0
   -4.2150    0.9330    0.2780 O   0  0  0  0  0  0  0  0  0  0  0  0
   -1.8530    1.0080    0.0260 C   0  0  0  0  0  0  0  0  0  0  0  0
   -0.3340    1.9110   -0.5010 S   0  0  0  0  0  0  0  0  0  0  0  0
    0.7500    0.6410   -0.0550 C   0  0  0  0  0  0  0  0  0  0  0  0
    2.2050    0.7200   -0.2250 C   0  0  0  0  0  0  0  0  0  0  0  0
    3.1130   -0.1840    0.0760 N   0  0  0  0  0  0  0  0  0  0  0  0
    4.3360    0.2800   -0.2360 C   0  0  0  0  0  0  0  0  0  0  0  0
    4.1310    1.5320   -0.7520 C   0  0  0  0  0  0  0  0  0  0  0  0
    2.8390    1.7490   -0.7240 O   0  0  0  0  0  0  0  0  0  0  0  0
   -0.0220   -0.3650    0.4480 C   0  0  0  0  0  0  0  0  0  0  0  0
   -1.3600   -0.1720    0.4880 C   0  0  0  0  0  0  0  0  0  0  0  0
   -2.2310   -1.2990    1.0540 C   0  0  0  0  0  0  0  0  0  0  0  0
   -1.7620   -2.8890    0.4010 S   0  0  0  0  0  0  0  0  0  0  0  0
    0.0230   -2.8320    0.1740 C   0  0  0  0  0  0  0  0  0  0  0  0
    0.5380   -1.6840    0.9620 C   0  0  0  0  0  0  0  0  0  0  0  0
  1  2  1  0
  2  3  2  0
  2  4  1  0
  4  5  1  0
  4 13  2  0
  5  6  1  0
  6  7  1  0
  6 12  2  0
  7  8  2  0
  7 11  1  0
  8  9  1  0
  9 10  2  0
 10 11  1  0
 12 13  1  0
 12 17  1  0
 13 14  1  0
 14 15  1  0
 15 16  1  0
 16 17  1  0
M  END
