
     RDKit          3D

 17 19  0  0  0  0  0  0  0  0999 V2000
    5.1870    0.1880    1.4580 O   0  0  0  0  0  0  0  0  0  0  0  0
    4.6220   -0.7050    0.3880 S   0  0  2  0  0  0  0  0  0  0  0  0
    5.5370   -0.6100   -0.8060 O   0  0  0  0  0  0  0  0  0  0  0  0
    3.0030   -0.1890   -0.0230 C   0  0  0  0  0  0  0  0  0  0  0  0
    2.8480    0.7770   -0.9950 C   0  0  0  0  0  0  0  0  0  0  0  0
    1.5780    1.2100   -1.3470 C   0  0  0  0  0  0  0  0  0  0  0  0
    0.4550    0.6890   -0.7380 C   0  0  0  0  0  0  0  0  0  0  0  0
   -0.8740    0.8960   -0.8570 N   0  0  0  0  0  0  0  0  0  0  0  0
   -1.5280    0.0920    0.0060 C   0  0  0  0  0  0  0  0  0  0  0  0
   -3.0090    0.0040    0.1980 C   0  0  0  0  0  0  0  0  0  0  0  0
   -3.8930    0.7380   -0.4860 C   0  0  0  0  0  0  0  0  0  0  0  0
   -5.2080    0.6120   -0.2670 C   0  0  0  0  0  0  0  0  0  0  0  0
   -5.3010   -0.6290    1.0010 S   0  0  0  0  0  0  0  0  0  0  0  0
   -3.5520   -0.8990    1.1540 C   0  0  0  0  0  0  0  0  0  0  0  0
   -0.6400   -0.6270    0.6750 N   0  0  0  0  0  0  0  0  0  0  0  0
    0.5910   -0.2930    0.2500 C   0  0  0  0  0  0  0  0  0  0  0  0
    1.8760   -0.6950    0.5690 C   0  0  0  0  0  0  0  0  0  0  0  0
  1  2  2  0
  2  3  2  0
  2  4  1  6
  4  5  2  0
  4 17  1  0
  5  6  1  0
  6  7  2  0
  7  8  1  0
  7 16  1  0
  8  9  2  0
  9 10  1  0
  9 15  1  0
 10 11  1  0
 10 14  2  0
 11 12  2  0
 12 13  1  0
 13 14  1  0
 15 16  1  0
 16 17  2  0
M  END
