
     RDKit          3D

 18 20  0  0  0  0  0  0  0  0999 V2000
   -3.0220   -1.9260   -0.7660 N   0  0  0  0  0  0  0  0  0  0  0  0
   -1.5950   -1.7420   -0.7210 C   0  0  0  0  0  0  0  0  0  0  0  0
   -1.1900   -0.3870   -0.2000 C   0  0  0  0  0  0  0  0  0  0  0  0
    0.1630   -0.0960   -0.1180 C   0  0  0  0  0  0  0  0  0  0  0  0
    1.3070   -0.9040   -0.4580 C   0  0  0  0  0  0  0  0  0  0  0  0
    2.5160   -0.4480   -0.2450 C   0  0  0  0  0  0  0  0  0  0  0  0
    2.8210    0.8030    0.3070 O   0  0  0  0  0  0  0  0  0  0  0  0
    4.1890    0.9690    0.3950 C   0  0  0  0  0  0  0  0  0  0  0  0
    4.9340    2.2840    0.9790 S   0  0  0  0  0  0  0  0  0  0  0  0
    4.8160   -0.1950   -0.1080 N   0  0  0  0  0  0  0  0  0  0  0  0
    3.7820   -1.0780   -0.5060 C   0  0  0  0  0  0  0  0  0  0  0  0
    3.9290   -2.2290   -1.0080 O   0  0  0  0  0  0  0  0  0  0  0  0
    0.1810    1.5440    0.5270 S   0  0  0  0  0  0  0  0  0  0  0  0
   -1.7090    1.6960    0.6330 C   0  0  0  0  0  0  0  0  0  0  0  0
   -2.4980    2.6880    1.0420 C   0  0  0  0  0  0  0  0  0  0  0  0
   -3.8560    2.4250    0.9710 C   0  0  0  0  0  0  0  0  0  0  0  0
   -3.8810    0.7350    0.3070 S   0  0  0  0  0  0  0  0  0  0  0  0
   -2.0040    0.6010    0.2090 C   0  0  0  0  0  0  0  0  0  0  0  0
  1  2  1  0
  2  3  1  0
  3  4  2  0
  3 18  1  0
  4  5  1  0
  4 13  1  0
  5  6  2  3
  6  7  1  0
  6 11  1  0
  7  8  1  0
  8  9  2  0
  8 10  1  0
 10 11  1  0
 11 12  2  0
 13 14  1  0
 14 15  1  0
 14 18  2  0
 15 16  2  0
 16 17  1  0
 17 18  1  0
M  END
