
     RDKit          3D

 11 11  0  0  0  0  0  0  0  0999 V2000
   -3.1440    0.2600    0.0410 N   0  0  0  0  0  0  0  0  0  0  0  0
   -2.2690   -0.4870   -0.8500 C   0  0  0  0  0  0  0  0  0  0  0  0
   -0.8500   -0.2660   -0.4750 C   0  0  0  0  0  0  0  0  0  0  0  0
   -0.2140   -1.0900    0.4370 C   0  0  0  0  0  0  0  0  0  0  0  0
    1.1130   -0.8390    0.7520 C   0  0  0  0  0  0  0  0  0  0  0  0
    1.8210    0.1960    0.1920 C   0  0  0  0  0  0  0  0  0  0  0  0
    3.2070    0.4010    0.5670 C   0  0  0  0  0  0  0  0  0  0  0  0
    3.9120    1.3210    0.0990 O   0  0  0  0  0  0  0  0  0  0  0  0
    3.7840   -0.4580    1.4850 O   0  0  0  0  0  0  0  0  0  0  0  0
    1.1560    0.9990   -0.7150 C   0  0  0  0  0  0  0  0  0  0  0  0
   -0.1640    0.7810   -1.0530 C   0  0  0  0  0  0  0  0  0  0  0  0
  1  2  1  0
  2  3  1  0
  3  4  2  0
  3 11  1  0
  4  5  1  0
  5  6  2  0
  6  7  1  0
  6 10  1  0
  7  8  2  0
  7  9  1  0
 10 11  2  0
M  CHG  1   1   1
M  END
