
     RDKit          3D

 18 20  0  0  0  0  0  0  0  0999 V2000
   -3.8550    1.6890    0.2900 N   0  0  0  0  0  0  0  0  0  0  0  0
   -3.7470    0.3220    0.0220 C   0  0  0  0  0  0  0  0  0  0  0  0
   -5.0500   -0.8550   -0.2230 S   0  0  0  0  0  0  0  0  0  0  0  0
   -3.9800   -2.2980   -0.4950 C   0  0  0  0  0  0  0  0  0  0  0  0
   -2.7200   -1.7560   -0.3760 C   0  0  0  0  0  0  0  0  0  0  0  0
   -2.5480   -0.4700   -0.1210 C   0  0  0  0  0  0  0  0  0  0  0  0
   -1.2110    0.1980    0.0240 C   0  0  0  0  0  0  0  0  0  0  0  0
    0.0070   -0.3150   -0.0570 C   0  0  0  0  0  0  0  0  0  0  0  0
    1.0870    0.4730    0.1090 C   0  0  0  0  0  0  0  0  0  0  0  0
    2.4830   -0.0080    0.0390 N   0  0  0  0  0  0  0  0  0  0  0  0
    3.5020    0.5960   -0.6860 C   0  0  0  0  0  0  0  0  0  0  0  0
    3.3770    1.2940   -1.7580 O   0  0  0  0  0  0  0  0  0  0  0  0
    4.8720    0.3820   -0.1150 C   0  0  0  0  0  0  0  0  0  0  0  0
    4.6270   -1.2770    0.6390 S   0  0  0  0  0  0  0  0  0  0  0  0
    2.8410   -1.1810    0.7430 C   0  0  0  0  0  0  0  0  0  0  0  0
    2.1390   -2.0170    1.3340 O   0  0  0  0  0  0  0  0  0  0  0  0
    0.8170    1.8450    0.3690 C   0  0  0  0  0  0  0  0  0  0  0  0
   -0.9850    1.9260    0.3600 S   0  0  0  0  0  0  0  0  0  0  0  0
  1  2  1  0
  2  3  1  0
  2  6  2  0
  3  4  1  0
  4  5  2  0
  5  6  1  0
  6  7  1  0
  7  8  2  0
  7 18  1  0
  8  9  1  0
  9 10  1  0
  9 17  2  0
 10 11  1  0
 10 15  1  0
 11 12  2  0
 11 13  1  0
 13 14  1  0
 14 15  1  0
 15 16  2  0
 17 18  1  0
M  END
