
     RDKit          3D

 18 20  0  0  0  0  0  0  0  0999 V2000
   -2.5110   -0.1090    3.3260 O   0  0  0  0  0  0  0  0  0  0  0  0
   -2.0990   -0.1030    2.1510 C   0  0  0  0  0  0  0  0  0  0  0  0
   -0.7870   -0.0780    1.8050 N   0  0  0  0  0  0  0  0  0  0  0  0
   -0.5270   -0.0760    0.4850 C   0  0  0  0  0  0  0  0  0  0  0  0
    0.9200   -0.0490    0.1520 C   0  0  0  0  0  0  0  0  0  0  0  0
    1.5260   -0.0400   -1.0540 C   0  0  0  0  0  0  0  0  0  0  0  0
    2.8610   -0.0140   -1.1230 C   0  0  0  0  0  0  0  0  0  0  0  0
    3.5520    0.0030    0.1050 C   0  0  0  0  0  0  0  0  0  0  0  0
    4.9840    0.0310    0.3060 C   0  0  0  0  0  0  0  0  0  0  0  0
    5.6320    1.2420    0.2370 O   0  0  0  0  0  0  0  0  0  0  0  0
    5.8000   -1.3300    0.6040 S   0  0  0  0  0  0  0  0  0  0  0  0
    2.2560   -0.0200    1.2650 S   0  0  0  0  0  0  0  0  0  0  0  0
   -1.4120   -0.0960   -0.5030 N   0  0  0  0  0  0  0  0  0  0  0  0
   -2.7730   -0.1220   -0.2200 C   0  0  0  0  0  0  0  0  0  0  0  0
   -3.7640   -0.1430   -1.1000 C   0  0  0  0  0  0  0  0  0  0  0  0
   -5.0830   -0.1680   -0.7000 C   0  0  0  0  0  0  0  0  0  0  0  0
   -4.8570   -0.1600    1.1280 S   0  0  0  0  0  0  0  0  0  0  0  0
   -3.0580   -0.1240    1.1410 C   0  0  0  0  0  0  0  0  0  0  0  0
  1  2  2  0
  2  3  1  0
  2 18  1  0
  3  4  2  0
  4  5  1  0
  4 13  1  0
  5  6  2  0
  5 12  1  0
  6  7  1  0
  7  8  2  0
  8  9  1  0
  8 12  1  0
  9 10  1  0
  9 11  2  0
 13 14  1  0
 14 15  1  0
 14 18  2  0
 15 16  2  0
 16 17  1  0
 17 18  1  0
M  END
