
     RDKit          3D

 13 12  0  0  0  0  0  0  0  0999 V2000
    3.4830   -0.6760    0.1450 O   0  0  0  0  0  0  0  0  0  0  0  0
    2.2600   -0.3900    0.3480 C   0  0  0  0  0  0  0  0  0  0  0  0
    1.9520    0.0240    1.6220 O   0  0  0  0  0  0  0  0  0  0  0  0
    1.3610   -0.5390   -0.7870 C   0  0  0  0  0  0  0  0  0  0  0  0
   -0.0580   -0.1110   -0.5680 C   0  0  1  0  0  0  0  0  0  0  0  0
   -0.7280   -0.3590   -1.7880 O   0  0  0  0  0  0  0  0  0  0  0  0
   -0.7290   -0.9590    0.4800 C   0  0  0  0  0  0  0  0  0  0  0  0
   -2.1270   -0.5350    0.6920 C   0  0  0  0  0  0  0  0  0  0  0  0
   -3.0690   -0.8810   -0.0980 O   0  0  0  0  0  0  0  0  0  0  0  0
   -2.5190    0.2670    1.7590 O   0  0  0  0  0  0  0  0  0  0  0  0
   -0.1170    1.3260   -0.3040 C   0  0  0  0  0  0  0  0  0  0  0  0
    0.3760    1.8900    0.7170 O   0  0  0  0  0  0  0  0  0  0  0  0
   -0.7460    2.1650   -1.2070 O   0  0  0  0  0  0  0  0  0  0  0  0
  1  2  2  0
  2  3  1  0
  2  4  1  0
  4  5  1  0
  5  6  1  6
  5  7  1  0
  5 11  1  0
  7  8  1  0
  8  9  2  0
  8 10  1  0
 11 12  2  0
 11 13  1  0
M  END
