
     RDKit          3D

 12 11  0  0  0  0  0  0  0  0999 V2000
    3.7840    0.6350    3.1740 O   0  0  0  0  0  0  0  0  0  0  0  0
    3.3820   -0.1680    2.1290 C   0  0  0  0  0  0  0  0  0  0  0  0
    2.3980    0.5310    1.4090 O   0  0  0  0  0  0  0  0  0  0  0  0
    1.9600   -0.2310    0.3500 C   0  0  0  0  0  0  0  0  0  0  0  0
    0.9080    0.5530   -0.3960 C   0  0  0  0  0  0  0  0  0  0  0  0
    0.3950   -0.1330   -1.4940 O   0  0  0  0  0  0  0  0  0  0  0  0
   -0.5960    0.6380   -2.0580 C   0  0  0  0  0  0  0  0  0  0  0  0
   -1.6570    0.8690   -1.2350 O   0  0  0  0  0  0  0  0  0  0  0  0
   -2.3820   -0.1950   -0.8050 C   0  0  2  0  0  0  0  0  0  0  0  0
   -3.6630   -0.2470   -1.3790 O   0  0  0  0  0  0  0  0  0  0  0  0
   -2.4280   -0.3360    0.6720 C   0  0  0  0  0  0  0  0  0  0  0  0
   -3.2440   -1.4420    1.0300 O   0  0  0  0  0  0  0  0  0  0  0  0
  1  2  1  0
  2  3  1  0
  3  4  1  0
  4  5  1  0
  5  6  1  0
  6  7  1  0
  7  8  1  0
  8  9  1  0
  9 10  1  1
  9 11  1  0
 11 12  1  0
M  END
