
     RDKit          3D

 12 11  0  0  0  0  0  0  0  0999 V2000
    3.4390    1.4930   -0.7230 O   0  0  0  0  0  0  0  0  0  0  0  0
    3.8010    0.4040    0.0630 C   0  0  0  0  0  0  0  0  0  0  0  0
    2.7500   -0.7020   -0.1090 C   0  0  2  0  0  0  0  0  0  0  0  0
    2.7170   -1.0620   -1.4550 O   0  0  0  0  0  0  0  0  0  0  0  0
    1.4260   -0.0770    0.2370 C   0  0  0  0  0  0  0  0  0  0  0  0
    0.3530   -0.9430    0.0340 O   0  0  0  0  0  0  0  0  0  0  0  0
   -0.7770   -0.2210    0.3960 C   0  0  0  0  0  0  0  0  0  0  0  0
   -1.9490   -0.9120    0.2630 O   0  0  0  0  0  0  0  0  0  0  0  0
   -2.9910   -0.0750    0.6580 C   0  0  2  0  0  0  0  0  0  0  0  0
   -3.6670   -0.6040    1.7560 O   0  0  0  0  0  0  0  0  0  0  0  0
   -3.9270    0.1730   -0.5060 C   0  0  0  0  0  0  0  0  0  0  0  0
   -3.1440    0.7820   -1.5100 O   0  0  0  0  0  0  0  0  0  0  0  0
  1  2  1  0
  2  3  1  0
  3  4  1  6
  3  5  1  0
  5  6  1  0
  6  7  1  0
  7  8  1  0
  8  9  1  0
  9 10  1  1
  9 11  1  0
 11 12  1  0
M  END
