
     RDKit          3D

 12 11  0  0  0  0  0  0  0  0999 V2000
    3.5390   -0.9760    1.1070 O   0  0  0  0  0  0  0  0  0  0  0  0
    3.4290    0.3650    0.7660 C   0  0  0  0  0  0  0  0  0  0  0  0
    2.2180    0.6590    0.1490 O   0  0  0  0  0  0  0  0  0  0  0  0
    2.0450   -0.0580   -1.0120 C   0  0  0  0  0  0  0  0  0  0  0  0
    0.9390    0.1030   -1.7280 O   0  0  0  0  0  0  0  0  0  0  0  0
   -0.3070   -0.1360   -1.3390 C   0  0  0  0  0  0  0  0  0  0  0  0
   -0.7910    0.6460   -0.1830 C   0  0  2  0  0  0  0  0  0  0  0  0
   -0.0880    0.3740    0.9670 O   0  0  0  0  0  0  0  0  0  0  0  0
   -2.2620    0.4410    0.1130 C   0  0  1  0  0  0  0  0  0  0  0  0
   -3.0080    0.7060   -1.0260 O   0  0  0  0  0  0  0  0  0  0  0  0
   -2.5290   -0.9650    0.6200 C   0  0  0  0  0  0  0  0  0  0  0  0
   -3.8770   -1.1200    0.9350 O   0  0  0  0  0  0  0  0  0  0  0  0
  1  2  1  0
  2  3  1  0
  3  4  1  0
  4  5  1  0
  5  6  1  0
  6  7  1  0
  7  8  1  1
  7  9  1  0
  9 10  1  6
  9 11  1  0
 11 12  1  0
M  END
