
     RDKit          3D

 23 26  0  0  0  0  0  0  0  0999 V2000
   -4.2940   -1.1850    0.9670 C   0  0  0  0  0  0  0  0  0  0  0  0
   -3.8120    0.1570    1.2230 N   0  0  0  0  0  0  0  0  0  0  0  0
   -4.4870    1.0630    0.3450 C   0  0  0  0  0  0  0  0  0  0  0  0
   -3.5790    1.9020   -0.4870 C   0  0  0  0  0  0  0  0  0  0  0  0
   -2.4570    1.1480   -1.1310 C   0  0  0  0  0  0  0  0  0  0  0  0
   -1.9690   -0.0180   -0.3330 C   0  0  1  0  0  0  0  0  0  0  0  0
   -0.5360   -0.2310   -0.3520 C   0  0  0  0  0  0  0  0  0  0  0  0
   -0.0650   -1.4580   -0.6980 N   0  0  0  0  0  0  0  0  0  0  0  0
    1.2660   -1.7100   -0.7320 C   0  0  0  0  0  0  0  0  0  0  0  0
    1.7650   -2.9110   -1.0710 N   0  0  0  0  0  0  0  0  0  0  0  0
    3.0850   -3.1780   -1.1090 C   0  0  0  0  0  0  0  0  0  0  0  0
    3.9860   -2.1880   -0.7900 C   0  0  0  0  0  0  0  0  0  0  0  0
    3.5380   -0.9450   -0.4380 C   0  0  0  0  0  0  0  0  0  0  0  0
    4.4410    0.0980   -0.1030 N   0  0  0  0  0  0  0  0  0  0  0  0
    4.8670    0.4470    1.1180 C   0  0  0  0  0  0  0  0  0  0  0  0
    5.7360    1.5120    0.9950 C   0  0  0  0  0  0  0  0  0  0  0  0
    5.8110    1.7780   -0.3170 N   0  0  0  0  0  0  0  0  0  0  0  0
    5.0330    0.9270   -0.9560 N   0  0  0  0  0  0  0  0  0  0  0  0
    2.1740   -0.7150   -0.4120 C   0  0  0  0  0  0  0  0  0  0  0  0
    1.6560    0.5310   -0.0600 C   0  0  0  0  0  0  0  0  0  0  0  0
    2.4480    1.4540    0.2350 O   0  0  0  0  0  0  0  0  0  0  0  0
    0.3280    0.7350   -0.0410 N   0  0  0  0  0  0  0  0  0  0  0  0
   -2.3770    0.2460    1.1240 C   0  0  0  0  0  0  0  0  0  0  0  0
  1  2  1  0
  2  3  1  0
  2 23  1  0
  3  4  1  0
  4  5  1  0
  5  6  1  0
  6  7  1  1
  6 23  1  0
  7  8  2  0
  7 22  1  0
  8  9  1  0
  9 10  2  0
  9 19  1  0
 10 11  1  0
 11 12  2  0
 12 13  1  0
 13 14  1  0
 13 19  2  0
 14 15  1  0
 14 18  1  0
 15 16  2  0
 16 17  1  0
 17 18  2  0
 19 20  1  0
 20 21  2  0
 20 22  1  0
M  END
