
     RDKit          3D

 20 22  0  0  0  0  0  0  0  0999 V2000
   -0.2480   -0.3390   -1.6330 O   0  0  0  0  0  0  0  0  0  0  0  0
    0.3640   -0.1290   -0.5730 C   0  0  0  0  0  0  0  0  0  0  0  0
   -0.3310    0.1790    0.6030 C   0  0  0  0  0  0  0  0  0  0  0  0
   -1.7840    0.2380    0.5170 C   0  0  0  0  0  0  0  0  0  0  0  0
   -2.4870    1.2690    1.0980 C   0  0  0  0  0  0  0  0  0  0  0  0
   -3.8690    1.3350    1.0230 C   0  0  0  0  0  0  0  0  0  0  0  0
   -4.5160    0.3240    0.3400 C   0  0  0  0  0  0  0  0  0  0  0  0
   -5.8970    0.3520    0.2410 O   0  0  0  0  0  0  0  0  0  0  0  0
   -3.8200   -0.7170   -0.2480 C   0  0  0  0  0  0  0  0  0  0  0  0
   -2.4320   -0.7670   -0.1630 C   0  0  0  0  0  0  0  0  0  0  0  0
    0.3200    0.4170    1.7900 C   0  0  0  0  0  0  0  0  0  0  0  0
    1.6110    0.3510    1.8080 O   0  0  0  0  0  0  0  0  0  0  0  0
    2.3160    0.0630    0.7220 C   0  0  0  0  0  0  0  0  0  0  0  0
    3.7030    0.0070    0.8070 C   0  0  0  0  0  0  0  0  0  0  0  0
    4.4440   -0.2880   -0.3020 C   0  0  0  0  0  0  0  0  0  0  0  0
    5.8260   -0.3360   -0.1810 O   0  0  0  0  0  0  0  0  0  0  0  0
    3.9020   -0.5410   -1.5310 C   0  0  0  0  0  0  0  0  0  0  0  0
    2.4990   -0.4880   -1.6320 C   0  0  0  0  0  0  0  0  0  0  0  0
    1.9710   -0.7410   -2.8550 O   0  0  0  0  0  0  0  0  0  0  0  0
    1.7290   -0.1870   -0.5020 C   0  0  0  0  0  0  0  0  0  0  0  0
  1  2  2  0
  2  3  1  0
  2 20  1  0
  3  4  1  0
  3 11  2  0
  4  5  2  0
  4 10  1  0
  5  6  1  0
  6  7  2  0
  7  8  1  0
  7  9  1  0
  9 10  2  0
 11 12  1  0
 12 13  1  0
 13 14  2  0
 13 20  1  0
 14 15  1  0
 15 16  1  0
 15 17  2  0
 17 18  1  0
 18 19  1  0
 18 20  2  0
M  END
