
     RDKit          3D

 23 26  0  0  0  0  0  0  0  0999 V2000
    2.3100    1.7160    1.4720 O   0  0  0  0  0  0  0  0  0  0  0  0
    2.2060    0.7760    0.6380 C   0  0  0  0  0  0  0  0  0  0  0  0
    3.1940    0.2620   -0.1190 N   0  0  0  0  0  0  0  0  0  0  0  0
    4.5330    0.7530   -0.0490 C   0  0  0  0  0  0  0  0  0  0  0  0
    5.3980    0.3000    0.9310 C   0  0  0  0  0  0  0  0  0  0  0  0
    6.6660    0.7410    1.0270 N   0  0  0  0  0  0  0  0  0  0  0  0
    7.1560    1.6550    0.1650 C   0  0  0  0  0  0  0  0  0  0  0  0
    6.2990    2.1120   -0.8150 C   0  0  0  0  0  0  0  0  0  0  0  0
    5.0280    1.6640   -0.9070 N   0  0  0  0  0  0  0  0  0  0  0  0
    2.7100   -0.7130   -0.8770 N   0  0  0  0  0  0  0  0  0  0  0  0
    1.3820   -0.7920   -0.5680 C   0  0  0  0  0  0  0  0  0  0  0  0
    1.0820    0.1290    0.3660 N   0  0  0  0  0  0  0  0  0  0  0  0
   -0.2310    0.3870    0.9840 C   0  0  0  0  0  0  0  0  0  0  0  0
   -0.8200   -0.9940    1.2080 C   0  0  0  0  0  0  0  0  0  0  0  0
   -1.6870   -1.3290    0.0390 C   0  0  1  0  0  0  0  0  0  0  0  0
   -2.6330   -0.2150   -0.1330 N   0  0  0  0  0  0  0  0  0  0  0  0
   -3.4760   -0.0820    1.0110 C   0  0  0  0  0  0  0  0  0  0  0  0
   -4.3800    1.1000    0.7710 C   0  0  0  0  0  0  0  0  0  0  0  0
   -5.1480    0.9670   -0.3310 C   0  0  0  0  0  0  0  0  0  0  0  0
   -4.9240   -0.3290   -1.0600 C   0  0  0  0  0  0  0  0  0  0  0  0
   -3.4440   -0.4080   -1.3150 C   0  0  0  0  0  0  0  0  0  0  0  0
   -0.9810   -1.6590   -1.2220 C   0  0  0  0  0  0  0  0  0  0  0  0
    0.4610   -1.7070   -1.1410 N   0  0  0  0  0  0  0  0  0  0  0  0
  1  2  2  0
  2  3  1  0
  2 12  1  0
  3  4  1  0
  3 10  1  0
  4  5  2  0
  4  9  1  0
  5  6  1  0
  6  7  2  0
  7  8  1  0
  8  9  2  0
 10 11  2  0
 11 12  1  0
 11 23  1  0
 12 13  1  0
 13 14  1  0
 14 15  1  0
 15 16  1  6
 15 22  1  0
 16 17  1  0
 16 21  1  0
 17 18  1  0
 18 19  2  0
 19 20  1  0
 20 21  1  0
 22 23  1  0
M  END
