
     RDKit          3D

 15 15  0  0  0  0  0  0  0  0999 V2000
    3.8280    1.4390   -0.6230 C   0  0  0  0  0  0  0  0  0  0  0  0
    4.0150    0.4680    0.5240 C   0  0  0  0  0  0  0  0  0  0  0  0
    3.0640   -0.5370    0.5370 O   0  0  0  0  0  0  0  0  0  0  0  0
    1.7660   -0.0350    0.6570 C   0  0  0  0  0  0  0  0  0  0  0  0
    0.8510   -1.2380    0.6560 C   0  0  2  0  0  0  0  0  0  0  0  0
    1.0550   -1.9260   -0.5950 N   0  0  0  0  0  0  0  0  0  0  0  0
   -0.5330   -0.9980    1.0360 C   0  0  0  0  0  0  0  0  0  0  0  0
   -1.4060   -0.0830    0.3150 C   0  0  2  0  0  0  0  0  0  0  0  0
   -0.9660    1.2370    0.2360 O   0  0  0  0  0  0  0  0  0  0  0  0
   -2.6930    0.0730    1.1960 C   0  0  0  0  0  0  0  0  0  0  0  0
   -3.8500    0.4830    0.3420 C   0  0  0  0  0  0  0  0  0  0  0  0
   -3.4740    1.2580   -0.9000 C   0  0  0  0  0  0  0  0  0  0  0  0
   -2.6810    0.3580   -1.7020 O   0  0  0  0  0  0  0  0  0  0  0  0
   -1.9320   -0.6000   -0.9600 C   0  0  0  0  0  0  0  0  0  0  0  0
   -1.7760   -1.7590   -1.4060 O   0  0  0  0  0  0  0  0  0  0  0  0
  1  2  1  0
  2  3  1  0
  3  4  1  0
  4  5  1  0
  5  6  1  6
  5  7  1  0
  7  8  1  0
  8  9  1  6
  8 10  1  0
  8 14  1  0
 10 11  1  0
 11 12  1  0
 12 13  1  0
 13 14  1  0
 14 15  2  0
M  CHG  1   6   1
M  END
