
     RDKit          3D

 23 26  0  0  0  0  0  0  0  0999 V2000
   -6.0870    0.8690    0.5420 C   0  0  0  0  0  0  0  0  0  0  0  0
   -4.8830    0.5960   -0.3330 C   0  0  2  0  0  0  0  0  0  0  0  0
   -5.2020    0.8350   -1.6700 O   0  0  0  0  0  0  0  0  0  0  0  0
   -4.4440   -0.8540   -0.2140 C   0  0  0  0  0  0  0  0  0  0  0  0
   -3.0050   -0.9250   -0.6860 C   0  0  0  0  0  0  0  0  0  0  0  0
   -2.1410   -0.4060    0.4690 C   0  0  1  0  0  0  0  0  0  0  0  0
   -0.8640    0.0420   -0.0340 N   0  0  0  0  0  0  0  0  0  0  0  0
    0.3280   -0.4770    0.2590 C   0  0  0  0  0  0  0  0  0  0  0  0
    1.3060    0.2410   -0.4320 C   0  0  0  0  0  0  0  0  0  0  0  0
    2.7420    0.0280   -0.4140 C   0  0  0  0  0  0  0  0  0  0  0  0
    3.2360   -0.9340    0.3150 C   0  0  0  0  0  0  0  0  0  0  0  0
    4.6810   -1.1460    0.3300 C   0  0  0  0  0  0  0  0  0  0  0  0
    5.3600   -2.0810    1.0170 N   0  0  0  0  0  0  0  0  0  0  0  0
    6.6540   -1.9670    0.7840 N   0  0  0  0  0  0  0  0  0  0  0  0
    6.8410   -0.9360   -0.0750 C   0  0  0  0  0  0  0  0  0  0  0  0
    5.6220   -0.4430   -0.3440 N   0  0  0  0  0  0  0  0  0  0  0  0
    5.7500    0.6250   -1.2270 N   0  0  0  0  0  0  0  0  0  0  0  0
    6.9790    0.8480   -1.5420 C   0  0  0  0  0  0  0  0  0  0  0  0
    7.8360   -0.1350   -0.8360 C   0  0  0  0  0  0  0  0  0  0  0  0
    0.6430    1.1680   -1.1150 N   0  0  0  0  0  0  0  0  0  0  0  0
   -0.6650    1.0360   -0.8650 N   0  0  0  0  0  0  0  0  0  0  0  0
   -2.8760    0.7570    1.1360 C   0  0  0  0  0  0  0  0  0  0  0  0
   -3.7370    1.4820    0.1130 C   0  0  0  0  0  0  0  0  0  0  0  0
  2  1  1  1
  2  3  1  0
  2  4  1  0
  2 23  1  0
  4  5  1  0
  5  6  1  0
  6  7  1  6
  6 22  1  0
  7  8  1  0
  7 21  1  0
  8  9  2  0
  9 10  1  0
  9 20  1  0
 10 11  2  3
 11 12  1  0
 12 13  2  0
 12 16  1  0
 13 14  1  0
 14 15  2  0
 15 16  1  0
 15 19  1  0
 16 17  1  0
 17 18  2  0
 18 19  1  0
 20 21  2  0
 22 23  1  0
M  END
