
     RDKit          3D

 22 25  0  0  0  0  0  0  0  0999 V2000
   -0.3900   -0.2440    2.1360 O   0  0  0  0  0  0  0  0  0  0  0  0
    0.3330   -0.1340    0.9450 C   0  0  0  0  0  0  0  0  0  0  0  0
    1.6900   -0.1320    0.9340 N   0  0  0  0  0  0  0  0  0  0  0  0
    2.3840   -0.0260   -0.2110 C   0  0  0  0  0  0  0  0  0  0  0  0
    3.8420   -0.0220   -0.2480 C   0  0  0  0  0  0  0  0  0  0  0  0
    4.5030    0.0890   -1.4510 C   0  0  0  0  0  0  0  0  0  0  0  0
    5.8980    0.0880   -1.4250 C   0  0  0  0  0  0  0  0  0  0  0  0
    6.5990   -0.0160   -0.2870 N   0  0  0  0  0  0  0  0  0  0  0  0
    5.9740   -0.1250    0.8970 C   0  0  0  0  0  0  0  0  0  0  0  0
    4.5960   -0.1260    0.8980 C   0  0  0  0  0  0  0  0  0  0  0  0
    1.6910    0.0780   -1.3540 N   0  0  0  0  0  0  0  0  0  0  0  0
    0.3440    0.0810   -1.3990 C   0  0  0  0  0  0  0  0  0  0  0  0
   -0.3830   -0.0260   -0.2320 C   0  0  0  0  0  0  0  0  0  0  0  0
   -1.8260   -0.0310   -0.1980 C   0  0  0  0  0  0  0  0  0  0  0  0
   -2.6260   -0.1300    0.8740 N   0  0  0  0  0  0  0  0  0  0  0  0
   -3.9180   -0.0920    0.4550 C   0  0  0  0  0  0  0  0  0  0  0  0
   -5.1080   -0.1510    1.0810 N   0  0  0  0  0  0  0  0  0  0  0  0
   -6.2760   -0.0870    0.3800 C   0  0  0  0  0  0  0  0  0  0  0  0
   -6.2520    0.0390   -0.9920 C   0  0  0  0  0  0  0  0  0  0  0  0
   -5.0360    0.0970   -1.6100 C   0  0  0  0  0  0  0  0  0  0  0  0
   -3.9100    0.0300   -0.8810 N   0  0  0  0  0  0  0  0  0  0  0  0
   -2.6330    0.0660   -1.2590 N   0  0  0  0  0  0  0  0  0  0  0  0
  1  2  1  0
  2  3  2  0
  2 13  1  0
  3  4  1  0
  4  5  1  0
  4 11  2  0
  5  6  2  0
  5 10  1  0
  6  7  1  0
  7  8  2  0
  8  9  1  0
  9 10  2  0
 11 12  1  0
 12 13  2  0
 13 14  1  0
 14 15  1  0
 14 22  2  0
 15 16  2  0
 16 17  1  0
 16 21  1  0
 17 18  2  0
 18 19  1  0
 19 20  2  0
 20 21  1  0
 21 22  1  0
M  END
