
     RDKit          3D

 23 26  0  0  0  0  0  0  0  0999 V2000
   -3.4070    2.0100   -1.0030 C   0  0  0  0  0  0  0  0  0  0  0  0
   -2.9120    0.6660   -0.9040 N   0  0  0  0  0  0  0  0  0  0  0  0
   -3.6640   -0.2700   -1.7060 C   0  0  0  0  0  0  0  0  0  0  0  0
   -3.7420   -1.6370   -1.0660 C   0  0  0  0  0  0  0  0  0  0  0  0
   -2.4340   -1.9990   -0.3900 C   0  0  0  0  0  0  0  0  0  0  0  0
   -2.0280   -1.0180    0.6570 C   0  0  1  0  0  0  0  0  0  0  0  0
   -0.6210   -0.6600    0.6690 C   0  0  0  0  0  0  0  0  0  0  0  0
    0.0900   -0.8200    1.7960 N   0  0  0  0  0  0  0  0  0  0  0  0
    1.4040   -0.5060    1.8750 C   0  0  0  0  0  0  0  0  0  0  0  0
    2.1230   -0.6630    3.0000 N   0  0  0  0  0  0  0  0  0  0  0  0
    3.4340   -0.3470    3.0700 C   0  0  0  0  0  0  0  0  0  0  0  0
    4.1050    0.1550    1.9900 C   0  0  0  0  0  0  0  0  0  0  0  0
    3.4090    0.3360    0.8060 C   0  0  0  0  0  0  0  0  0  0  0  0
    4.0040    0.8460   -0.3680 N   0  0  0  0  0  0  0  0  0  0  0  0
    4.6450    0.1580   -1.3290 C   0  0  0  0  0  0  0  0  0  0  0  0
    5.0830    1.0230   -2.3120 C   0  0  0  0  0  0  0  0  0  0  0  0
    4.6800    2.2360   -1.8980 N   0  0  0  0  0  0  0  0  0  0  0  0
    4.0430    2.1100   -0.7430 N   0  0  0  0  0  0  0  0  0  0  0  0
    2.0540   -0.0020    0.7680 C   0  0  0  0  0  0  0  0  0  0  0  0
    1.3310    0.1660   -0.3950 C   0  0  0  0  0  0  0  0  0  0  0  0
    1.9170    0.6270   -1.4120 O   0  0  0  0  0  0  0  0  0  0  0  0
    0.0370   -0.1660   -0.3990 N   0  0  0  0  0  0  0  0  0  0  0  0
   -2.8300    0.2680    0.4830 C   0  0  0  0  0  0  0  0  0  0  0  0
  1  2  1  0
  2  3  1  0
  2 23  1  0
  3  4  1  0
  4  5  1  0
  5  6  1  0
  6  7  1  6
  6 23  1  0
  7  8  2  0
  7 22  1  0
  8  9  1  0
  9 10  2  0
  9 19  1  0
 10 11  1  0
 11 12  2  0
 12 13  1  0
 13 14  1  0
 13 19  2  0
 14 15  1  0
 14 18  1  0
 15 16  2  0
 16 17  1  0
 17 18  2  0
 19 20  1  0
 20 21  2  0
 20 22  1  0
M  END
