
     RDKit          3D

 15 15  0  0  0  0  0  0  0  0999 V2000
    5.7370   -0.9680   -0.8280 C   0  0  0  0  0  0  0  0  0  0  0  0
    4.4230   -0.5810   -0.2530 C   0  0  0  0  0  0  0  0  0  0  0  0
    3.7440   -1.4550    0.3170 O   0  0  0  0  0  0  0  0  0  0  0  0
    3.9700    0.7250   -0.3520 O   0  0  0  0  0  0  0  0  0  0  0  0
    2.7480    1.1590    0.1630 C   0  0  0  0  0  0  0  0  0  0  0  0
    1.5400    0.4600   -0.4230 C   0  0  0  0  0  0  0  0  0  0  0  0
    0.4210    0.9890    0.1750 O   0  0  0  0  0  0  0  0  0  0  0  0
   -0.7740    0.4830   -0.2250 C   0  0  2  0  0  0  0  0  0  0  0  0
   -1.5610    1.6120   -0.8590 C   0  0  0  0  0  0  0  0  0  0  0  0
   -3.0310    1.3580   -0.8980 C   0  0  0  0  0  0  0  0  0  0  0  0
   -3.3640   -0.1130   -0.9260 C   0  0  0  0  0  0  0  0  0  0  0  0
   -2.7790   -0.8390    0.2370 C   0  0  1  0  0  0  0  0  0  0  0  0
   -2.3880   -2.1630   -0.1890 N   0  0  0  0  0  0  0  0  0  0  0  0
   -1.6180   -0.1030    0.8740 C   0  0  2  0  0  0  0  0  0  0  0  0
   -2.1500    0.9400    1.6130 O   0  0  0  0  0  0  0  0  0  0  0  0
  1  2  1  0
  2  3  2  0
  2  4  1  0
  4  5  1  0
  5  6  1  0
  6  7  1  0
  8  7  1  1
  8  9  1  0
  8 14  1  0
  9 10  1  0
 10 11  1  0
 11 12  1  0
 12 13  1  6
 12 14  1  0
 14 15  1  1
M  CHG  1  13   1
M  END
