
     RDKit          3D

 23 26  0  0  0  0  0  0  0  0999 V2000
   -2.0790    0.1540    2.3240 C   0  0  0  0  0  0  0  0  0  0  0  0
   -2.1230   -0.5710    0.9990 C   0  0  0  0  0  0  0  0  0  0  0  0
   -2.6300   -1.7350    0.7850 N   0  0  0  0  0  0  0  0  0  0  0  0
   -2.4840   -2.0910   -0.6030 C   0  0  0  0  0  0  0  0  0  0  0  0
   -1.7970   -0.9320   -1.1880 C   0  0  0  0  0  0  0  0  0  0  0  0
   -1.4280   -0.8510   -2.6400 C   0  0  0  0  0  0  0  0  0  0  0  0
   -1.5890   -0.0460   -0.2460 C   0  0  0  0  0  0  0  0  0  0  0  0
   -0.9880    1.2050   -0.3880 N   0  0  0  0  0  0  0  0  0  0  0  0
   -1.7270    2.3170   -0.7290 C   0  0  0  0  0  0  0  0  0  0  0  0
   -3.1880    2.3710   -0.9860 C   0  0  0  0  0  0  0  0  0  0  0  0
   -0.8780    3.3570   -0.7880 N   0  0  0  0  0  0  0  0  0  0  0  0
    0.3210    2.9010   -0.4970 N   0  0  0  0  0  0  0  0  0  0  0  0
    0.2660    1.5540   -0.2440 C   0  0  0  0  0  0  0  0  0  0  0  0
    1.4330    0.7940    0.1010 C   0  0  0  0  0  0  0  0  0  0  0  0
    2.6950    1.4200    0.1920 C   0  0  0  0  0  0  0  0  0  0  0  0
    3.8430    0.7480    0.5170 C   0  0  0  0  0  0  0  0  0  0  0  0
    3.8080   -0.5660    0.7670 N   0  0  0  0  0  0  0  0  0  0  0  0
    4.7860   -1.4560    1.1060 C   0  0  0  0  0  0  0  0  0  0  0  0
    6.0080   -1.1900    1.2600 O   0  0  0  0  0  0  0  0  0  0  0  0
    4.1500   -2.6350    1.2280 N   0  0  0  0  0  0  0  0  0  0  0  0
    2.8630   -2.4830    0.9810 N   0  0  0  0  0  0  0  0  0  0  0  0
    2.6390   -1.1930    0.6920 C   0  0  0  0  0  0  0  0  0  0  0  0
    1.4510   -0.5460    0.3650 C   0  0  0  0  0  0  0  0  0  0  0  0
  1  2  1  0
  2  3  2  0
  2  7  1  0
  3  4  1  0
  4  5  1  0
  5  6  1  0
  5  7  2  0
  7  8  1  0
  8  9  1  0
  8 13  1  0
  9 10  1  0
  9 11  2  0
 11 12  1  0
 12 13  2  0
 13 14  1  0
 14 15  1  0
 14 23  2  0
 15 16  2  0
 16 17  1  0
 17 18  1  0
 17 22  1  0
 18 19  2  0
 18 20  1  0
 20 21  1  0
 21 22  2  0
 22 23  1  0
M  END
