
     RDKit          3D

 23 26  0  0  0  0  0  0  0  0999 V2000
   -5.7360    0.3200   -1.1120 C   0  0  0  0  0  0  0  0  0  0  0  0
   -5.1190    0.1590    0.2820 C   0  0  1  0  0  0  0  0  0  0  0  0
   -5.5020   -1.2090    0.7880 C   0  0  0  0  0  0  0  0  0  0  0  0
   -3.6530    0.3370    0.2010 C   0  0  0  0  0  0  0  0  0  0  0  0
   -2.9820    1.2950    0.8510 N   0  0  0  0  0  0  0  0  0  0  0  0
   -1.6620    1.1920    0.5720 C   0  0  0  0  0  0  0  0  0  0  0  0
   -0.6120    1.9200    0.9820 N   0  0  0  0  0  0  0  0  0  0  0  0
    0.6470    1.6160    0.5530 C   0  0  0  0  0  0  0  0  0  0  0  0
    1.5900    2.3590    0.9700 O   0  0  0  0  0  0  0  0  0  0  0  0
    0.7940    0.5580   -0.2920 C   0  0  0  0  0  0  0  0  0  0  0  0
    2.0560    0.0350   -0.7360 C   0  0  0  0  0  0  0  0  0  0  0  0
    2.1820   -0.3880   -2.0150 C   0  0  0  0  0  0  0  0  0  0  0  0
    3.4120   -0.9300   -2.5510 C   0  0  0  0  0  0  0  0  0  0  0  0
    4.4890   -1.0440   -1.8000 C   0  0  0  0  0  0  0  0  0  0  0  0
    4.4340   -0.6220   -0.4200 N   0  0  0  0  0  0  0  0  0  0  0  0
    5.6520   -0.6720    0.3490 C   0  0  0  0  0  0  0  0  0  0  0  0
    5.4540   -0.3680    1.7270 N   0  0  0  0  0  0  0  0  0  0  0  0
    4.3440   -0.0060    2.2300 C   0  0  0  0  0  0  0  0  0  0  0  0
    3.1600    0.1390    1.4210 C   0  0  0  0  0  0  0  0  0  0  0  0
    3.2160   -0.0910    0.1110 C   0  0  0  0  0  0  0  0  0  0  0  0
   -0.3290   -0.1400   -0.6720 N   0  0  0  0  0  0  0  0  0  0  0  0
   -1.5430    0.1500   -0.2640 N   0  0  0  0  0  0  0  0  0  0  0  0
   -2.7500   -0.3740   -0.4930 N   0  0  0  0  0  0  0  0  0  0  0  0
  2  1  1  6
  2  3  1  0
  2  4  1  0
  4  5  1  0
  4 23  2  0
  5  6  2  0
  6  7  1  0
  6 22  1  0
  7  8  1  0
  8  9  2  0
  8 10  1  0
 10 11  1  0
 10 21  2  0
 11 12  2  0
 11 20  1  0
 12 13  1  0
 13 14  2  0
 14 15  1  0
 15 16  1  0
 15 20  1  0
 16 17  1  0
 17 18  2  0
 18 19  1  0
 19 20  2  0
 21 22  1  0
 22 23  1  0
M  END
