
     RDKit          3D

 14 14  0  0  0  0  0  0  0  0999 V2000
    3.9950    0.9110   -0.6500 C   0  0  0  0  0  0  0  0  0  0  0  0
    3.0350    0.0350   -1.1510 O   0  0  0  0  0  0  0  0  0  0  0  0
    2.2700   -0.4860   -0.1400 C   0  0  2  0  0  0  0  0  0  0  0  0
    2.4900   -1.9980   -0.0010 C   0  0  0  0  0  0  0  0  0  0  0  0
    3.8290   -2.1870    0.2770 O   0  0  0  0  0  0  0  0  0  0  0  0
    0.8870   -0.1960   -0.2820 O   0  0  0  0  0  0  0  0  0  0  0  0
    0.2080    0.4920    0.6810 C   0  0  0  0  0  0  0  0  0  0  0  0
    0.8200    0.8740    1.7110 O   0  0  0  0  0  0  0  0  0  0  0  0
   -1.2350    0.8350    0.6090 C   0  0  1  0  0  0  0  0  0  0  0  0
   -1.5970    1.6640   -0.5230 C   0  0  0  0  0  0  0  0  0  0  0  0
   -2.6610    1.2070   -1.1390 C   0  0  0  0  0  0  0  0  0  0  0  0
   -3.1620   -0.0070   -0.4950 C   0  0  2  0  0  0  0  0  0  0  0  0
   -4.2060    0.2480    0.4780 N   0  0  0  0  0  0  0  0  0  0  0  0
   -1.9490   -0.4900    0.3000 C   0  0  0  0  0  0  0  0  0  0  0  0
  1  2  1  0
  2  3  1  0
  3  4  1  6
  3  6  1  0
  4  5  1  0
  6  7  1  0
  7  8  2  0
  9  7  1  6
  9 10  1  0
  9 14  1  0
 10 11  2  0
 11 12  1  0
 12 13  1  1
 12 14  1  0
M  CHG  1  13   1
M  END
