
     RDKit          3D

 15 15  0  0  0  0  0  0  0  0999 V2000
   -3.4800    1.4350   -0.6820 C   0  0  0  0  0  0  0  0  0  0  0  0
   -3.8200    0.0150   -0.3250 C   0  0  0  0  0  0  0  0  0  0  0  0
   -2.8220   -0.8880   -0.6740 O   0  0  0  0  0  0  0  0  0  0  0  0
   -1.6550   -0.5140    0.0170 C   0  0  0  0  0  0  0  0  0  0  0  0
   -0.5190   -1.4510   -0.3100 C   0  0  2  0  0  0  0  0  0  0  0  0
   -1.0130   -2.7890    0.0960 N   0  0  0  0  0  0  0  0  0  0  0  0
    0.6450   -1.1820    0.5660 C   0  0  0  0  0  0  0  0  0  0  0  0
    1.2540    0.1890    0.5010 C   0  0  2  0  0  0  0  0  0  0  0  0
    0.3930    1.2200    0.8500 O   0  0  0  0  0  0  0  0  0  0  0  0
    1.8050    0.3580   -0.8890 C   0  0  0  0  0  0  0  0  0  0  0  0
    2.8580    1.3880   -1.0270 C   0  0  0  0  0  0  0  0  0  0  0  0
    3.8770    1.4350    0.0620 C   0  0  0  0  0  0  0  0  0  0  0  0
    3.4520    0.9380    1.2890 O   0  0  0  0  0  0  0  0  0  0  0  0
    2.3330    0.2090    1.5330 C   0  0  0  0  0  0  0  0  0  0  0  0
    2.1910   -0.4420    2.5980 O   0  0  0  0  0  0  0  0  0  0  0  0
  1  2  1  0
  2  3  1  0
  3  4  1  0
  4  5  1  0
  5  6  1  1
  5  7  1  0
  7  8  1  0
  8  9  1  1
  8 10  1  0
  8 14  1  0
 10 11  1  0
 11 12  1  0
 12 13  1  0
 13 14  1  0
 14 15  2  0
M  CHG  1   6   1
M  END
