
     RDKit          3D

  9  8  0  0  0  0  0  0  0  0999 V2000
   -3.7060   -0.4990    1.0180 O   0  0  0  0  0  0  0  0  0  0  0  0
   -3.4240    0.0740   -0.2070 C   0  0  0  0  0  0  0  0  0  0  0  0
   -1.9260    0.3790   -0.3290 C   0  0  0  0  0  0  0  0  0  0  0  0
   -1.2110   -0.9260   -0.1890 C   0  0  0  0  0  0  0  0  0  0  0  0
    0.2890   -0.7900   -0.2890 C   0  0  0  0  0  0  0  0  0  0  0  0
    0.8500    0.0720    0.7270 N   0  0  0  0  0  0  0  0  0  0  0  0
    1.9920    0.7560    0.1110 C   0  0  0  0  0  0  0  0  0  0  0  0
    3.3020    0.2570    0.6870 C   0  0  0  0  0  0  0  0  0  0  0  0
    4.3210    0.9490    0.0570 O   0  0  0  0  0  0  0  0  0  0  0  0
  1  2  1  0
  2  3  1  0
  3  4  1  0
  4  5  1  0
  5  6  1  0
  6  7  1  0
  7  8  1  0
  8  9  1  0
M  CHG  1   6   1
M  END
