
     RDKit          3D

  9  8  0  0  0  0  0  0  0  0999 V2000
   -1.4360   -1.9890   -0.2110 C   0  0  0  0  0  0  0  0  0  0  0  0
   -0.6040   -0.7010    0.0310 C   0  0  2  0  0  0  0  0  0  0  0  0
   -0.0060   -0.9080    1.4060 C   0  0  0  0  0  0  0  0  0  0  0  0
   -1.6520    0.3640    0.1500 C   0  0  0  0  0  0  0  0  0  0  0  0
   -1.2000    1.6980    0.2680 N   0  0  0  0  0  0  0  0  0  0  0  0
    0.2330   -0.6500   -0.9880 O   0  0  0  0  0  0  0  0  0  0  0  0
    1.1460    0.2760   -1.2030 C   0  0  0  0  0  0  0  0  0  0  0  0
    2.2210    0.4680   -0.1730 C   0  0  0  0  0  0  0  0  0  0  0  0
    3.0420    1.5140   -0.6710 O   0  0  0  0  0  0  0  0  0  0  0  0
  2  1  1  6
  2  3  1  0
  2  4  1  0
  2  6  1  0
  4  5  1  0
  6  7  1  0
  7  8  1  0
  8  9  1  0
M  CHG  1   5   1
M  END
