
     RDKit          3D

  9  8  0  0  0  0  0  0  0  0999 V2000
   -1.2590    0.2750    1.4430 C   0  0  0  0  0  0  0  0  0  0  0  0
   -1.2140   -0.0830   -0.0460 C   0  0  1  0  0  0  0  0  0  0  0  0
   -1.4300   -1.5490   -0.1940 C   0  0  0  0  0  0  0  0  0  0  0  0
   -2.3710    0.6350   -0.7360 C   0  0  0  0  0  0  0  0  0  0  0  0
   -2.2150    1.9850   -0.4910 O   0  0  0  0  0  0  0  0  0  0  0  0
   -0.0520    0.3950   -0.5870 O   0  0  0  0  0  0  0  0  0  0  0  0
    1.0930   -0.1200   -0.0020 C   0  0  0  0  0  0  0  0  0  0  0  0
    2.3430    0.4480   -0.6460 C   0  0  0  0  0  0  0  0  0  0  0  0
    3.5410   -0.0820   -0.0440 N   0  0  0  0  0  0  0  0  0  0  0  0
  2  1  1  1
  2  3  1  0
  2  4  1  0
  2  6  1  0
  4  5  1  0
  6  7  1  0
  7  8  1  0
  8  9  1  0
M  CHG  1   9   1
M  END
