
     RDKit          3D

  9  8  0  0  0  0  0  0  0  0999 V2000
    0.1420    0.5950   -2.0130 C   0  0  0  0  0  0  0  0  0  0  0  0
   -0.3120    0.0770   -0.8980 C   0  0  0  0  0  0  0  0  0  0  0  0
   -1.4390    0.6700   -0.2210 C   0  0  0  0  0  0  0  0  0  0  0  0
   -1.9220    0.1670    0.9110 C   0  0  0  0  0  0  0  0  0  0  0  0
   -3.0360    0.7810    1.5480 N   0  0  0  0  0  0  0  0  0  0  0  0
    0.2790   -1.0430   -0.3520 O   0  0  0  0  0  0  0  0  0  0  0  0
    1.6200   -1.3640   -0.5570 C   0  0  0  0  0  0  0  0  0  0  0  0
    2.4790   -0.2270   -0.0230 C   0  0  0  0  0  0  0  0  0  0  0  0
    2.1950   -0.1060    1.3380 O   0  0  0  0  0  0  0  0  0  0  0  0
  1  2  2  0
  2  3  1  0
  2  6  1  0
  3  4  2  3
  4  5  1  0
  6  7  1  0
  7  8  1  0
  8  9  1  0
M  CHG  1   5   1
M  END
