
     RDKit          3D

  9  8  0  0  0  0  0  0  0  0999 V2000
   -3.3060    0.6360   -0.2160 N   0  0  0  0  0  0  0  0  0  0  0  0
   -2.4610   -0.5520   -0.0330 C   0  0  0  0  0  0  0  0  0  0  0  0
   -1.0850   -0.0300    0.3220 C   0  0  0  0  0  0  0  0  0  0  0  0
   -0.1030   -1.1600    0.5400 C   0  0  0  0  0  0  0  0  0  0  0  0
    1.2650   -0.6780    0.8950 C   0  0  0  0  0  0  0  0  0  0  0  0
    1.8900    0.1950   -0.1580 C   0  0  0  0  0  0  0  0  0  0  0  0
    3.2650    0.6320    0.2800 C   0  0  0  0  0  0  0  0  0  0  0  0
    3.7050    0.2490    1.3900 O   0  0  0  0  0  0  0  0  0  0  0  0
    4.0430    1.4380   -0.5110 O   0  0  0  0  0  0  0  0  0  0  0  0
  1  2  1  0
  2  3  1  0
  3  4  1  0
  4  5  1  0
  5  6  1  0
  6  7  1  0
  7  8  2  0
  7  9  1  0
M  CHG  1   1   1
M  END
