
     RDKit          3D

  9  8  0  0  0  0  0  0  0  0999 V2000
    1.9990   -1.5800    0.0150 C   0  0  0  0  0  0  0  0  0  0  0  0
    1.2980   -0.4840    0.0190 C   0  0  0  0  0  0  0  0  0  0  0  0
    1.9810    0.8170    0.1470 C   0  0  0  0  0  0  0  0  0  0  0  0
    1.5850    1.5400    1.2630 O   0  0  0  0  0  0  0  0  0  0  0  0
   -0.1470   -0.5030   -0.0990 C   0  0  0  0  0  0  0  0  0  0  0  0
   -0.7740   -1.7870   -0.2220 N   0  0  0  0  0  0  0  0  0  0  0  0
   -0.8830    0.5920   -0.0980 C   0  0  0  0  0  0  0  0  0  0  0  0
   -2.3460    0.4670   -0.2240 C   0  0  0  0  0  0  0  0  0  0  0  0
   -3.0340    0.9960    0.8640 O   0  0  0  0  0  0  0  0  0  0  0  0
  1  2  2  0
  2  3  1  0
  2  5  1  0
  3  4  1  0
  5  6  1  0
  5  7  2  3
  7  8  1  0
  8  9  1  0
M  END
