
     RDKit          3D

  9  8  0  0  0  0  0  0  0  0999 V2000
    2.7680    0.6670   -0.0960 N   0  0  0  0  0  0  0  0  0  0  0  0
    2.2330   -0.5230    0.4980 C   0  0  0  0  0  0  0  0  0  0  0  0
    1.0960   -1.0180   -0.3990 C   0  0  0  0  0  0  0  0  0  0  0  0
    0.0910    0.0500   -0.4580 C   0  0  0  0  0  0  0  0  0  0  0  0
   -1.1600   -0.0270   -0.0780 C   0  0  0  0  0  0  0  0  0  0  0  0
   -1.7850   -1.2450    0.4910 C   0  0  0  0  0  0  0  0  0  0  0  0
   -2.8490   -1.6310   -0.3310 O   0  0  0  0  0  0  0  0  0  0  0  0
   -2.0570    1.1620   -0.2060 C   0  0  0  0  0  0  0  0  0  0  0  0
   -1.3470    2.2240   -0.7490 O   0  0  0  0  0  0  0  0  0  0  0  0
  1  2  1  0
  2  3  1  0
  3  4  1  0
  4  5  2  3
  5  6  1  0
  5  8  1  0
  6  7  1  0
  8  9  1  0
M  CHG  1   1   1
M  END
