
     RDKit          3D

  9  8  0  0  0  0  0  0  0  0999 V2000
    2.4010   -0.3370   -1.8350 N   0  0  0  0  0  0  0  0  0  0  0  0
    1.3950    0.0860   -1.1680 C   0  0  0  0  0  0  0  0  0  0  0  0
    0.8210   -0.6380   -0.0480 C   0  0  0  0  0  0  0  0  0  0  0  0
   -0.3110   -0.0970    0.6530 C   0  0  0  0  0  0  0  0  0  0  0  0
   -0.9300    1.0150    0.4130 C   0  0  0  0  0  0  0  0  0  0  0  0
   -2.0840    1.4580    1.2110 C   0  0  0  0  0  0  0  0  0  0  0  0
   -3.2330    1.6190    0.4610 O   0  0  0  0  0  0  0  0  0  0  0  0
    1.3610   -1.7800    0.2930 C   0  0  0  0  0  0  0  0  0  0  0  0
    2.4570   -2.3220   -0.3720 O   0  0  0  0  0  0  0  0  0  0  0  0
  1  2  2  0
  2  3  1  0
  3  4  1  0
  3  8  2  3
  4  5  2  3
  5  6  1  0
  6  7  1  0
  8  9  1  0
M  END
