
     RDKit          3D

 11 11  0  0  0  0  0  0  0  0999 V2000
    3.8530   -0.9710    0.7670 C   0  0  0  0  0  0  0  0  0  0  0  0
    3.4230    0.3050    0.1260 C   0  0  0  0  0  0  0  0  0  0  0  0
    1.9870    0.3090   -0.3140 C   0  0  0  0  0  0  0  0  0  0  0  0
    1.0280    0.0920    0.8230 C   0  0  0  0  0  0  0  0  0  0  0  0
   -0.3910    0.1050    0.2920 C   0  0  0  0  0  0  0  0  0  0  0  0
   -1.0550   -1.0190    0.5050 C   0  0  0  0  0  0  0  0  0  0  0  0
   -2.3710   -1.5890    0.2500 C   0  0  0  0  0  0  0  0  0  0  0  0
   -3.4560   -0.6080   -0.0830 N   0  0  0  0  0  0  0  0  0  0  0  0
   -2.7450    0.5060   -0.2810 C   0  0  0  0  0  0  0  0  0  0  0  0
   -2.1600    1.7460   -0.5350 C   0  0  0  0  0  0  0  0  0  0  0  0
   -0.6480    1.4020   -0.3300 C   0  0  0  0  0  0  0  0  0  0  0  0
  1  2  1  0
  2  3  1  0
  3  4  1  0
  4  5  1  0
  5  6  2  0
  5 11  1  0
  6  7  1  0
  7  8  1  0
  8  9  1  0
  9 10  1  0
 10 11  1  0
M  CHG  1   8   1
M  END
