
     RDKit          3D

 11 11  0  0  0  0  0  0  0  0999 V2000
   -3.4330    1.5230    0.9170 C   0  0  0  0  0  0  0  0  0  0  0  0
   -2.6030    0.4490    0.3270 C   0  0  0  0  0  0  0  0  0  0  0  0
   -3.2640   -0.7790   -0.1890 C   0  0  0  0  0  0  0  0  0  0  0  0
   -1.2800    0.5550    0.2480 C   0  0  0  0  0  0  0  0  0  0  0  0
   -0.4230   -0.5140   -0.3420 C   0  0  1  0  0  0  0  0  0  0  0  0
   -0.0850   -0.0870   -1.7350 C   0  0  0  0  0  0  0  0  0  0  0  0
    0.6380   -0.8770    0.5140 N   0  0  0  0  0  0  0  0  0  0  0  0
    1.8160   -0.1450    0.5780 C   0  0  2  0  0  0  0  0  0  0  0  0
    2.4430    0.5850   -0.5250 C   0  0  0  0  0  0  0  0  0  0  0  0
    3.7590    0.3500    0.2320 C   0  0  0  0  0  0  0  0  0  0  0  0
    3.0970   -0.9780    0.6180 C   0  0  0  0  0  0  0  0  0  0  0  0
  1  2  1  0
  2  3  1  0
  2  4  2  3
  4  5  1  0
  5  6  1  6
  5  7  1  0
  8  7  1  6
  8  9  1  0
  8 11  1  0
  9 10  1  0
 10 11  1  0
M  CHG  1   7   1
M  END
