
     RDKit          3D

 11 11  0  0  0  0  0  0  0  0999 V2000
   -3.4250    0.6410    0.2490 C   0  0  0  0  0  0  0  0  0  0  0  0
   -2.2250   -0.2710    0.1620 C   0  0  2  0  0  0  0  0  0  0  0  0
   -1.6850   -0.5760    1.5500 C   0  0  0  0  0  0  0  0  0  0  0  0
   -1.1920    0.3050   -0.6830 N   0  0  0  0  0  0  0  0  0  0  0  0
   -0.1210   -0.6510   -0.8380 C   0  0  1  0  0  0  0  0  0  0  0  0
    0.1910   -0.7910   -2.3310 C   0  0  0  0  0  0  0  0  0  0  0  0
    1.1240   -0.2210   -0.1640 C   0  0  0  0  0  0  0  0  0  0  0  0
    1.7380   -0.9030    0.7930 C   0  0  0  0  0  0  0  0  0  0  0  0
    2.9540   -0.2210    1.2670 C   0  0  0  0  0  0  0  0  0  0  0  0
    2.9190    1.1490    0.6210 C   0  0  0  0  0  0  0  0  0  0  0  0
    1.8670    1.0210   -0.4520 C   0  0  0  0  0  0  0  0  0  0  0  0
  2  1  1  1
  2  3  1  0
  2  4  1  0
  4  5  1  0
  5  6  1  6
  5  7  1  0
  7  8  2  0
  7 11  1  0
  8  9  1  0
  9 10  1  0
 10 11  1  0
M  CHG  1   4   1
M  END
