
     RDKit          3D

 13 13  0  0  0  0  0  0  0  0999 V2000
   -2.4110    0.1340   -1.6740 C   0  0  0  0  0  0  0  0  0  0  0  0
   -2.3840   -0.0650   -0.3430 C   0  0  0  0  0  0  0  0  0  0  0  0
   -3.5810   -0.6370    0.3690 C   0  0  0  0  0  0  0  0  0  0  0  0
   -3.3740    0.3670    1.9100 S   0  0  0  0  0  0  0  0  0  0  0  0
   -1.5940    0.4720    1.7900 C   0  0  0  0  0  0  0  0  0  0  0  0
   -1.2860    0.2150    0.5490 C   0  0  0  0  0  0  0  0  0  0  0  0
    0.1200    0.2110    0.0900 C   0  0  0  0  0  0  0  0  0  0  0  0
    0.4000   -0.0370   -1.1060 O   0  0  0  0  0  0  0  0  0  0  0  0
    1.1780    0.4790    0.9510 O   0  0  0  0  0  0  0  0  0  0  0  0
    2.4990    0.4600    0.4520 C   0  0  0  0  0  0  0  0  0  0  0  0
    2.8750   -0.8610   -0.1030 C   0  0  0  0  0  0  0  0  0  0  0  0
    4.1720   -1.0400   -0.6500 N   0  0  0  0  0  0  0  0  0  0  0  0
    2.0580   -1.8000   -0.0870 O   0  0  0  0  0  0  0  0  0  0  0  0
  1  2  2  0
  2  3  1  0
  2  6  1  0
  3  4  1  0
  4  5  1  0
  5  6  2  0
  6  7  1  0
  7  8  2  0
  7  9  1  0
  9 10  1  0
 10 11  1  0
 11 12  1  0
 11 13  2  0
M  END
