
     RDKit          3D

 11 11  0  0  0  0  0  0  0  0999 V2000
    3.9450    0.6670   -0.5930 C   0  0  0  0  0  0  0  0  0  0  0  0
    3.0670   -0.1420    0.3340 C   0  0  0  0  0  0  0  0  0  0  0  0
    1.8240   -0.6440   -0.3720 C   0  0  0  0  0  0  0  0  0  0  0  0
    1.0000    0.4020   -0.8900 N   0  0  0  0  0  0  0  0  0  0  0  0
   -0.3740    0.3420   -0.4700 C   0  0  2  0  0  0  0  0  0  0  0  0
   -0.5510   -0.2340    0.9130 C   0  0  0  0  0  0  0  0  0  0  0  0
   -1.7240    0.4100    1.5360 C   0  0  0  0  0  0  0  0  0  0  0  0
   -2.9280    0.5530    1.0250 C   0  0  0  0  0  0  0  0  0  0  0  0
   -3.4110    0.1030   -0.3080 C   0  0  0  0  0  0  0  0  0  0  0  0
   -2.4990   -0.9170   -0.9410 C   0  0  0  0  0  0  0  0  0  0  0  0
   -1.2380   -0.3250   -1.4930 C   0  0  0  0  0  0  0  0  0  0  0  0
  1  2  1  0
  2  3  1  0
  3  4  1  0
  5  4  1  6
  5  6  1  0
  5 11  1  0
  6  7  1  0
  7  8  2  0
  8  9  1  0
  9 10  1  0
 10 11  1  0
M  CHG  1   4   1
M  END
