
     RDKit          3D

 18 20  0  0  0  0  0  0  0  0999 V2000
    2.4410   -1.9210    0.7210 C   0  0  0  0  0  0  0  0  0  0  0  0
    2.0210   -0.5810    0.1440 C   0  0  2  0  0  0  0  0  0  0  0  0
    0.5500   -0.6140   -0.0120 C   0  0  0  0  0  0  0  0  0  0  0  0
   -0.1350   -1.7040   -0.4210 N   0  0  0  0  0  0  0  0  0  0  0  0
   -1.4570   -1.4230   -0.4460 C   0  0  0  0  0  0  0  0  0  0  0  0
   -2.5650   -2.1780   -0.7760 C   0  0  0  0  0  0  0  0  0  0  0  0
   -3.8400   -1.6430   -0.7030 C   0  0  0  0  0  0  0  0  0  0  0  0
   -3.9540   -0.3320   -0.2900 C   0  0  0  0  0  0  0  0  0  0  0  0
   -2.8690    0.4380    0.0410 C   0  0  0  0  0  0  0  0  0  0  0  0
   -3.0760    1.7980    0.4770 C   0  0  0  0  0  0  0  0  0  0  0  0
   -4.3710    2.3580    0.6950 N   0  0  0  0  0  0  0  0  0  0  0  0
   -2.0450    2.5240    0.6730 O   0  0  0  0  0  0  0  0  0  0  0  0
   -1.6130   -0.1010   -0.0350 C   0  0  0  0  0  0  0  0  0  0  0  0
   -0.3580    0.3590    0.2210 N   0  0  0  0  0  0  0  0  0  0  0  0
    2.6990   -0.3170   -1.1550 C   0  0  0  0  0  0  0  0  0  0  0  0
    3.5850    0.8710   -0.8790 C   0  0  0  0  0  0  0  0  0  0  0  0
    2.8710    1.5600    0.2430 C   0  0  0  0  0  0  0  0  0  0  0  0
    2.4180    0.4690    1.0660 N   0  0  0  0  0  0  0  0  0  0  0  0
  2  1  1  1
  2  3  1  0
  2 15  1  0
  2 18  1  0
  3  4  2  0
  3 14  1  0
  4  5  1  0
  5  6  2  0
  5 13  1  0
  6  7  1  0
  7  8  2  0
  8  9  1  0
  9 10  1  0
  9 13  2  0
 10 11  1  0
 10 12  2  0
 13 14  1  0
 15 16  1  0
 16 17  1  0
 17 18  1  0
M  CHG  1  18   1
M  END
