
     RDKit          3D

 13 14  0  0  0  0  0  0  0  0999 V2000
   -3.3930    1.7240    0.3090 O   0  0  0  0  0  0  0  0  0  0  0  0
   -2.5010    0.8790    0.1280 C   0  0  0  0  0  0  0  0  0  0  0  0
   -2.7890   -0.5580    0.4090 C   0  0  0  0  0  0  0  0  0  0  0  0
   -1.7160   -1.0280    1.3230 C   0  0  0  0  0  0  0  0  0  0  0  0
   -0.3810   -0.6270    0.7850 C   0  0  0  0  0  0  0  0  0  0  0  0
    1.2230   -1.4320    1.0210 S   0  0  0  0  0  0  0  0  0  0  0  0
    2.1230   -0.2840    0.0920 C   0  0  0  0  0  0  0  0  0  0  0  0
    3.5880   -0.3390   -0.1430 C   0  0  0  0  0  0  0  0  0  0  0  0
    4.2760   -1.2630    0.3430 O   0  0  0  0  0  0  0  0  0  0  0  0
    4.2040    0.6300   -0.9010 O   0  0  0  0  0  0  0  0  0  0  0  0
    1.2160    0.6080   -0.3320 C   0  0  0  0  0  0  0  0  0  0  0  0
   -0.0700    0.4380    0.0190 C   0  0  0  0  0  0  0  0  0  0  0  0
   -1.2050    1.2670   -0.3460 N   0  0  0  0  0  0  0  0  0  0  0  0
  1  2  2  0
  2  3  1  0
  2 13  1  0
  3  4  1  0
  4  5  1  0
  5  6  1  0
  5 12  2  0
  6  7  1  0
  7  8  1  0
  7 11  2  0
  8  9  2  0
  8 10  1  0
 11 12  1  0
 12 13  1  0
M  END
