
     RDKit          3D

 11 11  0  0  0  0  0  0  0  0999 V2000
   -2.6560    0.2620    1.5430 C   0  0  0  0  0  0  0  0  0  0  0  0
   -1.7970    0.0040    0.3200 C   0  0  1  0  0  0  0  0  0  0  0  0
   -1.6370   -1.5050    0.2140 C   0  0  0  0  0  0  0  0  0  0  0  0
   -2.5580    0.5090   -0.8730 C   0  0  0  0  0  0  0  0  0  0  0  0
   -0.5400    0.6720    0.5300 N   0  0  0  0  0  0  0  0  0  0  0  0
    0.2840    0.7740   -0.6240 C   0  0  0  0  0  0  0  0  0  0  0  0
    1.6930    0.3020   -0.3710 C   0  0  0  0  0  0  0  0  0  0  0  0
    2.3200   -0.6800   -0.9800 C   0  0  0  0  0  0  0  0  0  0  0  0
    3.6960   -0.8330   -0.4450 C   0  0  0  0  0  0  0  0  0  0  0  0
    3.7870    0.2240    0.5870 C   0  0  0  0  0  0  0  0  0  0  0  0
    2.6290    0.8500    0.6020 C   0  0  0  0  0  0  0  0  0  0  0  0
  2  1  1  1
  2  3  1  0
  2  4  1  0
  2  5  1  0
  5  6  1  0
  6  7  1  0
  7  8  2  0
  7 11  1  0
  8  9  1  0
  9 10  1  0
 10 11  2  0
M  CHG  1   5   1
M  END
