
     RDKit          3D

 29 31  0  0  0  0  0  0  0  0999 V2000
   -3.6510    1.4530   -1.8320 C   0  0  0  0  0  0  0  0  0  0  0  0
   -4.5880    1.0080   -1.0360 C   0  0  0  0  0  0  0  0  0  0  0  0
   -4.3390   -0.1270   -0.1700 C   0  0  0  0  0  0  0  0  0  0  0  0
   -2.9830   -0.5590   -0.0490 N   0  0  0  0  0  0  0  0  0  0  0  0
   -1.9380    0.2730    0.4430 C   0  0  0  0  0  0  0  0  0  0  0  0
   -2.2360    1.4450    0.7870 O   0  0  0  0  0  0  0  0  0  0  0  0
   -0.5620   -0.2080    0.5510 C   0  0  0  0  0  0  0  0  0  0  0  0
    0.4630    0.5230    1.0040 N   0  0  0  0  0  0  0  0  0  0  0  0
    1.5930   -0.1910    0.9830 C   0  0  0  0  0  0  0  0  0  0  0  0
    3.2120    0.3340    1.4840 S   0  0  0  0  0  0  0  0  0  0  0  0
    4.0490    1.0540    0.0840 C   0  0  0  0  0  0  0  0  0  0  0  0
    3.4300    1.1340   -1.1460 C   0  0  0  0  0  0  0  0  0  0  0  0
    4.1350    1.7020   -2.1810 C   0  0  0  0  0  0  0  0  0  0  0  0
    5.4260    2.1810   -2.0030 C   0  0  0  0  0  0  0  0  0  0  0  0
    6.0050    2.0790   -0.7520 C   0  0  0  0  0  0  0  0  0  0  0  0
    7.2950    2.5570   -0.5760 O   0  0  0  0  0  0  0  0  0  0  0  0
    7.8860    2.4510    0.7090 C   0  0  0  0  0  0  0  0  0  0  0  0
    5.3040    1.5220    0.2480 N   0  0  0  0  0  0  0  0  0  0  0  0
    1.2620   -1.3960    0.5040 N   0  0  0  0  0  0  0  0  0  0  0  0
    2.1320   -2.5340    0.2860 C   0  0  0  0  0  0  0  0  0  0  0  0
    2.1420   -3.3560    1.5620 C   0  0  0  0  0  0  0  0  0  0  0  0
    0.7430   -3.8210    1.8770 C   0  0  0  0  0  0  0  0  0  0  0  0
   -0.0540   -1.4000    0.2420 N   0  0  0  0  0  0  0  0  0  0  0  0
   -5.2920   -0.7470    0.4850 C   0  0  0  0  0  0  0  0  0  0  0  0
   -6.7080   -0.4450    0.4790 C   0  0  0  0  0  0  0  0  0  0  0  0
   -7.2600    0.3430   -0.6390 C   0  0  0  0  0  0  0  0  0  0  0  0
   -6.1680    1.7360   -0.9690 S   0  0  1  0  0  0  0  0  0  0  0  0
   -6.2460    2.6550    0.1910 O   0  0  0  0  0  0  0  0  0  0  0  0
   -6.5410    2.3950   -2.2620 O   0  0  0  0  0  0  0  0  0  0  0  0
  1  2  2  0
  2  3  1  0
  2 27  1  0
  3  4  1  0
  3 24  2  0
  4  5  1  0
  5  6  2  0
  5  7  1  0
  7  8  1  0
  7 23  2  0
  8  9  2  0
  9 10  1  0
  9 19  1  0
 10 11  1  0
 11 12  2  0
 11 18  1  0
 12 13  1  0
 13 14  2  0
 14 15  1  0
 15 16  1  0
 15 18  2  0
 16 17  1  0
 19 20  1  0
 19 23  1  0
 20 21  1  0
 21 22  1  0
 24 25  1  0
 25 26  1  0
 27 26  1  1
 27 28  2  0
 27 29  2  0
M  END
