
     RDKit          3D

 29 31  0  0  0  0  0  0  0  0999 V2000
    8.0090   -0.6930    1.1670 C   0  0  0  0  0  0  0  0  0  0  0  0
    7.7480   -1.3620   -0.1390 C   0  0  0  0  0  0  0  0  0  0  0  0
    6.5210   -2.0180   -0.2070 O   0  0  0  0  0  0  0  0  0  0  0  0
    5.2720   -1.4450   -0.0600 C   0  0  0  0  0  0  0  0  0  0  0  0
    5.1010   -0.1010    0.1800 C   0  0  0  0  0  0  0  0  0  0  0  0
    3.8270    0.4530    0.3240 C   0  0  0  0  0  0  0  0  0  0  0  0
    2.7160   -0.3540    0.2270 C   0  0  0  0  0  0  0  0  0  0  0  0
    1.3590    0.2260    0.3800 C   0  0  0  0  0  0  0  0  0  0  0  0
    0.2740   -0.5030    0.2960 N   0  0  0  0  0  0  0  0  0  0  0  0
   -1.0220   -0.0210    0.4300 C   0  0  0  0  0  0  0  0  0  0  0  0
   -2.0650   -0.9730    0.3020 C   0  0  1  0  0  0  0  0  0  0  0  0
   -3.4210   -0.9120    0.7650 C   0  0  0  0  0  0  0  0  0  0  0  0
   -4.0260   -2.3370    0.4940 C   0  0  0  0  0  0  0  0  0  0  0  0
   -4.0610   -2.5940   -0.9820 C   0  0  0  0  0  0  0  0  0  0  0  0
   -2.6760   -2.6190   -1.4170 N   0  0  0  0  0  0  0  0  0  0  0  0
   -2.1730   -1.2830   -1.2300 C   0  0  0  0  0  0  0  0  0  0  0  0
   -1.0920    1.2800    0.6600 N   0  0  0  0  0  0  0  0  0  0  0  0
   -2.3400    1.9210    0.8520 C   0  0  0  0  0  0  0  0  0  0  0  0
   -2.9950    2.4340   -0.4230 C   0  0  0  0  0  0  0  0  0  0  0  0
   -4.5640    3.2240   -0.0300 S   0  0  2  0  0  0  0  0  0  0  0  0
   -5.2480    3.7860   -1.5640 C   0  0  0  0  0  0  0  0  0  0  0  0
   -4.2450    4.4100    0.8310 O   0  0  0  0  0  0  0  0  0  0  0  0
   -5.4780    2.2900    0.6830 O   0  0  0  0  0  0  0  0  0  0  0  0
    0.0350    2.0600    0.7510 C   0  0  0  0  0  0  0  0  0  0  0  0
   -0.1700    3.6680    1.0340 S   0  0  0  0  0  0  0  0  0  0  0  0
    1.2490    1.5220    0.6090 N   0  0  0  0  0  0  0  0  0  0  0  0
    2.8950   -1.6550   -0.0060 N   0  0  0  0  0  0  0  0  0  0  0  0
    4.1290   -2.2090   -0.1490 C   0  0  0  0  0  0  0  0  0  0  0  0
    4.2620   -3.4390   -0.3680 O   0  0  0  0  0  0  0  0  0  0  0  0
  1  2  1  0
  2  3  1  0
  3  4  1  0
  4  5  2  0
  4 28  1  0
  5  6  1  0
  6  7  2  0
  7  8  1  0
  7 27  1  0
  8  9  1  0
  8 26  2  0
  9 10  2  0
 11 10  1  6
 10 17  1  0
 11 12  1  0
 11 16  1  0
 12 13  1  0
 13 14  1  0
 14 15  1  0
 15 16  1  0
 17 18  1  0
 17 24  1  0
 18 19  1  0
 19 20  1  0
 20 21  1  6
 20 22  2  0
 20 23  2  0
 24 25  2  0
 24 26  1  0
 27 28  1  0
 28 29  2  0
M  END
