
     RDKit          3D

 29 31  0  0  0  0  0  0  0  0999 V2000
   -5.1430   -0.1420    0.0480 C   0  0  0  0  0  0  0  0  0  0  0  0
   -3.8630   -0.1220   -0.7320 C   0  0  0  0  0  0  0  0  0  0  0  0
   -3.0690   -1.3650   -0.8670 C   0  0  0  0  0  0  0  0  0  0  0  0
   -2.4580   -1.8960    0.4040 C   0  0  0  0  0  0  0  0  0  0  0  0
   -3.2850   -2.5470    1.2910 C   0  0  0  0  0  0  0  0  0  0  0  0
   -4.6940   -2.9670    1.1550 C   0  0  0  0  0  0  0  0  0  0  0  0
   -2.3510   -2.9550    2.6140 S   0  0  0  0  0  0  0  0  0  0  0  0
   -0.7890   -2.2540    1.9800 C   0  0  0  0  0  0  0  0  0  0  0  0
   -1.1500   -1.7460    0.7680 C   0  0  0  0  0  0  0  0  0  0  0  0
   -0.0820   -1.2000    0.1110 C   0  0  0  0  0  0  0  0  0  0  0  0
   -0.1740   -0.6490   -1.2090 N   0  0  0  0  0  0  0  0  0  0  0  0
   -0.0790    1.0030   -1.5620 S   0  0  1  0  0  0  0  0  0  0  0  0
   -1.5360    1.7230   -2.2610 C   0  0  0  0  0  0  0  0  0  0  0  0
    0.4070    1.7540   -0.3320 O   0  0  0  0  0  0  0  0  0  0  0  0
    1.0240    1.3240   -2.5970 O   0  0  0  0  0  0  0  0  0  0  0  0
    1.2490   -1.1550    0.6600 C   0  0  0  0  0  0  0  0  0  0  0  0
    2.2980   -0.6860    0.0390 C   0  0  0  0  0  0  0  0  0  0  0  0
    3.5490   -0.3880   -0.0820 N   0  0  0  0  0  0  0  0  0  0  0  0
    4.0500    0.8840    0.3660 C   0  0  0  0  0  0  0  0  0  0  0  0
    3.5070    1.6710    1.3420 C   0  0  0  0  0  0  0  0  0  0  0  0
    4.3920    2.7200    1.4310 N   0  0  0  0  0  0  0  0  0  0  0  0
    4.1720    3.8050    2.3910 C   0  0  0  0  0  0  0  0  0  0  0  0
    5.3790    2.5820    0.5910 N   0  0  0  0  0  0  0  0  0  0  0  0
    5.2290    1.4290   -0.1270 C   0  0  0  0  0  0  0  0  0  0  0  0
    6.0850    0.9390   -1.1690 C   0  0  0  0  0  0  0  0  0  0  0  0
    5.9190   -0.1230   -1.8380 O   0  0  0  0  0  0  0  0  0  0  0  0
    1.5030   -1.7270    2.0170 C   0  0  0  0  0  0  0  0  0  0  0  0
    2.6290   -1.6860    2.5050 O   0  0  0  0  0  0  0  0  0  0  0  0
    0.3470   -2.2690    2.5830 N   0  0  0  0  0  0  0  0  0  0  0  0
  1  2  1  0
  2  3  1  0
  3  4  1  0
  4  5  2  0
  4  9  1  0
  5  6  1  0
  5  7  1  0
  7  8  1  0
  8  9  1  0
  8 29  2  0
  9 10  2  0
 10 11  1  0
 10 16  1  0
 11 12  1  0
 12 13  1  6
 12 14  2  0
 12 15  2  0
 16 17  2  3
 16 27  1  0
 17 18  1  0
 18 19  1  0
 19 20  2  0
 19 24  1  0
 20 21  1  0
 21 22  1  0
 21 23  1  0
 23 24  2  0
 24 25  1  0
 25 26  2  0
 27 28  2  0
 27 29  1  0
M  END
