
     RDKit          3D

 29 31  0  0  0  0  0  0  0  0999 V2000
    7.5240   -0.5750    1.0860 C   0  0  0  0  0  0  0  0  0  0  0  0
    6.7800    0.3200    0.4080 C   0  0  0  0  0  0  0  0  0  0  0  0
    6.2050   -0.0580   -0.8970 C   0  0  0  0  0  0  0  0  0  0  0  0
    4.7350    0.0410   -0.8320 N   0  0  0  0  0  0  0  0  0  0  0  0
    4.1320    1.2880   -0.5440 C   0  0  0  0  0  0  0  0  0  0  0  0
    4.9350    2.2710   -0.3580 O   0  0  0  0  0  0  0  0  0  0  0  0
    2.7150    1.5120   -0.4520 N   0  0  0  0  0  0  0  0  0  0  0  0
    2.2400    2.8220   -0.1550 C   0  0  0  0  0  0  0  0  0  0  0  0
    2.8500    3.8320    0.2930 O   0  0  0  0  0  0  0  0  0  0  0  0
    0.4760    2.7540   -0.5700 S   0  0  0  0  0  0  0  0  0  0  0  0
    0.3650    0.9790   -0.4930 C   0  0  0  0  0  0  0  0  0  0  0  0
   -0.7270    0.2850   -0.3440 C   0  0  0  0  0  0  0  0  0  0  0  0
   -0.6380   -1.1360   -0.3020 N   0  0  0  0  0  0  0  0  0  0  0  0
   -1.1190   -1.7950    0.6920 C   0  0  0  0  0  0  0  0  0  0  0  0
   -1.0020   -3.2570    0.6860 C   0  0  0  0  0  0  0  0  0  0  0  0
   -1.4580   -4.1260    1.6640 C   0  0  0  0  0  0  0  0  0  0  0  0
   -1.1350   -5.3990    1.2470 C   0  0  0  0  0  0  0  0  0  0  0  0
   -0.5050   -5.2640    0.0510 C   0  0  0  0  0  0  0  0  0  0  0  0
   -0.4520   -4.0040   -0.2310 O   0  0  0  0  0  0  0  0  0  0  0  0
   -2.0200    0.8540   -0.2190 N   0  0  0  0  0  0  0  0  0  0  0  0
   -2.9790    0.5970   -1.2600 C   0  0  0  0  0  0  0  0  0  0  0  0
   -4.2390    1.3050   -0.8820 C   0  0  0  0  0  0  0  0  0  0  0  0
   -4.7280    1.9960   -0.0390 N   0  0  0  0  0  0  0  0  0  0  0  0
   -5.9430    2.4840   -0.0010 C   0  0  0  0  0  0  0  0  0  0  0  0
   -6.4220    3.3610    1.1610 C   0  0  0  0  0  0  0  0  0  0  0  0
   -6.7610    2.1580   -1.0710 C   0  0  0  0  0  0  0  0  0  0  0  0
   -5.6140    1.1330   -2.0520 S   0  0  0  0  0  0  0  0  0  0  0  0
    1.7390    0.5390   -0.6300 C   0  0  0  0  0  0  0  0  0  0  0  0
    1.9500   -0.7070   -0.9040 O   0  0  0  0  0  0  0  0  0  0  0  0
  1  2  2  0
  2  3  1  0
  3  4  1  0
  4  5  1  0
  5  6  2  0
  5  7  1  0
  7  8  1  0
  7 28  1  0
  8  9  2  0
  8 10  1  0
 10 11  1  0
 11 12  2  3
 11 28  1  0
 12 13  1  0
 12 20  1  0
 13 14  2  3
 14 15  1  0
 15 16  2  0
 15 19  1  0
 16 17  1  0
 17 18  2  0
 18 19  1  0
 20 21  1  0
 21 22  1  0
 22 23  2  0
 22 27  1  0
 23 24  1  0
 24 25  1  0
 24 26  2  0
 26 27  1  0
 28 29  2  0
M  END
