
     RDKit          3D

 31 33  0  0  0  0  0  0  0  0999 V2000
    7.3490    1.2500   -1.0470 C   0  0  0  0  0  0  0  0  0  0  0  0
    6.4210    2.4380   -1.0130 C   0  0  0  0  0  0  0  0  0  0  0  0
    5.2180    2.0910   -0.3660 O   0  0  0  0  0  0  0  0  0  0  0  0
    5.1210    1.6000    0.9200 C   0  0  0  0  0  0  0  0  0  0  0  0
    6.2080    1.4430    1.5650 O   0  0  0  0  0  0  0  0  0  0  0  0
    3.8360    1.2540    1.5690 C   0  0  0  0  0  0  0  0  0  0  0  0
    3.8480   -0.1640    2.1420 C   0  0  0  0  0  0  0  0  0  0  0  0
    4.0620   -1.1330    0.9920 C   0  0  0  0  0  0  0  0  0  0  0  0
    3.1230   -1.0810    0.0220 O   0  0  0  0  0  0  0  0  0  0  0  0
    1.8200   -1.2650   -0.1450 C   0  0  0  0  0  0  0  0  0  0  0  0
    0.9570   -1.6460    0.8600 C   0  0  0  0  0  0  0  0  0  0  0  0
   -0.4030   -1.8360    0.6880 C   0  0  0  0  0  0  0  0  0  0  0  0
   -1.2330   -2.2490    1.7940 N   0  0  0  0  0  0  0  0  0  0  0  0
   -2.6460   -2.4030    1.6450 C   0  0  0  0  0  0  0  0  0  0  0  0
   -3.3740   -1.1460    1.3270 C   0  0  0  0  0  0  0  0  0  0  0  0
   -2.9540    0.0690    1.8210 C   0  0  0  0  0  0  0  0  0  0  0  0
   -3.6600    1.2200    1.5120 C   0  0  0  0  0  0  0  0  0  0  0  0
   -4.8030    1.1910    0.7020 C   0  0  0  0  0  0  0  0  0  0  0  0
   -5.4830    2.3230    0.4110 N   0  0  0  0  0  0  0  0  0  0  0  0
   -6.5970    2.2750   -0.3790 C   0  0  0  0  0  0  0  0  0  0  0  0
   -7.2990    3.4800   -0.6660 N   0  0  0  0  0  0  0  0  0  0  0  0
   -6.9760    1.0820   -0.8410 N   0  0  0  0  0  0  0  0  0  0  0  0
   -6.3390   -0.0630   -0.5820 C   0  0  0  0  0  0  0  0  0  0  0  0
   -6.7960   -1.2850   -1.1120 N   0  0  0  0  0  0  0  0  0  0  0  0
   -5.2130   -0.0400    0.2130 C   0  0  0  0  0  0  0  0  0  0  0  0
   -4.5050   -1.1710    0.5270 C   0  0  0  0  0  0  0  0  0  0  0  0
   -0.9190   -1.6310   -0.5650 C   0  0  0  0  0  0  0  0  0  0  0  0
   -0.1070   -1.2490   -1.6080 C   0  0  0  0  0  0  0  0  0  0  0  0
    1.2470   -1.0670   -1.4090 C   0  0  0  0  0  0  0  0  0  0  0  0
    2.1160   -0.6840   -2.4140 O   0  0  0  0  0  0  0  0  0  0  0  0
    1.5870   -0.4710   -3.7050 C   0  0  0  0  0  0  0  0  0  0  0  0
  1  2  1  0
  2  3  1  0
  3  4  1  0
  4  5  2  0
  4  6  1  0
  6  7  1  0
  7  8  1  0
  8  9  1  0
  9 10  1  0
 10 11  2  0
 10 29  1  0
 11 12  1  0
 12 13  1  0
 12 27  2  0
 13 14  1  0
 14 15  1  0
 15 16  2  0
 15 26  1  0
 16 17  1  0
 17 18  2  0
 18 19  1  0
 18 25  1  0
 19 20  2  0
 20 21  1  0
 20 22  1  0
 22 23  2  0
 23 24  1  0
 23 25  1  0
 25 26  2  0
 27 28  1  0
 28 29  2  0
 29 30  1  0
 30 31  1  0
M  END
