
     RDKit          3D

 27 29  0  0  0  0  0  0  0  0999 V2000
   -6.1720    2.3580    0.1660 C   0  0  0  0  0  0  0  0  0  0  0  0
   -5.4310    1.6510   -0.9500 C   0  0  2  0  0  0  0  0  0  0  0  0
   -5.7500    0.1810   -0.9930 C   0  0  0  0  0  0  0  0  0  0  0  0
   -4.5560   -0.4580   -0.3900 C   0  0  0  0  0  0  0  0  0  0  0  0
   -4.4080   -1.8310    0.0520 C   0  0  0  0  0  0  0  0  0  0  0  0
   -5.2200   -2.8390    0.0100 C   0  0  0  0  0  0  0  0  0  0  0  0
   -6.5560   -2.8220   -0.5340 C   0  0  0  0  0  0  0  0  0  0  0  0
   -7.2210   -3.9370   -0.4710 O   0  0  0  0  0  0  0  0  0  0  0  0
   -3.6100    0.4790   -0.3030 C   0  0  0  0  0  0  0  0  0  0  0  0
   -2.2550    0.2330    0.2550 C   0  0  0  0  0  0  0  0  0  0  0  0
   -1.3720    1.2090    0.3090 C   0  0  0  0  0  0  0  0  0  0  0  0
   -0.0580    0.9660    0.8510 C   0  0  0  0  0  0  0  0  0  0  0  0
    0.8340    1.8690    0.9280 O   0  0  0  0  0  0  0  0  0  0  0  0
    0.2900   -0.2990    1.3210 O   0  0  0  0  0  0  0  0  0  0  0  0
    1.5310   -0.6330    1.8590 C   0  0  0  0  0  0  0  0  0  0  0  0
    2.6410   -0.4360    0.9080 C   0  0  0  0  0  0  0  0  0  0  0  0
    2.3930   -0.1960   -0.4070 C   0  0  0  0  0  0  0  0  0  0  0  0
    3.4890   -0.0150   -1.2560 C   0  0  0  0  0  0  0  0  0  0  0  0
    4.7710   -0.0730   -0.7950 C   0  0  0  0  0  0  0  0  0  0  0  0
    4.9800   -0.3190    0.5460 C   0  0  0  0  0  0  0  0  0  0  0  0
    3.9290   -0.5010    1.4060 C   0  0  0  0  0  0  0  0  0  0  0  0
    6.3590   -0.3790    1.0260 C   0  0  0  0  0  0  0  0  0  0  0  0
    6.6010   -1.0010    2.0830 O   0  0  0  0  0  0  0  0  0  0  0  0
    7.4890    0.2670    0.3160 C   0  0  0  0  0  0  0  0  0  0  0  0
    7.0290    0.9290   -0.9650 C   0  0  0  0  0  0  0  0  0  0  0  0
    5.9610    0.1140   -1.6600 C   0  0  0  0  0  0  0  0  0  0  0  0
   -4.0550    1.6830   -0.7950 O   0  0  0  0  0  0  0  0  0  0  0  0
  2  1  1  1
  2  3  1  0
  2 27  1  0
  3  4  1  0
  4  5  1  0
  4  9  2  0
  5  6  2  3
  6  7  1  0
  7  8  2  0
  9 10  1  0
  9 27  1  0
 10 11  2  3
 11 12  1  0
 12 13  2  0
 12 14  1  0
 14 15  1  0
 15 16  1  0
 16 17  2  0
 16 21  1  0
 17 18  1  0
 18 19  2  0
 19 20  1  0
 19 26  1  0
 20 21  2  0
 20 22  1  0
 22 23  2  0
 22 24  1  0
 24 25  1  0
 25 26  1  0
M  END
