
     RDKit          3D

 27 28  0  0  0  0  0  0  0  0999 V2000
   -4.7970   -3.4920    0.9800 C   0  0  0  0  0  0  0  0  0  0  0  0
   -4.2080   -2.2770    0.5940 C   0  0  0  0  0  0  0  0  0  0  0  0
   -5.1680   -1.3500    0.3940 O   0  0  0  0  0  0  0  0  0  0  0  0
   -2.8240   -2.2370    0.4910 C   0  0  0  0  0  0  0  0  0  0  0  0
   -1.7650   -1.5460    0.2230 C   0  0  0  0  0  0  0  0  0  0  0  0
   -0.4420   -2.2900    0.3470 C   0  0  0  0  0  0  0  0  0  0  0  0
   -0.4680   -3.4970    0.6940 O   0  0  0  0  0  0  0  0  0  0  0  0
    0.8080   -1.6200    0.0730 C   0  0  0  0  0  0  0  0  0  0  0  0
    1.9620   -2.4090    0.2200 O   0  0  0  0  0  0  0  0  0  0  0  0
    2.1990   -3.6280   -0.3990 C   0  0  0  0  0  0  0  0  0  0  0  0
    0.8610   -0.3720   -0.2870 C   0  0  0  0  0  0  0  0  0  0  0  0
    2.0910    0.3500   -0.5730 C   0  0  1  0  0  0  0  0  0  0  0  0
    2.1920    1.5790    0.3340 C   0  0  0  0  0  0  0  0  0  0  0  0
    3.4030    1.5020    1.2530 C   0  0  0  0  0  0  0  0  0  0  0  0
    4.6860    1.4110    0.4570 C   0  0  2  0  0  0  0  0  0  0  0  0
    5.7200    0.6860    1.2900 C   0  0  0  0  0  0  0  0  0  0  0  0
    5.1480    2.8050    0.1520 C   0  0  0  0  0  0  0  0  0  0  0  0
    4.4770    0.5910   -0.8050 C   0  0  0  0  0  0  0  0  0  0  0  0
    3.3590   -0.4020   -0.4410 C   0  0  0  0  0  0  0  0  0  0  0  0
   -0.3790    0.3490   -0.4100 C   0  0  0  0  0  0  0  0  0  0  0  0
   -1.6110   -0.1670   -0.1810 C   0  0  0  0  0  0  0  0  0  0  0  0
   -2.7230    0.7150   -0.3580 C   0  0  0  0  0  0  0  0  0  0  0  0
   -2.3780    1.9270   -0.7270 O   0  0  0  0  0  0  0  0  0  0  0  0
   -4.0520    0.6180   -0.2420 O   0  0  0  0  0  0  0  0  0  0  0  0
   -4.9580    1.7020   -0.4910 C   0  0  2  0  0  0  0  0  0  0  0  0
   -5.6820    1.9830    0.8190 C   0  0  0  0  0  0  0  0  0  0  0  0
   -5.9000    1.3290   -1.5890 C   0  0  0  0  0  0  0  0  0  0  0  0
  1  2  2  0
  2  3  1  0
  2  4  1  0
  4  5  2  3
  5  6  1  0
  5 21  1  0
  6  7  2  0
  6  8  1  0
  8  9  1  0
  8 11  2  0
  9 10  1  0
 12 11  1  1
 11 20  1  0
 12 13  1  0
 12 19  1  0
 13 14  1  0
 14 15  1  0
 15 16  1  1
 15 17  1  0
 15 18  1  0
 18 19  1  0
 20 21  2  0
 21 22  1  0
 22 23  2  0
 22 24  1  0
 24 25  1  0
 25 26  1  1
 25 27  1  0
M  END
