
     RDKit          3D

 27 29  0  0  0  0  0  0  0  0999 V2000
    7.3180    0.6420    0.7290 C   0  0  0  0  0  0  0  0  0  0  0  0
    6.8530   -0.7350    0.3120 C   0  0  0  0  0  0  0  0  0  0  0  0
    5.4700   -0.9220    0.5290 O   0  0  0  0  0  0  0  0  0  0  0  0
    4.5040   -0.1200   -0.0820 C   0  0  0  0  0  0  0  0  0  0  0  0
    4.9390    0.7620   -0.8230 O   0  0  0  0  0  0  0  0  0  0  0  0
    3.0830   -0.3170    0.1440 C   0  0  0  0  0  0  0  0  0  0  0  0
    2.1160    0.3770   -0.3830 C   0  0  0  0  0  0  0  0  0  0  0  0
    2.3580    1.4870   -1.3100 C   0  0  0  0  0  0  0  0  0  0  0  0
    0.7100    0.0780   -0.0710 C   0  0  0  0  0  0  0  0  0  0  0  0
   -0.2720    0.8090   -0.5580 C   0  0  0  0  0  0  0  0  0  0  0  0
   -1.6880    0.5900   -0.3160 C   0  0  0  0  0  0  0  0  0  0  0  0
   -2.4700    1.5790    0.2380 C   0  0  0  0  0  0  0  0  0  0  0  0
   -3.8350    1.4380    0.4560 C   0  0  0  0  0  0  0  0  0  0  0  0
   -4.5760    2.4570    1.0140 C   0  0  0  0  0  0  0  0  0  0  0  0
   -5.9280    2.3490    1.2440 C   0  0  0  0  0  0  0  0  0  0  0  0
   -6.5470    1.1930    0.9060 C   0  0  0  0  0  0  0  0  0  0  0  0
   -5.8310    0.1340    0.3370 C   0  0  0  0  0  0  0  0  0  0  0  0
   -6.4830   -1.0320    0.0020 O   0  0  0  0  0  0  0  0  0  0  0  0
   -4.4790    0.2710    0.1190 C   0  0  0  0  0  0  0  0  0  0  0  0
   -3.7060   -0.7240   -0.4360 C   0  0  0  0  0  0  0  0  0  0  0  0
   -2.3290   -0.5820   -0.6580 C   0  0  0  0  0  0  0  0  0  0  0  0
   -1.6450   -1.6400   -1.2270 O   0  0  0  0  0  0  0  0  0  0  0  0
   -2.3150   -2.8350   -1.5720 C   0  0  0  0  0  0  0  0  0  0  0  0
    0.4000   -1.0030    0.8340 C   0  0  0  0  0  0  0  0  0  0  0  0
    1.3430   -1.7410    1.3980 C   0  0  0  0  0  0  0  0  0  0  0  0
    2.7120   -1.4210    1.0700 C   0  0  0  0  0  0  0  0  0  0  0  0
    3.6540   -2.0870    1.5740 O   0  0  0  0  0  0  0  0  0  0  0  0
  1  2  1  0
  2  3  1  0
  3  4  1  0
  4  5  2  0
  4  6  1  0
  6  7  2  0
  6 26  1  0
  7  8  1  0
  7  9  1  0
  9 10  2  3
  9 24  1  0
 10 11  1  0
 11 12  2  0
 11 21  1  0
 12 13  1  0
 13 14  2  0
 13 19  1  0
 14 15  1  0
 15 16  2  0
 16 17  1  0
 17 18  1  0
 17 19  2  0
 19 20  1  0
 20 21  2  0
 21 22  1  0
 22 23  1  0
 24 25  2  0
 25 26  1  0
 26 27  2  0
M  END
