
     RDKit          3D

 27 28  0  0  0  0  0  0  0  0999 V2000
   -7.8780   -0.0620    1.3860 C   0  0  0  0  0  0  0  0  0  0  0  0
   -6.4130   -0.3780    1.6860 C   0  0  0  0  0  0  0  0  0  0  0  0
   -5.5470   -0.1580    0.7500 C   0  0  0  0  0  0  0  0  0  0  0  0
   -6.0490    0.3540   -0.4580 O   0  0  0  0  0  0  0  0  0  0  0  0
   -5.2620    0.6440   -1.5550 C   0  0  0  0  0  0  0  0  0  0  0  0
   -5.5110    1.1210   -2.7700 C   0  0  0  0  0  0  0  0  0  0  0  0
   -4.2410    1.2100   -3.5070 C   0  0  0  0  0  0  0  0  0  0  0  0
   -3.2380    0.7180   -2.5440 C   0  0  0  0  0  0  0  0  0  0  0  0
   -3.8400    0.3890   -1.4020 C   0  0  0  0  0  0  0  0  0  0  0  0
   -3.3580   -0.1440   -0.1250 C   0  0  0  0  0  0  0  0  0  0  0  0
   -1.9590   -0.3390   -0.0940 O   0  0  0  0  0  0  0  0  0  0  0  0
   -1.1870    0.8490   -0.0020 C   0  0  0  0  0  0  0  0  0  0  0  0
    0.2680    0.6030   -0.1140 C   0  0  0  0  0  0  0  0  0  0  0  0
    0.7900   -0.3030    0.9500 C   0  0  0  0  0  0  0  0  0  0  0  0
    2.2810   -0.4880    0.7700 C   0  0  0  0  0  0  0  0  0  0  0  0
    3.0820    0.7770    0.8710 C   0  0  0  0  0  0  0  0  0  0  0  0
    4.4710    0.5330    0.7090 O   0  0  0  0  0  0  0  0  0  0  0  0
    5.0590   -0.0040   -0.4040 C   0  0  0  0  0  0  0  0  0  0  0  0
    4.3340   -0.3160   -1.3810 O   0  0  0  0  0  0  0  0  0  0  0  0
    6.5400   -0.2240   -0.4770 C   0  0  1  0  0  0  0  0  0  0  0  0
    6.8780   -1.1830    0.6690 C   0  0  0  0  0  0  0  0  0  0  0  0
    6.8950   -0.9020   -1.7730 C   0  0  0  0  0  0  0  0  0  0  0  0
    7.2280    1.0900   -0.2820 C   0  0  0  0  0  0  0  0  0  0  0  0
   -4.1160   -0.4130    0.8970 C   0  0  0  0  0  0  0  0  0  0  0  0
   -3.5940   -1.0140    2.1310 C   0  0  0  0  0  0  0  0  0  0  0  0
   -2.1670   -1.4040    2.3150 C   0  0  0  0  0  0  0  0  0  0  0  0
   -4.3720   -1.2190    3.0880 O   0  0  0  0  0  0  0  0  0  0  0  0
  1  2  1  0
  2  3  2  3
  3  4  1  0
  3 24  1  0
  4  5  1  0
  5  6  2  0
  5  9  1  0
  6  7  1  0
  7  8  1  0
  8  9  2  0
  9 10  1  0
 10 11  1  0
 10 24  2  0
 11 12  1  0
 12 13  1  0
 13 14  1  0
 14 15  1  0
 15 16  1  0
 16 17  1  0
 17 18  1  0
 18 19  2  0
 18 20  1  0
 20 21  1  1
 20 22  1  0
 20 23  1  0
 24 25  1  0
 25 26  1  0
 25 27  2  0
M  END
