
     RDKit          3D

 23 25  0  0  0  0  0  0  0  0999 V2000
   -0.7300    0.6470   -1.9610 O   0  0  0  0  0  0  0  0  0  0  0  0
   -1.3720    0.4980   -0.8920 C   0  0  0  0  0  0  0  0  0  0  0  0
   -2.8590    0.2790   -0.9520 C   0  0  0  0  0  0  0  0  0  0  0  0
   -3.4100    0.1330    0.3180 O   0  0  0  0  0  0  0  0  0  0  0  0
   -4.7760   -0.0780    0.4680 C   0  0  0  0  0  0  0  0  0  0  0  0
   -5.5750   -0.1420   -0.6390 C   0  0  0  0  0  0  0  0  0  0  0  0
   -6.9300   -0.3510   -0.5170 C   0  0  0  0  0  0  0  0  0  0  0  0
   -7.5220   -0.5010    0.7330 C   0  0  0  0  0  0  0  0  0  0  0  0
   -6.7140   -0.4360    1.8470 C   0  0  0  0  0  0  0  0  0  0  0  0
   -5.3630   -0.2270    1.7070 C   0  0  0  0  0  0  0  0  0  0  0  0
   -4.2770   -0.1420    3.2630 Br  0  0  0  0  0  0  0  0  0  0  0  0
   -0.6710    0.5420    0.3290 N   0  0  0  0  0  0  0  0  0  0  0  0
    0.7470    0.7420    0.4670 C   0  0  0  0  0  0  0  0  0  0  0  0
    1.4600   -0.3910   -0.2290 C   0  0  0  0  0  0  0  0  0  0  0  0
    2.9370   -0.2480   -0.1190 C   0  0  0  0  0  0  0  0  0  0  0  0
    3.5480    0.7620    0.5200 N   0  0  0  0  0  0  0  0  0  0  0  0
    4.8930    0.5760    0.4230 C   0  0  0  0  0  0  0  0  0  0  0  0
    5.9640    1.3060    0.8940 C   0  0  0  0  0  0  0  0  0  0  0  0
    7.2500    0.8740    0.6430 C   0  0  0  0  0  0  0  0  0  0  0  0
    7.4160   -0.2850   -0.0770 C   0  0  0  0  0  0  0  0  0  0  0  0
    6.3370   -1.0030   -0.5400 C   0  0  0  0  0  0  0  0  0  0  0  0
    5.0440   -0.5880   -0.3000 C   0  0  0  0  0  0  0  0  0  0  0  0
    3.8220   -1.0950   -0.6340 N   0  0  0  0  0  0  0  0  0  0  0  0
  1  2  2  0
  2  3  1  0
  2 12  1  0
  3  4  1  0
  4  5  1  0
  5  6  2  0
  5 10  1  0
  6  7  1  0
  7  8  2  0
  8  9  1  0
  9 10  2  0
 10 11  1  0
 12 13  1  0
 13 14  1  0
 14 15  1  0
 15 16  2  0
 15 23  1  0
 16 17  1  0
 17 18  2  0
 17 22  1  0
 18 19  1  0
 19 20  2  0
 20 21  1  0
 21 22  2  0
 22 23  1  0
M  END
