
     RDKit          3D

 27 29  0  0  0  0  0  0  0  0999 V2000
   -6.7220   -0.8220    2.1850 C   0  0  0  0  0  0  0  0  0  0  0  0
   -6.2420   -0.4550    1.0040 C   0  0  0  0  0  0  0  0  0  0  0  0
   -7.1630   -0.1660    0.0340 O   0  0  0  0  0  0  0  0  0  0  0  0
   -4.8220   -0.3880    0.8210 C   0  0  0  0  0  0  0  0  0  0  0  0
   -4.2260   -0.0420   -0.2920 C   0  0  0  0  0  0  0  0  0  0  0  0
   -4.9100    0.3250   -1.5070 C   0  0  0  0  0  0  0  0  0  0  0  0
   -4.2690    0.6650   -2.6010 C   0  0  0  0  0  0  0  0  0  0  0  0
   -2.8100    0.6970   -2.6680 C   0  0  0  0  0  0  0  0  0  0  0  0
   -2.1000    0.3290   -1.4470 C   0  0  0  0  0  0  0  0  0  0  0  0
   -0.6930    0.3360   -1.4330 C   0  0  0  0  0  0  0  0  0  0  0  0
    0.0380    0.0020   -0.3250 C   0  0  0  0  0  0  0  0  0  0  0  0
    1.4200    0.0020   -0.2890 O   0  0  0  0  0  0  0  0  0  0  0  0
    2.2970    0.3230   -1.3120 C   0  0  1  0  0  0  0  0  0  0  0  0
    3.1910    1.4840   -0.9320 C   0  0  0  0  0  0  0  0  0  0  0  0
    3.9960    1.2050    0.3170 C   0  0  0  0  0  0  0  0  0  0  0  0
    4.8110   -0.0200    0.1420 C   0  0  0  0  0  0  0  0  0  0  0  0
    6.0170   -0.1510    0.6610 C   0  0  0  0  0  0  0  0  0  0  0  0
    6.5740    0.9720    1.4460 C   0  0  0  0  0  0  0  0  0  0  0  0
    6.7560   -1.3080    0.4800 O   0  0  0  0  0  0  0  0  0  0  0  0
    4.2220   -1.1090   -0.6450 C   0  0  0  0  0  0  0  0  0  0  0  0
    4.6650   -2.2860   -0.4480 O   0  0  0  0  0  0  0  0  0  0  0  0
    3.1570   -0.8970   -1.6340 C   0  0  0  0  0  0  0  0  0  0  0  0
   -0.5920   -0.3610    0.8440 C   0  0  0  0  0  0  0  0  0  0  0  0
    0.1080   -0.7070    1.9900 O   0  0  0  0  0  0  0  0  0  0  0  0
   -0.6230   -1.0670    3.1470 C   0  0  0  0  0  0  0  0  0  0  0  0
   -1.9960   -0.3680    0.8280 C   0  0  0  0  0  0  0  0  0  0  0  0
   -2.7320   -0.0330   -0.2840 C   0  0  0  0  0  0  0  0  0  0  0  0
  1  2  2  0
  2  3  1  0
  2  4  1  0
  4  5  2  3
  5  6  1  0
  5 27  1  0
  6  7  2  0
  7  8  1  0
  8  9  1  0
  9 10  2  0
  9 27  1  0
 10 11  1  0
 11 12  1  0
 11 23  2  0
 13 12  1  1
 13 14  1  0
 13 22  1  0
 14 15  1  0
 15 16  1  0
 16 17  2  3
 16 20  1  0
 17 18  1  0
 17 19  1  0
 20 21  2  0
 20 22  1  0
 23 24  1  0
 23 26  1  0
 24 25  1  0
 26 27  2  0
M  END
