
     RDKit          3D

 27 29  0  0  0  0  0  0  0  0999 V2000
    1.3960   -2.5230   -1.5600 C   0  0  0  0  0  0  0  0  0  0  0  0
    2.6560   -2.5250   -0.7770 C   0  0  0  0  0  0  0  0  0  0  0  0
    2.9290   -1.4970    0.0090 C   0  0  0  0  0  0  0  0  0  0  0  0
    2.0110   -0.3790    0.1090 C   0  0  0  0  0  0  0  0  0  0  0  0
    2.3260    0.6280    0.9060 C   0  0  0  0  0  0  0  0  0  0  0  0
    3.6100    0.6150    1.6880 C   0  0  0  0  0  0  0  0  0  0  0  0
    3.9320    2.0110    2.1900 C   0  0  0  0  0  0  0  0  0  0  0  0
    3.3800    3.0610    1.2370 C   0  0  0  0  0  0  0  0  0  0  0  0
    1.8920    2.9720    1.1750 C   0  0  0  0  0  0  0  0  0  0  0  0
    1.3940    1.7370    1.0090 C   0  0  0  0  0  0  0  0  0  0  0  0
   -0.0380    1.5080    0.9460 C   0  0  0  0  0  0  0  0  0  0  0  0
   -0.8050    2.5280    1.0480 O   0  0  0  0  0  0  0  0  0  0  0  0
   -0.6780    0.3130    0.7890 O   0  0  0  0  0  0  0  0  0  0  0  0
   -2.0820    0.1960    0.7410 C   0  0  0  0  0  0  0  0  0  0  0  0
   -2.8010   -0.0010    1.9000 C   0  0  0  0  0  0  0  0  0  0  0  0
   -2.0910   -0.0870    3.1790 C   0  0  0  0  0  0  0  0  0  0  0  0
   -4.1730   -0.1140    1.8490 C   0  0  0  0  0  0  0  0  0  0  0  0
   -4.8560   -0.0350    0.6550 C   0  0  0  0  0  0  0  0  0  0  0  0
   -4.1350    0.1590   -0.4860 C   0  0  0  0  0  0  0  0  0  0  0  0
   -2.7630    0.2750   -0.4520 C   0  0  0  0  0  0  0  0  0  0  0  0
   -2.2870    0.4680   -1.7570 O   0  0  0  0  0  0  0  0  0  0  0  0
   -3.2980   -0.0350   -2.6100 C   0  0  1  0  0  0  0  0  0  0  0  0
   -3.3060    0.5800   -3.9630 C   0  0  0  0  0  0  0  0  0  0  0  0
   -3.1930   -1.5370   -2.6180 C   0  0  0  0  0  0  0  0  0  0  0  0
   -4.4620    0.2880   -1.8460 O   0  0  0  0  0  0  0  0  0  0  0  0
    3.5760   -3.6820   -0.9010 C   0  0  0  0  0  0  0  0  0  0  0  0
    2.9770   -4.8630   -0.5220 O   0  0  0  0  0  0  0  0  0  0  0  0
  1  2  1  0
  2  3  2  3
  2 26  1  0
  3  4  1  0
  4  5  2  3
  5  6  1  0
  5 10  1  0
  6  7  1  0
  7  8  1  0
  8  9  1  0
  9 10  2  0
 10 11  1  0
 11 12  2  0
 11 13  1  0
 13 14  1  0
 14 15  2  0
 14 20  1  0
 15 16  1  0
 15 17  1  0
 17 18  2  0
 18 19  1  0
 19 20  2  0
 19 25  1  0
 20 21  1  0
 21 22  1  0
 22 23  1  6
 22 24  1  0
 22 25  1  0
 26 27  1  0
M  END
