
     RDKit          3D

 27 28  0  0  0  0  0  0  0  0999 V2000
   -2.8340   -0.6790    4.0730 C   0  0  0  0  0  0  0  0  0  0  0  0
   -3.4730   -1.3120    3.1230 C   0  0  0  0  0  0  0  0  0  0  0  0
   -3.4150   -0.9970    1.7210 C   0  0  0  0  0  0  0  0  0  0  0  0
   -4.0310   -1.6060    0.7640 C   0  0  0  0  0  0  0  0  0  0  0  0
   -3.9560   -1.2650   -0.6750 C   0  0  0  0  0  0  0  0  0  0  0  0
   -2.5510    0.1410    1.3830 N   0  0  0  0  0  0  0  0  0  0  0  0
   -1.2080   -0.1990    1.1820 C   0  0  0  0  0  0  0  0  0  0  0  0
   -0.2810    0.1360    0.3560 C   0  0  0  0  0  0  0  0  0  0  0  0
    1.0960   -0.4630    0.4460 C   0  0  0  0  0  0  0  0  0  0  0  0
    1.4570   -1.3080    1.2870 O   0  0  0  0  0  0  0  0  0  0  0  0
    1.8400    0.1290   -0.5940 N   0  0  0  0  0  0  0  0  0  0  0  0
    3.2120   -0.1060   -0.9120 C   0  0  0  0  0  0  0  0  0  0  0  0
    3.6810    0.3000   -2.1480 C   0  0  0  0  0  0  0  0  0  0  0  0
    5.0000    0.1050   -2.4810 C   0  0  0  0  0  0  0  0  0  0  0  0
    5.8370   -0.4970   -1.5650 C   0  0  0  0  0  0  0  0  0  0  0  0
    5.3980   -0.9110   -0.3300 C   0  0  0  0  0  0  0  0  0  0  0  0
    6.3040   -1.5360    0.5980 C   0  0  0  0  0  0  0  0  0  0  0  0
    7.5110   -1.7160    0.3140 O   0  0  0  0  0  0  0  0  0  0  0  0
    4.0580   -0.7040   -0.0130 C   0  0  0  0  0  0  0  0  0  0  0  0
    1.0330    0.9990   -1.2630 N   0  0  0  0  0  0  0  0  0  0  0  0
   -0.2070    1.0340   -0.7410 C   0  0  0  0  0  0  0  0  0  0  0  0
   -1.1320    1.9320   -1.3590 C   0  0  0  0  0  0  0  0  0  0  0  0
   -0.6820    2.6030   -2.3820 O   0  0  0  0  0  0  0  0  0  0  0  0
   -2.5130    2.2460   -1.0430 C   0  0  0  0  0  0  0  0  0  0  0  0
   -3.0820    3.2300   -1.9860 N   0  0  0  0  0  0  0  0  0  0  0  0
   -4.0670    2.9360   -2.6620 O   0  0  0  0  0  0  0  0  0  0  0  0
   -2.5070    4.4670   -2.1010 O   0  0  0  0  0  0  0  0  0  0  0  0
  1  2  2  0
  2  3  1  0
  3  4  2  3
  3  6  1  0
  4  5  1  0
  6  7  1  0
  7  8  2  3
  8  9  1  0
  8 21  1  0
  9 10  2  0
  9 11  1  0
 11 12  1  0
 11 20  1  0
 12 13  2  0
 12 19  1  0
 13 14  1  0
 14 15  2  0
 15 16  1  0
 16 17  1  0
 16 19  2  0
 17 18  2  0
 20 21  2  0
 21 22  1  0
 22 23  2  0
 22 24  1  0
 24 25  1  0
 25 26  2  0
 25 27  1  0
M  CHG  2  25   1  27  -1
M  END
