
     RDKit          3D

 27 28  0  0  0  0  0  0  0  0999 V2000
    7.2650    1.6160    0.3210 C   0  0  0  0  0  0  0  0  0  0  0  0
    7.5280    0.6260   -0.6770 N   0  0  0  0  0  0  0  0  0  0  0  0
    7.1680   -0.7210   -0.2590 C   0  0  1  0  0  0  0  0  0  0  0  0
    7.6820   -1.0010    1.1350 C   0  0  0  0  0  0  0  0  0  0  0  0
    5.7250   -0.9680   -0.3870 C   0  0  0  0  0  0  0  0  0  0  0  0
    4.6610   -0.1570   -0.0240 C   0  0  0  0  0  0  0  0  0  0  0  0
    3.5100   -0.8330   -0.3460 C   0  0  0  0  0  0  0  0  0  0  0  0
    2.1630   -0.3720   -0.1460 N   0  0  0  0  0  0  0  0  0  0  0  0
    1.0680   -1.1780   -0.5260 C   0  0  0  0  0  0  0  0  0  0  0  0
    1.3520   -2.3020   -1.0410 O   0  0  0  0  0  0  0  0  0  0  0  0
   -0.3350   -0.7800   -0.3560 C   0  0  0  0  0  0  0  0  0  0  0  0
   -0.7010    0.3570    0.1630 C   0  0  0  0  0  0  0  0  0  0  0  0
   -2.1440    0.6890    0.3030 C   0  0  0  0  0  0  0  0  0  0  0  0
   -2.9030   -0.3910   -0.2010 O   0  0  0  0  0  0  0  0  0  0  0  0
   -4.2850   -0.2760   -0.1610 C   0  0  0  0  0  0  0  0  0  0  0  0
   -5.0730   -1.3010   -0.6390 C   0  0  0  0  0  0  0  0  0  0  0  0
   -6.4480   -1.2140   -0.6120 C   0  0  0  0  0  0  0  0  0  0  0  0
   -7.0660   -0.0940   -0.1030 C   0  0  0  0  0  0  0  0  0  0  0  0
   -8.4340   -0.0120   -0.0780 O   0  0  0  0  0  0  0  0  0  0  0  0
   -9.2150   -1.0760   -0.5750 C   0  0  0  0  0  0  0  0  0  0  0  0
   -6.3090    0.9480    0.3830 C   0  0  0  0  0  0  0  0  0  0  0  0
   -6.9090    2.0880    0.9010 O   0  0  0  0  0  0  0  0  0  0  0  0
   -6.0860    3.1340    1.3900 C   0  0  0  0  0  0  0  0  0  0  0  0
   -4.9230    0.8330    0.3430 C   0  0  0  0  0  0  0  0  0  0  0  0
    3.8920   -2.0010   -0.8790 N   0  0  0  0  0  0  0  0  0  0  0  0
    5.1980   -2.1030   -0.9140 N   0  0  0  0  0  0  0  0  0  0  0  0
    5.8980   -3.1930   -1.4090 O   0  0  0  0  0  0  0  0  0  0  0  0
  1  2  1  0
  2  3  1  0
  3  4  1  1
  3  5  1  0
  5  6  2  0
  5 26  1  0
  6  7  1  0
  7  8  1  0
  7 25  2  0
  8  9  1  0
  9 10  2  0
  9 11  1  0
 11 12  2  3
 12 13  1  0
 13 14  1  0
 14 15  1  0
 15 16  2  0
 15 24  1  0
 16 17  1  0
 17 18  2  0
 18 19  1  0
 18 21  1  0
 19 20  1  0
 21 22  1  0
 21 24  2  0
 22 23  1  0
 25 26  1  0
 26 27  1  0
M  CHG  2   2   1  27  -1
M  END
