
     RDKit          3D

 27 28  0  0  0  0  0  0  0  0999 V2000
    7.9070   -1.5510   -0.1550 C   0  0  0  0  0  0  0  0  0  0  0  0
    6.8310   -1.3710    0.5890 C   0  0  0  0  0  0  0  0  0  0  0  0
    6.4370   -2.3450    1.4950 O   0  0  0  0  0  0  0  0  0  0  0  0
    6.0140   -0.1350    0.4830 C   0  0  0  0  0  0  0  0  0  0  0  0
    4.6300   -0.4220    0.0890 N   0  0  1  0  0  0  0  0  0  0  0  0
    4.5440   -1.7240   -0.5400 C   0  0  0  0  0  0  0  0  0  0  0  0
    3.9190   -0.4720    1.2390 O   0  0  0  0  0  0  0  0  0  0  0  0
    4.1670    0.5690   -0.8340 C   0  0  0  0  0  0  0  0  0  0  0  0
    2.7580    1.0420   -0.5750 C   0  0  0  0  0  0  0  0  0  0  0  0
    1.7500   -0.0780   -0.6650 C   0  0  0  0  0  0  0  0  0  0  0  0
    0.4040    0.4300   -0.4040 N   0  0  0  0  0  0  0  0  0  0  0  0
   -0.2470    0.5160    0.8740 C   0  0  0  0  0  0  0  0  0  0  0  0
   -1.5600    1.2040    0.6120 C   0  0  2  0  0  0  0  0  0  0  0  0
   -2.6890    0.1860    0.6080 C   0  0  0  0  0  0  0  0  0  0  0  0
   -2.4360   -1.0180    0.8100 O   0  0  0  0  0  0  0  0  0  0  0  0
   -4.0080    0.6320    0.3730 N   0  0  0  0  0  0  0  0  0  0  0  0
   -5.1500   -0.1700    0.3380 C   0  0  0  0  0  0  0  0  0  0  0  0
   -5.1560   -1.5040    0.5320 C   0  0  0  0  0  0  0  0  0  0  0  0
   -6.3450   -2.2180    0.4790 C   0  0  0  0  0  0  0  0  0  0  0  0
   -7.5090   -1.5430    0.2270 C   0  0  0  0  0  0  0  0  0  0  0  0
   -7.5430   -0.2190    0.0300 N   0  0  0  0  0  0  0  0  0  0  0  0
   -6.3810    0.4460    0.0860 C   0  0  0  0  0  0  0  0  0  0  0  0
   -6.4090    1.8170   -0.1180 O   0  0  0  0  0  0  0  0  0  0  0  0
   -7.5960    2.5020   -0.3740 C   0  0  0  0  0  0  0  0  0  0  0  0
   -1.3920    1.8550   -0.7200 C   0  0  0  0  0  0  0  0  0  0  0  0
   -0.4730    0.9280   -1.4300 C   0  0  0  0  0  0  0  0  0  0  0  0
   -0.4840    0.6620   -2.6410 O   0  0  0  0  0  0  0  0  0  0  0  0
  1  2  2  0
  2  3  1  0
  2  4  1  0
  4  5  1  0
  5  6  1  6
  5  7  1  0
  5  8  1  0
  8  9  1  0
  9 10  1  0
 10 11  1  0
 11 12  1  0
 11 26  1  0
 12 13  1  0
 13 14  1  6
 13 25  1  0
 14 15  2  0
 14 16  1  0
 16 17  1  0
 17 18  2  0
 17 22  1  0
 18 19  1  0
 19 20  2  0
 20 21  1  0
 21 22  2  0
 22 23  1  0
 23 24  1  0
 25 26  1  0
 26 27  2  0
M  CHG  2   5   1   7  -1
M  END
