
     RDKit          3D

 24 26  0  0  0  0  0  0  0  0999 V2000
   -4.5670   -1.2890    2.0680 N   0  0  0  0  0  0  0  0  0  0  0  0
   -3.2750   -0.8950    1.5400 C   0  0  0  0  0  0  0  0  0  0  0  0
   -3.3840    0.5550    1.1260 C   0  0  2  0  0  0  0  0  0  0  0  0
   -4.4450    0.6830    0.0840 C   0  0  0  0  0  0  0  0  0  0  0  0
   -3.6750    1.1550   -1.1360 C   0  0  0  0  0  0  0  0  0  0  0  0
   -2.5710    1.9400   -0.4740 C   0  0  2  0  0  0  0  0  0  0  0  0
   -1.5500    2.4730   -1.3890 C   0  0  0  0  0  0  0  0  0  0  0  0
   -0.8240    1.3930   -2.1770 C   0  0  0  0  0  0  0  0  0  0  0  0
   -0.8940    1.4010   -3.4920 C   0  0  0  0  0  0  0  0  0  0  0  0
    0.0610    0.0190   -3.9850 S   0  0  2  0  0  0  0  0  0  0  0  0
    1.1970    0.5120   -4.7870 O   0  0  0  0  0  0  0  0  0  0  0  0
   -0.7650   -1.0110   -4.6820 O   0  0  0  0  0  0  0  0  0  0  0  0
    0.4870   -0.4710   -2.3630 C   0  0  0  0  0  0  0  0  0  0  0  0
    1.2480   -1.5150   -1.8970 O   0  0  0  0  0  0  0  0  0  0  0  0
    2.2190   -1.3230   -0.9450 C   0  0  0  0  0  0  0  0  0  0  0  0
    2.5760   -0.1610   -0.3410 C   0  0  0  0  0  0  0  0  0  0  0  0
    3.5890   -0.1220    0.6160 C   0  0  0  0  0  0  0  0  0  0  0  0
    4.2660   -1.2500    0.9870 C   0  0  0  0  0  0  0  0  0  0  0  0
    5.3470   -1.2770    1.9930 C   0  0  0  0  0  0  0  0  0  0  0  0
    5.6290    0.0050    2.5540 N   0  0  0  0  0  0  0  0  0  0  0  0
    3.9230   -2.4520    0.3880 C   0  0  0  0  0  0  0  0  0  0  0  0
    2.9180   -2.4740   -0.5570 C   0  0  0  0  0  0  0  0  0  0  0  0
   -0.0660    0.3610   -1.6120 N   0  0  0  0  0  0  0  0  0  0  0  0
   -2.1370    1.0400    0.5440 N   0  0  0  0  0  0  0  0  0  0  0  0
  1  2  1  0
  3  2  1  6
  3  4  1  0
  3 24  1  0
  4  5  1  0
  5  6  1  0
  6  7  1  6
  6 24  1  0
  7  8  1  0
  8  9  2  0
  8 23  1  0
 10  9  1  1
 10 11  2  0
 10 12  2  0
 10 13  1  0
 13 14  1  0
 13 23  2  0
 14 15  1  0
 15 16  2  0
 15 22  1  0
 16 17  1  0
 17 18  2  0
 18 19  1  0
 18 21  1  0
 19 20  1  0
 21 22  2  0
M  CHG  2  20   1  24   1
M  END
