
     RDKit          3D

 22 23  0  0  0  0  0  0  0  0999 V2000
    1.0050    0.8430   -1.4540 O   0  0  0  0  0  0  0  0  0  0  0  0
    0.7560    0.2990   -0.3680 C   0  0  0  0  0  0  0  0  0  0  0  0
    1.8530    0.1570    0.5580 N   0  0  0  0  0  0  0  0  0  0  0  0
    3.1640    0.6420    0.1890 C   0  0  0  0  0  0  0  0  0  0  0  0
    4.1160    0.3710    1.3240 C   0  0  0  0  0  0  0  0  0  0  0  0
    5.4910    0.8530    0.9980 C   0  0  0  0  0  0  0  0  0  0  0  0
    6.0820    2.0340    1.2050 C   0  0  0  0  0  0  0  0  0  0  0  0
    7.3560    2.2130    0.8070 C   0  0  0  0  0  0  0  0  0  0  0  0
    8.0040    1.1810    0.2050 C   0  0  0  0  0  0  0  0  0  0  0  0
    6.7180   -0.0980    0.2150 S   0  0  0  0  0  0  0  0  0  0  0  0
   -0.5910   -0.1990    0.0080 C   0  0  2  0  0  0  0  0  0  0  0  0
   -0.5450   -0.7650    1.3050 O   0  0  0  0  0  0  0  0  0  0  0  0
   -1.0050   -1.2730   -0.9890 C   0  0  1  0  0  0  0  0  0  0  0  0
   -0.0580   -2.3210   -0.9350 O   0  0  0  0  0  0  0  0  0  0  0  0
   -2.3000   -1.8930   -0.6370 C   0  0  0  0  0  0  0  0  0  0  0  0
   -2.3550   -3.0480   -0.1000 O   0  0  0  0  0  0  0  0  0  0  0  0
   -3.5030   -1.2160   -0.8910 N   0  0  0  0  0  0  0  0  0  0  0  0
   -3.5480    0.0620   -1.5400 C   0  0  0  0  0  0  0  0  0  0  0  0
   -4.1430    1.1280   -0.6150 C   0  0  0  0  0  0  0  0  0  0  0  0
   -4.8490    0.4100    0.4570 N   0  0  0  0  0  0  0  0  0  0  0  0
   -5.7000   -0.5680   -0.2400 C   0  0  0  0  0  0  0  0  0  0  0  0
   -4.8010   -1.7860   -0.4890 C   0  0  0  0  0  0  0  0  0  0  0  0
  1  2  2  0
  2  3  1  0
  2 11  1  0
  3  4  1  0
  4  5  1  0
  5  6  1  0
  6  7  2  0
  6 10  1  0
  7  8  1  0
  8  9  2  0
  9 10  1  0
 11 12  1  1
 11 13  1  0
 13 14  1  1
 13 15  1  0
 15 16  2  0
 15 17  1  0
 17 18  1  0
 17 22  1  0
 18 19  1  0
 19 20  1  0
 20 21  1  0
 21 22  1  0
M  CHG  1  20   1
M  END
