
     RDKit          3D

 25 28  0  0  0  0  0  0  0  0999 V2000
    5.6640    1.4440   -1.3380 C   0  0  0  0  0  0  0  0  0  0  0  0
    5.4650    0.0810   -2.0180 C   0  0  0  0  0  0  0  0  0  0  0  0
    4.1370   -0.4000   -1.8170 N   0  0  0  0  0  0  0  0  0  0  0  0
    3.6060   -0.6650   -0.5150 C   0  0  0  0  0  0  0  0  0  0  0  0
    4.4200   -0.5940    0.6200 C   0  0  0  0  0  0  0  0  0  0  0  0
    3.9120   -0.8270    1.8840 C   0  0  0  0  0  0  0  0  0  0  0  0
    2.5770   -1.1310    1.9930 C   0  0  0  0  0  0  0  0  0  0  0  0
    1.7250   -1.2140    0.8970 C   0  0  0  0  0  0  0  0  0  0  0  0
    0.3160   -1.5130    1.0530 C   0  0  0  0  0  0  0  0  0  0  0  0
   -0.3100   -2.6750    1.4420 C   0  0  0  0  0  0  0  0  0  0  0  0
    0.4640   -3.8960    1.8160 C   0  0  0  0  0  0  0  0  0  0  0  0
   -1.6420   -2.5070    1.4200 N   0  0  0  0  0  0  0  0  0  0  0  0
   -1.9220   -1.2250    1.0120 C   0  0  0  0  0  0  0  0  0  0  0  0
   -0.7230   -0.6100    0.7930 C   0  0  0  0  0  0  0  0  0  0  0  0
   -0.6830    0.6570    0.4160 C   0  0  0  0  0  0  0  0  0  0  0  0
   -1.9150    1.4050    0.2210 C   0  0  0  0  0  0  0  0  0  0  0  0
   -1.9280    2.6900   -0.0320 C   0  0  0  0  0  0  0  0  0  0  0  0
   -3.2140    3.3910   -0.2130 C   0  0  0  0  0  0  0  0  0  0  0  0
   -4.3520    2.7640    0.3730 N   0  0  0  0  0  0  0  0  0  0  0  0
   -4.0850    1.5900    1.1830 C   0  0  0  0  0  0  0  0  0  0  0  0
   -3.2080    0.6950    0.3570 C   0  0  1  0  0  0  0  0  0  0  0  0
   -3.8700    0.5150   -1.0480 C   0  0  0  0  0  0  0  0  0  0  0  0
   -5.1920   -0.2330   -0.8400 C   0  0  0  0  0  0  0  0  0  0  0  0
   -3.0570   -0.6540    0.8040 N   0  0  0  0  0  0  0  0  0  0  0  0
    2.2740   -0.9730   -0.3610 C   0  0  0  0  0  0  0  0  0  0  0  0
  1  2  1  0
  2  3  1  0
  3  4  1  0
  4  5  2  0
  4 25  1  0
  5  6  1  0
  6  7  2  0
  7  8  1  0
  8  9  1  0
  8 25  2  0
  9 10  2  0
  9 14  1  0
 10 11  1  0
 10 12  1  0
 12 13  1  0
 13 14  1  0
 13 24  2  0
 14 15  2  0
 15 16  1  0
 16 17  2  0
 16 21  1  0
 17 18  1  0
 18 19  1  0
 19 20  1  0
 20 21  1  0
 21 22  1  6
 21 24  1  0
 22 23  1  0
M  END
