
     RDKit          3D

 24 27  0  0  0  0  0  0  0  0999 V2000
    3.4360    1.9390   -2.5280 C   0  0  0  0  0  0  0  0  0  0  0  0
    2.9600    0.9760   -1.4900 C   0  0  0  0  0  0  0  0  0  0  0  0
    1.7050    0.7080   -1.1220 N   0  0  0  0  0  0  0  0  0  0  0  0
    1.6810   -0.2320   -0.1410 C   0  0  0  0  0  0  0  0  0  0  0  0
    0.5270   -0.8190    0.5530 C   0  0  0  0  0  0  0  0  0  0  0  0
   -0.7310   -0.3100    0.1120 N   0  0  0  0  0  0  0  0  0  0  0  0
   -1.9180   -0.8100    0.7160 C   0  0  0  0  0  0  0  0  0  0  0  0
   -1.8800   -1.7490    1.6920 N   0  0  0  0  0  0  0  0  0  0  0  0
   -2.9720   -2.2470    2.2880 C   0  0  0  0  0  0  0  0  0  0  0  0
   -4.2090   -1.7870    1.8960 C   0  0  0  0  0  0  0  0  0  0  0  0
   -4.3360   -0.8330    0.9110 C   0  0  0  0  0  0  0  0  0  0  0  0
   -3.1780   -0.3570    0.3330 C   0  0  0  0  0  0  0  0  0  0  0  0
   -3.2100    0.6760   -0.7420 C   0  0  0  0  0  0  0  0  0  0  0  0
   -4.5820    1.1730   -1.0360 C   0  0  1  0  0  0  0  0  0  0  0  0
   -5.2260    0.4470   -2.2100 C   0  0  0  0  0  0  0  0  0  0  0  0
   -5.5330    1.1060    0.1140 C   0  0  0  0  0  0  0  0  0  0  0  0
   -5.6860   -0.3530    0.5060 C   0  0  0  0  0  0  0  0  0  0  0  0
    2.9890   -0.5480    0.0970 C   0  0  0  0  0  0  0  0  0  0  0  0
    3.8080    0.2060   -0.7470 C   0  0  0  0  0  0  0  0  0  0  0  0
    5.2710   -0.0120   -0.6230 C   0  0  0  0  0  0  0  0  0  0  0  0
    5.7340   -0.1490    0.7080 N   0  0  0  0  0  0  0  0  0  0  0  0
    6.1810    1.0670    1.3220 C   0  0  0  0  0  0  0  0  0  0  0  0
    4.9200   -0.8830    1.5980 C   0  0  0  0  0  0  0  0  0  0  0  0
    3.6820   -1.4760    1.0150 C   0  0  0  0  0  0  0  0  0  0  0  0
  1  2  1  0
  2  3  1  0
  2 19  2  0
  3  4  1  0
  4  5  1  0
  4 18  2  0
  5  6  1  0
  6  7  1  0
  7  8  2  0
  7 12  1  0
  8  9  1  0
  9 10  2  0
 10 11  1  0
 11 12  2  0
 11 17  1  0
 12 13  1  0
 13 14  1  0
 14 15  1  6
 14 16  1  0
 16 17  1  0
 18 19  1  0
 18 24  1  0
 19 20  1  0
 20 21  1  0
 21 22  1  0
 21 23  1  0
 23 24  1  0
M  END
