
     RDKit          3D

 25 28  0  0  0  0  0  0  0  0999 V2000
    2.4290    1.4130    1.8040 C   0  0  0  0  0  0  0  0  0  0  0  0
    3.4800    1.1080    0.8010 C   0  0  0  0  0  0  0  0  0  0  0  0
    4.6150    1.7590    0.9670 C   0  0  0  0  0  0  0  0  0  0  0  0
    5.8560    1.7030    0.1710 C   0  0  0  0  0  0  0  0  0  0  0  0
    6.1520    0.8350   -0.8120 C   0  0  0  0  0  0  0  0  0  0  0  0
    5.3520   -0.2600   -1.3470 C   0  0  0  0  0  0  0  0  0  0  0  0
    5.9650   -1.1630   -2.0840 C   0  0  0  0  0  0  0  0  0  0  0  0
    7.3470   -1.1440   -2.3920 N   0  0  0  0  0  0  0  0  0  0  0  0
    3.9260   -0.4390   -1.1350 C   0  0  0  0  0  0  0  0  0  0  0  0
    3.1260    0.1400   -0.2220 C   0  0  0  0  0  0  0  0  0  0  0  0
    1.7620   -0.2240   -0.2450 N   0  0  0  0  0  0  0  0  0  0  0  0
    1.3060   -1.5290    0.1560 C   0  0  0  0  0  0  0  0  0  0  0  0
    0.1700   -1.9580   -0.7570 C   0  0  0  0  0  0  0  0  0  0  0  0
   -0.9300   -0.9960   -0.5120 C   0  0  0  0  0  0  0  0  0  0  0  0
   -2.2470   -1.1050   -0.2980 N   0  0  0  0  0  0  0  0  0  0  0  0
   -2.7860    0.1300   -0.1280 C   0  0  0  0  0  0  0  0  0  0  0  0
   -4.2230    0.4590    0.1340 C   0  0  1  0  0  0  0  0  0  0  0  0
   -5.0570   -0.1110   -0.9890 C   0  0  0  0  0  0  0  0  0  0  0  0
   -6.5140    0.1500   -0.6800 C   0  0  0  0  0  0  0  0  0  0  0  0
   -6.8950   -0.5670    0.5960 C   0  0  0  0  0  0  0  0  0  0  0  0
   -6.0690   -0.0430    1.7450 C   0  0  0  0  0  0  0  0  0  0  0  0
   -4.6140   -0.2160    1.4080 C   0  0  0  0  0  0  0  0  0  0  0  0
   -1.7580    0.9850   -0.2450 N   0  0  0  0  0  0  0  0  0  0  0  0
   -0.6110    0.3440   -0.4790 C   0  0  0  0  0  0  0  0  0  0  0  0
    0.8080    0.7610   -0.6920 C   0  0  0  0  0  0  0  0  0  0  0  0
  1  2  1  0
  2  3  2  0
  2 10  1  0
  3  4  1  0
  4  5  2  0
  5  6  1  0
  6  7  2  3
  6  9  1  0
  7  8  1  0
  9 10  2  0
 10 11  1  0
 11 12  1  0
 11 25  1  0
 12 13  1  0
 13 14  1  0
 14 15  1  0
 14 24  2  0
 15 16  2  0
 17 16  1  6
 16 23  1  0
 17 18  1  0
 17 22  1  0
 18 19  1  0
 19 20  1  0
 20 21  1  0
 21 22  1  0
 23 24  1  0
 24 25  1  0
M  END
