
     RDKit          3D

 25 28  0  0  0  0  0  0  0  0999 V2000
   -3.6410    3.1260   -0.8430 C   0  0  0  0  0  0  0  0  0  0  0  0
   -3.2120    1.9310   -0.5180 C   0  0  0  0  0  0  0  0  0  0  0  0
   -3.9570    1.2760    0.4370 N   0  0  0  0  0  0  0  0  0  0  0  0
   -3.6800    0.0570    0.8960 C   0  0  0  0  0  0  0  0  0  0  0  0
   -2.5680   -0.5440    0.3480 C   0  0  0  0  0  0  0  0  0  0  0  0
   -1.7970    0.0580   -0.5990 C   0  0  0  0  0  0  0  0  0  0  0  0
   -0.6700   -0.5800   -1.1390 N   0  0  0  0  0  0  0  0  0  0  0  0
    0.6360   -0.4850   -0.6200 C   0  0  0  0  0  0  0  0  0  0  0  0
    0.9510    0.2390    0.4670 N   0  0  0  0  0  0  0  0  0  0  0  0
    2.2060    0.3180    0.9480 C   0  0  0  0  0  0  0  0  0  0  0  0
    3.2330   -0.3540    0.3310 C   0  0  0  0  0  0  0  0  0  0  0  0
    2.9700   -1.1180   -0.7970 C   0  0  0  0  0  0  0  0  0  0  0  0
    4.0210   -1.8690   -1.5140 C   0  0  0  0  0  0  0  0  0  0  0  0
    1.6580   -1.1630   -1.2470 C   0  0  0  0  0  0  0  0  0  0  0  0
    1.3510   -1.9650   -2.4390 C   0  0  0  0  0  0  0  0  0  0  0  0
    4.5230   -0.1140    1.0430 C   0  0  0  0  0  0  0  0  0  0  0  0
    4.2240    1.0760    1.9280 C   0  0  0  0  0  0  0  0  0  0  0  0
    2.7250    1.0730    2.1380 C   0  0  0  0  0  0  0  0  0  0  0  0
   -2.1130    1.3570   -1.0720 C   0  0  0  0  0  0  0  0  0  0  0  0
   -1.3140    1.8590   -1.9860 C   0  0  0  0  0  0  0  0  0  0  0  0
   -1.3620    3.1390   -2.6620 C   0  0  0  0  0  0  0  0  0  0  0  0
   -2.2450   -1.8990    0.8450 C   0  0  0  0  0  0  0  0  0  0  0  0
   -2.9780   -2.4980    1.7610 C   0  0  0  0  0  0  0  0  0  0  0  0
   -4.1720   -1.9100    2.3820 C   0  0  0  0  0  0  0  0  0  0  0  0
   -4.4740   -0.5870    1.8850 N   0  0  0  0  0  0  0  0  0  0  0  0
  1  2  2  0
  2  3  1  0
  2 19  1  0
  3  4  2  0
  4  5  1  0
  4 25  1  0
  5  6  2  0
  5 22  1  0
  6  7  1  0
  6 19  1  0
  7  8  1  0
  8  9  2  0
  8 14  1  0
  9 10  1  0
 10 11  2  0
 10 18  1  0
 11 12  1  0
 11 16  1  0
 12 13  1  0
 12 14  2  0
 14 15  1  0
 16 17  1  0
 17 18  1  0
 19 20  2  3
 20 21  1  0
 22 23  2  0
 23 24  1  0
 24 25  1  0
M  END
