
     RDKit          3D

 26 26  0  0  0  0  0  0  0  0999 V2000
    5.8130    2.5410   -0.7530 N   0  0  0  0  0  0  0  0  0  0  0  0
    5.0480    1.4260   -0.1780 C   0  0  0  0  0  0  0  0  0  0  0  0
    3.7270    1.3800   -0.7790 N   0  0  0  0  0  0  0  0  0  0  0  0
    3.4160    0.0850   -1.2840 C   0  0  0  0  0  0  0  0  0  0  0  0
    3.4650   -1.0270   -0.2840 C   0  0  2  0  0  0  0  0  0  0  0  0
    3.1560   -2.2410   -0.9560 O   0  0  0  0  0  0  0  0  0  0  0  0
    2.4930   -0.8590    0.8460 C   0  0  1  0  0  0  0  0  0  0  0  0
    2.7210    0.2670    1.5840 O   0  0  0  0  0  0  0  0  0  0  0  0
    1.0470   -0.7890    0.3190 C   0  0  0  0  0  0  0  0  0  0  0  0
    0.2580   -0.7320    1.4280 O   0  0  0  0  0  0  0  0  0  0  0  0
   -1.1190   -0.6810    1.2000 C   0  0  1  0  0  0  0  0  0  0  0  0
   -1.7770   -1.9240    1.6900 C   0  0  0  0  0  0  0  0  0  0  0  0
   -2.5520   -2.7350    1.0030 C   0  0  0  0  0  0  0  0  0  0  0  0
   -2.9940   -2.6800   -0.3670 C   0  0  0  0  0  0  0  0  0  0  0  0
   -4.0450   -2.0770   -0.8920 C   0  0  0  0  0  0  0  0  0  0  0  0
   -5.0760   -1.2860   -0.2380 C   0  0  0  0  0  0  0  0  0  0  0  0
   -6.2890   -1.8020   -0.3110 O   0  0  0  0  0  0  0  0  0  0  0  0
   -4.9300   -0.0580    0.4520 N   0  0  0  0  0  0  0  0  0  0  0  0
   -4.5470    1.1910   -0.0210 N   0  0  0  0  0  0  0  0  0  0  0  0
   -3.9170    1.4970   -1.2570 C   0  0  0  0  0  0  0  0  0  0  0  0
   -4.6290    2.2010   -2.0940 O   0  0  0  0  0  0  0  0  0  0  0  0
   -2.6100    1.1200   -1.6690 N   0  0  0  0  0  0  0  0  0  0  0  0
   -1.3990    1.4990   -1.0950 N   0  0  0  0  0  0  0  0  0  0  0  0
   -1.1510    2.1510    0.1200 C   0  0  0  0  0  0  0  0  0  0  0  0
   -1.2450    1.7600    1.3110 N   0  0  0  0  0  0  0  0  0  0  0  0
   -1.6310    0.5310    1.9020 C   0  0  0  0  0  0  0  0  0  0  0  0
  1  2  1  0
  2  3  1  0
  3  4  1  0
  4  5  1  0
  5  6  1  6
  5  7  1  0
  7  8  1  6
  7  9  1  0
  9 10  1  0
 11 10  1  1
 11 12  1  0
 11 26  1  0
 12 13  2  0
 13 14  1  0
 14 15  2  0
 15 16  1  0
 16 17  2  0
 16 18  1  0
 18 19  1  0
 19 20  1  0
 20 21  2  0
 20 22  1  0
 22 23  1  0
 23 24  1  0
 24 25  2  0
 25 26  1  0
M  CHG  1   3   1
M  END
