
     RDKit          3D

 25 28  0  0  0  0  0  0  0  0999 V2000
   -5.8620   -1.6470   -0.9640 C   0  0  0  0  0  0  0  0  0  0  0  0
   -5.7950   -0.1870   -0.5020 C   0  0  1  0  0  0  0  0  0  0  0  0
   -6.4050   -0.1580    0.8800 C   0  0  0  0  0  0  0  0  0  0  0  0
   -4.3850    0.2190   -0.5270 C   0  0  0  0  0  0  0  0  0  0  0  0
   -4.0000    1.2470   -1.3600 C   0  0  0  0  0  0  0  0  0  0  0  0
   -2.6750    1.6630   -1.4160 C   0  0  0  0  0  0  0  0  0  0  0  0
   -1.7200    1.0450   -0.6290 C   0  0  0  0  0  0  0  0  0  0  0  0
   -2.0760    0.0130    0.2150 C   0  0  0  0  0  0  0  0  0  0  0  0
   -3.4030   -0.3660    0.2370 C   0  0  0  0  0  0  0  0  0  0  0  0
   -1.0630   -0.6280    1.0360 C   0  0  0  0  0  0  0  0  0  0  0  0
    0.2330   -0.2270    0.9890 C   0  0  0  0  0  0  0  0  0  0  0  0
    1.1410   -0.9230    1.8260 N   0  0  0  0  0  0  0  0  0  0  0  0
    0.6550    0.8430    0.1280 C   0  0  0  0  0  0  0  0  0  0  0  0
    1.8770    1.2940    0.0820 C   0  0  0  0  0  0  0  0  0  0  0  0
    3.0220    0.8580    0.8460 C   0  0  0  0  0  0  0  0  0  0  0  0
    3.1300    0.9210    2.2170 C   0  0  0  0  0  0  0  0  0  0  0  0
    4.2480    0.4710    2.8810 C   0  0  0  0  0  0  0  0  0  0  0  0
    5.2830   -0.0580    2.1190 C   0  0  0  0  0  0  0  0  0  0  0  0
    5.2040   -0.1340    0.7460 C   0  0  0  0  0  0  0  0  0  0  0  0
    6.0400   -0.5940   -0.2680 C   0  0  0  0  0  0  0  0  0  0  0  0
    5.4470   -0.4240   -1.4620 N   0  0  0  0  0  0  0  0  0  0  0  0
    5.9850   -0.7750   -2.7840 C   0  0  0  0  0  0  0  0  0  0  0  0
    4.2720    0.1260   -1.2130 N   0  0  0  0  0  0  0  0  0  0  0  0
    4.0810    0.3200    0.1000 C   0  0  0  0  0  0  0  0  0  0  0  0
   -0.3770    1.4730   -0.6900 N   0  0  0  0  0  0  0  0  0  0  0  0
  2  1  1  1
  2  3  1  0
  2  4  1  0
  4  5  2  0
  4  9  1  0
  5  6  1  0
  6  7  2  0
  7  8  1  0
  7 25  1  0
  8  9  2  0
  8 10  1  0
 10 11  2  0
 11 12  1  0
 11 13  1  0
 13 14  2  3
 13 25  1  0
 14 15  1  0
 15 16  2  0
 15 24  1  0
 16 17  1  0
 17 18  2  0
 18 19  1  0
 19 20  2  0
 19 24  1  0
 20 21  1  0
 21 22  1  0
 21 23  1  0
 23 24  2  0
M  END
