
     RDKit          3D

 17 17  0  0  0  0  0  0  0  0999 V2000
   -4.7270   -0.3220    1.7260 C   0  0  0  0  0  0  0  0  0  0  0  0
   -5.0320   -0.3150    0.2410 C   0  0  0  0  0  0  0  0  0  0  0  0
   -4.5160   -1.6000   -0.4040 C   0  0  0  0  0  0  0  0  0  0  0  0
   -3.0240   -1.6920   -0.2010 C   0  0  0  0  0  0  0  0  0  0  0  0
   -2.4050   -0.5870   -0.7930 O   0  0  0  0  0  0  0  0  0  0  0  0
   -1.0320   -0.3840   -0.7770 C   0  0  0  0  0  0  0  0  0  0  0  0
   -0.1470   -1.2510   -0.1750 C   0  0  0  0  0  0  0  0  0  0  0  0
    1.2130   -1.0250   -0.1740 C   0  0  0  0  0  0  0  0  0  0  0  0
    1.7050    0.1020   -0.7920 C   0  0  0  0  0  0  0  0  0  0  0  0
    3.1630    0.3720   -0.8070 C   0  0  0  0  0  0  0  0  0  0  0  0
    3.6240    1.3470    0.6470 S   0  0  0  0  0  0  0  0  0  0  0  0
    5.3720    1.6470    0.5930 C   0  0  0  0  0  0  0  0  0  0  0  0
    5.9750    2.3930    1.6260 N   0  0  0  0  0  0  0  0  0  0  0  0
    6.0710    1.1910   -0.3730 N   0  0  0  0  0  0  0  0  0  0  0  0
    0.8360    0.9760   -1.3950 C   0  0  0  0  0  0  0  0  0  0  0  0
   -0.5080    0.7340   -1.3860 C   0  0  0  0  0  0  0  0  0  0  0  0
   -1.5330    1.9100   -2.1840 Cl  0  0  0  0  0  0  0  0  0  0  0  0
  1  2  1  0
  2  3  1  0
  3  4  1  0
  4  5  1  0
  5  6  1  0
  6  7  2  0
  6 16  1  0
  7  8  1  0
  8  9  2  0
  9 10  1  0
  9 15  1  0
 10 11  1  0
 11 12  1  0
 12 13  1  0
 12 14  2  0
 15 16  2  0
 16 17  1  0
M  CHG  1  14   1
M  END
