
     RDKit          3D

 25 28  0  0  0  0  0  0  0  0999 V2000
   -5.5070    1.0910   -1.1330 C   0  0  0  0  0  0  0  0  0  0  0  0
   -4.2800    0.6830   -1.2290 C   0  0  0  0  0  0  0  0  0  0  0  0
   -3.6870   -0.0380   -2.3720 C   0  0  0  0  0  0  0  0  0  0  0  0
   -3.0460   -1.2970   -1.8610 C   0  0  0  0  0  0  0  0  0  0  0  0
   -1.9310   -1.0850   -0.8600 C   0  0  0  0  0  0  0  0  0  0  0  0
   -1.9470    0.3150   -0.3290 C   0  0  0  0  0  0  0  0  0  0  0  0
   -0.8440    0.9430   -0.0810 C   0  0  0  0  0  0  0  0  0  0  0  0
    0.5100    0.4870   -0.2360 C   0  0  0  0  0  0  0  0  0  0  0  0
    1.4220    1.0800   -1.0520 N   0  0  0  0  0  0  0  0  0  0  0  0
    2.5820    0.5000   -0.9900 N   0  0  0  0  0  0  0  0  0  0  0  0
    3.7290    0.9430   -1.7610 C   0  0  0  0  0  0  0  0  0  0  0  0
    4.5310    1.9840   -1.0420 C   0  0  0  0  0  0  0  0  0  0  0  0
    5.0790    1.5000    0.2780 C   0  0  0  0  0  0  0  0  0  0  0  0
    2.4670   -0.5090   -0.1150 C   0  0  0  0  0  0  0  0  0  0  0  0
    3.3790   -1.4150    0.3230 C   0  0  0  0  0  0  0  0  0  0  0  0
    2.9920   -2.3500    1.2540 C   0  0  0  0  0  0  0  0  0  0  0  0
    1.7300   -2.3930    1.7480 N   0  0  0  0  0  0  0  0  0  0  0  0
    1.1380   -3.1820    2.6510 C   0  0  0  0  0  0  0  0  0  0  0  0
   -0.1670   -2.7410    2.7630 C   0  0  0  0  0  0  0  0  0  0  0  0
   -0.3120   -1.7030    1.9230 N   0  0  0  0  0  0  0  0  0  0  0  0
    0.8330   -1.4830    1.3000 C   0  0  0  0  0  0  0  0  0  0  0  0
    1.1610   -0.5340    0.3760 C   0  0  0  0  0  0  0  0  0  0  0  0
   -3.2850    0.9060   -0.1470 C   0  0  0  0  0  0  0  0  0  0  0  0
   -3.5310    1.5940    0.9240 C   0  0  0  0  0  0  0  0  0  0  0  0
   -2.6320    1.8730    2.0500 C   0  0  0  0  0  0  0  0  0  0  0  0
  1  2  2  0
  2  3  1  0
  2 23  1  0
  3  4  1  0
  4  5  1  0
  5  6  1  0
  6  7  2  3
  6 23  1  0
  7  8  1  0
  8  9  2  0
  8 22  1  0
  9 10  1  0
 10 11  1  0
 10 14  1  0
 11 12  1  0
 12 13  1  0
 14 15  1  0
 14 22  2  0
 15 16  2  0
 16 17  1  0
 17 18  1  0
 17 21  1  0
 18 19  2  0
 19 20  1  0
 20 21  2  0
 21 22  1  0
 23 24  2  3
 24 25  1  0
M  END
