
     RDKit          3D

 25 28  0  0  0  0  0  0  0  0999 V2000
   -1.2640   -3.2350    0.5920 C   0  0  0  0  0  0  0  0  0  0  0  0
   -2.2970   -2.2460    0.2790 C   0  0  0  0  0  0  0  0  0  0  0  0
   -3.7330   -2.6890    0.4100 C   0  0  0  0  0  0  0  0  0  0  0  0
   -2.1170   -1.0070   -0.0990 C   0  0  0  0  0  0  0  0  0  0  0  0
   -3.1800   -0.0200   -0.4160 C   0  0  0  0  0  0  0  0  0  0  0  0
   -4.4490    0.2360   -0.5150 C   0  0  0  0  0  0  0  0  0  0  0  0
   -4.6900    1.6610   -0.9530 C   0  0  0  0  0  0  0  0  0  0  0  0
   -3.3430    1.9390   -1.6730 C   0  0  0  0  0  0  0  0  0  0  0  0
   -2.4320    1.2190   -0.7540 C   0  0  1  0  0  0  0  0  0  0  0  0
   -2.0940    2.0010    0.4960 C   0  0  0  0  0  0  0  0  0  0  0  0
   -1.1850    0.6280   -1.3780 C   0  0  0  0  0  0  0  0  0  0  0  0
   -0.8680   -0.3410   -0.2910 N   0  0  0  0  0  0  0  0  0  0  0  0
    0.3720   -0.5030    0.3460 C   0  0  0  0  0  0  0  0  0  0  0  0
    1.4700   -0.0440   -0.3980 C   0  0  0  0  0  0  0  0  0  0  0  0
    2.7620    0.2110    0.0130 C   0  0  0  0  0  0  0  0  0  0  0  0
    3.3280    0.4230   -1.2270 C   0  0  0  0  0  0  0  0  0  0  0  0
    4.6270    0.6060   -1.6510 C   0  0  0  0  0  0  0  0  0  0  0  0
    5.8580    0.6460   -1.0310 C   0  0  0  0  0  0  0  0  0  0  0  0
    6.2550    0.7560    0.2930 C   0  0  0  0  0  0  0  0  0  0  0  0
    5.6260    0.8290    1.5310 C   0  0  0  0  0  0  0  0  0  0  0  0
    4.4030    0.5400    1.9990 N   0  0  0  0  0  0  0  0  0  0  0  0
    3.2530    0.2220    1.4060 C   0  0  0  0  0  0  0  0  0  0  0  0
    2.5460   -0.1340    2.5030 N   0  0  0  0  0  0  0  0  0  0  0  0
    1.4040   -0.8410    2.5450 C   0  0  0  0  0  0  0  0  0  0  0  0
    0.4900   -1.0220    1.5660 N   0  0  0  0  0  0  0  0  0  0  0  0
  1  2  1  0
  2  3  1  0
  2  4  2  3
  4  5  1  0
  4 12  1  0
  5  6  2  0
  5  9  1  0
  6  7  1  0
  7  8  1  0
  8  9  1  0
  9 10  1  1
  9 11  1  0
 11 12  1  0
 12 13  1  0
 13 14  2  0
 13 25  1  0
 14 15  1  0
 15 16  2  0
 15 22  1  0
 16 17  1  0
 17 18  2  0
 18 19  1  0
 19 20  2  0
 20 21  1  0
 21 22  1  0
 22 23  2  0
 23 24  1  0
 24 25  2  0
M  END
