
     RDKit          3D

 25 28  0  0  0  0  0  0  0  0999 V2000
   -5.2790   -0.5030   -0.8250 C   0  0  0  0  0  0  0  0  0  0  0  0
   -4.4670   -0.0070    0.2910 C   0  0  0  0  0  0  0  0  0  0  0  0
   -5.0300    0.4060    1.4550 C   0  0  0  0  0  0  0  0  0  0  0  0
   -4.0010    0.8300    2.3650 C   0  0  0  0  0  0  0  0  0  0  0  0
   -2.8110    0.6810    1.7780 C   0  0  0  0  0  0  0  0  0  0  0  0
   -3.0430    0.1410    0.4240 C   0  0  0  0  0  0  0  0  0  0  0  0
   -2.0670   -0.0800   -0.4770 C   0  0  0  0  0  0  0  0  0  0  0  0
   -2.4370   -0.5270   -1.8210 C   0  0  0  0  0  0  0  0  0  0  0  0
   -0.6920    0.1440   -0.0920 C   0  0  0  0  0  0  0  0  0  0  0  0
    0.4460   -0.0160   -0.6900 C   0  0  0  0  0  0  0  0  0  0  0  0
    0.5960   -0.5360   -2.0460 C   0  0  0  0  0  0  0  0  0  0  0  0
    1.8790   -1.1270   -2.3830 N   0  0  0  0  0  0  0  0  0  0  0  0
    2.9710   -1.6490   -1.6610 C   0  0  0  0  0  0  0  0  0  0  0  0
    3.5870   -2.6880   -2.2330 N   0  0  0  0  0  0  0  0  0  0  0  0
    4.6480   -3.3060   -1.6750 C   0  0  0  0  0  0  0  0  0  0  0  0
    5.0910   -2.8150   -0.4540 C   0  0  0  0  0  0  0  0  0  0  0  0
    4.4670   -1.7540    0.1370 N   0  0  0  0  0  0  0  0  0  0  0  0
    3.4210   -1.1770   -0.4560 C   0  0  0  0  0  0  0  0  0  0  0  0
    2.8720   -0.0380    0.3050 C   0  0  0  0  0  0  0  0  0  0  0  0
    3.7960    0.4810    1.1290 N   0  0  0  0  0  0  0  0  0  0  0  0
    3.4460    1.5740    1.8700 C   0  0  0  0  0  0  0  0  0  0  0  0
    2.1920    2.1370    1.7850 C   0  0  0  0  0  0  0  0  0  0  0  0
    1.8270    3.3330    2.6010 C   0  0  0  0  0  0  0  0  0  0  0  0
    1.2740    1.5610    0.9190 C   0  0  0  0  0  0  0  0  0  0  0  0
    1.5970    0.4510    0.1560 C   0  0  0  0  0  0  0  0  0  0  0  0
  1  2  1  0
  2  3  2  0
  2  6  1  0
  3  4  1  0
  4  5  2  0
  5  6  1  0
  6  7  2  3
  7  8  1  0
  7  9  1  0
  9 10  2  3
 10 11  1  0
 10 25  1  0
 11 12  1  0
 12 13  1  0
 13 14  2  0
 13 18  1  0
 14 15  1  0
 15 16  2  0
 16 17  1  0
 17 18  2  0
 18 19  1  0
 19 20  2  0
 19 25  1  0
 20 21  1  0
 21 22  2  0
 22 23  1  0
 22 24  1  0
 24 25  2  0
M  END
