
     RDKit          3D

 25 28  0  0  0  0  0  0  0  0999 V2000
   -0.7350   -3.7580    1.2640 C   0  0  0  0  0  0  0  0  0  0  0  0
   -1.6730   -3.6500    0.1070 C   0  0  0  0  0  0  0  0  0  0  0  0
   -2.4170   -2.4100    0.0940 N   0  0  0  0  0  0  0  0  0  0  0  0
   -1.7910   -1.1390    0.0230 C   0  0  0  0  0  0  0  0  0  0  0  0
   -0.4600   -0.9650   -0.0410 N   0  0  0  0  0  0  0  0  0  0  0  0
    0.1250    0.2300   -0.1100 C   0  0  0  0  0  0  0  0  0  0  0  0
    1.5530    0.3470   -0.1770 C   0  0  0  0  0  0  0  0  0  0  0  0
    2.2070    1.5760   -0.2490 C   0  0  0  0  0  0  0  0  0  0  0  0
    3.5790    1.5850   -0.3100 C   0  0  0  0  0  0  0  0  0  0  0  0
    4.2890    2.8960   -0.3880 C   0  0  0  0  0  0  0  0  0  0  0  0
    4.3460    0.4430   -0.3040 C   0  0  0  0  0  0  0  0  0  0  0  0
    5.6860    0.5410   -0.3660 N   0  0  0  0  0  0  0  0  0  0  0  0
    6.4580   -0.5690   -0.3610 C   0  0  0  0  0  0  0  0  0  0  0  0
    5.8460   -1.8010   -0.2900 C   0  0  0  0  0  0  0  0  0  0  0  0
    4.4700   -1.9030   -0.2260 C   0  0  0  0  0  0  0  0  0  0  0  0
    3.6870   -0.7690   -0.2320 C   0  0  0  0  0  0  0  0  0  0  0  0
    2.3250   -0.7940   -0.1710 C   0  0  0  0  0  0  0  0  0  0  0  0
   -0.6710    1.3120   -0.1140 N   0  0  0  0  0  0  0  0  0  0  0  0
   -2.0210    1.2570   -0.0530 C   0  0  0  0  0  0  0  0  0  0  0  0
   -2.5990    0.0120    0.0180 C   0  0  0  0  0  0  0  0  0  0  0  0
   -4.0580   -0.1220    0.0940 C   0  0  0  0  0  0  0  0  0  0  0  0
   -4.8650    1.1090    0.0610 C   0  0  0  0  0  0  0  0  0  0  0  0
   -4.1590    2.3840   -0.0140 C   0  0  0  0  0  0  0  0  0  0  0  0
   -4.9900    3.6290   -0.0300 C   0  0  0  0  0  0  0  0  0  0  0  0
   -2.8420    2.4570   -0.0670 C   0  0  0  0  0  0  0  0  0  0  0  0
  1  2  1  0
  2  3  1  0
  3  4  1  0
  4  5  2  0
  4 20  1  0
  5  6  1  0
  6  7  1  0
  6 18  2  0
  7  8  2  0
  7 17  1  0
  8  9  1  0
  9 10  1  0
  9 11  2  0
 11 12  1  0
 11 16  1  0
 12 13  2  0
 13 14  1  0
 14 15  2  0
 15 16  1  0
 16 17  2  0
 18 19  1  0
 19 20  2  0
 19 25  1  0
 20 21  1  0
 21 22  1  0
 22 23  1  0
 23 24  1  0
 23 25  2  0
M  END
