
     RDKit          3D

 16 17  0  0  0  0  0  0  0  0999 V2000
   -1.8750    1.2220   -1.7920 N   0  0  0  0  0  0  0  0  0  0  0  0
   -2.6160    0.3880   -0.9150 C   0  0  0  0  0  0  0  0  0  0  0  0
   -3.9360    0.3810   -0.8380 N   0  0  0  0  0  0  0  0  0  0  0  0
   -4.5950   -0.4260    0.0030 C   0  0  0  0  0  0  0  0  0  0  0  0
   -3.9320   -1.2970    0.8380 C   0  0  0  0  0  0  0  0  0  0  0  0
   -2.5560   -1.2940    0.7630 C   0  0  0  0  0  0  0  0  0  0  0  0
   -1.8890   -0.4620   -0.1040 C   0  0  0  0  0  0  0  0  0  0  0  0
   -0.4170   -0.5080   -0.1320 C   0  0  0  0  0  0  0  0  0  0  0  0
    0.2650    0.6180    0.5560 C   0  0  0  0  0  0  0  0  0  0  0  0
    1.7320    0.4030    0.4260 C   0  0  0  0  0  0  0  0  0  0  0  0
    2.4680   -0.3130    1.3450 C   0  0  0  0  0  0  0  0  0  0  0  0
    3.8230   -0.4920    1.1930 C   0  0  0  0  0  0  0  0  0  0  0  0
    4.4830    0.0460    0.1050 C   0  0  0  0  0  0  0  0  0  0  0  0
    3.7690    0.7640   -0.8240 C   0  0  0  0  0  0  0  0  0  0  0  0
    4.6160    1.4380   -2.1950 Cl  0  0  0  0  0  0  0  0  0  0  0  0
    2.4120    0.9300   -0.6500 C   0  0  0  0  0  0  0  0  0  0  0  0
  1  2  1  0
  2  3  2  0
  2  7  1  0
  3  4  1  0
  4  5  2  0
  5  6  1  0
  6  7  2  0
  7  8  1  0
  8  9  1  0
  9 10  1  0
 10 11  2  0
 10 16  1  0
 11 12  1  0
 12 13  2  0
 13 14  1  0
 14 15  1  0
 14 16  2  0
M  END
