
     RDKit          3D

 25 28  0  0  0  0  0  0  0  0999 V2000
   -4.9840    3.3810   -0.1310 C   0  0  0  0  0  0  0  0  0  0  0  0
   -5.2580    2.5340   -1.0140 C   0  0  0  0  0  0  0  0  0  0  0  0
   -4.5910    1.3910   -1.5780 C   0  0  0  0  0  0  0  0  0  0  0  0
   -5.3730    0.7830   -2.5650 C   0  0  0  0  0  0  0  0  0  0  0  0
   -4.9190   -0.3780   -3.2740 C   0  0  0  0  0  0  0  0  0  0  0  0
   -3.3600    0.7570   -1.3720 C   0  0  0  0  0  0  0  0  0  0  0  0
   -2.2590    0.7580   -0.7060 C   0  0  0  0  0  0  0  0  0  0  0  0
   -1.3190   -0.3760   -1.0990 C   0  0  0  0  0  0  0  0  0  0  0  0
   -0.0810   -0.3400   -0.3260 C   0  0  0  0  0  0  0  0  0  0  0  0
    1.0510   -1.1630   -0.3440 C   0  0  0  0  0  0  0  0  0  0  0  0
    1.9270   -0.7050    0.5700 N   0  0  0  0  0  0  0  0  0  0  0  0
    3.1940   -1.2920    0.8320 C   0  0  0  0  0  0  0  0  0  0  0  0
    3.6130   -1.6440    2.0790 C   0  0  0  0  0  0  0  0  0  0  0  0
    4.8640   -2.2100    2.2290 C   0  0  0  0  0  0  0  0  0  0  0  0
    5.7120   -2.4370    1.1740 C   0  0  0  0  0  0  0  0  0  0  0  0
    7.0530   -3.0460    1.3460 C   0  0  0  0  0  0  0  0  0  0  0  0
    5.2720   -2.0790   -0.0530 N   0  0  0  0  0  0  0  0  0  0  0  0
    4.0770   -1.5340   -0.2280 C   0  0  0  0  0  0  0  0  0  0  0  0
    1.4340    0.3860    1.1990 C   0  0  0  0  0  0  0  0  0  0  0  0
    1.8500    1.2560    2.1870 C   0  0  0  0  0  0  0  0  0  0  0  0
    0.9980    2.2780    2.5420 C   0  0  0  0  0  0  0  0  0  0  0  0
   -0.2340    2.4470    1.9450 N   0  0  0  0  0  0  0  0  0  0  0  0
   -0.6320    1.6010    0.9880 C   0  0  0  0  0  0  0  0  0  0  0  0
    0.1980    0.5960    0.6360 C   0  0  0  0  0  0  0  0  0  0  0  0
   -1.8970    1.6750    0.2910 N   0  0  0  0  0  0  0  0  0  0  0  0
  1  2  2  0
  2  3  1  0
  3  4  2  3
  3  6  1  0
  4  5  1  0
  6  7  2  3
  7  8  1  0
  7 25  1  0
  8  9  1  0
  9 10  2  0
  9 24  1  0
 10 11  1  0
 11 12  1  0
 11 19  1  0
 12 13  2  0
 12 18  1  0
 13 14  1  0
 14 15  2  0
 15 16  1  0
 15 17  1  0
 17 18  2  0
 19 20  1  0
 19 24  2  0
 20 21  2  0
 21 22  1  0
 22 23  2  0
 23 24  1  0
 23 25  1  0
M  END
