
     RDKit          3D

 27 27  0  0  0  0  0  0  0  0999 V2000
   -3.3000    4.1730   -0.3990 C   0  0  0  0  0  0  0  0  0  0  0  0
   -2.0040    3.6110   -0.0600 C   0  0  0  0  0  0  0  0  0  0  0  0
   -1.0190    4.4710   -0.0320 O   0  0  0  0  0  0  0  0  0  0  0  0
   -1.6830    2.2780    0.2360 C   0  0  0  0  0  0  0  0  0  0  0  0
   -2.3310    1.1690    0.3140 C   0  0  0  0  0  0  0  0  0  0  0  0
   -3.7210    0.9180    0.1020 C   0  0  0  0  0  0  0  0  0  0  0  0
   -4.6410    1.6870   -0.2050 O   0  0  0  0  0  0  0  0  0  0  0  0
   -4.1570   -0.4440    0.2640 O   0  0  0  0  0  0  0  0  0  0  0  0
   -1.4750   -0.0260    0.6850 C   0  0  0  0  0  0  0  0  0  0  0  0
   -2.0780   -1.1230    0.7690 N   0  0  0  0  0  0  0  0  0  0  0  0
   -1.6870   -2.4080    1.0690 C   0  0  0  0  0  0  0  0  0  0  0  0
   -1.5540   -2.8140    2.2530 O   0  0  0  0  0  0  0  0  0  0  0  0
   -1.3950   -3.4060    0.0010 C   0  0  0  0  0  0  0  0  0  0  0  0
   -1.5820   -2.7950   -1.2260 O   0  0  0  0  0  0  0  0  0  0  0  0
   -1.3150   -3.7100   -2.1500 O   0  0  0  0  0  0  0  0  0  0  0  0
    0.2380    0.2850    0.9440 S   0  0  0  0  0  0  0  0  0  0  0  0
    1.1860   -1.1560    1.3950 C   0  0  0  0  0  0  0  0  0  0  0  0
    2.6550   -0.8540    1.5960 C   0  0  0  0  0  0  0  0  0  0  0  0
    3.2740   -0.3210    0.4060 N   0  0  0  0  0  0  0  0  0  0  0  0
    3.8210   -1.1830   -0.4710 C   0  0  0  0  0  0  0  0  0  0  0  0
    3.8050   -2.4450   -0.2740 O   0  0  0  0  0  0  0  0  0  0  0  0
    4.3920   -0.6600   -1.5730 N   0  0  0  0  0  0  0  0  0  0  0  0
    4.4090    0.6720   -1.7820 C   0  0  0  0  0  0  0  0  0  0  0  0
    4.9570    1.1260   -2.8340 O   0  0  0  0  0  0  0  0  0  0  0  0
    3.8640    1.5220   -0.9090 N   0  0  0  0  0  0  0  0  0  0  0  0
    3.2930    1.0070    0.1930 C   0  0  0  0  0  0  0  0  0  0  0  0
    2.7800    1.8330    1.0130 O   0  0  0  0  0  0  0  0  0  0  0  0
  1  2  1  0
  2  3  2  0
  2  4  1  0
  4  5  2  3
  5  6  1  0
  5  9  1  0
  6  7  2  0
  6  8  1  0
  9 10  2  3
  9 16  1  0
 10 11  1  0
 11 12  2  0
 11 13  1  0
 13 14  1  0
 14 15  1  0
 16 17  1  0
 17 18  1  0
 18 19  1  0
 19 20  1  0
 19 26  1  0
 20 21  2  0
 20 22  1  0
 22 23  1  0
 23 24  2  0
 23 25  1  0
 25 26  1  0
 26 27  2  0
M  END
