
     RDKit          3D

 26 27  0  0  0  0  0  0  0  0999 V2000
   -1.7110   -0.8920    2.0430 O   0  0  0  0  0  0  0  0  0  0  0  0
   -2.1490   -0.2780    1.0180 C   0  0  0  0  0  0  0  0  0  0  0  0
   -3.5380   -0.2380    0.7230 N   0  0  0  0  0  0  0  0  0  0  0  0
   -4.4350   -0.9260    1.6360 C   0  0  0  0  0  0  0  0  0  0  0  0
   -5.8470   -0.7470    1.1200 C   0  0  1  0  0  0  0  0  0  0  0  0
   -6.1170    0.6130    1.0850 O   0  0  0  0  0  0  0  0  0  0  0  0
   -7.4140    0.8960    0.6850 C   0  0  0  0  0  0  0  0  0  0  0  0
   -7.8240    0.1850   -0.5620 C   0  0  0  0  0  0  0  0  0  0  0  0
   -6.7150   -0.5350   -1.1880 N   0  0  0  0  0  0  0  0  0  0  0  0
   -5.8480   -1.2320   -0.2950 C   0  0  0  0  0  0  0  0  0  0  0  0
   -5.1420   -2.1850   -0.6920 O   0  0  0  0  0  0  0  0  0  0  0  0
   -1.1780    0.3580    0.1990 N   0  0  0  0  0  0  0  0  0  0  0  0
    0.2080    0.3160    0.4990 C   0  0  0  0  0  0  0  0  0  0  0  0
    1.2870    0.7510    0.0080 N   0  0  0  0  0  0  0  0  0  0  0  0
    2.4640    0.5790    0.4730 C   0  0  0  0  0  0  0  0  0  0  0  0
    3.6870    1.1420   -0.1910 C   0  0  0  0  0  0  0  0  0  0  0  0
    3.6010    1.8160   -1.2480 O   0  0  0  0  0  0  0  0  0  0  0  0
    4.9260    0.9300    0.3470 O   0  0  0  0  0  0  0  0  0  0  0  0
    6.1350    1.4100   -0.1960 C   0  0  0  0  0  0  0  0  0  0  0  0
    6.3040    0.8100   -1.5750 C   0  0  0  0  0  0  0  0  0  0  0  0
    6.3440   -0.5630   -1.5630 O   0  0  0  0  0  0  0  0  0  0  0  0
    7.3890   -1.0320   -0.8100 C   0  0  0  0  0  0  0  0  0  0  0  0
    8.5880   -0.5490   -1.3490 O   0  0  0  0  0  0  0  0  0  0  0  0
    9.6190   -0.9770   -0.6550 O   0  0  0  0  0  0  0  0  0  0  0  0
    2.5990   -0.1600    1.6390 C   0  0  0  0  0  0  0  0  0  0  0  0
    0.8590   -0.5650    1.9710 S   0  0  0  0  0  0  0  0  0  0  0  0
  1  2  2  0
  2  3  1  0
  2 12  1  0
  3  4  1  0
  5  4  1  6
  5  6  1  0
  5 10  1  0
  6  7  1  0
  7  8  1  0
  8  9  1  0
  9 10  1  0
 10 11  2  0
 12 13  1  0
 13 14  2  0
 13 26  1  0
 14 15  1  0
 15 16  1  0
 15 25  2  0
 16 17  2  0
 16 18  1  0
 18 19  1  0
 19 20  1  0
 20 21  1  0
 21 22  1  0
 22 23  1  0
 23 24  1  0
 25 26  1  0
M  END
