
     RDKit          3D

 27 27  0  0  0  0  0  0  0  0999 V2000
    7.3950    1.3960   -0.2690 C   0  0  0  0  0  0  0  0  0  0  0  0
    6.1260    0.9800    0.2100 O   0  0  0  0  0  0  0  0  0  0  0  0
    5.7230   -0.3170   -0.0540 C   0  0  0  0  0  0  0  0  0  0  0  0
    6.4800   -1.0800   -0.7020 O   0  0  0  0  0  0  0  0  0  0  0  0
    4.4700   -0.7650    0.4060 N   0  0  0  0  0  0  0  0  0  0  0  0
    3.9870   -2.1170    0.1610 C   0  0  0  0  0  0  0  0  0  0  0  0
    2.6170   -2.0870   -0.4860 C   0  0  0  0  0  0  0  0  0  0  0  0
    1.7380   -1.1190    0.1280 N   0  0  0  0  0  0  0  0  0  0  0  0
    0.3600   -1.4760    0.3500 C   0  0  0  0  0  0  0  0  0  0  0  0
   -0.0670   -2.6080    0.0150 O   0  0  0  0  0  0  0  0  0  0  0  0
   -0.5160   -0.5780    0.9360 O   0  0  0  0  0  0  0  0  0  0  0  0
   -2.1750   -0.9530    1.2250 S   0  0  0  0  0  0  0  0  0  0  0  0
   -2.2910   -1.4500    2.6570 O   0  0  0  0  0  0  0  0  0  0  0  0
   -3.1050    0.4880    1.0390 N   0  0  0  0  0  0  0  0  0  0  0  0
   -3.3330    0.9840   -0.2800 C   0  0  0  0  0  0  0  0  0  0  0  0
   -2.7780    2.1060   -0.6640 C   0  0  0  0  0  0  0  0  0  0  0  0
   -1.9370    2.8470    0.2320 C   0  0  0  0  0  0  0  0  0  0  0  0
   -1.7250    2.4320    1.3860 O   0  0  0  0  0  0  0  0  0  0  0  0
   -1.3570    4.0320   -0.1860 O   0  0  0  0  0  0  0  0  0  0  0  0
   -4.1720    0.2070   -1.1150 N   0  0  0  0  0  0  0  0  0  0  0  0
   -5.1730   -0.6370   -0.5860 C   0  0  0  0  0  0  0  0  0  0  0  0
   -5.0630   -2.0860   -0.8070 C   0  0  0  0  0  0  0  0  0  0  0  0
   -6.1950   -0.1570    0.0960 C   0  0  0  0  0  0  0  0  0  0  0  0
   -6.3520    1.2640    0.3440 C   0  0  0  0  0  0  0  0  0  0  0  0
   -7.3140    1.7000    0.9840 O   0  0  0  0  0  0  0  0  0  0  0  0
    2.2570    0.1720    0.5010 C   0  0  0  0  0  0  0  0  0  0  0  0
    3.6050    0.1130    1.1490 C   0  0  0  0  0  0  0  0  0  0  0  0
  1  2  1  0
  2  3  1  0
  3  4  2  0
  3  5  1  0
  5  6  1  0
  5 27  1  0
  6  7  1  0
  7  8  1  0
  8  9  1  0
  8 26  1  0
  9 10  2  0
  9 11  1  0
 11 12  1  0
 12 13  2  0
 12 14  1  1
 14 15  1  0
 15 16  2  3
 15 20  1  0
 16 17  1  0
 17 18  2  0
 17 19  1  0
 20 21  1  0
 21 22  1  0
 21 23  2  3
 23 24  1  0
 24 25  2  0
 26 27  1  0
M  END
