
     RDKit          3D

 26 27  0  0  0  0  0  0  0  0999 V2000
   -2.1100    2.4050    1.4780 O   0  0  0  0  0  0  0  0  0  0  0  0
   -3.2840    2.2720    2.1740 C   0  0  0  0  0  0  0  0  0  0  0  0
   -3.6290    0.8310    2.4750 C   0  0  0  0  0  0  0  0  0  0  0  0
   -3.7570    0.1050    1.3320 O   0  0  0  0  0  0  0  0  0  0  0  0
   -2.8170   -0.2330    0.4050 C   0  0  0  0  0  0  0  0  0  0  0  0
   -1.5060    0.0710    0.4290 N   0  0  0  0  0  0  0  0  0  0  0  0
   -0.6180   -0.2720   -0.4940 C   0  0  0  0  0  0  0  0  0  0  0  0
    0.7770   -0.0220   -0.4770 N   0  0  0  0  0  0  0  0  0  0  0  0
    1.5220    0.6100    0.5350 C   0  0  0  0  0  0  0  0  0  0  0  0
    0.8100    1.1340    1.8920 S   0  0  0  0  0  0  0  0  0  0  0  0
    2.9000    0.7990    0.3950 O   0  0  0  0  0  0  0  0  0  0  0  0
    3.3330    1.7950   -0.3760 O   0  0  0  0  0  0  0  0  0  0  0  0
    4.0010    2.7000    0.2650 O   0  0  0  0  0  0  0  0  0  0  0  0
    4.8030    2.1140    1.2340 C   0  0  0  0  0  0  0  0  0  0  0  0
    5.7660    1.1700    0.6100 C   0  0  0  0  0  0  0  0  0  0  0  0
    5.8850    0.8840   -0.7290 C   0  0  0  0  0  0  0  0  0  0  0  0
    6.8910   -0.0310   -0.8580 C   0  0  0  0  0  0  0  0  0  0  0  0
    7.3590   -0.2780    0.4140 C   0  0  0  0  0  0  0  0  0  0  0  0
    6.6600    0.4570    1.2400 O   0  0  0  0  0  0  0  0  0  0  0  0
   -1.1090   -0.9980   -1.5510 N   0  0  0  0  0  0  0  0  0  0  0  0
   -2.3920   -1.3470   -1.6610 C   0  0  0  0  0  0  0  0  0  0  0  0
   -2.7640   -2.0800   -2.7740 O   0  0  0  0  0  0  0  0  0  0  0  0
   -4.1010   -2.4750   -2.9400 C   0  0  0  0  0  0  0  0  0  0  0  0
   -4.6290   -3.3580   -1.8520 C   0  0  0  0  0  0  0  0  0  0  0  0
   -5.9630   -3.7170   -2.0770 O   0  0  0  0  0  0  0  0  0  0  0  0
   -3.2120   -0.9660   -0.6980 N   0  0  0  0  0  0  0  0  0  0  0  0
  1  2  1  0
  2  3  1  0
  3  4  1  0
  4  5  1  0
  5  6  2  0
  5 26  1  0
  6  7  1  0
  7  8  1  0
  7 20  2  0
  8  9  1  0
  9 10  2  0
  9 11  1  0
 11 12  1  0
 12 13  1  0
 13 14  1  0
 14 15  1  0
 15 16  2  0
 15 19  1  0
 16 17  1  0
 17 18  2  0
 18 19  1  0
 20 21  1  0
 21 22  1  0
 21 26  2  0
 22 23  1  0
 23 24  1  0
 24 25  1  0
M  END
