
     RDKit          3D

 27 27  0  0  0  0  0  0  0  0999 V2000
    0.0220    1.0650    1.3380 C   0  0  0  0  0  0  0  0  0  0  0  0
    1.1100    0.1100    1.7130 C   0  0  1  0  0  0  0  0  0  0  0  0
    0.6320   -1.2460    2.1180 C   0  0  0  0  0  0  0  0  0  0  0  0
   -0.2690   -2.0620    0.8160 S   0  0  0  0  0  0  0  0  0  0  0  0
   -1.9220   -1.4560    0.5770 C   0  0  0  0  0  0  0  0  0  0  0  0
   -2.6080   -0.5190    1.2530 N   0  0  0  0  0  0  0  0  0  0  0  0
   -3.8190   -0.3720    0.7460 N   0  0  0  0  0  0  0  0  0  0  0  0
   -3.9550   -1.2250   -0.2900 C   0  0  0  0  0  0  0  0  0  0  0  0
   -5.1520   -1.3870   -1.1390 C   0  0  0  0  0  0  0  0  0  0  0  0
   -5.8960   -0.3760   -1.4860 C   0  0  0  0  0  0  0  0  0  0  0  0
   -7.0060   -0.5830   -2.2820 O   0  0  0  0  0  0  0  0  0  0  0  0
   -5.5460    0.9260   -1.0350 N   0  0  0  0  0  0  0  0  0  0  0  0
   -6.4460    1.6820   -0.2270 C   0  0  0  0  0  0  0  0  0  0  0  0
   -7.5540    1.1980    0.0890 O   0  0  0  0  0  0  0  0  0  0  0  0
   -6.1120    2.9670    0.2240 O   0  0  0  0  0  0  0  0  0  0  0  0
   -2.7960   -1.8800   -0.3850 N   0  0  0  0  0  0  0  0  0  0  0  0
   -2.4570   -2.9030   -1.3480 C   0  0  0  0  0  0  0  0  0  0  0  0
    1.9040   -0.0840    0.5400 O   0  0  0  0  0  0  0  0  0  0  0  0
    3.2210    0.3210    0.5500 C   0  0  0  0  0  0  0  0  0  0  0  0
    3.6960    0.8460    1.5690 O   0  0  0  0  0  0  0  0  0  0  0  0
    4.0450    0.1240   -0.6510 C   0  0  0  0  0  0  0  0  0  0  0  0
    5.3420    0.6380   -0.3800 O   0  0  0  0  0  0  0  0  0  0  0  0
    6.3870    0.6240   -1.2700 C   0  0  0  0  0  0  0  0  0  0  0  0
    6.1680    0.1130   -2.4110 O   0  0  0  0  0  0  0  0  0  0  0  0
    7.7350    1.1520   -1.0090 C   0  0  0  0  0  0  0  0  0  0  0  0
    7.8500    1.6970    0.2700 O   0  0  0  0  0  0  0  0  0  0  0  0
    9.0320    2.1650    0.5120 O   0  0  0  0  0  0  0  0  0  0  0  0
  2  1  1  6
  2  3  1  0
  2 18  1  0
  3  4  1  0
  4  5  1  0
  5  6  2  0
  5 16  1  0
  6  7  1  0
  7  8  2  0
  8  9  1  0
  8 16  1  0
  9 10  2  3
 10 11  1  0
 10 12  1  0
 12 13  1  0
 13 14  2  0
 13 15  1  0
 16 17  1  0
 18 19  1  0
 19 20  2  0
 19 21  1  0
 21 22  1  0
 22 23  1  0
 23 24  2  0
 23 25  1  0
 25 26  1  0
 26 27  1  0
M  END
