
     RDKit          3D

 12 12  0  0  0  0  0  0  0  0999 V2000
   -2.6520   -0.0300   -1.5490 C   0  0  0  0  0  0  0  0  0  0  0  0
   -3.1000    0.0510   -0.1200 C   0  0  0  0  0  0  0  0  0  0  0  0
   -2.0050   -0.0540    0.8140 N   0  0  0  0  0  0  0  0  0  0  0  0
   -2.2910    0.0090    2.2330 C   0  0  0  0  0  0  0  0  0  0  0  0
   -0.6490   -0.2180    0.4180 C   0  0  0  0  0  0  0  0  0  0  0  0
    0.1380    0.8030    0.4610 N   0  0  0  0  0  0  0  0  0  0  0  0
    1.5090    0.7450    0.0870 C   0  0  0  0  0  0  0  0  0  0  0  0
    2.3950    1.9360    0.1460 C   0  0  0  0  0  0  0  0  0  0  0  0
    2.0270   -0.4030   -0.3300 C   0  0  0  0  0  0  0  0  0  0  0  0
    3.4480   -0.5390   -0.7360 C   0  0  0  0  0  0  0  0  0  0  0  0
    1.1860   -1.6320   -0.4100 C   0  0  0  0  0  0  0  0  0  0  0  0
   -0.1340   -1.4150   -0.0100 O   0  0  0  0  0  0  0  0  0  0  0  0
  1  2  1  0
  2  3  1  0
  3  4  1  0
  3  5  1  0
  5  6  2  0
  5 12  1  0
  6  7  1  0
  7  8  1  0
  7  9  2  0
  9 10  1  0
  9 11  1  0
 11 12  1  0
M  END
