
     RDKit          3D

 22 22  0  0  0  0  0  0  0  0999 V2000
   -4.3410    0.8720    1.1890 C   0  0  0  0  0  0  0  0  0  0  0  0
   -3.3510   -0.1720    1.7020 C   0  0  2  0  0  0  0  0  0  0  0  0
   -2.0750    0.4420    2.1600 C   0  0  0  0  0  0  0  0  0  0  0  0
   -3.2470   -1.3480    0.8100 C   0  0  0  0  0  0  0  0  0  0  0  0
   -2.8120   -1.1550   -0.5840 C   0  0  2  0  0  0  0  0  0  0  0  0
   -1.4940   -0.5740   -0.7150 N   0  0  0  0  0  0  0  0  0  0  0  0
   -0.3740   -1.2440   -1.2510 C   0  0  0  0  0  0  0  0  0  0  0  0
   -0.5250   -2.4260   -1.6420 O   0  0  0  0  0  0  0  0  0  0  0  0
    0.9810   -0.6320   -1.3800 C   0  0  1  0  0  0  0  0  0  0  0  0
    0.9790    0.6770   -0.8990 O   0  0  0  0  0  0  0  0  0  0  0  0
    1.9870   -1.4100   -0.5520 C   0  0  2  0  0  0  0  0  0  0  0  0
    1.6500   -1.4110    0.8450 N   0  0  0  0  0  0  0  0  0  0  0  0
    3.3950   -1.0240   -0.8610 C   0  0  0  0  0  0  0  0  0  0  0  0
    3.7190    0.3890   -0.6220 C   0  0  0  0  0  0  0  0  0  0  0  0
    4.1890    0.8710    0.5810 C   0  0  0  0  0  0  0  0  0  0  0  0
    4.4880    2.2050    0.7770 C   0  0  0  0  0  0  0  0  0  0  0  0
    4.3260    3.1140   -0.2360 C   0  0  0  0  0  0  0  0  0  0  0  0
    3.8580    2.6600   -1.4480 C   0  0  0  0  0  0  0  0  0  0  0  0
    3.5580    1.3070   -1.6380 C   0  0  0  0  0  0  0  0  0  0  0  0
   -3.8050   -0.4800   -1.4550 C   0  0  0  0  0  0  0  0  0  0  0  0
   -3.5110    0.4860   -2.2110 O   0  0  0  0  0  0  0  0  0  0  0  0
   -5.1310   -0.8910   -1.4750 O   0  0  0  0  0  0  0  0  0  0  0  0
  2  1  1  6
  2  3  1  0
  2  4  1  0
  5  4  1  1
  5  6  1  0
  5 20  1  0
  6  7  1  0
  7  8  2  0
  7  9  1  0
  9 10  1  1
  9 11  1  0
 11 12  1  1
 11 13  1  0
 13 14  1  0
 14 15  2  0
 14 19  1  0
 15 16  1  0
 16 17  2  0
 17 18  1  0
 18 19  2  0
 20 21  2  0
 20 22  1  0
M  CHG  1  12   1
M  END
