
     RDKit          3D

 12 12  0  0  0  0  0  0  0  0999 V2000
   -3.6790   -1.4750   -0.1340 C   0  0  0  0  0  0  0  0  0  0  0  0
   -2.7040   -0.8950    0.5730 C   0  0  0  0  0  0  0  0  0  0  0  0
   -2.2210    0.3770    0.1700 N   0  0  0  0  0  0  0  0  0  0  0  0
   -3.1500    1.4930   -0.0250 C   0  0  0  0  0  0  0  0  0  0  0  0
   -0.8170    0.5580   -0.0730 C   0  0  0  0  0  0  0  0  0  0  0  0
   -0.0800   -0.6920    0.3890 C   0  0  0  0  0  0  0  0  0  0  0  0
    1.3260   -0.5740    0.1360 N   0  0  0  0  0  0  0  0  0  0  0  0
    2.0550    0.3660    0.8890 C   0  0  0  0  0  0  0  0  0  0  0  0
    3.2210    1.0210    0.2300 C   0  0  0  0  0  0  0  0  0  0  0  0
    3.5830    0.5640   -1.0000 O   0  0  0  0  0  0  0  0  0  0  0  0
    3.1080   -0.6420   -1.3900 C   0  0  0  0  0  0  0  0  0  0  0  0
    1.5930   -0.6200   -1.2830 C   0  0  0  0  0  0  0  0  0  0  0  0
  1  2  2  0
  2  3  1  0
  3  4  1  0
  3  5  1  0
  5  6  1  0
  6  7  1  0
  7  8  1  0
  7 12  1  0
  8  9  1  0
  9 10  1  0
 10 11  1  0
 11 12  1  0
M  END
