
     RDKit          3D

 12 12  0  0  0  0  0  0  0  0999 V2000
   -2.5830    1.4600    0.7840 C   0  0  0  0  0  0  0  0  0  0  0  0
   -2.5950    0.9710   -0.4160 C   0  0  0  0  0  0  0  0  0  0  0  0
   -1.9200   -0.2040   -0.8580 C   0  0  0  0  0  0  0  0  0  0  0  0
   -2.0870   -0.5420   -2.1520 C   0  0  0  0  0  0  0  0  0  0  0  0
   -1.0630   -1.1270   -0.1010 C   0  0  0  0  0  0  0  0  0  0  0  0
    0.1570   -0.6020    0.4210 N   0  0  0  0  0  0  0  0  0  0  0  0
    0.4680   -0.1320    1.6170 C   0  0  0  0  0  0  0  0  0  0  0  0
    1.8060    0.2070    1.5990 C   0  0  0  0  0  0  0  0  0  0  0  0
    2.3130   -0.0580    0.3870 N   0  0  0  0  0  0  0  0  0  0  0  0
    3.6960    0.1570   -0.0410 C   0  0  0  0  0  0  0  0  0  0  0  0
    1.3000   -0.5520   -0.3240 C   0  0  0  0  0  0  0  0  0  0  0  0
    1.4240   -0.9170   -1.5380 O   0  0  0  0  0  0  0  0  0  0  0  0
  1  2  2  0
  2  3  1  0
  3  4  2  0
  3  5  1  0
  5  6  1  0
  6  7  1  0
  6 11  1  0
  7  8  2  0
  8  9  1  0
  9 10  1  0
  9 11  1  0
 11 12  2  0
M  END
