
     RDKit          3D

 12 12  0  0  0  0  0  0  0  0999 V2000
    2.2640   -1.7780    1.5530 C   0  0  0  0  0  0  0  0  0  0  0  0
    1.3420   -0.8910    1.4290 N   0  0  0  0  0  0  0  0  0  0  0  0
    1.4140   -0.0220    0.3090 C   0  0  0  0  0  0  0  0  0  0  0  0
    2.1640    1.0430    0.3890 C   0  0  0  0  0  0  0  0  0  0  0  0
    2.2610    1.9640   -0.7530 C   0  0  0  0  0  0  0  0  0  0  0  0
    0.6310   -0.3660   -0.9230 C   0  0  0  0  0  0  0  0  0  0  0  0
   -0.7050   -0.4030   -0.5830 N   0  0  0  0  0  0  0  0  0  0  0  0
   -1.2650   -1.3770    0.2410 C   0  0  0  0  0  0  0  0  0  0  0  0
   -2.0520   -0.6480    1.3090 C   0  0  0  0  0  0  0  0  0  0  0  0
   -2.4660    0.5930    0.9790 O   0  0  0  0  0  0  0  0  0  0  0  0
   -2.5770    0.9920   -0.2920 C   0  0  0  0  0  0  0  0  0  0  0  0
   -1.6710    0.3270   -1.2910 C   0  0  0  0  0  0  0  0  0  0  0  0
  1  2  2  0
  2  3  1  0
  3  4  2  3
  3  6  1  0
  4  5  1  0
  6  7  1  0
  7  8  1  0
  7 12  1  0
  8  9  1  0
  9 10  1  0
 10 11  1  0
 11 12  1  0
M  END
