
     RDKit          3D

 12 12  0  0  0  0  0  0  0  0999 V2000
   -2.6820   -1.4180   -0.0490 C   0  0  0  0  0  0  0  0  0  0  0  0
   -2.0100   -0.5030   -0.9140 O   0  0  0  0  0  0  0  0  0  0  0  0
   -0.7060   -0.1620   -0.5250 C   0  0  0  0  0  0  0  0  0  0  0  0
   -0.5900    0.8230    0.3370 C   0  0  0  0  0  0  0  0  0  0  0  0
   -1.8210    1.5220    0.8540 C   0  0  0  0  0  0  0  0  0  0  0  0
    0.7240    1.2590    0.8090 C   0  0  0  0  0  0  0  0  0  0  0  0
    0.8430    2.3450    1.7580 C   0  0  0  0  0  0  0  0  0  0  0  0
    0.9220    3.2210    2.5090 N   0  0  0  0  0  0  0  0  0  0  0  0
    1.7910    0.6440    0.3520 C   0  0  0  0  0  0  0  0  0  0  0  0
    1.7050   -0.4150   -0.5720 N   0  0  0  0  0  0  0  0  0  0  0  0
    2.9590   -1.0720   -1.0510 C   0  0  0  0  0  0  0  0  0  0  0  0
    0.4430   -0.8700   -1.0560 C   0  0  0  0  0  0  0  0  0  0  0  0
  1  2  1  0
  2  3  1  0
  3  4  2  0
  3 12  1  0
  4  5  1  0
  4  6  1  0
  6  7  1  0
  6  9  2  0
  7  8  3  0
  9 10  1  0
 10 11  1  0
 10 12  1  0
M  END
