
     RDKit          3D

 21 21  0  0  0  0  0  0  0  0999 V2000
   -2.7480   -1.8360   -0.0970 C   0  0  0  0  0  0  0  0  0  0  0  0
   -2.4380   -0.4030    0.2530 C   0  0  2  0  0  0  0  0  0  0  0  0
   -0.9890   -0.0470    0.0250 C   0  0  0  0  0  0  0  0  0  0  0  0
   -0.0350   -0.8620    0.8220 C   0  0  1  0  0  0  0  0  0  0  0  0
   -0.1380   -2.2320    0.5500 O   0  0  0  0  0  0  0  0  0  0  0  0
    1.3840   -0.4940    0.4670 C   0  0  0  0  0  0  0  0  0  0  0  0
    1.7660    0.9200    0.7050 C   0  0  2  0  0  0  0  0  0  0  0  0
    1.6190    1.2750    2.0450 O   0  0  0  0  0  0  0  0  0  0  0  0
    1.1480    1.8420   -0.1310 O   0  0  0  0  0  0  0  0  0  0  0  0
    3.2620    1.0220    0.3310 C   0  0  0  0  0  0  0  0  0  0  0  0
    4.0180    0.1730    1.1170 O   0  0  0  0  0  0  0  0  0  0  0  0
    5.3050    0.3210    0.7300 N   0  0  0  0  0  0  0  0  0  0  0  0
    6.0840   -0.7620    0.2620 C   0  0  0  0  0  0  0  0  0  0  0  0
    5.5820   -1.8940    0.1990 O   0  0  0  0  0  0  0  0  0  0  0  0
    7.4160   -0.5990   -0.1370 O   0  0  0  0  0  0  0  0  0  0  0  0
   -2.8570   -0.1670    1.5310 O   0  0  0  0  0  0  0  0  0  0  0  0
   -4.0120    0.5570    1.5280 C   0  0  0  0  0  0  0  0  0  0  0  0
   -4.5180    0.6580    0.1200 C   0  0  1  0  0  0  0  0  0  0  0  0
   -5.0180    1.9240   -0.1790 O   0  0  0  0  0  0  0  0  0  0  0  0
   -3.2540    0.4620   -0.6870 C   0  0  2  0  0  0  0  0  0  0  0  0
   -3.5200   -0.2440   -1.8820 O   0  0  0  0  0  0  0  0  0  0  0  0
  2  1  1  6
  2  3  1  0
  2 16  1  0
  2 20  1  0
  3  4  1  0
  4  5  1  6
  4  6  1  0
  6  7  1  0
  7  8  1  1
  7  9  1  0
  7 10  1  0
 10 11  1  0
 11 12  1  0
 12 13  1  0
 13 14  2  0
 13 15  1  0
 16 17  1  0
 17 18  1  0
 18 19  1  1
 18 20  1  0
 20 21  1  6
M  END
