
     RDKit          3D

 21 23  0  0  0  0  0  0  0  0999 V2000
   -1.8810    1.6670   -2.5480 O   0  0  0  0  0  0  0  0  0  0  0  0
   -1.6240    0.9800   -1.5310 C   0  0  0  0  0  0  0  0  0  0  0  0
   -0.3650    0.6240   -1.1960 N   0  0  0  0  0  0  0  0  0  0  0  0
   -0.0410   -0.1200   -0.1170 C   0  0  0  0  0  0  0  0  0  0  0  0
    1.3640   -0.2660    0.2560 C   0  0  0  0  0  0  0  0  0  0  0  0
    2.0310    0.9800    0.4020 C   0  0  0  0  0  0  0  0  0  0  0  0
    3.3760    1.0640    0.6450 C   0  0  0  0  0  0  0  0  0  0  0  0
    4.1330   -0.0880    0.7480 C   0  0  0  0  0  0  0  0  0  0  0  0
    5.6060    0.0900    1.0080 C   0  0  2  0  0  0  0  0  0  0  0  0
    6.2870   -1.0750    0.8320 F   0  0  0  0  0  0  0  0  0  0  0  0
    5.8180    0.6200    2.2930 F   0  0  0  0  0  0  0  0  0  0  0  0
    6.0310    1.1110    0.1300 F   0  0  0  0  0  0  0  0  0  0  0  0
    3.5290   -1.2900    0.6110 C   0  0  0  0  0  0  0  0  0  0  0  0
    2.1330   -1.3720    0.3650 C   0  0  0  0  0  0  0  0  0  0  0  0
   -1.0670   -0.5330    0.6710 N   0  0  0  0  0  0  0  0  0  0  0  0
   -2.3580   -0.1990    0.3960 C   0  0  0  0  0  0  0  0  0  0  0  0
   -2.6650    0.5510   -0.7030 C   0  0  0  0  0  0  0  0  0  0  0  0
   -4.0570    0.9520   -1.0310 C   0  0  0  0  0  0  0  0  0  0  0  0
   -5.2270   -0.3200   -0.5920 S   0  0  0  0  0  0  0  0  0  0  0  0
   -4.5030   -1.3600    0.6830 C   0  0  0  0  0  0  0  0  0  0  0  0
   -3.4260   -0.6000    1.3880 C   0  0  0  0  0  0  0  0  0  0  0  0
  1  2  2  0
  2  3  1  0
  2 17  1  0
  3  4  1  0
  4  5  1  0
  4 15  2  0
  5  6  2  0
  5 14  1  0
  6  7  1  0
  7  8  2  0
  8  9  1  0
  8 13  1  0
  9 10  1  1
  9 11  1  0
  9 12  1  0
 13 14  2  0
 15 16  1  0
 16 17  2  0
 16 21  1  0
 17 18  1  0
 18 19  1  0
 19 20  1  0
 20 21  1  0
M  END
