
     RDKit          3D

 20 20  0  0  0  0  0  0  0  0999 V2000
   -3.6650   -2.3370    0.4310 N   0  0  0  0  0  0  0  0  0  0  0  0
   -2.6810   -1.7240   -0.4320 C   0  0  2  0  0  0  0  0  0  0  0  0
   -1.2870   -2.2710   -0.2900 C   0  0  0  0  0  0  0  0  0  0  0  0
   -0.7710   -0.8490   -0.4160 C   0  0  2  0  0  0  0  0  0  0  0  0
    0.2370   -0.5770    0.5380 O   0  0  0  0  0  0  0  0  0  0  0  0
    1.4750   -0.0170    0.1810 C   0  0  0  0  0  0  0  0  0  0  0  0
    1.6270    0.2260   -1.0350 O   0  0  0  0  0  0  0  0  0  0  0  0
    2.5150    0.2590    1.1890 C   0  0  0  0  0  0  0  0  0  0  0  0
    3.6450    0.8060    0.6850 O   0  0  0  0  0  0  0  0  0  0  0  0
    4.3460    0.1140   -0.2620 C   0  0  2  0  0  0  0  0  0  0  0  0
    5.6030   -0.3100    0.2770 O   0  0  0  0  0  0  0  0  0  0  0  0
    4.7070    1.0250   -1.4000 C   0  0  0  0  0  0  0  0  0  0  0  0
    5.5100    2.0840   -0.9190 O   0  0  0  0  0  0  0  0  0  0  0  0
   -2.1650   -0.3870    0.0140 C   0  0  2  0  0  0  0  0  0  0  0  0
   -2.1630   -0.1500    1.4970 C   0  0  0  0  0  0  0  0  0  0  0  0
   -3.4100   -0.2270    2.0710 O   0  0  0  0  0  0  0  0  0  0  0  0
   -2.7340    0.7140   -0.8250 C   0  0  2  0  0  0  0  0  0  0  0  0
   -2.3730    0.5160   -2.1580 O   0  0  0  0  0  0  0  0  0  0  0  0
   -2.2890    2.0880   -0.3960 C   0  0  0  0  0  0  0  0  0  0  0  0
   -0.9260    2.1840   -0.5280 O   0  0  0  0  0  0  0  0  0  0  0  0
  2  1  1  1
  2  3  1  0
  2 14  1  0
  3  4  1  0
  4  5  1  1
  4 14  1  0
  5  6  1  0
  6  7  2  0
  6  8  1  0
  8  9  1  0
  9 10  1  0
 10 11  1  1
 10 12  1  0
 12 13  1  0
 14 15  1  1
 14 17  1  0
 15 16  1  0
 17 18  1  6
 17 19  1  0
 19 20  1  0
M  END
