
     RDKit          3D

 21 21  0  0  0  0  0  0  0  0999 V2000
   -2.6150   -2.5020   -1.9170 N   0  0  0  0  0  0  0  0  0  0  0  0
   -2.8680   -1.6120   -0.8270 C   0  0  2  0  0  0  0  0  0  0  0  0
   -3.6840   -0.5520   -1.1250 O   0  0  0  0  0  0  0  0  0  0  0  0
   -3.3690    0.5210   -0.3310 C   0  0  2  0  0  0  0  0  0  0  0  0
   -3.0700    1.6910   -1.1550 C   0  0  0  0  0  0  0  0  0  0  0  0
   -2.7490    2.8240   -0.7030 O   0  0  0  0  0  0  0  0  0  0  0  0
   -3.1350    1.5790   -2.5340 O   0  0  0  0  0  0  0  0  0  0  0  0
   -2.2410    0.1070    0.5680 C   0  0  2  0  0  0  0  0  0  0  0  0
   -2.7670   -0.5600    1.6610 O   0  0  0  0  0  0  0  0  0  0  0  0
   -1.3140    1.2130    0.9460 C   0  0  0  0  0  0  0  0  0  0  0  0
   -1.9510    2.1770    1.7200 O   0  0  0  0  0  0  0  0  0  0  0  0
   -1.5680   -0.9440   -0.3230 C   0  0  2  0  0  0  0  0  0  0  0  0
   -0.9910   -0.3840   -1.4290 O   0  0  0  0  0  0  0  0  0  0  0  0
   -0.7470   -1.8960    0.4610 C   0  0  0  0  0  0  0  0  0  0  0  0
    0.3850   -1.3470    0.9820 O   0  0  0  0  0  0  0  0  0  0  0  0
    1.3090   -0.8390    0.1050 C   0  0  0  0  0  0  0  0  0  0  0  0
    2.4950   -0.3330    0.9570 C   0  0  0  0  0  0  0  0  0  0  0  0
    3.4770    0.2000    0.1220 O   0  0  0  0  0  0  0  0  0  0  0  0
    4.5180    0.6410    0.9210 C   0  0  0  0  0  0  0  0  0  0  0  0
    5.6370    1.2400    0.0840 C   0  0  0  0  0  0  0  0  0  0  0  0
    5.1640    2.3260   -0.6510 O   0  0  0  0  0  0  0  0  0  0  0  0
  2  1  1  6
  2  3  1  0
  2 12  1  0
  3  4  1  0
  4  5  1  6
  4  8  1  0
  5  6  2  0
  5  7  1  0
  8  9  1  1
  8 10  1  0
  8 12  1  0
 10 11  1  0
 12 13  1  6
 12 14  1  0
 14 15  1  0
 15 16  1  0
 16 17  1  0
 17 18  1  0
 18 19  1  0
 19 20  1  0
 20 21  1  0
M  END
