
     RDKit          3D

 27 29  0  0  0  0  0  0  0  0999 V2000
    9.3550    0.1540    0.3260 C   0  0  0  0  0  0  0  0  0  0  0  0
    8.5480   -0.6760   -0.5000 O   0  0  0  0  0  0  0  0  0  0  0  0
    7.1660   -0.6510   -0.3910 C   0  0  0  0  0  0  0  0  0  0  0  0
    6.4890    0.1420    0.4860 C   0  0  0  0  0  0  0  0  0  0  0  0
    5.0850    0.1280    0.5570 C   0  0  0  0  0  0  0  0  0  0  0  0
    4.3310   -0.6810   -0.2500 C   0  0  0  0  0  0  0  0  0  0  0  0
    2.9200   -0.7820   -0.2600 N   0  0  0  0  0  0  0  0  0  0  0  0
    2.0520   -0.1520    0.6280 C   0  0  0  0  0  0  0  0  0  0  0  0
    2.4970    0.5800    1.5460 O   0  0  0  0  0  0  0  0  0  0  0  0
    0.6140   -0.3200    0.5260 N   0  0  0  0  0  0  0  0  0  0  0  0
   -0.1930    0.3750    1.4940 C   0  0  0  0  0  0  0  0  0  0  0  0
   -1.6640    0.1360    1.3010 C   0  0  0  0  0  0  0  0  0  0  0  0
   -2.0540    0.6180   -0.0740 C   0  0  2  0  0  0  0  0  0  0  0  0
   -1.7880    2.0700   -0.2750 C   0  0  0  0  0  0  0  0  0  0  0  0
   -2.8920    2.7960   -0.8430 N   0  0  0  0  0  0  0  0  0  0  0  0
   -3.5040    2.1460   -1.9680 C   0  0  0  0  0  0  0  0  0  0  0  0
   -3.8490    0.7130   -1.7450 C   0  0  0  0  0  0  0  0  0  0  0  0
   -3.4220    0.3440   -0.4080 N   0  0  0  0  0  0  0  0  0  0  0  0
   -4.3210   -0.2570    0.5160 C   0  0  0  0  0  0  0  0  0  0  0  0
   -4.8170    0.2260    1.6410 C   0  0  0  0  0  0  0  0  0  0  0  0
   -5.7210   -0.7600    2.2820 C   0  0  0  0  0  0  0  0  0  0  0  0
   -5.6710   -1.8990    1.3460 C   0  0  0  0  0  0  0  0  0  0  0  0
   -4.8680   -1.5980    0.3420 C   0  0  0  0  0  0  0  0  0  0  0  0
   -4.5970   -2.5500   -0.7910 C   0  0  0  0  0  0  0  0  0  0  0  0
    5.0590   -1.4860   -1.1430 C   0  0  0  0  0  0  0  0  0  0  0  0
    6.4270   -1.4750   -1.2140 C   0  0  0  0  0  0  0  0  0  0  0  0
    7.2610   -2.5060   -2.3530 Cl  0  0  0  0  0  0  0  0  0  0  0  0
  1  2  1  0
  2  3  1  0
  3  4  2  0
  3 26  1  0
  4  5  1  0
  5  6  2  0
  6  7  1  0
  6 25  1  0
  7  8  1  0
  8  9  2  0
  8 10  1  0
 10 11  1  0
 11 12  1  0
 13 12  1  1
 13 14  1  0
 13 18  1  0
 14 15  1  0
 15 16  1  0
 16 17  1  0
 17 18  1  0
 18 19  1  0
 19 20  2  0
 19 23  1  0
 20 21  1  0
 21 22  1  0
 22 23  2  0
 23 24  1  0
 25 26  2  0
 26 27  1  0
M  CHG  1  15   1
M  END
