
     RDKit          3D

 27 29  0  0  0  0  0  0  0  0999 V2000
   -7.0720    0.1250    0.6950 C   0  0  0  0  0  0  0  0  0  0  0  0
   -5.6760   -0.2760    0.7040 N   0  0  0  0  0  0  0  0  0  0  0  0
   -5.6230   -1.6830    0.3700 C   0  0  0  0  0  0  0  0  0  0  0  0
   -4.8490   -1.8190   -0.9110 C   0  0  0  0  0  0  0  0  0  0  0  0
   -3.9050   -0.5930   -0.8340 C   0  0  2  0  0  0  0  0  0  0  0  0
   -2.8580   -0.9560   -0.0050 N   0  0  0  0  0  0  0  0  0  0  0  0
   -1.7250   -0.1830    0.2380 C   0  0  2  0  0  0  0  0  0  0  0  0
   -1.9330    1.1610    0.9040 C   0  0  0  0  0  0  0  0  0  0  0  0
   -0.6650    1.6090    1.5350 C   0  0  0  0  0  0  0  0  0  0  0  0
    0.5650    1.0040    0.9900 N   0  0  0  0  0  0  0  0  0  0  0  0
    1.7150    1.3060    1.7360 C   0  0  0  0  0  0  0  0  0  0  0  0
    1.5600    2.0610    2.8020 O   0  0  0  0  0  0  0  0  0  0  0  0
    3.0540    0.9070    1.5040 C   0  0  0  0  0  0  0  0  0  0  0  0
    3.6310    0.1780    0.5830 C   0  0  0  0  0  0  0  0  0  0  0  0
    5.1060   -0.0160    0.6890 C   0  0  0  0  0  0  0  0  0  0  0  0
    5.6970   -0.7420   -0.2210 C   0  0  0  0  0  0  0  0  0  0  0  0
    4.7910   -1.4700   -1.5340 Cl  0  0  0  0  0  0  0  0  0  0  0  0
    7.1280   -0.9480   -0.1450 C   0  0  0  0  0  0  0  0  0  0  0  0
    7.9850   -0.4430    0.8270 C   0  0  0  0  0  0  0  0  0  0  0  0
    9.2470   -0.8900    0.5020 C   0  0  0  0  0  0  0  0  0  0  0  0
    9.1110   -1.6480   -0.6520 C   0  0  0  0  0  0  0  0  0  0  0  0
    7.8570   -1.6500   -0.9880 O   0  0  0  0  0  0  0  0  0  0  0  0
    0.6330    0.1910   -0.1730 C   0  0  0  0  0  0  0  0  0  0  0  0
   -0.7230   -0.0480   -0.8670 C   0  0  2  0  0  0  0  0  0  0  0  0
   -0.9190    1.0990   -1.7930 C   0  0  0  0  0  0  0  0  0  0  0  0
    0.1410    1.0590   -2.7860 N   0  0  0  0  0  0  0  0  0  0  0  0
   -4.9030    0.4070   -0.3140 C   0  0  0  0  0  0  0  0  0  0  0  0
  1  2  1  0
  2  3  1  0
  2 27  1  0
  3  4  1  0
  4  5  1  0
  5  6  1  1
  5 27  1  0
  7  6  1  6
  7  8  1  0
  7 24  1  0
  8  9  1  0
  9 10  1  0
 10 11  1  0
 10 23  1  0
 11 12  2  0
 11 13  1  0
 13 14  2  3
 14 15  1  0
 15 16  2  3
 16 17  1  0
 16 18  1  0
 18 19  2  0
 18 22  1  0
 19 20  1  0
 20 21  2  0
 21 22  1  0
 23 24  1  0
 24 25  1  6
 25 26  1  0
M  CHG  1  26   1
M  END
