
     RDKit          3D

 26 28  0  0  0  0  0  0  0  0999 V2000
   -6.9760    1.6170    2.6230 C   0  0  0  0  0  0  0  0  0  0  0  0
   -6.3810    0.6080    1.6980 C   0  0  0  0  0  0  0  0  0  0  0  0
   -5.0700    1.0830    1.2290 N   0  0  0  0  0  0  0  0  0  0  0  0
   -4.3000    0.2870    0.3300 C   0  0  0  0  0  0  0  0  0  0  0  0
   -4.8170   -0.8120   -0.0160 O   0  0  0  0  0  0  0  0  0  0  0  0
   -3.0100    0.7160   -0.1530 N   0  0  0  0  0  0  0  0  0  0  0  0
   -2.3130   -0.1270   -1.0420 C   0  0  1  0  0  0  0  0  0  0  0  0
   -2.0420    0.4480   -2.3910 C   0  0  0  0  0  0  0  0  0  0  0  0
   -0.8050    1.2590   -2.5310 C   0  0  0  0  0  0  0  0  0  0  0  0
    0.4130    0.6550   -1.8970 C   0  0  0  0  0  0  0  0  0  0  0  0
    0.1360    0.1930   -0.4480 C   0  0  1  0  0  0  0  0  0  0  0  0
   -0.0790    1.5080    0.2610 C   0  0  0  0  0  0  0  0  0  0  0  0
   -1.0140   -0.7280   -0.5260 C   0  0  1  0  0  0  0  0  0  0  0  0
   -1.2310   -1.7010    0.5650 C   0  0  0  0  0  0  0  0  0  0  0  0
   -0.8530   -1.3520    1.9520 C   0  0  0  0  0  0  0  0  0  0  0  0
    0.6330   -1.4790    2.1920 C   0  0  0  0  0  0  0  0  0  0  0  0
    1.4510   -0.4330    1.4970 C   0  0  0  0  0  0  0  0  0  0  0  0
    1.2450   -0.4810    0.1030 N   0  0  0  0  0  0  0  0  0  0  0  0
    1.9370   -1.4670   -0.5940 C   0  0  0  0  0  0  0  0  0  0  0  0
    3.4320   -1.3100   -0.4480 C   0  0  0  0  0  0  0  0  0  0  0  0
    4.2830   -1.9180    0.4510 C   0  0  0  0  0  0  0  0  0  0  0  0
    5.4850   -1.4950    0.2270 O   0  0  0  0  0  0  0  0  0  0  0  0
    5.5210   -0.6330   -0.7660 C   0  0  0  0  0  0  0  0  0  0  0  0
    6.7540    0.0340   -1.2660 C   0  0  0  0  0  0  0  0  0  0  0  0
    6.9710    1.3340   -0.5190 C   0  0  0  0  0  0  0  0  0  0  0  0
    4.2450   -0.5160   -1.1890 N   0  0  0  0  0  0  0  0  0  0  0  0
  1  2  1  0
  2  3  1  0
  3  4  1  0
  4  5  2  0
  4  6  1  0
  7  6  1  1
  7  8  1  0
  7 13  1  0
  8  9  1  0
  9 10  1  0
 10 11  1  0
 11 12  1  1
 11 13  1  0
 11 18  1  0
 13 14  1  1
 14 15  1  0
 15 16  1  0
 16 17  1  0
 17 18  1  0
 18 19  1  0
 19 20  1  0
 20 21  2  0
 20 26  1  0
 21 22  1  0
 22 23  1  0
 23 24  1  0
 23 26  2  0
 24 25  1  0
M  CHG  1  26   1
M  END
