
     RDKit          3D

 27 29  0  0  0  0  0  0  0  0999 V2000
    4.5690    0.3750    3.2210 C   0  0  0  0  0  0  0  0  0  0  0  0
    5.2290    0.2310    2.0980 C   0  0  0  0  0  0  0  0  0  0  0  0
    4.6250    0.2300    0.9090 O   0  0  0  0  0  0  0  0  0  0  0  0
    5.5070    0.0720   -0.0370 C   0  0  0  0  0  0  0  0  0  0  0  0
    5.2390    0.0160   -1.4940 C   0  0  0  0  0  0  0  0  0  0  0  0
    4.9860   -1.4230   -1.8600 C   0  0  0  0  0  0  0  0  0  0  0  0
    3.8200   -1.9730   -1.0950 C   0  0  0  0  0  0  0  0  0  0  0  0
    2.5810   -1.1960   -1.4060 C   0  0  0  0  0  0  0  0  0  0  0  0
    1.3900   -1.7420   -0.6720 C   0  0  0  0  0  0  0  0  0  0  0  0
    1.5870   -2.7210    0.0800 O   0  0  0  0  0  0  0  0  0  0  0  0
    0.1360   -1.1350   -0.8630 N   0  0  0  0  0  0  0  0  0  0  0  0
   -1.0170   -1.6490   -0.1660 C   0  0  0  0  0  0  0  0  0  0  0  0
   -2.3100   -1.2270   -0.8270 C   0  0  0  0  0  0  0  0  0  0  0  0
   -2.4130    0.2350   -1.0770 C   0  0  1  0  0  0  0  0  0  0  0  0
   -3.1180    0.9760   -0.0780 N   0  0  0  0  0  0  0  0  0  0  0  0
   -4.4960    0.6380    0.0900 C   0  0  2  0  0  0  0  0  0  0  0  0
   -5.3180    0.9030   -1.1280 C   0  0  0  0  0  0  0  0  0  0  0  0
   -6.4860    1.7790   -0.7110 C   0  0  0  0  0  0  0  0  0  0  0  0
   -6.5220    1.7030    0.8000 C   0  0  0  0  0  0  0  0  0  0  0  0
   -5.0780    1.5430    1.1550 C   0  0  1  0  0  0  0  0  0  0  0  0
   -4.9020    0.8500    2.4300 N   0  0  0  0  0  0  0  0  0  0  0  0
   -1.1000    0.9280   -1.3450 C   0  0  0  0  0  0  0  0  0  0  0  0
    0.0060   -0.0190   -1.7420 C   0  0  0  0  0  0  0  0  0  0  0  0
    6.7100   -0.0340    0.5310 N   0  0  0  0  0  0  0  0  0  0  0  0
    6.5640    0.0640    1.8830 C   0  0  0  0  0  0  0  0  0  0  0  0
    7.5280    0.0060    2.7550 C   0  0  0  0  0  0  0  0  0  0  0  0
    7.3860    0.1290    4.4800 Cl  0  0  0  0  0  0  0  0  0  0  0  0
  1  2  2  0
  2  3  1  0
  2 25  1  0
  3  4  1  0
  4  5  1  0
  4 24  2  0
  5  6  1  0
  6  7  1  0
  7  8  1  0
  8  9  1  0
  9 10  2  0
  9 11  1  0
 11 12  1  0
 11 23  1  0
 12 13  1  0
 13 14  1  0
 14 15  1  1
 14 22  1  0
 16 15  1  6
 16 17  1  0
 16 20  1  0
 17 18  1  0
 18 19  1  0
 19 20  1  0
 20 21  1  1
 22 23  1  0
 24 25  1  0
 25 26  2  3
 26 27  1  0
M  CHG  1  21   1
M  END
