
     RDKit          3D

 27 29  0  0  0  0  0  0  0  0999 V2000
    5.5170   -1.1310   -1.4160 C   0  0  0  0  0  0  0  0  0  0  0  0
    4.0470   -0.8370   -1.3590 C   0  0  1  0  0  0  0  0  0  0  0  0
    3.3500   -1.8530   -0.5200 C   0  0  0  0  0  0  0  0  0  0  0  0
    1.8640   -1.5730   -0.4590 C   0  0  0  0  0  0  0  0  0  0  0  0
    1.3390   -1.4170    0.7450 C   0  0  0  0  0  0  0  0  0  0  0  0
    2.4290   -1.5550    2.1110 Cl  0  0  0  0  0  0  0  0  0  0  0  0
   -0.0760   -1.1340    1.0980 C   0  0  0  0  0  0  0  0  0  0  0  0
   -1.1600   -1.3550    0.3750 C   0  0  0  0  0  0  0  0  0  0  0  0
   -2.4750   -0.9930    0.9280 C   0  0  0  0  0  0  0  0  0  0  0  0
   -3.0700   -0.0160    0.0300 N   0  0  0  0  0  0  0  0  0  0  0  0
   -4.3360   -0.4220   -0.4960 C   0  0  0  0  0  0  0  0  0  0  0  0
   -5.3960    0.5450   -0.0650 C   0  0  1  0  0  0  0  0  0  0  0  0
   -5.4770    0.6110    1.4430 C   0  0  0  0  0  0  0  0  0  0  0  0
   -6.0310    2.0340    1.6080 C   0  0  0  0  0  0  0  0  0  0  0  0
   -5.4240    2.7280    0.4380 C   0  0  0  0  0  0  0  0  0  0  0  0
   -5.1020    1.8130   -0.5220 O   0  0  0  0  0  0  0  0  0  0  0  0
   -1.1710   -1.9400   -0.9560 C   0  0  0  0  0  0  0  0  0  0  0  0
   -2.3170   -2.2580   -1.3510 O   0  0  0  0  0  0  0  0  0  0  0  0
   -0.0490   -2.1840   -1.8370 N   0  0  0  0  0  0  0  0  0  0  0  0
    1.2370   -1.5200   -1.8070 C   0  0  0  0  0  0  0  0  0  0  0  0
    3.7020    0.4820   -0.9390 N   0  0  0  0  0  0  0  0  0  0  0  0
    4.1190    1.1000    0.2580 C   0  0  0  0  0  0  0  0  0  0  0  0
    3.6280    2.3800    0.5470 C   0  0  0  0  0  0  0  0  0  0  0  0
    4.0160    3.0150    1.6910 C   0  0  0  0  0  0  0  0  0  0  0  0
    4.8760    2.4340    2.5680 N   0  0  0  0  0  0  0  0  0  0  0  0
    5.3650    1.2110    2.3230 C   0  0  0  0  0  0  0  0  0  0  0  0
    4.9790    0.5670    1.1760 C   0  0  0  0  0  0  0  0  0  0  0  0
  2  1  1  1
  2  3  1  0
  2 21  1  0
  3  4  1  0
  4  5  2  0
  4 20  1  0
  5  6  1  0
  5  7  1  0
  7  8  2  0
  8  9  1  0
  8 17  1  0
  9 10  1  0
 10 11  1  0
 12 11  1  1
 12 13  1  0
 12 16  1  0
 13 14  1  0
 14 15  1  0
 15 16  1  0
 17 18  2  0
 17 19  1  0
 19 20  1  0
 21 22  1  0
 22 23  2  0
 22 27  1  0
 23 24  1  0
 24 25  2  0
 25 26  1  0
 26 27  2  0
M  CHG  1  10   1
M  END
