
     RDKit          3D

 12 11  0  0  0  0  0  0  0  0999 V2000
   -3.9240    0.5450    1.1790 N   0  0  0  0  0  0  0  0  0  0  0  0
   -2.8580    0.2760    0.2840 C   0  0  0  0  0  0  0  0  0  0  0  0
   -3.1200   -0.3620   -0.8220 N   0  0  0  0  0  0  0  0  0  0  0  0
   -4.4260   -0.7390   -1.0590 O   0  0  0  0  0  0  0  0  0  0  0  0
   -1.5210    0.6550    0.5130 N   0  0  0  0  0  0  0  0  0  0  0  0
   -0.4060   -0.0280   -0.1150 C   0  0  0  0  0  0  0  0  0  0  0  0
    0.9160    0.5740    0.2970 C   0  0  0  0  0  0  0  0  0  0  0  0
    2.0860   -0.1030   -0.3300 C   0  0  2  0  0  0  0  0  0  0  0  0
    2.2010   -1.4920   -0.0170 N   0  0  0  0  0  0  0  0  0  0  0  0
    3.3430    0.5800    0.0730 C   0  0  0  0  0  0  0  0  0  0  0  0
    3.4990    1.8250   -0.0970 O   0  0  0  0  0  0  0  0  0  0  0  0
    4.3930   -0.1210    0.6530 O   0  0  0  0  0  0  0  0  0  0  0  0
  1  2  1  0
  2  3  2  3
  2  5  1  0
  3  4  1  0
  5  6  1  0
  6  7  1  0
  7  8  1  0
  8  9  1  1
  8 10  1  0
 10 11  2  0
 10 12  1  0
M  CHG  1   9   1
M  END
