
     RDKit          3D

 17 18  0  0  0  0  0  0  0  0999 V2000
   -2.6960    2.1940    0.4520 C   0  0  0  0  0  0  0  0  0  0  0  0
   -2.7720    0.7480    0.0400 C   0  0  0  0  0  0  0  0  0  0  0  0
   -3.8660    0.1030   -0.1650 N   0  0  0  0  0  0  0  0  0  0  0  0
   -5.1300    0.6360   -0.0390 O   0  0  0  0  0  0  0  0  0  0  0  0
   -3.5390   -1.2500   -0.5420 C   0  0  0  0  0  0  0  0  0  0  0  0
   -2.0650   -1.2980   -0.5270 C   0  0  0  0  0  0  0  0  0  0  0  0
   -1.0750   -2.7290   -0.9140 Cl  0  0  0  0  0  0  0  0  0  0  0  0
   -1.6210   -0.1110   -0.1810 C   0  0  0  0  0  0  0  0  0  0  0  0
   -0.2130    0.2410   -0.0540 C   0  0  0  0  0  0  0  0  0  0  0  0
    0.6760   -0.6350   -0.2850 N   0  0  0  0  0  0  0  0  0  0  0  0
    2.0750   -0.4010   -0.1910 C   0  0  0  0  0  0  0  0  0  0  0  0
    2.6520    0.7140   -0.6670 N   0  0  0  0  0  0  0  0  0  0  0  0
    3.9940    0.9350   -0.5760 C   0  0  0  0  0  0  0  0  0  0  0  0
    4.8040    0.0060    0.0170 C   0  0  0  0  0  0  0  0  0  0  0  0
    4.2370   -1.1190    0.5000 N   0  0  0  0  0  0  0  0  0  0  0  0
    2.9070   -1.3340    0.4070 C   0  0  0  0  0  0  0  0  0  0  0  0
    2.3930   -2.3920    0.8640 O   0  0  0  0  0  0  0  0  0  0  0  0
  1  2  1  0
  2  3  2  0
  2  8  1  0
  3  4  1  0
  3  5  1  0
  5  6  1  0
  6  7  1  0
  6  8  2  0
  8  9  1  0
  9 10  2  3
 10 11  1  0
 11 12  2  0
 11 16  1  0
 12 13  1  0
 13 14  2  0
 14 15  1  0
 15 16  1  0
 16 17  2  0
M  CHG  2   3   1   4  -1
M  END
