
     RDKit          3D

 27 29  0  0  0  0  0  0  0  0999 V2000
   -7.4480   -1.7940    0.6390 C   0  0  0  0  0  0  0  0  0  0  0  0
   -5.9920   -1.8570    0.8950 C   0  0  0  0  0  0  0  0  0  0  0  0
   -5.1780   -1.0420    0.2020 C   0  0  0  0  0  0  0  0  0  0  0  0
   -5.7820   -0.1270   -0.7760 C   0  0  0  0  0  0  0  0  0  0  0  0
   -3.7310   -1.1020    0.4360 C   0  0  0  0  0  0  0  0  0  0  0  0
   -3.0610    0.1140    0.9250 C   0  0  0  0  0  0  0  0  0  0  0  0
   -3.0190    1.3270    0.0860 C   0  0  0  0  0  0  0  0  0  0  0  0
   -2.3040    1.2000   -1.1950 C   0  0  0  0  0  0  0  0  0  0  0  0
   -2.7820    1.3970   -2.4050 C   0  0  0  0  0  0  0  0  0  0  0  0
   -1.7310    1.1640   -3.4240 C   0  0  0  0  0  0  0  0  0  0  0  0
   -0.7340    0.3080   -2.6760 C   0  0  0  0  0  0  0  0  0  0  0  0
   -0.8820    0.8090   -1.2990 C   0  0  0  0  0  0  0  0  0  0  0  0
    0.0390    0.9080   -0.3240 C   0  0  0  0  0  0  0  0  0  0  0  0
    1.3750    0.4870   -0.5810 C   0  0  0  0  0  0  0  0  0  0  0  0
    2.4300    0.5040    0.2450 C   0  0  0  0  0  0  0  0  0  0  0  0
    3.6720   -0.0070   -0.3420 C   0  0  0  0  0  0  0  0  0  0  0  0
    4.7960   -0.1530    0.5870 C   0  0  0  0  0  0  0  0  0  0  0  0
    5.9680   -0.7550    0.0640 C   0  0  0  0  0  0  0  0  0  0  0  0
    7.0510   -0.8850    0.8750 C   0  0  0  0  0  0  0  0  0  0  0  0
    8.2820   -1.5240    0.3070 C   0  0  0  0  0  0  0  0  0  0  0  0
    7.0750   -0.4610    2.1890 C   0  0  0  0  0  0  0  0  0  0  0  0
    5.9230    0.1160    2.6600 C   0  0  0  0  0  0  0  0  0  0  0  0
    4.7670    0.2820    1.8790 C   0  0  0  0  0  0  0  0  0  0  0  0
    3.5810    0.8760    2.4830 C   0  0  0  0  0  0  0  0  0  0  0  0
    3.5520    1.2800    3.6630 O   0  0  0  0  0  0  0  0  0  0  0  0
    2.4080    0.9700    1.6040 C   0  0  0  0  0  0  0  0  0  0  0  0
    1.3350    1.4820    2.0620 O   0  0  0  0  0  0  0  0  0  0  0  0
  1  2  1  0
  2  3  2  3
  3  4  1  0
  3  5  1  0
  5  6  1  0
  6  7  1  0
  7  8  1  0
  8  9  2  0
  8 12  1  0
  9 10  1  0
 10 11  1  0
 11 12  1  0
 12 13  2  3
 13 14  1  0
 14 15  2  3
 15 16  1  0
 15 26  1  0
 16 17  1  0
 17 18  2  0
 17 23  1  0
 18 19  1  0
 19 20  1  0
 19 21  2  0
 21 22  1  0
 22 23  2  0
 23 24  1  0
 24 25  2  0
 24 26  1  0
 26 27  2  0
M  END
