
     RDKit          3D

 27 29  0  0  0  0  0  0  0  0999 V2000
    2.9450    0.9110   -5.0470 C   0  0  0  0  0  0  0  0  0  0  0  0
    3.8050   -0.0370   -5.2630 C   0  0  0  0  0  0  0  0  0  0  0  0
    4.2610   -1.0440   -4.2910 C   0  0  0  0  0  0  0  0  0  0  0  0
    5.0830   -1.9250   -4.4330 C   0  0  0  0  0  0  0  0  0  0  0  0
    3.5800   -1.0090   -2.9290 C   0  0  0  0  0  0  0  0  0  0  0  0
    2.2430   -0.9880   -2.7880 C   0  0  0  0  0  0  0  0  0  0  0  0
    1.6320   -0.9880   -1.5150 C   0  0  0  0  0  0  0  0  0  0  0  0
    2.4090   -1.0110   -0.3890 C   0  0  0  0  0  0  0  0  0  0  0  0
    1.8150   -1.0570    0.9760 C   0  0  0  0  0  0  0  0  0  0  0  0
    2.6140   -1.2880    1.9390 O   0  0  0  0  0  0  0  0  0  0  0  0
    0.4260   -0.8590    1.2790 C   0  0  0  0  0  0  0  0  0  0  0  0
   -0.6850   -1.5970    0.9310 C   0  0  0  0  0  0  0  0  0  0  0  0
   -0.6770   -2.8590    0.1160 C   0  0  0  0  0  0  0  0  0  0  0  0
   -1.7030   -1.0100    1.4320 O   0  0  0  0  0  0  0  0  0  0  0  0
   -1.3820    0.0930    2.1120 C   0  0  0  0  0  0  0  0  0  0  0  0
   -2.3570    0.9720    2.7800 C   0  0  0  0  0  0  0  0  0  0  0  0
   -1.9820    1.7440    3.7920 C   0  0  0  0  0  0  0  0  0  0  0  0
   -2.9790    2.5840    4.4240 C   0  0  0  0  0  0  0  0  0  0  0  0
   -4.2290    2.6530    4.0930 C   0  0  0  0  0  0  0  0  0  0  0  0
   -4.7690    1.8350    2.9790 C   0  0  0  0  0  0  0  0  0  0  0  0
   -3.7240    1.1240    2.2660 C   0  0  0  0  0  0  0  0  0  0  0  0
   -3.9960    0.5990    1.0510 C   0  0  0  0  0  0  0  0  0  0  0  0
   -5.3580    0.7400    0.5140 C   0  0  0  0  0  0  0  0  0  0  0  0
   -0.0280    0.2490    2.0510 C   0  0  0  0  0  0  0  0  0  0  0  0
    0.8870    1.3010    2.5750 C   0  0  0  0  0  0  0  0  0  0  0  0
    3.7910   -1.0310   -0.5290 C   0  0  0  0  0  0  0  0  0  0  0  0
    4.3850   -1.0290   -1.7980 C   0  0  0  0  0  0  0  0  0  0  0  0
  1  2  2  0
  2  3  1  0
  3  4  2  0
  3  5  1  0
  5  6  2  0
  5 27  1  0
  6  7  1  0
  7  8  2  0
  8  9  1  0
  8 26  1  0
  9 10  2  0
  9 11  1  0
 11 12  2  0
 11 24  1  0
 12 13  1  0
 12 14  1  0
 14 15  1  0
 15 16  1  0
 15 24  2  0
 16 17  2  0
 16 21  1  0
 17 18  1  0
 18 19  2  0
 19 20  1  0
 20 21  1  0
 21 22  2  3
 22 23  1  0
 24 25  1  0
 26 27  2  0
M  END
