
     RDKit          3D

 27 29  0  0  0  0  0  0  0  0999 V2000
   -2.3020    2.4930    0.6220 C   0  0  0  0  0  0  0  0  0  0  0  0
   -2.5550    1.0800    1.0680 C   0  0  0  0  0  0  0  0  0  0  0  0
   -3.5640    0.3710    0.2070 C   0  0  0  0  0  0  0  0  0  0  0  0
   -3.2480   -0.6650   -0.6060 C   0  0  0  0  0  0  0  0  0  0  0  0
   -1.9220   -1.2260   -0.7490 C   0  0  0  0  0  0  0  0  0  0  0  0
   -1.5210   -2.2370   -1.4590 C   0  0  0  0  0  0  0  0  0  0  0  0
   -2.4080   -3.0810   -2.2960 C   0  0  0  0  0  0  0  0  0  0  0  0
   -1.9000   -4.0460   -2.9760 O   0  0  0  0  0  0  0  0  0  0  0  0
   -0.1030   -2.5670   -1.6330 C   0  0  0  0  0  0  0  0  0  0  0  0
    0.1410   -3.7060   -2.2290 O   0  0  0  0  0  0  0  0  0  0  0  0
    1.0200   -1.7750   -1.2200 C   0  0  0  0  0  0  0  0  0  0  0  0
    1.0670   -0.4410   -0.9610 C   0  0  0  0  0  0  0  0  0  0  0  0
    2.1960    0.2230   -0.4770 C   0  0  0  0  0  0  0  0  0  0  0  0
    3.3800   -0.4540   -0.2240 C   0  0  0  0  0  0  0  0  0  0  0  0
    4.5660    0.2810    0.2750 C   0  0  1  0  0  0  0  0  0  0  0  0
    4.4750    1.7290   -0.1980 C   0  0  0  0  0  0  0  0  0  0  0  0
    4.6700    0.2950    1.7880 C   0  0  0  0  0  0  0  0  0  0  0  0
    6.0650    0.9170    1.9480 C   0  0  0  0  0  0  0  0  0  0  0  0
    6.8610    0.4770    0.7360 C   0  0  0  0  0  0  0  0  0  0  0  0
    5.8810   -0.2570   -0.1650 C   0  0  0  0  0  0  0  0  0  0  0  0
    3.3500   -1.8020   -0.4830 C   0  0  0  0  0  0  0  0  0  0  0  0
    2.2440   -2.4580   -0.9570 C   0  0  0  0  0  0  0  0  0  0  0  0
   -4.4580   -0.9930   -1.3720 C   0  0  0  0  0  0  0  0  0  0  0  0
   -5.4520    0.1650   -1.1540 C   0  0  0  0  0  0  0  0  0  0  0  0
   -5.0110    0.6160    0.1890 C   0  0  1  0  0  0  0  0  0  0  0  0
   -5.7050   -0.1780    1.3030 C   0  0  0  0  0  0  0  0  0  0  0  0
   -5.3210    2.0790    0.3100 C   0  0  0  0  0  0  0  0  0  0  0  0
  1  2  1  0
  2  3  1  0
  3  4  2  0
  3 25  1  0
  4  5  1  0
  4 23  1  0
  5  6  2  3
  6  7  1  0
  6  9  1  0
  7  8  2  0
  9 10  2  0
  9 11  1  0
 11 12  2  0
 11 22  1  0
 12 13  1  0
 13 14  2  0
 14 15  1  0
 14 21  1  0
 15 16  1  6
 15 17  1  0
 15 20  1  0
 17 18  1  0
 18 19  1  0
 19 20  1  0
 21 22  2  0
 23 24  1  0
 24 25  1  0
 25 26  1  1
 25 27  1  0
M  END
