
     RDKit          3D

 14 13  0  0  0  0  0  0  0  0999 V2000
    5.8680    0.8970   -0.9130 N   0  0  0  0  0  0  0  0  0  0  0  0
    5.2820   -0.2760   -0.2890 C   0  0  0  0  0  0  0  0  0  0  0  0
    4.0350    0.1840    0.4590 C   0  0  0  0  0  0  0  0  0  0  0  0
    3.3610   -0.9930    1.1430 C   0  0  0  0  0  0  0  0  0  0  0  0
    2.1890   -0.4860    1.8330 N   0  0  0  0  0  0  0  0  0  0  0  0
    1.3080    0.1740    0.8550 C   0  0  0  0  0  0  0  0  0  0  0  0
   -0.0680    0.1320    1.4530 C   0  0  0  0  0  0  0  0  0  0  0  0
   -1.0520    0.8030    0.5320 C   0  0  0  0  0  0  0  0  0  0  0  0
   -1.1030    0.1170   -0.8070 C   0  0  0  0  0  0  0  0  0  0  0  0
   -2.0460    0.7240   -1.7070 N   0  0  0  0  0  0  0  0  0  0  0  0
   -3.4190    0.4630   -1.3780 C   0  0  0  0  0  0  0  0  0  0  0  0
   -3.6650   -0.9270   -0.8610 C   0  0  0  0  0  0  0  0  0  0  0  0
   -5.1680   -1.0210   -0.5650 C   0  0  0  0  0  0  0  0  0  0  0  0
   -5.5610   -0.0410    0.4250 N   0  0  0  0  0  0  0  0  0  0  0  0
  1  2  1  0
  2  3  1  0
  3  4  1  0
  4  5  1  0
  5  6  1  0
  6  7  1  0
  7  8  1  0
  8  9  1  0
  9 10  1  0
 10 11  1  0
 11 12  1  0
 12 13  1  0
 13 14  1  0
M  CHG  4   1   1   5   1  10   1  14   1
M  END
