
     RDKit          3D

 27 29  0  0  0  0  0  0  0  0999 V2000
   -2.5750   -3.7490    0.4280 C   0  0  0  0  0  0  0  0  0  0  0  0
   -1.6450   -2.6160    0.3130 C   0  0  0  0  0  0  0  0  0  0  0  0
   -0.3620   -2.8400    0.3050 C   0  0  0  0  0  0  0  0  0  0  0  0
    0.6460   -1.8020    0.1960 C   0  0  0  0  0  0  0  0  0  0  0  0
    1.9330   -2.0690    0.2040 C   0  0  0  0  0  0  0  0  0  0  0  0
    2.9220   -1.0160    0.0940 C   0  0  0  0  0  0  0  0  0  0  0  0
    4.1970   -1.2800    0.1020 C   0  0  0  0  0  0  0  0  0  0  0  0
    5.2400   -0.2990   -0.0020 C   0  0  0  0  0  0  0  0  0  0  0  0
    4.9990    1.0480   -0.1230 C   0  0  0  0  0  0  0  0  0  0  0  0
    6.0520    1.9690   -0.2220 C   0  0  0  0  0  0  0  0  0  0  0  0
    7.3590    1.5430   -0.1990 C   0  0  0  0  0  0  0  0  0  0  0  0
    8.4280    2.5720   -0.3080 C   0  0  0  0  0  0  0  0  0  0  0  0
    7.6250    0.1980   -0.0780 C   0  0  0  0  0  0  0  0  0  0  0  0
    6.5790   -0.6760    0.0160 C   0  0  0  0  0  0  0  0  0  0  0  0
    0.2150   -0.4080    0.0720 C   0  0  0  0  0  0  0  0  0  0  0  0
   -1.2590   -0.2720    0.1020 C   0  0  0  0  0  0  0  0  0  0  0  0
   -2.1530   -1.2300    0.2040 C   0  0  0  0  0  0  0  0  0  0  0  0
   -3.5750   -1.0070    0.1260 C   0  0  0  0  0  0  0  0  0  0  0  0
   -4.2970   -2.0620    0.3740 O   0  0  0  0  0  0  0  0  0  0  0  0
   -4.3380    0.1710   -0.1760 C   0  0  0  0  0  0  0  0  0  0  0  0
   -3.9070    1.3180   -0.7820 C   0  0  0  0  0  0  0  0  0  0  0  0
   -4.6980    2.4650   -0.9550 C   0  0  0  0  0  0  0  0  0  0  0  0
   -5.9900    2.4590   -0.4970 C   0  0  0  0  0  0  0  0  0  0  0  0
   -6.4770    1.3410    0.1140 C   0  0  0  0  0  0  0  0  0  0  0  0
   -7.8910    1.3210    0.6180 C   0  0  0  0  0  0  0  0  0  0  0  0
   -8.5040    2.5330    0.3560 O   0  0  0  0  0  0  0  0  0  0  0  0
   -5.6870    0.2410    0.2700 C   0  0  0  0  0  0  0  0  0  0  0  0
  1  2  1  0
  2  3  2  0
  2 17  1  0
  3  4  1  0
  4  5  2  3
  4 15  1  0
  5  6  1  0
  6  7  2  3
  7  8  1  0
  8  9  2  0
  8 14  1  0
  9 10  1  0
 10 11  2  0
 11 12  1  0
 11 13  1  0
 13 14  2  0
 15 16  1  0
 16 17  2  0
 17 18  1  0
 18 19  2  0
 18 20  1  0
 20 21  2  0
 20 27  1  0
 21 22  1  0
 22 23  2  0
 23 24  1  0
 24 25  1  0
 24 27  2  0
 25 26  1  0
M  END
