
     RDKit          3D

 16 16  0  0  0  0  0  0  0  0999 V2000
   -4.6900    0.4680   -1.1620 O   0  0  0  0  0  0  0  0  0  0  0  0
   -3.5720    0.7140   -0.5980 C   0  0  0  0  0  0  0  0  0  0  0  0
   -2.9490    1.9860   -0.7250 N   0  0  0  0  0  0  0  0  0  0  0  0
   -1.7450    2.2210   -0.1060 O   0  0  0  0  0  0  0  0  0  0  0  0
   -1.1480    1.2140    0.6390 C   0  0  0  0  0  0  0  0  0  0  0  0
   -0.2910    1.4580    1.5390 O   0  0  0  0  0  0  0  0  0  0  0  0
   -1.5450   -0.2000    0.3510 C   0  0  2  0  0  0  0  0  0  0  0  0
   -0.9180   -0.5750   -0.8060 O   0  0  0  0  0  0  0  0  0  0  0  0
   -0.1180   -1.6720   -0.6040 C   0  0  0  0  0  0  0  0  0  0  0  0
    0.9860   -1.4990    0.3850 C   0  0  0  0  0  0  0  0  0  0  0  0
    1.8900   -0.4580    0.0090 O   0  0  0  0  0  0  0  0  0  0  0  0
    2.9710   -0.1720    0.8220 C   0  0  0  0  0  0  0  0  0  0  0  0
    3.1190   -0.8410    1.8700 O   0  0  0  0  0  0  0  0  0  0  0  0
    3.8910    0.8390    0.5020 O   0  0  0  0  0  0  0  0  0  0  0  0
    4.9310    1.0960    1.3090 O   0  0  0  0  0  0  0  0  0  0  0  0
   -2.9470   -0.2810    0.1590 O   0  0  0  0  0  0  0  0  0  0  0  0
  1  2  2  0
  2  3  1  0
  2 16  1  0
  3  4  1  0
  4  5  1  0
  5  6  2  0
  5  7  1  0
  7  8  1  6
  7 16  1  0
  8  9  1  0
  9 10  1  0
 10 11  1  0
 11 12  1  0
 12 13  2  0
 12 14  1  0
 14 15  1  0
M  END
