
     RDKit          3D

 17 17  0  0  0  0  0  0  0  0999 V2000
   -5.8530    0.0410   -0.5610 C   0  0  0  0  0  0  0  0  0  0  0  0
   -4.6100   -0.2220    0.2940 C   0  0  1  0  0  0  0  0  0  0  0  0
   -3.5570   -0.7750   -0.4890 N   0  0  0  0  0  0  0  0  0  0  0  0
   -2.2700   -0.0980   -0.0600 C   0  0  0  0  0  0  0  0  0  0  0  0
   -1.1700   -0.6490   -0.4570 C   0  0  0  0  0  0  0  0  0  0  0  0
    0.2690   -0.3460   -0.3310 C   0  0  0  0  0  0  0  0  0  0  0  0
    0.9700   -1.1970   -0.9400 O   0  0  0  0  0  0  0  0  0  0  0  0
    0.8910    0.6870    0.3260 N   0  0  0  0  0  0  0  0  0  0  0  0
    2.2990    0.8310    0.4110 C   0  0  0  0  0  0  0  0  0  0  0  0
    3.1210    0.4380   -0.8570 C   0  0  0  0  0  0  0  0  0  0  0  0
    4.3490    0.8480   -0.3290 O   0  0  0  0  0  0  0  0  0  0  0  0
    5.6010   -0.1620   -0.3640 P   0  0  0  0  0  0  0  0  0  0  0  0
    7.1410    0.4830   -0.1480 O   0  0  0  0  0  0  0  0  0  0  0  0
    5.3790   -1.7930   -0.3930 O   0  0  0  0  0  0  0  0  0  0  0  0
   -2.7100    0.9370    0.8290 C   0  0  0  0  0  0  0  0  0  0  0  0
   -1.9630    1.7820    1.4770 O   0  0  0  0  0  0  0  0  0  0  0  0
   -4.0910    0.9330    0.8980 O   0  0  0  0  0  0  0  0  0  0  0  0
  2  1  1  6
  2  3  1  0
  2 17  1  0
  3  4  1  0
  4  5  2  3
  4 15  1  0
  5  6  1  0
  6  7  2  0
  6  8  1  0
  8  9  1  0
  9 10  1  0
 10 11  1  0
 11 12  1  0
 12 13  1  0
 12 14  1  0
 15 16  2  0
 15 17  1  0
M  END
