
     RDKit          3D

 16 15  0  0  0  0  0  0  0  0999 V2000
   -1.0880   -1.9340    1.5230 N   0  0  0  0  0  0  0  0  0  0  0  0
   -0.7370   -2.3840    0.4660 C   0  0  0  0  0  0  0  0  0  0  0  0
   -0.9890   -3.7520    0.1770 O   0  0  0  0  0  0  0  0  0  0  0  0
   -0.0340   -1.6210   -0.6080 C   0  0  0  0  0  0  0  0  0  0  0  0
   -0.0030   -0.2510   -0.5420 N   0  0  0  0  0  0  0  0  0  0  0  0
   -1.0910    0.5800   -0.8230 C   0  0  0  0  0  0  0  0  0  0  0  0
   -2.2930    0.5680    0.0750 C   0  0  0  0  0  0  0  0  0  0  0  0
   -3.4990    1.8390   -0.5560 P   0  0  0  0  0  0  0  0  0  0  0  0
   -4.5540    1.2600   -1.7670 O   0  0  0  0  0  0  0  0  0  0  0  0
   -4.2070    2.7920    0.6610 O   0  0  0  0  0  0  0  0  0  0  0  0
    1.2700    0.3620   -0.5870 C   0  0  0  0  0  0  0  0  0  0  0  0
    2.1410    0.1680    0.6140 C   0  0  1  0  0  0  0  0  0  0  0  0
    2.4440   -1.1590    0.8440 O   0  0  0  0  0  0  0  0  0  0  0  0
    3.6860    1.1780    0.3570 P   0  0  0  0  0  0  0  0  0  0  0  0
    4.8960    0.2280   -0.4010 O   0  0  0  0  0  0  0  0  0  0  0  0
    4.2070    1.7750    1.8860 O   0  0  0  0  0  0  0  0  0  0  0  0
  1  2  2  0
  2  3  1  0
  2  4  1  0
  4  5  1  0
  5  6  1  0
  5 11  1  0
  6  7  1  0
  7  8  1  0
  8  9  1  0
  8 10  1  0
 11 12  1  0
 12 13  1  6
 12 14  1  0
 14 15  1  0
 14 16  1  0
M  END
