
     RDKit          3D

 16 16  0  0  0  0  0  0  0  0999 V2000
   -4.9160    0.5010   -1.7800 O   0  0  0  0  0  0  0  0  0  0  0  0
   -3.6820    0.6020   -1.5640 C   0  0  0  0  0  0  0  0  0  0  0  0
   -3.1870    1.5020   -0.4630 C   0  0  0  0  0  0  0  0  0  0  0  0
   -1.8940    1.1310   -0.0860 O   0  0  0  0  0  0  0  0  0  0  0  0
   -1.7580   -0.2430   -0.3050 C   0  0  2  0  0  0  0  0  0  0  0  0
   -2.9660   -0.8350    0.0750 O   0  0  0  0  0  0  0  0  0  0  0  0
   -0.7280   -0.8400    0.4760 N   0  0  0  0  0  0  0  0  0  0  0  0
    0.5350   -0.2020    0.6750 C   0  0  0  0  0  0  0  0  0  0  0  0
    0.7000    0.9010    0.1380 O   0  0  0  0  0  0  0  0  0  0  0  0
    1.5310   -0.7810    1.4310 O   0  0  0  0  0  0  0  0  0  0  0  0
    2.7880   -0.2650    1.6880 C   0  0  0  0  0  0  0  0  0  0  0  0
    3.6910   -0.0620    0.5230 C   0  0  0  0  0  0  0  0  0  0  0  0
    3.1810    0.8080   -0.4070 O   0  0  0  0  0  0  0  0  0  0  0  0
    4.0150    0.9470   -1.4090 O   0  0  0  0  0  0  0  0  0  0  0  0
   -1.5870   -0.4690   -1.6630 O   0  0  0  0  0  0  0  0  0  0  0  0
   -2.7140   -0.0680   -2.2800 O   0  0  0  0  0  0  0  0  0  0  0  0
  1  2  2  0
  2  3  1  0
  2 16  1  0
  3  4  1  0
  4  5  1  0
  5  6  1  1
  5  7  1  0
  5 15  1  0
  7  8  1  0
  8  9  2  0
  8 10  1  0
 10 11  1  0
 11 12  1  0
 12 13  1  0
 13 14  1  0
 15 16  1  0
M  END
