
     RDKit          3D

 17 17  0  0  0  0  0  0  0  0999 V2000
   -4.0320   -2.0910    0.3150 C   0  0  0  0  0  0  0  0  0  0  0  0
   -2.5800   -1.6630    0.4020 C   0  0  0  0  0  0  0  0  0  0  0  0
   -2.3810   -0.2200    0.1280 C   0  0  1  0  0  0  0  0  0  0  0  0
   -1.0460    0.2420    0.1910 N   0  0  0  0  0  0  0  0  0  0  0  0
   -0.1430   -0.3310   -0.7610 C   0  0  0  0  0  0  0  0  0  0  0  0
    1.2150    0.3130   -0.5540 C   0  0  0  0  0  0  0  0  0  0  0  0
    1.6960    0.0840    0.7390 O   0  0  0  0  0  0  0  0  0  0  0  0
    3.2420    0.8500    0.9200 P   0  0  0  0  0  0  0  0  0  0  0  0
    3.9270    1.0430   -0.6800 O   0  0  0  0  0  0  0  0  0  0  0  0
    4.3100   -0.0610    1.9100 O   0  0  0  0  0  0  0  0  0  0  0  0
    5.9100   -0.0050    1.2630 P   0  0  0  0  0  0  0  0  0  0  0  0
    6.3070    1.6580    0.7430 N   0  0  0  0  0  0  0  0  0  0  0  0
    6.0400   -1.1080   -0.0900 O   0  0  0  0  0  0  0  0  0  0  0  0
   -3.0920    0.2580   -1.1220 C   0  0  0  0  0  0  0  0  0  0  0  0
   -3.1490    1.6440   -0.8320 O   0  0  0  0  0  0  0  0  0  0  0  0
   -3.6850    1.5790    0.4590 C   0  0  0  0  0  0  0  0  0  0  0  0
   -3.1110    0.4980    1.1040 O   0  0  0  0  0  0  0  0  0  0  0  0
  1  2  1  0
  3  2  1  1
  3  4  1  0
  3 14  1  0
  3 17  1  0
  4  5  1  0
  5  6  1  0
  6  7  1  0
  7  8  1  0
  8  9  1  0
  8 10  1  0
 10 11  1  0
 11 12  1  0
 11 13  1  0
 14 15  1  0
 15 16  1  0
 16 17  1  0
M  END
