
     RDKit          3D

 16 16  0  0  0  0  0  0  0  0999 V2000
    2.2510    0.9310    0.0060 O   0  0  0  0  0  0  0  0  0  0  0  0
    1.7830   -0.1310    0.4840 C   0  0  0  0  0  0  0  0  0  0  0  0
    2.7300   -1.0040    1.1030 N   0  0  0  0  0  0  0  0  0  0  0  0
    4.0510   -0.7150    1.1770 O   0  0  0  0  0  0  0  0  0  0  0  0
    4.6110   -1.3260    0.1520 O   0  0  0  0  0  0  0  0  0  0  0  0
    0.3960   -0.5330    0.4590 C   0  0  0  0  0  0  0  0  0  0  0  0
    0.0290   -1.7840    1.0530 O   0  0  0  0  0  0  0  0  0  0  0  0
   -0.6200    0.1200   -0.0570 C   0  0  0  0  0  0  0  0  0  0  0  0
   -0.5340    1.4310   -0.7330 C   0  0  0  0  0  0  0  0  0  0  0  0
   -1.3370    2.3460   -0.0280 O   0  0  0  0  0  0  0  0  0  0  0  0
   -1.2740    3.5280   -0.6060 O   0  0  0  0  0  0  0  0  0  0  0  0
   -1.9700   -0.4690    0.0320 C   0  0  0  0  0  0  0  0  0  0  0  0
   -3.0750    0.1070   -0.4650 C   0  0  0  0  0  0  0  0  0  0  0  0
   -4.1100   -0.7830   -0.1590 O   0  0  0  0  0  0  0  0  0  0  0  0
   -3.6620   -1.5930    0.8290 O   0  0  0  0  0  0  0  0  0  0  0  0
   -2.3390   -1.6640    0.6160 O   0  0  0  0  0  0  0  0  0  0  0  0
  1  2  2  0
  2  3  1  0
  2  6  1  0
  3  4  1  0
  4  5  1  0
  6  7  1  0
  6  8  2  3
  8  9  1  0
  8 12  1  0
  9 10  1  0
 10 11  1  0
 12 13  2  0
 12 16  1  0
 13 14  1  0
 14 15  1  0
 15 16  1  0
M  END
