
     RDKit          3D

 16 16  0  0  0  0  0  0  0  0999 V2000
    0.5120    0.5980    0.7830 O   0  0  0  0  0  0  0  0  0  0  0  0
    0.0330    0.1410   -0.3410 C   0  0  0  0  0  0  0  0  0  0  0  0
    0.9590    0.0540   -1.4790 N   0  0  0  0  0  0  0  0  0  0  0  0
    2.2670    0.5970   -1.1790 C   0  0  0  0  0  0  0  0  0  0  0  0
    3.3530   -0.3730   -1.5920 C   0  0  0  0  0  0  0  0  0  0  0  0
    4.5530    0.3950   -1.0690 O   0  0  0  0  0  0  0  0  0  0  0  0
    4.9970   -0.5980   -0.1370 O   0  0  0  0  0  0  0  0  0  0  0  0
    5.8180   -0.0370    0.7210 O   0  0  0  0  0  0  0  0  0  0  0  0
   -1.2510   -0.2200   -0.3380 O   0  0  0  0  0  0  0  0  0  0  0  0
   -1.9680   -0.2680    0.9040 C   0  0  1  0  0  0  0  0  0  0  0  0
   -2.5950    1.1610    1.1830 C   0  0  0  0  0  0  0  0  0  0  0  0
   -3.7250    0.8200    1.8700 O   0  0  0  0  0  0  0  0  0  0  0  0
   -3.8950   -0.4410    1.9570 O   0  0  0  0  0  0  0  0  0  0  0  0
   -3.2200   -0.9880    0.8130 C   0  0  1  0  0  0  0  0  0  0  0  0
   -3.9310   -0.4210   -0.2940 O   0  0  0  0  0  0  0  0  0  0  0  0
   -5.0810   -1.0560   -0.3690 O   0  0  0  0  0  0  0  0  0  0  0  0
  1  2  2  0
  2  3  1  0
  2  9  1  0
  3  4  1  0
  4  5  1  0
  5  6  1  0
  6  7  1  0
  7  8  1  0
 10  9  1  6
 10 11  1  0
 10 14  1  0
 11 12  1  0
 12 13  1  0
 13 14  1  0
 14 15  1  6
 15 16  1  0
M  END
