
     RDKit          3D

 21 23  0  0  0  0  0  0  0  0999 V2000
    6.0460    0.5170    0.6940 C   0  0  0  0  0  0  0  0  0  0  0  0
    4.8960    1.2070    0.3110 O   0  0  0  0  0  0  0  0  0  0  0  0
    3.7120    0.5060    0.0770 C   0  0  0  0  0  0  0  0  0  0  0  0
    3.6950   -0.8650    0.2280 C   0  0  0  0  0  0  0  0  0  0  0  0
    2.5200   -1.5460   -0.0070 C   0  0  0  0  0  0  0  0  0  0  0  0
    1.3570   -0.9100   -0.3870 C   0  0  0  0  0  0  0  0  0  0  0  0
    0.0960   -1.3120   -0.6760 N   0  0  0  0  0  0  0  0  0  0  0  0
   -0.6550   -0.2960   -0.9910 N   0  0  0  0  0  0  0  0  0  0  0  0
   -2.0530   -0.2860   -1.3630 C   0  0  0  0  0  0  0  0  0  0  0  0
   -2.9610   -0.1290   -0.1640 C   0  0  1  0  0  0  0  0  0  0  0  0
   -2.7790   -1.2560    0.8290 C   0  0  0  0  0  0  0  0  0  0  0  0
   -2.8230    1.1460    0.4730 N   0  0  0  0  0  0  0  0  0  0  0  0
   -4.0500    1.8400    0.3630 C   0  0  0  0  0  0  0  0  0  0  0  0
   -4.3190    3.0150    0.8000 O   0  0  0  0  0  0  0  0  0  0  0  0
   -4.9810    1.0310   -0.3240 N   0  0  0  0  0  0  0  0  0  0  0  0
   -4.3590   -0.1950   -0.6620 C   0  0  0  0  0  0  0  0  0  0  0  0
   -4.8430   -1.1750   -1.2620 O   0  0  0  0  0  0  0  0  0  0  0  0
    0.1030    0.8120   -0.9160 C   0  0  0  0  0  0  0  0  0  0  0  0
   -0.2390    1.9950   -1.1410 O   0  0  0  0  0  0  0  0  0  0  0  0
    1.3980    0.4590   -0.5320 C   0  0  0  0  0  0  0  0  0  0  0  0
    2.5510    1.1810   -0.3080 C   0  0  0  0  0  0  0  0  0  0  0  0
  1  2  1  0
  2  3  1  0
  3  4  2  0
  3 21  1  0
  4  5  1  0
  5  6  2  0
  6  7  1  0
  6 20  1  0
  7  8  1  0
  8  9  1  0
  8 18  1  0
  9 10  1  0
 10 11  1  1
 10 12  1  0
 10 16  1  0
 12 13  1  0
 13 14  2  0
 13 15  1  0
 15 16  1  0
 16 17  2  0
 18 19  2  0
 18 20  1  0
 20 21  2  0
M  END
