
     RDKit          3D

 20 21  0  0  0  0  0  0  0  0999 V2000
    3.6540   -1.7910   -1.6550 C   0  0  0  0  0  0  0  0  0  0  0  0
    4.2140   -0.5740   -1.1990 O   0  0  0  0  0  0  0  0  0  0  0  0
    3.4060    0.3590   -0.5840 C   0  0  0  0  0  0  0  0  0  0  0  0
    3.9860    1.5340   -0.1520 C   0  0  0  0  0  0  0  0  0  0  0  0
    3.2060    2.4740    0.4610 C   0  0  0  0  0  0  0  0  0  0  0  0
    1.8600    2.2570    0.6480 C   0  0  0  0  0  0  0  0  0  0  0  0
    1.1350    3.2280    1.2630 F   0  0  0  0  0  0  0  0  0  0  0  0
    1.2540    1.0840    0.2220 C   0  0  0  0  0  0  0  0  0  0  0  0
   -0.1690    0.9490    0.4640 C   0  0  0  0  0  0  0  0  0  0  0  0
   -0.7870   -0.2700    0.0200 N   0  0  0  0  0  0  0  0  0  0  0  0
   -2.1830   -0.4380    0.2550 C   0  0  0  0  0  0  0  0  0  0  0  0
   -2.9220    0.5530    0.9050 C   0  0  0  0  0  0  0  0  0  0  0  0
   -4.2700    0.4330    1.1530 C   0  0  0  0  0  0  0  0  0  0  0  0
   -4.9460    1.4170    1.7850 F   0  0  0  0  0  0  0  0  0  0  0  0
   -4.9550   -0.6950    0.7610 C   0  0  0  0  0  0  0  0  0  0  0  0
   -6.2990   -0.8200    1.0050 F   0  0  0  0  0  0  0  0  0  0  0  0
   -4.2570   -1.6890    0.1190 C   0  0  0  0  0  0  0  0  0  0  0  0
   -2.8840   -1.5610   -0.1320 C   0  0  0  0  0  0  0  0  0  0  0  0
   -2.2700   -2.5960   -0.7750 O   0  0  0  0  0  0  0  0  0  0  0  0
    2.0440    0.1590   -0.3850 C   0  0  0  0  0  0  0  0  0  0  0  0
  1  2  1  0
  2  3  1  0
  3  4  2  0
  3 20  1  0
  4  5  1  0
  5  6  2  0
  6  7  1  0
  6  8  1  0
  8  9  1  0
  8 20  2  0
  9 10  1  0
 10 11  1  0
 11 12  2  0
 11 18  1  0
 12 13  1  0
 13 14  1  0
 13 15  2  0
 15 16  1  0
 15 17  1  0
 17 18  2  0
 18 19  1  0
M  END
