
     RDKit          3D

 20 21  0  0  0  0  0  0  0  0999 V2000
   -2.1040   -2.7060    1.4000 N   0  0  0  0  0  0  0  0  0  0  0  0
   -2.3660   -1.5400    0.6440 C   0  0  0  0  0  0  0  0  0  0  0  0
   -3.5860   -1.2410    0.1260 C   0  0  0  0  0  0  0  0  0  0  0  0
   -3.7760   -0.0890   -0.6380 C   0  0  0  0  0  0  0  0  0  0  0  0
   -2.6940    0.7480   -0.8660 C   0  0  0  0  0  0  0  0  0  0  0  0
   -2.9310    2.0260   -1.6310 C   0  0  1  0  0  0  0  0  0  0  0  0
   -4.1220    2.5590   -1.0700 F   0  0  0  0  0  0  0  0  0  0  0  0
   -1.9810    2.9770   -1.3510 F   0  0  0  0  0  0  0  0  0  0  0  0
   -3.1630    1.7790   -2.9640 F   0  0  0  0  0  0  0  0  0  0  0  0
   -1.4840    0.4320   -0.3430 C   0  0  0  0  0  0  0  0  0  0  0  0
   -1.2630   -0.7140    0.4280 C   0  0  0  0  0  0  0  0  0  0  0  0
   -0.0410   -0.9000    1.1600 C   0  0  0  0  0  0  0  0  0  0  0  0
   -0.1440   -1.5890    2.2680 O   0  0  0  0  0  0  0  0  0  0  0  0
    1.2600   -0.4660    0.8660 C   0  0  0  0  0  0  0  0  0  0  0  0
    1.7310    0.0780   -0.2280 C   0  0  0  0  0  0  0  0  0  0  0  0
    3.1630    0.4710   -0.2900 C   0  0  0  0  0  0  0  0  0  0  0  0
    4.0780    0.0520   -1.2300 C   0  0  0  0  0  0  0  0  0  0  0  0
    5.2810    0.6580   -0.9360 C   0  0  0  0  0  0  0  0  0  0  0  0
    5.0390    1.4460    0.2110 C   0  0  0  0  0  0  0  0  0  0  0  0
    3.7940    1.2780    0.5200 O   0  0  0  0  0  0  0  0  0  0  0  0
  1  2  1  0
  2  3  2  0
  2 11  1  0
  3  4  1  0
  4  5  2  0
  5  6  1  0
  5 10  1  0
  6  7  1  1
  6  8  1  0
  6  9  1  0
 10 11  2  0
 11 12  1  0
 12 13  2  0
 12 14  1  0
 14 15  2  3
 15 16  1  0
 16 17  2  0
 16 20  1  0
 17 18  1  0
 18 19  2  0
 19 20  1  0
M  END
