
     RDKit          3D

 20 21  0  0  0  0  0  0  0  0999 V2000
    2.9290   -3.0620   -0.4790 C   0  0  0  0  0  0  0  0  0  0  0  0
    3.1200   -1.8010   -0.3090 C   0  0  0  0  0  0  0  0  0  0  0  0
    3.7100   -0.9410   -1.3850 C   0  0  0  0  0  0  0  0  0  0  0  0
    2.7900   -1.1300    1.0160 C   0  0  0  0  0  0  0  0  0  0  0  0
    1.8870   -0.1670    0.8640 O   0  0  0  0  0  0  0  0  0  0  0  0
    0.6500    0.1510    0.5030 C   0  0  0  0  0  0  0  0  0  0  0  0
   -0.2380   -0.8230    0.0860 C   0  0  0  0  0  0  0  0  0  0  0  0
   -1.5340   -0.3940   -0.2730 C   0  0  0  0  0  0  0  0  0  0  0  0
   -1.8860    0.9340   -0.1990 C   0  0  0  0  0  0  0  0  0  0  0  0
   -0.9940    1.8710    0.2100 C   0  0  0  0  0  0  0  0  0  0  0  0
    0.2850    1.4980    0.5690 C   0  0  0  0  0  0  0  0  0  0  0  0
    1.2150    2.3940    0.9820 O   0  0  0  0  0  0  0  0  0  0  0  0
    1.0650    3.7880    1.1080 C   0  0  2  0  0  0  0  0  0  0  0  0
    0.7540    4.2660   -0.1730 F   0  0  0  0  0  0  0  0  0  0  0  0
    2.3040    4.3030    1.4870 F   0  0  0  0  0  0  0  0  0  0  0  0
    0.1020    4.1780    2.0090 F   0  0  0  0  0  0  0  0  0  0  0  0
   -3.3210    1.2150   -0.5400 C   0  0  0  0  0  0  0  0  0  0  0  0
   -4.0300    0.2710    0.3650 N   0  0  0  0  0  0  0  0  0  0  0  0
   -3.9010   -1.0620   -0.2410 C   0  0  0  0  0  0  0  0  0  0  0  0
   -2.5490   -1.3500   -0.7700 C   0  0  0  0  0  0  0  0  0  0  0  0
  1  2  2  0
  2  3  1  0
  2  4  1  0
  4  5  1  0
  5  6  1  0
  6  7  2  0
  6 11  1  0
  7  8  1  0
  8  9  2  0
  8 20  1  0
  9 10  1  0
  9 17  1  0
 10 11  2  0
 11 12  1  0
 12 13  1  0
 13 14  1  6
 13 15  1  0
 13 16  1  0
 17 18  1  0
 18 19  1  0
 19 20  1  0
M  END
