
     RDKit          3D

 20 21  0  0  0  0  0  0  0  0999 V2000
   -4.0360    1.0520    2.0460 C   0  0  0  0  0  0  0  0  0  0  0  0
   -2.7710    1.1300    1.4580 O   0  0  0  0  0  0  0  0  0  0  0  0
   -2.4100    0.2990    0.4020 C   0  0  0  0  0  0  0  0  0  0  0  0
   -3.3200   -0.6090   -0.0640 C   0  0  0  0  0  0  0  0  0  0  0  0
   -2.9680   -1.4260   -1.1020 C   0  0  0  0  0  0  0  0  0  0  0  0
   -3.8550   -2.3390   -1.5850 F   0  0  0  0  0  0  0  0  0  0  0  0
   -1.7280   -1.3490   -1.6770 C   0  0  0  0  0  0  0  0  0  0  0  0
   -1.3500   -2.1560   -2.7180 F   0  0  0  0  0  0  0  0  0  0  0  0
   -0.8050   -0.4300   -1.2070 C   0  0  0  0  0  0  0  0  0  0  0  0
   -1.1370    0.3930   -0.1730 C   0  0  0  0  0  0  0  0  0  0  0  0
   -0.2460    1.4270    0.3830 C   0  0  0  0  0  0  0  0  0  0  0  0
    1.0400    1.4730   -0.1620 O   0  0  0  0  0  0  0  0  0  0  0  0
    1.9740    0.4590   -0.0520 C   0  0  0  0  0  0  0  0  0  0  0  0
    1.7670   -0.7190    0.6290 C   0  0  0  0  0  0  0  0  0  0  0  0
    2.7370   -1.7110    0.7170 C   0  0  0  0  0  0  0  0  0  0  0  0
    3.9670   -1.5530    0.1170 C   0  0  0  0  0  0  0  0  0  0  0  0
    4.9290   -2.5240    0.1980 F   0  0  0  0  0  0  0  0  0  0  0  0
    4.1880   -0.3780   -0.5670 C   0  0  0  0  0  0  0  0  0  0  0  0
    3.2290    0.6090   -0.6580 C   0  0  0  0  0  0  0  0  0  0  0  0
    3.4510    1.8150   -1.3580 N   0  0  0  0  0  0  0  0  0  0  0  0
  1  2  1  0
  2  3  1  0
  3  4  2  0
  3 10  1  0
  4  5  1  0
  5  6  1  0
  5  7  2  0
  7  8  1  0
  7  9  1  0
  9 10  2  0
 10 11  1  0
 11 12  1  0
 12 13  1  0
 13 14  2  0
 13 19  1  0
 14 15  1  0
 15 16  2  0
 16 17  1  0
 16 18  1  0
 18 19  2  0
 19 20  1  0
M  END
