
     RDKit          3D

 20 21  0  0  0  0  0  0  0  0999 V2000
   -3.7520    1.7500    0.4850 C   0  0  0  0  0  0  0  0  0  0  0  0
   -3.9490    0.4370    0.4190 C   0  0  0  0  0  0  0  0  0  0  0  0
   -5.1240   -0.3230    0.8280 C   0  0  0  0  0  0  0  0  0  0  0  0
   -4.8860   -1.6000    0.5820 C   0  0  0  0  0  0  0  0  0  0  0  0
   -3.5570   -1.7290    0.0060 C   0  0  0  0  0  0  0  0  0  0  0  0
   -3.0060   -0.5360   -0.0900 C   0  0  0  0  0  0  0  0  0  0  0  0
   -1.7180   -0.3030   -0.6080 O   0  0  0  0  0  0  0  0  0  0  0  0
   -0.6400   -0.3200    0.2580 C   0  0  0  0  0  0  0  0  0  0  0  0
   -0.8610   -0.5430    1.4740 O   0  0  0  0  0  0  0  0  0  0  0  0
    0.7390   -0.0850   -0.2090 C   0  0  0  0  0  0  0  0  0  0  0  0
    1.0030    0.1610   -1.5360 C   0  0  0  0  0  0  0  0  0  0  0  0
    2.3000    0.3770   -1.9480 C   0  0  0  0  0  0  0  0  0  0  0  0
    3.3710    0.3620   -1.0930 C   0  0  0  0  0  0  0  0  0  0  0  0
    4.7160    0.5780   -1.4700 N   0  0  0  0  0  0  0  0  0  0  0  0
    3.0920    0.1120    0.2420 C   0  0  0  0  0  0  0  0  0  0  0  0
    4.1930    0.0830    1.2030 C   0  0  2  0  0  0  0  0  0  0  0  0
    5.1460   -0.8750    0.9340 F   0  0  0  0  0  0  0  0  0  0  0  0
    3.6880   -0.1890    2.4560 F   0  0  0  0  0  0  0  0  0  0  0  0
    4.7710    1.3550    1.2810 F   0  0  0  0  0  0  0  0  0  0  0  0
    1.8010   -0.1050    0.6650 C   0  0  0  0  0  0  0  0  0  0  0  0
  1  2  2  0
  2  3  1  0
  2  6  1  0
  3  4  2  0
  4  5  1  0
  5  6  2  0
  6  7  1  0
  7  8  1  0
  8  9  2  0
  8 10  1  0
 10 11  2  0
 10 20  1  0
 11 12  1  0
 12 13  2  0
 13 14  1  0
 13 15  1  0
 15 16  1  0
 15 20  2  0
 16 17  1  6
 16 18  1  0
 16 19  1  0
M  END
