
     RDKit          3D

 20 21  0  0  0  0  0  0  0  0999 V2000
    4.5930    2.0120    1.3350 C   0  0  0  0  0  0  0  0  0  0  0  0
    4.8560    0.8310    0.6050 O   0  0  0  0  0  0  0  0  0  0  0  0
    3.7810    0.1030    0.1280 C   0  0  0  0  0  0  0  0  0  0  0  0
    2.4700    0.5040    0.3500 C   0  0  0  0  0  0  0  0  0  0  0  0
    1.3820   -0.2030   -0.1130 C   0  0  0  0  0  0  0  0  0  0  0  0
    0.0860    0.2250    0.1260 O   0  0  0  0  0  0  0  0  0  0  0  0
   -0.9650   -0.5530   -0.3810 C   0  0  0  0  0  0  0  0  0  0  0  0
   -2.2970    0.0080   -0.0590 C   0  0  0  0  0  0  0  0  0  0  0  0
   -2.4760    1.1670    0.6590 C   0  0  0  0  0  0  0  0  0  0  0  0
   -3.7410    1.6040    0.9050 C   0  0  0  0  0  0  0  0  0  0  0  0
   -3.8740    2.7650    1.6260 F   0  0  0  0  0  0  0  0  0  0  0  0
   -4.8580    0.9280    0.4600 C   0  0  0  0  0  0  0  0  0  0  0  0
   -6.1170    1.3810    0.7150 F   0  0  0  0  0  0  0  0  0  0  0  0
   -4.6620   -0.2270   -0.2560 C   0  0  0  0  0  0  0  0  0  0  0  0
   -3.3970   -0.7020   -0.5250 C   0  0  0  0  0  0  0  0  0  0  0  0
   -3.2340   -1.9110   -1.2750 N   0  0  0  0  0  0  0  0  0  0  0  0
    1.6560   -1.3700   -0.8350 C   0  0  0  0  0  0  0  0  0  0  0  0
    2.9220   -1.7980   -1.0750 C   0  0  0  0  0  0  0  0  0  0  0  0
    3.9870   -1.0740   -0.6010 C   0  0  0  0  0  0  0  0  0  0  0  0
    5.2380   -1.5060   -0.8440 F   0  0  0  0  0  0  0  0  0  0  0  0
  1  2  1  0
  2  3  1  0
  3  4  2  0
  3 19  1  0
  4  5  1  0
  5  6  1  0
  5 17  2  0
  6  7  1  0
  7  8  1  0
  8  9  2  0
  8 15  1  0
  9 10  1  0
 10 11  1  0
 10 12  2  0
 12 13  1  0
 12 14  1  0
 14 15  2  0
 15 16  1  0
 17 18  1  0
 18 19  2  0
 19 20  1  0
M  END
