
     RDKit          3D

  9  8  0  0  0  0  0  0  0  0999 V2000
    2.9180   -0.1000   -0.1660 C   0  0  0  0  0  0  0  0  0  0  0  0
    1.5250   -0.6460   -0.4110 C   0  0  0  0  0  0  0  0  0  0  0  0
    0.6210    0.0580    0.4390 N   0  0  0  0  0  0  0  0  0  0  0  0
   -0.7300    0.0960    0.0020 C   0  0  1  0  0  0  0  0  0  0  0  0
   -0.9720   -0.4820   -1.3640 C   0  0  0  0  0  0  0  0  0  0  0  0
   -1.5870   -0.6870    0.9990 C   0  0  0  0  0  0  0  0  0  0  0  0
   -1.1620   -2.0070    1.0720 O   0  0  0  0  0  0  0  0  0  0  0  0
   -1.2010    1.5370   -0.0310 C   0  0  0  0  0  0  0  0  0  0  0  0
   -1.0960    2.0630    1.2570 O   0  0  0  0  0  0  0  0  0  0  0  0
  1  2  1  0
  2  3  1  0
  3  4  1  0
  4  5  1  6
  4  6  1  0
  4  8  1  0
  6  7  1  0
  8  9  1  0
M  CHG  1   3   1
M  END
