
     RDKit          3D

  9  8  0  0  0  0  0  0  0  0999 V2000
   -1.8330    1.3590   -0.4390 C   0  0  0  0  0  0  0  0  0  0  0  0
   -2.0490   -0.1000   -0.4260 C   0  0  0  0  0  0  0  0  0  0  0  0
   -0.8270   -0.9510   -0.3320 C   0  0  2  0  0  0  0  0  0  0  0  0
   -1.2900   -2.2990   -0.3370 O   0  0  0  0  0  0  0  0  0  0  0  0
   -0.0570   -0.8230    0.8940 C   0  0  0  0  0  0  0  0  0  0  0  0
   -0.6350   -1.1570    2.1010 O   0  0  0  0  0  0  0  0  0  0  0  0
    1.1620   -0.4000    0.8800 C   0  0  0  0  0  0  0  0  0  0  0  0
    1.9960    0.0150   -0.2560 C   0  0  0  0  0  0  0  0  0  0  0  0
    2.4380    1.3940   -0.1500 N   0  0  0  0  0  0  0  0  0  0  0  0
  1  2  1  0
  2  3  1  0
  3  4  1  1
  3  5  1  0
  5  6  1  0
  5  7  2  3
  7  8  1  0
  8  9  1  0
M  CHG  1   9   1
M  END
