
     RDKit          3D

  9  8  0  0  0  0  0  0  0  0999 V2000
    2.9550    1.1080    0.5240 C   0  0  0  0  0  0  0  0  0  0  0  0
    1.6820    0.5120    0.6610 O   0  0  0  0  0  0  0  0  0  0  0  0
    1.3600   -0.0180   -0.5670 C   0  0  0  0  0  0  0  0  0  0  0  0
    0.0320   -0.6980   -0.6160 C   0  0  1  0  0  0  0  0  0  0  0  0
   -0.0840   -1.8020    0.2970 N   0  0  0  0  0  0  0  0  0  0  0  0
   -1.1370    0.2510   -0.5290 C   0  0  1  0  0  0  0  0  0  0  0  0
   -2.3680   -0.5370   -0.9970 C   0  0  0  0  0  0  0  0  0  0  0  0
   -1.4110    0.7630    0.8360 C   0  0  0  0  0  0  0  0  0  0  0  0
   -0.9650    1.2800   -1.4250 O   0  0  0  0  0  0  0  0  0  0  0  0
  1  2  1  0
  2  3  1  0
  3  4  1  0
  4  5  1  1
  4  6  1  0
  6  7  1  6
  6  8  1  0
  6  9  1  0
M  CHG  1   5   1
M  END
