
     RDKit          3D

 22 23  0  0  0  0  0  0  0  0999 V2000
   -4.9160    0.7140   -1.6490 C   0  0  0  0  0  0  0  0  0  0  0  0
   -4.9000    0.1520   -0.2670 C   0  0  0  0  0  0  0  0  0  0  0  0
   -4.0320   -1.0480   -0.0740 C   0  0  0  0  0  0  0  0  0  0  0  0
   -2.6100   -0.8360   -0.3640 C   0  0  0  0  0  0  0  0  0  0  0  0
   -2.1380   -0.4170   -1.7190 C   0  0  0  0  0  0  0  0  0  0  0  0
   -1.6610   -1.0070    0.5590 C   0  0  0  0  0  0  0  0  0  0  0  0
   -0.2920   -0.8090    0.3010 N   0  0  0  0  0  0  0  0  0  0  0  0
    0.2630    0.4050    0.3470 C   0  0  0  0  0  0  0  0  0  0  0  0
   -0.3910    1.4730    0.6240 N   0  0  0  0  0  0  0  0  0  0  0  0
    1.5740    0.4590    0.0820 N   0  0  0  0  0  0  0  0  0  0  0  0
    2.2270    1.7560    0.1180 C   0  0  0  0  0  0  0  0  0  0  0  0
    2.7580    2.0770    1.4910 C   0  0  0  0  0  0  0  0  0  0  0  0
    3.4350    3.4260    1.5210 C   0  0  0  0  0  0  0  0  0  0  0  0
    4.5160    3.4800    0.6330 O   0  0  0  0  0  0  0  0  0  0  0  0
    2.3530   -0.5840   -0.2180 C   0  0  0  0  0  0  0  0  0  0  0  0
    3.5880   -0.4030   -0.4510 O   0  0  0  0  0  0  0  0  0  0  0  0
    1.7760   -1.8790   -0.2700 C   0  0  0  0  0  0  0  0  0  0  0  0
    2.4190   -3.0330   -0.5570 C   0  0  0  0  0  0  0  0  0  0  0  0
    3.9210   -3.1390   -0.8820 C   0  0  0  0  0  0  0  0  0  0  0  0
    1.6580   -4.1840   -0.5520 N   0  0  0  0  0  0  0  0  0  0  0  0
   -0.0100   -3.5600   -0.1230 S   0  0  0  0  0  0  0  0  0  0  0  0
    0.4570   -1.9200   -0.0010 C   0  0  0  0  0  0  0  0  0  0  0  0
  1  2  1  0
  2  3  1  0
  3  4  1  0
  4  5  1  0
  4  6  2  3
  6  7  1  0
  7  8  1  0
  7 22  1  0
  8  9  2  0
  8 10  1  0
 10 11  1  0
 10 15  1  0
 11 12  1  0
 12 13  1  0
 13 14  1  0
 15 16  2  0
 15 17  1  0
 17 18  1  0
 17 22  2  0
 18 19  1  0
 18 20  2  0
 20 21  1  0
 21 22  1  0
M  END
