
     RDKit          3D

 19 21  0  0  0  0  0  0  0  0999 V2000
    5.3740    1.7160    0.1000 N   0  0  0  0  0  0  0  0  0  0  0  0
    3.9640    1.5750    0.0970 C   0  0  0  0  0  0  0  0  0  0  0  0
    3.3030    2.6010    0.2810 O   0  0  0  0  0  0  0  0  0  0  0  0
    3.3720    0.2800   -0.1140 C   0  0  0  0  0  0  0  0  0  0  0  0
    4.2390   -0.8050   -0.3100 C   0  0  0  0  0  0  0  0  0  0  0  0
    3.7560   -2.0640   -0.5170 C   0  0  0  0  0  0  0  0  0  0  0  0
    2.3990   -2.2260   -0.5240 C   0  0  0  0  0  0  0  0  0  0  0  0
    1.5020   -1.1850   -0.3350 C   0  0  0  0  0  0  0  0  0  0  0  0
    1.9810    0.0980   -0.1240 C   0  0  0  0  0  0  0  0  0  0  0  0
    0.8480    0.9930    0.0430 C   0  0  0  0  0  0  0  0  0  0  0  0
    0.9030    2.2460    0.2540 O   0  0  0  0  0  0  0  0  0  0  0  0
   -0.3370    0.2200   -0.0720 N   0  0  0  0  0  0  0  0  0  0  0  0
   -1.6980    0.7810    0.0380 C   0  0  2  0  0  0  0  0  0  0  0  0
   -2.3470    0.1360    1.2060 C   0  0  0  0  0  0  0  0  0  0  0  0
   -3.8440    0.2000    1.2180 C   0  0  0  0  0  0  0  0  0  0  0  0
   -4.4460    0.2070   -0.0750 N   0  0  0  0  0  0  0  0  0  0  0  0
   -3.5370   -0.4290   -1.0080 C   0  0  0  0  0  0  0  0  0  0  0  0
   -2.4380    0.6100   -1.2600 C   0  0  0  0  0  0  0  0  0  0  0  0
    0.0220   -1.1360   -0.3040 C   0  0  0  0  0  0  0  0  0  0  0  0
  1  2  1  0
  2  3  2  0
  2  4  1  0
  4  5  2  0
  4  9  1  0
  5  6  1  0
  6  7  2  0
  7  8  1  0
  8  9  2  0
  8 19  1  0
  9 10  1  0
 10 11  2  0
 10 12  1  0
 13 12  1  6
 12 19  1  0
 13 14  1  0
 13 18  1  0
 14 15  1  0
 15 16  1  0
 16 17  1  0
 17 18  1  0
M  CHG  1  16   1
M  END
