
     RDKit          3D

 25 28  0  0  0  0  0  0  0  0999 V2000
   -4.6870   -0.8310   -2.0690 N   0  0  0  0  0  0  0  0  0  0  0  0
   -5.7840   -0.6530   -1.1990 C   0  0  0  0  0  0  0  0  0  0  0  0
   -6.9720   -0.8380   -1.5700 O   0  0  0  0  0  0  0  0  0  0  0  0
   -5.5440   -0.2430    0.1700 C   0  0  0  0  0  0  0  0  0  0  0  0
   -6.5890   -0.0530    1.0680 C   0  0  0  0  0  0  0  0  0  0  0  0
   -6.3520    0.3340    2.3570 C   0  0  0  0  0  0  0  0  0  0  0  0
   -5.0600    0.5460    2.7960 C   0  0  0  0  0  0  0  0  0  0  0  0
   -4.0420    0.3540    1.8940 C   0  0  0  0  0  0  0  0  0  0  0  0
   -2.7010    0.4870    2.0490 N   0  0  0  0  0  0  0  0  0  0  0  0
   -2.1350    0.1860    0.8750 C   0  0  0  0  0  0  0  0  0  0  0  0
   -0.7050    0.1740    0.5050 C   0  0  0  0  0  0  0  0  0  0  0  0
   -0.3240   -0.1720   -0.7850 C   0  0  0  0  0  0  0  0  0  0  0  0
    0.9970   -0.1870   -1.1410 C   0  0  0  0  0  0  0  0  0  0  0  0
    1.9790    0.1400   -0.2310 C   0  0  0  0  0  0  0  0  0  0  0  0
    3.4020    0.1490   -0.5690 C   0  0  2  0  0  0  0  0  0  0  0  0
    3.7150   -0.2490   -1.9900 C   0  0  0  0  0  0  0  0  0  0  0  0
    5.2010   -0.5860   -2.0470 C   0  0  0  0  0  0  0  0  0  0  0  0
    5.9050    0.3180   -1.0620 C   0  0  0  0  0  0  0  0  0  0  0  0
    5.5110   -0.0590    0.3630 C   0  0  0  0  0  0  0  0  0  0  0  0
    4.1530   -0.5890    0.3920 N   0  0  0  0  0  0  0  0  0  0  0  0
    1.5900    0.4790    1.0360 C   0  0  0  0  0  0  0  0  0  0  0  0
    0.2530    0.5040    1.4270 C   0  0  0  0  0  0  0  0  0  0  0  0
   -0.0550    0.8520    2.7080 F   0  0  0  0  0  0  0  0  0  0  0  0
   -3.0870   -0.1380   -0.0310 N   0  0  0  0  0  0  0  0  0  0  0  0
   -4.2560   -0.0340    0.5990 C   0  0  0  0  0  0  0  0  0  0  0  0
  1  2  1  0
  2  3  2  0
  2  4  1  0
  4  5  2  0
  4 25  1  0
  5  6  1  0
  6  7  2  0
  7  8  1  0
  8  9  1  0
  8 25  2  0
  9 10  1  0
 10 11  1  0
 10 24  2  0
 11 12  2  0
 11 22  1  0
 12 13  1  0
 13 14  2  0
 15 14  1  1
 14 21  1  0
 15 16  1  0
 15 20  1  0
 16 17  1  0
 17 18  1  0
 18 19  1  0
 19 20  1  0
 21 22  2  0
 22 23  1  0
 24 25  1  0
M  CHG  1  20   1
M  END
