
     RDKit          3D

 22 25  0  0  0  0  0  0  0  0999 V2000
   -2.1130   -1.3160   -0.6390 O   0  0  0  0  0  0  0  0  0  0  0  0
   -2.2840   -0.1670   -0.1790 C   0  0  0  0  0  0  0  0  0  0  0  0
   -1.1210    0.5740    0.0980 C   0  0  0  0  0  0  0  0  0  0  0  0
    0.1360    0.0020   -0.0830 N   0  0  0  0  0  0  0  0  0  0  0  0
    1.3920    0.6250   -0.1880 C   0  0  0  0  0  0  0  0  0  0  0  0
    1.7320    1.9440   -0.3110 C   0  0  0  0  0  0  0  0  0  0  0  0
    3.1320    2.0810   -0.3270 C   0  0  0  0  0  0  0  0  0  0  0  0
    3.6100    0.7980   -0.2100 C   0  0  0  0  0  0  0  0  0  0  0  0
    2.5830   -0.0490   -0.1300 N   0  0  0  0  0  0  0  0  0  0  0  0
    2.8310   -1.4670   -0.0030 C   0  0  0  0  0  0  0  0  0  0  0  0
    3.9870   -1.8120   -0.9400 C   0  0  0  0  0  0  0  0  0  0  0  0
    5.2390   -1.0770   -0.5360 C   0  0  0  0  0  0  0  0  0  0  0  0
    5.0380    0.3440   -0.1670 C   0  0  0  0  0  0  0  0  0  0  0  0
   -1.3520    1.8190    0.5980 C   0  0  0  0  0  0  0  0  0  0  0  0
   -2.6320    2.3410    0.8250 C   0  0  0  0  0  0  0  0  0  0  0  0
   -3.7060    1.5540    0.5270 C   0  0  0  0  0  0  0  0  0  0  0  0
   -3.5150    0.3240    0.0350 N   0  0  0  0  0  0  0  0  0  0  0  0
   -4.6630   -0.4880   -0.2710 C   0  0  0  0  0  0  0  0  0  0  0  0
   -5.7910   -0.7340    0.4700 C   0  0  0  0  0  0  0  0  0  0  0  0
   -6.6160   -1.5880   -0.2570 C   0  0  0  0  0  0  0  0  0  0  0  0
   -5.9480   -1.8210   -1.4100 N   0  0  0  0  0  0  0  0  0  0  0  0
   -4.7860   -1.1680   -1.4200 N   0  0  0  0  0  0  0  0  0  0  0  0
  1  2  2  0
  2  3  1  0
  2 17  1  0
  3  4  1  0
  3 14  2  0
  4  5  1  0
  5  6  2  0
  5  9  1  0
  6  7  1  0
  7  8  2  0
  8  9  1  0
  8 13  1  0
  9 10  1  0
 10 11  1  0
 11 12  1  0
 12 13  1  0
 14 15  1  0
 15 16  2  0
 16 17  1  0
 17 18  1  0
 18 19  2  0
 18 22  1  0
 19 20  1  0
 20 21  2  0
 21 22  1  0
M  END
