
     RDKit          3D

 23 25  0  0  0  0  0  0  0  0999 V2000
   -1.7900   -3.0970    1.0250 C   0  0  0  0  0  0  0  0  0  0  0  0
   -3.1660   -2.5890    0.9670 C   0  0  0  0  0  0  0  0  0  0  0  0
   -3.4290   -1.3050    0.6160 C   0  0  0  0  0  0  0  0  0  0  0  0
   -2.3470   -0.4060    0.2890 C   0  0  0  0  0  0  0  0  0  0  0  0
   -2.4660    0.8370   -0.0580 C   0  0  0  0  0  0  0  0  0  0  0  0
   -3.7890    1.4900   -0.1650 C   0  0  0  0  0  0  0  0  0  0  0  0
   -4.8580    0.9120    0.1220 O   0  0  0  0  0  0  0  0  0  0  0  0
   -3.8190    2.8470   -0.6200 N   0  0  0  0  0  0  0  0  0  0  0  0
   -2.7570    3.4860   -0.9280 C   0  0  0  0  0  0  0  0  0  0  0  0
   -2.9280    4.9000   -1.3900 C   0  0  0  0  0  0  0  0  0  0  0  0
   -1.5050    2.8720   -0.8240 N   0  0  0  0  0  0  0  0  0  0  0  0
   -1.3160    1.6360   -0.4210 C   0  0  0  0  0  0  0  0  0  0  0  0
    0.0540    1.1540   -0.3730 C   0  0  0  0  0  0  0  0  0  0  0  0
    1.0690    1.9050   -0.8270 N   0  0  0  0  0  0  0  0  0  0  0  0
    2.2860    1.2750   -0.7030 N   0  0  0  0  0  0  0  0  0  0  0  0
    1.9730   -0.1560   -0.5750 C   0  0  1  0  0  0  0  0  0  0  0  0
    1.7200   -0.8220   -1.8790 C   0  0  0  0  0  0  0  0  0  0  0  0
    3.0090   -0.7820    0.2640 C   0  0  0  0  0  0  0  0  0  0  0  0
    3.7090   -1.8400   -0.0240 C   0  0  0  0  0  0  0  0  0  0  0  0
    4.6610   -2.1520    1.1000 C   0  0  0  0  0  0  0  0  0  0  0  0
    4.3490   -1.0690    2.0520 C   0  0  0  0  0  0  0  0  0  0  0  0
    3.3980   -0.2790    1.5710 C   0  0  0  0  0  0  0  0  0  0  0  0
    0.7120    0.0490    0.1750 N   0  0  0  0  0  0  0  0  0  0  0  0
  1  2  1  0
  2  3  2  3
  3  4  1  0
  4  5  2  3
  5  6  1  0
  5 12  1  0
  6  7  2  0
  6  8  1  0
  8  9  2  0
  9 10  1  0
  9 11  1  0
 11 12  2  0
 12 13  1  0
 13 14  2  0
 13 23  1  0
 14 15  1  0
 15 16  1  0
 16 17  1  6
 16 18  1  0
 16 23  1  0
 18 19  2  0
 18 22  1  0
 19 20  1  0
 20 21  1  0
 21 22  2  0
M  END
