
     RDKit          3D

 23 26  0  0  0  0  0  0  0  0999 V2000
    3.1790   -2.0550    1.7660 C   0  0  0  0  0  0  0  0  0  0  0  0
    3.4030   -2.1470    0.3170 C   0  0  0  0  0  0  0  0  0  0  0  0
    4.3010   -2.9850   -0.2600 N   0  0  0  0  0  0  0  0  0  0  0  0
    4.2820   -2.8490   -1.5690 N   0  0  0  0  0  0  0  0  0  0  0  0
    3.3620   -1.9100   -1.8690 C   0  0  0  0  0  0  0  0  0  0  0  0
    3.0550   -1.5030   -3.0150 O   0  0  0  0  0  0  0  0  0  0  0  0
    2.7960   -1.4540   -0.7020 C   0  0  0  0  0  0  0  0  0  0  0  0
    1.7650   -0.4480   -0.5330 C   0  0  0  0  0  0  0  0  0  0  0  0
    2.1470    0.8270   -0.3840 N   0  0  0  0  0  0  0  0  0  0  0  0
    1.2490    1.8050   -0.2240 C   0  0  0  0  0  0  0  0  0  0  0  0
   -0.1060    1.4560   -0.2150 C   0  0  0  0  0  0  0  0  0  0  0  0
   -0.5420    0.1660   -0.3640 C   0  0  0  0  0  0  0  0  0  0  0  0
   -1.8730   -0.2500   -0.3640 N   0  0  0  0  0  0  0  0  0  0  0  0
   -2.0890   -1.7090   -0.5750 C   0  0  0  0  0  0  0  0  0  0  0  0
   -2.5070   -2.2220    0.8030 C   0  0  0  0  0  0  0  0  0  0  0  0
   -3.8810   -1.6310    1.0510 C   0  0  0  0  0  0  0  0  0  0  0  0
   -4.2520   -0.5900    0.0600 C   0  0  0  0  0  0  0  0  0  0  0  0
   -3.1030    0.4140   -0.2050 C   0  0  0  0  0  0  0  0  0  0  0  0
    0.4690   -0.7630   -0.5230 N   0  0  0  0  0  0  0  0  0  0  0  0
   -1.1290    2.5220   -0.0360 C   0  0  0  0  0  0  0  0  0  0  0  0
   -0.4940    3.9250   -0.2070 C   0  0  0  0  0  0  0  0  0  0  0  0
    0.7590    4.0170    0.6330 C   0  0  0  0  0  0  0  0  0  0  0  0
    1.7780    3.1670   -0.0740 C   0  0  0  0  0  0  0  0  0  0  0  0
  1  2  1  0
  2  3  1  0
  2  7  2  0
  3  4  1  0
  4  5  1  0
  5  6  2  0
  5  7  1  0
  7  8  1  0
  8  9  2  0
  8 19  1  0
  9 10  1  0
 10 11  2  0
 10 23  1  0
 11 12  1  0
 11 20  1  0
 12 13  1  0
 12 19  2  0
 13 14  1  0
 13 18  1  0
 14 15  1  0
 15 16  1  0
 16 17  1  0
 17 18  1  0
 20 21  1  0
 21 22  1  0
 22 23  1  0
M  END
