
     RDKit          3D

 23 26  0  0  0  0  0  0  0  0999 V2000
    4.0390    2.2380   -1.9700 C   0  0  0  0  0  0  0  0  0  0  0  0
    3.4720    1.1780   -1.0570 C   0  0  0  0  0  0  0  0  0  0  0  0
    4.1740    0.2940   -0.3750 C   0  0  0  0  0  0  0  0  0  0  0  0
    5.5290   -0.1510   -0.0990 C   0  0  0  0  0  0  0  0  0  0  0  0
    5.3820   -1.1710    0.7530 C   0  0  0  0  0  0  0  0  0  0  0  0
    6.4250   -1.8950    1.2810 O   0  0  0  0  0  0  0  0  0  0  0  0
    3.9660   -1.3980    1.0360 C   0  0  0  0  0  0  0  0  0  0  0  0
    3.2430   -0.5360    0.3730 C   0  0  0  0  0  0  0  0  0  0  0  0
    1.9260   -0.0310    0.0450 C   0  0  0  0  0  0  0  0  0  0  0  0
    0.6580   -0.5200    0.5330 N   0  0  0  0  0  0  0  0  0  0  0  0
   -0.5490   -0.0100   -0.0320 C   0  0  0  0  0  0  0  0  0  0  0  0
   -0.4820    0.9190   -1.0120 N   0  0  0  0  0  0  0  0  0  0  0  0
   -1.5770    1.4350   -1.5820 C   0  0  0  0  0  0  0  0  0  0  0  0
   -2.8140    1.0120   -1.1620 C   0  0  0  0  0  0  0  0  0  0  0  0
   -2.9140    0.0710   -0.1690 C   0  0  0  0  0  0  0  0  0  0  0  0
   -4.2030   -0.4220    0.3230 C   0  0  0  0  0  0  0  0  0  0  0  0
   -5.3840    0.0230   -0.1730 C   0  0  0  0  0  0  0  0  0  0  0  0
   -6.5970   -0.4780    0.3290 C   0  0  0  0  0  0  0  0  0  0  0  0
   -6.5970   -1.4230    1.3280 C   0  0  0  0  0  0  0  0  0  0  0  0
   -5.4150   -1.8470    1.8020 N   0  0  0  0  0  0  0  0  0  0  0  0
   -4.2300   -1.3700    1.3240 C   0  0  0  0  0  0  0  0  0  0  0  0
   -1.7580   -0.4110    0.3650 N   0  0  0  0  0  0  0  0  0  0  0  0
    2.1010    0.9460   -0.7740 N   0  0  0  0  0  0  0  0  0  0  0  0
  1  2  1  0
  2  3  2  0
  2 23  1  0
  3  4  1  0
  3  8  1  0
  4  5  2  0
  5  6  1  0
  5  7  1  0
  7  8  2  0
  8  9  1  0
  9 10  1  0
  9 23  2  0
 10 11  1  0
 11 12  2  0
 11 22  1  0
 12 13  1  0
 13 14  2  0
 14 15  1  0
 15 16  1  0
 15 22  2  0
 16 17  2  0
 16 21  1  0
 17 18  1  0
 18 19  2  0
 19 20  1  0
 20 21  2  0
M  END
