
     RDKit          3D

 23 26  0  0  0  0  0  0  0  0999 V2000
    6.2110    1.9160    0.4820 N   0  0  0  0  0  0  0  0  0  0  0  0
    5.6000    1.0170   -0.2570 C   0  0  0  0  0  0  0  0  0  0  0  0
    6.1450    0.6100   -1.5600 C   0  0  0  0  0  0  0  0  0  0  0  0
    5.3180   -0.3960   -2.2190 C   0  0  0  0  0  0  0  0  0  0  0  0
    4.2290   -0.8630   -1.6920 C   0  0  0  0  0  0  0  0  0  0  0  0
    3.7050   -0.4420   -0.3930 C   0  0  0  0  0  0  0  0  0  0  0  0
    2.5080   -0.9790    0.1430 N   0  0  0  0  0  0  0  0  0  0  0  0
    2.1170   -2.3730    0.1460 C   0  0  0  0  0  0  0  0  0  0  0  0
    0.6050   -2.2420   -0.0500 C   0  0  0  0  0  0  0  0  0  0  0  0
    0.2930   -1.1560    0.9550 C   0  0  2  0  0  0  0  0  0  0  0  0
   -0.9790   -0.5150    0.6810 N   0  0  0  0  0  0  0  0  0  0  0  0
   -1.9910   -0.5770    1.6700 C   0  0  0  0  0  0  0  0  0  0  0  0
   -1.7100   -1.2010    2.7490 O   0  0  0  0  0  0  0  0  0  0  0  0
   -3.3080    0.0200    1.5240 C   0  0  0  0  0  0  0  0  0  0  0  0
   -4.2640   -0.0070    2.4690 N   0  0  0  0  0  0  0  0  0  0  0  0
   -5.3630    0.6210    2.0550 C   0  0  0  0  0  0  0  0  0  0  0  0
   -5.1530    1.0950    0.7800 C   0  0  0  0  0  0  0  0  0  0  0  0
   -3.8500    0.7080    0.4560 C   0  0  0  0  0  0  0  0  0  0  0  0
   -3.5370    1.1720   -0.8980 C   0  0  0  0  0  0  0  0  0  0  0  0
   -4.8640    1.4900   -1.5110 C   0  0  0  0  0  0  0  0  0  0  0  0
   -5.7600    1.8440   -0.3590 C   0  0  0  0  0  0  0  0  0  0  0  0
    1.4600   -0.2130    0.7880 C   0  0  0  0  0  0  0  0  0  0  0  0
    4.3990    0.4460    0.2300 N   0  0  0  0  0  0  0  0  0  0  0  0
  1  2  2  0
  2  3  1  0
  2 23  1  0
  3  4  1  0
  4  5  2  0
  5  6  1  0
  6  7  1  0
  6 23  2  0
  7  8  1  0
  7 22  1  0
  8  9  1  0
  9 10  1  0
 10 11  1  6
 10 22  1  0
 11 12  1  0
 12 13  2  0
 12 14  1  0
 14 15  1  0
 14 18  2  0
 15 16  1  0
 16 17  2  0
 17 18  1  0
 17 21  1  0
 18 19  1  0
 19 20  1  0
 20 21  1  0
M  END
