
     RDKit          3D

 22 25  0  0  0  0  0  0  0  0999 V2000
   -4.6500   -2.0090   -1.5640 C   0  0  0  0  0  0  0  0  0  0  0  0
   -4.3160   -0.8140   -0.7770 C   0  0  0  0  0  0  0  0  0  0  0  0
   -5.1760   -0.0300   -0.0800 N   0  0  0  0  0  0  0  0  0  0  0  0
   -4.4930    0.9630    0.5070 N   0  0  0  0  0  0  0  0  0  0  0  0
   -5.0040    2.0290    1.3430 C   0  0  0  0  0  0  0  0  0  0  0  0
   -3.2090    0.8350    0.2030 C   0  0  0  0  0  0  0  0  0  0  0  0
   -3.0780   -0.2830   -0.6090 C   0  0  0  0  0  0  0  0  0  0  0  0
   -1.8820   -0.8340   -1.2040 N   0  0  0  0  0  0  0  0  0  0  0  0
   -0.6180   -0.1840   -1.0960 C   0  0  0  0  0  0  0  0  0  0  0  0
    0.1170   -0.2340   -2.1210 O   0  0  0  0  0  0  0  0  0  0  0  0
   -0.0350    0.5390    0.0060 C   0  0  0  0  0  0  0  0  0  0  0  0
    1.2880    0.3330    0.4620 C   0  0  0  0  0  0  0  0  0  0  0  0
    2.1310   -0.5820    0.0850 C   0  0  0  0  0  0  0  0  0  0  0  0
    2.1870   -1.7130   -0.8360 C   0  0  0  0  0  0  0  0  0  0  0  0
    3.6770   -1.5830   -1.2930 C   0  0  0  0  0  0  0  0  0  0  0  0
    4.2960   -1.5710    0.1080 C   0  0  0  0  0  0  0  0  0  0  0  0
    3.5020   -0.5000    0.7800 C   0  0  1  0  0  0  0  0  0  0  0  0
    4.0720    0.8750    0.5570 C   0  0  0  0  0  0  0  0  0  0  0  0
    3.0360    1.9490    0.8930 C   0  0  0  0  0  0  0  0  0  0  0  0
    1.8390    1.2930    1.5330 C   0  0  0  0  0  0  0  0  0  0  0  0
   -0.7690    1.3740    0.7470 N   0  0  0  0  0  0  0  0  0  0  0  0
   -2.1210    1.6870    0.6270 N   0  0  0  0  0  0  0  0  0  0  0  0
  1  2  1  0
  2  3  2  0
  2  7  1  0
  3  4  1  0
  4  5  1  0
  4  6  1  0
  6  7  2  0
  6 22  1  0
  7  8  1  0
  8  9  1  0
  9 10  2  0
  9 11  1  0
 11 12  1  0
 11 21  2  0
 12 13  2  0
 12 20  1  0
 13 14  1  0
 13 17  1  0
 14 15  1  0
 15 16  1  0
 17 16  1  6
 17 18  1  0
 18 19  1  0
 19 20  1  0
 21 22  1  0
M  END
