
     RDKit          3D

 16 18  0  0  0  0  0  0  0  0999 V2000
   -2.7530    1.7950    0.5990 C   0  0  0  0  0  0  0  0  0  0  0  0
   -1.6040    0.9120    0.3270 C   0  0  0  0  0  0  0  0  0  0  0  0
   -0.3180    1.3940    0.2850 C   0  0  0  0  0  0  0  0  0  0  0  0
    0.7650    0.5430    0.0250 C   0  0  0  0  0  0  0  0  0  0  0  0
    0.5030   -0.7940   -0.1890 C   0  0  0  0  0  0  0  0  0  0  0  0
    1.5450   -1.6740   -0.4510 C   0  0  0  0  0  0  0  0  0  0  0  0
    2.8470   -1.1950   -0.4940 C   0  0  0  0  0  0  0  0  0  0  0  0
    3.1270    0.1400   -0.2820 C   0  0  0  0  0  0  0  0  0  0  0  0
    4.2590    0.8750   -0.2630 N   0  0  0  0  0  0  0  0  0  0  0  0
    3.9330    2.1460   -0.0020 N   0  0  0  0  0  0  0  0  0  0  0  0
    2.6060    2.2550    0.1490 C   0  0  0  0  0  0  0  0  0  0  0  0
    2.0640    0.9950   -0.0230 C   0  0  0  0  0  0  0  0  0  0  0  0
   -0.7790   -1.3080   -0.1540 C   0  0  0  0  0  0  0  0  0  0  0  0
   -1.0600   -2.6820   -0.3730 N   0  0  0  0  0  0  0  0  0  0  0  0
   -1.8210   -0.4260    0.1080 C   0  0  0  0  0  0  0  0  0  0  0  0
   -3.1900   -0.9440    0.1510 C   0  0  0  0  0  0  0  0  0  0  0  0
  1  2  1  0
  2  3  2  0
  2 15  1  0
  3  4  1  0
  4  5  2  0
  4 12  1  0
  5  6  1  0
  5 13  1  0
  6  7  2  0
  7  8  1  0
  8  9  1  0
  8 12  2  0
  9 10  1  0
 10 11  2  0
 11 12  1  0
 13 14  1  0
 13 15  2  0
 15 16  1  0
M  END
