
     RDKit          3D

 16 18  0  0  0  0  0  0  0  0999 V2000
    5.1410   -0.2010    0.3250 N   0  0  0  0  0  0  0  0  0  0  0  0
    3.7460   -0.3550    0.1710 C   0  0  0  0  0  0  0  0  0  0  0  0
    3.1750   -1.5920   -0.1070 C   0  0  0  0  0  0  0  0  0  0  0  0
    1.8140   -1.7440   -0.2570 C   0  0  0  0  0  0  0  0  0  0  0  0
    0.9590   -0.6770   -0.1380 C   0  0  0  0  0  0  0  0  0  0  0  0
   -0.3850   -0.8120   -0.2840 N   0  0  0  0  0  0  0  0  0  0  0  0
   -1.2310    0.2130   -0.1720 C   0  0  0  0  0  0  0  0  0  0  0  0
   -2.6810    0.0620   -0.3300 C   0  0  0  0  0  0  0  0  0  0  0  0
   -3.6200    1.0790   -0.2280 C   0  0  0  0  0  0  0  0  0  0  0  0
   -4.8770    0.5630   -0.4360 C   0  0  0  0  0  0  0  0  0  0  0  0
   -4.7110   -0.7760   -0.6670 C   0  0  0  0  0  0  0  0  0  0  0  0
   -3.3800   -1.0490   -0.5970 N   0  0  0  0  0  0  0  0  0  0  0  0
   -0.7120    1.4620    0.1040 C   0  0  0  0  0  0  0  0  0  0  0  0
    0.6410    1.6480    0.2600 C   0  0  0  0  0  0  0  0  0  0  0  0
    1.4940    0.5760    0.1400 C   0  0  0  0  0  0  0  0  0  0  0  0
    2.8700    0.7040    0.2870 C   0  0  0  0  0  0  0  0  0  0  0  0
  1  2  1  0
  2  3  2  0
  2 16  1  0
  3  4  1  0
  4  5  2  0
  5  6  1  0
  5 15  1  0
  6  7  2  0
  7  8  1  0
  7 13  1  0
  8  9  2  0
  8 12  1  0
  9 10  1  0
 10 11  2  0
 11 12  1  0
 13 14  2  0
 14 15  1  0
 15 16  2  0
M  END
