
     RDKit          3D

 23 26  0  0  0  0  0  0  0  0999 V2000
   -2.9230    1.1470    2.4290 C   0  0  0  0  0  0  0  0  0  0  0  0
   -2.7970    1.5210    0.9670 C   0  0  1  0  0  0  0  0  0  0  0  0
   -1.4010    1.8920    0.7030 C   0  0  0  0  0  0  0  0  0  0  0  0
   -0.9430    2.8660    1.3790 O   0  0  0  0  0  0  0  0  0  0  0  0
   -0.5540    1.2550   -0.2310 N   0  0  0  0  0  0  0  0  0  0  0  0
   -0.9980    0.2660   -0.9200 C   0  0  0  0  0  0  0  0  0  0  0  0
   -0.1140   -0.3400   -1.8400 N   0  0  0  0  0  0  0  0  0  0  0  0
    1.2820   -0.5000   -1.6430 C   0  0  0  0  0  0  0  0  0  0  0  0
    2.0090   -1.0170   -2.7130 C   0  0  0  0  0  0  0  0  0  0  0  0
    3.3580   -1.2280   -2.6540 C   0  0  0  0  0  0  0  0  0  0  0  0
    4.0010   -0.9110   -1.4870 C   0  0  0  0  0  0  0  0  0  0  0  0
    3.3300   -0.3980   -0.4020 C   0  0  0  0  0  0  0  0  0  0  0  0
    4.0330   -0.0650    0.8370 C   0  0  0  0  0  0  0  0  0  0  0  0
    5.3500   -0.2170    1.0420 N   0  0  0  0  0  0  0  0  0  0  0  0
    5.6580    0.1760    2.2600 N   0  0  0  0  0  0  0  0  0  0  0  0
    4.5440    0.5890    2.8630 C   0  0  0  0  0  0  0  0  0  0  0  0
    3.5310    0.4370    1.9740 N   0  0  0  0  0  0  0  0  0  0  0  0
    1.9510   -0.1990   -0.5060 C   0  0  0  0  0  0  0  0  0  0  0  0
   -2.3810   -0.2430   -0.7810 C   0  0  0  0  0  0  0  0  0  0  0  0
   -3.0330   -1.2280   -1.3790 C   0  0  0  0  0  0  0  0  0  0  0  0
   -4.4200   -1.3250   -0.8700 C   0  0  0  0  0  0  0  0  0  0  0  0
   -4.4670   -0.2270    0.1250 C   0  0  0  0  0  0  0  0  0  0  0  0
   -3.2840    0.3890    0.1680 C   0  0  0  0  0  0  0  0  0  0  0  0
  2  1  1  1
  2  3  1  0
  2 23  1  0
  3  4  2  0
  3  5  1  0
  5  6  2  0
  6  7  1  0
  6 19  1  0
  7  8  1  0
  8  9  2  0
  8 18  1  0
  9 10  1  0
 10 11  2  0
 11 12  1  0
 12 13  1  0
 12 18  2  0
 13 14  2  0
 13 17  1  0
 14 15  1  0
 15 16  2  0
 16 17  1  0
 19 20  2  0
 19 23  1  0
 20 21  1  0
 21 22  1  0
 22 23  2  0
M  END
