
     RDKit          3D

 36 38  0  0  0  0  0  0  0  0999 V2000
   -1.7830    6.8910   -2.0210 N   0  0  0  0  0  0  0  0  0  0  0  0
   -2.2840    5.9910   -0.9980 C   0  0  0  0  0  0  0  0  0  0  0  0
   -1.2300    4.8950   -0.8320 C   0  0  0  0  0  0  0  0  0  0  0  0
   -1.6940    3.9130    0.2300 C   0  0  0  0  0  0  0  0  0  0  0  0
   -0.6640    2.8250    0.4350 C   0  0  0  0  0  0  0  0  0  0  0  0
   -0.3980    2.0270   -0.7920 C   0  0  2  0  0  0  0  0  0  0  0  0
   -1.4290    1.3290   -1.4110 N   0  0  0  0  0  0  0  0  0  0  0  0
   -2.4480    0.6570   -0.6180 C   0  0  1  0  0  0  0  0  0  0  0  0
   -2.9450   -0.5070   -1.4480 C   0  0  0  0  0  0  0  0  0  0  0  0
   -3.9720   -1.3920   -0.9760 C   0  0  0  0  0  0  0  0  0  0  0  0
   -3.8700   -2.2290    0.1870 C   0  0  0  0  0  0  0  0  0  0  0  0
   -4.4540   -1.9000    1.3780 C   0  0  0  0  0  0  0  0  0  0  0  0
   -4.3690   -2.6800    2.5130 C   0  0  0  0  0  0  0  0  0  0  0  0
   -3.6670   -3.8630    2.4880 C   0  0  0  0  0  0  0  0  0  0  0  0
   -3.0650   -4.2330    1.3200 C   0  0  0  0  0  0  0  0  0  0  0  0
   -3.1600   -3.4470    0.2020 C   0  0  0  0  0  0  0  0  0  0  0  0
   -2.0410    0.2380    0.7110 C   0  0  0  0  0  0  0  0  0  0  0  0
   -1.0330   -0.4220    0.9960 O   0  0  0  0  0  0  0  0  0  0  0  0
   -2.8380    0.5970    1.8370 O   0  0  0  0  0  0  0  0  0  0  0  0
    0.8520    1.2290   -0.6030 C   0  0  0  0  0  0  0  0  0  0  0  0
    1.8110    1.6980    0.1000 O   0  0  0  0  0  0  0  0  0  0  0  0
    1.0530   -0.0430   -1.1650 N   0  0  0  0  0  0  0  0  0  0  0  0
    2.3020   -0.7610   -0.9400 C   0  0  1  0  0  0  0  0  0  0  0  0
    2.0740   -2.0350   -0.1770 C   0  0  0  0  0  0  0  0  0  0  0  0
    3.3730   -2.7170    0.0220 C   0  0  0  0  0  0  0  0  0  0  0  0
    3.8330   -3.8560   -0.6410 C   0  0  0  0  0  0  0  0  0  0  0  0
    5.0500   -4.1830   -0.1840 N   0  0  0  0  0  0  0  0  0  0  0  0
    5.4020   -3.2920    0.7600 C   0  0  0  0  0  0  0  0  0  0  0  0
    6.5440   -3.1850    1.5300 C   0  0  0  0  0  0  0  0  0  0  0  0
    6.6900   -2.1630    2.4580 C   0  0  0  0  0  0  0  0  0  0  0  0
    5.6620   -1.2520    2.5940 C   0  0  0  0  0  0  0  0  0  0  0  0
    4.5050   -1.3540    1.8190 C   0  0  0  0  0  0  0  0  0  0  0  0
    4.3910   -2.3670    0.9170 C   0  0  0  0  0  0  0  0  0  0  0  0
    2.8750   -1.0800   -2.2560 C   0  0  0  0  0  0  0  0  0  0  0  0
    2.2780   -0.7570   -3.3030 O   0  0  0  0  0  0  0  0  0  0  0  0
    4.0800   -1.7380   -2.3370 O   0  0  0  0  0  0  0  0  0  0  0  0
  1  2  1  0
  2  3  1  0
  3  4  1  0
  4  5  1  0
  6  5  1  1
  6  7  1  0
  6 20  1  0
  7  8  1  0
  8  9  1  6
  8 17  1  0
  9 10  1  0
 10 11  1  0
 11 12  2  0
 11 16  1  0
 12 13  1  0
 13 14  2  0
 14 15  1  0
 15 16  2  0
 17 18  2  0
 17 19  1  0
 20 21  2  0
 20 22  1  0
 22 23  1  0
 23 24  1  6
 23 34  1  0
 24 25  1  0
 25 26  2  0
 25 33  1  0
 26 27  1  0
 27 28  1  0
 28 29  2  0
 28 33  1  0
 29 30  1  0
 30 31  2  0
 31 32  1  0
 32 33  2  0
 34 35  2  0
 34 36  1  0
M  CHG  2   1   1   7   1
M  END
