
     RDKit          3D

 37 41  0  0  0  0  0  0  0  0999 V2000
    1.1330    2.1890   -3.7470 N   0  0  0  0  0  0  0  0  0  0  0  0
    2.0260    1.8050   -3.0970 C   0  0  0  0  0  0  0  0  0  0  0  0
    3.1050    1.3260   -2.2820 C   0  0  0  0  0  0  0  0  0  0  0  0
    4.3530    1.1600   -2.6400 N   0  0  0  0  0  0  0  0  0  0  0  0
    5.0500    0.6920   -1.6220 C   0  0  0  0  0  0  0  0  0  0  0  0
    6.2820    0.2580   -1.1270 C   0  0  0  0  0  0  0  0  0  0  0  0
    6.1880   -0.1210    0.1370 C   0  0  0  0  0  0  0  0  0  0  0  0
    7.2890   -0.6290    1.0460 C   0  0  1  0  0  0  0  0  0  0  0  0
    7.0050   -0.1410    2.3280 F   0  0  0  0  0  0  0  0  0  0  0  0
    7.3340   -2.0020    1.0170 F   0  0  0  0  0  0  0  0  0  0  0  0
    8.4960   -0.0630    0.7030 F   0  0  0  0  0  0  0  0  0  0  0  0
    4.8840    0.0390    0.5390 N   0  0  0  0  0  0  0  0  0  0  0  0
    4.1760    0.5410   -0.5290 C   0  0  0  0  0  0  0  0  0  0  0  0
    2.9310    0.9310   -0.9070 C   0  0  0  0  0  0  0  0  0  0  0  0
    1.6960    0.9530   -0.2370 N   0  0  0  0  0  0  0  0  0  0  0  0
    1.3410    0.7930    1.0180 C   0  0  0  0  0  0  0  0  0  0  0  0
    2.2640    0.6970    1.9490 O   0  0  0  0  0  0  0  0  0  0  0  0
   -0.0250    0.6720    1.6590 C   0  0  0  0  0  0  0  0  0  0  0  0
   -1.1000    0.6350    0.7320 N   0  0  0  0  0  0  0  0  0  0  0  0
   -1.7230    1.7780    0.1730 C   0  0  0  0  0  0  0  0  0  0  0  0
   -1.7480    3.0370    0.7730 C   0  0  0  0  0  0  0  0  0  0  0  0
   -2.3890    4.0520    0.1720 C   0  0  0  0  0  0  0  0  0  0  0  0
   -3.0460    3.9200   -1.0440 C   0  0  0  0  0  0  0  0  0  0  0  0
   -3.0450    2.6690   -1.6820 C   0  0  0  0  0  0  0  0  0  0  0  0
   -2.3600    1.6530   -1.0030 C   0  0  0  0  0  0  0  0  0  0  0  0
   -1.7040   -0.6280    0.3310 C   0  0  0  0  0  0  0  0  0  0  0  0
   -2.7770   -1.1080    1.0640 C   0  0  0  0  0  0  0  0  0  0  0  0
   -3.1550   -0.3550    2.2320 N   0  0  0  0  0  0  0  0  0  0  0  0
   -3.4430   -2.2470    0.6910 C   0  0  0  0  0  0  0  0  0  0  0  0
   -4.5170   -2.6910    1.4160 C   0  0  0  0  0  0  0  0  0  0  0  0
   -5.2270   -3.8400    1.0430 C   0  0  0  0  0  0  0  0  0  0  0  0
   -4.8230   -4.5530   -0.0990 C   0  0  0  0  0  0  0  0  0  0  0  0
   -3.7510   -4.0900   -0.7980 C   0  0  0  0  0  0  0  0  0  0  0  0
   -3.0480   -2.9640   -0.4480 C   0  0  0  0  0  0  0  0  0  0  0  0
   -2.0150   -2.5070   -1.1500 N   0  0  0  0  0  0  0  0  0  0  0  0
   -1.3420   -1.3510   -0.7780 C   0  0  0  0  0  0  0  0  0  0  0  0
   -0.3780   -0.9870   -1.4910 O   0  0  0  0  0  0  0  0  0  0  0  0
  1  2  3  0
  2  3  1  0
  3  4  1  0
  3 14  2  0
  4  5  1  0
  5  6  1  0
  5 13  2  0
  6  7  2  0
  7  8  1  0
  7 12  1  0
  8  9  1  1
  8 10  1  0
  8 11  1  0
 12 13  1  0
 13 14  1  0
 14 15  1  0
 15 16  1  0
 16 17  2  0
 16 18  1  0
 18 19  1  0
 19 20  1  0
 19 26  1  0
 20 21  2  0
 20 25  1  0
 21 22  1  0
 22 23  2  0
 23 24  1  0
 24 25  2  0
 26 27  2  0
 26 36  1  0
 27 28  1  0
 27 29  1  0
 29 30  2  0
 29 34  1  0
 30 31  1  0
 31 32  2  0
 32 33  1  0
 33 34  2  0
 34 35  1  0
 35 36  1  0
 36 37  2  0
M  END
