
     RDKit          3D

 37 41  0  0  0  0  0  0  0  0999 V2000
    9.1370    1.5870    1.7590 N   0  0  0  0  0  0  0  0  0  0  0  0
    9.7600    0.7900    0.9780 C   0  0  0  0  0  0  0  0  0  0  0  0
   11.1340    0.6840    1.0410 F   0  0  0  0  0  0  0  0  0  0  0  0
    9.0480   -0.0120    0.0170 C   0  0  0  0  0  0  0  0  0  0  0  0
    7.6670    0.0290   -0.1200 C   0  0  0  0  0  0  0  0  0  0  0  0
    6.9900   -0.7360   -1.0350 C   0  0  0  0  0  0  0  0  0  0  0  0
    5.6130   -0.8050   -1.2490 N   0  0  0  0  0  0  0  0  0  0  0  0
    4.5810   -0.3840   -0.3240 C   0  0  0  0  0  0  0  0  0  0  0  0
    5.0310    0.0660    0.7480 O   0  0  0  0  0  0  0  0  0  0  0  0
    3.1840   -0.5130   -0.6950 C   0  0  0  0  0  0  0  0  0  0  0  0
    2.1500   -0.1110    0.2380 C   0  0  0  0  0  0  0  0  0  0  0  0
    2.3740    0.3680    1.4260 C   0  0  0  0  0  0  0  0  0  0  0  0
    1.2490    0.7370    2.2750 N   0  0  0  0  0  0  0  0  0  0  0  0
   -0.0840    0.5800    1.8160 C   0  0  0  0  0  0  0  0  0  0  0  0
   -1.1480    0.8900    2.5230 C   0  0  0  0  0  0  0  0  0  0  0  0
   -2.5030    0.6920    1.9620 C   0  0  0  0  0  0  0  0  0  0  0  0
   -2.7160    0.2050    0.7530 C   0  0  0  0  0  0  0  0  0  0  0  0
   -4.0810    0.0100    0.2000 C   0  0  0  0  0  0  0  0  0  0  0  0
   -4.2880   -0.4970   -1.0570 C   0  0  0  0  0  0  0  0  0  0  0  0
   -5.5900   -0.6590   -1.5260 C   0  0  0  0  0  0  0  0  0  0  0  0
   -6.6950   -0.3300   -0.7760 C   0  0  0  0  0  0  0  0  0  0  0  0
   -6.4710    0.1760    0.4790 C   0  0  0  0  0  0  0  0  0  0  0  0
   -5.1680    0.3440    0.9630 C   0  0  0  0  0  0  0  0  0  0  0  0
   -7.4630    0.5780    1.4140 N   0  0  0  0  0  0  0  0  0  0  0  0
   -8.8600    0.7600    1.1800 C   0  0  0  0  0  0  0  0  0  0  0  0
   -9.6020    0.8740    2.1880 O   0  0  0  0  0  0  0  0  0  0  0  0
   -9.4680    0.8210   -0.1040 N   0  0  0  0  0  0  0  0  0  0  0  0
   -8.8630    0.6660   -1.4100 C   0  0  0  0  0  0  0  0  0  0  0  0
   -7.9910   -0.5830   -1.4660 C   0  0  0  0  0  0  0  0  0  0  0  0
   -1.5830   -0.1370   -0.0280 N   0  0  0  0  0  0  0  0  0  0  0  0
   -0.2380    0.0380    0.4750 C   0  0  0  0  0  0  0  0  0  0  0  0
    0.7750   -0.2620   -0.2070 N   0  0  0  0  0  0  0  0  0  0  0  0
    7.8000   -1.5680   -1.8300 C   0  0  0  0  0  0  0  0  0  0  0  0
    9.1580   -1.6330   -1.7230 C   0  0  0  0  0  0  0  0  0  0  0  0
    9.9150   -2.4610   -2.5190 F   0  0  0  0  0  0  0  0  0  0  0  0
    9.7980   -0.8550   -0.7970 C   0  0  0  0  0  0  0  0  0  0  0  0
   11.1530   -0.9330   -0.7040 F   0  0  0  0  0  0  0  0  0  0  0  0
  1  2  2  0
  2  3  1  0
  2  4  1  0
  4  5  2  0
  4 36  1  0
  5  6  1  0
  6  7  1  0
  6 33  2  0
  7  8  1  0
  8  9  2  0
  8 10  1  0
 10 11  1  0
 11 12  2  0
 11 32  1  0
 12 13  1  0
 13 14  1  0
 14 15  2  0
 14 31  1  0
 15 16  1  0
 16 17  2  0
 17 18  1  0
 17 30  1  0
 18 19  2  0
 18 23  1  0
 19 20  1  0
 20 21  2  0
 21 22  1  0
 21 29  1  0
 22 23  2  0
 22 24  1  0
 24 25  1  0
 25 26  2  0
 25 27  1  0
 27 28  1  0
 28 29  1  0
 30 31  1  0
 31 32  2  0
 33 34  1  0
 34 35  1  0
 34 36  2  0
 36 37  1  0
M  END
