
     RDKit          3D

 36 38  0  0  0  0  0  0  0  0999 V2000
   -5.5400    6.4160    0.7170 C   0  0  0  0  0  0  0  0  0  0  0  0
   -4.2450    6.1980    0.8000 C   0  0  0  0  0  0  0  0  0  0  0  0
   -3.5780    5.2010   -0.0820 C   0  0  0  0  0  0  0  0  0  0  0  0
   -2.9900    4.2320    0.7280 O   0  0  0  0  0  0  0  0  0  0  0  0
   -2.2790    3.1400    0.2360 C   0  0  0  0  0  0  0  0  0  0  0  0
   -2.1140    2.9550   -1.1230 C   0  0  0  0  0  0  0  0  0  0  0  0
   -1.4060    1.8630   -1.5690 C   0  0  0  0  0  0  0  0  0  0  0  0
   -0.8310    0.9110   -0.7340 C   0  0  0  0  0  0  0  0  0  0  0  0
   -0.0750   -0.2320   -1.3110 C   0  0  1  0  0  0  0  0  0  0  0  0
    1.0790   -0.6210   -0.5640 N   0  0  0  0  0  0  0  0  0  0  0  0
    1.9920    0.5310   -0.5200 C   0  0  2  0  0  0  0  0  0  0  0  0
    2.4330    0.8700   -1.9310 C   0  0  0  0  0  0  0  0  0  0  0  0
    3.1920    0.2650    0.2830 C   0  0  0  0  0  0  0  0  0  0  0  0
    3.6270    1.1830    1.1600 N   0  0  0  0  0  0  0  0  0  0  0  0
    4.7210    0.9930    1.9240 C   0  0  0  0  0  0  0  0  0  0  0  0
    5.1200    1.8760    2.7530 O   0  0  0  0  0  0  0  0  0  0  0  0
    5.4380   -0.1800    1.8180 C   0  0  0  0  0  0  0  0  0  0  0  0
    6.6490   -0.4090    2.6520 C   0  0  0  0  0  0  0  0  0  0  0  0
    7.8470    0.3600    2.1510 C   0  0  0  0  0  0  0  0  0  0  0  0
    4.9890   -1.1200    0.9160 C   0  0  0  0  0  0  0  0  0  0  0  0
    5.8600   -2.6190    0.7460 Cl  0  0  0  0  0  0  0  0  0  0  0  0
    3.8790   -0.8680    0.1760 N   0  0  0  0  0  0  0  0  0  0  0  0
   -0.9390   -1.3570   -1.7550 C   0  0  0  0  0  0  0  0  0  0  0  0
   -1.1550   -1.5820   -3.1260 C   0  0  0  0  0  0  0  0  0  0  0  0
   -1.9470   -2.5920   -3.6080 C   0  0  0  0  0  0  0  0  0  0  0  0
   -2.1500   -2.7950   -5.0520 C   0  0  0  0  0  0  0  0  0  0  0  0
   -2.5690   -3.4380   -2.7210 C   0  0  0  0  0  0  0  0  0  0  0  0
   -2.3530   -3.2140   -1.3810 C   0  0  0  0  0  0  0  0  0  0  0  0
   -1.5710   -2.2180   -0.8620 C   0  0  0  0  0  0  0  0  0  0  0  0
   -1.3620   -2.0040    0.4660 O   0  0  0  0  0  0  0  0  0  0  0  0
   -1.8590   -2.6690    1.5750 C   0  0  2  0  0  0  0  0  0  0  0  0
   -3.3520   -2.6440    1.7260 C   0  0  0  0  0  0  0  0  0  0  0  0
   -1.2860   -1.9510    2.8010 C   0  0  0  0  0  0  0  0  0  0  0  0
   -1.3500   -4.1030    1.6640 C   0  0  0  0  0  0  0  0  0  0  0  0
   -1.0100    1.1190    0.6160 C   0  0  0  0  0  0  0  0  0  0  0  0
   -1.7150    2.2040    1.0910 C   0  0  0  0  0  0  0  0  0  0  0  0
  1  2  2  0
  2  3  1  0
  3  4  1  0
  4  5  1  0
  5  6  2  0
  5 36  1  0
  6  7  1  0
  7  8  2  0
  8  9  1  0
  8 35  1  0
  9 10  1  1
  9 23  1  0
 10 11  1  0
 11 12  1  6
 11 13  1  0
 13 14  2  0
 13 22  1  0
 14 15  1  0
 15 16  2  0
 15 17  1  0
 17 18  1  0
 17 20  2  0
 18 19  1  0
 20 21  1  0
 20 22  1  0
 23 24  2  0
 23 29  1  0
 24 25  1  0
 25 26  1  0
 25 27  2  0
 27 28  1  0
 28 29  2  0
 29 30  1  0
 30 31  1  0
 31 32  1  1
 31 33  1  0
 31 34  1  0
 35 36  2  0
M  END
