
     RDKit          3D

 37 39  0  0  0  0  0  0  0  0999 V2000
   -3.5400   -4.8960    0.9390 C   0  0  0  0  0  0  0  0  0  0  0  0
   -4.5260   -3.8040    0.6810 C   0  0  0  0  0  0  0  0  0  0  0  0
   -3.8440   -2.4140    0.7800 C   0  0  0  0  0  0  0  0  0  0  0  0
   -4.8070   -1.3490    0.5260 C   0  0  0  0  0  0  0  0  0  0  0  0
   -6.0270   -1.7760    0.3230 O   0  0  0  0  0  0  0  0  0  0  0  0
   -4.6140    0.0430    0.4690 C   0  0  0  0  0  0  0  0  0  0  0  0
   -3.5270    0.7430    0.6360 C   0  0  0  0  0  0  0  0  0  0  0  0
   -2.1810    0.3670    0.9290 C   0  0  0  0  0  0  0  0  0  0  0  0
   -1.0950    1.0560    1.1050 C   0  0  0  0  0  0  0  0  0  0  0  0
    0.0920    0.2110    1.3910 N   0  0  0  0  0  0  0  0  0  0  0  0
    1.2170    0.2160    0.5650 C   0  0  0  0  0  0  0  0  0  0  0  0
    1.2350    0.9520   -0.4530 O   0  0  0  0  0  0  0  0  0  0  0  0
    2.3850   -0.6420    0.8850 C   0  0  0  0  0  0  0  0  0  0  0  0
    3.4690   -0.5580   -0.0160 N   0  0  0  0  0  0  0  0  0  0  0  0
    3.2810   -1.0620   -1.3290 C   0  0  0  0  0  0  0  0  0  0  0  0
    4.4430   -1.9040   -1.8090 C   0  0  0  0  0  0  0  0  0  0  0  0
    5.5990   -1.8680   -0.8320 C   0  0  0  0  0  0  0  0  0  0  0  0
    6.1030   -0.5420   -0.5860 N   0  0  0  0  0  0  0  0  0  0  0  0
    7.5120   -0.5310   -0.2730 C   0  0  0  0  0  0  0  0  0  0  0  0
    8.2910    0.5980   -0.4030 C   0  0  0  0  0  0  0  0  0  0  0  0
    9.6500    0.5840   -0.0760 C   0  0  0  0  0  0  0  0  0  0  0  0
   10.2460   -0.5700    0.3890 C   0  0  0  0  0  0  0  0  0  0  0  0
    9.4750   -1.6850    0.5180 C   0  0  0  0  0  0  0  0  0  0  0  0
    8.1300   -1.6770    0.1960 C   0  0  0  0  0  0  0  0  0  0  0  0
    5.4620    0.7550   -0.5870 C   0  0  0  0  0  0  0  0  0  0  0  0
    4.0890    0.7360    0.0540 C   0  0  0  0  0  0  0  0  0  0  0  0
   -0.9010    2.4860    1.1040 C   0  0  0  0  0  0  0  0  0  0  0  0
   -1.6920    3.5740    1.0240 C   0  0  0  0  0  0  0  0  0  0  0  0
   -0.9070    4.7380    1.0710 C   0  0  0  0  0  0  0  0  0  0  0  0
    0.3680    4.2690    1.1830 C   0  0  0  0  0  0  0  0  0  0  0  0
    0.3580    2.9820    1.2000 O   0  0  0  0  0  0  0  0  0  0  0  0
   -5.8640    0.9010    0.1820 C   0  0  0  0  0  0  0  0  0  0  0  0
   -6.4470    0.6110   -1.1530 C   0  0  0  0  0  0  0  0  0  0  0  0
   -7.6580    1.5160   -1.3250 C   0  0  1  0  0  0  0  0  0  0  0  0
   -7.2620    2.9610   -1.2450 C   0  0  0  0  0  0  0  0  0  0  0  0
   -8.2870    1.2810   -2.6820 C   0  0  0  0  0  0  0  0  0  0  0  0
   -8.8530    1.0860   -0.0830 Cl  0  0  0  0  0  0  0  0  0  0  0  0
  1  2  1  0
  2  3  1  0
  3  4  1  0
  4  5  2  0
  4  6  1  0
  6  7  2  3
  6 32  1  0
  7  8  1  0
  8  9  2  3
  9 10  1  0
  9 27  1  0
 10 11  1  0
 11 12  2  0
 11 13  1  0
 13 14  1  0
 14 15  1  0
 14 26  1  0
 15 16  1  0
 16 17  1  0
 17 18  1  0
 18 19  1  0
 18 25  1  0
 19 20  2  0
 19 24  1  0
 20 21  1  0
 21 22  2  0
 22 23  1  0
 23 24  2  0
 25 26  1  0
 27 28  2  0
 27 31  1  0
 28 29  1  0
 29 30  2  0
 30 31  1  0
 32 33  1  0
 33 34  1  0
 34 35  1  6
 34 36  1  0
 34 37  1  0
M  END
