
     RDKit          3D

 20 21  0  0  0  0  0  0  0  0999 V2000
   -3.6350    1.9960   -0.5970 C   0  0  0  0  0  0  0  0  0  0  0  0
   -4.1740    0.6530   -0.2890 C   0  0  0  0  0  0  0  0  0  0  0  0
   -3.3450   -0.3890   -0.1920 C   0  0  0  0  0  0  0  0  0  0  0  0
   -1.8960   -0.1710   -0.3980 C   0  0  0  0  0  0  0  0  0  0  0  0
   -1.1700   -0.5110    0.7790 N   0  0  0  0  0  0  0  0  0  0  0  0
    0.2750   -0.4390    0.8380 C   0  0  0  0  0  0  0  0  0  0  0  0
    0.9480   -0.7750    1.9920 C   0  0  0  0  0  0  0  0  0  0  0  0
    2.3260   -0.7090    2.0570 C   0  0  0  0  0  0  0  0  0  0  0  0
    3.0840   -0.3040    0.9730 C   0  0  0  0  0  0  0  0  0  0  0  0
    2.4030    0.0320   -0.1790 C   0  0  0  0  0  0  0  0  0  0  0  0
    1.0220   -0.0340   -0.2460 C   0  0  0  0  0  0  0  0  0  0  0  0
    3.1890    0.4510   -1.2990 N   0  0  0  0  0  0  0  0  0  0  0  0
    4.5940    0.5280   -1.2600 C   0  0  0  0  0  0  0  0  0  0  0  0
    5.3330    0.6660   -2.2680 O   0  0  0  0  0  0  0  0  0  0  0  0
    5.2570    0.4390    0.0670 C   0  0  0  0  0  0  0  0  0  0  0  0
    4.4650   -0.2290    1.0130 O   0  0  0  0  0  0  0  0  0  0  0  0
   -3.9080   -1.7590    0.1000 C   0  0  2  0  0  0  0  0  0  0  0  0
   -3.3880   -2.1990    1.2740 F   0  0  0  0  0  0  0  0  0  0  0  0
   -3.4720   -2.5970   -0.9150 F   0  0  0  0  0  0  0  0  0  0  0  0
   -5.2870   -1.6800    0.1060 F   0  0  0  0  0  0  0  0  0  0  0  0
  1  2  1  0
  2  3  2  3
  3  4  1  0
  3 17  1  0
  4  5  1  0
  5  6  1  0
  6  7  2  0
  6 11  1  0
  7  8  1  0
  8  9  2  0
  9 10  1  0
  9 16  1  0
 10 11  2  0
 10 12  1  0
 12 13  1  0
 13 14  2  0
 13 15  1  0
 15 16  1  0
 17 18  1  1
 17 19  1  0
 17 20  1  0
M  END
