
     RDKit          3D

 20 21  0  0  0  0  0  0  0  0999 V2000
   -1.1410    1.3270   -2.5870 C   0  0  0  0  0  0  0  0  0  0  0  0
   -1.3420    0.4690   -1.3990 C   0  0  0  0  0  0  0  0  0  0  0  0
   -0.4030   -0.2200   -0.6840 C   0  0  0  0  0  0  0  0  0  0  0  0
    1.0290   -0.2700   -0.9260 C   0  0  0  0  0  0  0  0  0  0  0  0
    1.5940    0.3160   -1.8820 O   0  0  0  0  0  0  0  0  0  0  0  0
    1.8510   -1.0310   -0.0250 N   0  0  0  0  0  0  0  0  0  0  0  0
    3.2680   -1.1360   -0.1870 C   0  0  0  0  0  0  0  0  0  0  0  0
    3.9940    0.1640   -0.1350 C   0  0  0  0  0  0  0  0  0  0  0  0
    5.4150    0.0880   -0.2930 N   0  0  0  0  0  0  0  0  0  0  0  0
    6.1380   -0.5140    0.7840 C   0  0  1  0  0  0  0  0  0  0  0  0
    7.5060   -0.4650    0.4740 F   0  0  0  0  0  0  0  0  0  0  0  0
    5.9480    0.2660    1.9300 F   0  0  0  0  0  0  0  0  0  0  0  0
    5.8460   -1.8130    1.0540 F   0  0  0  0  0  0  0  0  0  0  0  0
   -1.0340   -0.8370    0.2750 O   0  0  0  0  0  0  0  0  0  0  0  0
   -2.3160   -0.6210    0.2620 C   0  0  0  0  0  0  0  0  0  0  0  0
   -2.5720    0.2150   -0.7960 C   0  0  0  0  0  0  0  0  0  0  0  0
   -3.9380    0.6780   -1.1110 C   0  0  0  0  0  0  0  0  0  0  0  0
   -4.8510    0.7770    0.0580 C   0  0  0  0  0  0  0  0  0  0  0  0
   -4.4080    0.1070    1.3090 C   0  0  0  0  0  0  0  0  0  0  0  0
   -3.4670   -1.0580    1.0910 C   0  0  0  0  0  0  0  0  0  0  0  0
  1  2  1  0
  2  3  2  0
  2 16  1  0
  3  4  1  0
  3 14  1  0
  4  5  2  0
  4  6  1  0
  6  7  1  0
  7  8  1  0
  8  9  1  0
  9 10  1  0
 10 11  1  6
 10 12  1  0
 10 13  1  0
 14 15  1  0
 15 16  2  0
 15 20  1  0
 16 17  1  0
 17 18  1  0
 18 19  1  0
 19 20  1  0
M  END
