
     RDKit          3D

 20 21  0  0  0  0  0  0  0  0999 V2000
   -3.4530   -1.1030   -1.9900 C   0  0  0  0  0  0  0  0  0  0  0  0
   -2.6440   -0.3480   -0.9980 C   0  0  0  0  0  0  0  0  0  0  0  0
   -3.1780    0.5780   -0.1380 C   0  0  0  0  0  0  0  0  0  0  0  0
   -2.3990    1.3210    0.7610 C   0  0  0  0  0  0  0  0  0  0  0  0
   -3.0160    2.2780    1.7070 C   0  0  2  0  0  0  0  0  0  0  0  0
   -3.5010    1.5350    2.7760 F   0  0  0  0  0  0  0  0  0  0  0  0
   -4.1320    2.8050    1.0410 F   0  0  0  0  0  0  0  0  0  0  0  0
   -2.2110    3.2960    2.0970 F   0  0  0  0  0  0  0  0  0  0  0  0
   -1.0460    1.0750    0.7470 C   0  0  0  0  0  0  0  0  0  0  0  0
   -0.4840    0.1330   -0.1160 C   0  0  0  0  0  0  0  0  0  0  0  0
    0.9600   -0.1080   -0.1040 C   0  0  0  0  0  0  0  0  0  0  0  0
    1.5460   -0.9250   -0.7540 O   0  0  0  0  0  0  0  0  0  0  0  0
    1.7370    0.7260    0.7680 O   0  0  0  0  0  0  0  0  0  0  0  0
    3.1160    0.5100    0.7580 C   0  0  0  0  0  0  0  0  0  0  0  0
    3.9770    0.2020    1.6900 C   0  0  0  0  0  0  0  0  0  0  0  0
    5.3520    0.0980    1.0690 C   0  0  0  0  0  0  0  0  0  0  0  0
    5.1050    0.3870   -0.3250 N   0  0  0  0  0  0  0  0  0  0  0  0
    3.8680    0.6170   -0.5030 C   0  0  0  0  0  0  0  0  0  0  0  0
   -1.2880   -0.5780   -0.9880 C   0  0  0  0  0  0  0  0  0  0  0  0
   -0.6690   -1.5270   -1.8530 N   0  0  0  0  0  0  0  0  0  0  0  0
  1  2  1  0
  2  3  2  0
  2 19  1  0
  3  4  1  0
  4  5  1  0
  4  9  2  0
  5  6  1  1
  5  7  1  0
  5  8  1  0
  9 10  1  0
 10 11  1  0
 10 19  2  0
 11 12  2  0
 11 13  1  0
 13 14  1  0
 14 15  2  0
 14 18  1  0
 15 16  1  0
 16 17  1  0
 17 18  2  0
 19 20  1  0
M  END
