
     RDKit          3D

 20 20  0  0  0  0  0  0  0  0999 V2000
   -1.9320   -2.3570    0.6070 C   0  0  0  0  0  0  0  0  0  0  0  0
   -3.0910   -1.5450    0.1860 C   0  0  0  0  0  0  0  0  0  0  0  0
   -3.0850   -0.3460   -0.2990 C   0  0  0  0  0  0  0  0  0  0  0  0
   -4.3460    0.3270   -0.6820 C   0  0  0  0  0  0  0  0  0  0  0  0
   -4.0830    1.8130   -0.7050 C   0  0  0  0  0  0  0  0  0  0  0  0
   -3.1800    2.3430    0.3440 C   0  0  0  0  0  0  0  0  0  0  0  0
   -1.9290    1.5170    0.6300 C   0  0  0  0  0  0  0  0  0  0  0  0
   -1.8660    0.4810   -0.5040 C   0  0  1  0  0  0  0  0  0  0  0  0
   -0.7140   -0.2240   -0.6770 N   0  0  0  0  0  0  0  0  0  0  0  0
    0.6400    0.1440   -0.2240 C   0  0  0  0  0  0  0  0  0  0  0  0
    0.8110    1.1180    0.3910 O   0  0  0  0  0  0  0  0  0  0  0  0
    1.5310   -0.9050   -0.6940 N   0  0  0  0  0  0  0  0  0  0  0  0
    3.0000   -0.1560   -0.0970 C   0  0  0  0  0  0  0  0  0  0  0  0
    2.8350    0.8180    0.4620 O   0  0  0  0  0  0  0  0  0  0  0  0
    4.1180   -0.9930   -0.4750 C   0  0  0  0  0  0  0  0  0  0  0  0
    5.4520   -0.4060   -0.1660 C   0  0  0  0  0  0  0  0  0  0  0  0
    5.7630   -0.1200    1.2580 C   0  0  1  0  0  0  0  0  0  0  0  0
    5.7130   -1.2730    2.0410 F   0  0  0  0  0  0  0  0  0  0  0  0
    7.1020    0.3160    1.2810 F   0  0  0  0  0  0  0  0  0  0  0  0
    5.0440    0.9100    1.7990 F   0  0  0  0  0  0  0  0  0  0  0  0
  1  2  1  0
  2  3  2  3
  3  4  1  0
  3  8  1  0
  4  5  1  0
  5  6  1  0
  6  7  1  0
  7  8  1  0
  8  9  1  1
  9 10  1  0
 10 11  2  0
 10 12  1  0
 12 13  1  0
 13 14  2  0
 13 15  1  0
 15 16  1  0
 16 17  1  0
 17 18  1  1
 17 19  1  0
 17 20  1  0
M  END
