
     RDKit          3D

 20 21  0  0  0  0  0  0  0  0999 V2000
   -4.7490    1.2360   -0.6790 C   0  0  0  0  0  0  0  0  0  0  0  0
   -3.4110    0.6720   -0.3990 C   0  0  0  0  0  0  0  0  0  0  0  0
   -2.2180    1.1720   -0.7520 N   0  0  0  0  0  0  0  0  0  0  0  0
   -1.2190    0.4050   -0.3350 C   0  0  0  0  0  0  0  0  0  0  0  0
    0.2180    0.6200   -0.5280 C   0  0  0  0  0  0  0  0  0  0  0  0
    0.5910    1.6290   -1.1500 O   0  0  0  0  0  0  0  0  0  0  0  0
    1.1270   -0.3190   -0.0040 N   0  0  0  0  0  0  0  0  0  0  0  0
    2.5130   -0.2750   -0.0920 C   0  0  0  0  0  0  0  0  0  0  0  0
    3.1850    0.7360   -0.7280 C   0  0  0  0  0  0  0  0  0  0  0  0
    4.5800    0.7780   -0.8140 C   0  0  0  0  0  0  0  0  0  0  0  0
    5.2920   -0.2310   -0.2400 C   0  0  0  0  0  0  0  0  0  0  0  0
    6.6480   -0.2610   -0.2820 F   0  0  0  0  0  0  0  0  0  0  0  0
    4.6400   -1.2690    0.4120 C   0  0  0  0  0  0  0  0  0  0  0  0
    3.2720   -1.2910    0.4850 C   0  0  0  0  0  0  0  0  0  0  0  0
    2.6140   -2.3050    1.1230 F   0  0  0  0  0  0  0  0  0  0  0  0
   -1.7730   -0.6520    0.3240 C   0  0  0  0  0  0  0  0  0  0  0  0
   -3.1430   -0.4930    0.2890 C   0  0  0  0  0  0  0  0  0  0  0  0
   -4.1410   -1.3830    0.8670 C   0  0  0  0  0  0  0  0  0  0  0  0
   -5.3690   -1.1550    0.7840 O   0  0  0  0  0  0  0  0  0  0  0  0
   -3.7480   -2.4980    1.5190 F   0  0  0  0  0  0  0  0  0  0  0  0
  1  2  1  0
  2  3  1  0
  2 17  2  0
  3  4  1  0
  4  5  1  0
  4 16  2  0
  5  6  2  0
  5  7  1  0
  7  8  1  0
  8  9  2  0
  8 14  1  0
  9 10  1  0
 10 11  2  0
 11 12  1  0
 11 13  1  0
 13 14  2  0
 14 15  1  0
 16 17  1  0
 17 18  1  0
 18 19  2  0
 18 20  1  0
M  END
