
     RDKit          3D

 20 21  0  0  0  0  0  0  0  0999 V2000
   -0.6040   -0.9610   -0.5960 O   0  0  0  0  0  0  0  0  0  0  0  0
   -0.6540   -0.0760    0.2790 C   0  0  0  0  0  0  0  0  0  0  0  0
    0.5320    0.2350    1.0110 N   0  0  0  0  0  0  0  0  0  0  0  0
    1.8330   -0.0370    1.1940 C   0  0  0  0  0  0  0  0  0  0  0  0
    2.9950   -0.1350    0.3270 C   0  0  0  0  0  0  0  0  0  0  0  0
    3.1610   -1.0850   -0.6580 C   0  0  0  0  0  0  0  0  0  0  0  0
    4.4140   -1.2490   -1.2410 C   0  0  0  0  0  0  0  0  0  0  0  0
    4.5910   -2.2130   -2.1920 F   0  0  0  0  0  0  0  0  0  0  0  0
    5.5250   -0.5270   -0.9060 C   0  0  0  0  0  0  0  0  0  0  0  0
    5.3540    0.4610    0.1190 C   0  0  0  0  0  0  0  0  0  0  0  0
    6.3980    1.1820    0.4740 F   0  0  0  0  0  0  0  0  0  0  0  0
    4.1590    0.6350    0.6920 C   0  0  0  0  0  0  0  0  0  0  0  0
    3.9100    1.6020    1.6520 F   0  0  0  0  0  0  0  0  0  0  0  0
   -1.8770    0.6100    0.5420 N   0  0  0  0  0  0  0  0  0  0  0  0
   -3.1680    0.5150    0.0670 C   0  0  0  0  0  0  0  0  0  0  0  0
   -4.0940    0.2080    1.0260 C   0  0  0  0  0  0  0  0  0  0  0  0
   -5.5570    0.0980    0.7320 C   0  0  0  0  0  0  0  0  0  0  0  0
   -5.7650   -0.1770   -0.6430 O   0  0  0  0  0  0  0  0  0  0  0  0
   -4.8870    0.1280   -1.6580 C   0  0  0  0  0  0  0  0  0  0  0  0
   -3.6030    0.4750   -1.2990 C   0  0  0  0  0  0  0  0  0  0  0  0
  1  2  2  0
  2  3  1  0
  2 14  1  0
  3  4  1  0
  4  5  1  0
  5  6  2  0
  5 12  1  0
  6  7  1  0
  7  8  1  0
  7  9  2  0
  9 10  1  0
 10 11  1  0
 10 12  2  0
 12 13  1  0
 14 15  1  0
 15 16  2  0
 15 20  1  0
 16 17  1  0
 17 18  1  0
 18 19  1  0
 19 20  2  0
M  END
