
     RDKit          3D

 17 17  0  0  0  0  0  0  0  0999 V2000
   -5.3080    0.5990   -1.1200 C   0  0  0  0  0  0  0  0  0  0  0  0
   -4.5920    1.4230   -0.0770 C   0  0  0  0  0  0  0  0  0  0  0  0
   -3.1840    1.0130   -0.0090 N   0  0  0  0  0  0  0  0  0  0  0  0
   -2.9230   -0.3360    0.3290 C   0  0  0  0  0  0  0  0  0  0  0  0
   -3.8860   -1.1130    0.5530 O   0  0  0  0  0  0  0  0  0  0  0  0
   -1.5330   -0.8220    0.4170 C   0  0  0  0  0  0  0  0  0  0  0  0
   -1.3500   -2.1110    0.7420 C   0  0  0  0  0  0  0  0  0  0  0  0
   -0.0240   -2.6860    0.8540 C   0  0  0  0  0  0  0  0  0  0  0  0
    1.0700   -1.9290    0.6330 C   0  0  0  0  0  0  0  0  0  0  0  0
    0.9120   -0.5330    0.2800 C   0  0  0  0  0  0  0  0  0  0  0  0
    1.9200    0.2870    0.0440 C   0  0  0  0  0  0  0  0  0  0  0  0
    1.5660    1.9610   -0.3740 Cl  0  0  0  0  0  0  0  0  0  0  0  0
    3.3010   -0.1340    0.1160 C   0  0  0  0  0  0  0  0  0  0  0  0
    4.2540    0.7420   -0.1330 C   0  0  0  0  0  0  0  0  0  0  0  0
    5.6660    0.3400   -0.0670 C   0  0  0  0  0  0  0  0  0  0  0  0
    6.5510    1.2300   -0.3170 N   0  0  0  0  0  0  0  0  0  0  0  0
   -0.4200   -0.0130    0.1820 N   0  0  0  0  0  0  0  0  0  0  0  0
  1  2  1  0
  2  3  1  0
  3  4  1  0
  4  5  2  0
  4  6  1  0
  6  7  2  0
  6 17  1  0
  7  8  1  0
  8  9  2  0
  9 10  1  0
 10 11  2  3
 10 17  1  0
 11 12  1  0
 11 13  1  0
 13 14  2  3
 14 15  1  0
 15 16  2  0
M  CHG  1  16   1
M  END
