
     RDKit          3D

 17 17  0  0  0  0  0  0  0  0999 V2000
    0.4950   -2.7960    0.7380 C   0  0  0  0  0  0  0  0  0  0  0  0
   -0.3790   -2.1550   -0.0670 C   0  0  0  0  0  0  0  0  0  0  0  0
   -1.2840   -2.9290   -0.9180 C   0  0  0  0  0  0  0  0  0  0  0  0
   -2.6650   -2.3380   -0.7480 C   0  0  0  0  0  0  0  0  0  0  0  0
   -2.8120   -1.0490   -0.5640 C   0  0  0  0  0  0  0  0  0  0  0  0
   -4.4880   -0.4920   -0.4170 Cl  0  0  0  0  0  0  0  0  0  0  0  0
   -1.7720   -0.0970   -0.1910 C   0  0  0  0  0  0  0  0  0  0  0  0
   -1.8920    1.1860   -0.0690 C   0  0  0  0  0  0  0  0  0  0  0  0
   -3.0010    2.1060   -0.2450 C   0  0  0  0  0  0  0  0  0  0  0  0
   -2.6300    3.0900   -1.2770 N   0  0  0  0  0  0  0  0  0  0  0  0
   -0.4650   -0.7510    0.0360 N   0  0  0  0  0  0  0  0  0  0  0  0
    0.6640    0.0480    0.3160 C   0  0  0  0  0  0  0  0  0  0  0  0
    1.9950   -0.4340   -0.0800 C   0  0  0  0  0  0  0  0  0  0  0  0
    2.1750   -1.4680   -0.7290 O   0  0  0  0  0  0  0  0  0  0  0  0
    3.1500    0.3230    0.2970 N   0  0  0  0  0  0  0  0  0  0  0  0
    3.0990    1.5500    1.0510 C   0  0  0  0  0  0  0  0  0  0  0  0
    4.4680   -0.1430   -0.0870 C   0  0  0  0  0  0  0  0  0  0  0  0
  1  2  2  0
  2  3  1  0
  2 11  1  0
  3  4  1  0
  4  5  2  0
  5  6  1  0
  5  7  1  0
  7  8  2  3
  7 11  1  0
  8  9  1  0
  9 10  1  0
 11 12  1  0
 12 13  1  0
 13 14  2  0
 13 15  1  0
 15 16  1  0
 15 17  1  0
M  CHG  1  10   1
M  END
