
     RDKit          3D

 16 17  0  0  0  0  0  0  0  0999 V2000
    5.2340   -0.3190    0.4180 C   0  0  0  0  0  0  0  0  0  0  0  0
    3.7470   -0.5630    0.4660 C   0  0  0  0  0  0  0  0  0  0  0  0
    2.8250    0.1090   -0.2110 C   0  0  0  0  0  0  0  0  0  0  0  0
    3.1300    1.2230   -1.1440 C   0  0  0  0  0  0  0  0  0  0  0  0
    1.5100   -0.3970    0.1080 C   0  0  0  0  0  0  0  0  0  0  0  0
    0.1820    0.0650   -0.3220 C   0  0  0  0  0  0  0  0  0  0  0  0
   -0.0230    0.9470   -1.3160 N   0  0  0  0  0  0  0  0  0  0  0  0
   -1.3370    1.1420   -1.4210 N   0  0  0  0  0  0  0  0  0  0  0  0
   -1.9510    0.4030   -0.5200 C   0  0  0  0  0  0  0  0  0  0  0  0
   -3.4100    0.2490   -0.2160 C   0  0  1  0  0  0  0  0  0  0  0  0
   -4.2420    0.9630   -1.2160 C   0  0  0  0  0  0  0  0  0  0  0  0
   -3.8390   -1.1930   -0.1330 C   0  0  0  0  0  0  0  0  0  0  0  0
   -3.5920    0.8260    1.2030 C   0  0  0  0  0  0  0  0  0  0  0  0
   -0.9760   -0.2460    0.1370 O   0  0  0  0  0  0  0  0  0  0  0  0
    1.7300   -1.3800    0.9880 C   0  0  0  0  0  0  0  0  0  0  0  0
    3.1070   -1.5280    1.2450 N   0  0  0  0  0  0  0  0  0  0  0  0
  1  2  1  0
  2  3  2  0
  2 16  1  0
  3  4  1  0
  3  5  1  0
  5  6  1  0
  5 15  2  0
  6  7  2  0
  6 14  1  0
  7  8  1  0
  8  9  2  0
  9 10  1  0
  9 14  1  0
 10 11  1  6
 10 12  1  0
 10 13  1  0
 15 16  1  0
M  CHG  1  16   1
M  END
