
     RDKit          3D

 17 18  0  0  0  0  0  0  0  0999 V2000
    4.5520    0.3020    0.2660 C   0  0  0  0  0  0  0  0  0  0  0  0
    4.3230   -1.0730   -0.1680 C   0  0  0  0  0  0  0  0  0  0  0  0
    5.7840   -2.1090   -0.4160 Cl  0  0  0  0  0  0  0  0  0  0  0  0
    3.1980   -1.6550   -0.4020 C   0  0  0  0  0  0  0  0  0  0  0  0
    1.8360   -1.1880   -0.3240 C   0  0  0  0  0  0  0  0  0  0  0  0
    1.5240    0.1280    0.0630 N   0  0  0  0  0  0  0  0  0  0  0  0
    0.0980    0.4660    0.1170 C   0  0  0  0  0  0  0  0  0  0  0  0
   -0.8460   -0.4380   -0.1850 N   0  0  0  0  0  0  0  0  0  0  0  0
   -2.1490   -0.1260   -0.1340 C   0  0  0  0  0  0  0  0  0  0  0  0
   -3.0820   -1.0960   -0.4560 C   0  0  0  0  0  0  0  0  0  0  0  0
   -4.4220   -0.7840   -0.4060 C   0  0  0  0  0  0  0  0  0  0  0  0
   -4.8120    0.4840   -0.0370 C   0  0  0  0  0  0  0  0  0  0  0  0
   -3.8680    1.4350    0.2800 C   0  0  0  0  0  0  0  0  0  0  0  0
   -2.5220    1.1500    0.2380 C   0  0  0  0  0  0  0  0  0  0  0  0
   -1.5880    2.0700    0.5450 N   0  0  0  0  0  0  0  0  0  0  0  0
   -0.2950    1.7320    0.4850 C   0  0  0  0  0  0  0  0  0  0  0  0
    0.5890    2.5920    0.7730 O   0  0  0  0  0  0  0  0  0  0  0  0
  1  2  1  0
  2  3  1  0
  2  4  2  3
  4  5  1  0
  5  6  1  0
  6  7  1  0
  7  8  2  0
  7 16  1  0
  8  9  1  0
  9 10  2  0
  9 14  1  0
 10 11  1  0
 11 12  2  0
 12 13  1  0
 13 14  2  0
 14 15  1  0
 15 16  1  0
 16 17  2  0
M  CHG  1   8   1
M  END
