
     RDKit          3D

 17 18  0  0  0  0  0  0  0  0999 V2000
    2.2420    2.2040    0.0860 O   0  0  0  0  0  0  0  0  0  0  0  0
    3.0920    1.3000   -0.1610 C   0  0  0  0  0  0  0  0  0  0  0  0
    4.4350    1.4930   -0.6590 C   0  0  0  0  0  0  0  0  0  0  0  0
    5.0060    0.3290   -0.7880 C   0  0  0  0  0  0  0  0  0  0  0  0
    4.0930   -0.7430   -0.3870 C   0  0  0  0  0  0  0  0  0  0  0  0
    2.8790   -0.0880    0.0090 N   0  0  0  0  0  0  0  0  0  0  0  0
    1.6680   -0.7230    0.4900 C   0  0  0  0  0  0  0  0  0  0  0  0
    0.7110   -1.0670   -0.6300 C   0  0  0  0  0  0  0  0  0  0  0  0
   -0.4510   -1.6910   -0.0240 N   0  0  0  0  0  0  0  0  0  0  0  0
   -1.3640   -0.9770    0.8050 C   0  0  0  0  0  0  0  0  0  0  0  0
   -1.3790   -1.1180    2.1200 C   0  0  0  0  0  0  0  0  0  0  0  0
   -0.2540   -2.2110    2.9080 Cl  0  0  0  0  0  0  0  0  0  0  0  0
   -2.3290   -0.0490    0.2180 C   0  0  0  0  0  0  0  0  0  0  0  0
   -2.4910    0.2430   -1.0610 C   0  0  0  0  0  0  0  0  0  0  0  0
   -3.5820    1.2340   -1.2220 C   0  0  0  0  0  0  0  0  0  0  0  0
   -4.3330    1.1240   -0.0070 N   0  0  0  0  0  0  0  0  0  0  0  0
   -3.3400    0.7700    0.9610 C   0  0  0  0  0  0  0  0  0  0  0  0
  1  2  2  0
  2  3  1  0
  2  6  1  0
  3  4  2  0
  4  5  1  0
  5  6  1  0
  6  7  1  0
  7  8  1  0
  8  9  1  0
  9 10  1  0
 10 11  2  3
 10 13  1  0
 11 12  1  0
 13 14  2  0
 13 17  1  0
 14 15  1  0
 15 16  1  0
 16 17  1  0
M  CHG  1  16   1
M  END
