
     RDKit          3D

  9  9  0  0  0  0  0  0  0  0999 V2000
   -0.8240   -1.8230    1.1940 C   0  0  0  0  0  0  0  0  0  0  0  0
    0.0190   -0.6130    1.2270 C   0  0  0  0  0  0  0  0  0  0  0  0
    0.2190    0.0460    0.1070 C   0  0  0  0  0  0  0  0  0  0  0  0
   -0.3550   -0.3450   -1.2180 C   0  0  0  0  0  0  0  0  0  0  0  0
   -1.0970    0.9080   -1.7040 C   0  0  0  0  0  0  0  0  0  0  0  0
    0.2420    2.1370   -1.4020 S   0  0  0  0  0  0  0  0  0  0  0  0
    1.0130    1.2480   -0.0570 C   0  0  0  0  0  0  0  0  0  0  0  0
    2.0630    1.6500    0.5770 C   0  0  0  0  0  0  0  0  0  0  0  0
    2.8420    0.6230    1.9950 Br  0  0  0  0  0  0  0  0  0  0  0  0
  1  2  1  0
  2  3  2  3
  3  4  1  0
  3  7  1  0
  4  5  1  0
  5  6  1  0
  6  7  1  0
  7  8  2  3
  8  9  1  0
M  END
