
     RDKit          3D

 13 14  0  0  0  0  0  0  0  0999 V2000
    3.5210    0.5320   -0.0620 N   0  0  0  0  0  0  0  0  0  0  0  0
    2.0890    0.4570   -0.0690 C   0  0  0  0  0  0  0  0  0  0  0  0
    1.3090    1.5680   -0.3250 C   0  0  0  0  0  0  0  0  0  0  0  0
   -0.0830    1.4450   -0.3220 C   0  0  0  0  0  0  0  0  0  0  0  0
   -0.7090    0.2410   -0.0690 C   0  0  0  0  0  0  0  0  0  0  0  0
   -2.0610    0.0800   -0.0570 C   0  0  0  0  0  0  0  0  0  0  0  0
   -2.9010    1.1940   -0.3140 N   0  0  0  0  0  0  0  0  0  0  0  0
   -2.6680   -1.0960    0.1900 N   0  0  0  0  0  0  0  0  0  0  0  0
   -1.9240   -2.1600    0.4340 N   0  0  0  0  0  0  0  0  0  0  0  0
   -0.5650   -2.0710    0.4380 C   0  0  0  0  0  0  0  0  0  0  0  0
    0.1190   -3.0910    0.6720 O   0  0  0  0  0  0  0  0  0  0  0  0
    0.0740   -0.8730    0.1870 C   0  0  0  0  0  0  0  0  0  0  0  0
    1.4410   -0.7390    0.1810 C   0  0  0  0  0  0  0  0  0  0  0  0
  1  2  1  0
  2  3  2  0
  2 13  1  0
  3  4  1  0
  4  5  2  0
  5  6  1  0
  5 12  1  0
  6  7  1  0
  6  8  2  0
  8  9  1  0
  9 10  1  0
 10 11  2  0
 10 12  1  0
 12 13  2  0
M  END
