
     RDKit          3D

  8  8  0  0  0  0  0  0  0  0999 V2000
   -1.4400   -0.6270   -1.2120 C   0  0  0  0  0  0  0  0  0  0  0  0
   -0.5550   -0.0250   -0.1090 C   0  0  1  0  0  0  0  0  0  0  0  0
   -1.4680   -0.0050    1.1300 C   0  0  0  0  0  0  0  0  0  0  0  0
    0.5020   -0.9800    0.1620 C   0  0  0  0  0  0  0  0  0  0  0  0
    1.7860   -0.8090    0.2970 C   0  0  0  0  0  0  0  0  0  0  0  0
    2.4900    0.4950    0.1950 C   0  0  0  0  0  0  0  0  0  0  0  0
    1.5290    1.6500   -0.7930 S   0  0  0  0  0  0  0  0  0  0  0  0
   -0.2080    1.3680   -0.4180 C   0  0  0  0  0  0  0  0  0  0  0  0
  2  1  1  6
  2  3  1  0
  2  4  1  0
  2  8  1  0
  4  5  2  0
  5  6  1  0
  6  7  1  0
  7  8  1  0
M  END
