
     RDKit          3D

 13 14  0  0  0  0  0  0  0  0999 V2000
    3.9710    0.6710   -0.4090 N   0  0  0  0  0  0  0  0  0  0  0  0
    2.5250    0.7040   -0.2250 C   0  0  0  0  0  0  0  0  0  0  0  0
    1.8730   -0.4050   -0.2850 C   0  0  0  0  0  0  0  0  0  0  0  0
    0.4630   -0.6650   -0.1430 C   0  0  0  0  0  0  0  0  0  0  0  0
   -0.0740   -1.9130   -0.2360 N   0  0  0  0  0  0  0  0  0  0  0  0
   -1.4000   -1.8950   -0.0680 C   0  0  0  0  0  0  0  0  0  0  0  0
   -1.7990   -0.6190    0.1440 C   0  0  0  0  0  0  0  0  0  0  0  0
   -3.0330   -0.0450    0.3720 C   0  0  0  0  0  0  0  0  0  0  0  0
   -4.0740   -0.7710    0.4080 O   0  0  0  0  0  0  0  0  0  0  0  0
   -3.0720    1.2880    0.5470 N   0  0  0  0  0  0  0  0  0  0  0  0
   -1.9720    2.0200    0.5030 N   0  0  0  0  0  0  0  0  0  0  0  0
   -0.7570    1.4880    0.2840 C   0  0  0  0  0  0  0  0  0  0  0  0
   -0.6230    0.1340    0.0940 C   0  0  0  0  0  0  0  0  0  0  0  0
  1  2  1  0
  2  3  2  3
  3  4  1  0
  4  5  1  0
  4 13  2  0
  5  6  1  0
  6  7  2  0
  7  8  1  0
  7 13  1  0
  8  9  2  0
  8 10  1  0
 10 11  1  0
 11 12  2  0
 12 13  1  0
M  END
