
     RDKit          3D

  8  8  0  0  0  0  0  0  0  0999 V2000
   -2.9450   -0.2860    0.1830 C   0  0  0  0  0  0  0  0  0  0  0  0
   -1.5300    0.1770    0.3740 C   0  0  0  0  0  0  0  0  0  0  0  0
   -0.6050   -0.4190   -0.6450 C   0  0  0  0  0  0  0  0  0  0  0  0
    0.7960    0.0730   -0.4130 C   0  0  0  0  0  0  0  0  0  0  0  0
    1.1580    0.8950    0.5300 C   0  0  0  0  0  0  0  0  0  0  0  0
    2.8930    1.2900    0.5420 S   0  0  0  0  0  0  0  0  0  0  0  0
    3.5910   -0.1040   -0.3810 C   0  0  0  0  0  0  0  0  0  0  0  0
    2.1450   -0.4590   -1.4580 S   0  0  0  0  0  0  0  0  0  0  0  0
  1  2  1  0
  2  3  1  0
  3  4  1  0
  4  5  2  0
  4  8  1  0
  5  6  1  0
  6  7  1  0
  7  8  1  0
M  END
