
     RDKit          3D

  9  9  0  0  0  0  0  0  0  0999 V2000
    1.7160   -1.8490    0.0860 C   0  0  0  0  0  0  0  0  0  0  0  0
    0.5900   -1.1460    0.1670 C   0  0  0  0  0  0  0  0  0  0  0  0
   -0.6350   -1.7820    0.3190 O   0  0  0  0  0  0  0  0  0  0  0  0
   -1.7820   -1.2090   -0.2170 C   0  0  0  0  0  0  0  0  0  0  0  0
   -1.8660    0.2580   -0.2150 C   0  0  0  0  0  0  0  0  0  0  0  0
   -0.5850    1.0080   -0.3380 C   0  0  0  0  0  0  0  0  0  0  0  0
    0.6080    0.3060    0.0990 C   0  0  0  0  0  0  0  0  0  0  0  0
    1.6830    0.9810    0.4260 C   0  0  0  0  0  0  0  0  0  0  0  0
    1.6660    2.7590    0.3290 S   0  0  0  0  0  0  0  0  0  0  0  0
  1  2  2  0
  2  3  1  0
  2  7  1  0
  3  4  1  0
  4  5  1  0
  5  6  1  0
  6  7  1  0
  7  8  2  3
  8  9  1  0
M  END
