
     RDKit          3D

 13 14  0  0  0  0  0  0  0  0999 V2000
    2.8510   -1.1030   -0.1000 N   0  0  0  0  0  0  0  0  0  0  0  0
    1.7640   -0.2010   -0.0700 C   0  0  0  0  0  0  0  0  0  0  0  0
    1.9740    1.1840   -0.0980 C   0  0  0  0  0  0  0  0  0  0  0  0
    0.9560    2.0590   -0.0710 N   0  0  0  0  0  0  0  0  0  0  0  0
   -0.3200    1.6540   -0.0150 C   0  0  0  0  0  0  0  0  0  0  0  0
   -1.2990    2.4570    0.0120 O   0  0  0  0  0  0  0  0  0  0  0  0
   -0.5640    0.3030    0.0140 C   0  0  0  0  0  0  0  0  0  0  0  0
   -1.8680   -0.1390    0.0710 C   0  0  0  0  0  0  0  0  0  0  0  0
   -2.9230    0.8100    0.0980 N   0  0  0  0  0  0  0  0  0  0  0  0
   -2.0780   -1.4920    0.0980 C   0  0  0  0  0  0  0  0  0  0  0  0
   -1.0730   -2.3920    0.0710 N   0  0  0  0  0  0  0  0  0  0  0  0
    0.1980   -1.9880    0.0160 C   0  0  0  0  0  0  0  0  0  0  0  0
    0.4580   -0.6490   -0.0130 C   0  0  0  0  0  0  0  0  0  0  0  0
  1  2  1  0
  2  3  2  0
  2 13  1  0
  3  4  1  0
  4  5  1  0
  5  6  2  0
  5  7  1  0
  7  8  2  0
  7 13  1  0
  8  9  1  0
  8 10  1  0
 10 11  2  0
 11 12  1  0
 12 13  2  0
M  END
