
     RDKit          3D

 29 31  0  0  0  0  0  0  0  0999 V2000
    7.5830   -0.6840    1.9040 C   0  0  0  0  0  0  0  0  0  0  0  0
    7.9360    0.0480    0.6300 C   0  0  2  0  0  0  0  0  0  0  0  0
    7.5940    1.5260    0.7350 C   0  0  0  0  0  0  0  0  0  0  0  0
    7.9120    2.2070   -0.4210 O   0  0  0  0  0  0  0  0  0  0  0  0
    7.0660   -0.5400   -0.4410 C   0  0  0  0  0  0  0  0  0  0  0  0
    7.5520   -1.1610   -1.5490 C   0  0  0  0  0  0  0  0  0  0  0  0
    6.6460   -1.6590   -2.4620 C   0  0  0  0  0  0  0  0  0  0  0  0
    5.3030   -1.5190   -2.2320 C   0  0  0  0  0  0  0  0  0  0  0  0
    4.8300   -0.8830   -1.0970 C   0  0  0  0  0  0  0  0  0  0  0  0
    3.4040   -0.7420   -0.8700 C   0  0  0  0  0  0  0  0  0  0  0  0
    2.6180   -0.2030    0.0890 C   0  0  0  0  0  0  0  0  0  0  0  0
    1.2950   -0.2490   -0.0210 C   0  0  0  0  0  0  0  0  0  0  0  0
    0.6690   -0.8250   -1.0730 C   0  0  0  0  0  0  0  0  0  0  0  0
   -0.6600   -1.0480   -1.5050 C   0  0  0  0  0  0  0  0  0  0  0  0
   -0.8950   -1.6440   -2.5870 O   0  0  0  0  0  0  0  0  0  0  0  0
   -1.7960   -0.6250   -0.7650 N   0  0  0  0  0  0  0  0  0  0  0  0
   -3.0840   -0.8550   -1.2090 N   0  0  0  0  0  0  0  0  0  0  0  0
   -4.1520   -0.2040   -0.5080 C   0  0  0  0  0  0  0  0  0  0  0  0
   -3.9610    0.5540    0.4770 O   0  0  0  0  0  0  0  0  0  0  0  0
   -5.4910   -0.4280   -0.9520 N   0  0  0  0  0  0  0  0  0  0  0  0
   -6.5690    0.2440   -0.2250 C   0  0  1  0  0  0  0  0  0  0  0  0
   -7.8590   -0.1640   -0.9010 C   0  0  0  0  0  0  0  0  0  0  0  0
   -8.9750    0.4080   -0.3050 O   0  0  0  0  0  0  0  0  0  0  0  0
   -6.5960   -0.1950    1.2250 C   0  0  0  0  0  0  0  0  0  0  0  0
   -6.4080    1.0460    2.0390 C   0  0  0  0  0  0  0  0  0  0  0  0
   -6.3430    2.1670    1.1600 N   0  0  0  0  0  0  0  0  0  0  0  0
   -6.3520    1.7200   -0.1920 C   0  0  0  0  0  0  0  0  0  0  0  0
    2.1360   -1.3910   -2.0660 S   0  0  0  0  0  0  0  0  0  0  0  0
    5.7450   -0.4180   -0.2460 N   0  0  0  0  0  0  0  0  0  0  0  0
  2  1  1  1
  2  3  1  0
  2  5  1  0
  3  4  1  0
  5  6  2  0
  5 29  1  0
  6  7  1  0
  7  8  2  0
  8  9  1  0
  9 10  1  0
  9 29  2  0
 10 11  2  0
 10 28  1  0
 11 12  1  0
 12 13  2  0
 13 14  1  0
 13 28  1  0
 14 15  2  0
 14 16  1  0
 16 17  1  0
 17 18  1  0
 18 19  2  0
 18 20  1  0
 20 21  1  0
 21 22  1  6
 21 24  1  0
 21 27  1  0
 22 23  1  0
 24 25  1  0
 25 26  1  0
 26 27  1  0
M  CHG  1  26   1
M  END
