
     RDKit          3D

 29 31  0  0  0  0  0  0  0  0999 V2000
   -4.9770   -1.3160    2.4170 C   0  0  0  0  0  0  0  0  0  0  0  0
   -4.9780   -0.5790    1.1550 C   0  0  0  0  0  0  0  0  0  0  0  0
   -6.0370   -0.6660    0.2880 C   0  0  0  0  0  0  0  0  0  0  0  0
   -6.0240    0.0440   -0.9130 C   0  0  0  0  0  0  0  0  0  0  0  0
   -4.9640    0.8460   -1.2680 C   0  0  0  0  0  0  0  0  0  0  0  0
   -4.9400    1.7420   -2.7790 S   0  0  1  0  0  0  0  0  0  0  0  0
   -5.0770    3.2130   -2.5470 O   0  0  0  0  0  0  0  0  0  0  0  0
   -3.6570    1.4320   -3.5020 O   0  0  0  0  0  0  0  0  0  0  0  0
   -3.8910    0.9260   -0.3760 C   0  0  0  0  0  0  0  0  0  0  0  0
   -3.9120    0.2210    0.8080 C   0  0  0  0  0  0  0  0  0  0  0  0
   -2.7940    0.2950    1.7650 C   0  0  2  0  0  0  0  0  0  0  0  0
   -3.2610    1.0010    2.9010 O   0  0  0  0  0  0  0  0  0  0  0  0
   -1.6800    1.1190    1.1870 C   0  0  0  0  0  0  0  0  0  0  0  0
   -1.0880    0.5160    0.0140 N   0  0  0  0  0  0  0  0  0  0  0  0
   -0.0230    1.1480   -0.6740 C   0  0  0  0  0  0  0  0  0  0  0  0
    1.1980    0.6610   -0.5070 C   0  0  0  0  0  0  0  0  0  0  0  0
    1.4330   -0.4810    0.3510 C   0  0  0  0  0  0  0  0  0  0  0  0
    0.4290   -1.0180    0.9180 O   0  0  0  0  0  0  0  0  0  0  0  0
    2.7380   -0.9870    0.5470 N   0  0  0  0  0  0  0  0  0  0  0  0
    2.9550   -2.3280    1.1400 C   0  0  0  0  0  0  0  0  0  0  0  0
    3.8300   -3.1580    0.2290 C   0  0  0  0  0  0  0  0  0  0  0  0
    4.7880   -2.3990   -0.5250 N   0  0  0  0  0  0  0  0  0  0  0  0
    4.9690   -0.9870   -0.3980 C   0  0  0  0  0  0  0  0  0  0  0  0
    6.0850   -0.3470   -0.7760 N   0  0  0  0  0  0  0  0  0  0  0  0
    6.1240    0.9690   -0.5970 C   0  0  0  0  0  0  0  0  0  0  0  0
    7.2990    1.6810   -0.9910 N   0  0  0  0  0  0  0  0  0  0  0  0
    5.0980    1.7280   -0.0500 C   0  0  0  0  0  0  0  0  0  0  0  0
    3.9430    1.0890    0.3440 C   0  0  0  0  0  0  0  0  0  0  0  0
    3.9110   -0.2950    0.1510 C   0  0  0  0  0  0  0  0  0  0  0  0
  1  2  1  0
  2  3  2  0
  2 10  1  0
  3  4  1  0
  4  5  2  0
  6  5  1  1
  5  9  1  0
  6  7  2  0
  6  8  2  0
  9 10  2  0
 10 11  1  0
 11 12  1  1
 11 13  1  0
 13 14  1  0
 14 15  1  0
 15 16  2  3
 16 17  1  0
 17 18  2  0
 17 19  1  0
 19 20  1  0
 19 29  1  0
 20 21  1  0
 21 22  1  0
 22 23  1  0
 23 24  2  0
 23 29  1  0
 24 25  1  0
 25 26  1  0
 25 27  2  0
 27 28  1  0
 28 29  2  0
M  CHG  1  24   1
M  END
