
     RDKit          3D

 31 35  0  0  0  0  0  0  0  0999 V2000
   -2.7350    4.9090   -2.0630 N   0  0  0  0  0  0  0  0  0  0  0  0
   -2.7600    3.9720   -1.0020 C   0  0  0  0  0  0  0  0  0  0  0  0
   -3.4730    4.1560    0.1040 N   0  0  0  0  0  0  0  0  0  0  0  0
   -3.5120    3.2790    1.1280 C   0  0  0  0  0  0  0  0  0  0  0  0
   -2.7650    2.1690    0.9640 N   0  0  0  0  0  0  0  0  0  0  0  0
   -2.0360    1.9060   -0.0870 C   0  0  0  0  0  0  0  0  0  0  0  0
   -2.0120    2.8140   -1.1170 C   0  0  0  0  0  0  0  0  0  0  0  0
   -1.2210    2.3680   -2.0830 N   0  0  0  0  0  0  0  0  0  0  0  0
   -0.7050    1.1300   -1.6890 C   0  0  0  0  0  0  0  0  0  0  0  0
    0.1410    0.4340   -2.5630 N   0  0  0  0  0  0  0  0  0  0  0  0
    0.8470   -0.7530   -2.3280 C   0  0  0  0  0  0  0  0  0  0  0  0
    2.0790   -0.5950   -1.4710 C   0  0  0  0  0  0  0  0  0  0  0  0
    2.4770    0.6180   -0.9620 C   0  0  0  0  0  0  0  0  0  0  0  0
    3.6220    0.7320   -0.1710 C   0  0  0  0  0  0  0  0  0  0  0  0
    4.3730   -0.3960    0.1070 C   0  0  0  0  0  0  0  0  0  0  0  0
    5.5200   -0.3170    0.8920 C   0  0  0  0  0  0  0  0  0  0  0  0
    6.2520   -1.4520    1.1560 C   0  0  0  0  0  0  0  0  0  0  0  0
    5.8390   -2.6650    0.6370 C   0  0  0  0  0  0  0  0  0  0  0  0
    4.7020   -2.7160   -0.1350 C   0  0  0  0  0  0  0  0  0  0  0  0
    3.9460   -1.6000   -0.4190 C   0  0  0  0  0  0  0  0  0  0  0  0
    2.8280   -1.6700   -1.1830 N   0  0  0  0  0  0  0  0  0  0  0  0
   -1.2300    0.9030   -0.4800 N   0  0  0  0  0  0  0  0  0  0  0  0
   -1.0120   -0.2670    0.3150 C   0  0  2  0  0  0  0  0  0  0  0  0
   -1.8060   -1.2940   -0.1770 O   0  0  0  0  0  0  0  0  0  0  0  0
   -2.3900   -1.9440    0.8740 C   0  0  2  0  0  0  0  0  0  0  0  0
   -3.7370   -2.5370    0.5480 C   0  0  0  0  0  0  0  0  0  0  0  0
   -4.6160   -1.5310    0.1500 O   0  0  0  0  0  0  0  0  0  0  0  0
   -2.5550   -0.8810    1.9720 C   0  0  1  0  0  0  0  0  0  0  0  0
   -2.6430   -1.4870    3.2220 O   0  0  0  0  0  0  0  0  0  0  0  0
   -1.2900   -0.1090    1.7850 C   0  0  1  0  0  0  0  0  0  0  0  0
   -0.2870   -0.7910    2.5390 O   0  0  0  0  0  0  0  0  0  0  0  0
  1  2  1  0
  2  3  2  0
  2  7  1  0
  3  4  1  0
  4  5  2  0
  5  6  1  0
  6  7  2  0
  6 22  1  0
  7  8  1  0
  8  9  2  0
  9 10  1  0
  9 22  1  0
 10 11  1  0
 11 12  1  0
 12 13  2  0
 12 21  1  0
 13 14  1  0
 14 15  2  0
 15 16  1  0
 15 20  1  0
 16 17  2  0
 17 18  1  0
 18 19  2  0
 19 20  1  0
 20 21  2  0
 23 22  1  6
 23 24  1  0
 23 30  1  0
 24 25  1  0
 25 26  1  6
 25 28  1  0
 26 27  1  0
 28 29  1  1
 28 30  1  0
 30 31  1  1
M  END
