
     RDKit          3D

 29 31  0  0  0  0  0  0  0  0999 V2000
   -3.0380   -2.1890    3.0990 C   0  0  0  0  0  0  0  0  0  0  0  0
   -2.0480   -2.5550    2.0150 C   0  0  0  0  0  0  0  0  0  0  0  0
   -2.2630   -1.5940    0.8380 C   0  0  0  0  0  0  0  0  0  0  0  0
   -1.4820   -0.6160    0.6060 N   0  0  0  0  0  0  0  0  0  0  0  0
   -1.5380    0.2370   -0.3000 C   0  0  0  0  0  0  0  0  0  0  0  0
   -0.8790    1.4020   -0.8370 C   0  0  0  0  0  0  0  0  0  0  0  0
    0.4280    1.4900   -0.9550 C   0  0  0  0  0  0  0  0  0  0  0  0
    1.3370    0.4180   -0.5560 C   0  0  0  0  0  0  0  0  0  0  0  0
    0.9250   -0.6460   -0.0840 O   0  0  0  0  0  0  0  0  0  0  0  0
    2.7280    0.6320   -0.7280 N   0  0  0  0  0  0  0  0  0  0  0  0
    3.7610   -0.2750   -0.4090 C   0  0  0  0  0  0  0  0  0  0  0  0
    3.5670   -1.5160    0.1240 C   0  0  0  0  0  0  0  0  0  0  0  0
    4.6320   -2.3700    0.4160 C   0  0  0  0  0  0  0  0  0  0  0  0
    4.3980   -3.7190    0.9970 C   0  0  0  0  0  0  0  0  0  0  0  0
    5.9300   -1.9800    0.1700 C   0  0  0  0  0  0  0  0  0  0  0  0
    6.1010   -0.7290   -0.3660 C   0  0  0  0  0  0  0  0  0  0  0  0
    5.0600    0.0650   -0.6340 N   0  0  0  0  0  0  0  0  0  0  0  0
    0.8970    2.6900   -1.4920 O   0  0  0  0  0  0  0  0  0  0  0  0
    0.3080    3.9510   -1.2600 C   0  0  2  0  0  0  0  0  0  0  0  0
    1.0820    4.7180   -0.2520 C   0  0  0  0  0  0  0  0  0  0  0  0
    0.6760    6.0110    0.1390 N   0  0  0  0  0  0  0  0  0  0  0  0
    2.0940    4.2030    0.2430 O   0  0  0  0  0  0  0  0  0  0  0  0
   -1.1150    3.8660   -0.7590 C   0  0  0  0  0  0  0  0  0  0  0  0
   -1.6970    2.6000   -1.3040 C   0  0  1  0  0  0  0  0  0  0  0  0
   -1.7350    2.5780   -2.6960 O   0  0  0  0  0  0  0  0  0  0  0  0
   -3.1010   -0.4060   -1.1540 S   0  0  0  0  0  0  0  0  0  0  0  0
   -3.3420   -1.8090    0.0200 C   0  0  0  0  0  0  0  0  0  0  0  0
   -4.4030   -2.7250   -0.0830 C   0  0  0  0  0  0  0  0  0  0  0  0
   -5.2660   -2.4200   -1.2150 N   0  0  0  0  0  0  0  0  0  0  0  0
  1  2  1  0
  2  3  1  0
  3  4  1  0
  3 27  2  0
  4  5  2  0
  5  6  1  0
  5 26  1  0
  6  7  2  0
  6 24  1  0
  7  8  1  0
  7 18  1  0
  8  9  2  0
  8 10  1  0
 10 11  1  0
 11 12  2  0
 11 17  1  0
 12 13  1  0
 13 14  1  0
 13 15  2  0
 15 16  1  0
 16 17  2  0
 18 19  1  0
 19 20  1  1
 19 23  1  0
 20 21  1  0
 20 22  2  0
 23 24  1  0
 24 25  1  6
 26 27  1  0
 27 28  1  0
 28 29  1  0
M  CHG  1  29   1
M  END
