
     RDKit          3D

 29 31  0  0  0  0  0  0  0  0999 V2000
    6.7610    2.1870    0.1060 C   0  0  0  0  0  0  0  0  0  0  0  0
    6.4060    1.0030    0.9360 C   0  0  2  0  0  0  0  0  0  0  0  0
    7.4620    0.0050    0.7100 N   0  0  0  0  0  0  0  0  0  0  0  0
    5.0810    0.4150    0.6620 C   0  0  0  0  0  0  0  0  0  0  0  0
    4.1340    1.0670   -0.0810 C   0  0  0  0  0  0  0  0  0  0  0  0
    2.8960    0.5270   -0.3420 C   0  0  0  0  0  0  0  0  0  0  0  0
    2.5370   -0.7060    0.1290 C   0  0  0  0  0  0  0  0  0  0  0  0
    1.2460   -1.3100   -0.1450 C   0  0  0  0  0  0  0  0  0  0  0  0
    1.0300   -2.5410    0.1360 O   0  0  0  0  0  0  0  0  0  0  0  0
    0.1870   -0.6180   -0.7180 N   0  0  0  0  0  0  0  0  0  0  0  0
   -1.0670   -1.2550   -0.9910 N   0  0  0  0  0  0  0  0  0  0  0  0
   -1.5070   -1.4310   -2.3270 C   0  0  0  0  0  0  0  0  0  0  0  0
   -0.7040   -0.9550   -3.2050 O   0  0  0  0  0  0  0  0  0  0  0  0
   -2.7450   -2.0870   -2.7610 C   0  0  0  0  0  0  0  0  0  0  0  0
   -3.7210   -2.8420   -1.4850 S   0  0  0  0  0  0  0  0  0  0  0  0
   -4.4920   -1.6340   -0.4580 C   0  0  0  0  0  0  0  0  0  0  0  0
   -4.3980   -0.2760   -0.6190 C   0  0  0  0  0  0  0  0  0  0  0  0
   -5.0690    0.6040    0.2240 C   0  0  0  0  0  0  0  0  0  0  0  0
   -5.0060    1.9650    0.0770 C   0  0  0  0  0  0  0  0  0  0  0  0
   -5.6790    2.8000    0.9000 N   0  0  0  0  0  0  0  0  0  0  0  0
   -6.4290    2.3180    1.8860 C   0  0  0  0  0  0  0  0  0  0  0  0
   -7.0560    3.0960    2.6510 O   0  0  0  0  0  0  0  0  0  0  0  0
   -6.5200    0.9640    2.0680 C   0  0  0  0  0  0  0  0  0  0  0  0
   -5.8420    0.0840    1.2390 C   0  0  0  0  0  0  0  0  0  0  0  0
   -5.9480   -1.2560    1.4160 N   0  0  0  0  0  0  0  0  0  0  0  0
   -5.2930   -2.0920    0.5940 C   0  0  0  0  0  0  0  0  0  0  0  0
   -5.4130   -3.3490    0.7890 O   0  0  0  0  0  0  0  0  0  0  0  0
    3.4930   -1.3930    0.8940 C   0  0  0  0  0  0  0  0  0  0  0  0
    4.7230   -0.8380    1.1440 C   0  0  0  0  0  0  0  0  0  0  0  0
  2  1  1  6
  2  3  1  0
  2  4  1  0
  4  5  2  0
  4 29  1  0
  5  6  1  0
  6  7  2  0
  7  8  1  0
  7 28  1  0
  8  9  2  0
  8 10  1  0
 10 11  1  0
 11 12  1  0
 12 13  2  0
 12 14  1  0
 14 15  1  0
 15 16  1  0
 16 17  2  0
 16 26  1  0
 17 18  1  0
 18 19  2  0
 18 24  1  0
 19 20  1  0
 20 21  1  0
 21 22  2  0
 21 23  1  0
 23 24  2  0
 24 25  1  0
 25 26  1  0
 26 27  2  0
 28 29  2  0
M  CHG  1   3   1
M  END
