
     RDKit          3D

 30 34  0  0  0  0  0  0  0  0999 V2000
   -1.9890    1.3630    0.9320 O   0  0  0  0  0  0  0  0  0  0  0  0
   -1.8180    1.5700   -0.2840 C   0  0  0  0  0  0  0  0  0  0  0  0
   -2.8550    1.1280   -1.2380 C   0  0  0  0  0  0  0  0  0  0  0  0
   -3.9250    0.4090   -0.5250 C   0  0  0  0  0  0  0  0  0  0  0  0
   -5.1230    0.9630   -0.5390 C   0  0  0  0  0  0  0  0  0  0  0  0
   -6.2210    0.3110    0.1430 C   0  0  0  0  0  0  0  0  0  0  0  0
   -7.5640    0.5680    0.3410 C   0  0  0  0  0  0  0  0  0  0  0  0
   -8.0600   -0.4070    1.0550 O   0  0  0  0  0  0  0  0  0  0  0  0
   -7.1480   -1.2730    1.3360 C   0  0  0  0  0  0  0  0  0  0  0  0
   -5.9590   -0.8690    0.7820 C   0  0  0  0  0  0  0  0  0  0  0  0
   -4.7060   -1.4900    0.8300 N   0  0  0  0  0  0  0  0  0  0  0  0
   -3.6510   -0.8610    0.1270 C   0  0  0  0  0  0  0  0  0  0  0  0
   -0.6720    2.2110   -0.8010 N   0  0  0  0  0  0  0  0  0  0  0  0
    0.3920    2.6630    0.0420 C   0  0  0  0  0  0  0  0  0  0  0  0
    1.0750    1.5470    0.7470 C   0  0  1  0  0  0  0  0  0  0  0  0
    2.1900    2.0190    1.4760 O   0  0  0  0  0  0  0  0  0  0  0  0
    0.3180    0.7840    1.5920 O   0  0  0  0  0  0  0  0  0  0  0  0
    1.6970    0.6180   -0.3100 C   0  0  1  0  0  0  0  0  0  0  0  0
    2.5050    1.4210   -1.3040 C   0  0  0  0  0  0  0  0  0  0  0  0
    3.5500    0.6160   -1.8700 O   0  0  0  0  0  0  0  0  0  0  0  0
    4.3380   -0.2010   -1.0590 C   0  0  0  0  0  0  0  0  0  0  0  0
    5.6270   -0.5540   -1.3640 C   0  0  0  0  0  0  0  0  0  0  0  0
    6.4060   -1.3620   -0.5610 C   0  0  0  0  0  0  0  0  0  0  0  0
    5.8290   -1.8240    0.6030 C   0  0  0  0  0  0  0  0  0  0  0  0
    4.5310   -1.4880    0.9430 C   0  0  0  0  0  0  0  0  0  0  0  0
    3.7670   -0.6660    0.1060 C   0  0  0  0  0  0  0  0  0  0  0  0
    2.4800   -0.3080    0.4020 O   0  0  0  0  0  0  0  0  0  0  0  0
    6.7730   -2.6170    1.2680 O   0  0  0  0  0  0  0  0  0  0  0  0
    8.0590   -2.3360    0.7090 C   0  0  0  0  0  0  0  0  0  0  0  0
    7.6880   -1.8770   -0.5930 O   0  0  0  0  0  0  0  0  0  0  0  0
  1  2  2  0
  2  3  1  0
  2 13  1  0
  3  4  1  0
  4  5  2  0
  4 12  1  0
  5  6  1  0
  6  7  2  0
  6 10  1  0
  7  8  1  0
  8  9  1  0
  9 10  2  0
 10 11  1  0
 11 12  1  0
 13 14  1  0
 14 15  1  0
 15 16  1  1
 15 17  1  0
 15 18  1  0
 18 19  1  6
 18 27  1  0
 19 20  1  0
 20 21  1  0
 21 22  2  0
 21 26  1  0
 22 23  1  0
 23 24  2  0
 23 30  1  0
 24 25  1  0
 24 28  1  0
 25 26  2  0
 26 27  1  0
 28 29  1  0
 29 30  1  0
M  CHG  2  11   1  16  -1
M  END
