
     RDKit          3D

 29 31  0  0  0  0  0  0  0  0999 V2000
    6.9450    1.2320    0.1870 C   0  0  0  0  0  0  0  0  0  0  0  0
    6.1400   -0.0670    0.1280 C   0  0  2  0  0  0  0  0  0  0  0  0
    6.7000   -1.0780    1.0340 C   0  0  0  0  0  0  0  0  0  0  0  0
    8.0070   -1.6410    0.8290 N   0  0  0  0  0  0  0  0  0  0  0  0
    6.0740   -1.4970    2.0220 O   0  0  0  0  0  0  0  0  0  0  0  0
    6.1510   -0.6260   -1.2790 C   0  0  0  0  0  0  0  0  0  0  0  0
    4.5680   -1.5180   -1.2700 S   0  0  0  0  0  0  0  0  0  0  0  0
    3.9310   -0.8460    0.2950 C   0  0  2  0  0  0  0  0  0  0  0  0
    2.4930   -0.4630    0.0470 C   0  0  0  0  0  0  0  0  0  0  0  0
    1.6930   -1.3940   -0.2800 O   0  0  0  0  0  0  0  0  0  0  0  0
    2.0020    0.8400    0.1570 N   0  0  0  0  0  0  0  0  0  0  0  0
    0.6530    1.2110   -0.0690 C   0  0  0  0  0  0  0  0  0  0  0  0
    0.3410    2.5720   -0.2630 C   0  0  0  0  0  0  0  0  0  0  0  0
   -0.9250    3.0350   -0.4680 C   0  0  0  0  0  0  0  0  0  0  0  0
   -1.9850    2.1180   -0.4900 C   0  0  0  0  0  0  0  0  0  0  0  0
   -1.7350    0.7820   -0.3060 C   0  0  0  0  0  0  0  0  0  0  0  0
   -2.7840   -0.1640   -0.3030 N   0  0  0  0  0  0  0  0  0  0  0  0
   -4.1510    0.0910   -0.1510 C   0  0  0  0  0  0  0  0  0  0  0  0
   -4.5270    1.2490    0.0060 O   0  0  0  0  0  0  0  0  0  0  0  0
   -5.1360   -0.9370   -0.1700 N   0  0  0  0  0  0  0  0  0  0  0  0
   -6.5230   -0.7690   -0.0250 C   0  0  0  0  0  0  0  0  0  0  0  0
   -7.1820    0.4160    0.1610 C   0  0  0  0  0  0  0  0  0  0  0  0
   -8.5650    0.5190    0.2980 C   0  0  0  0  0  0  0  0  0  0  0  0
   -9.3470   -0.5900    0.2520 C   0  0  0  0  0  0  0  0  0  0  0  0
   -8.7240   -1.8010    0.0670 C   0  0  0  0  0  0  0  0  0  0  0  0
   -7.3360   -1.8960   -0.0700 C   0  0  0  0  0  0  0  0  0  0  0  0
   -6.8610   -3.1720   -0.2490 O   0  0  0  0  0  0  0  0  0  0  0  0
   -0.4180    0.3680   -0.1000 C   0  0  0  0  0  0  0  0  0  0  0  0
    4.7950    0.2740    0.4840 N   0  0  0  0  0  0  0  0  0  0  0  0
  2  1  1  6
  2  3  1  0
  2  6  1  0
  2 29  1  0
  3  4  1  0
  3  5  2  0
  6  7  1  0
  7  8  1  0
  8  9  1  6
  8 29  1  0
  9 10  2  0
  9 11  1  0
 11 12  1  0
 12 13  2  0
 12 28  1  0
 13 14  1  0
 14 15  2  0
 15 16  1  0
 16 17  1  0
 16 28  2  0
 17 18  1  0
 18 19  2  0
 18 20  1  0
 20 21  1  0
 21 22  2  0
 21 26  1  0
 22 23  1  0
 23 24  2  0
 24 25  1  0
 25 26  2  0
 26 27  1  0
M  CHG  1  29   1
M  END
