
     RDKit          3D

 29 31  0  0  0  0  0  0  0  0999 V2000
    5.0600   -0.9590    1.8430 C   0  0  0  0  0  0  0  0  0  0  0  0
    4.9900   -0.6440    0.3470 C   0  0  1  0  0  0  0  0  0  0  0  0
    6.2840   -1.0950   -0.2960 C   0  0  0  0  0  0  0  0  0  0  0  0
    3.8320   -1.4340   -0.2150 C   0  0  0  0  0  0  0  0  0  0  0  0
    2.5720   -0.6850    0.0420 C   0  0  0  0  0  0  0  0  0  0  0  0
    1.3400   -1.2690   -0.2620 C   0  0  0  0  0  0  0  0  0  0  0  0
    0.1540   -0.6030   -0.0370 C   0  0  0  0  0  0  0  0  0  0  0  0
   -1.0810   -1.1570   -0.3280 O   0  0  0  0  0  0  0  0  0  0  0  0
   -1.7280   -1.1000   -1.5380 C   0  0  0  0  0  0  0  0  0  0  0  0
   -1.1560   -0.4920   -2.4780 O   0  0  0  0  0  0  0  0  0  0  0  0
   -3.0550   -1.7120   -1.7970 C   0  0  0  0  0  0  0  0  0  0  0  0
   -3.6120   -2.4030   -0.5800 C   0  0  1  0  0  0  0  0  0  0  0  0
   -3.7980   -1.5350    0.5440 N   0  0  0  0  0  0  0  0  0  0  0  0
   -4.8660   -3.1070   -0.9500 C   0  0  0  0  0  0  0  0  0  0  0  0
   -5.3870   -4.0060   -0.2620 O   0  0  0  0  0  0  0  0  0  0  0  0
   -5.5210   -2.7540   -2.1430 O   0  0  0  0  0  0  0  0  0  0  0  0
    0.2110    0.6620    0.5000 C   0  0  0  0  0  0  0  0  0  0  0  0
   -0.9860    1.3240    0.7230 O   0  0  0  0  0  0  0  0  0  0  0  0
   -1.5020    2.1780   -0.2420 C   0  0  0  0  0  0  0  0  0  0  0  0
   -0.9000    2.3650   -1.3250 O   0  0  0  0  0  0  0  0  0  0  0  0
   -2.7680    2.8920   -0.0370 C   0  0  0  0  0  0  0  0  0  0  0  0
   -3.3470    3.7530   -0.9400 C   0  0  0  0  0  0  0  0  0  0  0  0
   -4.5200    4.2270   -0.3970 C   0  0  0  0  0  0  0  0  0  0  0  0
   -4.6270    3.6330    0.8440 C   0  0  0  0  0  0  0  0  0  0  0  0
   -3.5690    2.8330    1.0500 N   0  0  0  0  0  0  0  0  0  0  0  0
    1.4350    1.2630    0.8110 C   0  0  0  0  0  0  0  0  0  0  0  0
    2.6040    0.5800    0.5780 C   0  0  0  0  0  0  0  0  0  0  0  0
    3.8730    1.2840    0.9340 C   0  0  0  0  0  0  0  0  0  0  0  0
    4.8750    0.7120    0.1540 O   0  0  0  0  0  0  0  0  0  0  0  0
  2  1  1  1
  2  3  1  0
  2  4  1  0
  2 29  1  0
  4  5  1  0
  5  6  2  0
  5 27  1  0
  6  7  1  0
  7  8  1  0
  7 17  2  0
  8  9  1  0
  9 10  2  0
  9 11  1  0
 11 12  1  0
 12 13  1  1
 12 14  1  0
 14 15  2  0
 14 16  1  0
 17 18  1  0
 17 26  1  0
 18 19  1  0
 19 20  2  0
 19 21  1  0
 21 22  2  0
 21 25  1  0
 22 23  1  0
 23 24  2  0
 24 25  1  0
 26 27  2  0
 27 28  1  0
 28 29  1  0
M  CHG  2  13   1  16  -1
M  END
