
     RDKit          3D

 29 30  0  0  0  0  0  0  0  0999 V2000
   -3.3230    2.4970   -1.8950 C   0  0  0  0  0  0  0  0  0  0  0  0
   -2.5630    1.8700   -0.6860 C   0  0  0  0  0  0  0  0  0  0  0  0
   -3.2020    0.8330   -0.2060 C   0  0  0  0  0  0  0  0  0  0  0  0
   -3.1100   -0.1750    0.8190 C   0  0  0  0  0  0  0  0  0  0  0  0
   -2.9560   -1.4930    0.9040 C   0  0  0  0  0  0  0  0  0  0  0  0
   -2.9260   -2.0080    2.3290 C   0  0  0  0  0  0  0  0  0  0  0  0
   -2.7760   -3.3820    2.5990 N   0  0  0  0  0  0  0  0  0  0  0  0
   -3.0350   -1.2290    3.3120 O   0  0  0  0  0  0  0  0  0  0  0  0
   -2.8390   -2.5470   -0.0840 C   0  0  0  0  0  0  0  0  0  0  0  0
   -3.5030   -3.6190    0.2770 O   0  0  0  0  0  0  0  0  0  0  0  0
   -2.2240   -2.7810   -1.3380 N   0  0  0  0  0  0  0  0  0  0  0  0
   -2.8510   -3.3790   -2.4950 C   0  0  0  0  0  0  0  0  0  0  0  0
   -0.7960   -2.4350   -1.6330 C   0  0  0  0  0  0  0  0  0  0  0  0
   -0.6250   -1.0070   -1.2210 C   0  0  0  0  0  0  0  0  0  0  0  0
   -1.1220   -0.4430   -2.2640 O   0  0  0  0  0  0  0  0  0  0  0  0
   -0.1470   -0.2970   -0.1640 N   0  0  0  0  0  0  0  0  0  0  0  0
    0.4180    0.9540    0.1970 C   0  0  0  0  0  0  0  0  0  0  0  0
    1.5800    0.9290    0.8840 C   0  0  0  0  0  0  0  0  0  0  0  0
    2.1950   -0.2920    1.2230 N   0  0  0  0  0  0  0  0  0  0  0  0
    3.4010   -1.0880    0.2160 S   0  0  0  0  0  0  0  0  0  0  0  0
    4.8730   -0.0510    0.0070 C   0  0  1  0  0  0  0  0  0  0  0  0
    5.6330    0.1530    1.2990 C   0  0  0  0  0  0  0  0  0  0  0  0
    6.6890   -0.8300    0.8300 C   0  0  0  0  0  0  0  0  0  0  0  0
    6.0620   -0.7560   -0.5660 C   0  0  0  0  0  0  0  0  0  0  0  0
   -0.1310    2.3170   -0.0240 C   0  0  0  0  0  0  0  0  0  0  0  0
   -1.3640    2.6450   -0.3860 C   0  0  0  0  0  0  0  0  0  0  0  0
   -1.4840    4.1580   -0.4810 C   0  0  0  0  0  0  0  0  0  0  0  0
   -0.4550    5.0470   -0.2270 N   0  0  0  0  0  0  0  0  0  0  0  0
   -2.5980    4.6170   -0.8130 O   0  0  0  0  0  0  0  0  0  0  0  0
  1  2  1  0
  2  3  2  0
  2 26  1  0
  3  4  1  0
  4  5  2  0
  5  6  1  0
  5  9  1  0
  6  7  1  0
  6  8  2  0
  9 10  2  0
  9 11  1  0
 11 12  1  0
 11 13  1  0
 13 14  1  0
 14 15  2  0
 14 16  1  0
 16 17  1  0
 17 18  2  3
 17 25  1  0
 18 19  1  0
 19 20  1  0
 21 20  1  1
 21 22  1  0
 21 24  1  0
 22 23  1  0
 23 24  1  0
 25 26  2  0
 26 27  1  0
 27 28  1  0
 27 29  2  0
M  CHG  1  28   1
M  END
