
     RDKit          3D

 29 31  0  0  0  0  0  0  0  0999 V2000
   -8.5360   -0.4180   -0.8780 C   0  0  0  0  0  0  0  0  0  0  0  0
   -7.7260   -0.7530    0.3550 C   0  0  2  0  0  0  0  0  0  0  0  0
   -8.3010   -0.0430    1.4970 N   0  0  0  0  0  0  0  0  0  0  0  0
   -6.3030   -0.3680    0.1800 C   0  0  0  0  0  0  0  0  0  0  0  0
   -5.7370   -0.0580   -1.0380 C   0  0  0  0  0  0  0  0  0  0  0  0
   -4.4140    0.2930   -1.1630 C   0  0  0  0  0  0  0  0  0  0  0  0
   -3.6370    0.3300   -0.0060 C   0  0  0  0  0  0  0  0  0  0  0  0
   -2.2320    0.7020   -0.0810 C   0  0  0  0  0  0  0  0  0  0  0  0
   -1.8070    1.3870   -1.0590 O   0  0  0  0  0  0  0  0  0  0  0  0
   -1.3570    0.2870    0.9490 N   0  0  0  0  0  0  0  0  0  0  0  0
   -0.0040    0.6210    0.9180 N   0  0  0  0  0  0  0  0  0  0  0  0
    0.7800    0.3080   -0.2270 C   0  0  0  0  0  0  0  0  0  0  0  0
    0.2090   -0.2780   -1.2080 O   0  0  0  0  0  0  0  0  0  0  0  0
    2.2260    0.6430   -0.3030 C   0  0  0  0  0  0  0  0  0  0  0  0
    3.1410   -0.8450    0.2570 S   0  0  0  0  0  0  0  0  0  0  0  0
    4.9150   -0.5090    0.2170 C   0  0  0  0  0  0  0  0  0  0  0  0
    5.6800   -0.7340   -0.9100 C   0  0  0  0  0  0  0  0  0  0  0  0
    7.0520   -0.4620   -0.8920 C   0  0  0  0  0  0  0  0  0  0  0  0
    7.8480   -0.6730   -1.9990 C   0  0  0  0  0  0  0  0  0  0  0  0
    9.1720   -0.4190   -2.0110 N   0  0  0  0  0  0  0  0  0  0  0  0
    9.7830    0.0630   -0.9140 C   0  0  0  0  0  0  0  0  0  0  0  0
   11.0020    0.3240   -0.8400 O   0  0  0  0  0  0  0  0  0  0  0  0
    9.0370    0.2970    0.2360 C   0  0  0  0  0  0  0  0  0  0  0  0
    7.6680    0.0320    0.2370 C   0  0  0  0  0  0  0  0  0  0  0  0
    6.9040    0.2420    1.3220 N   0  0  0  0  0  0  0  0  0  0  0  0
    5.5720   -0.0150    1.3250 C   0  0  0  0  0  0  0  0  0  0  0  0
    4.8550    0.1880    2.3590 O   0  0  0  0  0  0  0  0  0  0  0  0
   -4.1690    0.0280    1.2250 C   0  0  0  0  0  0  0  0  0  0  0  0
   -5.5140   -0.3220    1.3000 C   0  0  0  0  0  0  0  0  0  0  0  0
  2  1  1  6
  2  3  1  0
  2  4  1  0
  4  5  2  0
  4 29  1  0
  5  6  1  0
  6  7  2  0
  7  8  1  0
  7 28  1  0
  8  9  2  0
  8 10  1  0
 10 11  1  0
 11 12  1  0
 12 13  2  0
 12 14  1  0
 14 15  1  0
 15 16  1  0
 16 17  2  0
 16 26  1  0
 17 18  1  0
 18 19  2  0
 18 24  1  0
 19 20  1  0
 20 21  1  0
 21 22  2  0
 21 23  1  0
 23 24  2  0
 24 25  1  0
 25 26  1  0
 26 27  2  0
 28 29  2  0
M  CHG  1   3   1
M  END
