
     RDKit          3D

 30 34  0  0  0  0  0  0  0  0999 V2000
   -1.9060    0.4930    0.5570 O   0  0  0  0  0  0  0  0  0  0  0  0
   -2.1120   -0.7260    0.5420 C   0  0  0  0  0  0  0  0  0  0  0  0
   -3.3940   -1.2890    0.1230 C   0  0  0  0  0  0  0  0  0  0  0  0
   -4.5250   -0.3880   -0.1270 C   0  0  0  0  0  0  0  0  0  0  0  0
   -4.5240    0.8880    0.0960 C   0  0  0  0  0  0  0  0  0  0  0  0
   -5.7520    1.6610   -0.2150 C   0  0  0  0  0  0  0  0  0  0  0  0
   -6.0790    2.9770   -0.1000 C   0  0  0  0  0  0  0  0  0  0  0  0
   -7.3250    3.0940   -0.5300 O   0  0  0  0  0  0  0  0  0  0  0  0
   -7.8010    1.9340   -0.9080 C   0  0  0  0  0  0  0  0  0  0  0  0
   -6.8110    0.9890   -0.7170 C   0  0  0  0  0  0  0  0  0  0  0  0
   -6.8480   -0.3860   -0.9780 N   0  0  0  0  0  0  0  0  0  0  0  0
   -5.7170   -1.1250   -0.6820 C   0  0  0  0  0  0  0  0  0  0  0  0
   -1.0490   -1.5670    0.9520 N   0  0  0  0  0  0  0  0  0  0  0  0
    0.2290   -1.1580    1.3610 C   0  0  0  0  0  0  0  0  0  0  0  0
    1.0160   -0.4930    0.2690 C   0  0  1  0  0  0  0  0  0  0  0  0
    1.0850   -1.3490   -0.8650 O   0  0  0  0  0  0  0  0  0  0  0  0
    0.3910    0.6450   -0.1720 O   0  0  0  0  0  0  0  0  0  0  0  0
    2.4490   -0.2170    0.7110 C   0  0  1  0  0  0  0  0  0  0  0  0
    3.0550   -1.4970    1.1990 C   0  0  0  0  0  0  0  0  0  0  0  0
    4.4510   -1.5400    1.0990 O   0  0  0  0  0  0  0  0  0  0  0  0
    5.2090   -0.7180    0.2820 C   0  0  0  0  0  0  0  0  0  0  0  0
    6.5920   -0.8110    0.2330 C   0  0  0  0  0  0  0  0  0  0  0  0
    7.2770    0.0430   -0.6060 C   0  0  0  0  0  0  0  0  0  0  0  0
    6.6160    0.9870   -1.3970 C   0  0  0  0  0  0  0  0  0  0  0  0
    5.2340    1.0370   -1.3110 C   0  0  0  0  0  0  0  0  0  0  0  0
    4.5130    0.2060   -0.4890 C   0  0  0  0  0  0  0  0  0  0  0  0
    3.1230    0.3000   -0.4400 O   0  0  0  0  0  0  0  0  0  0  0  0
    7.5830    1.6800   -2.1190 O   0  0  0  0  0  0  0  0  0  0  0  0
    8.8240    1.5310   -1.4120 C   0  0  0  0  0  0  0  0  0  0  0  0
    8.6390    0.2080   -0.8860 O   0  0  0  0  0  0  0  0  0  0  0  0
  1  2  2  0
  2  3  1  0
  2 13  1  0
  3  4  1  0
  4  5  2  0
  4 12  1  0
  5  6  1  0
  6  7  2  0
  6 10  1  0
  7  8  1  0
  8  9  1  0
  9 10  2  0
 10 11  1  0
 11 12  1  0
 13 14  1  0
 14 15  1  0
 15 16  1  6
 15 17  1  0
 15 18  1  0
 18 19  1  6
 18 27  1  0
 19 20  1  0
 20 21  1  0
 21 22  2  0
 21 26  1  0
 22 23  1  0
 23 24  2  0
 23 30  1  0
 24 25  1  0
 24 28  1  0
 25 26  2  0
 26 27  1  0
 28 29  1  0
 29 30  1  0
M  CHG  2  11   1  16  -1
M  END
