
     RDKit          3D

 31 35  0  0  0  0  0  0  0  0999 V2000
    0.4590   -4.2420    1.6980 N   0  0  0  0  0  0  0  0  0  0  0  0
   -0.5170   -3.6320    0.8570 C   0  0  0  0  0  0  0  0  0  0  0  0
   -1.4030   -4.3970    0.1950 N   0  0  0  0  0  0  0  0  0  0  0  0
   -2.3460   -3.8350   -0.6150 C   0  0  0  0  0  0  0  0  0  0  0  0
   -2.3980   -2.5160   -0.7560 N   0  0  0  0  0  0  0  0  0  0  0  0
   -1.5480   -1.6880   -0.1270 C   0  0  0  0  0  0  0  0  0  0  0  0
   -0.6010   -2.2690    0.6870 C   0  0  0  0  0  0  0  0  0  0  0  0
    0.1120   -1.2580    1.1890 N   0  0  0  0  0  0  0  0  0  0  0  0
   -0.3400   -0.0770    0.7320 C   0  0  0  0  0  0  0  0  0  0  0  0
    0.1680    1.2310    1.0420 N   0  0  0  0  0  0  0  0  0  0  0  0
    1.2840    1.4210    1.9360 C   0  0  0  0  0  0  0  0  0  0  0  0
    2.5170    0.7300    1.4270 C   0  0  0  0  0  0  0  0  0  0  0  0
    2.9390   -0.4660    1.9600 C   0  0  0  0  0  0  0  0  0  0  0  0
    4.0890   -1.0760    1.4540 C   0  0  0  0  0  0  0  0  0  0  0  0
    4.8080   -0.5160    0.4420 C   0  0  0  0  0  0  0  0  0  0  0  0
    5.9450   -1.1030   -0.0710 C   0  0  0  0  0  0  0  0  0  0  0  0
    6.6700   -0.5380   -1.0910 C   0  0  0  0  0  0  0  0  0  0  0  0
    6.2090    0.6730   -1.6030 C   0  0  0  0  0  0  0  0  0  0  0  0
    5.0740    1.2620   -1.0940 C   0  0  0  0  0  0  0  0  0  0  0  0
    4.3520    0.6910   -0.0710 C   0  0  0  0  0  0  0  0  0  0  0  0
    3.2450    1.2700    0.4220 N   0  0  0  0  0  0  0  0  0  0  0  0
   -1.3790   -0.3300   -0.0930 N   0  0  0  0  0  0  0  0  0  0  0  0
   -2.2210    0.5420   -0.8430 C   0  0  2  0  0  0  0  0  0  0  0  0
   -2.3170    1.8330   -0.3950 O   0  0  0  0  0  0  0  0  0  0  0  0
   -3.5260    2.3030   -0.9580 C   0  0  2  0  0  0  0  0  0  0  0  0
   -3.9190    3.6250   -0.3430 C   0  0  0  0  0  0  0  0  0  0  0  0
   -5.1110    4.0520   -0.9250 O   0  0  0  0  0  0  0  0  0  0  0  0
   -4.4660    1.1920   -0.5480 C   0  0  1  0  0  0  0  0  0  0  0  0
   -5.6360    1.1950   -1.3020 O   0  0  0  0  0  0  0  0  0  0  0  0
   -3.6260   -0.0290   -0.8520 C   0  0  1  0  0  0  0  0  0  0  0  0
   -3.8750   -0.5470   -2.1010 O   0  0  0  0  0  0  0  0  0  0  0  0
  1  2  1  0
  2  3  2  0
  2  7  1  0
  3  4  1  0
  4  5  2  0
  5  6  1  0
  6  7  2  0
  6 22  1  0
  7  8  1  0
  8  9  2  0
  9 10  1  0
  9 22  1  0
 10 11  1  0
 11 12  1  0
 12 13  2  0
 12 21  1  0
 13 14  1  0
 14 15  2  0
 15 16  1  0
 15 20  1  0
 16 17  2  0
 17 18  1  0
 18 19  2  0
 19 20  1  0
 20 21  2  0
 23 22  1  1
 23 24  1  0
 23 30  1  0
 24 25  1  0
 25 26  1  1
 25 28  1  0
 26 27  1  0
 28 29  1  6
 28 30  1  0
 30 31  1  6
M  END
