
     RDKit          3D

 29 30  0  0  0  0  0  0  0  0999 V2000
   -1.7080    2.8260   -1.7510 C   0  0  0  0  0  0  0  0  0  0  0  0
   -1.7700    1.2850   -1.5630 C   0  0  0  0  0  0  0  0  0  0  0  0
   -2.9280    0.8590   -1.0390 C   0  0  0  0  0  0  0  0  0  0  0  0
   -3.6030   -0.3420   -0.6410 C   0  0  0  0  0  0  0  0  0  0  0  0
   -3.9900   -1.0110    0.4360 C   0  0  0  0  0  0  0  0  0  0  0  0
   -4.7080   -2.3180    0.1260 C   0  0  0  0  0  0  0  0  0  0  0  0
   -4.9130   -2.7500   -1.2250 N   0  0  0  0  0  0  0  0  0  0  0  0
   -5.1540   -3.0770    0.9780 O   0  0  0  0  0  0  0  0  0  0  0  0
   -3.9540   -0.8140    1.8710 C   0  0  0  0  0  0  0  0  0  0  0  0
   -5.1280   -0.8500    2.5090 O   0  0  0  0  0  0  0  0  0  0  0  0
   -3.0250   -0.5740    2.9200 N   0  0  0  0  0  0  0  0  0  0  0  0
   -3.2170    0.2910    4.0590 C   0  0  0  0  0  0  0  0  0  0  0  0
   -1.6700   -1.1860    3.0150 C   0  0  0  0  0  0  0  0  0  0  0  0
   -1.0740   -0.9170    1.6830 C   0  0  0  0  0  0  0  0  0  0  0  0
   -1.5110   -1.8770    0.9980 O   0  0  0  0  0  0  0  0  0  0  0  0
   -0.2610    0.0260    1.1090 N   0  0  0  0  0  0  0  0  0  0  0  0
    0.7260    0.1750    0.0960 C   0  0  0  0  0  0  0  0  0  0  0  0
    1.9860    0.4520    0.5340 C   0  0  0  0  0  0  0  0  0  0  0  0
    2.9960    0.6040   -0.4820 N   0  0  0  0  0  0  0  0  0  0  0  0
    4.3900   -0.4400   -0.5910 S   0  0  0  0  0  0  0  0  0  0  0  0
    5.9170    0.3670   -0.0680 C   0  0  2  0  0  0  0  0  0  0  0  0
    7.0840   -0.5840   -0.1860 C   0  0  0  0  0  0  0  0  0  0  0  0
    7.0080   -0.8170    1.3110 C   0  0  0  0  0  0  0  0  0  0  0  0
    6.1280    0.4130    1.4300 C   0  0  0  0  0  0  0  0  0  0  0  0
    0.5060    0.1380   -1.3810 C   0  0  0  0  0  0  0  0  0  0  0  0
   -0.5580    0.6210   -2.0480 C   0  0  0  0  0  0  0  0  0  0  0  0
   -0.3260    0.5050   -3.5320 C   0  0  0  0  0  0  0  0  0  0  0  0
   -1.2640    0.9390   -4.4930 N   0  0  0  0  0  0  0  0  0  0  0  0
    0.7290    0.0100   -3.9980 O   0  0  0  0  0  0  0  0  0  0  0  0
  1  2  1  0
  2  3  2  0
  2 26  1  0
  3  4  1  0
  4  5  2  0
  5  6  1  0
  5  9  1  0
  6  7  1  0
  6  8  2  0
  9 10  2  0
  9 11  1  0
 11 12  1  0
 11 13  1  0
 13 14  1  0
 14 15  2  0
 14 16  1  0
 16 17  1  0
 17 18  2  3
 17 25  1  0
 18 19  1  0
 19 20  1  0
 21 20  1  1
 21 22  1  0
 21 24  1  0
 22 23  1  0
 23 24  1  0
 25 26  2  0
 26 27  1  0
 27 28  1  0
 27 29  2  0
M  CHG  1  28   1
M  END
