
     RDKit          3D

 29 31  0  0  0  0  0  0  0  0999 V2000
   -3.7610   -2.1930   -1.8760 N   0  0  0  0  0  0  0  0  0  0  0  0
   -3.1380   -0.9070   -1.6620 C   0  0  0  0  0  0  0  0  0  0  0  0
   -1.9300   -0.9450   -1.3700 O   0  0  0  0  0  0  0  0  0  0  0  0
   -3.9550    0.2980   -1.8040 C   0  0  2  0  0  0  0  0  0  0  0  0
   -3.1080    1.8550   -1.4850 S   0  0  0  0  0  0  0  0  0  0  0  0
   -2.6960    2.0240    0.2350 C   0  0  0  0  0  0  0  0  0  0  0  0
   -1.6640    1.1480    0.6900 N   0  0  0  0  0  0  0  0  0  0  0  0
   -0.3250    1.2890    0.1430 C   0  0  0  0  0  0  0  0  0  0  0  0
   -0.1110    2.1720   -0.7100 O   0  0  0  0  0  0  0  0  0  0  0  0
    0.6800    0.4340    0.5880 N   0  0  0  0  0  0  0  0  0  0  0  0
    2.0200    0.4610    0.1340 C   0  0  0  0  0  0  0  0  0  0  0  0
    2.5150    1.2190   -0.8860 C   0  0  0  0  0  0  0  0  0  0  0  0
    3.8570    1.2100   -1.2840 C   0  0  0  0  0  0  0  0  0  0  0  0
    4.7590    0.4010   -0.6320 C   0  0  0  0  0  0  0  0  0  0  0  0
    4.2970   -0.3810    0.4040 C   0  0  0  0  0  0  0  0  0  0  0  0
    2.9690   -0.3520    0.7760 C   0  0  0  0  0  0  0  0  0  0  0  0
    5.0360   -1.3310    1.2680 C   0  0  0  0  0  0  0  0  0  0  0  0
    6.3350   -1.7860    0.6730 C   0  0  0  0  0  0  0  0  0  0  0  0
    7.4160   -0.7320    0.7260 C   0  0  0  0  0  0  0  0  0  0  0  0
    7.3230    0.0260   -0.5680 C   0  0  0  0  0  0  0  0  0  0  0  0
    8.3920    0.2700   -1.1830 O   0  0  0  0  0  0  0  0  0  0  0  0
    6.0910    0.4790   -1.1260 N   0  0  0  0  0  0  0  0  0  0  0  0
   -5.1300    0.2630   -0.8700 C   0  0  0  0  0  0  0  0  0  0  0  0
   -6.3710    0.6280   -1.3230 C   0  0  0  0  0  0  0  0  0  0  0  0
   -7.4410    0.5680   -0.4200 C   0  0  0  0  0  0  0  0  0  0  0  0
   -7.2560    0.1790    0.8020 O   0  0  0  0  0  0  0  0  0  0  0  0
   -6.0860   -0.1790    1.2740 C   0  0  0  0  0  0  0  0  0  0  0  0
   -5.9480   -0.5600    2.4980 N   0  0  0  0  0  0  0  0  0  0  0  0
   -4.9840   -0.1430    0.4320 C   0  0  0  0  0  0  0  0  0  0  0  0
  1  2  1  0
  2  3  2  0
  2  4  1  0
  4  5  1  1
  4 23  1  0
  5  6  1  0
  6  7  1  0
  7  8  1  0
  8  9  2  0
  8 10  1  0
 10 11  1  0
 11 12  2  0
 11 16  1  0
 12 13  1  0
 13 14  2  0
 14 15  1  0
 14 22  1  0
 15 16  2  0
 15 17  1  0
 17 18  1  0
 18 19  1  0
 19 20  1  0
 20 21  2  0
 20 22  1  0
 23 24  1  0
 23 29  2  0
 24 25  2  0
 25 26  1  0
 26 27  1  0
 27 28  2  0
 27 29  1  0
M  CHG  1  28   1
M  END
