
     RDKit          3D

 29 31  0  0  0  0  0  0  0  0999 V2000
    6.1310   -0.4520    1.0150 C   0  0  0  0  0  0  0  0  0  0  0  0
    4.7930   -0.5540    0.3080 C   0  0  1  0  0  0  0  0  0  0  0  0
    4.8570   -1.8250   -0.5500 C   0  0  0  0  0  0  0  0  0  0  0  0
    3.7110   -0.7580    1.3030 C   0  0  0  0  0  0  0  0  0  0  0  0
    2.4660   -0.1240    0.8720 C   0  0  0  0  0  0  0  0  0  0  0  0
    1.2230   -0.7000    1.1530 C   0  0  0  0  0  0  0  0  0  0  0  0
    0.0690   -0.0580    0.7270 C   0  0  0  0  0  0  0  0  0  0  0  0
   -1.2040   -0.5590    0.9630 O   0  0  0  0  0  0  0  0  0  0  0  0
   -1.8690   -1.4090    0.1150 C   0  0  0  0  0  0  0  0  0  0  0  0
   -1.2970   -1.7630   -0.9470 O   0  0  0  0  0  0  0  0  0  0  0  0
   -3.2240   -1.9420    0.3680 C   0  0  0  0  0  0  0  0  0  0  0  0
   -3.7150   -2.8440   -0.7120 C   0  0  1  0  0  0  0  0  0  0  0  0
   -2.8620   -4.0030   -0.8960 N   0  0  0  0  0  0  0  0  0  0  0  0
   -5.0580   -3.3540   -0.3180 C   0  0  0  0  0  0  0  0  0  0  0  0
   -5.5290   -3.2320    0.8400 O   0  0  0  0  0  0  0  0  0  0  0  0
   -5.8550   -4.0030   -1.2520 O   0  0  0  0  0  0  0  0  0  0  0  0
    0.1660    1.1300    0.0370 C   0  0  0  0  0  0  0  0  0  0  0  0
   -0.9770    1.7820   -0.3940 O   0  0  0  0  0  0  0  0  0  0  0  0
   -1.5970    2.7220    0.4480 C   0  0  0  0  0  0  0  0  0  0  0  0
   -1.0640    2.9190    1.5690 O   0  0  0  0  0  0  0  0  0  0  0  0
   -2.7830    3.4380    0.0720 C   0  0  0  0  0  0  0  0  0  0  0  0
   -3.4410    4.3650    0.8370 C   0  0  0  0  0  0  0  0  0  0  0  0
   -4.5270    4.8120    0.1090 C   0  0  0  0  0  0  0  0  0  0  0  0
   -4.5090    4.1470   -1.0850 C   0  0  0  0  0  0  0  0  0  0  0  0
   -3.4650    3.3310   -1.0950 N   0  0  0  0  0  0  0  0  0  0  0  0
    1.4160    1.6880   -0.2330 C   0  0  0  0  0  0  0  0  0  0  0  0
    2.5700    1.0680    0.1800 C   0  0  0  0  0  0  0  0  0  0  0  0
    3.9430    1.5840   -0.0660 C   0  0  0  0  0  0  0  0  0  0  0  0
    4.6580    0.4940   -0.5590 O   0  0  0  0  0  0  0  0  0  0  0  0
  2  1  1  1
  2  3  1  0
  2  4  1  0
  2 29  1  0
  4  5  1  0
  5  6  2  0
  5 27  1  0
  6  7  1  0
  7  8  1  0
  7 17  2  0
  8  9  1  0
  9 10  2  0
  9 11  1  0
 11 12  1  0
 12 13  1  1
 12 14  1  0
 14 15  2  0
 14 16  1  0
 17 18  1  0
 17 26  1  0
 18 19  1  0
 19 20  2  0
 19 21  1  0
 21 22  2  0
 21 25  1  0
 22 23  1  0
 23 24  2  0
 24 25  1  0
 26 27  2  0
 27 28  1  0
 28 29  1  0
M  CHG  2  13   1  16  -1
M  END
