
     RDKit          3D

 24 24  0  0  0  0  0  0  0  0999 V2000
    0.9300   -0.2520    1.8780 C   0  0  0  0  0  0  0  0  0  0  0  0
    1.0030    0.0230    0.5920 C   0  0  0  0  0  0  0  0  0  0  0  0
    2.2810   -0.0710   -0.0270 N   0  0  0  0  0  0  0  0  0  0  0  0
    2.7410    0.9100   -0.8870 N   0  0  0  0  0  0  0  0  0  0  0  0
    2.7850    2.1210   -0.2930 O   0  0  0  0  0  0  0  0  0  0  0  0
    3.9580    0.5640   -1.4010 O   0  0  0  0  0  0  0  0  0  0  0  0
    5.1200    0.8830   -0.7050 C   0  0  0  0  0  0  0  0  0  0  0  0
    5.4850    2.1350   -0.5480 C   0  0  0  0  0  0  0  0  0  0  0  0
    6.1570   -0.4450    0.0010 P   0  0  0  0  0  0  0  0  0  0  0  0
    6.0820   -0.3190    1.8390 C   0  0  0  0  0  0  0  0  0  0  0  0
   -0.1290    0.3860   -0.1190 O   0  0  0  0  0  0  0  0  0  0  0  0
   -0.5290   -0.2010   -1.2890 C   0  0  0  0  0  0  0  0  0  0  0  0
   -1.6630   -0.8030   -1.5320 C   0  0  0  0  0  0  0  0  0  0  0  0
   -2.0700   -1.4470   -2.8510 C   0  0  0  0  0  0  0  0  0  0  0  0
   -2.7630   -2.5850   -2.2970 O   0  0  0  0  0  0  0  0  0  0  0  0
   -3.4520   -2.1100   -1.1610 C   0  0  0  0  0  0  0  0  0  0  0  0
   -4.6130   -2.7280   -0.6690 O   0  0  0  0  0  0  0  0  0  0  0  0
   -2.8290   -1.0500   -0.6850 C   0  0  0  0  0  0  0  0  0  0  0  0
   -3.2310   -0.2160    0.4470 C   0  0  0  0  0  0  0  0  0  0  0  0
   -2.4650    0.7640    0.8180 N   0  0  0  0  0  0  0  0  0  0  0  0
   -4.5240   -0.3820    1.1280 C   0  0  1  0  0  0  0  0  0  0  0  0
   -4.4490    0.2150    2.3960 F   0  0  0  0  0  0  0  0  0  0  0  0
   -5.6940    0.2390    0.4450 C   0  0  0  0  0  0  0  0  0  0  0  0
   -5.9990   -0.1640   -0.8150 O   0  0  0  0  0  0  0  0  0  0  0  0
  1  2  2  0
  2  3  1  0
  2 11  1  0
  3  4  1  0
  4  5  1  0
  4  6  1  0
  6  7  1  0
  7  8  2  0
  7  9  1  0
  9 10  1  0
 11 12  1  0
 12 13  2  3
 13 14  1  0
 13 18  1  0
 14 15  1  0
 15 16  1  0
 16 17  1  0
 16 18  2  0
 18 19  1  0
 19 20  2  0
 19 21  1  0
 21 22  1  1
 21 23  1  0
 23 24  1  0
M  END
