
     RDKit          3D

 24 24  0  0  0  0  0  0  0  0999 V2000
    5.0800   -1.8460   -1.1180 C   0  0  0  0  0  0  0  0  0  0  0  0
    4.1740   -1.3560   -0.2990 C   0  0  0  0  0  0  0  0  0  0  0  0
    4.2170    0.0370   -0.1150 O   0  0  0  0  0  0  0  0  0  0  0  0
    5.0470    0.6320    0.8140 C   0  0  0  0  0  0  0  0  0  0  0  0
    6.1050   -0.0180    1.2080 N   0  0  0  0  0  0  0  0  0  0  0  0
    3.1960   -2.1560    0.3770 C   0  0  0  0  0  0  0  0  0  0  0  0
    3.1370   -3.5860    0.1990 C   0  0  0  0  0  0  0  0  0  0  0  0
    2.2670   -4.3030    0.8010 O   0  0  0  0  0  0  0  0  0  0  0  0
    2.3290   -1.5860    1.1770 C   0  0  0  0  0  0  0  0  0  0  0  0
    2.4040   -0.2080    1.3310 O   0  0  0  0  0  0  0  0  0  0  0  0
    1.5120    0.6000    0.5880 C   0  0  0  0  0  0  0  0  0  0  0  0
    0.4320   -0.0120    0.2240 N   0  0  0  0  0  0  0  0  0  0  0  0
   -0.5040    0.7550   -0.5270 C   0  0  0  0  0  0  0  0  0  0  0  0
   -1.7100    0.1970   -0.9770 O   0  0  0  0  0  0  0  0  0  0  0  0
   -2.8140    0.0460   -0.1480 C   0  0  0  0  0  0  0  0  0  0  0  0
   -2.5930   -0.1070    1.1100 N   0  0  0  0  0  0  0  0  0  0  0  0
   -4.1190    0.0570   -0.6420 O   0  0  0  0  0  0  0  0  0  0  0  0
   -5.4180    0.1880    0.5640 P   0  0  0  0  0  0  0  0  0  0  0  0
   -5.7510    2.0150    0.7630 C   0  0  0  0  0  0  0  0  0  0  0  0
   -6.9740   -0.5880   -0.0740 C   0  0  0  0  0  0  0  0  0  0  0  0
   -0.2870    2.0140   -0.8360 C   0  0  0  0  0  0  0  0  0  0  0  0
   -1.2180    2.7180   -1.5640 F   0  0  0  0  0  0  0  0  0  0  0  0
    0.9260    2.7270   -0.4350 C   0  0  0  0  0  0  0  0  0  0  0  0
    1.7820    1.9030    0.2930 O   0  0  0  0  0  0  0  0  0  0  0  0
  1  2  2  0
  2  3  1  0
  2  6  1  0
  3  4  1  0
  4  5  2  0
  6  7  1  0
  6  9  2  3
  7  8  2  0
  9 10  1  0
 10 11  1  0
 11 12  2  0
 11 24  1  0
 12 13  1  0
 13 14  1  0
 13 21  2  0
 14 15  1  0
 15 16  2  0
 15 17  1  0
 17 18  1  0
 18 19  1  0
 18 20  1  0
 21 22  1  0
 21 23  1  0
 23 24  1  0
M  END
