
     RDKit          3D

 24 25  0  0  0  0  0  0  0  0999 V2000
   -4.4440    2.9960    0.4940 C   0  0  0  0  0  0  0  0  0  0  0  0
   -3.1750    2.5620    0.9510 O   0  0  0  0  0  0  0  0  0  0  0  0
   -2.6620    1.3430    0.5480 C   0  0  0  0  0  0  0  0  0  0  0  0
   -1.3460    1.0930    0.6230 C   0  0  0  0  0  0  0  0  0  0  0  0
   -0.3770    1.9590    1.0800 O   0  0  0  0  0  0  0  0  0  0  0  0
    0.8270    1.2910    0.9800 C   0  0  0  0  0  0  0  0  0  0  0  0
    0.5600   -0.0540    0.4170 C   0  0  0  0  0  0  0  0  0  0  0  0
    1.5860   -1.0190    0.0810 C   0  0  0  0  0  0  0  0  0  0  0  0
    1.3370   -2.2310   -0.5330 O   0  0  0  0  0  0  0  0  0  0  0  0
    2.3290   -2.6460   -1.9320 P   0  0  0  0  0  0  0  0  0  0  0  0
    2.8730   -0.8060    0.3390 C   0  0  0  0  0  0  0  0  0  0  0  0
    3.9060   -1.7270    0.0260 N   0  0  0  0  0  0  0  0  0  0  0  0
    4.7160   -2.1510    0.8610 O   0  0  0  0  0  0  0  0  0  0  0  0
    3.2340    0.4120    0.9540 N   0  0  0  0  0  0  0  0  0  0  0  0
    4.2940    1.0150    0.5770 C   0  0  0  0  0  0  0  0  0  0  0  0
    4.6740    2.2880    1.2180 C   0  0  0  0  0  0  0  0  0  0  0  0
    5.0670    0.5050   -0.3940 F   0  0  0  0  0  0  0  0  0  0  0  0
   -0.7630   -0.1710    0.2110 C   0  0  0  0  0  0  0  0  0  0  0  0
   -1.6360   -1.2470   -0.2610 C   0  0  2  0  0  0  0  0  0  0  0  0
   -1.2880   -2.6180    0.3180 C   0  0  0  0  0  0  0  0  0  0  0  0
   -1.5330   -1.2930   -1.6530 O   0  0  0  0  0  0  0  0  0  0  0  0
   -3.0760   -1.0080    0.0880 C   0  0  2  0  0  0  0  0  0  0  0  0
   -3.9270   -1.8460   -0.6570 O   0  0  0  0  0  0  0  0  0  0  0  0
   -3.5320    0.3420    0.0450 N   0  0  0  0  0  0  0  0  0  0  0  0
  1  2  1  0
  2  3  1  0
  3  4  2  0
  3 24  1  0
  4  5  1  0
  4 18  1  0
  5  6  1  0
  6  7  1  0
  7  8  1  0
  7 18  2  0
  8  9  1  0
  8 11  2  3
  9 10  1  0
 11 12  1  0
 11 14  1  0
 12 13  2  0
 14 15  2  3
 15 16  1  0
 15 17  1  0
 18 19  1  0
 19 20  1  1
 19 21  1  0
 19 22  1  0
 22 23  1  6
 22 24  1  0
M  END
