
     RDKit          3D

 25 26  0  0  0  0  0  0  0  0999 V2000
   -1.9310    4.1100   -1.1620 O   0  0  0  0  0  0  0  0  0  0  0  0
   -2.7910    3.2880   -0.7690 C   0  0  0  0  0  0  0  0  0  0  0  0
   -4.1210    3.6580   -0.7250 O   0  0  0  0  0  0  0  0  0  0  0  0
   -2.4290    2.0290   -0.3820 O   0  0  0  0  0  0  0  0  0  0  0  0
   -1.0910    1.5660   -0.3950 C   0  0  0  0  0  0  0  0  0  0  0  0
   -1.0150    0.1210    0.0920 C   0  0  2  0  0  0  0  0  0  0  0  0
    0.4170   -0.2570   -0.0080 C   0  0  0  0  0  0  0  0  0  0  0  0
    0.7230   -1.1810   -0.8010 O   0  0  0  0  0  0  0  0  0  0  0  0
    1.4140    0.3470    0.7160 O   0  0  0  0  0  0  0  0  0  0  0  0
    2.7680    0.0270    0.6550 C   0  0  0  0  0  0  0  0  0  0  0  0
    3.3540    0.2090   -0.7300 C   0  0  0  0  0  0  0  0  0  0  0  0
    5.1570   -0.2320   -0.7460 P   0  0  0  0  0  0  0  0  0  0  0  0
    5.4520   -1.4370    0.4750 O   0  0  0  0  0  0  0  0  0  0  0  0
    6.4860   -2.1690    0.1320 O   0  0  0  0  0  0  0  0  0  0  0  0
    6.1000    1.1990   -0.3820 O   0  0  0  0  0  0  0  0  0  0  0  0
    5.3390    2.2580   -0.3990 O   0  0  0  0  0  0  0  0  0  0  0  0
   -1.7800   -0.6560   -0.7500 O   0  0  0  0  0  0  0  0  0  0  0  0
   -2.6620   -1.5000   -0.1270 C   0  0  2  0  0  0  0  0  0  0  0  0
   -3.4160   -2.3350   -1.1210 C   0  0  0  0  0  0  0  0  0  0  0  0
   -4.3150   -1.2500   -1.2550 O   0  0  0  0  0  0  0  0  0  0  0  0
   -4.0530   -0.9860    0.1010 C   0  0  0  0  0  0  0  0  0  0  0  0
   -2.0710   -2.2500    1.0430 C   0  0  0  0  0  0  0  0  0  0  0  0
   -1.7190   -1.2450    2.0080 O   0  0  0  0  0  0  0  0  0  0  0  0
   -1.4720    0.0210    1.5020 C   0  0  0  0  0  0  0  0  0  0  0  0
   -1.6280    1.0320    2.2040 O   0  0  0  0  0  0  0  0  0  0  0  0
  1  2  2  0
  2  3  1  0
  2  4  1  0
  4  5  1  0
  6  5  1  6
  6  7  1  0
  6 17  1  0
  6 24  1  0
  7  8  2  0
  7  9  1  0
  9 10  1  0
 10 11  1  0
 11 12  1  0
 12 13  1  0
 12 15  1  0
 13 14  1  0
 15 16  1  0
 17 18  1  0
 18 19  1  6
 18 21  1  0
 18 22  1  0
 19 20  1  0
 20 21  1  0
 22 23  1  0
 23 24  1  0
 24 25  2  0
M  END
