
     RDKit          3D

 24 25  0  0  0  0  0  0  0  0999 V2000
    8.4770    0.1070    1.5810 C   0  0  0  0  0  0  0  0  0  0  0  0
    7.0720    0.0960    1.0920 C   0  0  0  0  0  0  0  0  0  0  0  0
    6.1240    0.1050    1.9080 O   0  0  0  0  0  0  0  0  0  0  0  0
    6.7740    0.0740   -0.2610 O   0  0  0  0  0  0  0  0  0  0  0  0
    5.4520    0.0650   -0.6390 C   0  0  0  0  0  0  0  0  0  0  0  0
    4.7920    1.2000   -0.8440 C   0  0  0  0  0  0  0  0  0  0  0  0
    3.4890    1.3150   -1.2180 O   0  0  0  0  0  0  0  0  0  0  0  0
    2.5720    0.3220   -1.4660 C   0  0  0  0  0  0  0  0  0  0  0  0
    1.3280    0.6960   -1.8280 C   0  0  0  0  0  0  0  0  0  0  0  0
    0.3590   -0.3020   -2.0910 N   0  0  0  0  0  0  0  0  0  0  0  0
   -0.9320   -0.2370   -1.4820 C   0  0  1  0  0  0  0  0  0  0  0  0
   -0.8150   -0.2700    0.0430 C   0  0  0  0  0  0  0  0  0  0  0  0
   -1.8780    0.6460    0.4150 N   0  0  0  0  0  0  0  0  0  0  0  0
   -2.8280    0.0430    1.2080 O   0  0  0  0  0  0  0  0  0  0  0  0
   -4.1730    0.3250    1.1280 C   0  0  0  0  0  0  0  0  0  0  0  0
   -4.6580    1.7110    1.1570 C   0  0  0  0  0  0  0  0  0  0  0  0
   -5.0270   -0.6730    1.0250 C   0  0  0  0  0  0  0  0  0  0  0  0
   -4.5680   -2.0900    0.9920 C   0  0  0  0  0  0  0  0  0  0  0  0
   -6.5030   -0.3970    0.9360 C   0  0  0  0  0  0  0  0  0  0  0  0
   -2.4010    1.1340   -0.7690 N   0  0  0  0  0  0  0  0  0  0  0  0
   -3.4480    0.4400   -1.2200 F   0  0  0  0  0  0  0  0  0  0  0  0
   -1.4140    1.0720   -1.6650 O   0  0  0  0  0  0  0  0  0  0  0  0
    2.8680   -1.1020   -1.3610 C   0  0  0  0  0  0  0  0  0  0  0  0
    4.4300   -1.4400   -0.9100 P   0  0  0  0  0  0  0  0  0  0  0  0
  1  2  1  0
  2  3  2  0
  2  4  1  0
  4  5  1  0
  5  6  2  0
  5 24  1  0
  6  7  1  0
  7  8  1  0
  8  9  2  3
  8 23  1  0
  9 10  1  0
 11 10  1  6
 11 12  1  0
 11 22  1  0
 12 13  1  0
 13 14  1  0
 13 20  1  0
 14 15  1  0
 15 16  1  0
 15 17  2  3
 17 18  1  0
 17 19  1  0
 20 21  1  0
 20 22  1  0
 23 24  2  0
M  END
