
     RDKit          3D

 24 24  0  0  0  0  0  0  0  0999 V2000
    5.6080   -1.7800   -0.7800 C   0  0  0  0  0  0  0  0  0  0  0  0
    4.1850   -1.6710   -0.4470 C   0  0  0  0  0  0  0  0  0  0  0  0
    3.5520   -0.4940   -0.2190 C   0  0  0  0  0  0  0  0  0  0  0  0
    4.4120    0.6980   -0.3310 C   0  0  0  0  0  0  0  0  0  0  0  0
    2.1360   -0.4970    0.1040 C   0  0  0  0  0  0  0  0  0  0  0  0
    1.5840   -1.8230    0.1380 O   0  0  0  0  0  0  0  0  0  0  0  0
    1.3620    0.5060    0.3490 C   0  0  0  0  0  0  0  0  0  0  0  0
    1.7580    1.9060    0.3550 C   0  0  0  0  0  0  0  0  0  0  0  0
   -0.0140    0.2310    0.6460 N   0  0  0  0  0  0  0  0  0  0  0  0
   -1.0980    1.0210    0.1680 C   0  0  1  0  0  0  0  0  0  0  0  0
   -1.2400    1.1310   -1.3250 C   0  0  0  0  0  0  0  0  0  0  0  0
   -2.6650    1.0090   -1.0450 C   0  0  0  0  0  0  0  0  0  0  0  0
   -3.8480    1.2860   -1.5090 C   0  0  0  0  0  0  0  0  0  0  0  0
   -4.8100    1.9730   -2.1110 C   0  0  0  0  0  0  0  0  0  0  0  0
   -5.3870    1.3020   -3.0680 F   0  0  0  0  0  0  0  0  0  0  0  0
   -5.2570    3.6580   -1.6500 P   0  0  0  0  0  0  0  0  0  0  0  0
   -5.3440    4.1880   -0.2080 O   0  0  0  0  0  0  0  0  0  0  0  0
   -2.3920    0.3660    0.1390 N   0  0  0  0  0  0  0  0  0  0  0  0
   -2.9560   -0.5150    1.0270 O   0  0  0  0  0  0  0  0  0  0  0  0
   -2.9490   -1.7520    0.4660 N   0  0  0  0  0  0  0  0  0  0  0  0
   -3.9620   -2.4760    1.0050 O   0  0  0  0  0  0  0  0  0  0  0  0
   -4.6190   -2.1910    2.1790 C   0  0  0  0  0  0  0  0  0  0  0  0
   -4.2490   -1.1550    2.8230 O   0  0  0  0  0  0  0  0  0  0  0  0
   -5.6570   -2.9850    2.6740 O   0  0  0  0  0  0  0  0  0  0  0  0
  1  2  1  0
  2  3  2  3
  3  4  1  0
  3  5  1  0
  5  6  1  0
  5  7  2  3
  7  8  1  0
  7  9  1  0
 10  9  1  6
 10 11  1  0
 10 18  1  0
 11 12  1  0
 12 13  2  0
 12 18  1  0
 13 14  2  0
 14 15  1  0
 14 16  1  0
 16 17  2  0
 18 19  1  0
 19 20  1  0
 20 21  1  0
 21 22  1  0
 22 23  2  0
 22 24  1  0
M  END
