
     RDKit          3D

 24 26  0  0  0  0  0  0  0  0999 V2000
    6.5170   -0.2520   -0.4090 C   0  0  0  0  0  0  0  0  0  0  0  0
    5.5800    0.5830   -0.7720 C   0  0  0  0  0  0  0  0  0  0  0  0
    4.4020    0.1820   -1.4730 N   0  0  0  0  0  0  0  0  0  0  0  0
    2.8270    0.5670   -0.7260 P   0  0  0  0  0  0  0  0  0  0  0  0
    2.9880    1.3720    0.8870 C   0  0  0  0  0  0  0  0  0  0  0  0
    1.6530   -0.6240   -0.8930 O   0  0  0  0  0  0  0  0  0  0  0  0
    0.7950   -0.7880    0.1750 C   0  0  2  0  0  0  0  0  0  0  0  0
    1.4460   -1.1300    1.3590 O   0  0  0  0  0  0  0  0  0  0  0  0
   -0.1270   -1.8440   -0.0760 O   0  0  0  0  0  0  0  0  0  0  0  0
   -1.4240   -1.3560   -0.1060 C   0  0  0  0  0  0  0  0  0  0  0  0
   -2.6570   -1.8280   -0.2890 C   0  0  0  0  0  0  0  0  0  0  0  0
   -2.7990   -3.2510   -0.5340 C   0  0  0  0  0  0  0  0  0  0  0  0
   -1.7790   -3.9750   -0.5660 O   0  0  0  0  0  0  0  0  0  0  0  0
   -3.9890   -3.8420   -0.7320 F   0  0  0  0  0  0  0  0  0  0  0  0
   -3.8900   -1.0300   -0.2630 C   0  0  0  0  0  0  0  0  0  0  0  0
   -3.7640    0.3670   -0.0230 N   0  0  0  0  0  0  0  0  0  0  0  0
   -4.9160    1.2400    0.0220 C   0  0  0  0  0  0  0  0  0  0  0  0
   -4.5110    2.5350    0.2690 O   0  0  0  0  0  0  0  0  0  0  0  0
   -2.4550    0.9170    0.1780 C   0  0  0  0  0  0  0  0  0  0  0  0
   -2.2180    2.1810    0.4060 C   0  0  0  0  0  0  0  0  0  0  0  0
   -1.0260    2.6120    0.5780 N   0  0  0  0  0  0  0  0  0  0  0  0
    0.1010    1.7880    0.5390 O   0  0  0  0  0  0  0  0  0  0  0  0
   -0.0520    0.4080    0.2990 C   0  0  0  0  0  0  0  0  0  0  0  0
   -1.3020    0.0480    0.1340 C   0  0  0  0  0  0  0  0  0  0  0  0
  1  2  2  0
  2  3  1  0
  3  4  1  0
  4  5  1  0
  4  6  1  0
  6  7  1  0
  7  8  1  1
  7  9  1  0
  7 23  1  0
  9 10  1  0
 10 11  2  0
 10 24  1  0
 11 12  1  0
 11 15  1  0
 12 13  2  0
 12 14  1  0
 15 16  1  0
 16 17  1  0
 16 19  1  0
 17 18  1  0
 19 20  2  0
 19 24  1  0
 20 21  2  0
 21 22  1  0
 22 23  1  0
 23 24  2  0
M  END
