
     RDKit          3D

 25 25  0  0  0  0  0  0  0  0999 V2000
    7.2200    0.8860    1.4410 O   0  0  0  0  0  0  0  0  0  0  0  0
    6.0530    0.7320    1.9400 C   0  0  0  0  0  0  0  0  0  0  0  0
    5.0090    0.3580    1.1190 O   0  0  0  0  0  0  0  0  0  0  0  0
    5.2280    0.1480   -0.2630 C   0  0  0  0  0  0  0  0  0  0  0  0
    3.9880   -0.2530   -0.9910 C   0  0  0  0  0  0  0  0  0  0  0  0
    2.9740    0.6770   -0.9210 O   0  0  0  0  0  0  0  0  0  0  0  0
    1.5720    0.1460   -1.7900 P   0  0  0  0  0  0  0  0  0  0  0  0
    1.0140   -1.4060   -1.2330 O   0  0  0  0  0  0  0  0  0  0  0  0
    0.6830   -1.2430    0.0910 C   0  0  0  0  0  0  0  0  0  0  0  0
   -0.5740   -0.5680    0.4010 C   0  0  0  0  0  0  0  0  0  0  0  0
   -1.5220   -0.2900   -0.7210 C   0  0  1  0  0  0  0  0  0  0  0  0
   -1.9450   -1.6330   -1.2760 C   0  0  0  0  0  0  0  0  0  0  0  0
   -2.4790   -2.5330   -0.3760 O   0  0  0  0  0  0  0  0  0  0  0  0
   -3.6380   -2.4240    0.3300 C   0  0  0  0  0  0  0  0  0  0  0  0
   -4.4050   -1.4390    0.2310 O   0  0  0  0  0  0  0  0  0  0  0  0
   -4.0580   -3.4250    1.2300 O   0  0  0  0  0  0  0  0  0  0  0  0
   -2.6850    0.2990   -0.2050 O   0  0  0  0  0  0  0  0  0  0  0  0
   -2.8050    1.4720    0.4690 C   0  0  0  0  0  0  0  0  0  0  0  0
   -1.7900    2.1480    0.6800 O   0  0  0  0  0  0  0  0  0  0  0  0
   -4.0790    1.8760    0.9040 O   0  0  0  0  0  0  0  0  0  0  0  0
   -4.2020    3.0690    1.5880 C   0  0  0  0  0  0  0  0  0  0  0  0
   -3.2270    3.7990    1.8350 O   0  0  0  0  0  0  0  0  0  0  0  0
   -5.4550    3.5170    2.0430 O   0  0  0  0  0  0  0  0  0  0  0  0
   -0.9280    0.4840   -1.8610 C   0  0  0  0  0  0  0  0  0  0  0  0
    0.2160    1.1940   -1.5020 O   0  0  0  0  0  0  0  0  0  0  0  0
  1  2  2  0
  2  3  1  0
  3  4  1  0
  4  5  1  0
  5  6  1  0
  6  7  1  0
  7  8  1  0
  7 25  1  0
  8  9  1  0
  9 10  1  0
 10 11  1  0
 11 12  1  6
 11 17  1  0
 11 24  1  0
 12 13  1  0
 13 14  1  0
 14 15  2  0
 14 16  1  0
 17 18  1  0
 18 19  2  0
 18 20  1  0
 20 21  1  0
 21 22  2  0
 21 23  1  0
 24 25  1  0
M  END
