
     RDKit          3D

 26 29  0  0  0  0  0  0  0  0999 V2000
    6.5920    0.7330    0.2830 C   0  0  0  0  0  0  0  0  0  0  0  0
    6.2410   -0.1200   -0.7890 O   0  0  0  0  0  0  0  0  0  0  0  0
    4.8990   -0.5220   -0.8920 C   0  0  0  0  0  0  0  0  0  0  0  0
    4.4810   -1.3510   -1.9070 C   0  0  0  0  0  0  0  0  0  0  0  0
    3.1660   -1.7500   -2.0160 C   0  0  0  0  0  0  0  0  0  0  0  0
    2.2510   -1.3000   -1.0770 C   0  0  0  0  0  0  0  0  0  0  0  0
    0.9130   -1.5310   -0.9440 N   0  0  0  0  0  0  0  0  0  0  0  0
    0.4420   -0.8800    0.1240 N   0  0  0  0  0  0  0  0  0  0  0  0
   -0.9040   -0.8890    0.5780 C   0  0  0  0  0  0  0  0  0  0  0  0
   -1.8130    0.1600    0.0540 C   0  0  1  0  0  0  0  0  0  0  0  0
   -3.1710   -0.0610    0.6840 C   0  0  0  0  0  0  0  0  0  0  0  0
   -4.0280   -1.0240    0.1950 C   0  0  0  0  0  0  0  0  0  0  0  0
   -5.2760   -1.2530    0.7470 C   0  0  0  0  0  0  0  0  0  0  0  0
   -5.6930   -0.5050    1.8200 C   0  0  0  0  0  0  0  0  0  0  0  0
   -4.8490    0.4590    2.3190 C   0  0  0  0  0  0  0  0  0  0  0  0
   -3.5980    0.6850    1.7610 C   0  0  0  0  0  0  0  0  0  0  0  0
   -1.3790    1.5080    0.3300 N   0  0  0  0  0  0  0  0  0  0  0  0
   -1.9430    2.3220   -0.6920 C   0  0  0  0  0  0  0  0  0  0  0  0
   -2.0840    3.5910   -0.6340 O   0  0  0  0  0  0  0  0  0  0  0  0
   -2.3250    1.5020   -1.7870 N   0  0  0  0  0  0  0  0  0  0  0  0
   -1.9850    0.1740   -1.4160 C   0  0  0  0  0  0  0  0  0  0  0  0
   -1.8690   -0.7660   -2.2440 O   0  0  0  0  0  0  0  0  0  0  0  0
    1.4760   -0.2270    0.6830 C   0  0  0  0  0  0  0  0  0  0  0  0
    1.4370    0.4950    1.7060 O   0  0  0  0  0  0  0  0  0  0  0  0
    2.6300   -0.4690   -0.0470 C   0  0  0  0  0  0  0  0  0  0  0  0
    3.9460   -0.0980    0.0240 C   0  0  0  0  0  0  0  0  0  0  0  0
  1  2  1  0
  2  3  1  0
  3  4  2  0
  3 26  1  0
  4  5  1  0
  5  6  2  0
  6  7  1  0
  6 25  1  0
  7  8  1  0
  8  9  1  0
  8 23  1  0
 10  9  1  6
 10 11  1  0
 10 17  1  0
 10 21  1  0
 11 12  2  0
 11 16  1  0
 12 13  1  0
 13 14  2  0
 14 15  1  0
 15 16  2  0
 17 18  1  0
 18 19  2  0
 18 20  1  0
 20 21  1  0
 21 22  2  0
 23 24  2  0
 23 25  1  0
 25 26  2  0
M  END
