
     RDKit          3D

 13 12  0  0  0  0  0  0  0  0999 V2000
   -2.6950   -2.2800    0.3470 C   0  0  0  0  0  0  0  0  0  0  0  0
   -2.8130   -0.9880    0.4340 C   0  0  0  0  0  0  0  0  0  0  0  0
   -4.4980   -0.5000    0.8700 Cl  0  0  0  0  0  0  0  0  0  0  0  0
   -1.8610    0.0540    0.2480 C   0  0  0  0  0  0  0  0  0  0  0  0
   -0.4760   -0.1290   -0.1000 C   0  0  0  0  0  0  0  0  0  0  0  0
    0.2900   -1.1200   -0.3340 C   0  0  0  0  0  0  0  0  0  0  0  0
    1.7200   -0.8710   -0.6740 C   0  0  0  0  0  0  0  0  0  0  0  0
    2.5250   -1.7940   -0.9140 O   0  0  0  0  0  0  0  0  0  0  0  0
    2.1700    0.4280   -0.7250 O   0  0  0  0  0  0  0  0  0  0  0  0
    3.5090    0.6810   -1.0420 C   0  0  0  0  0  0  0  0  0  0  0  0
    4.4610    0.0390   -0.0500 C   0  0  0  0  0  0  0  0  0  0  0  0
   -2.2320    1.3400    0.3980 C   0  0  0  0  0  0  0  0  0  0  0  0
   -3.5200    1.8890    0.7400 C   0  0  0  0  0  0  0  0  0  0  0  0
  1  2  2  0
  2  3  1  0
  2  4  1  0
  4  5  1  0
  4 12  2  3
  5  6  2  3
  6  7  1  0
  7  8  2  0
  7  9  1  0
  9 10  1  0
 10 11  1  0
 12 13  1  0
M  END
