
     RDKit          3D

 12 12  0  0  0  0  0  0  0  0999 V2000
   -2.7160   -1.3910   -0.0400 C   0  0  0  0  0  0  0  0  0  0  0  0
   -2.5590   -0.1650   -0.6720 O   0  0  0  0  0  0  0  0  0  0  0  0
   -1.6830    0.6850   -0.0260 C   0  0  0  0  0  0  0  0  0  0  0  0
   -0.2980    0.2230   -0.1940 C   0  0  0  0  0  0  0  0  0  0  0  0
    0.0870   -0.8040   -1.0270 C   0  0  0  0  0  0  0  0  0  0  0  0
    1.4470   -1.1170   -1.1510 C   0  0  0  0  0  0  0  0  0  0  0  0
    1.9050   -2.4290   -2.2130 Cl  0  0  0  0  0  0  0  0  0  0  0  0
    2.4280   -0.4360   -0.4730 C   0  0  0  0  0  0  0  0  0  0  0  0
    3.7840   -0.7570   -0.6040 O   0  0  0  0  0  0  0  0  0  0  0  0
    2.0110    0.5880    0.3510 C   0  0  0  0  0  0  0  0  0  0  0  0
    0.6890    0.9310    0.5060 C   0  0  0  0  0  0  0  0  0  0  0  0
    0.2650    2.0290    1.3890 C   0  0  0  0  0  0  0  0  0  0  0  0
  1  2  1  0
  2  3  1  0
  3  4  1  0
  4  5  2  0
  4 11  1  0
  5  6  1  0
  6  7  1  0
  6  8  2  0
  8  9  1  0
  8 10  1  0
 10 11  2  0
 11 12  1  0
M  END
