
     RDKit          3D

 13 13  0  0  0  0  0  0  0  0999 V2000
    4.5630    0.2380   -0.1270 C   0  0  0  0  0  0  0  0  0  0  0  0
    3.8870    0.6320    1.1430 C   0  0  0  0  0  0  0  0  0  0  0  0
    2.5090    0.8860    1.0010 O   0  0  0  0  0  0  0  0  0  0  0  0
    1.5810   -0.0270    0.5600 C   0  0  0  0  0  0  0  0  0  0  0  0
    2.0000   -1.1750    0.2620 O   0  0  0  0  0  0  0  0  0  0  0  0
    0.1310    0.2810    0.4230 C   0  0  0  0  0  0  0  0  0  0  0  0
   -0.6650   -0.8730   -0.0740 C   0  0  0  0  0  0  0  0  0  0  0  0
   -2.1000   -0.4220   -0.1620 C   0  0  0  0  0  0  0  0  0  0  0  0
   -2.5980    0.7640    0.1350 C   0  0  0  0  0  0  0  0  0  0  0  0
   -4.0560    0.7650   -0.1010 C   0  0  0  0  0  0  0  0  0  0  0  0
   -4.3330   -0.6020   -0.5820 C   0  0  0  0  0  0  0  0  0  0  0  0
   -3.1970   -1.2650   -0.6090 C   0  0  0  0  0  0  0  0  0  0  0  0
   -3.1080   -2.9530   -1.1330 Cl  0  0  0  0  0  0  0  0  0  0  0  0
  1  2  1  0
  2  3  1  0
  3  4  1  0
  4  5  2  0
  4  6  1  0
  6  7  1  0
  7  8  1  0
  8  9  2  0
  8 12  1  0
  9 10  1  0
 10 11  1  0
 11 12  2  0
 12 13  1  0
M  END
