
     RDKit          3D

 13 13  0  0  0  0  0  0  0  0999 V2000
   -4.0790    0.0990    2.2470 Cl  0  0  0  0  0  0  0  0  0  0  0  0
   -4.0520    1.1160    0.7910 C   0  0  0  0  0  0  0  0  0  0  0  0
   -3.4840    0.3160   -0.3890 C   0  0  0  0  0  0  0  0  0  0  0  0
   -2.0880   -0.0880    0.0140 C   0  0  0  0  0  0  0  0  0  0  0  0
   -1.3970   -0.8930   -1.0680 C   0  0  0  0  0  0  0  0  0  0  0  0
   -0.0070   -1.2270   -0.5200 C   0  0  0  0  0  0  0  0  0  0  0  0
    0.6670   -0.0120   -0.2590 O   0  0  0  0  0  0  0  0  0  0  0  0
    1.9550    0.0260    0.2480 C   0  0  0  0  0  0  0  0  0  0  0  0
    2.6820    1.0970    0.0240 C   0  0  0  0  0  0  0  0  0  0  0  0
    4.0600    1.2420    0.5150 C   0  0  0  0  0  0  0  0  0  0  0  0
    4.5590    0.1620    1.2440 O   0  0  0  0  0  0  0  0  0  0  0  0
    3.8010   -0.9560    1.4790 C   0  0  0  0  0  0  0  0  0  0  0  0
    2.5590   -1.0620    1.0240 C   0  0  0  0  0  0  0  0  0  0  0  0
  1  2  1  0
  2  3  1  0
  3  4  1  0
  4  5  1  0
  5  6  1  0
  6  7  1  0
  7  8  1  0
  8  9  2  0
  8 13  1  0
  9 10  1  0
 10 11  1  0
 11 12  1  0
 12 13  2  0
M  END
