
     RDKit          3D

 13 13  0  0  0  0  0  0  0  0999 V2000
   -2.1810   -1.4130    0.6860 C   0  0  0  0  0  0  0  0  0  0  0  0
   -2.0050   -0.0980   -0.0440 C   0  0  1  0  0  0  0  0  0  0  0  0
   -2.4850   -0.2800   -1.4590 C   0  0  0  0  0  0  0  0  0  0  0  0
   -2.7860    1.0020    0.6570 C   0  0  0  0  0  0  0  0  0  0  0  0
   -0.5470    0.2850    0.0130 C   0  0  0  0  0  0  0  0  0  0  0  0
   -0.0170    1.5200    0.2900 C   0  0  0  0  0  0  0  0  0  0  0  0
    1.3720    1.3600    0.2280 C   0  0  0  0  0  0  0  0  0  0  0  0
    1.6250    0.0680   -0.0770 C   0  0  0  0  0  0  0  0  0  0  0  0
    2.9250   -0.6170   -0.2580 C   0  0  2  0  0  0  0  0  0  0  0  0
    2.8810   -1.8980    0.3590 O   0  0  0  0  0  0  0  0  0  0  0  0
    4.0720    0.0890    0.4090 C   0  0  0  0  0  0  0  0  0  0  0  0
    4.3720    1.7320   -0.1740 Cl  0  0  0  0  0  0  0  0  0  0  0  0
    0.4370   -0.5270   -0.1940 O   0  0  0  0  0  0  0  0  0  0  0  0
  2  1  1  1
  2  3  1  0
  2  4  1  0
  2  5  1  0
  5  6  2  0
  5 13  1  0
  6  7  1  0
  7  8  2  0
  8  9  1  0
  8 13  1  0
  9 10  1  1
  9 11  1  0
 11 12  1  0
M  END
