
     RDKit          3D

 13 13  0  0  0  0  0  0  0  0999 V2000
    4.1610    0.7720    0.1230 C   0  0  0  0  0  0  0  0  0  0  0  0
    3.7370   -0.5910   -0.3290 C   0  0  0  0  0  0  0  0  0  0  0  0
    2.3160   -0.6470   -0.8010 C   0  0  0  0  0  0  0  0  0  0  0  0
    1.3890   -0.2500    0.2810 C   0  0  0  0  0  0  0  0  0  0  0  0
    1.8550    0.0760    1.4190 O   0  0  0  0  0  0  0  0  0  0  0  0
    0.0310   -0.2100    0.1280 O   0  0  0  0  0  0  0  0  0  0  0  0
   -0.8590    0.1700    1.1640 C   0  0  0  0  0  0  0  0  0  0  0  0
   -2.2610    0.0970    0.6420 C   0  0  0  0  0  0  0  0  0  0  0  0
   -3.2290   -0.6620    1.1210 C   0  0  0  0  0  0  0  0  0  0  0  0
   -4.4630   -0.4500    0.3350 C   0  0  0  0  0  0  0  0  0  0  0  0
   -4.0700    0.5480   -0.6770 C   0  0  0  0  0  0  0  0  0  0  0  0
   -2.8030    0.8490   -0.4840 C   0  0  0  0  0  0  0  0  0  0  0  0
   -1.9440    2.0160   -1.4940 Cl  0  0  0  0  0  0  0  0  0  0  0  0
  1  2  1  0
  2  3  1  0
  3  4  1  0
  4  5  2  0
  4  6  1  0
  6  7  1  0
  7  8  1  0
  8  9  2  0
  8 12  1  0
  9 10  1  0
 10 11  1  0
 11 12  2  0
 12 13  1  0
M  END
