
     RDKit          3D

 13 12  0  0  0  0  0  0  0  0999 V2000
   -2.1510   -2.5320    0.7750 C   0  0  0  0  0  0  0  0  0  0  0  0
   -2.6680   -1.3840    0.0580 C   0  0  0  0  0  0  0  0  0  0  0  0
   -1.9190   -0.2940   -0.3240 C   0  0  0  0  0  0  0  0  0  0  0  0
   -2.6160    0.7440   -1.0280 C   0  0  0  0  0  0  0  0  0  0  0  0
   -2.2500    1.8550   -1.5120 C   0  0  0  0  0  0  0  0  0  0  0  0
   -0.6930    2.5790   -1.5100 Cl  0  0  0  0  0  0  0  0  0  0  0  0
   -0.5260   -0.2710    0.0010 C   0  0  0  0  0  0  0  0  0  0  0  0
   -0.0770   -1.3050    0.6420 O   0  0  0  0  0  0  0  0  0  0  0  0
    0.3880    0.7080   -0.2840 O   0  0  0  0  0  0  0  0  0  0  0  0
    1.7250    0.5580    0.1160 C   0  0  1  0  0  0  0  0  0  0  0  0
    2.2890   -0.6880   -0.5350 C   0  0  0  0  0  0  0  0  0  0  0  0
    2.4900    1.7770   -0.3340 C   0  0  0  0  0  0  0  0  0  0  0  0
    1.7920    0.4840    1.6190 C   0  0  0  0  0  0  0  0  0  0  0  0
  1  2  1  0
  2  3  2  3
  3  4  1  0
  3  7  1  0
  4  5  2  3
  5  6  1  0
  7  8  2  0
  7  9  1  0
  9 10  1  0
 10 11  1  6
 10 12  1  0
 10 13  1  0
M  END
