
     RDKit          3D

 33 36  0  0  0  0  0  0  0  0999 V2000
   -3.8950   -3.5540    2.8820 C   0  0  0  0  0  0  0  0  0  0  0  0
   -3.8980   -2.4350    1.9030 C   0  0  0  0  0  0  0  0  0  0  0  0
   -5.1080   -2.1230    1.3190 C   0  0  0  0  0  0  0  0  0  0  0  0
   -5.1500   -1.0910    0.4070 C   0  0  0  0  0  0  0  0  0  0  0  0
   -3.9830   -0.3830    0.0890 C   0  0  0  0  0  0  0  0  0  0  0  0
   -2.7740   -0.6780    0.6570 C   0  0  0  0  0  0  0  0  0  0  0  0
   -1.6000    0.0360    0.3420 N   0  0  0  0  0  0  0  0  0  0  0  0
   -1.5440    1.1400   -0.5160 C   0  0  0  0  0  0  0  0  0  0  0  0
   -0.5740    1.3380   -1.6180 C   0  0  0  0  0  0  0  0  0  0  0  0
    0.7950    1.1710   -1.2820 N   0  0  0  0  0  0  0  0  0  0  0  0
    1.4490   -0.0640   -1.0460 C   0  0  0  0  0  0  0  0  0  0  0  0
    0.8580   -1.2660   -1.3330 C   0  0  0  0  0  0  0  0  0  0  0  0
    1.5510   -2.4230   -1.0770 C   0  0  0  0  0  0  0  0  0  0  0  0
    2.8240   -2.4190   -0.5390 C   0  0  0  0  0  0  0  0  0  0  0  0
    3.4660   -3.5620   -0.3040 N   0  0  0  0  0  0  0  0  0  0  0  0
    4.7110   -3.5230    0.2230 C   0  0  0  0  0  0  0  0  0  0  0  0
    5.3320   -4.6010    0.4520 O   0  0  0  0  0  0  0  0  0  0  0  0
    5.2770   -2.3090    0.5010 C   0  0  0  0  0  0  0  0  0  0  0  0
    6.4360   -2.2980    0.9910 O   0  0  0  0  0  0  0  0  0  0  0  0
    4.6680   -1.1200    0.2810 N   0  0  0  0  0  0  0  0  0  0  0  0
    5.3230    0.1160    0.5960 C   0  0  0  0  0  0  0  0  0  0  0  0
    5.0520    0.5740    1.9910 C   0  0  0  0  0  0  0  0  0  0  0  0
    3.9630    1.4190    2.3410 N   0  0  0  0  0  0  0  0  0  0  0  0
    5.8020    0.2240    2.9650 O   0  0  0  0  0  0  0  0  0  0  0  0
    3.4290   -1.1960   -0.2450 C   0  0  0  0  0  0  0  0  0  0  0  0
    2.7160   -0.0740   -0.5110 C   0  0  0  0  0  0  0  0  0  0  0  0
   -2.4630    2.0630   -0.2860 N   0  0  0  0  0  0  0  0  0  0  0  0
   -2.4940    3.2200   -1.0970 C   0  0  0  0  0  0  0  0  0  0  0  0
   -1.7870    4.3190   -0.9080 C   0  0  0  0  0  0  0  0  0  0  0  0
   -2.1240    5.2760   -1.9850 C   0  0  0  0  0  0  0  0  0  0  0  0
   -3.1110    4.5760   -2.8060 C   0  0  0  0  0  0  0  0  0  0  0  0
   -3.3150    3.3850   -2.2790 C   0  0  0  0  0  0  0  0  0  0  0  0
   -2.7600   -1.7300    1.5800 C   0  0  0  0  0  0  0  0  0  0  0  0
  1  2  1  0
  2  3  2  0
  2 33  1  0
  3  4  1  0
  4  5  2  0
  5  6  1  0
  6  7  1  0
  6 33  2  0
  7  8  1  0
  8  9  1  0
  8 27  2  3
  9 10  1  0
 10 11  1  0
 11 12  2  0
 11 26  1  0
 12 13  1  0
 13 14  2  0
 14 15  1  0
 14 25  1  0
 15 16  1  0
 16 17  2  0
 16 18  1  0
 18 19  2  0
 18 20  1  0
 20 21  1  0
 20 25  1  0
 21 22  1  0
 22 23  1  0
 22 24  2  0
 25 26  2  0
 27 28  1  0
 28 29  2  0
 28 32  1  0
 29 30  1  0
 30 31  1  0
 31 32  2  0
M  END
