
     RDKit          3D

 33 36  0  0  0  0  0  0  0  0999 V2000
   -8.0150    3.8030   -0.4150 C   0  0  0  0  0  0  0  0  0  0  0  0
   -8.9690    2.9000    0.0230 O   0  0  0  0  0  0  0  0  0  0  0  0
   -8.9610    1.7050   -0.6640 C   0  0  0  0  0  0  0  0  0  0  0  0
   -7.6790    0.9590   -0.5600 C   0  0  0  0  0  0  0  0  0  0  0  0
   -6.7220    1.1020    0.4190 C   0  0  0  0  0  0  0  0  0  0  0  0
   -5.7120    0.2150    0.1020 C   0  0  0  0  0  0  0  0  0  0  0  0
   -4.5060   -0.1060    0.6860 C   0  0  0  0  0  0  0  0  0  0  0  0
   -3.6880   -1.0590    0.1270 C   0  0  0  0  0  0  0  0  0  0  0  0
   -2.4340   -1.3700    0.7660 C   0  0  0  0  0  0  0  0  0  0  0  0
   -1.6780   -0.4630    1.4730 C   0  0  0  0  0  0  0  0  0  0  0  0
   -0.4920   -0.8500    2.0510 C   0  0  0  0  0  0  0  0  0  0  0  0
   -0.0470   -2.1460    1.9310 C   0  0  0  0  0  0  0  0  0  0  0  0
    1.2370   -2.5920    2.5560 C   0  0  0  0  0  0  0  0  0  0  0  0
    2.3550   -2.0790    1.7750 N   0  0  0  0  0  0  0  0  0  0  0  0
    2.7460   -2.6270    0.5440 C   0  0  0  0  0  0  0  0  0  0  0  0
    2.0410   -3.6250    0.1470 O   0  0  0  0  0  0  0  0  0  0  0  0
    3.8380   -2.2190   -0.3370 C   0  0  0  0  0  0  0  0  0  0  0  0
    4.5560   -1.1070    0.2060 N   0  0  0  0  0  0  0  0  0  0  0  0
    5.6810   -0.5220   -0.4760 C   0  0  0  0  0  0  0  0  0  0  0  0
    5.9980   -1.0300   -1.5600 O   0  0  0  0  0  0  0  0  0  0  0  0
    6.3870    0.5700    0.0580 N   0  0  0  0  0  0  0  0  0  0  0  0
    7.4990    1.1710   -0.5820 C   0  0  0  0  0  0  0  0  0  0  0  0
    8.1920    2.2210   -0.0850 N   0  0  0  0  0  0  0  0  0  0  0  0
    9.1900    2.5660   -0.9140 C   0  0  0  0  0  0  0  0  0  0  0  0
   10.1290    3.6880   -0.6370 C   0  0  0  0  0  0  0  0  0  0  0  0
    9.1390    1.7140   -1.9750 C   0  0  0  0  0  0  0  0  0  0  0  0
    8.0930    0.8740   -1.7390 N   0  0  0  0  0  0  0  0  0  0  0  0
   -0.7950   -3.0520    1.2290 C   0  0  0  0  0  0  0  0  0  0  0  0
   -1.9770   -2.6690    0.6520 C   0  0  0  0  0  0  0  0  0  0  0  0
   -4.0830   -1.7040   -1.0400 C   0  0  0  0  0  0  0  0  0  0  0  0
   -5.2850   -1.4000   -1.6410 C   0  0  0  0  0  0  0  0  0  0  0  0
   -6.0920   -0.4420   -1.0650 C   0  0  0  0  0  0  0  0  0  0  0  0
   -7.2890    0.0150   -1.4640 N   0  0  0  0  0  0  0  0  0  0  0  0
  1  2  1  0
  2  3  1  0
  3  4  1  0
  4  5  2  0
  4 33  1  0
  5  6  1  0
  6  7  2  0
  6 32  1  0
  7  8  1  0
  8  9  1  0
  8 30  2  0
  9 10  2  0
  9 29  1  0
 10 11  1  0
 11 12  2  0
 12 13  1  0
 12 28  1  0
 13 14  1  0
 14 15  1  0
 15 16  2  0
 15 17  1  0
 17 18  1  0
 18 19  1  0
 19 20  2  0
 19 21  1  0
 21 22  1  0
 22 23  2  0
 22 27  1  0
 23 24  1  0
 24 25  1  0
 24 26  2  0
 26 27  1  0
 28 29  2  0
 30 31  1  0
 31 32  2  0
 32 33  1  0
M  END
