
     RDKit          3D

 33 36  0  0  0  0  0  0  0  0999 V2000
    0.7980   -1.8140   -0.9400 C   0  0  0  0  0  0  0  0  0  0  0  0
    0.8470   -1.4350    0.4820 N   0  0  0  0  0  0  0  0  0  0  0  0
    2.1350   -1.5380    1.0910 C   0  0  0  0  0  0  0  0  0  0  0  0
    3.1650   -0.6610    0.5000 C   0  0  0  0  0  0  0  0  0  0  0  0
    2.8600    0.3230   -0.4070 C   0  0  0  0  0  0  0  0  0  0  0  0
    3.8380    1.1070   -0.9300 N   0  0  0  0  0  0  0  0  0  0  0  0
    5.1480    0.9370   -0.5670 C   0  0  0  0  0  0  0  0  0  0  0  0
    6.1010    1.7870   -1.1510 N   0  0  0  0  0  0  0  0  0  0  0  0
    7.4800    1.7420   -0.8850 C   0  0  0  0  0  0  0  0  0  0  0  0
    8.0000    0.9320   -0.0930 O   0  0  0  0  0  0  0  0  0  0  0  0
    8.3850    2.6640   -1.5400 N   0  0  0  0  0  0  0  0  0  0  0  0
   10.0760    2.5940   -1.2010 S   0  0  1  0  0  0  0  0  0  0  0  0
   10.4470    1.1820   -0.8660 O   0  0  0  0  0  0  0  0  0  0  0  0
   10.8890    3.0180   -2.3860 O   0  0  0  0  0  0  0  0  0  0  0  0
    5.4320   -0.0270    0.3200 C   0  0  0  0  0  0  0  0  0  0  0  0
    4.4460   -0.8060    0.8360 N   0  0  0  0  0  0  0  0  0  0  0  0
   -0.3350   -1.0220    1.1100 C   0  0  0  0  0  0  0  0  0  0  0  0
   -0.3640   -0.6240    2.4250 C   0  0  0  0  0  0  0  0  0  0  0  0
   -1.5550   -0.2180    3.0380 C   0  0  0  0  0  0  0  0  0  0  0  0
   -2.6940   -0.2310    2.2810 C   0  0  0  0  0  0  0  0  0  0  0  0
   -2.7160   -0.6260    0.9450 C   0  0  0  0  0  0  0  0  0  0  0  0
   -4.0020   -0.5890    0.2630 C   0  0  0  0  0  0  0  0  0  0  0  0
   -4.1560   -0.9520   -1.0530 C   0  0  0  0  0  0  0  0  0  0  0  0
   -5.3740   -0.9080   -1.6720 N   0  0  0  0  0  0  0  0  0  0  0  0
   -6.4750   -0.5060   -1.0140 C   0  0  0  0  0  0  0  0  0  0  0  0
   -7.7160   -0.4540   -1.6180 C   0  0  0  0  0  0  0  0  0  0  0  0
   -8.8530   -0.0410   -0.9480 C   0  0  0  0  0  0  0  0  0  0  0  0
  -10.4480    0.0110   -1.7720 S   0  0  0  0  0  0  0  0  0  0  0  0
   -8.7090    0.3250    0.3730 C   0  0  0  0  0  0  0  0  0  0  0  0
   -7.4680    0.2730    0.9760 C   0  0  0  0  0  0  0  0  0  0  0  0
   -6.3310   -0.1390    0.3070 C   0  0  0  0  0  0  0  0  0  0  0  0
   -5.1280   -0.1860    0.9050 N   0  0  0  0  0  0  0  0  0  0  0  0
   -1.5350   -1.0130    0.3900 C   0  0  0  0  0  0  0  0  0  0  0  0
  1  2  1  0
  2  3  1  0
  2 17  1  0
  3  4  1  0
  4  5  2  0
  4 16  1  0
  5  6  1  0
  6  7  2  0
  7  8  1  0
  7 15  1  0
  8  9  1  0
  9 10  2  0
  9 11  1  0
 12 11  1  6
 12 13  2  0
 12 14  2  0
 15 16  2  0
 17 18  2  0
 17 33  1  0
 18 19  1  0
 19 20  2  0
 20 21  1  0
 21 22  1  0
 21 33  2  0
 22 23  2  0
 22 32  1  0
 23 24  1  0
 24 25  2  0
 25 26  1  0
 25 31  1  0
 26 27  2  0
 27 28  1  0
 27 29  1  0
 29 30  2  0
 30 31  1  0
 31 32  2  0
M  END
