
     RDKit          3D

 33 36  0  0  0  0  0  0  0  0999 V2000
    2.6590   -4.2100    2.2260 C   0  0  0  0  0  0  0  0  0  0  0  0
    3.7160   -3.2890    1.7870 C   0  0  0  0  0  0  0  0  0  0  0  0
    4.9300   -3.4000    2.2420 C   0  0  0  0  0  0  0  0  0  0  0  0
    6.0240   -2.5210    1.8410 C   0  0  0  0  0  0  0  0  0  0  0  0
    5.7440   -1.6040    0.9850 N   0  0  0  0  0  0  0  0  0  0  0  0
    4.4790   -1.4240    0.4390 N   0  0  0  0  0  0  0  0  0  0  0  0
    3.3570   -2.1800    0.8520 C   0  0  2  0  0  0  0  0  0  0  0  0
    2.2430   -1.4370    1.5330 C   0  0  0  0  0  0  0  0  0  0  0  0
    1.6010   -0.4440    0.9260 O   0  0  0  0  0  0  0  0  0  0  0  0
    1.6550    0.7690    0.4080 C   0  0  0  0  0  0  0  0  0  0  0  0
    2.7980    1.5360    0.4070 C   0  0  0  0  0  0  0  0  0  0  0  0
    2.8470    2.8070   -0.1350 C   0  0  0  0  0  0  0  0  0  0  0  0
    3.9810    3.5770   -0.1410 C   0  0  0  0  0  0  0  0  0  0  0  0
    3.9510    4.8260   -0.6970 C   0  0  0  0  0  0  0  0  0  0  0  0
    2.7850    5.3040   -1.2460 C   0  0  0  0  0  0  0  0  0  0  0  0
    2.7470    6.6680   -1.8550 C   0  0  0  0  0  0  0  0  0  0  0  0
    1.6880    4.5450   -1.2350 N   0  0  0  0  0  0  0  0  0  0  0  0
    1.6850    3.3010   -0.6910 C   0  0  0  0  0  0  0  0  0  0  0  0
    0.5690    2.5410   -0.6840 N   0  0  0  0  0  0  0  0  0  0  0  0
    0.4990    1.3170   -0.1690 C   0  0  0  0  0  0  0  0  0  0  0  0
   -0.7170    0.5770   -0.2000 N   0  0  0  0  0  0  0  0  0  0  0  0
   -1.8800    1.1180   -0.7760 C   0  0  0  0  0  0  0  0  0  0  0  0
   -1.7610    2.2960   -1.2570 O   0  0  0  0  0  0  0  0  0  0  0  0
   -3.1670    0.4450   -0.8560 C   0  0  0  0  0  0  0  0  0  0  0  0
   -4.2680    1.0340   -1.4190 C   0  0  0  0  0  0  0  0  0  0  0  0
   -5.4920    0.4130   -1.5030 C   0  0  0  0  0  0  0  0  0  0  0  0
   -5.6200   -0.8520   -1.0020 C   0  0  0  0  0  0  0  0  0  0  0  0
   -6.9330   -1.5490   -1.0800 C   0  0  0  0  0  0  0  0  0  0  0  0
   -7.9000   -0.6850   -1.7210 N   0  0  0  0  0  0  0  0  0  0  0  0
   -4.5490   -1.4790   -0.4310 C   0  0  0  0  0  0  0  0  0  0  0  0
   -4.6850   -2.8520    0.1130 C   0  0  0  0  0  0  0  0  0  0  0  0
   -3.4630   -3.2610    0.6350 O   0  0  0  0  0  0  0  0  0  0  0  0
   -3.3310   -0.8260   -0.3620 C   0  0  0  0  0  0  0  0  0  0  0  0
  1  2  1  0
  2  3  2  0
  2  7  1  0
  3  4  1  0
  4  5  2  0
  5  6  1  0
  6  7  1  0
  7  8  1  1
  8  9  1  0
  9 10  1  0
 10 11  2  0
 10 20  1  0
 11 12  1  0
 12 13  2  0
 12 18  1  0
 13 14  1  0
 14 15  2  0
 15 16  1  0
 15 17  1  0
 17 18  2  0
 18 19  1  0
 19 20  2  0
 20 21  1  0
 21 22  1  0
 22 23  2  0
 22 24  1  0
 24 25  2  0
 24 33  1  0
 25 26  1  0
 26 27  2  0
 27 28  1  0
 27 30  1  0
 28 29  1  0
 30 31  1  0
 30 33  2  0
 31 32  1  0
M  END
