
     RDKit          3D

 33 36  0  0  0  0  0  0  0  0999 V2000
   -4.2460   -2.1120    0.2700 C   0  0  0  0  0  0  0  0  0  0  0  0
   -4.8990   -0.9230    0.9190 C   0  0  0  0  0  0  0  0  0  0  0  0
   -5.5610   -0.0820   -0.0390 N   0  0  0  0  0  0  0  0  0  0  0  0
   -6.7440   -0.6370   -0.7120 C   0  0  0  0  0  0  0  0  0  0  0  0
   -7.9520   -0.0540   -0.0120 C   0  0  0  0  0  0  0  0  0  0  0  0
   -7.8480    1.7110    0.0320 S   0  0  1  0  0  0  0  0  0  0  0  0
   -8.9270    2.3470   -0.8050 O   0  0  0  0  0  0  0  0  0  0  0  0
   -8.0560    2.2210    1.4580 O   0  0  0  0  0  0  0  0  0  0  0  0
   -6.2880    2.2100   -0.4370 N   0  0  0  0  0  0  0  0  0  0  0  0
   -5.1870    1.2350   -0.3300 C   0  0  0  0  0  0  0  0  0  0  0  0
   -3.9800    1.6370   -0.5180 C   0  0  0  0  0  0  0  0  0  0  0  0
   -2.7090    0.9690   -0.5030 C   0  0  0  0  0  0  0  0  0  0  0  0
   -1.8970    1.1370   -1.6170 N   0  0  0  0  0  0  0  0  0  0  0  0
   -0.6750    0.6260   -1.7190 C   0  0  0  0  0  0  0  0  0  0  0  0
   -0.1950   -0.1050   -0.6620 C   0  0  0  0  0  0  0  0  0  0  0  0
    1.4270   -0.8260   -0.7020 S   0  0  0  0  0  0  0  0  0  0  0  0
    2.6720    0.2680   -0.0440 C   0  0  0  0  0  0  0  0  0  0  0  0
    2.3440    1.4900    0.4120 N   0  0  0  0  0  0  0  0  0  0  0  0
    3.4300    2.0210    0.8580 N   0  0  0  0  0  0  0  0  0  0  0  0
    4.4800    1.1570    0.7000 C   0  0  0  0  0  0  0  0  0  0  0  0
    5.8690    1.5020    1.0770 C   0  0  2  0  0  0  0  0  0  0  0  0
    5.8270    2.9560    1.6220 C   0  0  0  0  0  0  0  0  0  0  0  0
    6.7970    1.5890   -0.1220 C   0  0  0  0  0  0  0  0  0  0  0  0
    4.0020    0.0320    0.1220 N   0  0  0  0  0  0  0  0  0  0  0  0
    4.7070   -1.1300   -0.3390 C   0  0  0  0  0  0  0  0  0  0  0  0
    5.8730   -1.5060    0.1220 C   0  0  0  0  0  0  0  0  0  0  0  0
    6.6300   -2.7240   -0.3560 C   0  0  0  0  0  0  0  0  0  0  0  0
    6.0240   -3.3830   -1.4030 O   0  0  0  0  0  0  0  0  0  0  0  0
    4.7960   -2.9990   -1.9040 C   0  0  0  0  0  0  0  0  0  0  0  0
    4.1500   -1.9500   -1.4310 C   0  0  0  0  0  0  0  0  0  0  0  0
   -0.9650   -0.3080    0.4850 C   0  0  0  0  0  0  0  0  0  0  0  0
   -0.4220   -1.0980    1.6060 C   0  0  0  0  0  0  0  0  0  0  0  0
   -2.1730    0.2500    0.4770 N   0  0  0  0  0  0  0  0  0  0  0  0
  1  2  1  0
  2  3  1  0
  3  4  1  0
  3 10  1  0
  4  5  1  0
  6  5  1  1
  6  7  2  0
  6  8  2  0
  6  9  1  0
  9 10  1  0
 10 11  2  3
 11 12  1  0
 12 13  2  0
 12 33  1  0
 13 14  1  0
 14 15  2  0
 15 16  1  0
 15 31  1  0
 16 17  1  0
 17 18  2  0
 17 24  1  0
 18 19  1  0
 19 20  2  0
 20 21  1  0
 20 24  1  0
 21 22  1  6
 21 23  1  0
 24 25  1  0
 25 26  2  0
 25 30  1  0
 26 27  1  0
 27 28  1  0
 28 29  1  0
 29 30  2  0
 31 32  1  0
 31 33  2  0
M  END
