
     RDKit          3D

 31 33  0  0  0  0  0  0  0  0999 V2000
   -4.4920   -2.3420   -2.5070 O   0  0  0  0  0  0  0  0  0  0  0  0
   -3.9290   -2.0560   -1.4020 C   0  0  0  0  0  0  0  0  0  0  0  0
   -2.5870   -1.7830   -1.4500 O   0  0  0  0  0  0  0  0  0  0  0  0
   -1.9410   -1.3410   -0.2570 C   0  0  1  0  0  0  0  0  0  0  0  0
   -1.5150   -2.5290    0.4820 C   0  0  0  0  0  0  0  0  0  0  0  0
   -0.9370   -2.4340    1.5750 O   0  0  0  0  0  0  0  0  0  0  0  0
   -1.7480   -3.7950   -0.0260 O   0  0  0  0  0  0  0  0  0  0  0  0
   -0.9360   -0.3110   -0.4420 C   0  0  0  0  0  0  0  0  0  0  0  0
    0.2850   -0.5190   -0.8130 N   0  0  0  0  0  0  0  0  0  0  0  0
    1.1000    0.5930   -0.9330 O   0  0  0  0  0  0  0  0  0  0  0  0
    1.6800    1.4780    0.4840 P   0  0  0  0  0  0  0  0  0  0  0  0
    1.9020    0.3870    1.8250 O   0  0  0  0  0  0  0  0  0  0  0  0
    3.1800    2.2370    0.1090 O   0  0  0  0  0  0  0  0  0  0  0  0
    4.0970    1.2560   -0.9510 P   0  0  0  0  0  0  0  0  0  0  0  0
    3.3460   -0.3050   -1.0630 O   0  0  0  0  0  0  0  0  0  0  0  0
    5.7990    1.1460   -0.4420 N   0  0  0  0  0  0  0  0  0  0  0  0
    6.3510    0.4240    0.6850 C   0  0  0  0  0  0  0  0  0  0  0  0
    7.6720   -0.0430    0.0660 C   0  0  0  0  0  0  0  0  0  0  0  0
    8.0920    1.1160   -0.6180 O   0  0  0  0  0  0  0  0  0  0  0  0
    6.9230    1.7440   -1.0690 C   0  0  0  0  0  0  0  0  0  0  0  0
    6.8270    2.6920   -1.8980 O   0  0  0  0  0  0  0  0  0  0  0  0
   -1.5620    0.9520   -0.1300 N   0  0  0  0  0  0  0  0  0  0  0  0
   -2.7130    0.7410    0.3880 C   0  0  0  0  0  0  0  0  0  0  0  0
   -3.5830    1.8210    0.8100 N   0  0  0  0  0  0  0  0  0  0  0  0
   -3.6940    3.3450   -0.1250 P   0  0  0  0  0  0  0  0  0  0  0  0
   -4.8930    3.0390   -1.3790 O   0  0  0  0  0  0  0  0  0  0  0  0
   -4.2930    4.6400    0.8430 O   0  0  0  0  0  0  0  0  0  0  0  0
   -3.0020   -0.6300    0.4640 N   0  0  0  0  0  0  0  0  0  0  0  0
   -4.0250   -1.4730    1.0030 C   0  0  0  0  0  0  0  0  0  0  0  0
   -4.7630   -2.0480   -0.2070 C   0  0  1  0  0  0  0  0  0  0  0  0
   -5.8080   -1.1150   -0.4670 O   0  0  0  0  0  0  0  0  0  0  0  0
  1  2  2  0
  2  3  1  0
  2 30  1  0
  3  4  1  0
  4  5  1  1
  4  8  1  0
  4 28  1  0
  5  6  2  0
  5  7  1  0
  8  9  2  3
  8 22  1  0
  9 10  1  0
 10 11  1  0
 11 12  1  0
 11 13  1  0
 13 14  1  0
 14 15  1  0
 14 16  1  0
 16 17  1  0
 16 20  1  0
 17 18  1  0
 18 19  1  0
 19 20  1  0
 20 21  2  0
 22 23  2  0
 23 24  1  0
 23 28  1  0
 24 25  1  0
 25 26  1  0
 25 27  1  0
 28 29  1  0
 29 30  1  0
 30 31  1  6
M  END
