
     RDKit          3D

 30 31  0  0  0  0  0  0  0  0999 V2000
    4.8400   -0.5840    0.4480 N   0  0  0  0  0  0  0  0  0  0  0  0
    5.5960    0.4330    0.2510 C   0  0  0  0  0  0  0  0  0  0  0  0
    4.9110    1.6970    0.2120 N   0  0  0  0  0  0  0  0  0  0  0  0
    3.6280    1.9780    0.5230 O   0  0  0  0  0  0  0  0  0  0  0  0
    2.5140    1.2780    0.0170 C   0  0  0  0  0  0  0  0  0  0  0  0
    2.7420    0.3110   -0.7590 O   0  0  0  0  0  0  0  0  0  0  0  0
    1.0970    1.6420    0.3350 C   0  0  1  0  0  0  0  0  0  0  0  0
    0.5370    2.1920   -1.0010 C   0  0  0  0  0  0  0  0  0  0  0  0
    0.6090    1.2610   -1.9800 O   0  0  0  0  0  0  0  0  0  0  0  0
    0.2340   -0.0320   -1.6640 C   0  0  0  0  0  0  0  0  0  0  0  0
    0.5960   -0.4770   -0.4250 O   0  0  0  0  0  0  0  0  0  0  0  0
    0.3740    0.4130    0.6420 C   0  0  2  0  0  0  0  0  0  0  0  0
   -1.1090    0.5010    0.8860 C   0  0  0  0  0  0  0  0  0  0  0  0
   -1.7940    0.6030    1.9830 N   0  0  0  0  0  0  0  0  0  0  0  0
   -3.1110    0.4550    1.7040 O   0  0  0  0  0  0  0  0  0  0  0  0
   -3.2370    0.2490    0.4470 C   0  0  0  0  0  0  0  0  0  0  0  0
   -4.4860    0.0220   -0.3100 C   0  0  1  0  0  0  0  0  0  0  0  0
   -4.5490   -1.5910   -0.2970 C   0  0  0  0  0  0  0  0  0  0  0  0
   -3.2210   -1.7400   -0.8130 O   0  0  0  0  0  0  0  0  0  0  0  0
   -3.3520   -2.4970   -1.9260 O   0  0  0  0  0  0  0  0  0  0  0  0
   -6.0040    0.8200    0.1020 P   0  0  0  0  0  0  0  0  0  0  0  0
   -7.0510    0.8710   -1.3140 O   0  0  0  0  0  0  0  0  0  0  0  0
   -7.1420   -0.2180    1.6820 P   0  0  0  0  0  0  0  0  0  0  0  0
   -7.2340   -1.9050    1.4160 O   0  0  0  0  0  0  0  0  0  0  0  0
   -6.4310    0.1310    3.2160 O   0  0  0  0  0  0  0  0  0  0  0  0
   -2.0000    0.2800   -0.1410 N   0  0  0  0  0  0  0  0  0  0  0  0
    6.9780    0.3290    0.1040 N   0  0  0  0  0  0  0  0  0  0  0  0
    7.9140   -1.1620    0.2820 P   0  0  0  0  0  0  0  0  0  0  0  0
    9.4090   -1.1050   -0.6130 O   0  0  0  0  0  0  0  0  0  0  0  0
    7.0820   -2.5890   -0.2070 O   0  0  0  0  0  0  0  0  0  0  0  0
  1  2  2  0
  2  3  1  0
  2 27  1  0
  3  4  1  0
  4  5  1  0
  5  6  2  0
  7  5  1  6
  7  8  1  0
  7 12  1  0
  8  9  1  0
  9 10  1  0
 10 11  1  0
 11 12  1  0
 12 13  1  6
 13 14  2  0
 13 26  1  0
 14 15  1  0
 15 16  1  0
 16 17  1  0
 16 26  2  0
 17 18  1  1
 17 21  1  0
 18 19  1  0
 19 20  1  0
 21 22  1  0
 21 23  1  0
 23 24  1  0
 23 25  1  0
 27 28  1  0
 28 29  1  0
 28 30  1  0
M  END
