
     RDKit          3D

 30 31  0  0  0  0  0  0  0  0999 V2000
    2.2330    1.0940   -2.0300 N   0  0  0  0  0  0  0  0  0  0  0  0
    2.6430    0.2200   -1.1710 C   0  0  0  0  0  0  0  0  0  0  0  0
    3.6170   -0.7140   -1.6390 N   0  0  0  0  0  0  0  0  0  0  0  0
    4.2630   -0.6180   -3.3100 P   0  0  0  0  0  0  0  0  0  0  0  0
    5.9390   -0.1630   -3.2140 O   0  0  0  0  0  0  0  0  0  0  0  0
    3.4390    0.5680   -4.2440 O   0  0  0  0  0  0  0  0  0  0  0  0
    2.1850    0.1540    0.1720 N   0  0  0  0  0  0  0  0  0  0  0  0
    0.7990    0.4990    0.4240 C   0  0  0  0  0  0  0  0  0  0  0  0
   -0.0590   -0.5380   -0.1840 C   0  0  0  0  0  0  0  0  0  0  0  0
    0.4730   -1.4900   -0.7860 O   0  0  0  0  0  0  0  0  0  0  0  0
   -1.4590   -0.4660   -0.0930 N   0  0  0  0  0  0  0  0  0  0  0  0
   -2.3740   -1.4330   -0.6590 C   0  0  0  0  0  0  0  0  0  0  0  0
   -3.7490   -0.8280   -0.4370 C   0  0  1  0  0  0  0  0  0  0  0  0
   -4.0460    0.0850   -1.4190 O   0  0  0  0  0  0  0  0  0  0  0  0
   -4.8320   -1.8400   -0.2980 C   0  0  0  0  0  0  0  0  0  0  0  0
   -6.0550   -1.1100    0.0510 N   0  0  0  0  0  0  0  0  0  0  0  0
   -3.4980   -0.1420    0.9140 C   0  0  2  0  0  0  0  0  0  0  0  0
   -4.5130    0.6890    1.2870 O   0  0  0  0  0  0  0  0  0  0  0  0
   -4.1620    2.0290    1.3770 C   0  0  0  0  0  0  0  0  0  0  0  0
   -3.6450    2.4760    0.1110 O   0  0  0  0  0  0  0  0  0  0  0  0
   -2.5640    1.6910   -0.3400 C   0  0  0  0  0  0  0  0  0  0  0  0
   -1.9910    1.9420   -1.4210 O   0  0  0  0  0  0  0  0  0  0  0  0
   -2.1970    0.5800    0.5760 C   0  0  2  0  0  0  0  0  0  0  0  0
    3.1650   -0.3100    1.5550 P   0  0  0  0  0  0  0  0  0  0  0  0
    3.7870    1.0310    2.4470 O   0  0  0  0  0  0  0  0  0  0  0  0
    3.5200    2.1300    1.7590 O   0  0  0  0  0  0  0  0  0  0  0  0
    4.2930   -1.5500    1.3040 O   0  0  0  0  0  0  0  0  0  0  0  0
    5.7770   -1.1250    2.1150 P   0  0  0  0  0  0  0  0  0  0  0  0
    5.5280   -1.4090    3.8120 O   0  0  0  0  0  0  0  0  0  0  0  0
    6.1270    0.5680    1.8430 O   0  0  0  0  0  0  0  0  0  0  0  0
  1  2  2  0
  2  3  1  0
  2  7  1  0
  3  4  1  0
  4  5  1  0
  4  6  1  0
  7  8  1  0
  7 24  1  0
  8  9  1  0
  9 10  2  0
  9 11  1  0
 11 12  1  0
 23 11  1  6
 12 13  1  0
 13 14  1  6
 13 15  1  0
 13 17  1  0
 15 16  1  0
 17 18  1  6
 17 23  1  0
 18 19  1  0
 19 20  1  0
 20 21  1  0
 21 22  2  0
 21 23  1  0
 24 25  1  0
 24 27  1  0
 25 26  1  0
 27 28  1  0
 28 29  1  0
 28 30  1  0
M  END
