
     RDKit          3D

 31 33  0  0  0  0  0  0  0  0999 V2000
    1.2900   -1.1570    0.2270 O   0  0  0  0  0  0  0  0  0  0  0  0
    1.3000    0.0860    0.0830 C   0  0  0  0  0  0  0  0  0  0  0  0
    0.0040    0.8150    0.0250 C   0  0  0  0  0  0  0  0  0  0  0  0
   -1.1260   -0.0460    0.1520 N   0  0  0  0  0  0  0  0  0  0  0  0
   -1.5310   -1.0200   -0.8450 C   0  0  0  0  0  0  0  0  0  0  0  0
   -3.0070   -1.1560   -0.9240 C   0  0  1  0  0  0  0  0  0  0  0  0
   -3.4020   -2.7410   -1.8530 P   0  0  0  0  0  0  0  0  0  0  0  0
   -1.9850   -3.6730   -2.1290 O   0  0  0  0  0  0  0  0  0  0  0  0
   -4.5370   -3.7090   -0.9660 O   0  0  0  0  0  0  0  0  0  0  0  0
   -3.7470   -1.1650    0.2630 N   0  0  0  0  0  0  0  0  0  0  0  0
   -3.4130   -0.2450    1.2740 C   0  0  1  0  0  0  0  0  0  0  0  0
   -4.2490    1.3400    1.0190 P   0  0  0  0  0  0  0  0  0  0  0  0
   -3.7650    2.6320    1.9930 O   0  0  0  0  0  0  0  0  0  0  0  0
   -4.9960    1.7680   -0.9240 P   0  0  0  0  0  0  0  0  0  0  0  0
   -4.4620    3.3050   -1.4740 O   0  0  0  0  0  0  0  0  0  0  0  0
   -6.7030    1.5510   -1.0580 O   0  0  0  0  0  0  0  0  0  0  0  0
   -3.6540   -0.6980    2.5670 O   0  0  0  0  0  0  0  0  0  0  0  0
   -2.8890    0.1980    3.2610 O   0  0  0  0  0  0  0  0  0  0  0  0
   -1.6800    0.2890    2.5610 N   0  0  0  0  0  0  0  0  0  0  0  0
   -1.9380    0.0220    1.3330 C   0  0  0  0  0  0  0  0  0  0  0  0
    2.5430    0.7550   -0.0180 N   0  0  0  0  0  0  0  0  0  0  0  0
    3.8060    0.1170    0.0360 C   0  0  0  0  0  0  0  0  0  0  0  0
    4.9820    0.7550   -0.0560 N   0  0  0  0  0  0  0  0  0  0  0  0
    5.9830   -0.1580    0.0350 C   0  0  0  0  0  0  0  0  0  0  0  0
    7.4130    0.1240   -0.0140 C   0  0  0  0  0  0  0  0  0  0  0  0
    8.2160   -0.8150    0.0810 O   0  0  0  0  0  0  0  0  0  0  0  0
    7.8630    1.4160   -0.1620 O   0  0  0  0  0  0  0  0  0  0  0  0
    9.1910    1.6080   -0.1970 O   0  0  0  0  0  0  0  0  0  0  0  0
    9.5540    2.0470    1.0020 O   0  0  0  0  0  0  0  0  0  0  0  0
    5.3700   -1.3710    0.1850 C   0  0  0  0  0  0  0  0  0  0  0  0
    4.0780   -1.1380    0.1770 O   0  0  0  0  0  0  0  0  0  0  0  0
  1  2  2  0
  2  3  1  0
  2 21  1  0
  3  4  1  0
  4  5  1  0
  4 20  1  0
  5  6  1  0
  6  7  1  1
  6 10  1  0
  7  8  1  0
  7  9  1  0
 10 11  1  0
 11 12  1  6
 11 17  1  0
 11 20  1  0
 12 13  1  0
 12 14  1  0
 14 15  1  0
 14 16  1  0
 17 18  1  0
 18 19  1  0
 19 20  2  0
 21 22  1  0
 22 23  2  0
 22 31  1  0
 23 24  1  0
 24 25  1  0
 24 30  2  0
 25 26  2  0
 25 27  1  0
 27 28  1  0
 28 29  1  0
 30 31  1  0
M  END
