
     RDKit          3D

 30 32  0  0  0  0  0  0  0  0999 V2000
    0.1460   -2.2220    0.2230 C   0  0  0  0  0  0  0  0  0  0  0  0
    0.6030   -0.8430    0.7130 C   0  0  1  0  0  0  0  0  0  0  0  0
   -0.3750    0.0630    0.2550 O   0  0  0  0  0  0  0  0  0  0  0  0
   -0.3060    1.4210    0.5090 C   0  0  0  0  0  0  0  0  0  0  0  0
    0.6590    1.8450    1.1650 O   0  0  0  0  0  0  0  0  0  0  0  0
   -1.3240    2.3960    0.0360 C   0  0  0  0  0  0  0  0  0  0  0  0
   -2.3710    1.7280   -0.7050 N   0  0  0  0  0  0  0  0  0  0  0  0
   -2.4040    1.4830   -2.0940 C   0  0  0  0  0  0  0  0  0  0  0  0
   -1.5580    1.7780   -2.9800 O   0  0  0  0  0  0  0  0  0  0  0  0
   -3.6150    0.8040   -2.3870 N   0  0  0  0  0  0  0  0  0  0  0  0
   -4.3320    0.6200   -1.2320 N   0  0  0  0  0  0  0  0  0  0  0  0
   -3.5850    1.1820   -0.1750 C   0  0  0  0  0  0  0  0  0  0  0  0
   -4.0410    1.1420    1.0250 N   0  0  0  0  0  0  0  0  0  0  0  0
   -5.2280    0.5990    1.4860 C   0  0  0  0  0  0  0  0  0  0  0  0
   -5.4530    0.6880    2.7430 O   0  0  0  0  0  0  0  0  0  0  0  0
   -6.2200   -0.0370    0.7620 O   0  0  0  0  0  0  0  0  0  0  0  0
   -5.9450   -0.1780   -0.9710 P   0  0  0  0  0  0  0  0  0  0  0  0
   -5.8640   -1.8620   -1.3750 O   0  0  0  0  0  0  0  0  0  0  0  0
    0.6840   -0.9060    2.1810 C   0  0  0  0  0  0  0  0  0  0  0  0
   -0.1930   -1.3460    2.9390 O   0  0  0  0  0  0  0  0  0  0  0  0
    1.9310   -0.3780    2.5710 N   0  0  0  0  0  0  0  0  0  0  0  0
    2.8230   -0.4020    1.4280 C   0  0  0  0  0  0  0  0  0  0  0  0
    1.9690   -0.6010    0.1990 C   0  0  1  0  0  0  0  0  0  0  0  0
    2.4320   -1.6800   -0.5700 O   0  0  0  0  0  0  0  0  0  0  0  0
    2.0990    0.5290   -0.5960 O   0  0  0  0  0  0  0  0  0  0  0  0
    3.7040    0.7410   -1.1500 P   0  0  0  0  0  0  0  0  0  0  0  0
    3.6930    0.9670   -2.8690 O   0  0  0  0  0  0  0  0  0  0  0  0
    5.0500   -0.8800   -0.6600 P   0  0  0  0  0  0  0  0  0  0  0  0
    5.8300   -1.5830   -2.0190 O   0  0  0  0  0  0  0  0  0  0  0  0
    6.2330   -0.4820    0.5220 O   0  0  0  0  0  0  0  0  0  0  0  0
  2  1  1  6
  2  3  1  0
  2 19  1  0
  2 23  1  0
  3  4  1  0
  4  5  2  0
  4  6  1  0
  6  7  1  0
  7  8  1  0
  7 12  1  0
  8  9  2  0
  8 10  1  0
 10 11  1  0
 11 12  1  0
 11 17  1  0
 12 13  2  0
 13 14  1  0
 14 15  2  0
 14 16  1  0
 16 17  1  0
 17 18  1  0
 19 20  2  0
 19 21  1  0
 21 22  1  0
 22 23  1  0
 23 24  1  6
 23 25  1  0
 25 26  1  0
 26 27  1  0
 26 28  1  0
 28 29  1  0
 28 30  1  0
M  END
