
     RDKit          3D

 30 31  0  0  0  0  0  0  0  0999 V2000
   -9.6420    1.0520   -2.3830 O   0  0  0  0  0  0  0  0  0  0  0  0
   -8.2300    1.5280   -1.9110 P   0  0  0  0  0  0  0  0  0  0  0  0
   -6.9840    0.2900   -1.5690 N   0  0  0  0  0  0  0  0  0  0  0  0
   -5.8110    0.6880   -0.8760 C   0  0  0  0  0  0  0  0  0  0  0  0
   -5.7020    1.8910   -0.5340 O   0  0  0  0  0  0  0  0  0  0  0  0
   -4.7550   -0.3150   -0.5750 C   0  0  1  0  0  0  0  0  0  0  0  0
   -3.7190    0.3560    0.1140 O   0  0  0  0  0  0  0  0  0  0  0  0
   -2.4470    0.3780   -0.3910 N   0  0  0  0  0  0  0  0  0  0  0  0
   -1.4600    0.2550    0.4250 C   0  0  0  0  0  0  0  0  0  0  0  0
   -1.6620    0.1090    1.7420 N   0  0  0  0  0  0  0  0  0  0  0  0
   -0.6210   -0.0160    2.5720 C   0  0  0  0  0  0  0  0  0  0  0  0
   -0.7700   -0.1560    3.8190 O   0  0  0  0  0  0  0  0  0  0  0  0
    0.6390    0.0010    2.1160 N   0  0  0  0  0  0  0  0  0  0  0  0
    0.8940    0.1440    0.8150 C   0  0  0  0  0  0  0  0  0  0  0  0
   -0.1760    0.2770   -0.0780 C   0  0  0  0  0  0  0  0  0  0  0  0
    0.4200    0.4030   -1.3210 O   0  0  0  0  0  0  0  0  0  0  0  0
    1.7300    0.6320   -1.1930 O   0  0  0  0  0  0  0  0  0  0  0  0
    2.0790    0.2000    0.0330 N   0  0  0  0  0  0  0  0  0  0  0  0
    3.4000   -0.1370    0.4620 C   0  0  0  0  0  0  0  0  0  0  0  0
    3.5730   -0.5280    1.6420 O   0  0  0  0  0  0  0  0  0  0  0  0
    4.5730   -0.0450   -0.4320 C   0  0  1  0  0  0  0  0  0  0  0  0
    5.8030   -0.4610    0.3020 C   0  0  0  0  0  0  0  0  0  0  0  0
    7.3330   -0.3860   -0.7140 P   0  0  0  0  0  0  0  0  0  0  0  0
    7.1430    0.5270   -2.1640 O   0  0  0  0  0  0  0  0  0  0  0  0
    8.7250    0.0810    0.1890 O   0  0  0  0  0  0  0  0  0  0  0  0
    4.2360   -1.1790   -1.8800 P   0  0  0  0  0  0  0  0  0  0  0  0
    3.1560   -0.7640   -2.9130 O   0  0  0  0  0  0  0  0  0  0  0  0
   -5.3260   -1.3900    0.2840 C   0  0  0  0  0  0  0  0  0  0  0  0
   -6.2650   -2.1270   -0.1120 O   0  0  0  0  0  0  0  0  0  0  0  0
   -4.8100   -1.5840    1.5510 O   0  0  0  0  0  0  0  0  0  0  0  0
  1  2  2  0
  2  3  1  0
  3  4  1  0
  4  5  2  0
  4  6  1  0
  6  7  1  1
  6 28  1  0
  7  8  1  0
  8  9  2  3
  9 10  1  0
  9 15  1  0
 10 11  1  0
 11 12  2  0
 11 13  1  0
 13 14  1  0
 14 15  2  0
 14 18  1  0
 15 16  1  0
 16 17  1  0
 17 18  1  0
 18 19  1  0
 19 20  2  0
 19 21  1  0
 21 22  1  1
 21 26  1  0
 22 23  1  0
 23 24  1  0
 23 25  1  0
 26 27  2  0
 28 29  2  0
 28 30  1  0
M  END
