
     RDKit          3D

 30 31  0  0  0  0  0  0  0  0999 V2000
    6.0260    2.5480    2.8940 O   0  0  0  0  0  0  0  0  0  0  0  0
    5.0070    2.4890    1.6880 P   0  0  0  0  0  0  0  0  0  0  0  0
    3.3520    1.8540    1.8760 N   0  0  0  0  0  0  0  0  0  0  0  0
    2.5500    1.2880    0.8290 C   0  0  0  0  0  0  0  0  0  0  0  0
    2.9770    1.2250   -0.3400 O   0  0  0  0  0  0  0  0  0  0  0  0
    1.1590    0.8090    1.1820 C   0  0  1  0  0  0  0  0  0  0  0  0
    1.2220   -0.1920    2.2340 C   0  0  0  0  0  0  0  0  0  0  0  0
    2.3720   -0.9860    1.7520 O   0  0  0  0  0  0  0  0  0  0  0  0
    1.9720   -2.6390    1.5700 P   0  0  0  0  0  0  0  0  0  0  0  0
    3.0290   -3.7990    2.2540 O   0  0  0  0  0  0  0  0  0  0  0  0
    2.1310   -2.9530   -0.2330 O   0  0  0  0  0  0  0  0  0  0  0  0
    0.2910    1.8440    0.9200 N   0  0  0  0  0  0  0  0  0  0  0  0
   -0.4370    1.5750   -0.3160 C   0  0  0  0  0  0  0  0  0  0  0  0
   -0.8570    2.4670   -1.1010 O   0  0  0  0  0  0  0  0  0  0  0  0
   -0.4850    0.1280   -0.2670 C   0  0  1  0  0  0  0  0  0  0  0  0
   -1.5010   -0.4030    0.7570 C   0  0  0  0  0  0  0  0  0  0  0  0
   -2.8090    0.0450    0.3000 O   0  0  0  0  0  0  0  0  0  0  0  0
   -3.2580    1.2950    0.6850 C   0  0  0  0  0  0  0  0  0  0  0  0
   -2.5570    1.9820    1.4970 O   0  0  0  0  0  0  0  0  0  0  0  0
   -4.4300    1.8920    0.2480 O   0  0  0  0  0  0  0  0  0  0  0  0
   -4.8400    3.4840    0.8250 P   0  0  0  0  0  0  0  0  0  0  0  0
   -3.7610    4.2350    1.6610 O   0  0  0  0  0  0  0  0  0  0  0  0
   -0.7760   -0.6030   -1.5280 C   0  0  0  0  0  0  0  0  0  0  0  0
    0.0440   -1.4460   -2.0310 N   0  0  0  0  0  0  0  0  0  0  0  0
   -0.2600   -2.1810   -3.2470 C   0  0  0  0  0  0  0  0  0  0  0  0
    0.5850   -3.0050   -3.7130 O   0  0  0  0  0  0  0  0  0  0  0  0
   -1.4970   -1.9780   -3.9000 N   0  0  0  0  0  0  0  0  0  0  0  0
   -2.3190   -0.8470   -3.5170 C   0  0  0  0  0  0  0  0  0  0  0  0
   -1.9230   -0.2690   -2.2760 N   0  0  0  0  0  0  0  0  0  0  0  0
    0.8350   -0.1420    0.0650 O   0  0  0  0  0  0  0  0  0  0  0  0
  1  2  2  0
  2  3  1  0
  3  4  1  0
  4  5  2  0
  4  6  1  0
  6  7  1  1
  6 12  1  0
  6 30  1  0
  7  8  1  0
  8  9  1  0
  9 10  1  0
  9 11  1  0
 12 13  1  0
 13 14  2  0
 13 15  1  0
 15 16  1  1
 15 23  1  0
 15 30  1  0
 16 17  1  0
 17 18  1  0
 18 19  2  0
 18 20  1  0
 20 21  1  0
 21 22  2  0
 23 24  2  0
 23 29  1  0
 24 25  1  0
 25 26  2  0
 25 27  1  0
 27 28  1  0
 28 29  1  0
M  END
