
     RDKit          3D

 17 18  0  0  0  0  0  0  0  0999 V2000
    1.5870    3.6960   -1.7210 O   0  0  0  0  0  0  0  0  0  0  0  0
    1.3270    2.6610   -1.0500 C   0  0  0  0  0  0  0  0  0  0  0  0
    0.0520    2.3040   -0.5340 N   0  0  0  0  0  0  0  0  0  0  0  0
    0.2180    1.0260    0.1270 C   0  0  1  0  0  0  0  0  0  0  0  0
   -0.9750    0.1840   -0.0790 C   0  0  0  0  0  0  0  0  0  0  0  0
   -0.8920   -0.9480   -0.7580 C   0  0  0  0  0  0  0  0  0  0  0  0
   -1.9220   -1.8980   -1.0650 N   0  0  0  0  0  0  0  0  0  0  0  0
   -3.0570   -2.0930   -0.5080 C   0  0  0  0  0  0  0  0  0  0  0  0
   -3.6660   -1.3950    0.6350 C   0  0  0  0  0  0  0  0  0  0  0  0
   -3.4870    0.0210    0.6550 N   0  0  0  0  0  0  0  0  0  0  0  0
   -2.2160    0.6940    0.5040 C   0  0  0  0  0  0  0  0  0  0  0  0
   -2.1740    1.8670    0.9300 O   0  0  0  0  0  0  0  0  0  0  0  0
    1.4080    0.4930   -0.4420 N   0  0  0  0  0  0  0  0  0  0  0  0
    2.1240   -0.3880    0.4670 C   0  0  0  0  0  0  0  0  0  0  0  0
    3.3590   -0.9470   -0.1720 C   0  0  0  0  0  0  0  0  0  0  0  0
    4.0640   -1.7930    0.6710 O   0  0  0  0  0  0  0  0  0  0  0  0
    2.2180    1.6270   -0.6540 N   0  0  0  0  0  0  0  0  0  0  0  0
  1  2  2  0
  2  3  1  0
  2 17  1  0
  3  4  1  0
  4  5  1  6
  4 13  1  0
  5  6  2  0
  5 11  1  0
  6  7  1  0
  7  8  2  0
  8  9  1  0
  9 10  1  0
 10 11  1  0
 11 12  2  0
 13 14  1  0
 13 17  1  0
 14 15  1  0
 15 16  1  0
M  END
