
     RDKit          3D

 17 18  0  0  0  0  0  0  0  0999 V2000
   -1.2520    2.2000   -0.9390 N   0  0  0  0  0  0  0  0  0  0  0  0
   -0.5290    1.0640   -0.3370 C   0  0  2  0  0  0  0  0  0  0  0  0
    0.3990    0.5960   -1.4020 C   0  0  0  0  0  0  0  0  0  0  0  0
    1.2410   -0.5030   -1.0930 N   0  0  0  0  0  0  0  0  0  0  0  0
    2.2960   -0.3840   -0.1480 C   0  0  0  0  0  0  0  0  0  0  0  0
    2.3280    0.5110    0.7760 N   0  0  0  0  0  0  0  0  0  0  0  0
    3.5120    0.3710    1.5610 C   0  0  0  0  0  0  0  0  0  0  0  0
    3.8990    1.0410    2.5370 O   0  0  0  0  0  0  0  0  0  0  0  0
    4.2280   -0.7620    0.9840 C   0  0  0  0  0  0  0  0  0  0  0  0
    5.3290   -1.2000    1.4050 O   0  0  0  0  0  0  0  0  0  0  0  0
    3.4460   -1.2180   -0.0860 N   0  0  0  0  0  0  0  0  0  0  0  0
   -1.5240    0.0850    0.1190 C   0  0  0  0  0  0  0  0  0  0  0  0
   -2.8100    0.3360   -0.0230 C   0  0  0  0  0  0  0  0  0  0  0  0
   -3.8440   -0.6190    0.4210 C   0  0  0  0  0  0  0  0  0  0  0  0
   -3.3780   -1.8010    0.9920 O   0  0  0  0  0  0  0  0  0  0  0  0
   -2.0510   -2.0360    1.1280 N   0  0  0  0  0  0  0  0  0  0  0  0
   -1.1650   -1.1840    0.7350 C   0  0  0  0  0  0  0  0  0  0  0  0
  2  1  1  6
  2  3  1  0
  2 12  1  0
  3  4  1  0
  4  5  1  0
  5  6  2  0
  5 11  1  0
  6  7  1  0
  7  8  2  0
  7  9  1  0
  9 10  2  0
  9 11  1  0
 12 13  2  0
 12 17  1  0
 13 14  1  0
 14 15  1  0
 15 16  1  0
 16 17  2  0
M  END
