
     RDKit          3D

 17 19  0  0  0  0  0  0  0  0999 V2000
    4.6280    0.2340   -1.6750 N   0  0  0  0  0  0  0  0  0  0  0  0
    3.5810   -0.0320   -0.7500 C   0  0  0  0  0  0  0  0  0  0  0  0
    3.8260   -0.6910    0.3960 N   0  0  0  0  0  0  0  0  0  0  0  0
    2.8450   -0.9510    1.2810 C   0  0  0  0  0  0  0  0  0  0  0  0
    1.5840   -0.5550    1.0420 N   0  0  0  0  0  0  0  0  0  0  0  0
    1.2630    0.1040   -0.0720 C   0  0  0  0  0  0  0  0  0  0  0  0
    2.2830    0.3700   -0.9870 C   0  0  0  0  0  0  0  0  0  0  0  0
    1.7200    1.0300   -2.0060 N   0  0  0  0  0  0  0  0  0  0  0  0
    0.4060    1.1730   -1.7450 C   0  0  0  0  0  0  0  0  0  0  0  0
    0.1150    0.6070   -0.5600 N   0  0  0  0  0  0  0  0  0  0  0  0
   -1.1550    0.5400    0.0800 C   0  0  2  0  0  0  0  0  0  0  0  0
   -1.0600    0.3420    1.4570 O   0  0  0  0  0  0  0  0  0  0  0  0
   -2.3190    0.0090    1.8900 C   0  0  0  0  0  0  0  0  0  0  0  0
   -3.0360   -0.6700    0.7420 C   0  0  1  0  0  0  0  0  0  0  0  0
   -4.0640    0.1540    0.2330 O   0  0  0  0  0  0  0  0  0  0  0  0
   -1.9510   -0.6870   -0.3210 C   0  0  1  0  0  0  0  0  0  0  0  0
   -2.4710   -0.5920   -1.6000 O   0  0  0  0  0  0  0  0  0  0  0  0
  1  2  1  0
  2  3  2  0
  2  7  1  0
  3  4  1  0
  4  5  2  0
  5  6  1  0
  6  7  2  0
  6 10  1  0
  7  8  1  0
  8  9  2  0
  9 10  1  0
 11 10  1  6
 11 12  1  0
 11 16  1  0
 12 13  1  0
 13 14  1  0
 14 15  1  6
 14 16  1  0
 16 17  1  6
M  END
