
     RDKit          3D

 17 18  0  0  0  0  0  0  0  0999 V2000
   -3.6840   -1.5560    1.2780 C   0  0  0  0  0  0  0  0  0  0  0  0
   -3.8340   -0.2600    0.5720 C   0  0  0  0  0  0  0  0  0  0  0  0
   -4.9410    0.2800    0.0420 N   0  0  0  0  0  0  0  0  0  0  0  0
   -4.6830    1.4380   -0.5010 N   0  0  0  0  0  0  0  0  0  0  0  0
   -3.3880    1.6920   -0.3410 C   0  0  0  0  0  0  0  0  0  0  0  0
   -2.8240    0.6300    0.3370 C   0  0  0  0  0  0  0  0  0  0  0  0
   -1.4790    0.5650    0.6750 O   0  0  0  0  0  0  0  0  0  0  0  0
   -0.5070    0.0120   -0.1340 C   0  0  0  0  0  0  0  0  0  0  0  0
   -0.8610   -0.4600   -1.2410 O   0  0  0  0  0  0  0  0  0  0  0  0
    0.8620   -0.0500    0.2170 N   0  0  0  0  0  0  0  0  0  0  0  0
    1.8730   -0.6360   -0.6470 C   0  0  2  0  0  0  0  0  0  0  0  0
    2.5840   -1.7320    0.0850 C   0  0  0  0  0  0  0  0  0  0  0  0
    2.1170   -2.8940    0.1880 O   0  0  0  0  0  0  0  0  0  0  0  0
    3.8010   -1.2500    0.6060 N   0  0  0  0  0  0  0  0  0  0  0  0
    4.0060    0.1250    0.1950 C   0  0  0  0  0  0  0  0  0  0  0  0
    2.9960    0.3410   -0.9260 C   0  0  2  0  0  0  0  0  0  0  0  0
    2.5070    1.7040   -0.9520 N   0  0  0  0  0  0  0  0  0  0  0  0
  1  2  1  0
  2  3  2  0
  2  6  1  0
  3  4  1  0
  4  5  1  0
  5  6  2  0
  6  7  1  0
  7  8  1  0
  8  9  2  0
  8 10  1  0
 11 10  1  1
 11 12  1  0
 11 16  1  0
 12 13  2  0
 12 14  1  0
 14 15  1  0
 15 16  1  0
 16 17  1  1
M  END
