
     RDKit          3D

 17 19  0  0  0  0  0  0  0  0999 V2000
   -3.9460    0.0850   -2.4690 O   0  0  0  0  0  0  0  0  0  0  0  0
   -3.2110    0.0160   -1.4570 C   0  0  0  0  0  0  0  0  0  0  0  0
   -3.7190   -0.5280   -0.3210 N   0  0  0  0  0  0  0  0  0  0  0  0
   -2.9410   -0.6080    0.7700 C   0  0  0  0  0  0  0  0  0  0  0  0
   -3.3470   -1.1010    1.8590 O   0  0  0  0  0  0  0  0  0  0  0  0
   -1.6380   -0.1460    0.7470 C   0  0  0  0  0  0  0  0  0  0  0  0
   -1.1600    0.4000   -0.4290 C   0  0  0  0  0  0  0  0  0  0  0  0
   -1.9520    0.4800   -1.5330 N   0  0  0  0  0  0  0  0  0  0  0  0
    0.0200    0.8400   -0.5150 N   0  0  0  0  0  0  0  0  0  0  0  0
    0.9500    0.8210    0.5520 C   0  0  2  0  0  0  0  0  0  0  0  0
    2.2230    0.1200    0.1920 C   0  0  0  0  0  0  0  0  0  0  0  0
    2.3200   -1.0720   -0.4710 C   0  0  0  0  0  0  0  0  0  0  0  0
    3.6750   -1.3440   -0.5880 C   0  0  0  0  0  0  0  0  0  0  0  0
    4.3300   -0.3670   -0.0260 O   0  0  0  0  0  0  0  0  0  0  0  0
    3.4970    0.5420    0.4600 C   0  0  0  0  0  0  0  0  0  0  0  0
    0.4010    0.2440    1.7450 N   0  0  0  0  0  0  0  0  0  0  0  0
   -0.8990   -0.2240    1.7900 N   0  0  0  0  0  0  0  0  0  0  0  0
  1  2  2  0
  2  3  1  0
  2  8  1  0
  3  4  1  0
  4  5  2  0
  4  6  1  0
  6  7  1  0
  6 17  2  0
  7  8  1  0
  7  9  2  0
  9 10  1  0
 10 11  1  6
 10 16  1  0
 11 12  1  0
 11 15  2  0
 12 13  2  0
 13 14  1  0
 14 15  1  0
 16 17  1  0
M  END
