
     RDKit          3D

 17 18  0  0  0  0  0  0  0  0999 V2000
   -2.8590    1.6920    0.7300 C   0  0  0  0  0  0  0  0  0  0  0  0
   -3.1940    0.2250    0.6930 C   0  0  1  0  0  0  0  0  0  0  0  0
   -4.5360    0.0720   -0.0370 C   0  0  0  0  0  0  0  0  0  0  0  0
   -4.3450   -0.9960   -0.9270 O   0  0  0  0  0  0  0  0  0  0  0  0
   -3.0580   -0.7030   -1.4400 C   0  0  0  0  0  0  0  0  0  0  0  0
   -2.2930   -0.5880   -0.1510 C   0  0  1  0  0  0  0  0  0  0  0  0
   -0.9580   -0.1300   -0.2850 N   0  0  0  0  0  0  0  0  0  0  0  0
    0.1800   -0.8780    0.0760 C   0  0  0  0  0  0  0  0  0  0  0  0
   -0.0050   -2.0190    0.5450 O   0  0  0  0  0  0  0  0  0  0  0  0
    1.5230   -0.3870   -0.0720 N   0  0  0  0  0  0  0  0  0  0  0  0
    2.6420   -1.2340    0.3290 C   0  0  0  0  0  0  0  0  0  0  0  0
    3.8840   -0.4730    0.0640 C   0  0  0  0  0  0  0  0  0  0  0  0
    4.5980   -0.4760   -1.0730 N   0  0  0  0  0  0  0  0  0  0  0  0
    5.6130    0.3300   -0.8790 N   0  0  0  0  0  0  0  0  0  0  0  0
    5.5460    0.8360    0.3590 C   0  0  0  0  0  0  0  0  0  0  0  0
    6.3450    1.6440    0.8980 O   0  0  0  0  0  0  0  0  0  0  0  0
    4.4590    0.3380    0.9650 N   0  0  0  0  0  0  0  0  0  0  0  0
  2  1  1  6
  2  3  1  0
  2  6  1  0
  3  4  1  0
  4  5  1  0
  5  6  1  0
  6  7  1  6
  7  8  1  0
  8  9  2  0
  8 10  1  0
 10 11  1  0
 11 12  1  0
 12 13  2  0
 12 17  1  0
 13 14  1  0
 14 15  1  0
 15 16  2  0
 15 17  1  0
M  END
