
     RDKit          3D

 17 18  0  0  0  0  0  0  0  0999 V2000
    5.5210   -1.5720    0.7370 O   0  0  0  0  0  0  0  0  0  0  0  0
    4.4390   -0.9300    0.8690 C   0  0  0  0  0  0  0  0  0  0  0  0
    4.5160    0.4830    1.2660 C   0  0  0  0  0  0  0  0  0  0  0  0
    3.3090    1.1920    0.9580 N   0  0  0  0  0  0  0  0  0  0  0  0
    2.0700    0.5730    0.7170 C   0  0  0  0  0  0  0  0  0  0  0  0
    1.0100    1.2540    0.6500 O   0  0  0  0  0  0  0  0  0  0  0  0
    2.0140   -0.8740    0.5440 C   0  0  0  0  0  0  0  0  0  0  0  0
    0.8810   -1.4460    0.3230 N   0  0  0  0  0  0  0  0  0  0  0  0
   -0.3100   -0.7070    0.2450 C   0  0  0  0  0  0  0  0  0  0  0  0
   -0.9710   -0.5130   -0.8680 C   0  0  0  0  0  0  0  0  0  0  0  0
   -2.1650    0.2270   -0.9490 N   0  0  0  0  0  0  0  0  0  0  0  0
   -3.2320    0.2230    0.0230 C   0  0  0  0  0  0  0  0  0  0  0  0
   -4.4220    0.4360   -0.8810 C   0  0  2  0  0  0  0  0  0  0  0  0
   -4.7630   -0.8040   -1.4110 O   0  0  0  0  0  0  0  0  0  0  0  0
   -3.8370    1.2510   -1.9630 C   0  0  0  0  0  0  0  0  0  0  0  0
   -2.5590    1.0970   -1.9580 N   0  0  0  0  0  0  0  0  0  0  0  0
    3.2160   -1.6240    0.6220 N   0  0  0  0  0  0  0  0  0  0  0  0
  1  2  2  0
  2  3  1  0
  2 17  1  0
  3  4  1  0
  4  5  1  0
  5  6  2  0
  5  7  1  0
  7  8  2  3
  7 17  1  0
  8  9  1  0
  9 10  2  3
 10 11  1  0
 11 12  1  0
 11 16  1  0
 12 13  1  0
 13 14  1  6
 13 15  1  0
 15 16  2  0
M  END
