
     RDKit          3D

 34 36  0  0  0  0  0  0  0  0999 V2000
   -5.0750   -0.3550   -0.6010 C   0  0  0  0  0  0  0  0  0  0  0  0
   -4.9750   -0.9410    0.7740 C   0  0  0  0  0  0  0  0  0  0  0  0
   -3.6720   -1.5940    0.9670 C   0  0  0  0  0  0  0  0  0  0  0  0
   -3.6320   -2.9000    1.2170 C   0  0  0  0  0  0  0  0  0  0  0  0
   -4.7310   -3.8500    1.3400 C   0  0  0  0  0  0  0  0  0  0  0  0
   -4.6000   -4.9050    0.3170 N   0  0  0  0  0  0  0  0  0  0  0  0
   -2.3750   -0.8880    0.9650 C   0  0  0  0  0  0  0  0  0  0  0  0
   -1.9510   -0.2340   -0.2930 C   0  0  0  0  0  0  0  0  0  0  0  0
   -0.6300    0.4130   -0.1330 N   0  0  0  0  0  0  0  0  0  0  0  0
    0.5620   -0.3140   -0.3910 C   0  0  0  0  0  0  0  0  0  0  0  0
    0.4850   -1.5240   -0.7110 O   0  0  0  0  0  0  0  0  0  0  0  0
    1.8530    0.4080   -0.2640 C   0  0  0  0  0  0  0  0  0  0  0  0
    3.0130   -0.4550   -0.5070 C   0  0  0  0  0  0  0  0  0  0  0  0
    3.7370   -1.0690    0.4920 C   0  0  0  0  0  0  0  0  0  0  0  0
    4.8220   -1.8850    0.2440 C   0  0  0  0  0  0  0  0  0  0  0  0
    5.5350   -2.4920    1.2850 O   0  0  0  0  0  0  0  0  0  0  0  0
    5.1080   -2.2400    2.6210 C   0  0  0  0  0  0  0  0  0  0  0  0
    5.1780   -2.0810   -1.0690 C   0  0  0  0  0  0  0  0  0  0  0  0
    4.4870   -1.4910   -2.1060 C   0  0  0  0  0  0  0  0  0  0  0  0
    3.4070   -0.6800   -1.8070 C   0  0  0  0  0  0  0  0  0  0  0  0
    4.9220   -1.7490   -3.3850 O   0  0  0  0  0  0  0  0  0  0  0  0
    6.2250   -2.1770   -3.7210 C   0  0  0  0  0  0  0  0  0  0  0  0
    7.0550   -2.5750   -2.5340 C   0  0  0  0  0  0  0  0  0  0  0  0
    6.2610   -2.8920   -1.4030 O   0  0  0  0  0  0  0  0  0  0  0  0
   -0.6180    1.7760    0.2700 C   0  0  0  0  0  0  0  0  0  0  0  0
   -0.2050    2.1890    1.5220 C   0  0  0  0  0  0  0  0  0  0  0  0
   -0.1970    3.5210    1.9060 C   0  0  0  0  0  0  0  0  0  0  0  0
   -0.6120    4.5000    1.0250 C   0  0  0  0  0  0  0  0  0  0  0  0
   -0.6050    5.8740    1.4190 N   0  0  0  0  0  0  0  0  0  0  0  0
   -1.0250    4.1140   -0.2210 C   0  0  0  0  0  0  0  0  0  0  0  0
   -1.4680    5.1830   -1.1620 C   0  0  0  0  0  0  0  0  0  0  0  0
   -2.8480    5.6920   -0.8020 C   0  0  0  0  0  0  0  0  0  0  0  0
   -3.3080    6.9590   -1.9600 Cl  0  0  0  0  0  0  0  0  0  0  0  0
   -1.0340    2.7870   -0.6040 C   0  0  0  0  0  0  0  0  0  0  0  0
  1  2  1  0
  2  3  1  0
  3  4  2  3
  3  7  1  0
  4  5  1  0
  5  6  1  0
  7  8  1  0
  8  9  1  0
  9 10  1  0
  9 25  1  0
 10 11  2  0
 10 12  1  0
 12 13  1  0
 13 14  2  0
 13 20  1  0
 14 15  1  0
 15 16  1  0
 15 18  2  0
 16 17  1  0
 18 19  1  0
 18 24  1  0
 19 20  2  0
 19 21  1  0
 21 22  1  0
 22 23  1  0
 23 24  1  0
 25 26  2  0
 25 34  1  0
 26 27  1  0
 27 28  2  0
 28 29  1  0
 28 30  1  0
 30 31  1  0
 30 34  2  0
 31 32  1  0
 32 33  1  0
M  CHG  1   6   1
M  END
