
     RDKit          3D

 34 36  0  0  0  0  0  0  0  0999 V2000
    6.4840    3.1730    2.9330 C   0  0  0  0  0  0  0  0  0  0  0  0
    6.6640    2.0700    2.2370 C   0  0  0  0  0  0  0  0  0  0  0  0
    6.6130    2.1600    0.7780 C   0  0  0  0  0  0  0  0  0  0  0  0
    6.7910    1.0620    0.0730 C   0  0  0  0  0  0  0  0  0  0  0  0
    7.0860   -0.4850    0.8680 Cl  0  0  0  0  0  0  0  0  0  0  0  0
    6.7390    1.1460   -1.4180 C   0  0  0  0  0  0  0  0  0  0  0  0
    5.6250    0.2480   -1.8730 C   0  0  0  0  0  0  0  0  0  0  0  0
    4.3540    0.6600   -1.3160 N   0  0  0  0  0  0  0  0  0  0  0  0
    3.1730   -0.0760   -1.6320 C   0  0  0  0  0  0  0  0  0  0  0  0
    3.3200   -1.0530   -2.3880 O   0  0  0  0  0  0  0  0  0  0  0  0
    1.8990    0.3460   -1.0680 C   0  0  0  0  0  0  0  0  0  0  0  0
    1.6720    1.4840   -0.4360 O   0  0  0  0  0  0  0  0  0  0  0  0
    0.4540    1.5910   -0.0540 N   0  0  0  0  0  0  0  0  0  0  0  0
   -0.2530    0.4730   -0.4250 C   0  0  0  0  0  0  0  0  0  0  0  0
   -1.6780    0.2990   -0.2350 C   0  0  0  0  0  0  0  0  0  0  0  0
   -2.4460    1.4240   -0.6060 C   0  0  0  0  0  0  0  0  0  0  0  0
   -3.8270    1.4100   -0.4840 C   0  0  0  0  0  0  0  0  0  0  0  0
   -4.4930    0.3190   -0.0040 C   0  0  0  0  0  0  0  0  0  0  0  0
   -5.9230    0.3140    0.1530 C   0  0  0  0  0  0  0  0  0  0  0  0
   -6.5450    1.2480    0.8430 C   0  0  0  0  0  0  0  0  0  0  0  0
   -6.0410    2.4260    1.5750 C   0  0  0  0  0  0  0  0  0  0  0  0
   -7.1120    3.4920    1.4200 C   0  0  0  0  0  0  0  0  0  0  0  0
   -8.3880    2.7800    1.1110 C   0  0  0  0  0  0  0  0  0  0  0  0
   -8.0210    1.3420    1.0400 C   0  0  0  0  0  0  0  0  0  0  0  0
   -8.7510    0.3100    1.1210 O   0  0  0  0  0  0  0  0  0  0  0  0
   -3.7610   -0.7790    0.3580 C   0  0  0  0  0  0  0  0  0  0  0  0
   -2.3650   -0.7590    0.2320 C   0  0  0  0  0  0  0  0  0  0  0  0
    0.6810   -0.3180   -1.0660 C   0  0  0  0  0  0  0  0  0  0  0  0
    0.4190   -1.6450   -1.6390 C   0  0  0  0  0  0  0  0  0  0  0  0
    1.0510   -2.7440   -0.8400 C   0  0  1  0  0  0  0  0  0  0  0  0
    0.5930   -2.7680    0.5160 N   0  0  0  0  0  0  0  0  0  0  0  0
    0.6590   -4.0460   -1.5620 C   0  0  0  0  0  0  0  0  0  0  0  0
    1.2510   -5.2150   -0.8560 C   0  0  0  0  0  0  0  0  0  0  0  0
    0.8180   -5.3350    0.4560 O   0  0  0  0  0  0  0  0  0  0  0  0
  1  2  2  0
  2  3  1  0
  3  4  2  3
  4  5  1  0
  4  6  1  0
  6  7  1  0
  7  8  1  0
  8  9  1  0
  9 10  2  0
  9 11  1  0
 11 12  1  0
 11 28  2  0
 12 13  1  0
 13 14  2  0
 14 15  1  0
 14 28  1  0
 15 16  2  0
 15 27  1  0
 16 17  1  0
 17 18  2  0
 18 19  1  0
 18 26  1  0
 19 20  2  3
 20 21  1  0
 20 24  1  0
 21 22  1  0
 22 23  1  0
 23 24  1  0
 24 25  2  0
 26 27  2  0
 28 29  1  0
 29 30  1  0
 30 31  1  1
 30 32  1  0
 32 33  1  0
 33 34  1  0
M  CHG  1  31   1
M  END
