
     RDKit          3D

 34 36  0  0  0  0  0  0  0  0999 V2000
    7.8840   -1.2710   -0.4920 C   0  0  0  0  0  0  0  0  0  0  0  0
    6.4680   -1.4640   -0.7440 N   0  0  0  0  0  0  0  0  0  0  0  0
    5.8860   -0.1640   -0.9940 C   0  0  0  0  0  0  0  0  0  0  0  0
    4.5280   -0.0440   -0.3920 C   0  0  0  0  0  0  0  0  0  0  0  0
    3.4000   -0.3650   -1.1160 C   0  0  0  0  0  0  0  0  0  0  0  0
    2.1230   -0.2620   -0.5790 C   0  0  0  0  0  0  0  0  0  0  0  0
    1.9660    0.1680    0.6990 C   0  0  0  0  0  0  0  0  0  0  0  0
    0.6220    0.3070    1.3270 C   0  0  0  0  0  0  0  0  0  0  0  0
   -0.4350    0.3280    0.3630 N   0  0  0  0  0  0  0  0  0  0  0  0
   -0.6750    1.3830   -0.5540 C   0  0  0  0  0  0  0  0  0  0  0  0
   -1.2410    2.6660   -0.1350 C   0  0  2  0  0  0  0  0  0  0  0  0
   -1.3440    3.4490   -1.3300 O   0  0  0  0  0  0  0  0  0  0  0  0
   -0.4880    3.5320    0.8170 C   0  0  0  0  0  0  0  0  0  0  0  0
   -1.2650    4.8120    1.0500 C   0  0  0  0  0  0  0  0  0  0  0  0
   -2.2640    4.7710    1.7860 O   0  0  0  0  0  0  0  0  0  0  0  0
   -0.8710    5.9750    0.4620 O   0  0  0  0  0  0  0  0  0  0  0  0
   -1.5340    7.2160    0.6200 C   0  0  0  0  0  0  0  0  0  0  0  0
   -2.6330    2.5620    0.3930 C   0  0  0  0  0  0  0  0  0  0  0  0
   -3.6840    3.1720   -0.3200 N   0  0  0  0  0  0  0  0  0  0  0  0
   -2.8990    1.9490    1.4530 O   0  0  0  0  0  0  0  0  0  0  0  0
   -1.2890   -0.8490    0.3170 C   0  0  0  0  0  0  0  0  0  0  0  0
   -2.4740   -0.8490   -0.3850 C   0  0  0  0  0  0  0  0  0  0  0  0
   -3.2900   -1.9880   -0.4610 C   0  0  0  0  0  0  0  0  0  0  0  0
   -2.9320   -3.1590    0.1700 C   0  0  0  0  0  0  0  0  0  0  0  0
   -3.8050   -4.3430    0.0720 C   0  0  0  0  0  0  0  0  0  0  0  0
   -4.9360   -4.3440   -0.6190 C   0  0  0  0  0  0  0  0  0  0  0  0
   -5.5530   -5.6760   -0.5080 C   0  0  0  0  0  0  0  0  0  0  0  0
   -4.6410   -6.4470    0.3340 C   0  0  0  0  0  0  0  0  0  0  0  0
   -3.6280   -5.6550    0.6620 C   0  0  0  0  0  0  0  0  0  0  0  0
   -2.2940   -6.2130    1.6850 Cl  0  0  0  0  0  0  0  0  0  0  0  0
   -1.7630   -3.1610    0.8650 C   0  0  0  0  0  0  0  0  0  0  0  0
   -0.9550   -2.0250    0.9360 C   0  0  0  0  0  0  0  0  0  0  0  0
    3.0680    0.4990    1.4600 C   0  0  0  0  0  0  0  0  0  0  0  0
    4.3380    0.3890    0.9030 C   0  0  0  0  0  0  0  0  0  0  0  0
  1  2  1  0
  2  3  1  0
  3  4  1  0
  4  5  2  0
  4 34  1  0
  5  6  1  0
  6  7  2  0
  7  8  1  0
  7 33  1  0
  8  9  1  0
  9 10  1  0
  9 21  1  0
 10 11  1  0
 11 12  1  6
 11 13  1  0
 11 18  1  0
 13 14  1  0
 14 15  2  0
 14 16  1  0
 16 17  1  0
 18 19  1  0
 18 20  2  0
 21 22  2  0
 21 32  1  0
 22 23  1  0
 23 24  2  0
 24 25  1  0
 24 31  1  0
 25 26  2  0
 25 29  1  0
 26 27  1  0
 27 28  1  0
 28 29  2  0
 29 30  1  0
 31 32  2  0
 33 34  2  0
M  CHG  1   2   1
M  END
