
     RDKit          3D

 34 36  0  0  0  0  0  0  0  0999 V2000
    7.7210    0.1170    1.5710 C   0  0  0  0  0  0  0  0  0  0  0  0
    8.3020    0.4190    0.2610 N   0  0  0  0  0  0  0  0  0  0  0  0
    8.0300   -0.6590   -0.6390 C   0  0  0  0  0  0  0  0  0  0  0  0
    7.0430   -0.3690   -1.7310 C   0  0  0  0  0  0  0  0  0  0  0  0
    5.7190    0.0260   -1.2110 C   0  0  0  0  0  0  0  0  0  0  0  0
    5.3510    1.3550   -1.0500 C   0  0  0  0  0  0  0  0  0  0  0  0
    4.1240    1.7070   -0.5360 C   0  0  0  0  0  0  0  0  0  0  0  0
    3.2240    0.6840   -0.1700 C   0  0  0  0  0  0  0  0  0  0  0  0
    3.5650   -0.6410   -0.3210 C   0  0  0  0  0  0  0  0  0  0  0  0
    2.6650   -1.7180    0.0960 C   0  0  0  0  0  0  0  0  0  0  0  0
    1.2950   -1.4800   -0.0760 O   0  0  0  0  0  0  0  0  0  0  0  0
    0.5980   -1.2360   -1.2220 C   0  0  0  0  0  0  0  0  0  0  0  0
    1.1160   -1.1910   -2.4850 C   0  0  0  0  0  0  0  0  0  0  0  0
    0.2990   -0.9390   -3.5690 C   0  0  0  0  0  0  0  0  0  0  0  0
   -1.0530   -0.7260   -3.4160 C   0  0  0  0  0  0  0  0  0  0  0  0
   -1.5960   -0.7690   -2.1310 C   0  0  0  0  0  0  0  0  0  0  0  0
   -0.7990   -1.0170   -1.0510 C   0  0  0  0  0  0  0  0  0  0  0  0
   -1.2850   -1.0730    0.3140 C   0  0  0  0  0  0  0  0  0  0  0  0
   -2.6610   -0.8140    0.5710 N   0  0  0  0  0  0  0  0  0  0  0  0
   -3.3170    0.4290    0.3060 C   0  0  0  0  0  0  0  0  0  0  0  0
   -2.6750    1.3510   -0.2090 O   0  0  0  0  0  0  0  0  0  0  0  0
   -4.7130    0.5710    0.6620 C   0  0  0  0  0  0  0  0  0  0  0  0
   -4.9960    1.0260    1.9810 C   0  0  0  0  0  0  0  0  0  0  0  0
   -6.2940    1.1650    2.3660 C   0  0  0  0  0  0  0  0  0  0  0  0
   -6.6100    1.6370    3.7410 C   0  0  0  0  0  0  0  0  0  0  0  0
   -7.9110    1.5090    4.2670 N   0  0  0  0  0  0  0  0  0  0  0  0
   -5.6910    2.1430    4.4080 O   0  0  0  0  0  0  0  0  0  0  0  0
   -7.3660    0.8870    1.5350 C   0  0  0  0  0  0  0  0  0  0  0  0
   -7.1000    0.4500    0.2650 C   0  0  0  0  0  0  0  0  0  0  0  0
   -8.1190    0.1530   -0.6220 O   0  0  0  0  0  0  0  0  0  0  0  0
   -9.4650    0.3110   -0.1840 C   0  0  0  0  0  0  0  0  0  0  0  0
   -5.7750    0.3010   -0.1440 C   0  0  0  0  0  0  0  0  0  0  0  0
   -5.4920   -0.2550   -1.7830 Cl  0  0  0  0  0  0  0  0  0  0  0  0
    4.8060   -0.9650   -0.8420 C   0  0  0  0  0  0  0  0  0  0  0  0
  1  2  1  0
  2  3  1  0
  3  4  1  0
  4  5  1  0
  5  6  2  0
  5 34  1  0
  6  7  1  0
  7  8  2  0
  8  9  1  0
  9 10  1  0
  9 34  2  0
 10 11  1  0
 11 12  1  0
 12 13  2  0
 12 17  1  0
 13 14  1  0
 14 15  2  0
 15 16  1  0
 16 17  2  0
 17 18  1  0
 18 19  1  0
 19 20  1  0
 20 21  2  0
 20 22  1  0
 22 23  2  0
 22 32  1  0
 23 24  1  0
 24 25  1  0
 24 28  2  0
 25 26  1  0
 25 27  2  0
 28 29  1  0
 29 30  1  0
 29 32  2  0
 30 31  1  0
 32 33  1  0
M  CHG  1   2   1
M  END
