
     RDKit          3D

 34 36  0  0  0  0  0  0  0  0999 V2000
    9.1020    2.2050    2.1330 C   0  0  0  0  0  0  0  0  0  0  0  0
    8.4250    0.9680    2.0720 O   0  0  0  0  0  0  0  0  0  0  0  0
    7.5730    0.7270    0.9990 C   0  0  0  0  0  0  0  0  0  0  0  0
    6.8750   -0.4550    0.8670 C   0  0  0  0  0  0  0  0  0  0  0  0
    6.0230   -0.7120   -0.1930 C   0  0  0  0  0  0  0  0  0  0  0  0
    5.8610    0.2520   -1.1620 C   0  0  0  0  0  0  0  0  0  0  0  0
    4.9460    0.0220   -2.3350 C   0  0  1  0  0  0  0  0  0  0  0  0
    5.4520   -1.1850   -3.0910 C   0  0  0  0  0  0  0  0  0  0  0  0
    3.5540   -0.2020   -1.8650 C   0  0  0  0  0  0  0  0  0  0  0  0
    3.0080   -1.2890   -2.1500 O   0  0  0  0  0  0  0  0  0  0  0  0
    2.8920    0.7580   -1.1390 O   0  0  0  0  0  0  0  0  0  0  0  0
    1.5810    0.5750   -0.6800 C   0  0  0  0  0  0  0  0  0  0  0  0
    1.5230   -0.5960    0.2390 C   0  0  0  0  0  0  0  0  0  0  0  0
    0.1610   -0.8220    0.7460 N   0  0  0  0  0  0  0  0  0  0  0  0
   -0.3390   -0.2920    1.8460 N   0  0  0  0  0  0  0  0  0  0  0  0
   -1.6160   -0.7220    1.9970 C   0  0  0  0  0  0  0  0  0  0  0  0
   -2.5660   -0.3890    3.0900 C   0  0  1  0  0  0  0  0  0  0  0  0
   -3.7490    0.4170    2.6370 C   0  0  0  0  0  0  0  0  0  0  0  0
   -2.9630   -1.6070    3.8870 C   0  0  0  0  0  0  0  0  0  0  0  0
   -1.8500   -1.5270    0.9440 N   0  0  0  0  0  0  0  0  0  0  0  0
   -3.0900   -2.2280    0.6670 C   0  0  0  0  0  0  0  0  0  0  0  0
   -4.0130   -1.3910   -0.1870 C   0  0  0  0  0  0  0  0  0  0  0  0
   -5.0900   -1.8900   -0.4760 O   0  0  0  0  0  0  0  0  0  0  0  0
   -3.6510   -0.1140   -0.6230 N   0  0  0  0  0  0  0  0  0  0  0  0
   -4.3460    0.8370   -1.3900 C   0  0  0  0  0  0  0  0  0  0  0  0
   -5.5110    1.4750   -0.7910 C   0  0  2  0  0  0  0  0  0  0  0  0
   -6.7320    0.6860   -0.5430 C   0  0  0  0  0  0  0  0  0  0  0  0
   -7.1380    0.3410   -1.9730 C   0  0  0  0  0  0  0  0  0  0  0  0
   -6.7000    1.6190   -2.6720 C   0  0  0  0  0  0  0  0  0  0  0  0
   -6.0710    2.4290   -1.7240 O   0  0  0  0  0  0  0  0  0  0  0  0
   -0.7410   -1.5990    0.1500 C   0  0  0  0  0  0  0  0  0  0  0  0
   -0.6210   -2.4730   -1.2270 S   0  0  0  0  0  0  0  0  0  0  0  0
    6.5640    1.4280   -1.0170 C   0  0  0  0  0  0  0  0  0  0  0  0
    7.3860    1.6510    0.0250 N   0  0  0  0  0  0  0  0  0  0  0  0
  1  2  1  0
  2  3  1  0
  3  4  2  0
  3 34  1  0
  4  5  1  0
  5  6  2  0
  6  7  1  0
  6 33  1  0
  7  8  1  1
  7  9  1  0
  9 10  2  0
  9 11  1  0
 11 12  1  0
 12 13  1  0
 13 14  1  0
 14 15  1  0
 14 31  1  0
 15 16  2  0
 16 17  1  0
 16 20  1  0
 17 18  1  6
 17 19  1  0
 20 21  1  0
 20 31  1  0
 21 22  1  0
 22 23  2  0
 22 24  1  0
 24 25  1  0
 26 25  1  6
 26 27  1  0
 26 30  1  0
 27 28  1  0
 28 29  1  0
 29 30  1  0
 31 32  2  0
 33 34  2  0
M  END
