
     RDKit          3D

 34 35  0  0  0  0  0  0  0  0999 V2000
   -6.9570   -2.2030    1.5160 N   0  0  0  0  0  0  0  0  0  0  0  0
   -5.7410   -1.9640    0.8410 C   0  0  0  0  0  0  0  0  0  0  0  0
   -5.3430   -2.7710   -0.0210 O   0  0  0  0  0  0  0  0  0  0  0  0
   -4.9370   -0.7560    1.1540 C   0  0  2  0  0  0  0  0  0  0  0  0
   -5.7770    0.4230    0.7620 C   0  0  0  0  0  0  0  0  0  0  0  0
   -5.1660    1.7570    0.9860 C   0  0  0  0  0  0  0  0  0  0  0  0
   -4.8540    2.0230    2.3850 C   0  0  0  0  0  0  0  0  0  0  0  0
   -5.1260    1.2030    3.2790 O   0  0  0  0  0  0  0  0  0  0  0  0
   -4.2390    3.2120    2.7530 O   0  0  0  0  0  0  0  0  0  0  0  0
   -3.7310   -0.7260    0.3320 N   0  0  0  0  0  0  0  0  0  0  0  0
   -2.4460   -0.6850    0.9280 C   0  0  0  0  0  0  0  0  0  0  0  0
   -2.3990   -0.6760    2.1870 O   0  0  0  0  0  0  0  0  0  0  0  0
   -1.1910   -0.6530    0.1170 C   0  0  2  0  0  0  0  0  0  0  0  0
   -1.0470   -1.8590   -0.7510 C   0  0  0  0  0  0  0  0  0  0  0  0
   -1.0090   -3.1480    0.0390 C   0  0  0  0  0  0  0  0  0  0  0  0
   -0.8670   -4.2870   -0.9060 C   0  0  0  0  0  0  0  0  0  0  0  0
   -0.8170   -5.4530   -0.4520 O   0  0  0  0  0  0  0  0  0  0  0  0
   -0.7860   -4.1360   -2.2790 O   0  0  0  0  0  0  0  0  0  0  0  0
   -0.0630   -0.6070    1.0310 N   0  0  0  0  0  0  0  0  0  0  0  0
    0.8260    0.5080    1.0500 C   0  0  0  0  0  0  0  0  0  0  0  0
    0.5900    1.4360    0.2520 O   0  0  0  0  0  0  0  0  0  0  0  0
    1.9800    0.5890    1.9620 C   0  0  0  0  0  0  0  0  0  0  0  0
    2.7640    1.8570    1.8190 C   0  0  0  0  0  0  0  0  0  0  0  0
    3.3110    2.0220    0.4530 C   0  0  0  0  0  0  0  0  0  0  0  0
    4.5280    1.5640    0.0380 C   0  0  0  0  0  0  0  0  0  0  0  0
    4.6850    1.9070   -1.2890 C   0  0  0  0  0  0  0  0  0  0  0  0
    5.8460    1.6050   -2.1130 C   0  0  0  0  0  0  0  0  0  0  0  0
    5.8910    2.0030   -3.4320 C   0  0  0  0  0  0  0  0  0  0  0  0
    6.9830    1.7280   -4.2360 C   0  0  0  0  0  0  0  0  0  0  0  0
    8.0660    1.0340   -3.7130 C   0  0  0  0  0  0  0  0  0  0  0  0
    8.0280    0.6350   -2.4030 C   0  0  0  0  0  0  0  0  0  0  0  0
    6.9300    0.9170   -1.6120 C   0  0  0  0  0  0  0  0  0  0  0  0
    3.5590    2.5550   -1.6210 N   0  0  0  0  0  0  0  0  0  0  0  0
    2.7760    2.6110   -0.5970 O   0  0  0  0  0  0  0  0  0  0  0  0
  1  2  1  0
  2  3  2  0
  2  4  1  0
  4  5  1  6
  4 10  1  0
  5  6  1  0
  6  7  1  0
  7  8  2  0
  7  9  1  0
 10 11  1  0
 11 12  2  0
 11 13  1  0
 13 14  1  1
 13 19  1  0
 14 15  1  0
 15 16  1  0
 16 17  2  0
 16 18  1  0
 19 20  1  0
 20 21  2  0
 20 22  1  0
 22 23  1  0
 23 24  1  0
 24 25  2  0
 24 34  1  0
 25 26  1  0
 26 27  1  0
 26 33  2  0
 27 28  2  0
 27 32  1  0
 28 29  1  0
 29 30  2  0
 30 31  1  0
 31 32  2  0
 33 34  1  0
M  END
