
     RDKit          3D

 35 37  0  0  0  0  0  0  0  0999 V2000
   -2.3270    1.8940   -2.2590 C   0  0  0  0  0  0  0  0  0  0  0  0
   -3.3560    2.2540   -1.2180 C   0  0  1  0  0  0  0  0  0  0  0  0
   -3.6800    3.7470   -1.4530 C   0  0  0  0  0  0  0  0  0  0  0  0
   -4.5490    1.5130   -1.3170 N   0  0  0  0  0  0  0  0  0  0  0  0
   -4.6880    0.3020   -0.9960 C   0  0  0  0  0  0  0  0  0  0  0  0
   -6.3190   -0.4990   -1.1950 S   0  0  0  0  0  0  0  0  0  0  0  0
   -6.0220   -1.7160    0.1500 C   0  0  1  0  0  0  0  0  0  0  0  0
   -6.5660   -3.0250   -0.3650 C   0  0  1  0  0  0  0  0  0  0  0  0
   -8.0580   -2.9130   -0.6730 C   0  0  0  0  0  0  0  0  0  0  0  0
   -5.8520   -3.3300   -1.6660 C   0  0  0  0  0  0  0  0  0  0  0  0
   -4.5580   -1.7780    0.1520 C   0  0  0  0  0  0  0  0  0  0  0  0
   -3.9690   -2.7710    0.7200 O   0  0  0  0  0  0  0  0  0  0  0  0
   -3.8900   -0.7310   -0.4780 N   0  0  0  0  0  0  0  0  0  0  0  0
   -2.4690   -0.6850   -0.6100 N   0  0  0  0  0  0  0  0  0  0  0  0
   -1.6940   -0.3080    0.3240 C   0  0  0  0  0  0  0  0  0  0  0  0
   -2.2600    0.1030    1.6010 C   0  0  0  0  0  0  0  0  0  0  0  0
   -3.4830    0.0930    1.8510 O   0  0  0  0  0  0  0  0  0  0  0  0
   -1.3720    0.5430    2.6270 N   0  0  0  0  0  0  0  0  0  0  0  0
    0.0300    0.5630    2.3640 C   0  0  0  0  0  0  0  0  0  0  0  0
    0.7810    0.9600    3.3010 O   0  0  0  0  0  0  0  0  0  0  0  0
    0.6080    0.1710    1.1380 N   0  0  0  0  0  0  0  0  0  0  0  0
    2.0430    0.2620    0.9990 C   0  0  0  0  0  0  0  0  0  0  0  0
    2.7120   -1.0260    1.4920 C   0  0  0  0  0  0  0  0  0  0  0  0
    4.1900   -0.9170    1.3310 C   0  0  0  0  0  0  0  0  0  0  0  0
    5.0850   -1.8810    1.7760 C   0  0  0  0  0  0  0  0  0  0  0  0
    6.3600   -1.4760    1.4710 C   0  0  0  0  0  0  0  0  0  0  0  0
    6.1960   -0.2490    0.8360 C   0  0  0  0  0  0  0  0  0  0  0  0
    7.2560    0.6340    0.2940 C   0  0  1  0  0  0  0  0  0  0  0  0
    7.3750    0.3200   -1.1990 C   0  0  0  0  0  0  0  0  0  0  0  0
    6.9240    2.0830    0.5140 C   0  0  0  0  0  0  0  0  0  0  0  0
    7.9830    3.0050   -0.0240 C   0  0  0  0  0  0  0  0  0  0  0  0
    9.2130    2.8090    0.5630 F   0  0  0  0  0  0  0  0  0  0  0  0
    4.9160    0.0200    0.7850 O   0  0  0  0  0  0  0  0  0  0  0  0
   -0.2510   -0.2790    0.0780 C   0  0  0  0  0  0  0  0  0  0  0  0
    0.2490   -0.6300   -1.0140 O   0  0  0  0  0  0  0  0  0  0  0  0
  2  1  1  6
  2  3  1  0
  2  4  1  0
  4  5  2  3
  5  6  1  0
  5 13  1  0
  7  6  1  6
  7  8  1  0
  7 11  1  0
  8  9  1  6
  8 10  1  0
 11 12  2  0
 11 13  1  0
 13 14  1  0
 14 15  2  3
 15 16  1  0
 15 34  1  0
 16 17  2  0
 16 18  1  0
 18 19  1  0
 19 20  2  0
 19 21  1  0
 21 22  1  0
 21 34  1  0
 22 23  1  0
 23 24  1  0
 24 25  2  0
 24 33  1  0
 25 26  1  0
 26 27  2  0
 27 28  1  0
 27 33  1  0
 28 29  1  6
 28 30  1  0
 30 31  1  0
 31 32  1  0
 34 35  2  0
M  END
