
     RDKit          3D

 34 36  0  0  0  0  0  0  0  0999 V2000
    6.9900    1.2880    2.9540 C   0  0  0  0  0  0  0  0  0  0  0  0
    5.9490    0.8370    1.9670 C   0  0  0  0  0  0  0  0  0  0  0  0
    4.6220    0.8730    2.5480 N   0  0  0  0  0  0  0  0  0  0  0  0
    3.4660    0.4830    1.7790 C   0  0  0  0  0  0  0  0  0  0  0  0
    2.2070    0.5170    2.3160 C   0  0  0  0  0  0  0  0  0  0  0  0
    1.1150    0.1400    1.5630 C   0  0  0  0  0  0  0  0  0  0  0  0
    1.2240   -0.2840    0.2580 C   0  0  0  0  0  0  0  0  0  0  0  0
    0.0990   -0.7230   -0.5870 C   0  0  0  0  0  0  0  0  0  0  0  0
   -1.1640   -0.6300   -0.0370 O   0  0  0  0  0  0  0  0  0  0  0  0
   -1.8500    0.4860    0.3650 C   0  0  0  0  0  0  0  0  0  0  0  0
   -1.3440    1.7730    0.2520 C   0  0  0  0  0  0  0  0  0  0  0  0
   -2.0550    2.8790    0.6650 C   0  0  0  0  0  0  0  0  0  0  0  0
   -3.3180    2.7010    1.2120 C   0  0  0  0  0  0  0  0  0  0  0  0
   -4.1270    3.8700    1.6740 C   0  0  0  0  0  0  0  0  0  0  0  0
   -5.3140    3.3960    2.2090 O   0  0  0  0  0  0  0  0  0  0  0  0
   -6.0810    4.4770    2.6470 C   0  0  0  0  0  0  0  0  0  0  0  0
   -3.8140    1.4210    1.3220 C   0  0  0  0  0  0  0  0  0  0  0  0
   -3.1130    0.3120    0.9130 C   0  0  0  0  0  0  0  0  0  0  0  0
   -3.6530   -0.9740    1.0420 O   0  0  0  0  0  0  0  0  0  0  0  0
   -3.8500   -1.7780   -0.0750 C   0  0  0  0  0  0  0  0  0  0  0  0
   -3.2290   -3.0120   -0.2100 C   0  0  0  0  0  0  0  0  0  0  0  0
   -3.4230   -3.8100   -1.3180 C   0  0  0  0  0  0  0  0  0  0  0  0
   -2.7700   -5.1320   -1.4830 C   0  0  0  0  0  0  0  0  0  0  0  0
   -4.2760   -3.3410   -2.3210 C   0  0  0  0  0  0  0  0  0  0  0  0
   -4.8870   -2.1180   -2.1810 C   0  0  0  0  0  0  0  0  0  0  0  0
   -4.6860   -1.3280   -1.0690 C   0  0  0  0  0  0  0  0  0  0  0  0
   -5.5160    0.2220   -0.9840 Cl  0  0  0  0  0  0  0  0  0  0  0  0
    2.5160   -0.3180   -0.2880 C   0  0  0  0  0  0  0  0  0  0  0  0
    2.6460   -0.7500   -1.6240 N   0  0  0  0  0  0  0  0  0  0  0  0
    3.8270   -0.8650   -2.3920 C   0  0  0  0  0  0  0  0  0  0  0  0
    4.9150   -0.5670   -1.8920 O   0  0  0  0  0  0  0  0  0  0  0  0
    3.8070   -1.3410   -3.8020 C   0  0  0  0  0  0  0  0  0  0  0  0
    5.1450   -1.3490   -4.3070 N   0  0  0  0  0  0  0  0  0  0  0  0
    3.6000    0.0600    0.4710 C   0  0  0  0  0  0  0  0  0  0  0  0
  1  2  1  0
  2  3  1  0
  3  4  1  0
  4  5  2  0
  4 34  1  0
  5  6  1  0
  6  7  2  0
  7  8  1  0
  7 28  1  0
  8  9  1  0
  9 10  1  0
 10 11  2  0
 10 18  1  0
 11 12  1  0
 12 13  2  0
 13 14  1  0
 13 17  1  0
 14 15  1  0
 15 16  1  0
 17 18  2  0
 18 19  1  0
 19 20  1  0
 20 21  2  0
 20 26  1  0
 21 22  1  0
 22 23  1  0
 22 24  2  0
 24 25  1  0
 25 26  2  0
 26 27  1  0
 28 29  1  0
 28 34  2  0
 29 30  1  0
 30 31  2  0
 30 32  1  0
 32 33  1  0
M  CHG  1  33   1
M  END
