
     RDKit          3D

 35 38  0  0  0  0  0  0  0  0999 V2000
   -2.0560   -1.6710   -1.2070 N   0  0  0  0  0  0  0  0  0  0  0  0
   -1.7490   -0.5270   -0.3870 C   0  0  0  0  0  0  0  0  0  0  0  0
   -0.4640   -0.2690    0.0530 C   0  0  0  0  0  0  0  0  0  0  0  0
    0.5240   -1.1900   -0.3300 N   0  0  0  0  0  0  0  0  0  0  0  0
    1.9110   -1.1230   -0.0530 C   0  0  0  0  0  0  0  0  0  0  0  0
    2.3750   -0.1720    0.5780 O   0  0  0  0  0  0  0  0  0  0  0  0
    2.8240   -2.1250   -0.4780 N   0  0  0  0  0  0  0  0  0  0  0  0
    4.2470   -2.1060   -0.2310 C   0  0  0  0  0  0  0  0  0  0  0  0
    4.8200   -0.8800   -0.9210 C   0  0  0  0  0  0  0  0  0  0  0  0
    6.2670   -0.7620   -0.7300 C   0  0  0  0  0  0  0  0  0  0  0  0
    6.7990    0.1660    0.1290 C   0  0  0  0  0  0  0  0  0  0  0  0
    8.1930    0.2370    0.2710 C   0  0  0  0  0  0  0  0  0  0  0  0
    8.7670    1.1520    1.1160 C   0  0  0  0  0  0  0  0  0  0  0  0
   10.1290    1.2260    1.2560 C   0  0  0  0  0  0  0  0  0  0  0  0
   10.9440    0.3670    0.5380 C   0  0  0  0  0  0  0  0  0  0  0  0
   10.3980   -0.5640   -0.3200 C   0  0  0  0  0  0  0  0  0  0  0  0
    9.0060   -0.5950   -0.4250 C   0  0  0  0  0  0  0  0  0  0  0  0
    8.4720   -1.5060   -1.2690 N   0  0  0  0  0  0  0  0  0  0  0  0
    7.1240   -1.5790   -1.4110 C   0  0  0  0  0  0  0  0  0  0  0  0
    6.6620   -2.4290   -2.1970 O   0  0  0  0  0  0  0  0  0  0  0  0
   -0.2260    0.8200    0.8200 C   0  0  0  0  0  0  0  0  0  0  0  0
   -1.3030    1.6560    1.1460 C   0  0  0  0  0  0  0  0  0  0  0  0
   -2.5690    1.3800    0.6990 C   0  0  0  0  0  0  0  0  0  0  0  0
   -2.8260    0.2950   -0.0700 C   0  0  0  0  0  0  0  0  0  0  0  0
   -4.1910   -0.0200   -0.5770 C   0  0  0  0  0  0  0  0  0  0  0  0
   -5.2110    0.6510    0.3060 C   0  0  2  0  0  0  0  0  0  0  0  0
   -5.1100    0.1410    1.7100 C   0  0  0  0  0  0  0  0  0  0  0  0
   -5.3540   -1.2720    2.0200 C   0  0  0  0  0  0  0  0  0  0  0  0
   -4.5530   -2.2960    1.4770 N   0  0  0  0  0  0  0  0  0  0  0  0
   -6.6030    0.4990   -0.2230 C   0  0  0  0  0  0  0  0  0  0  0  0
   -7.0100    0.9860   -1.5280 C   0  0  0  0  0  0  0  0  0  0  0  0
   -6.9740    2.4430   -1.8470 C   0  0  0  0  0  0  0  0  0  0  0  0
   -7.7530    3.2150   -0.9650 O   0  0  0  0  0  0  0  0  0  0  0  0
   -4.8590    2.0520    0.3160 N   0  0  0  0  0  0  0  0  0  0  0  0
   -3.6570    2.3110    1.0960 C   0  0  0  0  0  0  0  0  0  0  0  0
  1  2  1  0
  2  3  2  0
  2 24  1  0
  3  4  1  0
  3 21  1  0
  4  5  1  0
  5  6  2  0
  5  7  1  0
  7  8  1  0
  8  9  1  0
  9 10  1  0
 10 11  2  0
 10 19  1  0
 11 12  1  0
 12 13  2  0
 12 17  1  0
 13 14  1  0
 14 15  2  0
 15 16  1  0
 16 17  2  0
 17 18  1  0
 18 19  1  0
 19 20  2  0
 21 22  2  0
 22 23  1  0
 23 24  2  0
 23 35  1  0
 24 25  1  0
 25 26  1  0
 26 27  1  1
 26 30  1  0
 26 34  1  0
 27 28  1  0
 28 29  1  0
 30 31  1  0
 31 32  1  0
 32 33  1  0
 34 35  1  0
M  CHG  2  29   1  34   1
M  END
