
     RDKit          3D

 36 39  0  0  0  0  0  0  0  0999 V2000
    0.1290   -1.3670   -2.4770 C   0  0  0  0  0  0  0  0  0  0  0  0
    0.6430   -0.6180   -1.2680 C   0  0  0  0  0  0  0  0  0  0  0  0
   -0.1100    0.1110   -0.5170 C   0  0  0  0  0  0  0  0  0  0  0  0
   -1.5420    0.2990   -0.7220 C   0  0  0  0  0  0  0  0  0  0  0  0
   -2.1630    1.0840    0.1130 O   0  0  0  0  0  0  0  0  0  0  0  0
   -2.4260   -0.2100   -1.6640 N   0  0  0  0  0  0  0  0  0  0  0  0
   -3.8660    0.0950   -1.7210 C   0  0  0  0  0  0  0  0  0  0  0  0
   -4.6260   -0.3730   -0.4830 C   0  0  2  0  0  0  0  0  0  0  0  0
   -4.1760   -1.8010   -0.1330 C   0  0  0  0  0  0  0  0  0  0  0  0
   -5.8730   -0.1580   -0.5350 O   0  0  0  0  0  0  0  0  0  0  0  0
   -7.0050    0.2980   -0.3220 C   0  0  2  0  0  0  0  0  0  0  0  0
   -8.1360   -0.7560   -0.0750 C   0  0  0  0  0  0  0  0  0  0  0  0
   -7.5670    1.0280   -1.5910 C   0  0  0  0  0  0  0  0  0  0  0  0
    0.5180    0.8570    0.6260 C   0  0  1  0  0  0  0  0  0  0  0  0
   -0.3650    1.1390    1.7880 C   0  0  0  0  0  0  0  0  0  0  0  0
    0.3490    1.7950    2.9330 C   0  0  0  0  0  0  0  0  0  0  0  0
    0.8950    1.0140    3.7080 O   0  0  0  0  0  0  0  0  0  0  0  0
    0.4270    3.2490    3.1680 C   0  0  1  0  0  0  0  0  0  0  0  0
    0.2490    4.2270    2.1040 C   0  0  0  0  0  0  0  0  0  0  0  0
   -0.8290    4.0610    3.1740 C   0  0  0  0  0  0  0  0  0  0  0  0
    1.8710    0.4730    0.9400 C   0  0  0  0  0  0  0  0  0  0  0  0
    2.7020    0.7700    1.9640 N   0  0  0  0  0  0  0  0  0  0  0  0
    3.8590    0.2260    1.7660 N   0  0  0  0  0  0  0  0  0  0  0  0
    3.8900   -0.4690    0.6060 N   0  0  0  0  0  0  0  0  0  0  0  0
    5.0420   -1.1750    0.1930 C   0  0  0  0  0  0  0  0  0  0  0  0
    5.2310   -1.5610   -1.0350 C   0  0  0  0  0  0  0  0  0  0  0  0
    6.3770   -2.3140   -1.6290 C   0  0  0  0  0  0  0  0  0  0  0  0
    7.5860   -1.5030   -1.5990 N   0  0  0  0  0  0  0  0  0  0  0  0
    8.3740   -1.8690   -0.1220 S   0  0  2  0  0  0  0  0  0  0  0  0
    9.5510   -0.9450    0.0620 O   0  0  0  0  0  0  0  0  0  0  0  0
    8.8430   -3.3020   -0.2040 O   0  0  0  0  0  0  0  0  0  0  0  0
    7.2720   -1.7100    1.2170 C   0  0  0  0  0  0  0  0  0  0  0  0
    5.9960   -1.4420    1.3000 C   0  0  0  0  0  0  0  0  0  0  0  0
    5.2980   -1.4020    3.0780 Br  0  0  0  0  0  0  0  0  0  0  0  0
    2.6560   -0.3160    0.1040 C   0  0  0  0  0  0  0  0  0  0  0  0
    2.0350   -0.8750   -1.0240 N   0  0  0  0  0  0  0  0  0  0  0  0
  1  2  1  0
  2  3  2  0
  2 36  1  0
  3  4  1  0
  3 14  1  0
  4  5  2  0
  4  6  1  0
  6  7  1  0
  7  8  1  0
  8  9  1  6
  8 10  1  0
 10 11  1  0
 11 12  1  6
 11 13  1  0
 14 15  1  1
 14 21  1  0
 15 16  1  0
 16 17  2  0
 18 16  1  6
 18 19  1  0
 18 20  1  0
 19 20  1  0
 21 22  1  0
 21 35  2  0
 22 23  2  0
 23 24  1  0
 24 25  1  0
 24 35  1  0
 25 26  2  0
 25 33  1  0
 26 27  1  0
 27 28  1  0
 29 28  1  6
 29 30  2  0
 29 31  2  0
 29 32  1  0
 32 33  2  0
 33 34  1  0
 35 36  1  0
M  CHG  1  28   1
M  END
