
     RDKit          3D

 36 38  0  0  0  0  0  0  0  0999 V2000
   -4.3920    4.0220    1.0390 C   0  0  0  0  0  0  0  0  0  0  0  0
   -5.2910    3.0990    1.6730 N   0  0  0  0  0  0  0  0  0  0  0  0
   -6.1520    2.3880    0.7870 C   0  0  0  0  0  0  0  0  0  0  0  0
   -5.4320    1.3580    0.0450 C   0  0  0  0  0  0  0  0  0  0  0  0
   -4.0830    1.1480    0.2080 C   0  0  0  0  0  0  0  0  0  0  0  0
   -3.4120    0.1680   -0.5070 C   0  0  0  0  0  0  0  0  0  0  0  0
   -1.9490    0.0160   -0.2790 C   0  0  0  0  0  0  0  0  0  0  0  0
   -1.3310    0.9530    0.2330 O   0  0  0  0  0  0  0  0  0  0  0  0
   -1.2870   -1.1680   -0.6370 N   0  0  0  0  0  0  0  0  0  0  0  0
    0.0520   -1.5120   -0.5690 C   0  0  0  0  0  0  0  0  0  0  0  0
    1.2040   -0.6490   -0.4490 C   0  0  0  0  0  0  0  0  0  0  0  0
    2.3810   -1.2280   -0.3390 O   0  0  0  0  0  0  0  0  0  0  0  0
    1.2900    0.7520   -0.4440 N   0  0  0  0  0  0  0  0  0  0  0  0
    2.5900    1.4080   -0.2710 C   0  0  0  0  0  0  0  0  0  0  0  0
    3.2120    1.0850    1.0570 C   0  0  0  0  0  0  0  0  0  0  0  0
    4.5380    1.8020    1.1600 C   0  0  0  0  0  0  0  0  0  0  0  0
    4.6490    3.0690    1.6910 C   0  0  0  0  0  0  0  0  0  0  0  0
    5.8910    3.6930    1.7650 C   0  0  0  0  0  0  0  0  0  0  0  0
    7.0310    3.0620    1.3120 C   0  0  0  0  0  0  0  0  0  0  0  0
    8.3780    3.7050    1.3780 C   0  0  0  0  0  0  0  0  0  0  0  0
    6.8900    1.8260    0.8000 N   0  0  0  0  0  0  0  0  0  0  0  0
    5.7030    1.2050    0.7180 C   0  0  0  0  0  0  0  0  0  0  0  0
    0.3840   -2.7890   -0.9350 C   0  0  0  0  0  0  0  0  0  0  0  0
   -0.5830   -3.7630   -1.3950 C   0  0  0  0  0  0  0  0  0  0  0  0
   -0.6350   -4.9440   -0.5260 N   0  0  0  0  0  0  0  0  0  0  0  0
    1.7510   -3.3110   -0.7480 C   0  0  0  0  0  0  0  0  0  0  0  0
    2.5550   -3.6770   -1.8020 C   0  0  0  0  0  0  0  0  0  0  0  0
    3.7710   -4.2410   -1.5510 C   0  0  0  0  0  0  0  0  0  0  0  0
    4.1880   -4.4410   -0.2360 C   0  0  0  0  0  0  0  0  0  0  0  0
    3.3900   -4.0770    0.8150 C   0  0  0  0  0  0  0  0  0  0  0  0
    2.1580   -3.5060    0.5840 C   0  0  0  0  0  0  0  0  0  0  0  0
   -4.1120   -0.5970   -1.3860 C   0  0  0  0  0  0  0  0  0  0  0  0
   -5.4880   -0.4110   -1.5780 C   0  0  0  0  0  0  0  0  0  0  0  0
   -6.1190   -1.2360   -2.4940 O   0  0  0  0  0  0  0  0  0  0  0  0
   -6.1340    0.5550   -0.8690 C   0  0  0  0  0  0  0  0  0  0  0  0
   -7.5100    0.7410   -1.0590 N   0  0  0  0  0  0  0  0  0  0  0  0
  1  2  1  0
  2  3  1  0
  3  4  1  0
  4  5  2  0
  4 35  1  0
  5  6  1  0
  6  7  1  0
  6 32  2  0
  7  8  2  0
  7  9  1  0
  9 10  1  0
 10 11  1  0
 10 23  2  3
 11 12  2  0
 11 13  1  0
 13 14  1  0
 14 15  1  0
 15 16  1  0
 16 17  2  0
 16 22  1  0
 17 18  1  0
 18 19  2  0
 19 20  1  0
 19 21  1  0
 21 22  2  0
 23 24  1  0
 23 26  1  0
 24 25  1  0
 26 27  2  0
 26 31  1  0
 27 28  1  0
 28 29  2  0
 29 30  1  0
 30 31  2  0
 32 33  1  0
 33 34  1  0
 33 35  2  0
 35 36  1  0
M  CHG  3   2   1  25   1  36   1
M  END
