
     RDKit          3D

 36 38  0  0  0  0  0  0  0  0999 V2000
   -4.2830    1.7050   -2.9470 C   0  0  0  0  0  0  0  0  0  0  0  0
   -3.8170    0.9720   -1.7480 C   0  0  0  0  0  0  0  0  0  0  0  0
   -2.7870    1.3840   -1.1100 N   0  0  0  0  0  0  0  0  0  0  0  0
   -2.2440    0.7660    0.0610 C   0  0  2  0  0  0  0  0  0  0  0  0
   -2.3440    1.6230    1.3040 C   0  0  0  0  0  0  0  0  0  0  0  0
   -1.6720    2.9220    1.3050 C   0  0  1  0  0  0  0  0  0  0  0  0
   -2.0630    3.9470    0.3140 C   0  0  0  0  0  0  0  0  0  0  0  0
   -1.8630    3.5230    2.7110 C   0  0  0  0  0  0  0  0  0  0  0  0
   -0.8010    0.4700   -0.2470 C   0  0  0  0  0  0  0  0  0  0  0  0
   -0.2940    0.7610   -1.3580 O   0  0  0  0  0  0  0  0  0  0  0  0
    0.0570   -0.1530    0.7050 N   0  0  0  0  0  0  0  0  0  0  0  0
    1.4130   -0.4160    0.3780 C   0  0  0  0  0  0  0  0  0  0  0  0
    2.1090   -0.1810   -0.7290 N   0  0  0  0  0  0  0  0  0  0  0  0
    3.3840   -0.6010   -0.5980 N   0  0  0  0  0  0  0  0  0  0  0  0
    4.4040   -0.4920   -1.6530 C   0  0  0  0  0  0  0  0  0  0  0  0
    5.1070    0.8000   -1.5630 C   0  0  0  0  0  0  0  0  0  0  0  0
    5.9060    1.1750   -0.3980 C   0  0  0  0  0  0  0  0  0  0  0  0
    7.3770    0.3090   -0.0290 S   0  0  1  0  0  0  0  0  0  0  0  0
    8.4210    0.5260   -1.1330 O   0  0  0  0  0  0  0  0  0  0  0  0
    8.0180    1.0030    1.1860 O   0  0  0  0  0  0  0  0  0  0  0  0
    7.2880   -1.3830    0.3250 C   0  0  0  0  0  0  0  0  0  0  0  0
    8.7140   -1.9100    0.6180 C   0  0  0  0  0  0  0  0  0  0  0  0
    9.2160   -1.1820    1.7590 N   0  0  0  0  0  0  0  0  0  0  0  0
    3.5580   -1.1290    0.6130 C   0  0  0  0  0  0  0  0  0  0  0  0
    2.3030   -1.0140    1.2420 C   0  0  0  0  0  0  0  0  0  0  0  0
    1.9430   -1.6140    3.0270 Br  0  0  0  0  0  0  0  0  0  0  0  0
   -2.9520   -0.4410    0.3810 N   0  0  0  0  0  0  0  0  0  0  0  0
   -4.0920   -0.8830   -0.3270 C   0  0  0  0  0  0  0  0  0  0  0  0
   -4.5430   -0.2350   -1.3580 C   0  0  0  0  0  0  0  0  0  0  0  0
   -5.7050   -0.6630   -2.0900 C   0  0  0  0  0  0  0  0  0  0  0  0
   -6.1580   -0.0510   -3.0910 O   0  0  0  0  0  0  0  0  0  0  0  0
   -6.3530   -1.8180   -1.6580 O   0  0  0  0  0  0  0  0  0  0  0  0
   -6.1540   -2.3090   -0.3400 C   0  0  2  0  0  0  0  0  0  0  0  0
   -6.4400   -3.8140   -0.4070 C   0  0  0  0  0  0  0  0  0  0  0  0
   -7.2100   -1.7040    0.5370 C   0  0  0  0  0  0  0  0  0  0  0  0
   -4.7650   -2.1300    0.1400 C   0  0  0  0  0  0  0  0  0  0  0  0
  1  2  1  0
  2  3  2  0
  2 29  1  0
  3  4  1  0
  4  5  1  1
  4  9  1  0
  4 27  1  0
  5  6  1  0
  6  7  1  6
  6  8  1  0
  9 10  2  0
  9 11  1  0
 11 12  1  0
 12 13  2  0
 12 25  1  0
 13 14  1  0
 14 15  1  0
 14 24  1  0
 15 16  1  0
 16 17  1  0
 18 17  1  6
 18 19  2  0
 18 20  2  0
 18 21  1  0
 21 22  1  0
 22 23  1  0
 24 25  2  0
 25 26  1  0
 27 28  1  0
 28 29  2  0
 28 36  1  0
 29 30  1  0
 30 31  2  0
 30 32  1  0
 32 33  1  0
 33 34  1  6
 33 35  1  0
 33 36  1  0
M  CHG  1   3   1
M  END
