
     RDKit          3D

 36 38  0  0  0  0  0  0  0  0999 V2000
   10.5770    1.0720   -0.5000 N   0  0  0  0  0  0  0  0  0  0  0  0
   10.8580   -0.3380   -0.6040 C   0  0  0  0  0  0  0  0  0  0  0  0
    9.7520   -1.0810   -1.3120 C   0  0  2  0  0  0  0  0  0  0  0  0
    9.5500   -0.6300   -2.6020 O   0  0  0  0  0  0  0  0  0  0  0  0
    8.4810   -1.0170   -0.4930 C   0  0  0  0  0  0  0  0  0  0  0  0
    7.4470   -1.8380   -1.0890 N   0  0  0  0  0  0  0  0  0  0  0  0
    6.4200   -2.1370   -0.1160 C   0  0  0  0  0  0  0  0  0  0  0  0
    5.6080   -0.9400    0.2080 C   0  0  0  0  0  0  0  0  0  0  0  0
    6.0570   -0.0540    1.1340 C   0  0  0  0  0  0  0  0  0  0  0  0
    5.2890    1.0560    1.4370 C   0  0  0  0  0  0  0  0  0  0  0  0
    4.0810    1.2890    0.8220 C   0  0  0  0  0  0  0  0  0  0  0  0
    3.3180    2.4910    1.2020 C   0  0  0  0  0  0  0  0  0  0  0  0
    1.9800    2.4010    0.6920 N   0  0  0  0  0  0  0  0  0  0  0  0
    1.1090    1.3680    1.1160 C   0  0  0  0  0  0  0  0  0  0  0  0
    1.4430    0.3810    2.0280 C   0  0  0  0  0  0  0  0  0  0  0  0
    0.5820   -0.6140    2.4270 C   0  0  0  0  0  0  0  0  0  0  0  0
   -0.7170   -0.6490    1.8910 C   0  0  0  0  0  0  0  0  0  0  0  0
   -1.6620   -1.7100    2.3160 C   0  0  0  0  0  0  0  0  0  0  0  0
   -3.0040   -1.3060    1.9880 N   0  0  0  0  0  0  0  0  0  0  0  0
   -3.6090   -1.4340    0.7040 C   0  0  0  0  0  0  0  0  0  0  0  0
   -2.9660   -1.9430   -0.2230 O   0  0  0  0  0  0  0  0  0  0  0  0
   -4.9370   -0.9910    0.4550 N   0  0  0  0  0  0  0  0  0  0  0  0
   -5.5380   -1.1160   -0.8440 C   0  0  0  0  0  0  0  0  0  0  0  0
   -6.9590   -0.5350   -0.7030 C   0  0  1  0  0  0  0  0  0  0  0  0
   -7.5180   -1.3860    0.2870 O   0  0  0  0  0  0  0  0  0  0  0  0
   -6.7930    0.8610   -0.2250 C   0  0  0  0  0  0  0  0  0  0  0  0
   -7.4670    1.9280   -0.9990 C   0  0  0  0  0  0  0  0  0  0  0  0
   -8.7980    2.3240   -0.3430 C   0  0  0  0  0  0  0  0  0  0  0  0
   -9.8760    1.6600   -1.1820 C   0  0  0  0  0  0  0  0  0  0  0  0
   -9.7410    0.1620   -0.9640 C   0  0  0  0  0  0  0  0  0  0  0  0
   -9.0860   -0.5690   -2.0640 C   0  0  0  0  0  0  0  0  0  0  0  0
   -7.6130   -0.7160   -2.0180 C   0  0  0  0  0  0  0  0  0  0  0  0
   -0.9960    0.3490    0.9960 C   0  0  0  0  0  0  0  0  0  0  0  0
   -0.1400    1.3100    0.6180 N   0  0  0  0  0  0  0  0  0  0  0  0
    3.6580    0.3730   -0.1080 C   0  0  0  0  0  0  0  0  0  0  0  0
    4.3860   -0.7640   -0.4540 C   0  0  0  0  0  0  0  0  0  0  0  0
  1  2  1  0
  2  3  1  0
  3  4  1  6
  3  5  1  0
  5  6  1  0
  6  7  1  0
  7  8  1  0
  8  9  2  0
  8 36  1  0
  9 10  1  0
 10 11  2  0
 11 12  1  0
 11 35  1  0
 12 13  1  0
 13 14  1  0
 14 15  2  0
 14 34  1  0
 15 16  1  0
 16 17  2  0
 17 18  1  0
 17 33  1  0
 18 19  1  0
 19 20  1  0
 20 21  2  0
 20 22  1  0
 22 23  1  0
 23 24  1  0
 24 25  1  1
 24 26  1  0
 24 32  1  0
 26 27  1  0
 27 28  1  0
 28 29  1  0
 29 30  1  0
 30 31  1  0
 31 32  1  0
 33 34  2  0
 35 36  2  0
M  CHG  3   1   1   6   1  34   1
M  END
