
     RDKit          3D

 34 39  0  0  0  0  0  0  0  0999 V2000
   -5.9530   -4.0550    1.4600 C   0  0  0  0  0  0  0  0  0  0  0  0
   -5.3150   -3.0200    0.9410 C   0  0  0  0  0  0  0  0  0  0  0  0
   -5.9360   -1.7510    0.5260 C   0  0  0  0  0  0  0  0  0  0  0  0
   -4.7310   -0.8520    0.5710 C   0  0  0  0  0  0  0  0  0  0  0  0
   -4.4020    0.3770    0.7810 N   0  0  0  0  0  0  0  0  0  0  0  0
   -2.9900    0.4870    0.6440 N   0  0  0  0  0  0  0  0  0  0  0  0
   -2.6690   -0.5780   -0.2830 C   0  0  1  0  0  0  0  0  0  0  0  0
   -1.2590   -0.9100   -0.3620 C   0  0  0  0  0  0  0  0  0  0  0  0
   -0.7820   -2.2270   -0.3160 C   0  0  0  0  0  0  0  0  0  0  0  0
    0.5250   -2.4870   -0.3470 N   0  0  0  0  0  0  0  0  0  0  0  0
    1.4910   -1.5140   -0.4230 C   0  0  0  0  0  0  0  0  0  0  0  0
    2.8870   -1.9580   -0.5080 C   0  0  0  0  0  0  0  0  0  0  0  0
    3.1380   -3.3000   -0.8530 C   0  0  0  0  0  0  0  0  0  0  0  0
    4.3930   -3.8340   -0.9470 C   0  0  0  0  0  0  0  0  0  0  0  0
    5.4720   -3.0130   -0.6890 C   0  0  0  0  0  0  0  0  0  0  0  0
    5.2700   -1.7180   -0.3530 C   0  0  0  0  0  0  0  0  0  0  0  0
    3.9660   -1.1810   -0.2590 C   0  0  0  0  0  0  0  0  0  0  0  0
    3.8300    0.1770    0.1510 N   0  0  0  0  0  0  0  0  0  0  0  0
    3.4600    0.6760    1.4660 C   0  0  0  0  0  0  0  0  0  0  0  0
    4.3680    1.9030    1.6350 C   0  0  0  0  0  0  0  0  0  0  0  0
    4.5240    2.4560    0.2320 C   0  0  0  0  0  0  0  0  0  0  0  0
    4.0780    1.3210   -0.6530 C   0  0  0  0  0  0  0  0  0  0  0  0
    3.9700    1.4440   -1.8850 O   0  0  0  0  0  0  0  0  0  0  0  0
    1.0560   -0.2680   -0.4690 N   0  0  0  0  0  0  0  0  0  0  0  0
   -0.2850    0.0510   -0.4420 C   0  0  0  0  0  0  0  0  0  0  0  0
   -0.6120    1.4770   -0.5270 C   0  0  0  0  0  0  0  0  0  0  0  0
   -0.1250    2.4280    0.3510 C   0  0  0  0  0  0  0  0  0  0  0  0
   -0.4000    3.7650    0.2280 C   0  0  0  0  0  0  0  0  0  0  0  0
   -1.1940    4.1610   -0.8160 C   0  0  0  0  0  0  0  0  0  0  0  0
   -1.5220    5.5870   -0.9790 C   0  0  0  0  0  0  0  0  0  0  0  0
   -1.6950    3.2530   -1.7070 C   0  0  0  0  0  0  0  0  0  0  0  0
   -1.4190    1.9190   -1.5820 C   0  0  0  0  0  0  0  0  0  0  0  0
   -3.5350   -1.6190    0.2710 N   0  0  0  0  0  0  0  0  0  0  0  0
   -3.8460   -2.9560    0.6760 C   0  0  0  0  0  0  0  0  0  0  0  0
  1  2  2  0
  2  3  1  0
  2 34  1  0
  3  4  1  0
  4  5  2  0
  4 33  1  0
  5  6  1  0
  6  7  1  0
  7  8  1  1
  7 33  1  0
  8  9  2  0
  8 25  1  0
  9 10  1  0
 10 11  2  0
 11 12  1  0
 11 24  1  0
 12 13  2  0
 12 17  1  0
 13 14  1  0
 14 15  2  0
 15 16  1  0
 16 17  2  0
 17 18  1  0
 18 19  1  0
 18 22  1  0
 19 20  1  0
 20 21  1  0
 21 22  1  0
 22 23  2  0
 24 25  2  0
 25 26  1  0
 26 27  2  0
 26 32  1  0
 27 28  1  0
 28 29  2  0
 29 30  1  0
 29 31  1  0
 31 32  2  0
 33 34  1  0
M  END
