
     RDKit          3D

 34 39  0  0  0  0  0  0  0  0999 V2000
    9.5290   -1.3090   -1.7900 C   0  0  0  0  0  0  0  0  0  0  0  0
    8.2250   -0.9750   -1.1530 C   0  0  0  0  0  0  0  0  0  0  0  0
    8.1690   -0.8000    0.2110 C   0  0  0  0  0  0  0  0  0  0  0  0
    6.9740   -0.4850    0.8680 C   0  0  0  0  0  0  0  0  0  0  0  0
    5.8010   -0.3390    0.1600 C   0  0  0  0  0  0  0  0  0  0  0  0
    4.5260   -0.0130    0.7770 C   0  0  0  0  0  0  0  0  0  0  0  0
    4.3510    0.1840    2.1290 C   0  0  0  0  0  0  0  0  0  0  0  0
    3.1160    0.4920    2.6600 C   0  0  0  0  0  0  0  0  0  0  0  0
    2.0520    0.5940    1.7670 C   0  0  0  0  0  0  0  0  0  0  0  0
    0.7130    0.8780    1.9280 C   0  0  0  0  0  0  0  0  0  0  0  0
    0.0730    0.8550    0.6800 C   0  0  0  0  0  0  0  0  0  0  0  0
   -1.3540    1.1200    0.5480 C   0  0  0  0  0  0  0  0  0  0  0  0
   -2.0420    1.3800    1.6050 O   0  0  0  0  0  0  0  0  0  0  0  0
   -2.0760    1.1200   -0.6590 N   0  0  0  0  0  0  0  0  0  0  0  0
   -3.4940    1.3970   -0.6560 C   0  0  0  0  0  0  0  0  0  0  0  0
   -3.9210    2.4480   -1.3300 C   0  0  0  0  0  0  0  0  0  0  0  0
   -5.3380    2.8220   -1.4150 C   0  0  0  0  0  0  0  0  0  0  0  0
   -6.1870    2.0240   -0.7880 C   0  0  0  0  0  0  0  0  0  0  0  0
   -5.7930    0.8640   -0.0810 N   0  0  0  0  0  0  0  0  0  0  0  0
   -6.7740   -0.1140    0.3430 C   0  0  0  0  0  0  0  0  0  0  0  0
   -8.0640    0.2180    0.4510 N   0  0  0  0  0  0  0  0  0  0  0  0
   -8.9770   -0.7460    0.7460 C   0  0  0  0  0  0  0  0  0  0  0  0
   -8.6340   -2.0640    0.9410 C   0  0  0  0  0  0  0  0  0  0  0  0
   -7.3070   -2.4130    0.8330 C   0  0  0  0  0  0  0  0  0  0  0  0
   -6.3870   -1.4290    0.5350 C   0  0  0  0  0  0  0  0  0  0  0  0
   -4.9560   -1.7070    0.5180 C   0  0  0  0  0  0  0  0  0  0  0  0
   -4.0650   -0.7780    0.3480 N   0  0  0  0  0  0  0  0  0  0  0  0
   -4.4110    0.6090    0.1740 C   0  0  1  0  0  0  0  0  0  0  0  0
    1.0130    0.5610   -0.2170 N   0  0  0  0  0  0  0  0  0  0  0  0
    0.8500    0.4210   -1.6470 C   0  0  0  0  0  0  0  0  0  0  0  0
    2.2160    0.4000    0.4160 C   0  0  0  0  0  0  0  0  0  0  0  0
    3.4460    0.1030   -0.0300 N   0  0  0  0  0  0  0  0  0  0  0  0
    5.8960   -0.5220   -1.2130 C   0  0  0  0  0  0  0  0  0  0  0  0
    7.0690   -0.8310   -1.8590 C   0  0  0  0  0  0  0  0  0  0  0  0
  1  2  1  0
  2  3  2  0
  2 34  1  0
  3  4  1  0
  4  5  2  0
  5  6  1  0
  5 33  1  0
  6  7  2  0
  6 32  1  0
  7  8  1  0
  8  9  2  0
  9 10  1  0
  9 31  1  0
 10 11  2  0
 11 12  1  0
 11 29  1  0
 12 13  2  0
 12 14  1  0
 14 15  1  0
 15 16  2  0
 15 28  1  0
 16 17  1  0
 17 18  2  0
 18 19  1  0
 19 20  1  0
 19 28  1  0
 20 21  2  0
 20 25  1  0
 21 22  1  0
 22 23  2  0
 23 24  1  0
 24 25  2  0
 25 26  1  0
 26 27  2  0
 28 27  1  6
 29 30  1  0
 29 31  1  0
 31 32  2  0
 33 34  2  0
M  END
