
     RDKit          3D

 34 39  0  0  0  0  0  0  0  0999 V2000
   -2.3960   -4.2610    0.6890 C   0  0  0  0  0  0  0  0  0  0  0  0
   -2.3220   -2.8260    0.3330 C   0  0  0  0  0  0  0  0  0  0  0  0
   -1.3970   -2.4150   -0.5990 C   0  0  0  0  0  0  0  0  0  0  0  0
   -0.4850   -3.3770   -1.2430 C   0  0  0  0  0  0  0  0  0  0  0  0
   -1.3490   -1.0730   -0.9120 C   0  0  0  0  0  0  0  0  0  0  0  0
   -0.4100   -0.6980   -1.8530 O   0  0  0  0  0  0  0  0  0  0  0  0
    0.9370   -0.4310   -1.5310 C   0  0  0  0  0  0  0  0  0  0  0  0
    1.3930   -0.5830   -0.2490 C   0  0  0  0  0  0  0  0  0  0  0  0
    2.7400   -0.3120    0.0510 C   0  0  0  0  0  0  0  0  0  0  0  0
    3.6270    0.1020   -0.8830 C   0  0  0  0  0  0  0  0  0  0  0  0
    5.0000    0.4570   -0.6710 C   0  0  0  0  0  0  0  0  0  0  0  0
    5.9150    0.5870   -1.6990 N   0  0  0  0  0  0  0  0  0  0  0  0
    7.0810    0.9460   -1.2420 N   0  0  0  0  0  0  0  0  0  0  0  0
    7.0050    1.0720    0.0860 C   0  0  0  0  0  0  0  0  0  0  0  0
    7.9810    1.4430    0.9800 C   0  0  0  0  0  0  0  0  0  0  0  0
    7.6150    1.5110    2.3050 C   0  0  0  0  0  0  0  0  0  0  0  0
    6.3290    1.2160    2.6780 C   0  0  0  0  0  0  0  0  0  0  0  0
    5.4020    0.8480    1.7090 C   0  0  0  0  0  0  0  0  0  0  0  0
    5.7230    0.7700    0.4130 N   0  0  0  0  0  0  0  0  0  0  0  0
    3.1190    0.2440   -2.1820 C   0  0  0  0  0  0  0  0  0  0  0  0
    1.8130   -0.0140   -2.5010 C   0  0  0  0  0  0  0  0  0  0  0  0
   -2.1940   -0.1210   -0.3280 C   0  0  0  0  0  0  0  0  0  0  0  0
   -2.1200    1.2830   -0.6800 C   0  0  0  0  0  0  0  0  0  0  0  0
   -3.0510    2.1110   -1.0070 N   0  0  0  0  0  0  0  0  0  0  0  0
   -2.5960    3.3800   -1.2780 N   0  0  0  0  0  0  0  0  0  0  0  0
   -3.2110    4.6800   -1.2820 C   0  0  0  0  0  0  0  0  0  0  0  0
   -1.1720    3.1880   -1.6150 C   0  0  0  0  0  0  0  0  0  0  0  0
   -0.9170    2.0570   -0.7010 N   0  0  0  0  0  0  0  0  0  0  0  0
   -3.0960   -0.5500    0.5880 C   0  0  0  0  0  0  0  0  0  0  0  0
   -3.1660   -1.9140    0.9260 C   0  0  0  0  0  0  0  0  0  0  0  0
   -4.1720   -2.2870    1.9240 C   0  0  0  0  0  0  0  0  0  0  0  0
   -5.5000   -1.6540    1.6280 C   0  0  0  0  0  0  0  0  0  0  0  0
   -5.4350   -0.1940    1.3260 C   0  0  0  0  0  0  0  0  0  0  0  0
   -4.0190    0.3470    1.2750 C   0  0  0  0  0  0  0  0  0  0  0  0
  1  2  1  0
  2  3  2  0
  2 30  1  0
  3  4  1  0
  3  5  1  0
  5  6  1  0
  5 22  2  0
  6  7  1  0
  7  8  2  0
  7 21  1  0
  8  9  1  0
  9 10  2  0
 10 11  1  0
 10 20  1  0
 11 12  2  0
 11 19  1  0
 12 13  1  0
 13 14  2  0
 14 15  1  0
 14 19  1  0
 15 16  2  0
 16 17  1  0
 17 18  2  0
 18 19  1  0
 20 21  2  0
 22 23  1  0
 22 29  1  0
 23 24  2  0
 23 28  1  0
 24 25  1  0
 25 26  1  0
 25 27  1  0
 27 28  1  0
 29 30  2  0
 29 34  1  0
 30 31  1  0
 31 32  1  0
 32 33  1  0
 33 34  1  0
M  END
