
     RDKit          3D

 33 38  0  0  0  0  0  0  0  0999 V2000
    9.3970   -0.1770    2.1970 C   0  0  0  0  0  0  0  0  0  0  0  0
   10.1310   -0.8620    1.2540 C   0  0  0  0  0  0  0  0  0  0  0  0
    9.5400   -1.1050    0.0620 N   0  0  0  0  0  0  0  0  0  0  0  0
    8.3230   -0.7110   -0.1990 N   0  0  0  0  0  0  0  0  0  0  0  0
    7.5740   -0.0340    0.7090 C   0  0  0  0  0  0  0  0  0  0  0  0
    6.2310    0.3700    0.3480 C   0  0  0  0  0  0  0  0  0  0  0  0
    5.4210    1.0470    1.1930 C   0  0  0  0  0  0  0  0  0  0  0  0
    4.1230    1.4300    0.8240 C   0  0  0  0  0  0  0  0  0  0  0  0
    3.6400    1.1250   -0.4110 C   0  0  0  0  0  0  0  0  0  0  0  0
    2.2640    1.5170   -0.8370 C   0  0  0  0  0  0  0  0  0  0  0  0
    1.3470    0.4640   -0.4650 N   0  0  0  0  0  0  0  0  0  0  0  0
    0.1920    0.3570   -1.0140 C   0  0  0  0  0  0  0  0  0  0  0  0
   -0.1950    1.3430   -2.0500 C   0  0  0  0  0  0  0  0  0  0  0  0
   -1.6920    1.5500   -1.9680 C   0  0  0  0  0  0  0  0  0  0  0  0
   -2.3230    0.2530   -2.1150 N   0  0  0  0  0  0  0  0  0  0  0  0
   -1.9960   -0.7710   -1.1810 C   0  0  0  0  0  0  0  0  0  0  0  0
   -0.7140   -0.7150   -0.6220 C   0  0  0  0  0  0  0  0  0  0  0  0
   -0.6550   -1.7940    0.2280 C   0  0  0  0  0  0  0  0  0  0  0  0
   -1.8480   -2.4370    0.1580 N   0  0  0  0  0  0  0  0  0  0  0  0
   -2.6590   -1.8260   -0.6890 N   0  0  0  0  0  0  0  0  0  0  0  0
   -3.9940   -2.2050   -1.0280 C   0  0  0  0  0  0  0  0  0  0  0  0
   -5.0320   -1.5960   -0.1660 C   0  0  0  0  0  0  0  0  0  0  0  0
   -5.4730   -2.2040    0.9930 C   0  0  0  0  0  0  0  0  0  0  0  0
   -6.4550   -1.6170    1.8000 C   0  0  0  0  0  0  0  0  0  0  0  0
   -7.0100   -0.4190    1.4620 C   0  0  0  0  0  0  0  0  0  0  0  0
   -6.5790    0.1990    0.3070 C   0  0  0  0  0  0  0  0  0  0  0  0
   -5.6000   -0.3830   -0.4990 C   0  0  0  0  0  0  0  0  0  0  0  0
   -7.3390    1.4540    0.1980 C   0  0  0  0  0  0  0  0  0  0  0  0
   -8.3760    1.3810    1.0900 O   0  0  0  0  0  0  0  0  0  0  0  0
   -8.0340    0.4510    2.0640 C   0  0  0  0  0  0  0  0  0  0  0  0
    4.4650    0.4350   -1.2710 C   0  0  0  0  0  0  0  0  0  0  0  0
    5.7230    0.0600   -0.9230 C   0  0  0  0  0  0  0  0  0  0  0  0
    8.0990    0.2540    1.9450 C   0  0  0  0  0  0  0  0  0  0  0  0
  1  2  2  0
  1 33  1  0
  2  3  1  0
  3  4  2  0
  4  5  1  0
  5  6  1  0
  5 33  2  0
  6  7  2  0
  6 32  1  0
  7  8  1  0
  8  9  2  0
  9 10  1  0
  9 31  1  0
 10 11  1  0
 11 12  2  3
 12 13  1  0
 12 17  1  0
 13 14  1  0
 14 15  1  0
 15 16  1  0
 16 17  2  0
 16 20  1  0
 17 18  1  0
 18 19  2  0
 19 20  1  0
 20 21  1  0
 21 22  1  0
 22 23  2  0
 22 27  1  0
 23 24  1  0
 24 25  2  0
 25 26  1  0
 25 30  1  0
 26 27  2  0
 26 28  1  0
 28 29  1  0
 29 30  1  0
 31 32  2  0
M  END
