
     RDKit          3D

 34 39  0  0  0  0  0  0  0  0999 V2000
    0.5140   -0.6910   -5.0430 O   0  0  0  0  0  0  0  0  0  0  0  0
    0.5570   -0.5530   -3.8100 C   0  0  0  0  0  0  0  0  0  0  0  0
    1.7480   -0.1460   -3.0630 C   0  0  0  0  0  0  0  0  0  0  0  0
    1.7620   -0.0090   -1.7480 C   0  0  0  0  0  0  0  0  0  0  0  0
    2.9900    0.3920   -1.1520 N   0  0  0  0  0  0  0  0  0  0  0  0
    3.6840    1.5490   -1.5820 C   0  0  0  0  0  0  0  0  0  0  0  0
    5.1080    1.6220   -1.0190 C   0  0  0  0  0  0  0  0  0  0  0  0
    5.0920    1.3490    0.4370 C   0  0  0  0  0  0  0  0  0  0  0  0
    5.8580    2.1000    1.2900 C   0  0  0  0  0  0  0  0  0  0  0  0
    5.8210    1.8280    2.6430 C   0  0  0  0  0  0  0  0  0  0  0  0
    5.0000    0.7920    3.1050 C   0  0  0  0  0  0  0  0  0  0  0  0
    4.2350    0.0420    2.2450 C   0  0  0  0  0  0  0  0  0  0  0  0
    4.2820    0.3280    0.8800 C   0  0  0  0  0  0  0  0  0  0  0  0
    3.4960   -0.4380   -0.0920 C   0  0  0  0  0  0  0  0  0  0  0  0
    0.5960   -0.2450   -0.9580 N   0  0  0  0  0  0  0  0  0  0  0  0
   -0.5090   -0.6100   -1.5630 C   0  0  0  0  0  0  0  0  0  0  0  0
   -0.6470   -0.8020   -2.9810 C   0  0  0  0  0  0  0  0  0  0  0  0
   -1.7410   -1.2710   -3.5600 C   0  0  0  0  0  0  0  0  0  0  0  0
   -2.9420   -1.5430   -2.7840 C   0  0  0  0  0  0  0  0  0  0  0  0
   -2.9270   -0.7540   -1.4880 C   0  0  0  0  0  0  0  0  0  0  0  0
   -4.0580   -0.2560   -1.0770 C   0  0  0  0  0  0  0  0  0  0  0  0
   -4.3260    0.5290    0.0900 C   0  0  0  0  0  0  0  0  0  0  0  0
   -3.9950    1.9020    0.0650 C   0  0  0  0  0  0  0  0  0  0  0  0
   -4.2640    2.6640    1.1780 C   0  0  0  0  0  0  0  0  0  0  0  0
   -4.8450    2.1050    2.2990 C   0  0  0  0  0  0  0  0  0  0  0  0
   -5.1520    0.7730    2.2890 C   0  0  0  0  0  0  0  0  0  0  0  0
   -4.8900    0.0460    1.2150 N   0  0  0  0  0  0  0  0  0  0  0  0
   -1.7330   -0.5990   -0.7740 N   0  0  0  0  0  0  0  0  0  0  0  0
   -1.6350   -0.5240    0.6430 C   0  0  0  0  0  0  0  0  0  0  0  0
   -2.1970   -1.7620    1.3050 C   0  0  0  0  0  0  0  0  0  0  0  0
   -2.6750   -2.8330    0.6620 N   0  0  0  0  0  0  0  0  0  0  0  0
   -3.1010   -3.7590    1.5430 C   0  0  0  0  0  0  0  0  0  0  0  0
   -2.8690   -3.2190    2.7910 C   0  0  0  0  0  0  0  0  0  0  0  0
   -2.3100   -1.9850    2.6190 N   0  0  0  0  0  0  0  0  0  0  0  0
  1  2  2  0
  2  3  1  0
  2 17  1  0
  3  4  2  0
  4  5  1  0
  4 15  1  0
  5  6  1  0
  5 14  1  0
  6  7  1  0
  7  8  1  0
  8  9  2  0
  8 13  1  0
  9 10  1  0
 10 11  2  0
 11 12  1  0
 12 13  2  0
 13 14  1  0
 15 16  2  0
 16 17  1  0
 16 28  1  0
 17 18  2  0
 18 19  1  0
 19 20  1  0
 20 21  2  3
 20 28  1  0
 21 22  1  0
 22 23  2  0
 22 27  1  0
 23 24  1  0
 24 25  2  0
 25 26  1  0
 26 27  2  0
 28 29  1  0
 29 30  1  0
 30 31  2  0
 30 34  1  0
 31 32  1  0
 32 33  2  0
 33 34  1  0
M  END
