
     RDKit          3D

 35 38  0  0  0  0  0  0  0  0999 V2000
    9.1350    0.4470    3.7470 C   0  0  0  0  0  0  0  0  0  0  0  0
    7.7790    0.2470    3.2640 N   0  0  0  0  0  0  0  0  0  0  0  0
    7.4850    0.0930    1.8670 C   0  0  0  0  0  0  0  0  0  0  0  0
    8.4480    0.1410    1.1000 O   0  0  0  0  0  0  0  0  0  0  0  0
    6.1750   -0.0980    1.4130 N   0  0  0  0  0  0  0  0  0  0  0  0
    5.7720   -0.2720    0.0700 C   0  0  0  0  0  0  0  0  0  0  0  0
    6.6430   -0.5830   -0.9290 C   0  0  0  0  0  0  0  0  0  0  0  0
    6.1770   -0.7160   -2.2350 C   0  0  0  0  0  0  0  0  0  0  0  0
    4.8600   -0.5360   -2.5080 C   0  0  0  0  0  0  0  0  0  0  0  0
    4.3580   -0.6750   -3.8850 C   0  0  0  0  0  0  0  0  0  0  0  0
    3.9370   -0.2150   -1.5040 C   0  0  0  0  0  0  0  0  0  0  0  0
    2.6190   -0.0460   -1.8410 O   0  0  0  0  0  0  0  0  0  0  0  0
    1.5500    0.2690   -1.0260 C   0  0  1  0  0  0  0  0  0  0  0  0
    0.9830    1.5960   -1.4990 C   0  0  0  0  0  0  0  0  0  0  0  0
    0.5100   -0.8310   -1.1900 C   0  0  0  0  0  0  0  0  0  0  0  0
   -0.6730   -0.5880   -0.3610 C   0  0  0  0  0  0  0  0  0  0  0  0
   -0.7320    0.4210    0.3830 O   0  0  0  0  0  0  0  0  0  0  0  0
   -1.7590   -1.4800   -0.3850 N   0  0  0  0  0  0  0  0  0  0  0  0
   -2.9000   -1.2850    0.3860 C   0  0  0  0  0  0  0  0  0  0  0  0
   -3.3760   -2.1650    1.3330 C   0  0  0  0  0  0  0  0  0  0  0  0
   -4.6090   -1.7000    1.9980 C   0  0  0  0  0  0  0  0  0  0  0  0
   -5.3140   -2.5580    3.0430 C   0  0  0  0  0  0  0  0  0  0  0  0
   -5.2050   -0.5730    1.7950 C   0  0  0  0  0  0  0  0  0  0  0  0
   -6.4280   -0.0160    2.3060 C   0  0  0  0  0  0  0  0  0  0  0  0
   -6.7780   -0.3050    3.4220 O   0  0  0  0  0  0  0  0  0  0  0  0
   -7.1800    0.9000    1.3480 C   0  0  0  0  0  0  0  0  0  0  0  0
   -6.2280    1.6090    0.4150 C   0  0  1  0  0  0  0  0  0  0  0  0
   -6.7190    3.0400    0.1460 C   0  0  0  0  0  0  0  0  0  0  0  0
   -4.9600    1.7520    1.0940 N   0  0  0  0  0  0  0  0  0  0  0  0
   -4.2730    0.5500    1.2630 C   0  0  2  0  0  0  0  0  0  0  0  0
   -3.7620   -0.1520    0.0930 C   0  0  0  0  0  0  0  0  0  0  0  0
   -4.1870    0.1700   -1.1170 C   0  0  0  0  0  0  0  0  0  0  0  0
   -3.3160   -0.0880   -2.2560 C   0  0  0  0  0  0  0  0  0  0  0  0
   -5.8760    0.8810   -1.1910 S   0  0  0  0  0  0  0  0  0  0  0  0
    4.4140   -0.0900   -0.2340 C   0  0  0  0  0  0  0  0  0  0  0  0
  1  2  1  0
  2  3  1  0
  3  4  2  0
  3  5  1  0
  5  6  1  0
  6  7  2  0
  6 35  1  0
  7  8  1  0
  8  9  2  0
  9 10  1  0
  9 11  1  0
 11 12  1  0
 11 35  2  0
 12 13  1  0
 13 14  1  6
 13 15  1  0
 15 16  1  0
 16 17  2  0
 16 18  1  0
 18 19  1  0
 19 20  2  0
 19 31  1  0
 20 21  1  0
 21 22  1  0
 21 23  2  0
 23 24  1  0
 23 30  1  0
 24 25  2  0
 24 26  1  0
 26 27  1  0
 27 28  1  6
 27 29  1  0
 27 34  1  0
 30 29  1  6
 30 31  1  0
 31 32  2  0
 32 33  1  0
 32 34  1  0
M  END
