
     RDKit          3D

 14 15  0  0  0  0  0  0  0  0999 V2000
   -3.2820   -1.0590    1.0270 O   0  0  0  0  0  0  0  0  0  0  0  0
   -1.9400   -0.9940    0.7540 C   0  0  0  0  0  0  0  0  0  0  0  0
   -1.5510    0.3570    0.2050 C   0  0  0  0  0  0  0  0  0  0  0  0
   -2.4080    1.3750    0.0070 N   0  0  0  0  0  0  0  0  0  0  0  0
   -1.7330    2.4420   -0.4950 C   0  0  0  0  0  0  0  0  0  0  0  0
   -2.4010    3.9930   -0.9160 Cl  0  0  0  0  0  0  0  0  0  0  0  0
   -0.4060    2.0160   -0.5930 C   0  0  0  0  0  0  0  0  0  0  0  0
   -0.3190    0.7460   -0.1630 N   0  0  0  0  0  0  0  0  0  0  0  0
    0.8910   -0.0110   -0.1230 C   0  0  0  0  0  0  0  0  0  0  0  0
    1.0450   -1.1410   -0.8910 C   0  0  0  0  0  0  0  0  0  0  0  0
    2.1920   -1.8290   -0.8320 N   0  0  0  0  0  0  0  0  0  0  0  0
    3.2330   -1.4830   -0.0530 C   0  0  0  0  0  0  0  0  0  0  0  0
    3.0710   -0.3490    0.7150 C   0  0  0  0  0  0  0  0  0  0  0  0
    1.9270    0.3540    0.6680 N   0  0  0  0  0  0  0  0  0  0  0  0
  1  2  1  0
  2  3  1  0
  3  4  2  0
  3  8  1  0
  4  5  1  0
  5  6  1  0
  5  7  2  0
  7  8  1  0
  8  9  1  0
  9 10  2  0
  9 14  1  0
 10 11  1  0
 11 12  2  0
 12 13  1  0
 13 14  2  0
M  END
