
     RDKit          3D

 14 15  0  0  0  0  0  0  0  0999 V2000
   -5.7730    1.5960   -0.4630 Cl  0  0  0  0  0  0  0  0  0  0  0  0
   -4.1960    0.8750   -0.2100 C   0  0  0  0  0  0  0  0  0  0  0  0
   -3.9940   -0.3720    0.3360 C   0  0  0  0  0  0  0  0  0  0  0  0
   -2.6590   -0.5440    0.3560 N   0  0  0  0  0  0  0  0  0  0  0  0
   -2.0320    0.5280   -0.1490 C   0  0  0  0  0  0  0  0  0  0  0  0
   -0.5860    0.7920   -0.3290 C   0  0  0  0  0  0  0  0  0  0  0  0
    0.2030   -0.3030    0.1250 O   0  0  0  0  0  0  0  0  0  0  0  0
    1.5820   -0.1880    0.0150 C   0  0  0  0  0  0  0  0  0  0  0  0
    2.4160   -1.2150    0.4360 C   0  0  0  0  0  0  0  0  0  0  0  0
    3.7830   -1.0690    0.3120 C   0  0  0  0  0  0  0  0  0  0  0  0
    4.3530    0.0750   -0.2220 C   0  0  0  0  0  0  0  0  0  0  0  0
    3.4870    1.0370   -0.6140 N   0  0  0  0  0  0  0  0  0  0  0  0
    2.1750    0.9070   -0.4990 N   0  0  0  0  0  0  0  0  0  0  0  0
   -2.9850    1.4020   -0.4970 N   0  0  0  0  0  0  0  0  0  0  0  0
  1  2  1  0
  2  3  2  0
  2 14  1  0
  3  4  1  0
  4  5  1  0
  5  6  1  0
  5 14  2  0
  6  7  1  0
  7  8  1  0
  8  9  2  0
  8 13  1  0
  9 10  1  0
 10 11  2  0
 11 12  1  0
 12 13  2  0
M  END
