
     RDKit          3D

 14 15  0  0  0  0  0  0  0  0999 V2000
    4.2750    0.2610    0.7340 C   0  0  0  0  0  0  0  0  0  0  0  0
    2.8710    0.3970    0.9800 N   0  0  0  0  0  0  0  0  0  0  0  0
    1.8880   -0.0330    0.0400 C   0  0  0  0  0  0  0  0  0  0  0  0
    2.2130   -0.5920   -1.1280 N   0  0  0  0  0  0  0  0  0  0  0  0
    1.2640   -0.9880   -1.9930 C   0  0  0  0  0  0  0  0  0  0  0  0
   -0.0440   -0.8110   -1.6610 N   0  0  0  0  0  0  0  0  0  0  0  0
   -0.4050   -0.2530   -0.4930 C   0  0  0  0  0  0  0  0  0  0  0  0
   -1.8300   -0.0630   -0.1320 C   0  0  0  0  0  0  0  0  0  0  0  0
   -2.3560    0.9770    0.4860 C   0  0  0  0  0  0  0  0  0  0  0  0
   -1.4040    2.3630    1.0040 Cl  0  0  0  0  0  0  0  0  0  0  0  0
   -3.8170    0.7650    0.6480 C   0  0  0  0  0  0  0  0  0  0  0  0
   -4.0530   -0.5200    0.2540 O   0  0  0  0  0  0  0  0  0  0  0  0
   -2.9450   -1.0070   -0.3880 C   0  0  0  0  0  0  0  0  0  0  0  0
    0.5740    0.1300    0.3430 N   0  0  0  0  0  0  0  0  0  0  0  0
  1  2  1  0
  2  3  1  0
  3  4  2  0
  3 14  1  0
  4  5  1  0
  5  6  2  0
  6  7  1  0
  7  8  1  0
  7 14  2  0
  8  9  2  0
  8 13  1  0
  9 10  1  0
  9 11  1  0
 11 12  1  0
 12 13  1  0
M  END
