
     RDKit          3D

 28 30  0  0  0  0  0  0  0  0999 V2000
   -8.0040    1.1900    0.8170 N   0  0  0  0  0  0  0  0  0  0  0  0
   -7.6710    0.2280   -0.1970 C   0  0  0  0  0  0  0  0  0  0  0  0
   -8.5950   -0.4980   -0.6840 N   0  0  0  0  0  0  0  0  0  0  0  0
   -6.3000    0.1130   -0.6310 C   0  0  0  0  0  0  0  0  0  0  0  0
   -5.3320    0.9360   -0.0620 C   0  0  0  0  0  0  0  0  0  0  0  0
   -4.0170    0.8760   -0.4310 C   0  0  0  0  0  0  0  0  0  0  0  0
   -3.5940   -0.0090   -1.3890 C   0  0  0  0  0  0  0  0  0  0  0  0
   -2.1860   -0.0740   -1.7860 C   0  0  0  0  0  0  0  0  0  0  0  0
   -1.2390   -0.0360   -0.7160 N   0  0  0  0  0  0  0  0  0  0  0  0
   -0.9750   -1.1580    0.1250 C   0  0  0  0  0  0  0  0  0  0  0  0
   -1.6230   -2.2060   -0.1160 O   0  0  0  0  0  0  0  0  0  0  0  0
    0.0210   -1.1050    1.2430 C   0  0  2  0  0  0  0  0  0  0  0  0
   -0.8070   -1.1580    2.5350 C   0  0  0  0  0  0  0  0  0  0  0  0
   -1.2790    0.2820    2.5790 C   0  0  0  0  0  0  0  0  0  0  0  0
    0.0190    1.0170    2.3330 C   0  0  0  0  0  0  0  0  0  0  0  0
    0.6500    0.1960    1.3160 N   0  0  0  0  0  0  0  0  0  0  0  0
    1.7360    0.6710    0.5340 C   0  0  0  0  0  0  0  0  0  0  0  0
    2.2340    1.8160    0.6510 O   0  0  0  0  0  0  0  0  0  0  0  0
    2.3220   -0.2420   -0.4850 C   0  0  0  0  0  0  0  0  0  0  0  0
    3.4170    0.3920   -1.1900 N   0  0  0  0  0  0  0  0  0  0  0  0
    4.6160   -0.3820   -0.9310 C   0  0  2  0  0  0  0  0  0  0  0  0
    4.8870   -0.6140    0.5060 C   0  0  0  0  0  0  0  0  0  0  0  0
    6.1510   -0.0290    1.0360 C   0  0  0  0  0  0  0  0  0  0  0  0
    7.3210   -0.0760    0.1370 C   0  0  0  0  0  0  0  0  0  0  0  0
    7.0110   -0.4900   -1.2780 C   0  0  0  0  0  0  0  0  0  0  0  0
    5.7540    0.2790   -1.6720 C   0  0  0  0  0  0  0  0  0  0  0  0
   -4.5360   -0.8310   -1.9630 C   0  0  0  0  0  0  0  0  0  0  0  0
   -5.8890   -0.7770   -1.5910 C   0  0  0  0  0  0  0  0  0  0  0  0
  1  2  1  0
  2  3  2  0
  2  4  1  0
  4  5  2  0
  4 28  1  0
  5  6  1  0
  6  7  2  0
  7  8  1  0
  7 27  1  0
  8  9  1  0
  9 10  1  0
 10 11  2  0
 12 10  1  6
 12 13  1  0
 12 16  1  0
 13 14  1  0
 14 15  1  0
 15 16  1  0
 16 17  1  0
 17 18  2  0
 17 19  1  0
 19 20  1  0
 21 20  1  1
 21 22  1  0
 21 26  1  0
 22 23  1  0
 23 24  1  0
 24 25  1  0
 25 26  1  0
 27 28  2  0
M  CHG  2   3   1  20   1
M  END
