
     RDKit          3D

 14 15  0  0  0  0  0  0  0  0999 V2000
   -3.5340   -0.3680    1.0110 C   0  0  0  0  0  0  0  0  0  0  0  0
   -2.7230   -0.4110   -0.0270 C   0  0  0  0  0  0  0  0  0  0  0  0
   -1.9760    0.7780   -0.4880 C   0  0  0  0  0  0  0  0  0  0  0  0
   -0.5510    0.4400   -0.4010 N   0  0  0  0  0  0  0  0  0  0  0  0
    0.2080   -0.1090   -1.3310 N   0  0  0  0  0  0  0  0  0  0  0  0
    1.4660   -0.2810   -0.9220 C   0  0  0  0  0  0  0  0  0  0  0  0
    2.6030   -0.7840   -1.4690 N   0  0  0  0  0  0  0  0  0  0  0  0
    3.7650   -0.8350   -0.8050 C   0  0  0  0  0  0  0  0  0  0  0  0
    3.8230   -0.3730    0.4560 N   0  0  0  0  0  0  0  0  0  0  0  0
    2.7270    0.1390    1.0570 C   0  0  0  0  0  0  0  0  0  0  0  0
    2.7880    0.7420    2.6920 Cl  0  0  0  0  0  0  0  0  0  0  0  0
    1.5320    0.1910    0.3730 C   0  0  0  0  0  0  0  0  0  0  0  0
    0.2560    0.6300    0.6570 C   0  0  0  0  0  0  0  0  0  0  0  0
   -0.1210    1.1360    1.7340 O   0  0  0  0  0  0  0  0  0  0  0  0
  1  2  2  0
  2  3  1  0
  3  4  1  0
  4  5  1  0
  4 13  1  0
  5  6  1  0
  6  7  2  0
  6 12  1  0
  7  8  1  0
  8  9  2  0
  9 10  1  0
 10 11  1  0
 10 12  2  0
 12 13  1  0
 13 14  2  0
M  END
