
     RDKit          3D

 14 15  0  0  0  0  0  0  0  0999 V2000
   -4.4800    0.1290   -0.2300 C   0  0  0  0  0  0  0  0  0  0  0  0
   -3.1640   -0.4640   -0.0910 N   0  0  0  0  0  0  0  0  0  0  0  0
   -1.9580    0.1520   -0.1740 C   0  0  0  0  0  0  0  0  0  0  0  0
   -0.9600   -0.7720    0.0170 C   0  0  0  0  0  0  0  0  0  0  0  0
    0.3970   -0.5650    0.0120 O   0  0  0  0  0  0  0  0  0  0  0  0
    0.9950    0.6990   -0.2030 C   0  0  0  0  0  0  0  0  0  0  0  0
    2.4670    0.6320   -0.1560 C   0  0  0  0  0  0  0  0  0  0  0  0
    3.3350    1.6820   -0.3260 C   0  0  0  0  0  0  0  0  0  0  0  0
    4.6130    1.2460   -0.2170 N   0  0  0  0  0  0  0  0  0  0  0  0
    4.5360   -0.0760    0.0220 C   0  0  0  0  0  0  0  0  0  0  0  0
    3.2300   -0.4490    0.0580 N   0  0  0  0  0  0  0  0  0  0  0  0
   -1.5830   -1.9780    0.2220 C   0  0  0  0  0  0  0  0  0  0  0  0
   -0.7860   -3.5290    0.5230 Cl  0  0  0  0  0  0  0  0  0  0  0  0
   -2.8940   -1.7330    0.1460 N   0  0  0  0  0  0  0  0  0  0  0  0
  1  2  1  0
  2  3  1  0
  2 14  1  0
  3  4  2  0
  4  5  1  0
  4 12  1  0
  5  6  1  0
  6  7  1  0
  7  8  2  0
  7 11  1  0
  8  9  1  0
  9 10  2  0
 10 11  1  0
 12 13  1  0
 12 14  2  0
M  END
