
     RDKit          3D

 14 15  0  0  0  0  0  0  0  0999 V2000
   -3.5710    2.0060   -1.3090 Cl  0  0  0  0  0  0  0  0  0  0  0  0
   -3.3390    0.6850   -0.1930 C   0  0  0  0  0  0  0  0  0  0  0  0
   -4.3190    0.0550    0.4770 N   0  0  0  0  0  0  0  0  0  0  0  0
   -3.7580   -0.8840    1.2220 N   0  0  0  0  0  0  0  0  0  0  0  0
   -2.4250   -0.8910    1.0610 C   0  0  0  0  0  0  0  0  0  0  0  0
   -2.1250    0.0940    0.1680 C   0  0  0  0  0  0  0  0  0  0  0  0
   -0.7840    0.4680   -0.3250 C   0  0  0  0  0  0  0  0  0  0  0  0
    0.1780   -0.3470    0.2610 O   0  0  0  0  0  0  0  0  0  0  0  0
    1.5390   -0.2640    0.0180 C   0  0  0  0  0  0  0  0  0  0  0  0
    2.4130   -1.1210    0.6520 C   0  0  0  0  0  0  0  0  0  0  0  0
    3.7440   -1.0870    0.4550 N   0  0  0  0  0  0  0  0  0  0  0  0
    4.2540   -0.1860   -0.3910 C   0  0  0  0  0  0  0  0  0  0  0  0
    3.4080    0.6910   -1.0450 C   0  0  0  0  0  0  0  0  0  0  0  0
    2.0800    0.6330   -0.8280 N   0  0  0  0  0  0  0  0  0  0  0  0
  1  2  1  0
  2  3  1  0
  2  6  2  0
  3  4  1  0
  4  5  2  0
  5  6  1  0
  6  7  1  0
  7  8  1  0
  8  9  1  0
  9 10  2  0
  9 14  1  0
 10 11  1  0
 11 12  2  0
 12 13  1  0
 13 14  2  0
M  END
