
     RDKit          3D

 14 15  0  0  0  0  0  0  0  0999 V2000
    2.9310   -1.2060   -0.8380 C   0  0  0  0  0  0  0  0  0  0  0  0
    2.9940    0.1750   -0.7650 O   0  0  0  0  0  0  0  0  0  0  0  0
    1.8530    0.7400   -0.2400 C   0  0  0  0  0  0  0  0  0  0  0  0
    0.6650    0.4170   -1.0690 C   0  0  0  0  0  0  0  0  0  0  0  0
   -0.5560    1.0070   -0.5640 N   0  0  0  0  0  0  0  0  0  0  0  0
   -1.1030    2.1950   -0.8440 C   0  0  0  0  0  0  0  0  0  0  0  0
   -0.4240    3.3610   -1.9480 Cl  0  0  0  0  0  0  0  0  0  0  0  0
   -2.2450    2.3540   -0.1520 N   0  0  0  0  0  0  0  0  0  0  0  0
   -2.4510    1.2390    0.6010 C   0  0  0  0  0  0  0  0  0  0  0  0
   -3.2720    0.6470    1.4870 N   0  0  0  0  0  0  0  0  0  0  0  0
   -2.7480   -0.5270    1.7750 N   0  0  0  0  0  0  0  0  0  0  0  0
   -1.6050   -0.7200    1.1010 C   0  0  0  0  0  0  0  0  0  0  0  0
   -0.7010   -1.9130    1.1400 C   0  0  0  0  0  0  0  0  0  0  0  0
   -1.3760    0.4170    0.3200 C   0  0  0  0  0  0  0  0  0  0  0  0
  1  2  1  0
  2  3  1  0
  3  4  1  0
  4  5  1  0
  5  6  1  0
  5 14  1  0
  6  7  1  0
  6  8  2  0
  8  9  1  0
  9 10  1  0
  9 14  2  0
 10 11  1  0
 11 12  2  0
 12 13  1  0
 12 14  1  0
M  END
