
     RDKit          3D

 14 15  0  0  0  0  0  0  0  0999 V2000
   -3.4380    1.3000   -2.1000 Cl  0  0  0  0  0  0  0  0  0  0  0  0
   -2.4460    1.6990   -0.6620 C   0  0  0  0  0  0  0  0  0  0  0  0
   -2.0210    0.4760    0.0280 C   0  0  0  0  0  0  0  0  0  0  0  0
   -2.8080   -0.0290    0.9940 N   0  0  0  0  0  0  0  0  0  0  0  0
   -2.5200   -1.1430    1.6930 C   0  0  0  0  0  0  0  0  0  0  0  0
   -1.3520   -1.7580    1.3630 N   0  0  0  0  0  0  0  0  0  0  0  0
   -0.5390   -1.3070    0.4210 C   0  0  0  0  0  0  0  0  0  0  0  0
    0.6570   -1.9720    0.1100 N   0  0  0  0  0  0  0  0  0  0  0  0
    1.5890   -1.5310   -0.9070 C   0  0  0  0  0  0  0  0  0  0  0  0
    2.0670   -0.1730   -0.5190 C   0  0  0  0  0  0  0  0  0  0  0  0
    1.8840    0.6990    0.4580 C   0  0  0  0  0  0  0  0  0  0  0  0
    2.8350    1.6750   -0.1630 C   0  0  0  0  0  0  0  0  0  0  0  0
    2.9670    0.6980   -1.1480 O   0  0  0  0  0  0  0  0  0  0  0  0
   -0.8710   -0.1900   -0.2490 N   0  0  0  0  0  0  0  0  0  0  0  0
  1  2  1  0
  2  3  1  0
  3  4  2  0
  3 14  1  0
  4  5  1  0
  5  6  2  0
  6  7  1  0
  7  8  1  0
  7 14  2  0
  8  9  1  0
  9 10  1  0
 10 11  2  0
 10 13  1  0
 11 12  1  0
 12 13  1  0
M  END
