
     RDKit          3D

 35 37  0  0  0  0  0  0  0  0999 V2000
   -3.9830    2.8310   -1.5950 C   0  0  0  0  0  0  0  0  0  0  0  0
   -4.7230    1.9460   -0.6570 C   0  0  0  0  0  0  0  0  0  0  0  0
   -4.1010    1.0350    0.1680 C   0  0  0  0  0  0  0  0  0  0  0  0
   -2.6820    1.0600    0.0050 N   0  0  0  0  0  0  0  0  0  0  0  0
   -1.5370    0.2840    0.0420 C   0  0  0  0  0  0  0  0  0  0  0  0
   -1.1980   -0.0750    1.2600 O   0  0  0  0  0  0  0  0  0  0  0  0
   -0.5250   -0.2920   -0.9030 C   0  0  0  0  0  0  0  0  0  0  0  0
   -0.7050   -0.8540   -2.1300 C   0  0  0  0  0  0  0  0  0  0  0  0
    0.4340   -1.2160   -2.8350 N   0  0  0  0  0  0  0  0  0  0  0  0
    1.6820   -1.0700   -2.4290 C   0  0  0  0  0  0  0  0  0  0  0  0
    1.9270   -0.5100   -1.1920 C   0  0  0  0  0  0  0  0  0  0  0  0
    3.3120   -0.3470   -0.7510 C   0  0  0  0  0  0  0  0  0  0  0  0
    3.8200    0.8590   -0.7220 C   0  0  0  0  0  0  0  0  0  0  0  0
    2.7380    2.2200   -1.2400 Cl  0  0  0  0  0  0  0  0  0  0  0  0
    5.1460    1.2530   -0.3610 C   0  0  0  0  0  0  0  0  0  0  0  0
    5.3210    2.5540   -0.3970 O   0  0  0  0  0  0  0  0  0  0  0  0
    6.2640    0.5420    0.0150 N   0  0  0  0  0  0  0  0  0  0  0  0
    6.4800   -0.8520    0.0840 C   0  0  0  0  0  0  0  0  0  0  0  0
    6.4010   -1.2360    1.5690 C   0  0  0  0  0  0  0  0  0  0  0  0
    7.3740   -0.3390    2.2960 C   0  0  0  0  0  0  0  0  0  0  0  0
    8.0640   -0.8370    3.1790 O   0  0  0  0  0  0  0  0  0  0  0  0
    7.5010    1.0880    1.9640 C   0  0  0  0  0  0  0  0  0  0  0  0
    7.4460    1.3440    0.4780 C   0  0  0  0  0  0  0  0  0  0  0  0
    0.8430   -0.1450   -0.4710 C   0  0  0  0  0  0  0  0  0  0  0  0
    1.1120    0.3780    0.9150 C   0  0  0  0  0  0  0  0  0  0  0  0
   -1.8090   -1.1760   -2.8980 O   0  0  0  0  0  0  0  0  0  0  0  0
   -2.8260   -2.1380   -2.7750 C   0  0  0  0  0  0  0  0  0  0  0  0
   -3.7630   -1.5210   -1.7920 C   0  0  0  0  0  0  0  0  0  0  0  0
   -4.3680   -0.5860   -2.4640 O   0  0  0  0  0  0  0  0  0  0  0  0
   -4.0220   -1.7710   -0.4710 N   0  0  0  0  0  0  0  0  0  0  0  0
   -5.1190   -2.1310    0.3590 C   0  0  0  0  0  0  0  0  0  0  0  0
   -5.5070   -0.9010    1.1660 C   0  0  0  0  0  0  0  0  0  0  0  0
   -6.5150   -1.3210    2.2200 C   0  0  0  0  0  0  0  0  0  0  0  0
   -5.0640    0.3320    1.0350 C   0  0  0  0  0  0  0  0  0  0  0  0
   -5.8590    1.2220    2.0380 C   0  0  0  0  0  0  0  0  0  0  0  0
  1  2  1  0
  2  3  2  3
  3  4  1  0
  3 34  1  0
  4  5  1  0
  5  6  2  0
  5  7  1  0
  7  8  2  0
  7 24  1  0
  8  9  1  0
  8 26  1  0
  9 10  2  0
 10 11  1  0
 11 12  1  0
 11 24  2  0
 12 13  2  3
 13 14  1  0
 13 15  1  0
 15 16  2  0
 15 17  1  0
 17 18  1  0
 17 23  1  0
 18 19  1  0
 19 20  1  0
 20 21  2  0
 20 22  1  0
 22 23  1  0
 24 25  1  0
 26 27  1  0
 27 28  1  0
 28 29  2  0
 28 30  1  0
 30 31  1  0
 31 32  1  0
 32 33  1  0
 32 34  2  0
 34 35  1  0
M  END
