
     RDKit          3D

 35 35  0  0  0  0  0  0  0  0999 V2000
   -1.5560   -2.8290   -2.5850 C   0  0  0  0  0  0  0  0  0  0  0  0
   -0.4540   -2.0640   -3.2790 C   0  0  0  0  0  0  0  0  0  0  0  0
   -0.3130   -0.8630   -2.7090 O   0  0  0  0  0  0  0  0  0  0  0  0
    0.0290   -0.6880   -1.4230 C   0  0  2  0  0  0  0  0  0  0  0  0
   -0.9990    0.2370   -0.3450 S   0  0  0  0  0  0  0  0  0  0  0  0
   -2.5960   -0.3500    0.1130 C   0  0  2  0  0  0  0  0  0  0  0  0
   -2.6140   -1.5760    0.9600 C   0  0  0  0  0  0  0  0  0  0  0  0
   -3.4500   -0.6070   -1.0600 N   0  0  0  0  0  0  0  0  0  0  0  0
   -3.4200    1.0780    0.9190 S   0  0  0  0  0  0  0  0  0  0  0  0
   -5.0910    0.7590    1.4210 C   0  0  1  0  0  0  0  0  0  0  0  0
   -5.2590   -0.2340    2.5300 C   0  0  0  0  0  0  0  0  0  0  0  0
   -4.4400    0.0390    3.6210 O   0  0  0  0  0  0  0  0  0  0  0  0
   -5.6550    2.0890    1.9470 C   0  0  0  0  0  0  0  0  0  0  0  0
   -6.9800    1.9320    2.3380 O   0  0  0  0  0  0  0  0  0  0  0  0
   -5.9330    0.4530    0.3270 O   0  0  0  0  0  0  0  0  0  0  0  0
   -5.8980    1.5150   -0.4700 O   0  0  0  0  0  0  0  0  0  0  0  0
    1.4780   -0.2140   -1.2390 C   0  0  2  0  0  0  0  0  0  0  0  0
    2.6000   -1.4440   -1.9260 Cl  0  0  0  0  0  0  0  0  0  0  0  0
    1.8520   -0.1850    0.5310 S   0  0  0  0  0  0  0  0  0  0  0  0
    3.3940    0.7910    0.5330 C   0  0  1  0  0  0  0  0  0  0  0  0
    3.6180    1.5140    1.8250 C   0  0  0  0  0  0  0  0  0  0  0  0
    4.8990    2.2570    1.7090 C   0  0  0  0  0  0  0  0  0  0  0  0
    5.3610    2.9550    2.6410 O   0  0  0  0  0  0  0  0  0  0  0  0
    5.6750    2.2200    0.5360 O   0  0  0  0  0  0  0  0  0  0  0  0
    4.7950   -0.0750   -0.1250 S   0  0  0  0  0  0  0  0  0  0  0  0
    5.3600   -1.5050    0.7710 C   0  0  1  0  0  0  0  0  0  0  0  0
    6.4870   -2.0600    0.0140 N   0  0  0  0  0  0  0  0  0  0  0  0
    5.9180   -1.1780    2.1390 C   0  0  0  0  0  0  0  0  0  0  0  0
    6.9380   -0.2480    2.1030 O   0  0  0  0  0  0  0  0  0  0  0  0
    2.9100    2.0150   -0.7770 S   0  0  0  0  0  0  0  0  0  0  0  0
    1.7790    1.1010   -1.8250 C   0  0  2  0  0  0  0  0  0  0  0  0
    0.6660    1.9590   -2.1170 N   0  0  0  0  0  0  0  0  0  0  0  0
    0.3720    2.4030   -3.4430 C   0  0  0  0  0  0  0  0  0  0  0  0
    1.1310    2.0120   -4.3460 O   0  0  0  0  0  0  0  0  0  0  0  0
   -0.6840    3.2240   -3.7640 O   0  0  0  0  0  0  0  0  0  0  0  0
  1  2  1  0
  2  3  1  0
  4  3  1  6
  4  5  1  0
  4 17  1  0
  5  6  1  0
  6  7  1  1
  6  8  1  0
  6  9  1  0
  9 10  1  0
 10 11  1  1
 10 13  1  0
 10 15  1  0
 11 12  1  0
 13 14  1  0
 15 16  1  0
 17 18  1  6
 17 19  1  0
 17 31  1  0
 19 20  1  0
 20 21  1  1
 20 25  1  0
 20 30  1  0
 21 22  1  0
 22 23  2  0
 22 24  1  0
 25 26  1  0
 26 27  1  6
 26 28  1  0
 28 29  1  0
 30 31  1  0
 31 32  1  1
 32 33  1  0
 33 34  2  0
 33 35  1  0
M  END
