
     RDKit          3D

 35 36  0  0  0  0  0  0  0  0999 V2000
   -0.6310   -1.8360    1.0930 C   0  0  0  0  0  0  0  0  0  0  0  0
   -0.4800   -0.3990    0.6330 C   0  0  1  0  0  0  0  0  0  0  0  0
   -0.3980    0.5610    1.7800 C   0  0  0  0  0  0  0  0  0  0  0  0
    0.9980   -0.3270   -0.3960 S   0  0  0  0  0  0  0  0  0  0  0  0
    2.4370   -0.6580    0.6080 C   0  0  1  0  0  0  0  0  0  0  0  0
    2.7520    0.5850    1.8070 Cl  0  0  0  0  0  0  0  0  0  0  0  0
    2.3510   -2.3220    1.3910 S   0  0  0  0  0  0  0  0  0  0  0  0
    3.3350   -3.2130    0.1150 C   0  0  0  0  0  0  0  0  0  0  0  0
    3.2840   -2.1280   -0.9720 C   0  0  0  0  0  0  0  0  0  0  0  0
    3.7020   -0.8480   -0.2300 C   0  0  2  0  0  0  0  0  0  0  0  0
    4.6550   -1.1920    0.6760 O   0  0  0  0  0  0  0  0  0  0  0  0
    5.9460   -0.8710    0.5180 C   0  0  0  0  0  0  0  0  0  0  0  0
    6.3420    0.5490    0.3440 C   0  0  2  0  0  0  0  0  0  0  0  0
    6.2990    1.1860    1.6700 N   0  0  0  0  0  0  0  0  0  0  0  0
    5.5640    1.3480   -0.6790 C   0  0  1  0  0  0  0  0  0  0  0  0
    5.3370    2.5910   -0.0840 O   0  0  0  0  0  0  0  0  0  0  0  0
    6.4900    1.6750   -1.7070 O   0  0  0  0  0  0  0  0  0  0  0  0
    4.2610    0.4090   -1.1720 S   0  0  0  0  0  0  0  0  0  0  0  0
    3.2500    1.3160   -0.8690 O   0  0  0  0  0  0  0  0  0  0  0  0
    3.7060    0.5330   -2.7790 O   0  0  0  0  0  0  0  0  0  0  0  0
    5.2680   -0.6380   -1.8550 O   0  0  0  0  0  0  0  0  0  0  0  0
   -1.7200   -0.0730   -0.1450 C   0  0  0  0  0  0  0  0  0  0  0  0
   -1.5540    0.2650   -1.2980 O   0  0  0  0  0  0  0  0  0  0  0  0
   -3.3370   -0.1650    0.5460 S   0  0  0  0  0  0  0  0  0  0  0  0
   -4.6590    0.2780   -0.5570 C   0  0  2  0  0  0  0  0  0  0  0  0
   -4.6840   -0.6880   -1.5810 F   0  0  0  0  0  0  0  0  0  0  0  0
   -4.5470    1.5700   -1.2260 C   0  0  0  0  0  0  0  0  0  0  0  0
   -3.5030    1.8820   -2.1230 N   0  0  0  0  0  0  0  0  0  0  0  0
   -5.3870    2.5230   -1.0510 O   0  0  0  0  0  0  0  0  0  0  0  0
   -5.9730    0.0700    0.1820 C   0  0  2  0  0  0  0  0  0  0  0  0
   -5.9610   -1.3170    0.5030 O   0  0  0  0  0  0  0  0  0  0  0  0
   -7.1810    0.2560   -0.6830 C   0  0  0  0  0  0  0  0  0  0  0  0
   -8.3340   -0.1550    0.1080 N   0  0  0  0  0  0  0  0  0  0  0  0
   -6.0290    0.7740    1.5020 C   0  0  0  0  0  0  0  0  0  0  0  0
   -6.0530    2.1410    1.4500 O   0  0  0  0  0  0  0  0  0  0  0  0
  2  1  1  1
  2  3  1  0
  2  4  1  0
  2 22  1  0
  4  5  1  0
  5  6  1  1
  5  7  1  0
  5 10  1  0
  7  8  1  0
  8  9  1  0
 10  9  1  6
 10 11  1  0
 10 18  1  0
 11 12  1  0
 12 13  1  0
 13 14  1  1
 13 15  1  0
 15 16  1  1
 15 17  1  0
 15 18  1  0
 18 19  2  0
 18 20  1  0
 18 21  1  0
 22 23  2  0
 22 24  1  0
 24 25  1  0
 25 26  1  6
 25 27  1  0
 25 30  1  0
 27 28  1  0
 27 29  2  0
 30 31  1  1
 30 32  1  0
 30 34  1  0
 32 33  1  0
 34 35  1  0
M  CHG  1  33   1
M  END
