
     RDKit          3D

 34 37  0  0  0  0  0  0  0  0999 V2000
   -2.8230    1.3080   -2.2180 C   0  0  0  0  0  0  0  0  0  0  0  0
   -4.0180    0.7160   -1.5790 C   0  0  0  0  0  0  0  0  0  0  0  0
   -5.2640    0.8740   -2.0710 N   0  0  0  0  0  0  0  0  0  0  0  0
   -6.1690    0.2460   -1.2960 C   0  0  0  0  0  0  0  0  0  0  0  0
   -7.5410    0.1030   -1.3540 C   0  0  0  0  0  0  0  0  0  0  0  0
   -8.2080   -0.6140   -0.3950 C   0  0  0  0  0  0  0  0  0  0  0  0
   -9.9650   -0.8130   -0.4440 Cl  0  0  0  0  0  0  0  0  0  0  0  0
   -7.5460   -1.2160    0.6540 C   0  0  0  0  0  0  0  0  0  0  0  0
   -8.2670   -1.9450    1.6190 O   0  0  0  0  0  0  0  0  0  0  0  0
   -6.1790   -1.0770    0.7170 C   0  0  0  0  0  0  0  0  0  0  0  0
   -5.5050   -0.3580   -0.2420 C   0  0  0  0  0  0  0  0  0  0  0  0
   -4.1580   -0.0500   -0.4420 C   0  0  0  0  0  0  0  0  0  0  0  0
   -2.9950   -0.4630    0.3970 C   0  0  1  0  0  0  0  0  0  0  0  0
   -3.4960   -1.2020    1.4680 O   0  0  0  0  0  0  0  0  0  0  0  0
   -2.1170   -1.4580   -0.3520 C   0  0  0  0  0  0  0  0  0  0  0  0
   -0.8520   -1.6750    0.4210 C   0  0  0  0  0  0  0  0  0  0  0  0
   -0.1220   -0.4480    0.5020 N   0  0  0  0  0  0  0  0  0  0  0  0
    1.2630   -0.4220    0.2470 C   0  0  0  0  0  0  0  0  0  0  0  0
    1.8390   -1.5090   -0.0470 O   0  0  0  0  0  0  0  0  0  0  0  0
    2.0030    0.8630    0.3280 C   0  0  0  0  0  0  0  0  0  0  0  0
    3.3970    0.5810    0.0220 N   0  0  0  0  0  0  0  0  0  0  0  0
    4.4450    0.2290    0.9180 C   0  0  0  0  0  0  0  0  0  0  0  0
    4.2750   -0.3080    2.0460 O   0  0  0  0  0  0  0  0  0  0  0  0
    5.6980    0.6330    0.2230 C   0  0  1  0  0  0  0  0  0  0  0  0
    6.9010   -0.0770    0.7720 C   0  0  1  0  0  0  0  0  0  0  0  0
    8.1200    0.3960    0.0100 C   0  0  0  0  0  0  0  0  0  0  0  0
    7.1120    0.2530    2.2270 C   0  0  0  0  0  0  0  0  0  0  0  0
    5.3760    0.2650   -1.1380 N   0  0  0  0  0  0  0  0  0  0  0  0
    6.1910   -0.3210   -2.1840 C   0  0  0  0  0  0  0  0  0  0  0  0
    3.9840    0.6070   -1.2970 C   0  0  0  0  0  0  0  0  0  0  0  0
    3.3880    0.8770   -2.3690 O   0  0  0  0  0  0  0  0  0  0  0  0
   -0.8070    0.7530    0.8440 C   0  0  0  0  0  0  0  0  0  0  0  0
   -2.2700    0.6940    0.9780 C   0  0  2  0  0  0  0  0  0  0  0  0
   -2.6340    0.9050    2.4590 C   0  0  0  0  0  0  0  0  0  0  0  0
  1  2  1  0
  2  3  1  0
  2 12  2  0
  3  4  1  0
  4  5  2  0
  4 11  1  0
  5  6  1  0
  6  7  1  0
  6  8  2  0
  8  9  1  0
  8 10  1  0
 10 11  2  0
 11 12  1  0
 12 13  1  0
 13 14  1  1
 13 15  1  0
 13 33  1  0
 15 16  1  0
 16 17  1  0
 17 18  1  0
 17 32  1  0
 18 19  2  0
 18 20  1  0
 20 21  1  0
 21 22  1  0
 21 30  1  0
 22 23  2  0
 22 24  1  0
 24 25  1  0
 24 28  1  6
 25 26  1  6
 25 27  1  0
 28 29  1  0
 28 30  1  0
 30 31  2  0
 32 33  1  0
 33 34  1  1
M  END
