
     RDKit          3D

 35 38  0  0  0  0  0  0  0  0999 V2000
   -0.6980    2.9130   -1.7550 C   0  0  0  0  0  0  0  0  0  0  0  0
   -0.3100    1.8620   -0.7370 C   0  0  0  0  0  0  0  0  0  0  0  0
   -0.4950    2.3170    0.6830 C   0  0  2  0  0  0  0  0  0  0  0  0
   -0.1390    1.3780    1.6830 N   0  0  0  0  0  0  0  0  0  0  0  0
    1.1040    0.7470    1.9170 C   0  0  0  0  0  0  0  0  0  0  0  0
    1.6580    0.8390    3.0900 O   0  0  0  0  0  0  0  0  0  0  0  0
    1.8620   -0.0120    0.9870 N   0  0  0  0  0  0  0  0  0  0  0  0
    3.2440    0.1100    0.5870 C   0  0  0  0  0  0  0  0  0  0  0  0
    4.3350    0.6740    1.2240 C   0  0  0  0  0  0  0  0  0  0  0  0
    5.5920    0.6900    0.6650 C   0  0  0  0  0  0  0  0  0  0  0  0
    6.9260    1.4070    1.5000 Cl  0  0  0  0  0  0  0  0  0  0  0  0
    5.7570    0.1210   -0.5750 C   0  0  0  0  0  0  0  0  0  0  0  0
    7.0080    0.1080   -1.1900 O   0  0  0  0  0  0  0  0  0  0  0  0
    7.1570   -0.4820   -2.4650 C   0  0  0  0  0  0  0  0  0  0  0  0
    4.6640   -0.4490   -1.2220 C   0  0  0  0  0  0  0  0  0  0  0  0
    3.4080   -0.4610   -0.6560 C   0  0  0  0  0  0  0  0  0  0  0  0
    2.1100   -0.9940   -1.1180 C   0  0  0  0  0  0  0  0  0  0  0  0
    1.3530   -1.1450    0.2090 C   0  0  1  0  0  0  0  0  0  0  0  0
    1.7920   -2.4400    0.7950 C   0  0  0  0  0  0  0  0  0  0  0  0
    1.1240   -3.2100    1.6040 C   0  0  0  0  0  0  0  0  0  0  0  0
   -0.2290   -3.0090    2.1500 C   0  0  0  0  0  0  0  0  0  0  0  0
   -1.3130   -3.0560    1.1000 C   0  0  0  0  0  0  0  0  0  0  0  0
   -2.2310   -1.8280    1.2630 C   0  0  0  0  0  0  0  0  0  0  0  0
   -2.7760   -1.3640   -0.0290 C   0  0  0  0  0  0  0  0  0  0  0  0
   -2.1150   -1.7260   -1.0670 O   0  0  0  0  0  0  0  0  0  0  0  0
   -3.9320   -0.5780   -0.2040 N   0  0  0  0  0  0  0  0  0  0  0  0
   -5.0020   -0.8090   -1.2100 C   0  0  0  0  0  0  0  0  0  0  0  0
   -5.3130    0.6010   -1.6640 C   0  0  0  0  0  0  0  0  0  0  0  0
   -4.5980    1.5360   -0.6810 C   0  0  0  0  0  0  0  0  0  0  0  0
   -4.3770    0.5740    0.4730 C   0  0  2  0  0  0  0  0  0  0  0  0
   -3.6120    1.1410    1.5640 C   0  0  0  0  0  0  0  0  0  0  0  0
   -3.5500    0.4350    2.6360 O   0  0  0  0  0  0  0  0  0  0  0  0
   -2.9190    2.3770    1.6230 N   0  0  0  0  0  0  0  0  0  0  0  0
   -1.8740    2.8640    0.8210 C   0  0  0  0  0  0  0  0  0  0  0  0
   -2.1700    3.9240    0.1260 O   0  0  0  0  0  0  0  0  0  0  0  0
  1  2  1  0
  3  2  1  6
  3  4  1  0
  3 34  1  0
  4  5  1  0
  5  6  2  0
  5  7  1  0
  7  8  1  0
  7 18  1  0
  8  9  2  0
  8 16  1  0
  9 10  1  0
 10 11  1  0
 10 12  2  0
 12 13  1  0
 12 15  1  0
 13 14  1  0
 15 16  2  0
 16 17  1  0
 18 17  1  6
 18 19  1  0
 19 20  2  0
 20 21  1  0
 21 22  1  0
 22 23  1  0
 23 24  1  0
 24 25  2  0
 24 26  1  0
 26 27  1  0
 26 30  1  0
 27 28  1  0
 28 29  1  0
 30 29  1  6
 30 31  1  0
 31 32  2  0
 31 33  1  0
 33 34  1  0
 34 35  2  0
M  END
