
     RDKit          3D

 35 37  0  0  0  0  0  0  0  0999 V2000
    6.3070    0.8980    3.5530 C   0  0  0  0  0  0  0  0  0  0  0  0
    5.0510    0.3510    2.9930 C   0  0  0  0  0  0  0  0  0  0  0  0
    4.2510   -0.2180    3.7610 O   0  0  0  0  0  0  0  0  0  0  0  0
    4.7780    0.4880    1.5700 C   0  0  0  0  0  0  0  0  0  0  0  0
    5.5900    1.0570    0.8090 O   0  0  0  0  0  0  0  0  0  0  0  0
    3.5690   -0.0260    1.0030 N   0  0  0  0  0  0  0  0  0  0  0  0
    3.2860    0.1090   -0.4290 C   0  0  1  0  0  0  0  0  0  0  0  0
    3.1660   -1.2390   -1.0270 C   0  0  0  0  0  0  0  0  0  0  0  0
    1.7760   -1.7730   -0.9810 C   0  0  0  0  0  0  0  0  0  0  0  0
    1.6780   -2.8440   -2.0160 C   0  0  0  0  0  0  0  0  0  0  0  0
    2.2220   -2.6150   -3.1260 O   0  0  0  0  0  0  0  0  0  0  0  0
    1.0030   -4.0610   -1.7550 N   0  0  0  0  0  0  0  0  0  0  0  0
   -0.1260   -4.1620   -0.8680 C   0  0  0  0  0  0  0  0  0  0  0  0
   -1.3880   -3.5380   -1.4230 C   0  0  0  0  0  0  0  0  0  0  0  0
   -1.9110   -2.4520   -0.4930 C   0  0  0  0  0  0  0  0  0  0  0  0
   -2.8640   -1.5700   -1.2020 C   0  0  0  0  0  0  0  0  0  0  0  0
   -3.6910   -0.6990   -0.7020 C   0  0  0  0  0  0  0  0  0  0  0  0
   -3.9200   -0.3430    0.6620 C   0  0  1  0  0  0  0  0  0  0  0  0
   -2.9850   -0.7450    1.7350 C   0  0  0  0  0  0  0  0  0  0  0  0
   -3.3440    0.2350    2.8740 C   0  0  2  0  0  0  0  0  0  0  0  0
   -3.6940   -0.5690    4.3860 Cl  0  0  0  0  0  0  0  0  0  0  0  0
   -4.5500    1.0020    2.3290 C   0  0  0  0  0  0  0  0  0  0  0  0
   -4.0320    1.1070    0.9290 N   0  0  0  0  0  0  0  0  0  0  0  0
   -3.7200    2.1630    0.0660 C   0  0  0  0  0  0  0  0  0  0  0  0
   -4.8420    2.8560   -0.1450 O   0  0  0  0  0  0  0  0  0  0  0  0
   -2.5090    2.6510   -0.6110 C   0  0  0  0  0  0  0  0  0  0  0  0
   -2.5300    4.0740   -0.7060 C   0  0  0  0  0  0  0  0  0  0  0  0
   -1.5510    4.8290   -1.2800 C   0  0  0  0  0  0  0  0  0  0  0  0
   -0.4950    4.1250   -1.7860 C   0  0  0  0  0  0  0  0  0  0  0  0
   -0.4020    2.7090   -1.7310 C   0  0  0  0  0  0  0  0  0  0  0  0
   -1.4180    1.9840   -1.1400 C   0  0  0  0  0  0  0  0  0  0  0  0
    0.8230    2.3110   -2.3550 N   0  0  0  0  0  0  0  0  0  0  0  0
    1.8050    1.3420   -1.9890 C   0  0  0  0  0  0  0  0  0  0  0  0
    2.4700    0.7340   -2.8630 O   0  0  0  0  0  0  0  0  0  0  0  0
    2.0900    1.0040   -0.5580 C   0  0  0  0  0  0  0  0  0  0  0  0
  1  2  1  0
  2  3  2  0
  2  4  1  0
  4  5  2  0
  4  6  1  0
  7  6  1  1
  7  8  1  0
  7 35  1  0
  8  9  1  0
  9 10  1  0
 10 11  2  0
 10 12  1  0
 12 13  1  0
 13 14  1  0
 14 15  1  0
 15 16  1  0
 16 17  2  0
 17 18  1  0
 18 19  1  1
 18 23  1  0
 19 20  1  0
 20 21  1  1
 20 22  1  0
 22 23  1  0
 23 24  1  0
 24 25  2  0
 24 26  1  0
 26 27  2  0
 26 31  1  0
 27 28  1  0
 28 29  2  0
 29 30  1  0
 30 31  2  0
 30 32  1  0
 32 33  1  0
 33 34  2  0
 33 35  1  0
M  END
