
     RDKit          3D

 35 35  0  0  0  0  0  0  0  0999 V2000
   -4.1730    1.9810   -3.0400 C   0  0  0  0  0  0  0  0  0  0  0  0
   -3.9060    0.9720   -2.0890 O   0  0  0  0  0  0  0  0  0  0  0  0
   -4.8650    0.5840   -1.1990 C   0  0  0  0  0  0  0  0  0  0  0  0
   -5.9990    1.1750   -1.2710 O   0  0  0  0  0  0  0  0  0  0  0  0
   -4.7440   -0.4420   -0.1550 C   0  0  1  0  0  0  0  0  0  0  0  0
   -5.7680   -1.5920   -0.5500 C   0  0  0  0  0  0  0  0  0  0  0  0
   -5.7660   -2.5580    0.4190 O   0  0  0  0  0  0  0  0  0  0  0  0
   -3.5710   -1.1090   -0.0700 O   0  0  0  0  0  0  0  0  0  0  0  0
   -2.1600   -0.2000    0.1270 S   0  0  1  0  0  0  0  0  0  0  0  0
   -1.9150   -0.0760    1.9340 C   0  0  0  0  0  0  0  0  0  0  0  0
   -0.7350   -1.1790   -0.4510 C   0  0  2  0  0  0  0  0  0  0  0  0
   -0.5430   -2.6560    0.6060 S   0  0  0  0  0  0  0  0  0  0  0  0
   -2.2380   -3.8770    0.2750 Cl  0  0  0  0  0  0  0  0  0  0  0  0
    0.7240   -0.2740   -0.7680 S   0  0  0  0  0  0  0  0  0  0  0  0
    1.6160    0.5190    0.5210 C   0  0  1  0  0  0  0  0  0  0  0  0
    0.9290    1.6290    1.1690 N   0  0  0  0  0  0  0  0  0  0  0  0
    2.1610   -0.3630    1.6010 C   0  0  0  0  0  0  0  0  0  0  0  0
    3.1310   -1.3380    0.9800 C   0  0  1  0  0  0  0  0  0  0  0  0
    2.8480   -1.6500   -0.3320 O   0  0  0  0  0  0  0  0  0  0  0  0
    4.4960   -0.6680    1.0240 C   0  0  0  0  0  0  0  0  0  0  0  0
    4.5960    0.4230   -0.0130 C   0  0  2  0  0  0  0  0  0  0  0  0
    4.9600   -0.1940   -1.1990 F   0  0  0  0  0  0  0  0  0  0  0  0
    5.6850    1.4290    0.3030 C   0  0  1  0  0  0  0  0  0  0  0  0
    5.6580    2.4570   -0.8330 C   0  0  0  0  0  0  0  0  0  0  0  0
    5.3350    2.1010    1.4480 O   0  0  0  0  0  0  0  0  0  0  0  0
    7.0220    0.8040    0.4430 C   0  0  0  0  0  0  0  0  0  0  0  0
    7.5770    0.1380   -0.4480 O   0  0  0  0  0  0  0  0  0  0  0  0
    7.7140    0.9670    1.6500 O   0  0  0  0  0  0  0  0  0  0  0  0
    3.0820    1.3150   -0.2740 S   0  0  0  0  0  0  0  0  0  0  0  0
   -1.1720   -1.7720   -1.7780 C   0  0  0  0  0  0  0  0  0  0  0  0
   -0.2760   -2.5170   -2.5810 N   0  0  0  0  0  0  0  0  0  0  0  0
   -2.3330   -1.6000   -2.1550 O   0  0  0  0  0  0  0  0  0  0  0  0
   -5.3460    0.0910    1.0780 C   0  0  0  0  0  0  0  0  0  0  0  0
   -6.5630    0.8530    0.8770 N   0  0  0  0  0  0  0  0  0  0  0  0
   -4.9040   -0.0630    2.2030 O   0  0  0  0  0  0  0  0  0  0  0  0
  1  2  1  0
  2  3  1  0
  3  4  2  0
  3  5  1  0
  5  6  1  6
  5  8  1  0
  5 33  1  0
  6  7  1  0
  8  9  1  0
  9 10  1  1
  9 11  1  0
 11 12  1  1
 11 14  1  0
 11 30  1  0
 12 13  1  0
 14 15  1  0
 15 16  1  1
 15 17  1  0
 15 29  1  0
 17 18  1  0
 18 19  1  6
 18 20  1  0
 20 21  1  0
 21 22  1  6
 21 23  1  0
 21 29  1  0
 23 24  1  6
 23 25  1  0
 23 26  1  0
 26 27  2  0
 26 28  1  0
 30 31  1  0
 30 32  2  0
 33 34  1  0
 33 35  2  0
M  END
