
     RDKit          3D

 17 17  0  0  0  0  0  0  0  0999 V2000
   -4.9530   -0.5850    0.7640 C   0  0  0  0  0  0  0  0  0  0  0  0
   -4.0160    0.4150    1.1010 O   0  0  0  0  0  0  0  0  0  0  0  0
   -2.8100    0.5540    0.4000 C   0  0  0  0  0  0  0  0  0  0  0  0
   -2.5070   -0.2850   -0.6410 C   0  0  0  0  0  0  0  0  0  0  0  0
   -1.3170   -0.1760   -1.3620 C   0  0  0  0  0  0  0  0  0  0  0  0
   -0.4360    0.8070   -1.0030 C   0  0  0  0  0  0  0  0  0  0  0  0
    1.0700    0.9560   -1.9030 S   0  0  2  0  0  0  0  0  0  0  0  0
    1.4560    2.4000   -1.8710 O   0  0  0  0  0  0  0  0  0  0  0  0
    0.8660    0.5650   -3.3240 O   0  0  0  0  0  0  0  0  0  0  0  0
    2.2320   -0.0410   -1.1110 N   0  0  0  0  0  0  0  0  0  0  0  0
    2.4730    0.3860    0.2480 C   0  0  0  0  0  0  0  0  0  0  0  0
    3.4790   -0.5040    0.8810 C   0  0  0  0  0  0  0  0  0  0  0  0
    3.8360   -0.3010    2.0920 O   0  0  0  0  0  0  0  0  0  0  0  0
    4.0950   -1.5950    0.2290 N   0  0  0  0  0  0  0  0  0  0  0  0
    5.0030   -2.3580    0.8780 O   0  0  0  0  0  0  0  0  0  0  0  0
   -0.7130    1.6630    0.0370 C   0  0  0  0  0  0  0  0  0  0  0  0
   -1.8990    1.5260    0.7270 C   0  0  0  0  0  0  0  0  0  0  0  0
  1  2  1  0
  2  3  1  0
  3  4  2  0
  3 17  1  0
  4  5  1  0
  5  6  2  0
  6  7  1  0
  6 16  1  0
  7  8  2  0
  7  9  2  0
  7 10  1  1
 10 11  1  0
 11 12  1  0
 12 13  2  0
 12 14  1  0
 14 15  1  0
 16 17  2  0
M  END
