
     RDKit          3D

 13 14  0  0  0  0  0  0  0  0999 V2000
    3.0890   -2.3890    0.1400 O   0  0  0  0  0  0  0  0  0  0  0  0
    2.9030   -1.0170    0.2760 C   0  0  0  0  0  0  0  0  0  0  0  0
    3.8180   -0.0910    0.1170 C   0  0  0  0  0  0  0  0  0  0  0  0
    3.2140    1.2330    0.3500 C   0  0  0  0  0  0  0  0  0  0  0  0
    1.8020    0.9480    0.6710 C   0  0  0  0  0  0  0  0  0  0  0  0
    1.6260   -0.3710    0.6260 C   0  0  0  0  0  0  0  0  0  0  0  0
    0.4600   -1.0660    0.8600 O   0  0  0  0  0  0  0  0  0  0  0  0
   -0.6010   -1.1920   -0.0510 C   0  0  0  0  0  0  0  0  0  0  0  0
   -1.1870    0.1690   -0.4330 C   0  0  2  0  0  0  0  0  0  0  0  0
   -1.7840    0.7460    0.8360 C   0  0  0  0  0  0  0  0  0  0  0  0
   -3.1780    0.1580    0.7270 C   0  0  0  0  0  0  0  0  0  0  0  0
   -3.3930    0.3680   -0.7700 C   0  0  0  0  0  0  0  0  0  0  0  0
   -2.2080   -0.0450   -1.3180 O   0  0  0  0  0  0  0  0  0  0  0  0
  1  2  1  0
  2  3  2  0
  2  6  1  0
  3  4  1  0
  4  5  1  0
  5  6  2  0
  6  7  1  0
  7  8  1  0
  9  8  1  1
  9 10  1  0
  9 13  1  0
 10 11  1  0
 11 12  1  0
 12 13  1  0
M  END
