
     RDKit          3D

 13 14  0  0  0  0  0  0  0  0999 V2000
    3.3320   -0.5980   -1.3060 C   0  0  0  0  0  0  0  0  0  0  0  0
    2.1090   -1.0300   -0.9710 C   0  0  0  0  0  0  0  0  0  0  0  0
    1.4830   -0.6380    0.2870 C   0  0  0  0  0  0  0  0  0  0  0  0
    0.2120   -1.1230    0.5730 O   0  0  0  0  0  0  0  0  0  0  0  0
   -0.9150   -0.5740   -0.0990 C   0  0  1  0  0  0  0  0  0  0  0  0
   -2.1740   -1.2340    0.3540 C   0  0  0  0  0  0  0  0  0  0  0  0
   -3.3820   -0.3730    0.3450 C   0  0  0  0  0  0  0  0  0  0  0  0
   -3.1350    0.8550    0.9130 O   0  0  0  0  0  0  0  0  0  0  0  0
   -2.2550    1.5440    0.0970 C   0  0  0  0  0  0  0  0  0  0  0  0
   -0.8920    0.9080    0.0220 C   0  0  0  0  0  0  0  0  0  0  0  0
    2.1430    0.1550    1.0940 C   0  0  0  0  0  0  0  0  0  0  0  0
    3.5140    0.6870    0.8030 C   0  0  0  0  0  0  0  0  0  0  0  0
    3.9890    0.2360   -0.4240 O   0  0  0  0  0  0  0  0  0  0  0  0
  1  2  2  0
  1 13  1  0
  2  3  1  0
  3  4  1  0
  3 11  2  0
  5  4  1  1
  5  6  1  0
  5 10  1  0
  6  7  1  0
  7  8  1  0
  8  9  1  0
  9 10  1  0
 11 12  1  0
 12 13  1  0
M  END
