
     RDKit          3D

 13 13  0  0  0  0  0  0  0  0999 V2000
   -1.5310    3.2100   -0.3550 C   0  0  0  0  0  0  0  0  0  0  0  0
   -1.0510    1.8000   -0.2630 C   0  0  0  0  0  0  0  0  0  0  0  0
   -1.8770    0.7950   -0.1700 C   0  0  0  0  0  0  0  0  0  0  0  0
   -1.4740   -0.5860   -0.0780 C   0  0  0  0  0  0  0  0  0  0  0  0
   -2.4360   -1.7090    0.0260 C   0  0  0  0  0  0  0  0  0  0  0  0
   -0.1540   -0.8750   -0.0870 C   0  0  0  0  0  0  0  0  0  0  0  0
    0.2190   -2.2090    0.0030 O   0  0  0  0  0  0  0  0  0  0  0  0
    0.8630    0.1430   -0.1850 C   0  0  0  0  0  0  0  0  0  0  0  0
    2.1500   -0.0810   -0.2030 C   0  0  0  0  0  0  0  0  0  0  0  0
    2.8840   -1.3350   -0.1350 C   0  0  0  0  0  0  0  0  0  0  0  0
    3.7140   -1.2980    1.0090 O   0  0  0  0  0  0  0  0  0  0  0  0
    0.3750    1.5510   -0.2770 C   0  0  0  0  0  0  0  0  0  0  0  0
    1.2130    2.4870   -0.3640 O   0  0  0  0  0  0  0  0  0  0  0  0
  1  2  1  0
  2  3  2  0
  2 12  1  0
  3  4  1  0
  4  5  1  0
  4  6  2  0
  6  7  1  0
  6  8  1  0
  8  9  2  3
  8 12  1  0
  9 10  1  0
 10 11  1  0
 12 13  2  0
M  END
