
     RDKit          3D

 26 29  0  0  0  0  0  0  0  0999 V2000
    4.5800    2.7650    1.5320 C   0  0  0  0  0  0  0  0  0  0  0  0
    4.5630    1.5220    0.8830 O   0  0  0  0  0  0  0  0  0  0  0  0
    3.3880    0.8240    0.6620 C   0  0  0  0  0  0  0  0  0  0  0  0
    2.2000    1.3700    1.0950 C   0  0  0  0  0  0  0  0  0  0  0  0
    1.0340    0.6490    0.8610 C   0  0  0  0  0  0  0  0  0  0  0  0
    1.0680   -0.5600    0.2230 C   0  0  0  0  0  0  0  0  0  0  0  0
   -0.1360   -1.2820    0.0130 N   0  0  0  0  0  0  0  0  0  0  0  0
   -1.4300   -0.8180    0.3620 C   0  0  2  0  0  0  0  0  0  0  0  0
   -2.5080   -1.9000    0.2040 C   0  0  0  0  0  0  0  0  0  0  0  0
   -3.6770   -1.4470    1.0670 C   0  0  0  0  0  0  0  0  0  0  0  0
   -3.9420   -0.0270    0.8610 N   0  0  0  0  0  0  0  0  0  0  0  0
   -4.9130    0.6870    1.6530 C   0  0  0  0  0  0  0  0  0  0  0  0
   -3.2380    0.7070   -0.1550 C   0  0  0  0  0  0  0  0  0  0  0  0
   -3.8220    1.7480   -0.8290 C   0  0  0  0  0  0  0  0  0  0  0  0
   -3.1440    2.4010   -1.7900 N   0  0  0  0  0  0  0  0  0  0  0  0
   -1.8870    2.0180   -2.0800 C   0  0  0  0  0  0  0  0  0  0  0  0
   -1.1990    2.6880   -3.0640 F   0  0  0  0  0  0  0  0  0  0  0  0
   -1.2420    0.9710   -1.4320 C   0  0  0  0  0  0  0  0  0  0  0  0
   -1.9350    0.3160   -0.4590 C   0  0  0  0  0  0  0  0  0  0  0  0
    2.2940   -1.1120   -0.2180 C   0  0  0  0  0  0  0  0  0  0  0  0
    3.4530   -0.4120    0.0060 C   0  0  0  0  0  0  0  0  0  0  0  0
    4.7170   -0.9210   -0.4170 N   0  0  0  0  0  0  0  0  0  0  0  0
    4.6800   -2.1780   -1.0710 C   0  0  0  0  0  0  0  0  0  0  0  0
    5.7530   -2.7330   -1.4950 O   0  0  0  0  0  0  0  0  0  0  0  0
    3.4920   -2.8960   -1.3010 N   0  0  0  0  0  0  0  0  0  0  0  0
    2.2180   -2.4230   -0.8960 C   0  0  0  0  0  0  0  0  0  0  0  0
  1  2  1  0
  2  3  1  0
  3  4  2  0
  3 21  1  0
  4  5  1  0
  5  6  2  0
  6  7  1  0
  6 20  1  0
  8  7  1  6
  8  9  1  0
  8 19  1  0
  9 10  1  0
 10 11  1  0
 11 12  1  0
 11 13  1  0
 13 14  2  0
 13 19  1  0
 14 15  1  0
 15 16  2  0
 16 17  1  0
 16 18  1  0
 18 19  2  0
 20 21  2  0
 20 26  1  0
 21 22  1  0
 22 23  1  0
 23 24  2  0
 23 25  1  0
 25 26  1  0
M  CHG  1  15   1
M  END
