
     RDKit          3D

 25 28  0  0  0  0  0  0  0  0999 V2000
    4.1170    1.9180   -1.5220 O   0  0  0  0  0  0  0  0  0  0  0  0
    4.8260    1.3350   -0.6630 C   0  0  0  0  0  0  0  0  0  0  0  0
    6.2860    1.4110   -0.7880 C   0  0  0  0  0  0  0  0  0  0  0  0
    6.9860    0.7830    0.3490 C   0  0  0  0  0  0  0  0  0  0  0  0
    6.3500    0.0050    1.2080 C   0  0  0  0  0  0  0  0  0  0  0  0
    4.9200   -0.3240    1.1460 C   0  0  0  0  0  0  0  0  0  0  0  0
    4.1440    0.6350    0.3770 N   0  0  0  0  0  0  0  0  0  0  0  0
    2.8120    0.8530    0.6460 N   0  0  0  0  0  0  0  0  0  0  0  0
    1.8450    0.1980    0.0710 C   0  0  0  0  0  0  0  0  0  0  0  0
    2.0820   -0.8620   -0.9430 C   0  0  0  0  0  0  0  0  0  0  0  0
    1.3030   -1.9910   -0.5910 O   0  0  0  0  0  0  0  0  0  0  0  0
   -0.0430   -1.7650   -0.2790 C   0  0  0  0  0  0  0  0  0  0  0  0
   -0.9690   -2.7950   -0.4750 C   0  0  0  0  0  0  0  0  0  0  0  0
   -2.2830   -2.5430   -0.1610 C   0  0  0  0  0  0  0  0  0  0  0  0
   -2.7230   -1.3240    0.3360 C   0  0  0  0  0  0  0  0  0  0  0  0
   -4.0660   -1.1720    0.6660 N   0  0  0  0  0  0  0  0  0  0  0  0
   -4.9220   -0.0790    0.4070 C   0  0  0  0  0  0  0  0  0  0  0  0
   -6.2490   -0.1390    0.8390 C   0  0  0  0  0  0  0  0  0  0  0  0
   -7.1580    0.8680    0.6030 C   0  0  0  0  0  0  0  0  0  0  0  0
   -6.7830    1.9990   -0.0860 C   0  0  0  0  0  0  0  0  0  0  0  0
   -5.4730    2.0440   -0.5060 C   0  0  0  0  0  0  0  0  0  0  0  0
   -4.5870    1.0300   -0.2600 N   0  0  0  0  0  0  0  0  0  0  0  0
   -1.8080   -0.3270    0.5230 C   0  0  0  0  0  0  0  0  0  0  0  0
   -0.4580   -0.5520    0.2120 C   0  0  0  0  0  0  0  0  0  0  0  0
    0.4920    0.4810    0.4040 N   0  0  0  0  0  0  0  0  0  0  0  0
  1  2  2  0
  2  3  1  0
  2  7  1  0
  3  4  1  0
  4  5  2  0
  5  6  1  0
  6  7  1  0
  7  8  1  0
  8  9  2  3
  9 10  1  0
  9 25  1  0
 10 11  1  0
 11 12  1  0
 12 13  2  0
 12 24  1  0
 13 14  1  0
 14 15  2  0
 15 16  1  0
 15 23  1  0
 16 17  1  0
 17 18  2  0
 17 22  1  0
 18 19  1  0
 19 20  2  0
 20 21  1  0
 21 22  2  0
 23 24  2  0
 24 25  1  0
M  CHG  1  22   1
M  END
