
     RDKit          3D

 26 29  0  0  0  0  0  0  0  0999 V2000
   -5.9260    0.4010   -1.9140 C   0  0  0  0  0  0  0  0  0  0  0  0
   -4.6510   -0.2600   -1.8940 N   0  0  0  0  0  0  0  0  0  0  0  0
   -3.9780   -0.0620   -0.6630 C   0  0  0  0  0  0  0  0  0  0  0  0
   -4.4940    0.6280    0.3520 C   0  0  0  0  0  0  0  0  0  0  0  0
   -3.6950    0.7460    1.5430 C   0  0  0  0  0  0  0  0  0  0  0  0
   -4.0420    1.6570    2.3680 O   0  0  0  0  0  0  0  0  0  0  0  0
   -2.5300   -0.0620    1.9110 C   0  0  0  0  0  0  0  0  0  0  0  0
   -2.0730   -0.9850    0.8090 C   0  0  2  0  0  0  0  0  0  0  0  0
   -0.6260   -1.0750    0.7130 N   0  0  0  0  0  0  0  0  0  0  0  0
    0.1020    0.1020    0.4580 C   0  0  0  0  0  0  0  0  0  0  0  0
   -0.4190    1.3760    0.4280 N   0  0  0  0  0  0  0  0  0  0  0  0
    0.5380    2.2340    0.2530 N   0  0  0  0  0  0  0  0  0  0  0  0
    1.7360    1.6310    0.1540 C   0  0  0  0  0  0  0  0  0  0  0  0
    2.9880    2.0470   -0.0070 N   0  0  0  0  0  0  0  0  0  0  0  0
    4.0090    1.1780   -0.0520 C   0  0  0  0  0  0  0  0  0  0  0  0
    5.2710    1.7140   -0.2110 C   0  0  0  0  0  0  0  0  0  0  0  0
    6.3770    0.8980   -0.2570 C   0  0  0  0  0  0  0  0  0  0  0  0
    6.1900   -0.4610   -0.1410 C   0  0  0  0  0  0  0  0  0  0  0  0
    4.9260   -0.9890    0.0180 C   0  0  0  0  0  0  0  0  0  0  0  0
    3.7890   -0.1990    0.0680 C   0  0  0  0  0  0  0  0  0  0  0  0
    2.5190   -0.7140    0.2360 C   0  0  0  0  0  0  0  0  0  0  0  0
    2.3060   -2.1600    0.2950 C   0  0  0  0  0  0  0  0  0  0  0  0
    2.5620   -2.7650    1.4800 F   0  0  0  0  0  0  0  0  0  0  0  0
    1.4640    0.1820    0.2880 C   0  0  0  0  0  0  0  0  0  0  0  0
   -2.6530   -0.6440   -0.4970 C   0  0  0  0  0  0  0  0  0  0  0  0
   -1.9770   -0.8630   -1.5260 O   0  0  0  0  0  0  0  0  0  0  0  0
  1  2  1  0
  2  3  1  0
  3  4  2  0
  3 25  1  0
  4  5  1  0
  5  6  2  0
  5  7  1  0
  7  8  1  0
  8  9  1  6
  8 25  1  0
  9 10  1  0
 10 11  2  0
 10 24  1  0
 11 12  1  0
 12 13  2  0
 13 14  1  0
 13 24  1  0
 14 15  1  0
 15 16  2  0
 15 20  1  0
 16 17  1  0
 17 18  2  0
 18 19  1  0
 19 20  2  0
 20 21  1  0
 21 22  1  0
 21 24  2  0
 22 23  1  0
 25 26  2  0
M  CHG  1   2   1
M  END
