
     RDKit          3D

 26 29  0  0  0  0  0  0  0  0999 V2000
   -0.8160    1.3970   -0.6030 O   0  0  0  0  0  0  0  0  0  0  0  0
   -0.7200    0.1910   -1.0100 C   0  0  0  0  0  0  0  0  0  0  0  0
   -1.9590   -0.4840   -1.4290 C   0  0  0  0  0  0  0  0  0  0  0  0
   -2.7780   -0.9500   -0.3380 N   0  0  0  0  0  0  0  0  0  0  0  0
   -2.8370   -2.1020    0.3270 C   0  0  0  0  0  0  0  0  0  0  0  0
   -2.0880   -3.0970    0.0590 O   0  0  0  0  0  0  0  0  0  0  0  0
   -3.7720   -2.0160    1.2670 N   0  0  0  0  0  0  0  0  0  0  0  0
   -4.3420   -0.8040    1.2320 C   0  0  0  0  0  0  0  0  0  0  0  0
   -5.3490   -0.1880    1.9680 C   0  0  0  0  0  0  0  0  0  0  0  0
   -5.7410    1.0980    1.7040 C   0  0  0  0  0  0  0  0  0  0  0  0
   -5.1130    1.7800    0.6850 C   0  0  0  0  0  0  0  0  0  0  0  0
   -4.1140    1.1750   -0.0470 C   0  0  0  0  0  0  0  0  0  0  0  0
   -3.7120   -0.1270    0.2140 C   0  0  0  0  0  0  0  0  0  0  0  0
    0.5330   -0.4450   -1.0480 N   0  0  0  0  0  0  0  0  0  0  0  0
    0.7720   -1.7950   -1.4980 C   0  0  0  0  0  0  0  0  0  0  0  0
    2.2660   -1.9160   -1.7510 C   0  0  0  0  0  0  0  0  0  0  0  0
    2.7110   -0.4760   -1.7420 C   0  0  0  0  0  0  0  0  0  0  0  0
    1.8390    0.1150   -0.6550 C   0  0  1  0  0  0  0  0  0  0  0  0
    1.8090    1.6060   -0.6320 C   0  0  0  0  0  0  0  0  0  0  0  0
    3.2120    2.1610   -0.6350 C   0  0  0  0  0  0  0  0  0  0  0  0
    3.7480    2.2140    0.6910 N   0  0  0  0  0  0  0  0  0  0  0  0
    4.3820    0.9650    1.0710 C   0  0  0  0  0  0  0  0  0  0  0  0
    3.2980   -0.0150    1.3510 C   0  0  0  0  0  0  0  0  0  0  0  0
    2.2440   -0.3880    0.6690 C   0  0  0  0  0  0  0  0  0  0  0  0
    1.4320   -1.3790    1.2970 N   0  0  0  0  0  0  0  0  0  0  0  0
    0.1890   -1.0900    1.7090 F   0  0  0  0  0  0  0  0  0  0  0  0
  1  2  2  0
  2  3  1  0
  2 14  1  0
  3  4  1  0
  4  5  1  0
  4 13  1  0
  5  6  2  0
  5  7  1  0
  7  8  1  0
  8  9  2  0
  8 13  1  0
  9 10  1  0
 10 11  2  0
 11 12  1  0
 12 13  2  0
 14 15  1  0
 14 18  1  0
 15 16  1  0
 16 17  1  0
 18 17  1  6
 18 19  1  0
 18 24  1  0
 19 20  1  0
 20 21  1  0
 21 22  1  0
 22 23  1  0
 23 24  2  0
 24 25  1  0
 25 26  1  0
M  CHG  1  21   1
M  END
