
     RDKit          3D

 12 12  0  0  0  0  0  0  0  0999 V2000
   -3.7670    0.1200    0.2080 C   0  0  0  0  0  0  0  0  0  0  0  0
   -2.7960    0.9770   -0.3570 O   0  0  0  0  0  0  0  0  0  0  0  0
   -1.4710    0.5970   -0.3250 C   0  0  0  0  0  0  0  0  0  0  0  0
   -0.4850    1.3960   -0.8610 C   0  0  0  0  0  0  0  0  0  0  0  0
    0.8450    0.9910   -0.8170 C   0  0  0  0  0  0  0  0  0  0  0  0
    1.2120   -0.2270   -0.2320 C   0  0  0  0  0  0  0  0  0  0  0  0
    2.8690   -0.7530   -0.1660 S   0  0  1  0  0  0  0  0  0  0  0  0
    3.5610   -0.1620    1.3140 N   0  0  0  0  0  0  0  0  0  0  0  0
    2.9670   -2.2520   -0.1370 O   0  0  0  0  0  0  0  0  0  0  0  0
    3.6630   -0.2070   -1.3420 O   0  0  0  0  0  0  0  0  0  0  0  0
    0.2170   -1.0180    0.3010 C   0  0  0  0  0  0  0  0  0  0  0  0
   -1.1090   -0.5990    0.2490 C   0  0  0  0  0  0  0  0  0  0  0  0
  1  2  1  0
  2  3  1  0
  3  4  2  0
  3 12  1  0
  4  5  1  0
  5  6  2  0
  6  7  1  0
  6 11  1  0
  7  8  1  1
  7  9  2  0
  7 10  2  0
 11 12  2  0
M  END
