
     RDKit          3D

 26 29  0  0  0  0  0  0  0  0999 V2000
   -1.7330   -3.5190   -0.2740 O   0  0  0  0  0  0  0  0  0  0  0  0
   -0.9220   -2.6460    0.1900 C   0  0  0  0  0  0  0  0  0  0  0  0
   -1.3360   -1.3050    0.1680 N   0  0  0  0  0  0  0  0  0  0  0  0
   -2.5640   -0.7820   -0.3350 C   0  0  0  0  0  0  0  0  0  0  0  0
   -3.5770   -1.4960   -0.8940 C   0  0  0  0  0  0  0  0  0  0  0  0
   -4.7560   -0.9500   -1.3710 C   0  0  0  0  0  0  0  0  0  0  0  0
   -5.7270   -1.7460   -1.9200 F   0  0  0  0  0  0  0  0  0  0  0  0
   -4.9140    0.4140   -1.2720 C   0  0  0  0  0  0  0  0  0  0  0  0
   -3.8960    1.1840   -0.7030 C   0  0  0  0  0  0  0  0  0  0  0  0
   -2.7440    0.6110   -0.2420 C   0  0  0  0  0  0  0  0  0  0  0  0
   -1.9100    1.6260    0.2720 O   0  0  0  0  0  0  0  0  0  0  0  0
   -2.7350    2.7550    0.5690 C   0  0  0  0  0  0  0  0  0  0  0  0
   -3.8100    2.6340   -0.4810 C   0  0  0  0  0  0  0  0  0  0  0  0
    0.3460   -3.1510    0.6970 C   0  0  0  0  0  0  0  0  0  0  0  0
    0.4430   -4.4370    1.1810 N   0  0  0  0  0  0  0  0  0  0  0  0
    1.6970   -4.6230    1.5460 N   0  0  0  0  0  0  0  0  0  0  0  0
    2.3950   -3.5350    1.3220 N   0  0  0  0  0  0  0  0  0  0  0  0
    1.5710   -2.5880    0.7840 C   0  0  0  0  0  0  0  0  0  0  0  0
    1.9760   -1.2670    0.3310 C   0  0  0  0  0  0  0  0  0  0  0  0
    3.2170   -0.8560    0.5750 C   0  0  0  0  0  0  0  0  0  0  0  0
    3.7350    0.4380    0.1730 C   0  0  0  0  0  0  0  0  0  0  0  0
    2.9580    1.3410   -0.4990 C   0  0  0  0  0  0  0  0  0  0  0  0
    3.4840    2.5680   -0.8680 C   0  0  0  0  0  0  0  0  0  0  0  0
    4.7810    2.8810   -0.5610 C   0  0  0  0  0  0  0  0  0  0  0  0
    5.5090    1.9790    0.0940 N   0  0  0  0  0  0  0  0  0  0  0  0
    5.0380    0.8030    0.4580 C   0  0  0  0  0  0  0  0  0  0  0  0
  1  2  2  0
  2  3  1  0
  2 14  1  0
  3  4  1  0
  4  5  2  0
  4 10  1  0
  5  6  1  0
  6  7  1  0
  6  8  2  0
  8  9  1  0
  9 10  2  0
  9 13  1  0
 10 11  1  0
 11 12  1  0
 12 13  1  0
 14 15  1  0
 14 18  2  0
 15 16  1  0
 16 17  2  0
 17 18  1  0
 18 19  1  0
 19 20  2  3
 20 21  1  0
 21 22  2  0
 21 26  1  0
 22 23  1  0
 23 24  2  0
 24 25  1  0
 25 26  2  0
M  CHG  1  25   1
M  END
