
     RDKit          3D

 19 20  0  0  0  0  0  0  0  0999 V2000
   -0.2490   -1.8150    2.1970 O   0  0  0  0  0  0  0  0  0  0  0  0
    0.4810   -0.9650    1.3850 C   0  0  0  0  0  0  0  0  0  0  0  0
    1.8360   -0.8520    1.3140 C   0  0  0  0  0  0  0  0  0  0  0  0
    2.4270    0.0790    0.4290 C   0  0  0  0  0  0  0  0  0  0  0  0
    1.6650    0.8720   -0.3670 C   0  0  0  0  0  0  0  0  0  0  0  0
    0.2700    0.7620   -0.2970 C   0  0  0  0  0  0  0  0  0  0  0  0
   -0.3230   -0.1280    0.5540 C   0  0  0  0  0  0  0  0  0  0  0  0
   -1.7740   -0.3460    0.5250 C   0  0  2  0  0  0  0  0  0  0  0  0
   -2.2320   -0.1420   -0.9120 C   0  0  0  0  0  0  0  0  0  0  0  0
   -2.6600    1.4720   -1.4360 Cl  0  0  0  0  0  0  0  0  0  0  0  0
   -2.2580   -1.1560   -1.7290 C   0  0  0  0  0  0  0  0  0  0  0  0
   -2.7820   -0.9630   -3.4240 Cl  0  0  0  0  0  0  0  0  0  0  0  0
   -2.5310    0.7710    1.2500 C   0  0  2  0  0  0  0  0  0  0  0  0
   -2.3490    1.9990    0.7540 F   0  0  0  0  0  0  0  0  0  0  0  0
   -2.3610    0.6410    2.6500 F   0  0  0  0  0  0  0  0  0  0  0  0
   -3.8910    0.4740    1.0530 F   0  0  0  0  0  0  0  0  0  0  0  0
    2.4920    1.7120   -1.1720 O   0  0  0  0  0  0  0  0  0  0  0  0
    3.7830    1.0770   -1.1270 C   0  0  0  0  0  0  0  0  0  0  0  0
    3.7490    0.4400    0.1360 O   0  0  0  0  0  0  0  0  0  0  0  0
  1  2  1  0
  2  3  2  0
  2  7  1  0
  3  4  1  0
  4  5  2  0
  4 19  1  0
  5  6  1  0
  5 17  1  0
  6  7  2  0
  7  8  1  0
  8  9  1  6
  8 13  1  0
  9 10  1  0
  9 11  2  3
 11 12  1  0
 13 14  1  6
 13 15  1  0
 13 16  1  0
 17 18  1  0
 18 19  1  0
M  END
