
     RDKit          3D

 19 20  0  0  0  0  0  0  0  0999 V2000
   -3.6080    1.0630    0.7220 O   0  0  0  0  0  0  0  0  0  0  0  0
   -2.4550    1.5190    0.6200 C   0  0  0  0  0  0  0  0  0  0  0  0
   -2.2800    2.8730    0.6940 O   0  0  0  0  0  0  0  0  0  0  0  0
   -1.3330    0.6120    0.4270 C   0  0  0  0  0  0  0  0  0  0  0  0
   -0.1380    1.1760    0.3350 C   0  0  0  0  0  0  0  0  0  0  0  0
    1.0680    0.4010    0.1510 C   0  0  0  0  0  0  0  0  0  0  0  0
    2.2870    1.0540    0.0500 C   0  0  0  0  0  0  0  0  0  0  0  0
    3.4170    0.2970   -0.1280 C   0  0  0  0  0  0  0  0  0  0  0  0
    4.9500    1.1280   -0.2540 Cl  0  0  0  0  0  0  0  0  0  0  0  0
    3.3060   -1.0730   -0.1990 C   0  0  0  0  0  0  0  0  0  0  0  0
    2.1060   -1.7390   -0.1010 C   0  0  0  0  0  0  0  0  0  0  0  0
    1.9780   -3.4830   -0.1940 Cl  0  0  0  0  0  0  0  0  0  0  0  0
    0.9670   -0.9690    0.0780 C   0  0  0  0  0  0  0  0  0  0  0  0
   -0.2780   -1.5240    0.1890 O   0  0  0  0  0  0  0  0  0  0  0  0
   -1.4960   -0.8440    0.2840 C   0  0  2  0  0  0  0  0  0  0  0  0
   -2.2820   -1.2460   -0.9580 C   0  0  2  0  0  0  0  0  0  0  0  0
   -2.3160   -2.6540   -0.9150 F   0  0  0  0  0  0  0  0  0  0  0  0
   -1.6430   -0.8800   -2.1170 F   0  0  0  0  0  0  0  0  0  0  0  0
   -3.5870   -0.8240   -0.8960 F   0  0  0  0  0  0  0  0  0  0  0  0
  1  2  2  0
  2  3  1  0
  2  4  1  0
  4  5  2  0
  4 15  1  0
  5  6  1  0
  6  7  2  0
  6 13  1  0
  7  8  1  0
  8  9  1  0
  8 10  2  0
 10 11  1  0
 11 12  1  0
 11 13  2  0
 13 14  1  0
 15 14  1  6
 15 16  1  0
 16 17  1  6
 16 18  1  0
 16 19  1  0
M  END
