
     RDKit          3D

 18 19  0  0  0  0  0  0  0  0999 V2000
    3.1960   -2.4740    0.8620 O   0  0  0  0  0  0  0  0  0  0  0  0
    2.6390   -1.3630    0.7210 C   0  0  0  0  0  0  0  0  0  0  0  0
    3.1020   -0.0980    1.3230 C   0  0  0  0  0  0  0  0  0  0  0  0
    1.9760    0.7400    1.1430 O   0  0  0  0  0  0  0  0  0  0  0  0
    1.0800    0.1930    0.2310 C   0  0  0  0  0  0  0  0  0  0  0  0
    1.4440   -1.0560   -0.0420 C   0  0  0  0  0  0  0  0  0  0  0  0
    0.5080   -1.6330   -0.9940 C   0  0  0  0  0  0  0  0  0  0  0  0
    0.6840   -2.6650   -1.6640 O   0  0  0  0  0  0  0  0  0  0  0  0
   -0.7120   -0.7390   -1.0110 C   0  0  1  0  0  0  0  0  0  0  0  0
   -1.6860   -1.3670   -0.0750 C   0  0  0  0  0  0  0  0  0  0  0  0
   -2.9890   -0.6660    0.0870 C   0  0  2  0  0  0  0  0  0  0  0  0
   -2.9000    0.6030    0.5600 F   0  0  0  0  0  0  0  0  0  0  0  0
   -3.7230   -1.3980    1.0290 F   0  0  0  0  0  0  0  0  0  0  0  0
   -3.7210   -0.7490   -1.0880 F   0  0  0  0  0  0  0  0  0  0  0  0
   -0.1190    0.5310   -0.5220 C   0  0  0  0  0  0  0  0  0  0  0  0
   -0.6060    1.7240   -0.7490 C   0  0  0  0  0  0  0  0  0  0  0  0
    0.0470    2.9580   -0.2300 C   0  0  0  0  0  0  0  0  0  0  0  0
   -1.1450    3.7660    0.8270 Cl  0  0  0  0  0  0  0  0  0  0  0  0
  1  2  2  0
  2  3  1  0
  2  6  1  0
  3  4  1  0
  4  5  1  0
  5  6  2  0
  5 15  1  0
  6  7  1  0
  7  8  2  0
  7  9  1  0
  9 10  1  1
  9 15  1  0
 10 11  1  0
 11 12  1  1
 11 13  1  0
 11 14  1  0
 15 16  2  3
 16 17  1  0
 17 18  1  0
M  END
