
     RDKit          3D

 19 19  0  0  0  0  0  0  0  0999 V2000
    2.4270   -2.0020    0.6960 O   0  0  0  0  0  0  0  0  0  0  0  0
    2.4200   -0.8250    0.2620 C   0  0  0  0  0  0  0  0  0  0  0  0
    3.6360   -0.2090    0.0260 O   0  0  0  0  0  0  0  0  0  0  0  0
    4.8660   -0.9060    0.2740 C   0  0  1  0  0  0  0  0  0  0  0  0
    5.9500   -0.1430   -0.0150 F   0  0  0  0  0  0  0  0  0  0  0  0
    4.8680   -1.2690    1.5910 F   0  0  0  0  0  0  0  0  0  0  0  0
    4.7910   -2.3850   -0.7330 Cl  0  0  0  0  0  0  0  0  0  0  0  0
    1.1340   -0.1820    0.0350 C   0  0  0  0  0  0  0  0  0  0  0  0
    1.1930    1.0570   -0.4220 C   0  0  0  0  0  0  0  0  0  0  0  0
    0.2660    2.1300   -0.8110 C   0  0  0  0  0  0  0  0  0  0  0  0
   -1.0540    2.1970   -0.8940 C   0  0  0  0  0  0  0  0  0  0  0  0
   -1.5020    3.4060   -1.3040 F   0  0  0  0  0  0  0  0  0  0  0  0
   -2.1480    1.2570   -0.6440 C   0  0  0  0  0  0  0  0  0  0  0  0
   -2.2860    0.0200   -0.1890 C   0  0  0  0  0  0  0  0  0  0  0  0
   -3.6920   -0.4590   -0.1430 C   0  0  0  0  0  0  0  0  0  0  0  0
   -4.5420    0.5330   -0.5990 O   0  0  0  0  0  0  0  0  0  0  0  0
   -1.3370   -0.9820    0.2820 C   0  0  0  0  0  0  0  0  0  0  0  0
   -2.0950   -2.4420    0.8820 Cl  0  0  0  0  0  0  0  0  0  0  0  0
   -0.0060   -1.0280    0.3550 C   0  0  0  0  0  0  0  0  0  0  0  0
  1  2  2  0
  2  3  1  0
  2  8  1  0
  3  4  1  0
  4  5  1  6
  4  6  1  0
  4  7  1  0
  8  9  2  0
  8 19  1  0
  9 10  1  0
 10 11  2  0
 11 12  1  0
 11 13  1  0
 13 14  2  0
 14 15  1  0
 14 17  1  0
 15 16  1  0
 17 18  1  0
 17 19  2  0
M  END
