
     RDKit          3D

 18 18  0  0  0  0  0  0  0  0999 V2000
   -3.8000   -1.6320   -0.1420 C   0  0  0  0  0  0  0  0  0  0  0  0
   -2.9890   -0.4160    0.1450 C   0  0  1  0  0  0  0  0  0  0  0  0
   -3.2980   -0.0160    1.4520 F   0  0  0  0  0  0  0  0  0  0  0  0
   -1.5290   -0.6470    0.0270 C   0  0  0  0  0  0  0  0  0  0  0  0
   -0.7700    0.4300    0.0760 C   0  0  0  0  0  0  0  0  0  0  0  0
    0.5940    0.2940   -0.0270 O   0  0  0  0  0  0  0  0  0  0  0  0
    1.3330    0.1160    1.1380 C   0  0  0  0  0  0  0  0  0  0  0  0
    0.7380    0.0870    2.2330 O   0  0  0  0  0  0  0  0  0  0  0  0
    2.7670   -0.0270    1.0260 C   0  0  0  0  0  0  0  0  0  0  0  0
    3.3980    0.0020   -0.1150 C   0  0  0  0  0  0  0  0  0  0  0  0
    4.8310   -0.1420   -0.2220 C   0  0  0  0  0  0  0  0  0  0  0  0
    5.5460   -0.3150    0.9160 F   0  0  0  0  0  0  0  0  0  0  0  0
    5.4440   -0.1100   -1.3780 C   0  0  0  0  0  0  0  0  0  0  0  0
    4.5180    0.1140   -2.8600 Cl  0  0  0  0  0  0  0  0  0  0  0  0
    7.1770   -0.2870   -1.4760 Cl  0  0  0  0  0  0  0  0  0  0  0  0
   -1.4640    1.7330    0.2410 C   0  0  0  0  0  0  0  0  0  0  0  0
   -2.6220    1.8660   -0.4630 O   0  0  0  0  0  0  0  0  0  0  0  0
   -3.3120    0.7350   -0.7800 C   0  0  0  0  0  0  0  0  0  0  0  0
  2  1  1  6
  2  3  1  0
  2  4  1  0
  2 18  1  0
  4  5  2  0
  5  6  1  0
  5 16  1  0
  6  7  1  0
  7  8  2  0
  7  9  1  0
  9 10  2  3
 10 11  1  0
 11 12  1  0
 11 13  2  3
 13 14  1  0
 13 15  1  0
 16 17  1  0
 17 18  1  0
M  END
