
     RDKit          3D

 19 19  0  0  0  0  0  0  0  0999 V2000
    3.9850    0.4550   -0.4120 C   0  0  0  0  0  0  0  0  0  0  0  0
    3.0030   -0.6130   -0.5290 C   0  0  0  0  0  0  0  0  0  0  0  0
    1.7160   -0.5900   -0.2850 C   0  0  0  0  0  0  0  0  0  0  0  0
    0.9370   -1.7570   -0.4550 O   0  0  0  0  0  0  0  0  0  0  0  0
   -0.4070   -1.7410   -0.1800 C   0  0  0  0  0  0  0  0  0  0  0  0
   -1.1350   -2.7850   -0.3340 O   0  0  0  0  0  0  0  0  0  0  0  0
   -1.0720   -0.5020    0.3120 C   0  0  0  0  0  0  0  0  0  0  0  0
   -2.2880   -0.2250    0.0500 C   0  0  0  0  0  0  0  0  0  0  0  0
   -3.0820   -1.2130   -0.8080 C   0  0  0  0  0  0  0  0  0  0  0  0
   -3.1110    0.9370    0.4560 C   0  0  1  0  0  0  0  0  0  0  0  0
   -2.5620    1.8480    1.2670 F   0  0  0  0  0  0  0  0  0  0  0  0
   -3.7370    1.7840   -1.0040 Cl  0  0  0  0  0  0  0  0  0  0  0  0
   -4.5940    0.3460    1.3060 Cl  0  0  0  0  0  0  0  0  0  0  0  0
   -0.1230    0.3540    1.1250 C   0  0  1  0  0  0  0  0  0  0  0  0
    0.3960   -0.3190    2.2100 O   0  0  0  0  0  0  0  0  0  0  0  0
    1.0470    0.6060    0.1640 C   0  0  0  0  0  0  0  0  0  0  0  0
    1.2650    1.8160   -0.2720 C   0  0  0  0  0  0  0  0  0  0  0  0
    2.1090    2.2430   -1.2000 F   0  0  0  0  0  0  0  0  0  0  0  0
    0.5150    2.7990    0.3310 F   0  0  0  0  0  0  0  0  0  0  0  0
  1  2  1  0
  2  3  2  3
  3  4  1  0
  3 16  1  0
  4  5  1  0
  5  6  2  0
  5  7  1  0
  7  8  2  3
  7 14  1  0
  8  9  1  0
  8 10  1  0
 10 11  1  1
 10 12  1  0
 10 13  1  0
 14 15  1  1
 14 16  1  0
 16 17  2  3
 17 18  1  0
 17 19  1  0
M  END
