
     RDKit          3D

 21 22  0  0  0  0  0  0  0  0999 V2000
    2.2140    3.9650   -0.0280 C   0  0  0  0  0  0  0  0  0  0  0  0
    1.7220    2.6010    0.3180 C   0  0  0  0  0  0  0  0  0  0  0  0
    1.5200    1.8170   -0.8830 O   0  0  0  0  0  0  0  0  0  0  0  0
    1.2230    0.4430   -0.5330 C   0  0  0  0  0  0  0  0  0  0  0  0
    2.3430   -0.3270   -0.3230 C   0  0  0  0  0  0  0  0  0  0  0  0
    3.5920    0.2470   -0.4330 O   0  0  0  0  0  0  0  0  0  0  0  0
    2.2560   -1.6660    0.0160 C   0  0  0  0  0  0  0  0  0  0  0  0
    3.5260   -2.3860    0.0340 C   0  0  0  0  0  0  0  0  0  0  0  0
    3.9180   -3.0290    1.2160 O   0  0  0  0  0  0  0  0  0  0  0  0
    1.0200   -2.2480    0.1610 C   0  0  0  0  0  0  0  0  0  0  0  0
    0.9050   -3.5250    0.4770 O   0  0  0  0  0  0  0  0  0  0  0  0
   -0.1140   -1.4160   -0.0590 C   0  0  0  0  0  0  0  0  0  0  0  0
   -0.0120   -0.0880   -0.4130 C   0  0  0  0  0  0  0  0  0  0  0  0
   -1.1930    0.7370   -0.7390 C   0  0  0  0  0  0  0  0  0  0  0  0
   -2.4840    0.1030   -0.4330 C   0  0  0  0  0  0  0  0  0  0  0  0
   -3.5790    0.8020   -0.2150 C   0  0  0  0  0  0  0  0  0  0  0  0
   -4.9480    0.3140    0.0720 C   0  0  0  0  0  0  0  0  0  0  0  0
   -5.5580    0.5010    1.2170 O   0  0  0  0  0  0  0  0  0  0  0  0
   -2.5480   -1.3200   -0.0570 C   0  0  0  0  0  0  0  0  0  0  0  0
   -3.6650   -1.8900    0.0940 N   0  0  0  0  0  0  0  0  0  0  0  0
   -1.3450   -2.0480    0.1220 O   0  0  0  0  0  0  0  0  0  0  0  0
  1  2  1  0
  2  3  1  0
  3  4  1  0
  4  5  2  0
  4 13  1  0
  5  6  1  0
  5  7  1  0
  7  8  1  0
  7 10  2  0
  8  9  1  0
 10 11  1  0
 10 12  1  0
 12 13  2  0
 12 21  1  0
 13 14  1  0
 14 15  1  0
 15 16  2  3
 15 19  1  0
 16 17  1  0
 17 18  1  0
 19 20  2  0
 19 21  1  0
M  END
