
     RDKit          3D

 13 12  0  0  0  0  0  0  0  0999 V2000
   -2.6990   -0.3370   -1.4010 N   0  0  0  0  0  0  0  0  0  0  0  0
   -2.8730    0.0420   -0.0590 C   0  0  0  0  0  0  0  0  0  0  0  0
   -4.1520    0.4770    0.3880 N   0  0  0  0  0  0  0  0  0  0  0  0
   -4.4880    0.5940    1.6770 O   0  0  0  0  0  0  0  0  0  0  0  0
   -1.9030    0.0050    0.7780 N   0  0  0  0  0  0  0  0  0  0  0  0
   -0.5960   -0.4380    0.3290 C   0  0  0  0  0  0  0  0  0  0  0  0
    0.4960    0.0910    1.2430 C   0  0  0  0  0  0  0  0  0  0  0  0
    1.8540   -0.3580    0.7950 C   0  0  0  0  0  0  0  0  0  0  0  0
    2.2040    0.0970   -0.5920 C   0  0  2  0  0  0  0  0  0  0  0  0
    3.5450   -0.4130   -0.8870 N   0  0  0  0  0  0  0  0  0  0  0  0
    2.2230    1.5520   -0.7420 C   0  0  0  0  0  0  0  0  0  0  0  0
    3.2750    2.1590   -1.0620 O   0  0  0  0  0  0  0  0  0  0  0  0
    1.0970    2.3450   -0.5430 O   0  0  0  0  0  0  0  0  0  0  0  0
  1  2  1  0
  2  3  1  0
  2  5  2  3
  3  4  1  0
  5  6  1  0
  6  7  1  0
  7  8  1  0
  8  9  1  0
  9 10  1  1
  9 11  1  0
 11 12  2  0
 11 13  1  0
M  CHG  2   5   1  10   1
M  END
