
     RDKit          3D

 13 12  0  0  0  0  0  0  0  0999 V2000
    4.4270   -0.5220   -0.4180 C   0  0  0  0  0  0  0  0  0  0  0  0
    3.1870    0.1580   -0.3820 O   0  0  0  0  0  0  0  0  0  0  0  0
    1.9670   -0.5620   -0.2510 C   0  0  0  0  0  0  0  0  0  0  0  0
    2.1100   -1.7730   -0.1770 O   0  0  0  0  0  0  0  0  0  0  0  0
    0.7090    0.1800   -0.2180 C   0  0  0  0  0  0  0  0  0  0  0  0
    0.8400    1.6310   -0.3190 N   0  0  0  0  0  0  0  0  0  0  0  0
   -0.4840   -0.3100   -0.1210 C   0  0  0  0  0  0  0  0  0  0  0  0
   -0.6390   -1.8120   -0.0320 C   0  0  0  0  0  0  0  0  0  0  0  0
   -1.2630   -2.2010    1.2120 N   0  0  0  0  0  0  0  0  0  0  0  0
   -1.7260    0.4540   -0.0880 C   0  0  0  0  0  0  0  0  0  0  0  0
   -2.8160   -0.2650    0.0150 O   0  0  0  0  0  0  0  0  0  0  0  0
   -1.9570    1.8240   -0.1470 N   0  0  0  0  0  0  0  0  0  0  0  0
   -3.2760    2.3670   -0.0980 N   0  0  0  0  0  0  0  0  0  0  0  0
  1  2  1  0
  2  3  1  0
  3  4  2  0
  3  5  1  0
  5  6  1  0
  5  7  2  3
  7  8  1  0
  7 10  1  0
  8  9  1  0
 10 11  2  0
 10 12  1  0
 12 13  1  0
M  CHG  2   9   1  13   1
M  END
