
     RDKit          3D

 12 12  0  0  0  0  0  0  0  0999 V2000
    1.4490   -0.8510   -1.8760 N   0  0  0  0  0  0  0  0  0  0  0  0
    0.6720   -0.3610   -0.7890 C   0  0  0  0  0  0  0  0  0  0  0  0
    1.1980    0.7330   -0.0610 N   0  0  0  0  0  0  0  0  0  0  0  0
    2.0090    0.5410    1.0170 O   0  0  0  0  0  0  0  0  0  0  0  0
    3.1890    1.1670    0.8240 N   0  0  0  0  0  0  0  0  0  0  0  0
   -0.4600   -0.9750   -0.5610 C   0  0  0  0  0  0  0  0  0  0  0  0
   -1.0860   -2.1260   -1.2640 C   0  0  0  0  0  0  0  0  0  0  0  0
   -2.0210   -2.6540   -0.3240 O   0  0  0  0  0  0  0  0  0  0  0  0
   -2.2990   -1.6560    0.5930 C   0  0  0  0  0  0  0  0  0  0  0  0
   -1.4090   -0.6490    0.4920 C   0  0  0  0  0  0  0  0  0  0  0  0
   -1.4700    0.5570    1.3550 C   0  0  0  0  0  0  0  0  0  0  0  0
   -1.6390    1.7560    0.5490 N   0  0  0  0  0  0  0  0  0  0  0  0
  1  2  1  0
  2  3  1  0
  2  6  2  3
  3  4  1  0
  4  5  1  0
  6  7  1  0
  6 10  1  0
  7  8  1  0
  8  9  1  0
  9 10  2  0
 10 11  1  0
 11 12  1  0
M  CHG  2   5   1  12   1
M  END
