
     RDKit          3D

 13 13  0  0  0  0  0  0  0  0999 V2000
   -1.7520    2.0850   -0.5720 N   0  0  0  0  0  0  0  0  0  0  0  0
   -1.7910    0.9290    0.2580 C   0  0  0  0  0  0  0  0  0  0  0  0
   -0.9420   -0.2160   -0.1120 C   0  0  2  0  0  0  0  0  0  0  0  0
   -1.2180   -1.2420    0.8410 O   0  0  0  0  0  0  0  0  0  0  0  0
   -1.6740   -2.3470    0.2370 N   0  0  0  0  0  0  0  0  0  0  0  0
    0.5200   -0.0290   -0.0220 C   0  0  0  0  0  0  0  0  0  0  0  0
    1.3140   -1.1740   -0.1330 C   0  0  0  0  0  0  0  0  0  0  0  0
    2.6520   -1.1160   -0.0520 N   0  0  0  0  0  0  0  0  0  0  0  0
    3.2910    0.0480    0.1390 C   0  0  0  0  0  0  0  0  0  0  0  0
    4.5580    0.1170    0.2170 O   0  0  0  0  0  0  0  0  0  0  0  0
    2.5150    1.1770    0.2490 C   0  0  0  0  0  0  0  0  0  0  0  0
    3.0860    2.2840    0.4290 O   0  0  0  0  0  0  0  0  0  0  0  0
    1.1530    1.1260    0.1680 N   0  0  0  0  0  0  0  0  0  0  0  0
  1  2  1  0
  3  2  1  1
  3  4  1  0
  3  6  1  0
  4  5  1  0
  6  7  2  0
  6 13  1  0
  7  8  1  0
  8  9  1  0
  9 10  2  0
  9 11  1  0
 11 12  2  0
 11 13  1  0
M  CHG  2   1   1   5   1
M  END
