
     RDKit          3D

 17 17  0  0  0  0  0  0  0  0999 V2000
    5.7360   -0.7010    0.1430 C   0  0  0  0  0  0  0  0  0  0  0  0
    4.8460    0.2660   -0.3210 O   0  0  0  0  0  0  0  0  0  0  0  0
    3.8670   -0.3710   -1.0110 N   0  0  0  0  0  0  0  0  0  0  0  0
    2.5220    0.0190   -0.8110 C   0  0  0  0  0  0  0  0  0  0  0  0
    2.2980    0.9520    0.0180 O   0  0  0  0  0  0  0  0  0  0  0  0
    1.4060   -0.6280   -1.5350 C   0  0  0  0  0  0  0  0  0  0  0  0
    0.1800   -0.0420   -1.0990 O   0  0  0  0  0  0  0  0  0  0  0  0
   -0.1780   -0.1530    0.2470 C   0  0  0  0  0  0  0  0  0  0  0  0
    0.6050   -0.7780    1.0130 O   0  0  0  0  0  0  0  0  0  0  0  0
   -1.4040    0.4190    0.7740 C   0  0  0  0  0  0  0  0  0  0  0  0
   -1.8010    0.3350    2.0460 C   0  0  0  0  0  0  0  0  0  0  0  0
   -1.1440   -0.2960    3.0930 O   0  0  0  0  0  0  0  0  0  0  0  0
   -3.0990    1.0470    2.1670 C   0  0  0  0  0  0  0  0  0  0  0  0
   -3.6700    0.7310    0.7750 C   0  0  0  0  0  0  0  0  0  0  0  0
   -2.4240    1.1980   -0.0020 C   0  0  2  0  0  0  0  0  0  0  0  0
   -2.4780    0.8080   -1.7340 S   0  0  0  0  0  0  0  0  0  0  0  0
   -3.0400   -0.8650   -2.0500 C   0  0  0  0  0  0  0  0  0  0  0  0
  1  2  1  0
  2  3  1  0
  3  4  1  0
  4  5  2  0
  4  6  1  0
  6  7  1  0
  7  8  1  0
  8  9  2  0
  8 10  1  0
 10 11  2  0
 10 15  1  0
 11 12  1  0
 11 13  1  0
 13 14  1  0
 14 15  1  0
 15 16  1  6
 16 17  1  0
M  END
