
     RDKit          3D

 13 12  0  0  0  0  0  0  0  0999 V2000
    1.3660   -0.2650    2.3270 N   0  0  0  0  0  0  0  0  0  0  0  0
    0.6110   -1.4350    2.1620 C   0  0  0  0  0  0  0  0  0  0  0  0
    0.0460   -1.9150    3.1920 O   0  0  0  0  0  0  0  0  0  0  0  0
    0.4510   -2.1030    0.8800 C   0  0  0  0  0  0  0  0  0  0  0  0
    1.0410   -1.4660   -0.2030 O   0  0  0  0  0  0  0  0  0  0  0  0
    0.7340   -0.1500   -0.5440 C   0  0  0  0  0  0  0  0  0  0  0  0
    1.7810    0.8620   -0.4440 C   0  0  0  0  0  0  0  0  0  0  0  0
    1.6850    2.2150   -0.7250 N   0  0  0  0  0  0  0  0  0  0  0  0
    2.9340    0.4220   -0.0440 O   0  0  0  0  0  0  0  0  0  0  0  0
   -0.4800    0.1840   -0.9690 C   0  0  0  0  0  0  0  0  0  0  0  0
   -0.7890    1.4660   -1.2810 N   0  0  0  0  0  0  0  0  0  0  0  0
   -1.5760   -0.8120   -1.2300 C   0  0  0  0  0  0  0  0  0  0  0  0
   -2.6750   -0.4440   -0.3620 N   0  0  0  0  0  0  0  0  0  0  0  0
  1  2  1  0
  2  3  2  0
  2  4  1  0
  4  5  1  0
  5  6  1  0
  6  7  1  0
  6 10  2  3
  7  8  1  0
  7  9  2  0
 10 11  1  0
 10 12  1  0
 12 13  1  0
M  CHG  2   8   1  13   1
M  END
