
     RDKit          3D

 12 11  0  0  0  0  0  0  0  0999 V2000
   -0.5790    2.9710    0.2470 C   0  0  0  0  0  0  0  0  0  0  0  0
    0.0280    1.7680    0.1080 O   0  0  0  0  0  0  0  0  0  0  0  0
   -0.3010    0.4870   -0.0480 C   0  0  0  0  0  0  0  0  0  0  0  0
   -1.6330   -0.1020   -0.1810 C   0  0  0  0  0  0  0  0  0  0  0  0
   -1.7840   -1.5200   -0.3430 N   0  0  0  0  0  0  0  0  0  0  0  0
   -2.7340    0.6060   -0.1610 C   0  0  0  0  0  0  0  0  0  0  0  0
   -3.9620   -0.0030   -0.2900 O   0  0  0  0  0  0  0  0  0  0  0  0
    0.7040   -0.4180   -0.0950 C   0  0  0  0  0  0  0  0  0  0  0  0
    2.0730    0.1270    0.0350 C   0  0  0  0  0  0  0  0  0  0  0  0
    2.7670   -0.4210    1.1860 N   0  0  0  0  0  0  0  0  0  0  0  0
    0.4590   -1.8130   -0.2590 N   0  0  0  0  0  0  0  0  0  0  0  0
    1.1740   -2.4670   -1.0800 N   0  0  0  0  0  0  0  0  0  0  0  0
  1  2  1  0
  2  3  1  0
  3  4  1  0
  3  8  2  3
  4  5  1  0
  4  6  2  3
  6  7  1  0
  8  9  1  0
  8 11  1  0
  9 10  1  0
 11 12  2  0
M  CHG  2  10   1  12   1
M  END
