
     RDKit          3D

 30 33  0  0  0  0  0  0  0  0999 V2000
   -0.3200    2.4040    0.3500 C   0  0  0  0  0  0  0  0  0  0  0  0
   -1.6180    2.2800    0.2510 C   0  0  0  0  0  0  0  0  0  0  0  0
   -2.3290    3.6010    0.1110 C   0  0  0  0  0  0  0  0  0  0  0  0
   -2.3100    1.0320    0.1610 C   0  0  0  0  0  0  0  0  0  0  0  0
   -3.6610    0.9690    0.1510 C   0  0  0  0  0  0  0  0  0  0  0  0
   -4.6480    2.0140    0.2210 C   0  0  0  0  0  0  0  0  0  0  0  0
   -1.7130   -0.3010    0.0360 C   0  0  0  0  0  0  0  0  0  0  0  0
   -2.6060   -1.2800    0.0720 N   0  0  0  0  0  0  0  0  0  0  0  0
   -2.4900   -2.6870   -0.0100 C   0  0  0  0  0  0  0  0  0  0  0  0
   -3.6050   -3.4790   -0.1430 C   0  0  0  0  0  0  0  0  0  0  0  0
   -3.1550   -4.7900   -0.1910 C   0  0  0  0  0  0  0  0  0  0  0  0
   -4.0210   -5.9780   -0.3220 C   0  0  0  0  0  0  0  0  0  0  0  0
   -1.7800   -4.7080   -0.0820 C   0  0  0  0  0  0  0  0  0  0  0  0
   -1.3800   -3.4370    0.0270 N   0  0  0  0  0  0  0  0  0  0  0  0
   -0.0240   -2.9650    0.1570 C   0  0  0  0  0  0  0  0  0  0  0  0
    0.8060   -3.8400    0.4220 O   0  0  0  0  0  0  0  0  0  0  0  0
    0.5100   -1.5960    0.0210 C   0  0  0  0  0  0  0  0  0  0  0  0
    1.7820   -1.4670    0.0590 C   0  0  0  0  0  0  0  0  0  0  0  0
    2.6550   -0.3270   -0.0260 C   0  0  0  0  0  0  0  0  0  0  0  0
    3.4730   -0.0600   -1.1000 C   0  0  0  0  0  0  0  0  0  0  0  0
    4.3640    1.0350   -1.1150 C   0  0  0  0  0  0  0  0  0  0  0  0
    5.2170    1.3160   -2.2050 C   0  0  0  0  0  0  0  0  0  0  0  0
    6.0990    2.7280   -1.7330 S   0  0  0  0  0  0  0  0  0  0  0  0
    5.3080    2.9110   -0.0910 C   0  0  0  0  0  0  0  0  0  0  0  0
    5.6200    3.9840    0.8850 C   0  0  0  0  0  0  0  0  0  0  0  0
    4.4340    1.8480   -0.0760 C   0  0  0  0  0  0  0  0  0  0  0  0
    3.6150    1.5890    1.0110 N   0  0  0  0  0  0  0  0  0  0  0  0
    2.7670    0.5490    1.0310 C   0  0  0  0  0  0  0  0  0  0  0  0
    2.0260    0.3270    2.0480 O   0  0  0  0  0  0  0  0  0  0  0  0
   -0.3440   -0.4900   -0.2430 N   0  0  0  0  0  0  0  0  0  0  0  0
  1  2  2  0
  2  3  1  0
  2  4  1  0
  4  5  2  3
  4  7  1  0
  5  6  1  0
  7  8  2  0
  7 30  1  0
  8  9  1  0
  9 10  2  0
  9 14  1  0
 10 11  1  0
 11 12  1  0
 11 13  2  0
 13 14  1  0
 14 15  1  0
 15 16  2  0
 15 17  1  0
 17 18  2  3
 17 30  1  0
 18 19  1  0
 19 20  2  0
 19 28  1  0
 20 21  1  0
 21 22  2  0
 21 26  1  0
 22 23  1  0
 23 24  1  0
 24 25  1  0
 24 26  2  0
 26 27  1  0
 27 28  1  0
 28 29  2  0
M  END
