
     RDKit          3D

 30 34  0  0  0  0  0  0  0  0999 V2000
    5.9810    2.1220    0.9000 C   0  0  0  0  0  0  0  0  0  0  0  0
    6.2960    0.6540    0.8260 C   0  0  1  0  0  0  0  0  0  0  0  0
    6.8480    0.2340    2.1650 C   0  0  0  0  0  0  0  0  0  0  0  0
    5.1150   -0.1840    0.4100 C   0  0  2  0  0  0  0  0  0  0  0  0
    4.6020    0.1990   -0.9380 C   0  0  0  0  0  0  0  0  0  0  0  0
    3.2950    0.9550   -0.8760 C   0  0  0  0  0  0  0  0  0  0  0  0
    2.2760   -0.0500   -0.3150 C   0  0  0  0  0  0  0  0  0  0  0  0
    1.0970   -0.4680   -0.7870 C   0  0  0  0  0  0  0  0  0  0  0  0
    0.5160    0.0290   -2.1140 C   0  0  0  0  0  0  0  0  0  0  0  0
   -0.7630   -0.5530   -2.3770 N   0  0  0  0  0  0  0  0  0  0  0  0
   -1.9210   -0.3040   -1.5970 C   0  0  0  0  0  0  0  0  0  0  0  0
   -1.9740    0.5930   -0.5520 C   0  0  0  0  0  0  0  0  0  0  0  0
   -3.1320    0.7940    0.1740 C   0  0  0  0  0  0  0  0  0  0  0  0
   -4.2800    0.0930   -0.1330 C   0  0  0  0  0  0  0  0  0  0  0  0
   -5.4230    0.2620    0.5490 N   0  0  0  0  0  0  0  0  0  0  0  0
   -6.5460   -0.4310    0.2410 C   0  0  0  0  0  0  0  0  0  0  0  0
   -7.8150   -0.4360    0.7780 C   0  0  0  0  0  0  0  0  0  0  0  0
   -8.2570    0.3860    1.9050 C   0  0  0  0  0  0  0  0  0  0  0  0
   -9.4280    0.3360    2.3480 O   0  0  0  0  0  0  0  0  0  0  0  0
   -8.5730   -1.3400    0.0710 C   0  0  0  0  0  0  0  0  0  0  0  0
   -7.7720   -1.8660   -0.8720 N   0  0  0  0  0  0  0  0  0  0  0  0
   -6.5600   -1.3230   -0.7710 N   0  0  0  0  0  0  0  0  0  0  0  0
   -5.4050   -1.4970   -1.4650 C   0  0  0  0  0  0  0  0  0  0  0  0
   -5.3760   -2.3200   -2.4150 O   0  0  0  0  0  0  0  0  0  0  0  0
   -4.2540   -0.8060   -1.1700 C   0  0  0  0  0  0  0  0  0  0  0  0
   -3.0810   -0.9890   -1.8810 C   0  0  0  0  0  0  0  0  0  0  0  0
    0.3740   -1.3910   -0.0710 C   0  0  0  0  0  0  0  0  0  0  0  0
    1.4460   -1.6800    1.3690 S   0  0  0  0  0  0  0  0  0  0  0  0
    2.7170   -0.5750    0.8910 C   0  0  0  0  0  0  0  0  0  0  0  0
    4.0140   -0.1550    1.4700 C   0  0  0  0  0  0  0  0  0  0  0  0
  2  1  1  1
  2  3  1  0
  2  4  1  0
  4  5  1  6
  4 30  1  0
  5  6  1  0
  6  7  1  0
  7  8  1  0
  7 29  2  0
  8  9  1  0
  8 27  2  0
  9 10  1  0
 10 11  1  0
 11 12  2  0
 11 26  1  0
 12 13  1  0
 13 14  2  0
 14 15  1  0
 14 25  1  0
 15 16  1  0
 16 17  2  0
 16 22  1  0
 17 18  1  0
 17 20  1  0
 18 19  2  0
 20 21  2  0
 21 22  1  0
 22 23  1  0
 23 24  2  0
 23 25  1  0
 25 26  2  0
 27 28  1  0
 28 29  1  0
 29 30  1  0
M  END
