
     RDKit          3D

 30 34  0  0  0  0  0  0  0  0999 V2000
    3.9810    2.3900    3.1520 C   0  0  0  0  0  0  0  0  0  0  0  0
    3.9210    1.3100    2.1140 C   0  0  0  0  0  0  0  0  0  0  0  0
    5.0640    0.6350    1.9000 N   0  0  0  0  0  0  0  0  0  0  0  0
    5.0870   -0.3480    0.9830 C   0  0  0  0  0  0  0  0  0  0  0  0
    6.2620   -1.0660    0.7420 C   0  0  0  0  0  0  0  0  0  0  0  0
    6.2740   -2.0680   -0.1970 C   0  0  0  0  0  0  0  0  0  0  0  0
    5.1190   -2.3440   -0.8850 C   0  0  0  0  0  0  0  0  0  0  0  0
    5.1420   -3.3550   -1.8280 O   0  0  0  0  0  0  0  0  0  0  0  0
    3.9620   -1.6480   -0.6570 C   0  0  0  0  0  0  0  0  0  0  0  0
    3.9280   -0.6300    0.2890 C   0  0  0  0  0  0  0  0  0  0  0  0
    2.7770    0.0620    0.5150 N   0  0  0  0  0  0  0  0  0  0  0  0
    2.7540    1.0400    1.4280 C   0  0  0  0  0  0  0  0  0  0  0  0
    1.3310    2.0170    1.8220 S   0  0  0  0  0  0  0  0  0  0  0  0
   -0.0970    1.5820    0.8840 C   0  0  0  0  0  0  0  0  0  0  0  0
   -0.4250    2.1450   -0.3250 C   0  0  0  0  0  0  0  0  0  0  0  0
   -1.5730    1.7590   -1.0250 C   0  0  0  0  0  0  0  0  0  0  0  0
   -1.8680    2.3560   -2.2300 C   0  0  0  0  0  0  0  0  0  0  0  0
   -2.9830    2.0070   -2.9330 C   0  0  0  0  0  0  0  0  0  0  0  0
   -3.8630    1.0460   -2.4730 C   0  0  0  0  0  0  0  0  0  0  0  0
   -3.5720    0.4310   -1.2470 C   0  0  0  0  0  0  0  0  0  0  0  0
   -4.4900   -0.5630   -0.7280 C   0  0  0  0  0  0  0  0  0  0  0  0
   -5.7700   -0.6480   -1.2780 C   0  0  0  0  0  0  0  0  0  0  0  0
   -6.7250   -1.5440   -0.8380 C   0  0  0  0  0  0  0  0  0  0  0  0
   -6.4310   -2.4030    0.1860 C   0  0  0  0  0  0  0  0  0  0  0  0
   -5.1580   -2.3180    0.7330 C   0  0  0  0  0  0  0  0  0  0  0  0
   -4.2740   -1.4290    0.2650 N   0  0  0  0  0  0  0  0  0  0  0  0
   -2.4300    0.7900   -0.5280 C   0  0  0  0  0  0  0  0  0  0  0  0
   -2.0930    0.2540    0.6520 N   0  0  0  0  0  0  0  0  0  0  0  0
   -0.9680    0.6270    1.3460 C   0  0  0  0  0  0  0  0  0  0  0  0
   -0.7390    0.0620    2.4490 O   0  0  0  0  0  0  0  0  0  0  0  0
  1  2  1  0
  2  3  2  0
  2 12  1  0
  3  4  1  0
  4  5  2  0
  4 10  1  0
  5  6  1  0
  6  7  2  0
  7  8  1  0
  7  9  1  0
  9 10  2  0
 10 11  1  0
 11 12  2  0
 12 13  1  0
 13 14  1  0
 14 15  2  0
 14 29  1  0
 15 16  1  0
 16 17  2  0
 16 27  1  0
 17 18  1  0
 18 19  2  0
 19 20  1  0
 20 21  1  0
 20 27  2  0
 21 22  2  0
 21 26  1  0
 22 23  1  0
 23 24  2  0
 24 25  1  0
 25 26  2  0
 27 28  1  0
 28 29  1  0
 29 30  2  0
M  END
