
     RDKit          3D

 29 31  0  0  0  0  0  0  0  0999 V2000
    6.8840    1.9290    3.6530 C   0  0  0  0  0  0  0  0  0  0  0  0
    5.6900    1.7670    2.9640 O   0  0  0  0  0  0  0  0  0  0  0  0
    5.4250    1.0830    1.8090 C   0  0  0  0  0  0  0  0  0  0  0  0
    6.3670    0.3990    1.1100 C   0  0  0  0  0  0  0  0  0  0  0  0
    6.0340   -0.2640   -0.0490 C   0  0  0  0  0  0  0  0  0  0  0  0
    4.7140   -0.2440   -0.5160 C   0  0  0  0  0  0  0  0  0  0  0  0
    3.7380    0.4300    0.1620 C   0  0  0  0  0  0  0  0  0  0  0  0
    2.3850    0.5130   -0.1490 N   0  0  0  0  0  0  0  0  0  0  0  0
    1.3140   -0.1710   -0.6430 C   0  0  0  0  0  0  0  0  0  0  0  0
    0.0040    0.9890   -0.8150 S   0  0  0  0  0  0  0  0  0  0  0  0
    0.9650   -1.4160   -1.1360 N   0  0  0  0  0  0  0  0  0  0  0  0
    1.8680   -2.5020   -1.3360 C   0  0  0  0  0  0  0  0  0  0  0  0
    1.8790   -3.0830   -2.7570 C   0  0  0  0  0  0  0  0  0  0  0  0
    0.7140   -3.6420   -3.1870 O   0  0  0  0  0  0  0  0  0  0  0  0
   -0.4470   -1.7330   -1.4060 C   0  0  0  0  0  0  0  0  0  0  0  0
   -1.5210   -0.8050   -1.2070 C   0  0  0  0  0  0  0  0  0  0  0  0
   -2.1330   -0.5810    0.0320 C   0  0  0  0  0  0  0  0  0  0  0  0
   -3.3150    0.1440    0.0820 C   0  0  0  0  0  0  0  0  0  0  0  0
   -4.0130    0.3070    1.2600 C   0  0  0  0  0  0  0  0  0  0  0  0
   -5.2580    0.9460    1.3170 C   0  0  0  0  0  0  0  0  0  0  0  0
   -5.9360    0.9850    2.6270 C   0  0  0  0  0  0  0  0  0  0  0  0
   -5.8270    1.4480    0.1810 C   0  0  0  0  0  0  0  0  0  0  0  0
   -7.1100    2.1510    0.0890 C   0  0  0  0  0  0  0  0  0  0  0  0
   -5.1160    1.2880   -0.9950 C   0  0  0  0  0  0  0  0  0  0  0  0
   -3.9070    0.6550   -1.0670 C   0  0  0  0  0  0  0  0  0  0  0  0
   -3.3180    0.4450   -2.2790 N   0  0  0  0  0  0  0  0  0  0  0  0
   -2.2010   -0.2440   -2.3000 C   0  0  0  0  0  0  0  0  0  0  0  0
   -1.5980   -0.4730   -3.4300 O   0  0  0  0  0  0  0  0  0  0  0  0
    4.1290    1.1030    1.3510 C   0  0  0  0  0  0  0  0  0  0  0  0
  1  2  1  0
  2  3  1  0
  3  4  2  0
  3 29  1  0
  4  5  1  0
  5  6  2  0
  6  7  1  0
  7  8  1  0
  7 29  2  0
  8  9  1  0
  9 10  2  0
  9 11  1  0
 11 12  1  0
 11 15  1  0
 12 13  1  0
 13 14  1  0
 15 16  1  0
 16 17  2  0
 16 27  1  0
 17 18  1  0
 18 19  2  0
 18 25  1  0
 19 20  1  0
 20 21  1  0
 20 22  2  0
 22 23  1  0
 22 24  1  0
 24 25  2  0
 25 26  1  0
 26 27  1  0
 27 28  2  0
M  END
