
     RDKit          3D

 30 32  0  0  0  0  0  0  0  0999 V2000
   -4.5220   -0.1640    2.3080 C   0  0  0  0  0  0  0  0  0  0  0  0
   -5.7610   -0.6600    1.8130 N   0  0  0  0  0  0  0  0  0  0  0  0
   -5.7480   -1.3330    0.5660 C   0  0  0  0  0  0  0  0  0  0  0  0
   -5.5050   -0.5260   -0.6600 C   0  0  0  0  0  0  0  0  0  0  0  0
   -4.2660    0.2020   -0.7160 N   0  0  0  0  0  0  0  0  0  0  0  0
   -4.1950    1.4920   -0.3250 C   0  0  0  0  0  0  0  0  0  0  0  0
   -5.2530    2.0790    0.0930 O   0  0  0  0  0  0  0  0  0  0  0  0
   -3.0190    2.1270   -0.3850 N   0  0  0  0  0  0  0  0  0  0  0  0
   -1.8830    1.5680   -0.8130 C   0  0  0  0  0  0  0  0  0  0  0  0
   -0.7870    2.1710   -0.8660 O   0  0  0  0  0  0  0  0  0  0  0  0
   -1.9290    0.2440   -1.2210 C   0  0  0  0  0  0  0  0  0  0  0  0
   -0.7630   -0.3680   -1.6670 C   0  0  0  0  0  0  0  0  0  0  0  0
   -0.7810   -1.6720   -2.0680 C   0  0  0  0  0  0  0  0  0  0  0  0
    0.3080   -2.3170   -2.5080 O   0  0  0  0  0  0  0  0  0  0  0  0
    1.6170   -1.9970   -2.7000 C   0  0  0  0  0  0  0  0  0  0  0  0
    2.3900   -1.5540   -1.5000 C   0  0  0  0  0  0  0  0  0  0  0  0
    2.9560   -0.3830   -1.4270 C   0  0  0  0  0  0  0  0  0  0  0  0
    3.7290    0.2290   -0.3890 C   0  0  0  0  0  0  0  0  0  0  0  0
    4.2380    1.5290   -0.5600 C   0  0  0  0  0  0  0  0  0  0  0  0
    4.9850    2.1740    0.3620 C   0  0  0  0  0  0  0  0  0  0  0  0
    5.4910    3.4510    0.2070 O   0  0  0  0  0  0  0  0  0  0  0  0
    5.2970    4.2500   -0.9280 C   0  0  0  0  0  0  0  0  0  0  0  0
    5.2700    1.5240    1.5450 C   0  0  0  0  0  0  0  0  0  0  0  0
    4.7940    0.2550    1.7530 C   0  0  0  0  0  0  0  0  0  0  0  0
    4.0270   -0.3920    0.7940 C   0  0  0  0  0  0  0  0  0  0  0  0
    3.5740   -1.6970    1.0880 O   0  0  0  0  0  0  0  0  0  0  0  0
    3.9240   -2.2760    2.3190 C   0  0  0  0  0  0  0  0  0  0  0  0
   -1.9920   -2.3380   -2.0100 C   0  0  0  0  0  0  0  0  0  0  0  0
   -3.1460   -1.7330   -1.5690 C   0  0  0  0  0  0  0  0  0  0  0  0
   -3.1360   -0.4190   -1.1630 C   0  0  0  0  0  0  0  0  0  0  0  0
  1  2  1  0
  2  3  1  0
  3  4  1  0
  4  5  1  0
  5  6  1  0
  5 30  1  0
  6  7  2  0
  6  8  1  0
  8  9  1  0
  9 10  2  0
  9 11  1  0
 11 12  2  0
 11 30  1  0
 12 13  1  0
 13 14  1  0
 13 28  2  0
 14 15  1  0
 15 16  1  0
 16 17  2  3
 17 18  1  0
 18 19  2  0
 18 25  1  0
 19 20  1  0
 20 21  1  0
 20 23  2  0
 21 22  1  0
 23 24  1  0
 24 25  2  0
 25 26  1  0
 26 27  1  0
 28 29  1  0
 29 30  2  0
M  END
