
     RDKit          3D

 45 48  0  0  0  0  0  0  0  0999 V2000
   -9.5140    0.6570    3.9210 C   0  0  0  0  0  0  0  0  0  0  0  0
   -8.8110    1.1400    2.7090 C   0  0  0  0  0  0  0  0  0  0  0  0
   -8.6470    0.3130    1.6230 C   0  0  0  0  0  0  0  0  0  0  0  0
   -7.9970    0.7690    0.5090 C   0  0  0  0  0  0  0  0  0  0  0  0
   -7.4740    2.0480    0.3910 C   0  0  0  0  0  0  0  0  0  0  0  0
   -6.8360    2.5710   -0.6570 O   0  0  0  0  0  0  0  0  0  0  0  0
   -6.3960    2.2490   -1.8820 C   0  0  0  0  0  0  0  0  0  0  0  0
   -5.2690    1.2830   -2.0820 C   0  0  0  0  0  0  0  0  0  0  0  0
   -5.3790   -0.0700   -1.5460 C   0  0  0  0  0  0  0  0  0  0  0  0
   -4.2750   -1.0290   -1.8080 C   0  0  0  0  0  0  0  0  0  0  0  0
   -2.9470   -0.6890   -1.3250 C   0  0  0  0  0  0  0  0  0  0  0  0
   -2.7280    0.4580   -0.8720 O   0  0  0  0  0  0  0  0  0  0  0  0
   -1.8440   -1.6070   -1.3380 N   0  0  0  0  0  0  0  0  0  0  0  0
   -2.0530   -2.9800   -1.7320 C   0  0  0  0  0  0  0  0  0  0  0  0
   -2.4060   -3.8870   -0.5590 C   0  0  0  0  0  0  0  0  0  0  0  0
   -1.3980   -3.8980    0.3910 O   0  0  0  0  0  0  0  0  0  0  0  0
   -0.5690   -1.1730   -0.9460 C   0  0  0  0  0  0  0  0  0  0  0  0
   -0.3090   -1.0640    0.4150 C   0  0  0  0  0  0  0  0  0  0  0  0
    0.9370   -0.6300    0.8830 C   0  0  0  0  0  0  0  0  0  0  0  0
    1.9270   -0.3040   -0.0110 C   0  0  0  0  0  0  0  0  0  0  0  0
    3.2430    0.1760    0.4790 C   0  0  0  0  0  0  0  0  0  0  0  0
    3.2960    1.2860    1.0010 O   0  0  0  0  0  0  0  0  0  0  0  0
    4.4070   -0.6100    0.3550 N   0  0  0  0  0  0  0  0  0  0  0  0
    5.7220   -0.3290    0.7300 C   0  0  0  0  0  0  0  0  0  0  0  0
    6.2900    0.9060    0.8350 C   0  0  0  0  0  0  0  0  0  0  0  0
    5.5590    2.0070    0.5110 O   0  0  0  0  0  0  0  0  0  0  0  0
    7.6230    0.9980    1.2730 C   0  0  0  0  0  0  0  0  0  0  0  0
    8.2150    2.2160    1.3830 C   0  0  0  0  0  0  0  0  0  0  0  0
    9.5370    2.3030    1.8140 C   0  0  0  0  0  0  0  0  0  0  0  0
   10.2530    3.9290    1.9330 S   0  0  0  0  0  0  0  0  0  0  0  0
   10.2700    1.1920    2.1340 C   0  0  0  0  0  0  0  0  0  0  0  0
    9.6850   -0.0330    2.0260 C   0  0  0  0  0  0  0  0  0  0  0  0
   10.4050   -1.3000    2.3550 C   0  0  0  0  0  0  0  0  0  0  0  0
    8.3550   -0.1240    1.5930 C   0  0  0  0  0  0  0  0  0  0  0  0
    7.7710   -1.3180    1.4790 N   0  0  0  0  0  0  0  0  0  0  0  0
    6.5270   -1.4260    1.0720 C   0  0  0  0  0  0  0  0  0  0  0  0
    6.0160   -2.5810    0.9800 O   0  0  0  0  0  0  0  0  0  0  0  0
    1.6570   -0.4160   -1.3430 C   0  0  0  0  0  0  0  0  0  0  0  0
    0.4140   -0.8490   -1.8270 C   0  0  0  0  0  0  0  0  0  0  0  0
    0.1830   -0.9210   -3.2800 C   0  0  2  0  0  0  0  0  0  0  0  0
    1.4360   -0.5980   -4.0730 C   0  0  0  0  0  0  0  0  0  0  0  0
   -0.8250   -0.0340   -3.6620 O   0  0  0  0  0  0  0  0  0  0  0  0
   -7.6510    2.8960    1.5240 C   0  0  0  0  0  0  0  0  0  0  0  0
   -7.1560    4.1650    1.4680 F   0  0  0  0  0  0  0  0  0  0  0  0
   -8.3050    2.4130    2.6230 C   0  0  0  0  0  0  0  0  0  0  0  0
  1  2  1  0
  2  3  2  0
  2 45  1  0
  3  4  1  0
  4  5  2  0
  5  6  1  0
  5 43  1  0
  6  7  1  0
  7  8  1  0
  8  9  1  0
  9 10  1  0
 10 11  1  0
 11 12  2  0
 11 13  1  0
 13 14  1  0
 13 17  1  0
 14 15  1  0
 15 16  1  0
 17 18  2  0
 17 39  1  0
 18 19  1  0
 19 20  2  0
 20 21  1  0
 20 38  1  0
 21 22  2  0
 21 23  1  0
 23 24  1  0
 24 25  2  0
 24 36  1  0
 25 26  1  0
 25 27  1  0
 27 28  2  0
 27 34  1  0
 28 29  1  0
 29 30  1  0
 29 31  2  0
 31 32  1  0
 32 33  1  0
 32 34  2  0
 34 35  1  0
 35 36  1  0
 36 37  2  0
 38 39  2  0
 39 40  1  0
 40 41  1  6
 40 42  1  0
 43 44  1  0
 43 45  2  0
M  END
