
     RDKit          3D

 46 49  0  0  0  0  0  0  0  0999 V2000
    5.8150   -2.6800    2.1740 C   0  0  0  0  0  0  0  0  0  0  0  0
    6.0340   -1.5420    1.4110 O   0  0  0  0  0  0  0  0  0  0  0  0
    5.0830   -0.6900    0.8860 C   0  0  0  0  0  0  0  0  0  0  0  0
    3.7620   -1.0250    1.1580 C   0  0  0  0  0  0  0  0  0  0  0  0
    2.7190   -0.2630    0.6940 C   0  0  0  0  0  0  0  0  0  0  0  0
    1.3560   -0.5420    0.9510 N   0  0  0  0  0  0  0  0  0  0  0  0
    0.7940   -1.7210    1.4360 C   0  0  0  0  0  0  0  0  0  0  0  0
    1.5800   -2.7060    1.6770 O   0  0  0  0  0  0  0  0  0  0  0  0
   -0.6620   -1.9460    1.7130 C   0  0  0  0  0  0  0  0  0  0  0  0
   -1.4660   -0.8530    1.4590 O   0  0  0  0  0  0  0  0  0  0  0  0
   -1.7210   -0.3200    0.2280 C   0  0  0  0  0  0  0  0  0  0  0  0
   -1.2470   -0.7980   -0.8450 O   0  0  0  0  0  0  0  0  0  0  0  0
   -2.6000    0.8830    0.1210 C   0  0  2  0  0  0  0  0  0  0  0  0
   -2.6960    1.4220    1.4370 O   0  0  0  0  0  0  0  0  0  0  0  0
   -3.9750    0.4090   -0.2740 C   0  0  0  0  0  0  0  0  0  0  0  0
   -4.2230   -0.5080   -1.2570 C   0  0  0  0  0  0  0  0  0  0  0  0
   -5.5270   -0.9000   -1.5630 C   0  0  0  0  0  0  0  0  0  0  0  0
   -6.6220   -0.3740   -0.8840 C   0  0  0  0  0  0  0  0  0  0  0  0
   -7.9790   -0.7960   -1.2290 C   0  0  0  0  0  0  0  0  0  0  0  0
   -8.2240   -2.0710   -1.6800 C   0  0  0  0  0  0  0  0  0  0  0  0
   -9.4710   -2.5180   -2.0270 C   0  0  0  0  0  0  0  0  0  0  0  0
  -10.5310   -1.6460   -1.9190 C   0  0  0  0  0  0  0  0  0  0  0  0
  -10.3350   -0.3490   -1.4680 C   0  0  0  0  0  0  0  0  0  0  0  0
  -11.5220    0.5310   -1.3860 C   0  0  0  0  0  0  0  0  0  0  0  0
  -12.3040    0.3860    0.2580 S   0  0  0  0  0  0  0  0  0  0  0  0
  -11.1360    1.0890    1.4650 C   0  0  0  0  0  0  0  0  0  0  0  0
   -9.0530    0.0720   -1.1220 C   0  0  0  0  0  0  0  0  0  0  0  0
   -6.3670    0.5500    0.1030 C   0  0  0  0  0  0  0  0  0  0  0  0
   -5.0640    0.9380    0.4060 C   0  0  0  0  0  0  0  0  0  0  0  0
   -4.8380    1.8420    1.3780 F   0  0  0  0  0  0  0  0  0  0  0  0
    2.9910    0.8790   -0.0700 C   0  0  0  0  0  0  0  0  0  0  0  0
    4.2980    1.1780   -0.3180 C   0  0  0  0  0  0  0  0  0  0  0  0
    4.5910    2.3580   -1.1040 N   0  0  0  0  0  0  0  0  0  0  0  0
    5.3700    0.4070    0.1520 C   0  0  0  0  0  0  0  0  0  0  0  0
    6.7400    0.8220   -0.1450 C   0  0  0  0  0  0  0  0  0  0  0  0
    6.8840    1.8940   -0.8460 O   0  0  0  0  0  0  0  0  0  0  0  0
    7.9290    0.2050    0.2360 N   0  0  0  0  0  0  0  0  0  0  0  0
    9.2590    0.5830   -0.0210 C   0  0  0  0  0  0  0  0  0  0  0  0
    9.6240    1.7130   -0.6700 C   0  0  0  0  0  0  0  0  0  0  0  0
   10.9620    2.0700   -0.8940 C   0  0  0  0  0  0  0  0  0  0  0  0
   11.9800    1.2670   -0.4540 C   0  0  0  0  0  0  0  0  0  0  0  0
   13.3670    1.6400   -0.6850 C   0  0  0  0  0  0  0  0  0  0  0  0
   13.6460    2.6970   -1.2920 O   0  0  0  0  0  0  0  0  0  0  0  0
   11.6290    0.1160    0.2050 C   0  0  0  0  0  0  0  0  0  0  0  0
   10.3180   -0.2300    0.4230 C   0  0  0  0  0  0  0  0  0  0  0  0
    9.9730   -1.3710    1.0720 F   0  0  0  0  0  0  0  0  0  0  0  0
  1  2  1  0
  2  3  1  0
  3  4  2  0
  3 34  1  0
  4  5  1  0
  5  6  1  0
  5 31  2  0
  6  7  1  0
  7  8  2  0
  7  9  1  0
  9 10  1  0
 10 11  1  0
 11 12  2  0
 11 13  1  0
 13 14  1  1
 13 15  1  0
 15 16  2  0
 15 29  1  0
 16 17  1  0
 17 18  2  0
 18 19  1  0
 18 28  1  0
 19 20  2  0
 19 27  1  0
 20 21  1  0
 21 22  2  0
 22 23  1  0
 23 24  1  0
 23 27  2  0
 24 25  1  0
 25 26  1  0
 28 29  2  0
 29 30  1  0
 31 32  1  0
 32 33  1  0
 32 34  2  0
 34 35  1  0
 35 36  2  0
 35 37  1  0
 37 38  1  0
 38 39  2  0
 38 45  1  0
 39 40  1  0
 40 41  2  0
 41 42  1  0
 41 44  1  0
 42 43  2  0
 44 45  2  0
 45 46  1  0
M  END
