
     RDKit          3D

 48 53  0  0  0  0  0  0  0  0999 V2000
   -4.1390    6.8910    0.4640 C   0  0  0  0  0  0  0  0  0  0  0  0
   -2.8890    6.0550    0.3360 C   0  0  0  0  0  0  0  0  0  0  0  0
   -3.0020    5.0030   -0.5900 O   0  0  0  0  0  0  0  0  0  0  0  0
   -3.9580    3.9560   -0.3660 C   0  0  0  0  0  0  0  0  0  0  0  0
   -4.7050    4.0200    0.8030 C   0  0  0  0  0  0  0  0  0  0  0  0
   -5.6330    2.9630    0.9800 C   0  0  0  0  0  0  0  0  0  0  0  0
   -5.6520    2.0730    0.0270 C   0  0  0  0  0  0  0  0  0  0  0  0
   -6.8380    0.9890    0.1600 C   0  0  0  0  0  0  0  0  0  0  0  0
   -7.6030    0.2710    0.2520 N   0  0  0  0  0  0  0  0  0  0  0  0
   -5.0790    1.8210   -1.0830 C   0  0  0  0  0  0  0  0  0  0  0  0
   -4.0250    3.0180   -1.2990 C   0  0  0  0  0  0  0  0  0  0  0  0
   -3.1340    2.8360   -2.4410 C   0  0  0  0  0  0  0  0  0  0  0  0
   -1.9190    2.0990   -1.8580 C   0  0  0  0  0  0  0  0  0  0  0  0
   -0.8620    2.8210   -1.3630 C   0  0  0  0  0  0  0  0  0  0  0  0
    0.1970    2.1080   -0.7530 C   0  0  0  0  0  0  0  0  0  0  0  0
    0.2430    0.7540   -0.6190 C   0  0  0  0  0  0  0  0  0  0  0  0
    1.2160   -0.0060    0.0470 N   0  0  0  0  0  0  0  0  0  0  0  0
    2.4970    0.5630    0.4160 C   0  0  0  0  0  0  0  0  0  0  0  0
    2.8390    1.7310    0.1190 O   0  0  0  0  0  0  0  0  0  0  0  0
    3.4560   -0.2460    1.1800 C   0  0  0  0  0  0  0  0  0  0  0  0
    4.8500    0.3250    1.0080 C   0  0  2  0  0  0  0  0  0  0  0  0
    4.9910    1.7350    1.4930 C   0  0  0  0  0  0  0  0  0  0  0  0
    5.2090    0.2080   -0.3840 N   0  0  0  0  0  0  0  0  0  0  0  0
    6.5780    0.1420   -0.7600 C   0  0  0  0  0  0  0  0  0  0  0  0
    6.9030    0.0320   -2.0820 C   0  0  0  0  0  0  0  0  0  0  0  0
    8.2510   -0.0680   -2.5210 C   0  0  0  0  0  0  0  0  0  0  0  0
    8.5460   -0.1730   -3.7210 O   0  0  0  0  0  0  0  0  0  0  0  0
    9.1920   -0.0380   -1.4810 C   0  0  0  0  0  0  0  0  0  0  0  0
   10.5450   -0.1300   -1.8110 C   0  0  0  0  0  0  0  0  0  0  0  0
   11.5200   -0.1210   -0.8320 C   0  0  0  0  0  0  0  0  0  0  0  0
   11.1130   -0.0020    0.4580 C   0  0  0  0  0  0  0  0  0  0  0  0
    9.7610    0.0980    0.8310 C   0  0  0  0  0  0  0  0  0  0  0  0
    8.8460    0.0720   -0.2120 C   0  0  0  0  0  0  0  0  0  0  0  0
    7.5330    0.1680    0.1660 N   0  0  0  0  0  0  0  0  0  0  0  0
   -0.8470    0.0180   -1.1370 C   0  0  0  0  0  0  0  0  0  0  0  0
   -0.9930   -1.4240   -1.1410 C   0  0  0  0  0  0  0  0  0  0  0  0
   -1.5390   -2.1430   -0.0210 C   0  0  0  0  0  0  0  0  0  0  0  0
   -1.0570   -2.1720    1.1210 O   0  0  0  0  0  0  0  0  0  0  0  0
   -2.7470   -2.9060   -0.2100 O   0  0  0  0  0  0  0  0  0  0  0  0
   -3.3160   -3.6970    0.7840 C   0  0  2  0  0  0  0  0  0  0  0  0
   -3.4600   -5.0820    0.1760 C   0  0  0  0  0  0  0  0  0  0  0  0
   -4.5000   -5.9170    0.8770 C   0  0  2  0  0  0  0  0  0  0  0  0
   -5.7090   -5.8810   -0.0450 C   0  0  0  0  0  0  0  0  0  0  0  0
   -6.4190   -4.5900    0.3780 C   0  0  0  0  0  0  0  0  0  0  0  0
   -5.6750   -4.1420    1.6230 C   0  0  2  0  0  0  0  0  0  0  0  0
   -4.6400   -3.1110    1.2720 C   0  0  0  0  0  0  0  0  0  0  0  0
   -4.9700   -5.3310    2.0840 N   0  0  0  0  0  0  0  0  0  0  0  0
   -1.9060    0.7420   -1.7430 C   0  0  0  0  0  0  0  0  0  0  0  0
  1  2  1  0
  2  3  1  0
  3  4  1  0
  4  5  2  0
  4 11  1  0
  5  6  1  0
  6  7  2  0
  7  8  1  0
  7 10  1  0
  8  9  3  0
 10 11  2  0
 11 12  1  0
 12 13  1  0
 13 14  2  0
 13 48  1  0
 14 15  1  0
 15 16  2  0
 16 17  1  0
 16 35  1  0
 17 18  1  0
 18 19  2  0
 18 20  1  0
 20 21  1  0
 21 22  1  6
 21 23  1  0
 23 24  1  0
 24 25  2  0
 24 34  1  0
 25 26  1  0
 26 27  2  0
 26 28  1  0
 28 29  2  0
 28 33  1  0
 29 30  1  0
 30 31  2  0
 31 32  1  0
 32 33  2  0
 33 34  1  0
 35 36  1  0
 35 48  2  0
 36 37  1  0
 37 38  2  0
 37 39  1  0
 40 39  1  6
 40 41  1  0
 40 46  1  0
 42 41  1  6
 42 43  1  0
 42 47  1  0
 43 44  1  0
 45 44  1  6
 45 46  1  0
 45 47  1  0
M  CHG  1  47   1
M  END
