
     RDKit          3D

 46 49  0  0  0  0  0  0  0  0999 V2000
   -2.8660   -4.0410    1.7780 C   0  0  0  0  0  0  0  0  0  0  0  0
   -2.2050   -3.4800    0.5560 C   0  0  0  0  0  0  0  0  0  0  0  0
   -1.4080   -4.2580   -0.2530 C   0  0  0  0  0  0  0  0  0  0  0  0
   -0.8190   -3.7160   -1.3600 C   0  0  0  0  0  0  0  0  0  0  0  0
   -1.0250   -2.3910   -1.6630 C   0  0  0  0  0  0  0  0  0  0  0  0
   -0.4280   -1.8880   -2.7670 F   0  0  0  0  0  0  0  0  0  0  0  0
   -1.8270   -1.5540   -0.8710 C   0  0  0  0  0  0  0  0  0  0  0  0
   -2.0270   -0.1320   -1.3100 C   0  0  1  0  0  0  0  0  0  0  0  0
   -3.0840    0.5800   -0.6300 C   0  0  0  0  0  0  0  0  0  0  0  0
   -4.2360    0.7860   -1.3240 C   0  0  0  0  0  0  0  0  0  0  0  0
   -5.3850    1.4730   -0.7890 C   0  0  0  0  0  0  0  0  0  0  0  0
   -5.4110    1.9510    0.4260 C   0  0  0  0  0  0  0  0  0  0  0  0
   -4.2800    1.8200    1.3390 C   0  0  1  0  0  0  0  0  0  0  0  0
   -4.6780    1.1060    2.5030 O   0  0  0  0  0  0  0  0  0  0  0  0
   -3.0950    1.0960    0.7330 C   0  0  0  0  0  0  0  0  0  0  0  0
   -2.0330    0.9140    1.4810 C   0  0  0  0  0  0  0  0  0  0  0  0
   -1.9650    1.4130    2.8610 C   0  0  0  0  0  0  0  0  0  0  0  0
   -1.7480    0.1290    4.0560 S   0  0  2  0  0  0  0  0  0  0  0  0
   -1.9480   -1.1880    3.3450 O   0  0  0  0  0  0  0  0  0  0  0  0
   -2.5980    0.2700    5.2580 O   0  0  0  0  0  0  0  0  0  0  0  0
   -0.6940    0.5230   -1.4530 C   0  0  0  0  0  0  0  0  0  0  0  0
    0.3880   -0.0140   -0.7910 C   0  0  0  0  0  0  0  0  0  0  0  0
    1.6820    0.4930   -0.8560 C   0  0  0  0  0  0  0  0  0  0  0  0
    2.7400   -0.1080   -0.1210 N   0  0  0  0  0  0  0  0  0  0  0  0
    4.1210    0.0400   -0.3410 C   0  0  0  0  0  0  0  0  0  0  0  0
    4.4470    0.7910   -1.3130 O   0  0  0  0  0  0  0  0  0  0  0  0
    5.1830   -0.5720    0.4240 C   0  0  0  0  0  0  0  0  0  0  0  0
    6.4970   -0.1740    0.1740 C   0  0  0  0  0  0  0  0  0  0  0  0
    7.5800   -0.6590    0.8340 C   0  0  0  0  0  0  0  0  0  0  0  0
    7.3830   -1.6010    1.8130 C   0  0  0  0  0  0  0  0  0  0  0  0
    8.5280   -2.1220    2.5280 C   0  0  0  0  0  0  0  0  0  0  0  0
    8.3660   -3.0830    3.5430 N   0  0  0  0  0  0  0  0  0  0  0  0
    9.6740   -1.7160    2.2400 O   0  0  0  0  0  0  0  0  0  0  0  0
    6.0900   -2.0080    2.0750 C   0  0  0  0  0  0  0  0  0  0  0  0
    4.9880   -1.5100    1.3980 C   0  0  0  0  0  0  0  0  0  0  0  0
    3.7360   -1.9800    1.7180 F   0  0  0  0  0  0  0  0  0  0  0  0
    1.7980    1.5980   -1.6510 C   0  0  0  0  0  0  0  0  0  0  0  0
    0.7210    2.1680   -2.3390 C   0  0  0  0  0  0  0  0  0  0  0  0
   -0.5430    1.6360   -2.2490 C   0  0  0  0  0  0  0  0  0  0  0  0
   -1.6280    2.1480   -3.0250 N   0  0  0  0  0  0  0  0  0  0  0  0
   -1.5880    3.4080   -3.6360 C   0  0  0  0  0  0  0  0  0  0  0  0
   -0.6450    4.2190   -3.5800 O   0  0  0  0  0  0  0  0  0  0  0  0
   -2.7770    3.8580   -4.4440 C   0  0  0  0  0  0  0  0  0  0  0  0
   -2.5900    5.1870   -5.0350 C   0  0  0  0  0  0  0  0  0  0  0  0
   -3.4790    5.6350   -5.7330 O   0  0  0  0  0  0  0  0  0  0  0  0
   -2.3980   -2.1310    0.2220 C   0  0  0  0  0  0  0  0  0  0  0  0
  1  2  1  0
  2  3  2  0
  2 46  1  0
  3  4  1  0
  4  5  2  0
  5  6  1  0
  5  7  1  0
  8  7  1  1
  7 46  2  0
  8  9  1  0
  8 21  1  0
  9 10  2  0
  9 15  1  0
 10 11  1  0
 11 12  2  0
 12 13  1  0
 13 14  1  1
 13 15  1  0
 15 16  2  3
 16 17  1  0
 18 17  1  6
 18 19  2  0
 18 20  2  0
 21 22  2  0
 21 39  1  0
 22 23  1  0
 23 24  1  0
 23 37  2  0
 24 25  1  0
 25 26  2  0
 25 27  1  0
 27 28  2  0
 27 35  1  0
 28 29  1  0
 29 30  2  0
 30 31  1  0
 30 34  1  0
 31 32  1  0
 31 33  2  0
 34 35  2  0
 35 36  1  0
 37 38  1  0
 38 39  2  0
 39 40  1  0
 40 41  1  0
 41 42  2  0
 41 43  1  0
 43 44  1  0
 44 45  2  0
M  END
