
     RDKit          3D

 46 49  0  0  0  0  0  0  0  0999 V2000
    9.0590    0.1150   -0.0770 C   0  0  0  0  0  0  0  0  0  0  0  0
    7.7590    0.4510    0.5900 C   0  0  0  0  0  0  0  0  0  0  0  0
    6.8260    1.2060   -0.3610 C   0  0  0  0  0  0  0  0  0  0  0  0
    5.5840    1.5230    0.2810 N   0  0  0  0  0  0  0  0  0  0  0  0
    5.6080    2.8510    0.9680 C   0  0  0  0  0  0  0  0  0  0  0  0
    5.1760    3.9490    0.0560 C   0  0  0  0  0  0  0  0  0  0  0  0
    5.2430    5.2380    0.8640 C   0  0  0  0  0  0  0  0  0  0  0  0
    4.4080    0.7640    0.3360 C   0  0  0  0  0  0  0  0  0  0  0  0
    3.4290    1.3510    0.9830 O   0  0  0  0  0  0  0  0  0  0  0  0
    4.0520   -0.5240   -0.1720 C   0  0  0  0  0  0  0  0  0  0  0  0
    4.9630   -1.3490   -0.7660 C   0  0  0  0  0  0  0  0  0  0  0  0
    4.5390   -2.5820   -1.2770 C   0  0  0  0  0  0  0  0  0  0  0  0
    5.5540   -3.4860   -1.9310 C   0  0  0  0  0  0  0  0  0  0  0  0
    3.2240   -2.9630   -1.1840 C   0  0  0  0  0  0  0  0  0  0  0  0
    2.2720   -2.1610   -0.5920 C   0  0  0  0  0  0  0  0  0  0  0  0
    0.8690   -2.5620   -0.5050 C   0  0  0  0  0  0  0  0  0  0  0  0
    0.4760   -3.5400   -1.2090 O   0  0  0  0  0  0  0  0  0  0  0  0
   -0.1010   -1.9420    0.3110 N   0  0  0  0  0  0  0  0  0  0  0  0
   -1.4850   -2.3550    0.3750 C   0  0  1  0  0  0  0  0  0  0  0  0
   -1.7850   -3.0790    1.6360 C   0  0  0  0  0  0  0  0  0  0  0  0
   -3.1900   -3.5400    1.7450 C   0  0  0  0  0  0  0  0  0  0  0  0
   -3.5360   -4.7650    1.1730 C   0  0  0  0  0  0  0  0  0  0  0  0
   -4.8390   -5.1930    1.2890 C   0  0  0  0  0  0  0  0  0  0  0  0
   -5.2010   -6.3960    0.7340 F   0  0  0  0  0  0  0  0  0  0  0  0
   -5.7890   -4.4450    1.9480 C   0  0  0  0  0  0  0  0  0  0  0  0
   -5.4610   -3.2340    2.5180 C   0  0  0  0  0  0  0  0  0  0  0  0
   -6.3790   -2.4710    3.1790 F   0  0  0  0  0  0  0  0  0  0  0  0
   -4.1340   -2.8010    2.3990 C   0  0  0  0  0  0  0  0  0  0  0  0
   -2.4600   -1.3590   -0.1060 C   0  0  2  0  0  0  0  0  0  0  0  0
   -2.2010   -1.2120   -1.5400 O   0  0  0  0  0  0  0  0  0  0  0  0
   -2.2420    0.0690    0.3480 C   0  0  1  0  0  0  0  0  0  0  0  0
   -3.0260    1.0300   -0.5020 C   0  0  0  0  0  0  0  0  0  0  0  0
   -3.2900    2.3010    0.1030 N   0  0  0  0  0  0  0  0  0  0  0  0
   -3.9190    3.4680   -0.9540 S   0  0  1  0  0  0  0  0  0  0  0  0
   -4.1620    4.7350   -0.1810 O   0  0  0  0  0  0  0  0  0  0  0  0
   -3.0230    3.7610   -2.1130 O   0  0  0  0  0  0  0  0  0  0  0  0
   -5.4570    2.9020   -1.5770 C   0  0  0  0  0  0  0  0  0  0  0  0
   -6.6120    3.2390   -0.9030 C   0  0  0  0  0  0  0  0  0  0  0  0
   -7.8600    2.8320   -1.3330 C   0  0  0  0  0  0  0  0  0  0  0  0
   -7.9840    2.0520   -2.4810 C   0  0  0  0  0  0  0  0  0  0  0  0
   -6.8170    1.7260   -3.1400 C   0  0  0  0  0  0  0  0  0  0  0  0
   -5.5680    2.1290   -2.7190 C   0  0  0  0  0  0  0  0  0  0  0  0
   -4.0090    2.2000    1.3500 C   0  0  0  0  0  0  0  0  0  0  0  0
   -3.7630    0.8650    2.0180 C   0  0  0  0  0  0  0  0  0  0  0  0
   -2.4280    0.3680    1.7150 N   0  0  0  0  0  0  0  0  0  0  0  0
    2.7130   -0.9620   -0.1010 C   0  0  0  0  0  0  0  0  0  0  0  0
  1  2  1  0
  2  3  1  0
  3  4  1  0
  4  5  1  0
  4  8  1  0
  5  6  1  0
  6  7  1  0
  8  9  2  0
  8 10  1  0
 10 11  2  0
 10 46  1  0
 11 12  1  0
 12 13  1  0
 12 14  2  0
 14 15  1  0
 15 16  1  0
 15 46  2  0
 16 17  2  0
 16 18  1  0
 18 19  1  0
 19 20  1  1
 19 29  1  0
 20 21  1  0
 21 22  2  0
 21 28  1  0
 22 23  1  0
 23 24  1  0
 23 25  2  0
 25 26  1  0
 26 27  1  0
 26 28  2  0
 29 30  1  6
 29 31  1  0
 31 32  1  6
 31 45  1  0
 32 33  1  0
 34 33  1  1
 33 43  1  0
 34 35  2  0
 34 36  2  0
 34 37  1  0
 37 38  2  0
 37 42  1  0
 38 39  1  0
 39 40  2  0
 40 41  1  0
 41 42  2  0
 43 44  1  0
 44 45  1  0
M  CHG  1  45   1
M  END
