
     RDKit          3D

 48 53  0  0  0  0  0  0  0  0999 V2000
   -0.7350    1.6230    4.9760 C   0  0  0  0  0  0  0  0  0  0  0  0
   -0.0900    0.7600    3.9790 C   0  0  0  0  0  0  0  0  0  0  0  0
   -0.2590   -0.4720    4.0930 O   0  0  0  0  0  0  0  0  0  0  0  0
    0.7380    1.2470    2.8660 C   0  0  0  0  0  0  0  0  0  0  0  0
    1.0500    2.6000    2.6740 C   0  0  0  0  0  0  0  0  0  0  0  0
    0.5710    3.7710    3.4330 C   0  0  0  0  0  0  0  0  0  0  0  0
    1.8960    2.6660    1.6150 N   0  0  0  0  0  0  0  0  0  0  0  0
    2.1370    1.4660    1.1280 C   0  0  0  0  0  0  0  0  0  0  0  0
    3.0350    1.1410    0.0050 C   0  0  0  0  0  0  0  0  0  0  0  0
    2.9520    1.6350   -1.1260 O   0  0  0  0  0  0  0  0  0  0  0  0
    4.0940    0.1860    0.2330 N   0  0  0  0  0  0  0  0  0  0  0  0
    5.0420   -0.2760   -0.7140 C   0  0  0  0  0  0  0  0  0  0  0  0
    5.9640    0.7240   -1.2950 C   0  0  0  0  0  0  0  0  0  0  0  0
    5.9200    1.9260   -1.0230 O   0  0  0  0  0  0  0  0  0  0  0  0
    6.9550    0.2070   -2.2100 N   0  0  0  0  0  0  0  0  0  0  0  0
    6.8900   -1.1270   -2.7790 C   0  0  0  0  0  0  0  0  0  0  0  0
    8.0310   -1.2160   -3.7210 C   0  0  0  0  0  0  0  0  0  0  0  0
    8.7890    0.0340   -3.5700 C   0  0  0  0  0  0  0  0  0  0  0  0
    9.9730    0.4730   -4.1160 C   0  0  0  0  0  0  0  0  0  0  0  0
   10.5100    1.7420   -3.8240 C   0  0  0  0  0  0  0  0  0  0  0  0
   11.7730    2.0690   -4.3750 C   0  0  0  0  0  0  0  0  0  0  0  0
   12.8460    2.3440   -4.8330 N   0  0  0  0  0  0  0  0  0  0  0  0
    9.8320    2.5650   -2.9760 C   0  0  0  0  0  0  0  0  0  0  0  0
    8.6350    2.1170   -2.4280 C   0  0  0  0  0  0  0  0  0  0  0  0
    8.1080    0.8510   -2.7200 C   0  0  0  0  0  0  0  0  0  0  0  0
    1.3920    0.5360    1.9150 C   0  0  0  0  0  0  0  0  0  0  0  0
    1.3870   -0.8750    1.5130 C   0  0  0  0  0  0  0  0  0  0  0  0
    0.2690   -1.3650    0.6620 C   0  0  0  0  0  0  0  0  0  0  0  0
   -1.0220   -1.6760    1.2080 C   0  0  0  0  0  0  0  0  0  0  0  0
   -1.1890   -2.2550    2.3020 O   0  0  0  0  0  0  0  0  0  0  0  0
   -2.2830   -1.3520    0.5510 N   0  0  0  0  0  0  0  0  0  0  0  0
   -3.5280   -1.7050    1.1150 C   0  0  1  0  0  0  0  0  0  0  0  0
   -4.0810   -0.8030    2.1550 C   0  0  0  0  0  0  0  0  0  0  0  0
   -3.4360    0.3140    2.5910 C   0  0  0  0  0  0  0  0  0  0  0  0
   -4.0710    1.0630    3.5980 C   0  0  0  0  0  0  0  0  0  0  0  0
   -5.2850    0.6900    4.1200 C   0  0  0  0  0  0  0  0  0  0  0  0
   -5.9080   -0.4610    3.6420 C   0  0  0  0  0  0  0  0  0  0  0  0
   -5.3000   -1.2010    2.6610 C   0  0  0  0  0  0  0  0  0  0  0  0
   -5.9880   -2.4300    2.1900 C   0  0  0  0  0  0  0  0  0  0  0  0
   -5.5380   -2.9730    0.9610 N   0  0  0  0  0  0  0  0  0  0  0  0
   -4.6380   -2.1100    0.2190 C   0  0  1  0  0  0  0  0  0  0  0  0
   -5.4800   -1.0130   -0.3530 C   0  0  0  0  0  0  0  0  0  0  0  0
   -4.7730   -0.0270   -1.2250 C   0  0  1  0  0  0  0  0  0  0  0  0
   -4.1400   -0.6650   -2.4380 C   0  0  0  0  0  0  0  0  0  0  0  0
   -4.8020   -0.0880   -3.6710 C   0  0  0  0  0  0  0  0  0  0  0  0
   -6.2760   -0.4570   -3.6050 C   0  0  0  0  0  0  0  0  0  0  0  0
   -6.8650    0.4240   -2.5200 C   0  0  0  0  0  0  0  0  0  0  0  0
   -5.8050    1.0320   -1.6490 C   0  0  0  0  0  0  0  0  0  0  0  0
  1  2  1  0
  2  3  2  0
  2  4  1  0
  4  5  2  0
  4 26  1  0
  5  6  1  0
  5  7  1  0
  7  8  1  0
  8  9  1  0
  8 26  2  0
  9 10  2  0
  9 11  1  0
 11 12  1  0
 12 13  1  0
 13 14  2  0
 13 15  1  0
 15 16  1  0
 15 25  1  0
 16 17  1  0
 17 18  1  0
 18 19  2  0
 18 25  1  0
 19 20  1  0
 20 21  1  0
 20 23  2  0
 21 22  3  0
 23 24  1  0
 24 25  2  0
 26 27  1  0
 27 28  1  0
 28 29  1  0
 29 30  2  0
 29 31  1  0
 32 31  1  6
 32 33  1  0
 32 41  1  0
 33 34  2  0
 33 38  1  0
 34 35  1  0
 35 36  2  0
 36 37  1  0
 37 38  2  0
 38 39  1  0
 39 40  1  0
 40 41  1  0
 41 42  1  1
 43 42  1  6
 43 44  1  0
 43 48  1  0
 44 45  1  0
 45 46  1  0
 46 47  1  0
 47 48  1  0
M  CHG  1  40   1
M  END
