
     RDKit          3D

 46 49  0  0  0  0  0  0  0  0999 V2000
   -4.4750   -5.7480    1.7700 C   0  0  0  0  0  0  0  0  0  0  0  0
   -4.2580   -5.0290    0.5680 O   0  0  0  0  0  0  0  0  0  0  0  0
   -3.6360   -3.7810    0.5280 C   0  0  0  0  0  0  0  0  0  0  0  0
   -3.2660   -3.2910    1.5780 O   0  0  0  0  0  0  0  0  0  0  0  0
   -3.4710   -3.1510   -0.7640 C   0  0  0  0  0  0  0  0  0  0  0  0
   -4.6080   -3.2690   -1.6050 C   0  0  0  0  0  0  0  0  0  0  0  0
   -4.6950   -2.6650   -2.8160 C   0  0  0  0  0  0  0  0  0  0  0  0
   -3.6330   -1.9070   -3.2420 C   0  0  0  0  0  0  0  0  0  0  0  0
   -2.5370   -1.7860   -2.4490 C   0  0  0  0  0  0  0  0  0  0  0  0
   -2.4220   -2.4140   -1.1700 C   0  0  0  0  0  0  0  0  0  0  0  0
   -1.1080   -2.3080   -0.6210 C   0  0  1  0  0  0  0  0  0  0  0  0
   -0.6640   -0.8230   -0.7470 C   0  0  0  0  0  0  0  0  0  0  0  0
    0.7820   -0.6770   -0.6340 C   0  0  0  0  0  0  0  0  0  0  0  0
    1.4650   -1.7710   -0.6460 O   0  0  0  0  0  0  0  0  0  0  0  0
    1.5450    0.5590   -0.5020 C   0  0  0  0  0  0  0  0  0  0  0  0
    2.9290    0.2190   -0.3100 O   0  0  0  0  0  0  0  0  0  0  0  0
    3.9050    1.1680   -0.1290 C   0  0  0  0  0  0  0  0  0  0  0  0
    3.5460    2.5000   -0.1250 C   0  0  0  0  0  0  0  0  0  0  0  0
    4.4930    3.4970    0.0550 C   0  0  0  0  0  0  0  0  0  0  0  0
    5.8220    3.1410    0.2340 C   0  0  0  0  0  0  0  0  0  0  0  0
    6.8040    4.2550    0.4250 C   0  0  0  0  0  0  0  0  0  0  0  0
    6.2060    1.8190    0.2330 C   0  0  0  0  0  0  0  0  0  0  0  0
    7.5080    1.4970    0.4100 F   0  0  0  0  0  0  0  0  0  0  0  0
    5.2300    0.8570    0.0510 C   0  0  0  0  0  0  0  0  0  0  0  0
    5.6420   -0.5370    0.0460 C   0  0  0  0  0  0  0  0  0  0  0  0
    5.9830   -1.0970   -1.0510 O   0  0  0  0  0  0  0  0  0  0  0  0
   -1.4920    0.1570   -0.7690 C   0  0  0  0  0  0  0  0  0  0  0  0
   -2.9300    0.0790   -0.6660 N   0  0  0  0  0  0  0  0  0  0  0  0
   -1.0780    1.5230   -0.9910 N   0  0  0  0  0  0  0  0  0  0  0  0
   -1.2430    2.5420   -0.0240 C   0  0  0  0  0  0  0  0  0  0  0  0
   -1.6490    2.2510    1.2750 C   0  0  0  0  0  0  0  0  0  0  0  0
   -1.7760    3.2470    2.2170 C   0  0  0  0  0  0  0  0  0  0  0  0
   -1.4950    4.5460    1.8600 C   0  0  0  0  0  0  0  0  0  0  0  0
   -1.0930    4.8790    0.5930 C   0  0  0  0  0  0  0  0  0  0  0  0
   -0.9740    3.8520   -0.3400 C   0  0  0  0  0  0  0  0  0  0  0  0
   -0.5210    4.3170   -1.9620 S   0  0  2  0  0  0  0  0  0  0  0  0
    0.9490    3.5750   -2.4230 N   0  0  0  0  0  0  0  0  0  0  0  0
   -0.3250    5.8120   -2.0640 O   0  0  0  0  0  0  0  0  0  0  0  0
   -1.5760    3.8690   -2.9420 O   0  0  0  0  0  0  0  0  0  0  0  0
   -0.7260   -2.7480    0.7010 C   0  0  0  0  0  0  0  0  0  0  0  0
   -0.5930   -1.8930    1.7780 C   0  0  0  0  0  0  0  0  0  0  0  0
   -0.1690   -2.3890    2.9880 C   0  0  0  0  0  0  0  0  0  0  0  0
    0.1420   -3.7110    3.2090 C   0  0  0  0  0  0  0  0  0  0  0  0
    0.5600   -4.1510    4.4340 F   0  0  0  0  0  0  0  0  0  0  0  0
    0.0140   -4.5780    2.1400 C   0  0  0  0  0  0  0  0  0  0  0  0
   -0.4090   -4.0990    0.9250 C   0  0  0  0  0  0  0  0  0  0  0  0
  1  2  1  0
  2  3  1  0
  3  4  2  0
  3  5  1  0
  5  6  2  0
  5 10  1  0
  6  7  1  0
  7  8  2  0
  8  9  1  0
  9 10  2  0
 10 11  1  0
 11 12  1  1
 11 40  1  0
 12 13  1  0
 12 27  2  3
 13 14  2  0
 13 15  1  0
 15 16  1  0
 16 17  1  0
 17 18  2  0
 17 24  1  0
 18 19  1  0
 19 20  2  0
 20 21  1  0
 20 22  1  0
 22 23  1  0
 22 24  2  0
 24 25  1  0
 25 26  2  0
 27 28  1  0
 27 29  1  0
 29 30  1  0
 30 31  2  0
 30 35  1  0
 31 32  1  0
 32 33  2  0
 33 34  1  0
 34 35  2  0
 35 36  1  0
 36 37  1  6
 36 38  2  0
 36 39  2  0
 40 41  2  0
 40 46  1  0
 41 42  1  0
 42 43  2  0
 43 44  1  0
 43 45  1  0
 45 46  2  0
M  END
