
     RDKit          3D

 46 49  0  0  0  0  0  0  0  0999 V2000
   11.8960    2.3000   -1.7840 C   0  0  0  0  0  0  0  0  0  0  0  0
   11.5420    1.4130   -0.7660 O   0  0  0  0  0  0  0  0  0  0  0  0
   10.2240    1.2520   -0.3850 C   0  0  0  0  0  0  0  0  0  0  0  0
    9.1870    1.9470   -0.9780 C   0  0  0  0  0  0  0  0  0  0  0  0
    7.8620    1.7650   -0.5740 C   0  0  0  0  0  0  0  0  0  0  0  0
    7.5460    0.8810    0.4350 C   0  0  0  0  0  0  0  0  0  0  0  0
    6.1360    0.6920    0.8540 C   0  0  0  0  0  0  0  0  0  0  0  0
    5.5420   -0.4040    0.0880 C   0  0  0  0  0  0  0  0  0  0  0  0
    6.2290   -1.0170   -0.7770 O   0  0  0  0  0  0  0  0  0  0  0  0
    4.1460   -0.7870    0.3280 C   0  0  0  0  0  0  0  0  0  0  0  0
    3.5160   -0.1390    1.1870 O   0  0  0  0  0  0  0  0  0  0  0  0
    3.5290   -1.8860   -0.4130 C   0  0  0  0  0  0  0  0  0  0  0  0
    2.3220   -2.3330   -0.3100 C   0  0  0  0  0  0  0  0  0  0  0  0
    1.2440   -1.9180    0.5230 C   0  0  0  0  0  0  0  0  0  0  0  0
    1.2380   -0.9920    1.3670 O   0  0  0  0  0  0  0  0  0  0  0  0
   -0.0610   -2.6010    0.4580 N   0  0  0  0  0  0  0  0  0  0  0  0
   -1.1580   -2.1770    1.2980 C   0  0  0  0  0  0  0  0  0  0  0  0
   -1.7320   -0.8420    0.8310 C   0  0  0  0  0  0  0  0  0  0  0  0
   -1.1440   -0.5240   -0.4470 C   0  0  0  0  0  0  0  0  0  0  0  0
   -1.4140    0.5670   -1.2470 C   0  0  0  0  0  0  0  0  0  0  0  0
   -2.3530    1.3980   -0.7100 C   0  0  0  0  0  0  0  0  0  0  0  0
   -2.9730    1.1350    0.5450 C   0  0  0  0  0  0  0  0  0  0  0  0
   -2.6910    0.0430    1.3250 C   0  0  0  0  0  0  0  0  0  0  0  0
   -3.5000   -0.0820    2.5830 C   0  0  0  0  0  0  0  0  0  0  0  0
   -3.8770    1.0690    3.4210 C   0  0  0  0  0  0  0  0  0  0  0  0
   -5.3310    1.0660    3.6550 C   0  0  0  0  0  0  0  0  0  0  0  0
   -5.7020    1.1330    4.8900 O   0  0  0  0  0  0  0  0  0  0  0  0
   -6.3990    1.0010    2.7420 N   0  0  0  0  0  0  0  0  0  0  0  0
   -7.4250   -0.0740    2.8870 C   0  0  0  0  0  0  0  0  0  0  0  0
   -8.7110    0.4380    2.2700 C   0  0  0  0  0  0  0  0  0  0  0  0
   -8.5730    0.6260    0.7750 C   0  0  0  0  0  0  0  0  0  0  0  0
   -7.2270    1.2200    0.4100 C   0  0  2  0  0  0  0  0  0  0  0  0
   -6.3430    0.2620   -0.2960 C   0  0  0  0  0  0  0  0  0  0  0  0
   -5.7590    0.7730   -1.5350 N   0  0  0  0  0  0  0  0  0  0  0  0
   -4.9320   -0.2310   -2.1720 C   0  0  0  0  0  0  0  0  0  0  0  0
   -4.0460    0.3080   -3.2630 C   0  0  0  0  0  0  0  0  0  0  0  0
   -2.7870   -0.5220   -3.4580 C   0  0  0  0  0  0  0  0  0  0  0  0
   -1.5730    0.3060   -3.7240 C   0  0  0  0  0  0  0  0  0  0  0  0
   -1.2440    0.5510   -4.8990 O   0  0  0  0  0  0  0  0  0  0  0  0
   -0.8140    0.7980   -2.5710 N   0  0  0  0  0  0  0  0  0  0  0  0
   -6.6880    1.8810    1.6400 C   0  0  0  0  0  0  0  0  0  0  0  0
    4.6350   -2.7010   -1.6280 S   0  0  0  0  0  0  0  0  0  0  0  0
    3.6670   -4.0000   -2.4240 C   0  0  0  0  0  0  0  0  0  0  0  0
    8.5760    0.1800    1.0360 C   0  0  0  0  0  0  0  0  0  0  0  0
    9.8740    0.3670    0.6300 C   0  0  0  0  0  0  0  0  0  0  0  0
   10.9700   -0.3900    1.2840 C   0  0  0  0  0  0  0  0  0  0  0  0
  1  2  1  0
  2  3  1  0
  3  4  2  0
  3 45  1  0
  4  5  1  0
  5  6  2  0
  6  7  1  0
  6 44  1  0
  7  8  1  0
  8  9  2  0
  8 10  1  0
 10 11  2  0
 10 12  1  0
 12 13  2  3
 12 42  1  0
 13 14  1  0
 14 15  2  0
 14 16  1  0
 16 17  1  0
 17 18  1  0
 18 19  2  0
 18 23  1  0
 19 20  1  0
 20 21  2  0
 20 40  1  0
 21 22  1  0
 22 23  2  0
 23 24  1  0
 24 25  1  0
 25 26  1  0
 26 27  2  0
 26 28  1  0
 28 29  1  0
 28 41  1  0
 29 30  1  0
 30 31  1  0
 32 31  1  1
 32 33  1  0
 32 41  1  0
 33 34  1  0
 34 35  1  0
 35 36  1  0
 36 37  1  0
 37 38  1  0
 38 39  2  0
 38 40  1  0
 42 43  1  0
 44 45  2  0
 45 46  1  0
M  CHG  1  34   1
M  END
