
     RDKit          3D

 46 50  0  0  0  0  0  0  0  0999 V2000
   11.8060   -0.5790    0.6460 C   0  0  0  0  0  0  0  0  0  0  0  0
   11.5320    0.9110    0.7750 C   0  0  0  0  0  0  0  0  0  0  0  0
   10.3420    1.1690    1.4670 O   0  0  0  0  0  0  0  0  0  0  0  0
    9.0900    0.7570    1.0840 C   0  0  0  0  0  0  0  0  0  0  0  0
    8.9470    0.0950    0.0430 O   0  0  0  0  0  0  0  0  0  0  0  0
    7.8980    1.0900    1.8950 C   0  0  2  0  0  0  0  0  0  0  0  0
    8.0370    0.4250    3.2480 C   0  0  0  0  0  0  0  0  0  0  0  0
    7.7420   -1.3020    2.6690 S   0  0  0  0  0  0  0  0  0  0  0  0
    6.5520   -0.8500    1.3350 C   0  0  0  0  0  0  0  0  0  0  0  0
    6.6770    0.5800    1.2700 N   0  0  0  0  0  0  0  0  0  0  0  0
    5.7320    1.4400    0.6160 C   0  0  0  0  0  0  0  0  0  0  0  0
    6.0140    2.7010    0.7650 O   0  0  0  0  0  0  0  0  0  0  0  0
    4.5870    1.1130   -0.1370 C   0  0  0  0  0  0  0  0  0  0  0  0
    4.1140   -0.0660   -0.4490 C   0  0  0  0  0  0  0  0  0  0  0  0
    2.8830   -0.1870   -1.2560 C   0  0  0  0  0  0  0  0  0  0  0  0
    2.1730    0.8750   -1.7240 C   0  0  0  0  0  0  0  0  0  0  0  0
    1.1080    0.3640   -2.4220 C   0  0  0  0  0  0  0  0  0  0  0  0
    1.2040   -1.0240   -2.3550 C   0  0  0  0  0  0  0  0  0  0  0  0
    0.3270   -2.0420   -2.9290 C   0  0  0  0  0  0  0  0  0  0  0  0
   -0.7520   -2.4460   -1.9890 C   0  0  0  0  0  0  0  0  0  0  0  0
   -1.6290   -1.3000   -1.5940 N   0  0  0  0  0  0  0  0  0  0  0  0
   -2.6940   -1.0210   -2.4850 C   0  0  0  0  0  0  0  0  0  0  0  0
   -3.9920   -1.1600   -2.4500 C   0  0  0  0  0  0  0  0  0  0  0  0
   -4.7070   -0.6760   -3.7260 C   0  0  0  0  0  0  0  0  0  0  0  0
   -4.8950   -1.7340   -1.4250 C   0  0  0  0  0  0  0  0  0  0  0  0
   -4.3490   -2.6370   -0.5100 N   0  0  0  0  0  0  0  0  0  0  0  0
   -4.5230   -2.5970    0.8630 C   0  0  0  0  0  0  0  0  0  0  0  0
   -5.6870   -2.1070    1.5820 C   0  0  2  0  0  0  0  0  0  0  0  0
   -6.7180   -3.2180    1.8910 C   0  0  0  0  0  0  0  0  0  0  0  0
   -7.8030   -2.6930    2.5760 O   0  0  0  0  0  0  0  0  0  0  0  0
   -6.3450   -0.8530    1.2300 C   0  0  0  0  0  0  0  0  0  0  0  0
   -6.0930    0.3940    1.4150 C   0  0  0  0  0  0  0  0  0  0  0  0
   -4.9410    1.0510    2.1130 C   0  0  2  0  0  0  0  0  0  0  0  0
   -5.2870    2.4970    2.4220 C   0  0  0  0  0  0  0  0  0  0  0  0
   -5.2750    3.3200    1.1510 C   0  0  0  0  0  0  0  0  0  0  0  0
   -3.9650    3.1900    0.4560 C   0  0  0  0  0  0  0  0  0  0  0  0
   -3.5090    4.3180   -0.2450 C   0  0  0  0  0  0  0  0  0  0  0  0
   -2.2960    4.2000   -0.8720 C   0  0  0  0  0  0  0  0  0  0  0  0
   -1.5660    3.0320   -0.8140 C   0  0  0  0  0  0  0  0  0  0  0  0
   -1.9990    1.9010   -0.1260 C   0  0  0  0  0  0  0  0  0  0  0  0
   -3.2350    2.0350    0.5080 C   0  0  0  0  0  0  0  0  0  0  0  0
   -3.7560    0.8930    1.2470 C   0  0  0  0  0  0  0  0  0  0  0  0
   -1.1430    0.7790   -0.1080 N   0  0  0  0  0  0  0  0  0  0  0  0
   -1.2930   -0.5700   -0.3920 C   0  0  0  0  0  0  0  0  0  0  0  0
   -1.0890   -1.3610    0.6210 O   0  0  0  0  0  0  0  0  0  0  0  0
    2.2800   -1.2600   -1.6490 O   0  0  0  0  0  0  0  0  0  0  0  0
  1  2  1  0
  2  3  1  0
  3  4  1  0
  4  5  2  0
  6  4  1  6
  6  7  1  0
  6 10  1  0
  7  8  1  0
  8  9  1  0
  9 10  1  0
 10 11  1  0
 11 12  2  0
 11 13  1  0
 13 14  2  3
 14 15  1  0
 15 16  2  0
 15 46  1  0
 16 17  1  0
 17 18  2  0
 18 19  1  0
 18 46  1  0
 19 20  1  0
 20 21  1  0
 21 22  1  0
 21 44  1  0
 22 23  2  0
 23 24  1  0
 23 25  1  0
 25 26  1  0
 26 27  1  0
 27 28  1  0
 28 29  1  6
 28 31  1  0
 29 30  1  0
 31 32  2  0
 32 33  1  0
 33 34  1  6
 33 42  1  0
 34 35  1  0
 35 36  1  0
 36 37  1  0
 36 41  2  0
 37 38  2  0
 38 39  1  0
 39 40  2  0
 40 41  1  0
 40 43  1  0
 41 42  1  0
 43 44  1  0
 44 45  2  0
M  CHG  1  26   1
M  END
