
     RDKit          3D

 46 50  0  0  0  0  0  0  0  0999 V2000
   -8.0110    1.8590    0.6790 C   0  0  0  0  0  0  0  0  0  0  0  0
   -7.1720    2.0340   -0.3230 C   0  0  0  0  0  0  0  0  0  0  0  0
   -6.7360    3.3270   -0.5960 O   0  0  0  0  0  0  0  0  0  0  0  0
   -5.8600    3.6090   -1.6250 C   0  0  0  0  0  0  0  0  0  0  0  0
   -5.4200    2.6160   -2.3760 C   0  0  0  0  0  0  0  0  0  0  0  0
   -5.8360    1.2460   -2.1420 C   0  0  0  0  0  0  0  0  0  0  0  0
   -6.6880    0.9370   -1.1480 C   0  0  0  0  0  0  0  0  0  0  0  0
   -7.1100   -0.4570   -0.9270 C   0  0  0  0  0  0  0  0  0  0  0  0
   -6.7450   -0.9830    0.3660 N   0  0  0  0  0  0  0  0  0  0  0  0
   -5.9440   -2.1510    0.2080 C   0  0  2  0  0  0  0  0  0  0  0  0
   -6.4030   -3.2770    1.1090 C   0  0  0  0  0  0  0  0  0  0  0  0
   -7.7970   -3.6400    0.7640 C   0  0  0  0  0  0  0  0  0  0  0  0
   -8.4270   -4.4990    1.4790 O   0  0  0  0  0  0  0  0  0  0  0  0
   -8.5090   -3.1260   -0.2900 O   0  0  0  0  0  0  0  0  0  0  0  0
   -9.8540   -3.5110   -0.5830 C   0  0  0  0  0  0  0  0  0  0  0  0
   -4.5050   -1.8860    0.3410 C   0  0  0  0  0  0  0  0  0  0  0  0
   -3.7750   -2.9370    0.2960 O   0  0  0  0  0  0  0  0  0  0  0  0
   -3.8790   -0.6430    0.5040 N   0  0  0  0  0  0  0  0  0  0  0  0
   -2.4670   -0.5120    0.6290 C   0  0  0  0  0  0  0  0  0  0  0  0
   -1.6140   -1.4910    1.0650 C   0  0  0  0  0  0  0  0  0  0  0  0
   -0.2300   -1.3290    1.1320 C   0  0  0  0  0  0  0  0  0  0  0  0
    0.3000   -0.1230    0.7410 C   0  0  0  0  0  0  0  0  0  0  0  0
   -0.5460    0.8960    0.2940 C   0  0  0  0  0  0  0  0  0  0  0  0
   -1.8860    0.7050    0.2410 C   0  0  0  0  0  0  0  0  0  0  0  0
    0.1420    2.1540   -0.0950 C   0  0  0  0  0  0  0  0  0  0  0  0
    1.1190    2.5030    1.0130 C   0  0  0  0  0  0  0  0  0  0  0  0
    2.2020    1.4610    1.0430 C   0  0  0  0  0  0  0  0  0  0  0  0
    1.6960    0.1280    0.7610 N   0  0  0  0  0  0  0  0  0  0  0  0
    2.5940   -0.9170    0.4940 C   0  0  0  0  0  0  0  0  0  0  0  0
    2.1930   -2.0570    0.1870 O   0  0  0  0  0  0  0  0  0  0  0  0
    4.0530   -0.7680    0.5530 C   0  0  0  0  0  0  0  0  0  0  0  0
    4.7860   -0.4390   -0.5630 C   0  0  0  0  0  0  0  0  0  0  0  0
    6.1820   -0.3210   -0.4890 C   0  0  0  0  0  0  0  0  0  0  0  0
    6.9530    0.0140   -1.6920 C   0  0  0  0  0  0  0  0  0  0  0  0
    8.2730    0.5010   -1.3800 N   0  0  0  0  0  0  0  0  0  0  0  0
    8.5190    1.9010   -1.2640 C   0  0  0  0  0  0  0  0  0  0  0  0
    8.5600    2.4480    0.1310 C   0  0  0  0  0  0  0  0  0  0  0  0
    9.7040    1.9070    0.9620 C   0  0  0  0  0  0  0  0  0  0  0  0
   11.0120    1.1970   -0.0510 S   0  0  0  0  0  0  0  0  0  0  0  0
   10.6260   -0.4690   -0.6190 C   0  0  0  0  0  0  0  0  0  0  0  0
    9.2790   -0.5250   -1.2300 C   0  0  0  0  0  0  0  0  0  0  0  0
    8.9520   -1.6550   -1.7000 O   0  0  0  0  0  0  0  0  0  0  0  0
    6.8380   -0.5320    0.7040 C   0  0  0  0  0  0  0  0  0  0  0  0
    6.1060   -0.8620    1.8270 C   0  0  0  0  0  0  0  0  0  0  0  0
    4.7250   -0.9750    1.7360 C   0  0  0  0  0  0  0  0  0  0  0  0
    3.9740   -1.3010    2.8370 F   0  0  0  0  0  0  0  0  0  0  0  0
  1  2  2  0
  2  3  1  0
  2  7  1  0
  3  4  1  0
  4  5  2  0
  5  6  1  0
  6  7  2  0
  7  8  1  0
  8  9  1  0
  9 10  1  0
 10 11  1  1
 10 16  1  0
 11 12  1  0
 12 13  2  0
 12 14  1  0
 14 15  1  0
 16 17  2  0
 16 18  1  0
 18 19  1  0
 19 20  2  0
 19 24  1  0
 20 21  1  0
 21 22  2  0
 22 23  1  0
 22 28  1  0
 23 24  2  0
 23 25  1  0
 25 26  1  0
 26 27  1  0
 27 28  1  0
 28 29  1  0
 29 30  2  0
 29 31  1  0
 31 32  2  0
 31 45  1  0
 32 33  1  0
 33 34  1  0
 33 43  2  0
 34 35  1  0
 35 36  1  0
 35 41  1  0
 36 37  1  0
 37 38  1  0
 38 39  1  0
 39 40  1  0
 40 41  1  0
 41 42  2  0
 43 44  1  0
 44 45  2  0
 45 46  1  0
M  CHG  1   9   1
M  END
