
     RDKit          3D

 46 49  0  0  0  0  0  0  0  0999 V2000
   -4.1100   -1.2190   -2.2320 C   0  0  0  0  0  0  0  0  0  0  0  0
   -5.3850   -1.9060   -1.7850 C   0  0  0  0  0  0  0  0  0  0  0  0
   -6.3720   -0.9820   -1.2130 C   0  0  0  0  0  0  0  0  0  0  0  0
   -6.0140   -0.2390    0.0580 C   0  0  1  0  0  0  0  0  0  0  0  0
   -7.1500    0.6520    0.3990 C   0  0  0  0  0  0  0  0  0  0  0  0
   -7.5370    1.0480    1.5000 O   0  0  0  0  0  0  0  0  0  0  0  0
   -7.9200    1.1310   -0.6990 O   0  0  0  0  0  0  0  0  0  0  0  0
   -9.0310    1.9930   -0.4570 C   0  0  0  0  0  0  0  0  0  0  0  0
   -5.4900   -0.9910    1.0820 N   0  0  0  0  0  0  0  0  0  0  0  0
   -6.2740   -2.0880    1.5940 C   0  0  0  0  0  0  0  0  0  0  0  0
   -7.4830   -1.8220    2.3770 C   0  0  0  0  0  0  0  0  0  0  0  0
   -7.1900   -1.0940    3.5230 O   0  0  0  0  0  0  0  0  0  0  0  0
   -4.1310   -1.1150    1.4200 C   0  0  0  0  0  0  0  0  0  0  0  0
   -3.4070    0.0300    1.8980 C   0  0  0  0  0  0  0  0  0  0  0  0
   -3.9980    1.2660    2.0780 C   0  0  0  0  0  0  0  0  0  0  0  0
   -3.3270    2.3700    2.6400 C   0  0  0  0  0  0  0  0  0  0  0  0
   -2.0100    2.1910    3.0270 C   0  0  0  0  0  0  0  0  0  0  0  0
   -1.4100    0.9740    2.8540 C   0  0  0  0  0  0  0  0  0  0  0  0
   -2.0840   -0.1310    2.2890 C   0  0  0  0  0  0  0  0  0  0  0  0
   -1.3220   -1.3380    2.0680 C   0  0  0  0  0  0  0  0  0  0  0  0
   -0.2780   -1.2900    0.9760 C   0  0  0  0  0  0  0  0  0  0  0  0
   -0.6170   -1.0330   -0.3400 N   0  0  0  0  0  0  0  0  0  0  0  0
   -0.2120    0.1860   -0.9390 C   0  0  1  0  0  0  0  0  0  0  0  0
    1.2100    0.5350   -0.9360 C   0  0  0  0  0  0  0  0  0  0  0  0
    2.2340   -0.2300   -0.4850 C   0  0  0  0  0  0  0  0  0  0  0  0
    3.5450    0.2290   -0.5300 C   0  0  0  0  0  0  0  0  0  0  0  0
    4.6590   -0.5540    0.0170 C   0  0  0  0  0  0  0  0  0  0  0  0
    5.9020   -0.1360   -0.0650 C   0  0  0  0  0  0  0  0  0  0  0  0
    7.0280   -0.8720    0.4650 C   0  0  0  0  0  0  0  0  0  0  0  0
    8.2800   -0.4610    0.3780 C   0  0  0  0  0  0  0  0  0  0  0  0
    9.3930   -1.2100    0.9190 C   0  0  0  0  0  0  0  0  0  0  0  0
   10.6540   -0.8700    0.8680 C   0  0  0  0  0  0  0  0  0  0  0  0
   11.0620    0.3570    0.2240 C   0  0  0  0  0  0  0  0  0  0  0  0
   12.3310    0.6810    0.1820 C   0  0  0  0  0  0  0  0  0  0  0  0
   12.9720    1.7660   -0.3570 O   0  0  0  0  0  0  0  0  0  0  0  0
   14.2970    1.8570   -0.2640 C   0  0  0  0  0  0  0  0  0  0  0  0
   14.9580    0.9030    0.3440 C   0  0  0  0  0  0  0  0  0  0  0  0
   13.7200   -0.2700    0.8690 S   0  0  0  0  0  0  0  0  0  0  0  0
    3.7390    1.4660   -1.0450 N   0  0  0  0  0  0  0  0  0  0  0  0
    2.7220    2.2170   -1.4910 C   0  0  0  0  0  0  0  0  0  0  0  0
    2.9660    3.3750   -1.9680 O   0  0  0  0  0  0  0  0  0  0  0  0
    1.4710    1.7750   -1.4440 N   0  0  0  0  0  0  0  0  0  0  0  0
    0.3240    2.5650   -1.9240 C   0  0  0  0  0  0  0  0  0  0  0  0
   -0.5740    1.7390   -2.8060 C   0  0  0  0  0  0  0  0  0  0  0  0
   -0.5870    0.2660   -2.4320 C   0  0  1  0  0  0  0  0  0  0  0  0
    0.4970   -0.3250   -3.1180 O   0  0  0  0  0  0  0  0  0  0  0  0
  1  2  1  0
  2  3  1  0
  4  3  1  6
  4  5  1  0
  4  9  1  0
  5  6  2  0
  5  7  1  0
  7  8  1  0
  9 10  1  0
  9 13  1  0
 10 11  1  0
 11 12  1  0
 13 14  1  0
 14 15  2  0
 14 19  1  0
 15 16  1  0
 16 17  2  0
 17 18  1  0
 18 19  2  0
 19 20  1  0
 20 21  1  0
 21 22  1  0
 23 22  1  6
 23 24  1  0
 23 45  1  0
 24 25  2  0
 24 42  1  0
 25 26  1  0
 26 27  1  0
 26 39  2  0
 27 28  2  3
 28 29  1  0
 29 30  2  3
 30 31  1  0
 31 32  2  3
 32 33  1  0
 33 34  2  3
 34 35  1  0
 34 38  1  0
 35 36  1  0
 36 37  2  0
 37 38  1  0
 39 40  1  0
 40 41  2  0
 40 42  1  0
 42 43  1  0
 43 44  1  0
 44 45  1  0
 45 46  1  6
M  CHG  1  22   1
M  END
