
     RDKit          3D

 46 50  0  0  0  0  0  0  0  0999 V2000
    9.7510   -1.8260    2.3150 C   0  0  0  0  0  0  0  0  0  0  0  0
    9.3710   -1.2300    1.2000 C   0  0  0  0  0  0  0  0  0  0  0  0
    7.9600   -0.8530    1.0000 C   0  0  0  0  0  0  0  0  0  0  0  0
    7.8550    0.5910    0.8090 N   0  0  2  0  0  0  0  0  0  0  0  0
    8.6490    1.2590    1.8220 C   0  0  0  0  0  0  0  0  0  0  0  0
    7.9620    2.5790    2.0970 C   0  0  0  0  0  0  0  0  0  0  0  0
    6.7370    2.5550    1.2110 C   0  0  0  0  0  0  0  0  0  0  0  0
    6.5140    1.0630    1.0500 C   0  0  1  0  0  0  0  0  0  0  0  0
    5.6210    0.7920   -0.1190 C   0  0  0  0  0  0  0  0  0  0  0  0
    6.1530    0.2480   -1.1080 O   0  0  0  0  0  0  0  0  0  0  0  0
    4.2690    1.1130   -0.1430 N   0  0  0  0  0  0  0  0  0  0  0  0
    3.3390    0.9170   -1.1990 C   0  0  0  0  0  0  0  0  0  0  0  0
    3.8210    0.3760   -2.4950 C   0  0  0  0  0  0  0  0  0  0  0  0
    2.0740    1.2670   -1.0570 C   0  0  0  0  0  0  0  0  0  0  0  0
    1.0000    1.1330   -2.0230 C   0  0  0  0  0  0  0  0  0  0  0  0
    0.7570    0.2430   -3.0560 C   0  0  0  0  0  0  0  0  0  0  0  0
   -0.3720    0.3390   -3.8680 C   0  0  0  0  0  0  0  0  0  0  0  0
   -0.6240   -0.5470   -4.9050 O   0  0  0  0  0  0  0  0  0  0  0  0
    0.2670   -1.6180   -5.1970 C   0  0  0  0  0  0  0  0  0  0  0  0
   -1.2480    1.3710   -3.5950 C   0  0  0  0  0  0  0  0  0  0  0  0
   -1.0090    2.2560   -2.5680 C   0  0  0  0  0  0  0  0  0  0  0  0
    0.1020    2.1680   -1.7620 C   0  0  0  0  0  0  0  0  0  0  0  0
    0.6100    2.8720   -0.6840 O   0  0  0  0  0  0  0  0  0  0  0  0
    1.3700    1.9430    0.0870 C   0  0  1  0  0  0  0  0  0  0  0  0
    0.4670    0.9880    0.7810 C   0  0  0  0  0  0  0  0  0  0  0  0
    0.9840    0.0200    1.3920 O   0  0  0  0  0  0  0  0  0  0  0  0
   -0.9380    1.1100    0.7920 N   0  0  0  0  0  0  0  0  0  0  0  0
   -1.8690    0.2490    1.4060 C   0  0  0  0  0  0  0  0  0  0  0  0
   -1.6120   -1.0540    1.7210 C   0  0  0  0  0  0  0  0  0  0  0  0
   -2.5440   -1.8720    2.3480 C   0  0  0  0  0  0  0  0  0  0  0  0
   -3.7690   -1.3590    2.6650 C   0  0  0  0  0  0  0  0  0  0  0  0
   -4.7360   -2.2640    3.3340 C   0  0  0  0  0  0  0  0  0  0  0  0
   -4.0850   -0.0670    2.3770 C   0  0  0  0  0  0  0  0  0  0  0  0
   -5.6590    0.5520    2.8200 S   0  0  1  0  0  0  0  0  0  0  0  0
   -5.7340    0.4270    4.3360 O   0  0  0  0  0  0  0  0  0  0  0  0
   -5.7550    2.0400    2.5460 O   0  0  0  0  0  0  0  0  0  0  0  0
   -6.9220   -0.3160    2.0840 N   0  0  0  0  0  0  0  0  0  0  0  0
   -7.1240   -0.4160    0.6880 C   0  0  0  0  0  0  0  0  0  0  0  0
   -6.3430    0.2430   -0.2180 C   0  0  0  0  0  0  0  0  0  0  0  0
   -6.5740    0.1220   -1.5630 C   0  0  0  0  0  0  0  0  0  0  0  0
   -7.6030   -0.6690   -2.0330 C   0  0  0  0  0  0  0  0  0  0  0  0
   -8.4140   -1.3500   -1.1500 C   0  0  0  0  0  0  0  0  0  0  0  0
   -9.5210   -2.1950   -1.6730 C   0  0  0  0  0  0  0  0  0  0  0  0
   -8.1490   -1.2030    0.1880 C   0  0  0  0  0  0  0  0  0  0  0  0
   -9.0190   -1.9400    1.1700 C   0  0  0  0  0  0  0  0  0  0  0  0
   -3.1410    0.7280    1.7520 C   0  0  0  0  0  0  0  0  0  0  0  0
  1  2  2  0
  2  3  1  0
  4  3  1  1
  4  5  1  0
  4  8  1  0
  5  6  1  0
  6  7  1  0
  7  8  1  0
  8  9  1  6
  9 10  2  0
  9 11  1  0
 11 12  1  0
 12 13  1  0
 12 14  2  3
 14 15  1  0
 14 24  1  0
 15 16  2  0
 15 22  1  0
 16 17  1  0
 17 18  1  0
 17 20  2  0
 18 19  1  0
 20 21  1  0
 21 22  2  0
 22 23  1  0
 23 24  1  0
 24 25  1  6
 25 26  2  0
 25 27  1  0
 27 28  1  0
 28 29  2  0
 28 46  1  0
 29 30  1  0
 30 31  2  0
 31 32  1  0
 31 33  1  0
 33 34  1  0
 33 46  2  0
 34 35  2  0
 34 36  2  0
 34 37  1  6
 37 38  1  0
 38 39  2  0
 38 44  1  0
 39 40  1  0
 40 41  2  0
 41 42  1  0
 42 43  1  0
 42 44  2  0
 44 45  1  0
M  CHG  1   4   1
M  END
