
     RDKit          3D

 46 50  0  0  0  0  0  0  0  0999 V2000
   12.2110    2.5400   -0.3390 C   0  0  0  0  0  0  0  0  0  0  0  0
   10.7760    1.9980   -0.4530 C   0  0  0  0  0  0  0  0  0  0  0  0
   10.0300    2.2540    0.8170 C   0  0  0  0  0  0  0  0  0  0  0  0
    8.7350    1.7950    0.8410 O   0  0  0  0  0  0  0  0  0  0  0  0
    8.3100    0.5010    0.8060 C   0  0  0  0  0  0  0  0  0  0  0  0
    9.1800   -0.5560    0.7850 C   0  0  0  0  0  0  0  0  0  0  0  0
    8.6470   -1.8350    0.7440 C   0  0  0  0  0  0  0  0  0  0  0  0
    7.3020   -2.0890    0.7250 C   0  0  0  0  0  0  0  0  0  0  0  0
    6.4130   -1.0230    0.7470 C   0  0  0  0  0  0  0  0  0  0  0  0
    4.9500   -1.3120    0.7110 C   0  0  0  0  0  0  0  0  0  0  0  0
    4.1240   -0.3380    0.7900 C   0  0  0  0  0  0  0  0  0  0  0  0
    2.6590   -0.3430    0.7760 C   0  0  0  0  0  0  0  0  0  0  0  0
    2.0620   -1.4080    0.6650 O   0  0  0  0  0  0  0  0  0  0  0  0
    1.8980    0.8350    0.8860 N   0  0  0  0  0  0  0  0  0  0  0  0
    0.5180    1.0130    0.8860 N   0  0  0  0  0  0  0  0  0  0  0  0
    0.0780    2.3060    1.0530 C   0  0  0  0  0  0  0  0  0  0  0  0
    0.9490    3.2360    1.2030 O   0  0  0  0  0  0  0  0  0  0  0  0
   -1.1980    2.6640    1.0710 N   0  0  0  0  0  0  0  0  0  0  0  0
   -2.1750    1.7500    0.9200 C   0  0  0  0  0  0  0  0  0  0  0  0
   -3.5050    2.0660    0.9290 C   0  0  0  0  0  0  0  0  0  0  0  0
   -4.4560    1.0780    0.7670 C   0  0  0  0  0  0  0  0  0  0  0  0
   -5.8860    1.4780    0.7860 C   0  0  1  0  0  0  0  0  0  0  0  0
   -6.0910    2.4150   -0.3850 C   0  0  0  0  0  0  0  0  0  0  0  0
   -6.3500    1.5690   -1.6040 C   0  0  2  0  0  0  0  0  0  0  0  0
   -6.1040    2.2530   -2.9030 C   0  0  0  0  0  0  0  0  0  0  0  0
   -7.7200    1.0490   -1.4690 N   0  0  0  0  0  0  0  0  0  0  0  0
   -7.6570    0.1380   -0.3800 C   0  0  0  0  0  0  0  0  0  0  0  0
   -8.4720   -0.9670   -0.3810 C   0  0  0  0  0  0  0  0  0  0  0  0
   -8.4860   -1.9030    0.6240 C   0  0  0  0  0  0  0  0  0  0  0  0
   -9.3980   -3.0840    0.5610 C   0  0  0  0  0  0  0  0  0  0  0  0
  -10.6960   -2.6700    1.2370 C   0  0  0  0  0  0  0  0  0  0  0  0
   -7.6320   -1.7250    1.6990 C   0  0  0  0  0  0  0  0  0  0  0  0
   -6.8080   -0.6220    1.7140 C   0  0  0  0  0  0  0  0  0  0  0  0
   -6.8020    0.3170    0.6940 C   0  0  0  0  0  0  0  0  0  0  0  0
   -4.0410   -0.2310    0.5960 C   0  0  0  0  0  0  0  0  0  0  0  0
   -2.7010   -0.5730    0.5840 C   0  0  0  0  0  0  0  0  0  0  0  0
   -1.7850    0.4460    0.7500 C   0  0  0  0  0  0  0  0  0  0  0  0
   -0.4240    0.1040    0.7370 C   0  0  0  0  0  0  0  0  0  0  0  0
   -0.1250   -1.1020    0.5770 O   0  0  0  0  0  0  0  0  0  0  0  0
    4.5460   -2.7040    0.6100 C   0  0  0  0  0  0  0  0  0  0  0  0
    5.0620   -3.5220   -0.9100 S   0  0  0  0  0  0  0  0  0  0  0  0
    4.2490   -2.8580   -2.3690 C   0  0  0  0  0  0  0  0  0  0  0  0
    2.7880   -3.1370   -2.3690 C   0  0  0  0  0  0  0  0  0  0  0  0
    2.3300   -3.7720   -1.3940 O   0  0  0  0  0  0  0  0  0  0  0  0
    2.0360   -2.6870   -3.4250 O   0  0  0  0  0  0  0  0  0  0  0  0
    6.9190    0.2380    0.7870 C   0  0  0  0  0  0  0  0  0  0  0  0
  1  2  1  0
  2  3  1  0
  3  4  1  0
  4  5  1  0
  5  6  2  0
  5 46  1  0
  6  7  1  0
  7  8  2  0
  8  9  1  0
  9 10  1  0
  9 46  2  0
 10 11  2  3
 10 40  1  0
 11 12  1  0
 12 13  2  0
 12 14  1  0
 14 15  1  0
 15 16  1  0
 15 38  1  0
 16 17  2  0
 16 18  1  0
 18 19  1  0
 19 20  2  0
 19 37  1  0
 20 21  1  0
 22 21  1  6
 21 35  2  0
 22 23  1  0
 22 34  1  0
 23 24  1  0
 24 25  1  6
 24 26  1  0
 26 27  1  0
 27 28  2  0
 27 34  1  0
 28 29  1  0
 29 30  1  0
 29 32  2  0
 30 31  1  0
 32 33  1  0
 33 34  2  0
 35 36  1  0
 36 37  2  0
 37 38  1  0
 38 39  2  0
 40 41  1  0
 41 42  1  0
 42 43  1  0
 43 44  2  0
 43 45  1  0
M  CHG  2  26   1  45  -1
M  END
