
     RDKit          3D

 11 10  0  0  0  0  0  0  0  0999 V2000
    3.6230    0.3270    0.5700 C   0  0  0  0  0  0  0  0  0  0  0  0
    2.4440   -0.1350   -0.2440 C   0  0  0  0  0  0  0  0  0  0  0  0
    1.3100    0.0640    0.4820 O   0  0  0  0  0  0  0  0  0  0  0  0
   -0.0890   -0.4410   -0.3810 P   0  0  0  0  0  0  0  0  0  0  0  0
   -0.4830    1.0240   -0.4440 O   0  0  0  0  0  0  0  0  0  0  0  0
    0.0010   -0.7270   -1.9590 O   0  0  0  0  0  0  0  0  0  0  0  0
   -1.3650   -0.8840    0.5540 O   0  0  0  0  0  0  0  0  0  0  0  0
   -2.6910   -0.1400    0.6300 P   0  0  0  0  0  0  0  0  0  0  0  0
   -3.3850   -1.1940    1.6810 O   0  0  0  0  0  0  0  0  0  0  0  0
   -2.8480   -0.4820   -1.0140 O   0  0  0  0  0  0  0  0  0  0  0  0
   -2.0450    1.2430    1.1610 O   0  0  0  0  0  0  0  0  0  0  0  0
  1  2  1  0
  2  3  1  0
  3  4  1  0
  4  5  1  0
  4  6  1  0
  4  7  1  0
  7  8  1  0
  8  9  1  0
  8 10  1  0
  8 11  1  0
M  END
