
     RDKit          3D

 27 28  0  0  0  0  0  0  0  0999 V2000
    2.1630    4.7380    1.3040 O   0  0  0  0  0  0  0  0  0  0  0  0
    1.9650    4.7710    0.0410 C   0  0  0  0  0  0  0  0  0  0  0  0
    2.0070    3.5990   -0.7430 N   0  0  0  0  0  0  0  0  0  0  0  0
    1.2020    2.6080   -0.5360 C   0  0  0  0  0  0  0  0  0  0  0  0
    0.2300    2.6570    0.5020 N   0  0  0  0  0  0  0  0  0  0  0  0
   -0.6140    1.5320    0.6660 C   0  0  0  0  0  0  0  0  0  0  0  0
   -1.7070    1.6860    1.2550 O   0  0  0  0  0  0  0  0  0  0  0  0
   -0.2470    0.1980    0.1670 C   0  0  1  0  0  0  0  0  0  0  0  0
   -1.3740   -0.4960   -0.4350 N   0  0  0  0  0  0  0  0  0  0  0  0
   -1.2250   -1.8280   -0.9840 C   0  0  0  0  0  0  0  0  0  0  0  0
   -2.1770   -2.7610   -0.2970 C   0  0  0  0  0  0  0  0  0  0  0  0
   -3.3290   -2.0520    0.2120 N   0  0  0  0  0  0  0  0  0  0  0  0
   -3.6700   -0.7380   -0.2130 C   0  0  0  0  0  0  0  0  0  0  0  0
   -5.0720   -0.3310   -0.2650 C   0  0  0  0  0  0  0  0  0  0  0  0
   -5.8220   -1.1220   -1.1270 O   0  0  0  0  0  0  0  0  0  0  0  0
   -7.0680   -0.7820   -1.1910 O   0  0  0  0  0  0  0  0  0  0  0  0
   -2.6660    0.0410   -0.5380 N   0  0  0  0  0  0  0  0  0  0  0  0
    0.9670    0.1960   -0.7060 C   0  0  2  0  0  0  0  0  0  0  0  0
    2.2350   -0.1780    0.0660 C   0  0  0  0  0  0  0  0  0  0  0  0
    2.0440   -1.3890    0.6720 O   0  0  0  0  0  0  0  0  0  0  0  0
    3.0830   -1.8650    1.4100 C   0  0  0  0  0  0  0  0  0  0  0  0
    4.3020   -2.0420    0.5470 C   0  0  0  0  0  0  0  0  0  0  0  0
    4.0490   -2.9390   -0.4840 O   0  0  0  0  0  0  0  0  0  0  0  0
    5.1670   -3.0440   -1.2010 O   0  0  0  0  0  0  0  0  0  0  0  0
    1.2370    1.4520   -1.3030 O   0  0  0  0  0  0  0  0  0  0  0  0
    1.7090    6.0220   -0.4990 O   0  0  0  0  0  0  0  0  0  0  0  0
    1.6800    7.1050    0.2850 O   0  0  0  0  0  0  0  0  0  0  0  0
  1  2  2  0
  2  3  1  0
  2 26  1  0
  3  4  2  3
  4  5  1  0
  4 25  1  0
  5  6  1  0
  6  7  2  0
  6  8  1  0
  8  9  1  6
  8 18  1  0
  9 10  1  0
  9 17  1  0
 10 11  1  0
 11 12  1  0
 12 13  1  0
 13 14  1  0
 13 17  2  0
 14 15  1  0
 15 16  1  0
 18 19  1  1
 18 25  1  0
 19 20  1  0
 20 21  1  0
 21 22  1  0
 22 23  1  0
 23 24  1  0
 26 27  1  0
M  END
