
     RDKit          3D

 27 29  0  0  0  0  0  0  0  0999 V2000
   -5.3820   -3.9210    1.3630 O   0  0  0  0  0  0  0  0  0  0  0  0
   -4.3950   -3.4350    0.7390 C   0  0  0  0  0  0  0  0  0  0  0  0
   -3.3570   -4.3340    0.1200 C   0  0  0  0  0  0  0  0  0  0  0  0
   -2.0860   -3.8350    0.5030 O   0  0  0  0  0  0  0  0  0  0  0  0
   -1.8480   -2.4550    0.3330 C   0  0  0  0  0  0  0  0  0  0  0  0
   -0.6030   -2.0020    0.1360 N   0  0  0  0  0  0  0  0  0  0  0  0
   -0.3690   -0.6480   -0.0310 C   0  0  0  0  0  0  0  0  0  0  0  0
    0.9950   -0.2160   -0.2500 C   0  0  0  0  0  0  0  0  0  0  0  0
    1.5450    0.9640   -0.4410 N   0  0  0  0  0  0  0  0  0  0  0  0
    2.8320    0.8890   -0.5970 O   0  0  0  0  0  0  0  0  0  0  0  0
    3.2000   -0.3660   -0.5150 C   0  0  0  0  0  0  0  0  0  0  0  0
    4.5790   -0.8640   -0.6400 C   0  0  0  0  0  0  0  0  0  0  0  0
    5.5030    0.2940   -0.8770 C   0  0  0  0  0  0  0  0  0  0  0  0
    6.8320   -0.1070   -1.0060 O   0  0  0  0  0  0  0  0  0  0  0  0
    7.6140    0.9270   -1.2120 O   0  0  0  0  0  0  0  0  0  0  0  0
    2.0600   -1.0770   -0.2970 N   0  0  0  0  0  0  0  0  0  0  0  0
   -1.4090    0.2330    0.0050 C   0  0  0  0  0  0  0  0  0  0  0  0
   -1.2550    1.6830   -0.1430 C   0  0  1  0  0  0  0  0  0  0  0  0
   -1.7430    2.0080   -1.4330 O   0  0  0  0  0  0  0  0  0  0  0  0
   -2.1080    2.4170    0.8710 C   0  0  0  0  0  0  0  0  0  0  0  0
   -1.8520    2.2740    2.0840 O   0  0  0  0  0  0  0  0  0  0  0  0
   -3.1800    3.2570    0.5010 N   0  0  0  0  0  0  0  0  0  0  0  0
   -3.9410    3.9130    1.4270 O   0  0  0  0  0  0  0  0  0  0  0  0
   -3.6310    5.1870    1.3160 O   0  0  0  0  0  0  0  0  0  0  0  0
   -2.6660   -0.2890    0.2090 N   0  0  0  0  0  0  0  0  0  0  0  0
   -2.9150   -1.5880    0.3720 C   0  0  0  0  0  0  0  0  0  0  0  0
   -4.1900   -2.0850    0.5770 O   0  0  0  0  0  0  0  0  0  0  0  0
  1  2  2  0
  2  3  1  0
  2 27  1  0
  3  4  1  0
  4  5  1  0
  5  6  2  0
  5 26  1  0
  6  7  1  0
  7  8  1  0
  7 17  2  0
  8  9  2  0
  8 16  1  0
  9 10  1  0
 10 11  1  0
 11 12  1  0
 11 16  2  0
 12 13  1  0
 13 14  1  0
 14 15  1  0
 17 18  1  0
 17 25  1  0
 18 19  1  6
 18 20  1  0
 20 21  2  0
 20 22  1  0
 22 23  1  0
 23 24  1  0
 25 26  2  0
 26 27  1  0
M  END
