
     RDKit          3D

 27 28  0  0  0  0  0  0  0  0999 V2000
   -5.5330    0.6640    0.1350 C   0  0  0  0  0  0  0  0  0  0  0  0
   -4.1660    0.3110    0.6040 C   0  0  0  0  0  0  0  0  0  0  0  0
   -3.3450    1.2520    1.1130 N   0  0  0  0  0  0  0  0  0  0  0  0
   -2.1030    0.9210    1.5360 C   0  0  0  0  0  0  0  0  0  0  0  0
   -1.2940    1.9280    2.0530 O   0  0  0  0  0  0  0  0  0  0  0  0
   -0.3810    2.5880    1.2960 O   0  0  0  0  0  0  0  0  0  0  0  0
    0.7770    1.8900    1.0920 C   0  0  0  0  0  0  0  0  0  0  0  0
    1.0370    0.7300    1.5320 O   0  0  0  0  0  0  0  0  0  0  0  0
    1.8440    2.3930    0.3590 N   0  0  0  0  0  0  0  0  0  0  0  0
    2.9660    1.6080    0.1290 C   0  0  0  0  0  0  0  0  0  0  0  0
    4.0170    2.4050   -0.0620 N   0  0  0  0  0  0  0  0  0  0  0  0
    5.1920    1.5870   -0.2740 C   0  0  0  0  0  0  0  0  0  0  0  0
    6.1220    1.4830    0.5430 O   0  0  0  0  0  0  0  0  0  0  0  0
    5.1370    0.8760   -1.6090 C   0  0  0  0  0  0  0  0  0  0  0  0
    3.7890    0.2830   -1.6580 N   0  0  0  0  0  0  0  0  0  0  0  0
    3.3660    0.2500   -0.2390 C   0  0  2  0  0  0  0  0  0  0  0  0
    2.4920   -0.8160   -0.0520 O   0  0  0  0  0  0  0  0  0  0  0  0
    2.8290   -1.8110    0.8390 C   0  0  0  0  0  0  0  0  0  0  0  0
    3.9410   -1.6860    1.4560 O   0  0  0  0  0  0  0  0  0  0  0  0
    2.0620   -2.9240    1.1120 O   0  0  0  0  0  0  0  0  0  0  0  0
   -1.6440   -0.3380    1.4670 N   0  0  0  0  0  0  0  0  0  0  0  0
   -2.4650   -1.2960    0.9550 C   0  0  0  0  0  0  0  0  0  0  0  0
   -3.7400   -1.0040    0.5110 C   0  0  0  0  0  0  0  0  0  0  0  0
   -4.5730   -1.9840   -0.0100 O   0  0  0  0  0  0  0  0  0  0  0  0
   -4.5960   -2.2770   -1.3800 C   0  0  0  0  0  0  0  0  0  0  0  0
   -3.8300   -1.6130   -2.1180 O   0  0  0  0  0  0  0  0  0  0  0  0
   -5.4420   -3.2700   -1.8990 O   0  0  0  0  0  0  0  0  0  0  0  0
  1  2  1  0
  2  3  2  0
  2 23  1  0
  3  4  1  0
  4  5  1  0
  4 21  2  0
  5  6  1  0
  6  7  1  0
  7  8  2  0
  7  9  1  0
  9 10  1  0
 10 11  2  0
 10 16  1  0
 11 12  1  0
 12 13  2  0
 12 14  1  0
 14 15  1  0
 15 16  1  0
 16 17  1  6
 17 18  1  0
 18 19  2  0
 18 20  1  0
 21 22  1  0
 22 23  2  0
 23 24  1  0
 24 25  1  0
 25 26  2  0
 25 27  1  0
M  END
