
     RDKit          3D

 27 28  0  0  0  0  0  0  0  0999 V2000
   -7.3510    0.3840   -1.6450 O   0  0  0  0  0  0  0  0  0  0  0  0
   -6.3230    0.8090   -2.1690 C   0  0  0  0  0  0  0  0  0  0  0  0
   -6.4920    1.6470   -3.2940 O   0  0  0  0  0  0  0  0  0  0  0  0
   -5.0240    0.4670   -1.6710 N   0  0  0  0  0  0  0  0  0  0  0  0
   -4.9250   -0.3770   -0.4980 C   0  0  0  0  0  0  0  0  0  0  0  0
   -6.0640   -0.7490   -0.0470 O   0  0  0  0  0  0  0  0  0  0  0  0
   -3.7710   -0.7890    0.1510 N   0  0  0  0  0  0  0  0  0  0  0  0
   -2.3260   -0.6160   -0.1020 C   0  0  0  0  0  0  0  0  0  0  0  0
   -1.8480   -0.2570    1.2200 C   0  0  2  0  0  0  0  0  0  0  0  0
   -0.4690   -0.0920    1.6040 C   0  0  0  0  0  0  0  0  0  0  0  0
   -0.0860    1.1350    1.9050 O   0  0  0  0  0  0  0  0  0  0  0  0
    0.5930   -1.0200    1.7520 N   0  0  0  0  0  0  0  0  0  0  0  0
    1.9200   -0.7660    2.1360 C   0  0  0  0  0  0  0  0  0  0  0  0
    2.9230   -0.1810    1.2950 C   0  0  0  0  0  0  0  0  0  0  0  0
    4.0520    0.1180    1.9140 O   0  0  0  0  0  0  0  0  0  0  0  0
    2.9700    0.1370   -0.0650 N   0  0  0  0  0  0  0  0  0  0  0  0
    4.1270    0.7220   -0.6910 C   0  0  2  0  0  0  0  0  0  0  0  0
    4.1010    0.8240   -2.1490 C   0  0  0  0  0  0  0  0  0  0  0  0
    5.3650    1.3680   -2.5980 O   0  0  0  0  0  0  0  0  0  0  0  0
    6.5550    1.2070   -1.9090 C   0  0  0  0  0  0  0  0  0  0  0  0
    7.6480    1.7430   -2.2440 O   0  0  0  0  0  0  0  0  0  0  0  0
    6.5290    0.3850   -0.7630 O   0  0  0  0  0  0  0  0  0  0  0  0
    5.3420   -0.2170   -0.4000 C   0  0  0  0  0  0  0  0  0  0  0  0
    5.2210   -1.3280    0.0890 O   0  0  0  0  0  0  0  0  0  0  0  0
   -2.6780   -0.9660    2.1820 N   0  0  0  0  0  0  0  0  0  0  0  0
   -3.7470   -1.5000    1.4230 C   0  0  0  0  0  0  0  0  0  0  0  0
   -4.5600   -2.4290    1.7470 O   0  0  0  0  0  0  0  0  0  0  0  0
  1  2  2  0
  2  3  1  0
  2  4  1  0
  4  5  1  0
  5  6  2  0
  5  7  1  0
  7  8  1  0
  7 26  1  0
  8  9  1  0
  9 10  1  6
  9 25  1  0
 10 11  2  0
 10 12  1  0
 12 13  1  0
 13 14  1  0
 14 15  2  0
 14 16  1  0
 17 16  1  6
 17 18  1  0
 17 23  1  0
 18 19  1  0
 19 20  1  0
 20 21  2  0
 20 22  1  0
 22 23  1  0
 23 24  2  0
 25 26  1  0
 26 27  2  0
M  END
