
     RDKit          3D

 27 28  0  0  0  0  0  0  0  0999 V2000
   -1.4570    2.2300   -2.4940 O   0  0  0  0  0  0  0  0  0  0  0  0
   -1.5080    1.6310   -1.3310 C   0  0  0  0  0  0  0  0  0  0  0  0
   -2.5090    2.0930   -0.4660 N   0  0  0  0  0  0  0  0  0  0  0  0
   -3.6460    1.3700    0.0830 C   0  0  0  0  0  0  0  0  0  0  0  0
   -3.3340   -0.0620    0.3690 C   0  0  0  0  0  0  0  0  0  0  0  0
   -4.2320   -1.0090   -0.0930 O   0  0  0  0  0  0  0  0  0  0  0  0
   -3.6560   -2.2410    0.0440 C   0  0  0  0  0  0  0  0  0  0  0  0
   -2.1680   -2.3460   -0.1850 C   0  0  0  0  0  0  0  0  0  0  0  0
   -1.4730   -2.1380    0.9460 O   0  0  0  0  0  0  0  0  0  0  0  0
   -0.5360   -1.3320    1.4960 C   0  0  0  0  0  0  0  0  0  0  0  0
    0.0240   -1.8370    2.5230 O   0  0  0  0  0  0  0  0  0  0  0  0
   -0.0950   -0.0470    1.1180 N   0  0  0  0  0  0  0  0  0  0  0  0
    0.4400    0.3920   -0.1600 C   0  0  1  0  0  0  0  0  0  0  0  0
    1.2520    1.6960    0.0820 C   0  0  0  0  0  0  0  0  0  0  0  0
    0.3930    2.6850    0.6190 O   0  0  0  0  0  0  0  0  0  0  0  0
    0.8890    3.9350    0.9140 C   0  0  0  0  0  0  0  0  0  0  0  0
    2.1310    4.1290    0.6780 O   0  0  0  0  0  0  0  0  0  0  0  0
    0.1290    4.9800    1.4440 O   0  0  0  0  0  0  0  0  0  0  0  0
    1.4850   -0.5190   -0.6910 C   0  0  0  0  0  0  0  0  0  0  0  0
    1.4850   -1.1300   -1.8700 N   0  0  0  0  0  0  0  0  0  0  0  0
    2.5950   -1.8400   -1.9470 O   0  0  0  0  0  0  0  0  0  0  0  0
    3.3020   -1.7030   -0.8560 C   0  0  0  0  0  0  0  0  0  0  0  0
    4.5980   -2.2820   -0.4620 C   0  0  0  0  0  0  0  0  0  0  0  0
    5.5760   -1.3270   -0.8020 O   0  0  0  0  0  0  0  0  0  0  0  0
    6.7800   -1.7360   -0.4940 O   0  0  0  0  0  0  0  0  0  0  0  0
    2.5990   -0.8620   -0.0520 N   0  0  0  0  0  0  0  0  0  0  0  0
   -0.5380    0.6310   -1.1820 N   0  0  0  0  0  0  0  0  0  0  0  0
  1  2  2  0
  2  3  1  0
  2 27  1  0
  3  4  1  0
  4  5  1  0
  5  6  1  0
  6  7  1  0
  7  8  1  0
  8  9  1  0
  9 10  1  0
 10 11  2  0
 10 12  1  0
 12 13  1  0
 13 14  1  1
 13 19  1  0
 13 27  1  0
 14 15  1  0
 15 16  1  0
 16 17  2  0
 16 18  1  0
 19 20  2  0
 19 26  1  0
 20 21  1  0
 21 22  1  0
 22 23  1  0
 22 26  2  0
 23 24  1  0
 24 25  1  0
M  END
