
     RDKit          3D

 20 19  0  0  0  0  0  0  0  0999 V2000
   -3.4110   -2.3580   -1.1270 N   0  0  0  0  0  0  0  0  0  0  0  0
   -4.2060   -2.4270    0.0430 C   0  0  0  0  0  0  0  0  0  0  0  0
   -4.8750   -3.4750    0.2250 O   0  0  0  0  0  0  0  0  0  0  0  0
   -4.2430   -1.2880    1.0220 C   0  0  0  0  0  0  0  0  0  0  0  0
   -3.4220   -0.3150    0.5560 O   0  0  0  0  0  0  0  0  0  0  0  0
   -3.2720    0.8300    1.2530 C   0  0  1  0  0  0  0  0  0  0  0  0
   -1.8560    1.1440    1.6710 C   0  0  0  0  0  0  0  0  0  0  0  0
   -1.0630    1.2440    0.5280 O   0  0  0  0  0  0  0  0  0  0  0  0
    0.2960    1.5240    0.5000 C   0  0  0  0  0  0  0  0  0  0  0  0
    0.8740    1.7090    1.5970 O   0  0  0  0  0  0  0  0  0  0  0  0
    1.2270    1.6260   -1.0130 S   0  0  0  0  0  0  0  0  0  0  0  0
    2.9470    2.0100   -0.6090 C   0  0  0  0  0  0  0  0  0  0  0  0
    3.6280    0.9310    0.1390 C   0  0  0  0  0  0  0  0  0  0  0  0
    3.6330    0.9590    1.3630 O   0  0  0  0  0  0  0  0  0  0  0  0
    4.3100   -0.1930   -0.5480 C   0  0  0  0  0  0  0  0  0  0  0  0
    4.9550   -1.1170    0.4750 C   0  0  0  0  0  0  0  0  0  0  0  0
    5.6140   -2.2110   -0.2110 N   0  0  0  0  0  0  0  0  0  0  0  0
   -3.7550    1.9690    0.4440 C   0  0  0  0  0  0  0  0  0  0  0  0
   -4.2700    1.7570   -0.8500 N   0  0  0  0  0  0  0  0  0  0  0  0
   -3.7030    3.1190    0.9170 O   0  0  0  0  0  0  0  0  0  0  0  0
  1  2  1  0
  2  3  2  0
  2  4  1  0
  4  5  1  0
  5  6  1  0
  6  7  1  6
  6 18  1  0
  7  8  1  0
  8  9  1  0
  9 10  2  0
  9 11  1  0
 11 12  1  0
 12 13  1  0
 13 14  2  0
 13 15  1  0
 15 16  1  0
 16 17  1  0
 18 19  1  0
 18 20  2  0
M  CHG  1  17   1
M  END
