
     RDKit          3D

 20 19  0  0  0  0  0  0  0  0999 V2000
   -3.9870    2.8000   -2.0150 N   0  0  0  0  0  0  0  0  0  0  0  0
   -2.7380    2.1290   -2.0200 C   0  0  0  0  0  0  0  0  0  0  0  0
   -1.8250    2.4570   -2.8080 O   0  0  0  0  0  0  0  0  0  0  0  0
   -2.4940    0.9970   -1.0590 C   0  0  1  0  0  0  0  0  0  0  0  0
   -3.5060   -0.0980   -1.2760 C   0  0  0  0  0  0  0  0  0  0  0  0
   -3.3020   -1.2560   -0.3320 C   0  0  0  0  0  0  0  0  0  0  0  0
   -3.4140   -0.9020    1.0940 C   0  0  0  0  0  0  0  0  0  0  0  0
   -4.5870   -0.3120    1.6420 N   0  0  0  0  0  0  0  0  0  0  0  0
   -2.3180   -1.1580    1.9720 S   0  0  0  0  0  0  0  0  0  0  0  0
   -1.1660    0.5160   -1.2870 N   0  0  0  0  0  0  0  0  0  0  0  0
   -0.0960    0.6250   -0.3720 C   0  0  0  0  0  0  0  0  0  0  0  0
   -0.2900    1.1800    0.7310 O   0  0  0  0  0  0  0  0  0  0  0  0
    1.2160    0.0950   -0.7150 C   0  0  0  0  0  0  0  0  0  0  0  0
    2.1740    0.2960    0.3330 O   0  0  0  0  0  0  0  0  0  0  0  0
    3.4780   -0.1260    0.2240 C   0  0  0  0  0  0  0  0  0  0  0  0
    3.8140   -0.7090   -0.8510 O   0  0  0  0  0  0  0  0  0  0  0  0
    4.4400    0.0360    1.1870 O   0  0  0  0  0  0  0  0  0  0  0  0
    5.7880   -0.4290    1.0120 C   0  0  0  0  0  0  0  0  0  0  0  0
    6.6300   -0.1280    2.2060 C   0  0  0  0  0  0  0  0  0  0  0  0
    7.9150   -0.6070    1.9590 O   0  0  0  0  0  0  0  0  0  0  0  0
  1  2  1  0
  2  3  2  0
  2  4  1  0
  4  5  1  6
  4 10  1  0
  5  6  1  0
  6  7  1  0
  7  8  1  0
  7  9  2  0
 10 11  1  0
 11 12  2  0
 11 13  1  0
 13 14  1  0
 14 15  1  0
 15 16  2  0
 15 17  1  0
 17 18  1  0
 18 19  1  0
 19 20  1  0
M  CHG  1   8   1
M  END
