
     RDKit          3D

 20 19  0  0  0  0  0  0  0  0999 V2000
    4.4540   -0.7970    1.1210 C   0  0  0  0  0  0  0  0  0  0  0  0
    4.0930   -0.2990   -0.2430 C   0  0  0  0  0  0  0  0  0  0  0  0
    2.7940    0.4980   -0.2530 C   0  0  2  0  0  0  0  0  0  0  0  0
    2.9670    1.5770    0.5880 O   0  0  0  0  0  0  0  0  0  0  0  0
    1.6330   -0.3760    0.1570 C   0  0  0  0  0  0  0  0  0  0  0  0
    0.3530    0.3520    0.1620 C   0  0  0  0  0  0  0  0  0  0  0  0
    0.3340    1.5690   -0.1570 O   0  0  0  0  0  0  0  0  0  0  0  0
   -0.8810   -0.2530    0.5130 N   0  0  0  0  0  0  0  0  0  0  0  0
   -2.1140    0.4980    0.5040 C   0  0  0  0  0  0  0  0  0  0  0  0
   -3.2980   -0.3400    0.9090 C   0  0  1  0  0  0  0  0  0  0  0  0
   -3.5140   -1.5250    0.0230 C   0  0  0  0  0  0  0  0  0  0  0  0
   -3.0580   -0.8050    2.1960 O   0  0  0  0  0  0  0  0  0  0  0  0
   -4.5520    0.4560    0.9370 C   0  0  0  0  0  0  0  0  0  0  0  0
   -5.2850    0.6370    2.1220 N   0  0  0  0  0  0  0  0  0  0  0  0
   -4.9940    0.9860   -0.0840 O   0  0  0  0  0  0  0  0  0  0  0  0
    2.6290    1.0100   -1.6370 C   0  0  0  0  0  0  0  0  0  0  0  0
    2.6620    2.2450   -1.8820 O   0  0  0  0  0  0  0  0  0  0  0  0
    2.4280    0.1260   -2.7420 N   0  0  0  0  0  0  0  0  0  0  0  0
    2.2410    0.7690   -4.3350 S   0  0  0  0  0  0  0  0  0  0  0  0
    3.2000    0.1530   -5.3380 O   0  0  0  0  0  0  0  0  0  0  0  0
  1  2  1  0
  2  3  1  0
  3  4  1  1
  3  5  1  0
  3 16  1  0
  5  6  1  0
  6  7  2  0
  6  8  1  0
  8  9  1  0
  9 10  1  0
 10 11  1  6
 10 12  1  0
 10 13  1  0
 13 14  1  0
 13 15  2  0
 16 17  2  0
 16 18  1  0
 18 19  1  0
 19 20  2  0
M  CHG  1  14   1
M  END
