
     RDKit          3D

 20 19  0  0  0  0  0  0  0  0999 V2000
   -4.3580   -2.1790   -0.4330 C   0  0  0  0  0  0  0  0  0  0  0  0
   -3.2910   -1.7220   -1.1600 O   0  0  0  0  0  0  0  0  0  0  0  0
   -2.1060   -1.6570   -0.4340 C   0  0  0  0  0  0  0  0  0  0  0  0
   -2.2170   -0.7290    0.7520 C   0  0  1  0  0  0  0  0  0  0  0  0
   -0.9750   -0.6180    1.5650 C   0  0  0  0  0  0  0  0  0  0  0  0
    0.1860   -0.1370    0.8880 N   0  0  0  0  0  0  0  0  0  0  0  0
    1.2600    0.1700    1.8430 C   0  0  0  0  0  0  0  0  0  0  0  0
    2.7900   -0.6840    1.3950 S   0  0  0  0  0  0  0  0  0  0  0  0
    3.4410   -0.0630   -0.1600 C   0  0  2  0  0  0  0  0  0  0  0  0
    4.7320   -0.8210   -0.4810 C   0  0  0  0  0  0  0  0  0  0  0  0
    4.4290   -2.1600   -0.5810 O   0  0  0  0  0  0  0  0  0  0  0  0
    3.7120    1.3930   -0.0480 C   0  0  0  0  0  0  0  0  0  0  0  0
    4.2170    2.0570   -1.2100 N   0  0  0  0  0  0  0  0  0  0  0  0
    3.5000    1.9970    1.0330 O   0  0  0  0  0  0  0  0  0  0  0  0
   -2.8430    0.5700    0.4200 C   0  0  0  0  0  0  0  0  0  0  0  0
   -3.8130    1.0340    1.0890 O   0  0  0  0  0  0  0  0  0  0  0  0
   -2.3880    1.3630   -0.6650 N   0  0  0  0  0  0  0  0  0  0  0  0
   -3.0130    2.6310   -0.9530 C   0  0  0  0  0  0  0  0  0  0  0  0
   -3.9640    3.0120   -0.2240 O   0  0  0  0  0  0  0  0  0  0  0  0
   -2.6080    3.4450   -1.9980 O   0  0  0  0  0  0  0  0  0  0  0  0
  1  2  1  0
  2  3  1  0
  4  3  1  6
  4  5  1  0
  4 15  1  0
  5  6  1  0
  6  7  1  0
  7  8  1  0
  8  9  1  0
  9 10  1  1
  9 12  1  0
 10 11  1  0
 12 13  1  0
 12 14  2  0
 15 16  2  0
 15 17  1  0
 17 18  1  0
 18 19  2  0
 18 20  1  0
M  CHG  1   6   1
M  END
