
     RDKit          3D

 20 19  0  0  0  0  0  0  0  0999 V2000
   -4.9480   -1.6420    1.9190 N   0  0  0  0  0  0  0  0  0  0  0  0
   -4.1290   -0.4930    1.4700 C   0  0  1  0  0  0  0  0  0  0  0  0
   -2.8280   -0.9760    0.9350 C   0  0  0  0  0  0  0  0  0  0  0  0
   -1.9440    0.1220    0.4660 C   0  0  0  0  0  0  0  0  0  0  0  0
   -0.6390   -0.3910   -0.0490 C   0  0  0  0  0  0  0  0  0  0  0  0
   -0.4050   -1.6280   -0.0470 O   0  0  0  0  0  0  0  0  0  0  0  0
    0.3670    0.4570   -0.5480 N   0  0  0  0  0  0  0  0  0  0  0  0
    1.6240    0.0070   -1.0480 C   0  0  1  0  0  0  0  0  0  0  0  0
    1.7740    0.2950   -2.5220 C   0  0  0  0  0  0  0  0  0  0  0  0
    1.6760    2.0210   -2.9390 S   0  0  0  0  0  0  0  0  0  0  0  0
    2.7820    0.4790   -0.2650 C   0  0  0  0  0  0  0  0  0  0  0  0
    2.5620    1.2080    0.7340 O   0  0  0  0  0  0  0  0  0  0  0  0
    4.1060    0.1350   -0.6090 N   0  0  0  0  0  0  0  0  0  0  0  0
    5.2690    0.5760    0.1300 C   0  0  0  0  0  0  0  0  0  0  0  0
    5.1480    0.0730    1.5230 C   0  0  0  0  0  0  0  0  0  0  0  0
    4.1540   -0.6090    1.8770 O   0  0  0  0  0  0  0  0  0  0  0  0
    6.1170    0.3300    2.4910 O   0  0  0  0  0  0  0  0  0  0  0  0
   -4.9370    0.3390    0.5920 C   0  0  0  0  0  0  0  0  0  0  0  0
   -6.1050   -0.0210    0.2390 O   0  0  0  0  0  0  0  0  0  0  0  0
   -4.5040    1.5490    0.0910 O   0  0  0  0  0  0  0  0  0  0  0  0
  2  1  1  6
  2  3  1  0
  2 18  1  0
  3  4  1  0
  4  5  1  0
  5  6  2  0
  5  7  1  0
  7  8  1  0
  8  9  1  6
  8 11  1  0
  9 10  1  0
 11 12  2  0
 11 13  1  0
 13 14  1  0
 14 15  1  0
 15 16  2  0
 15 17  1  0
 18 19  2  0
 18 20  1  0
M  CHG  1   1   1
M  END
