
     RDKit          3D

 20 19  0  0  0  0  0  0  0  0999 V2000
    4.7430   -1.5850    0.9620 C   0  0  0  0  0  0  0  0  0  0  0  0
    4.3870   -0.1040    1.0440 C   0  0  2  0  0  0  0  0  0  0  0  0
    3.0660    0.1190    0.5710 O   0  0  0  0  0  0  0  0  0  0  0  0
    2.0920    0.6000    1.4180 C   0  0  0  0  0  0  0  0  0  0  0  0
    2.3730    0.8430    2.6200 O   0  0  0  0  0  0  0  0  0  0  0  0
    0.6880    0.8540    0.9810 C   0  0  0  0  0  0  0  0  0  0  0  0
    0.5830    0.5290   -0.3570 O   0  0  0  0  0  0  0  0  0  0  0  0
   -0.6760    0.7420   -0.8780 C   0  0  0  0  0  0  0  0  0  0  0  0
   -1.7770   -0.0470   -0.2290 C   0  0  0  0  0  0  0  0  0  0  0  0
   -2.9920    0.2560   -0.8460 O   0  0  0  0  0  0  0  0  0  0  0  0
   -4.0540   -0.4190   -0.3160 C   0  0  2  0  0  0  0  0  0  0  0  0
   -4.6810   -1.2600   -1.3690 C   0  0  0  0  0  0  0  0  0  0  0  0
   -5.8070   -2.0720   -1.1040 N   0  0  0  0  0  0  0  0  0  0  0  0
   -4.1550   -1.2180   -2.5360 O   0  0  0  0  0  0  0  0  0  0  0  0
   -5.0770    0.4680    0.2900 C   0  0  0  0  0  0  0  0  0  0  0  0
   -4.9580    1.8840    0.3140 N   0  0  0  0  0  0  0  0  0  0  0  0
   -6.1010   -0.0440    0.8100 O   0  0  0  0  0  0  0  0  0  0  0  0
    5.3780    0.6670    0.2680 C   0  0  0  0  0  0  0  0  0  0  0  0
    5.5620    0.4390   -1.1270 N   0  0  0  0  0  0  0  0  0  0  0  0
    6.1860    1.6680    0.8900 S   0  0  0  0  0  0  0  0  0  0  0  0
  2  1  1  6
  2  3  1  0
  2 18  1  0
  3  4  1  0
  4  5  2  0
  4  6  1  0
  6  7  1  0
  7  8  1  0
  8  9  1  0
  9 10  1  0
 11 10  1  6
 11 12  1  0
 11 15  1  0
 12 13  1  0
 12 14  2  0
 15 16  1  0
 15 17  2  0
 18 19  1  0
 18 20  2  0
M  CHG  1  19   1
M  END
