
     RDKit          3D

 19 18  0  0  0  0  0  0  0  0999 V2000
    7.8020   -0.3860    0.9950 C   0  0  0  0  0  0  0  0  0  0  0  0
    6.6230    0.2700    0.6110 O   0  0  0  0  0  0  0  0  0  0  0  0
    5.4700   -0.4150    0.1960 C   0  0  0  0  0  0  0  0  0  0  0  0
    5.5550   -1.6690    0.1880 O   0  0  0  0  0  0  0  0  0  0  0  0
    4.2300    0.2960   -0.2080 C   0  0  0  0  0  0  0  0  0  0  0  0
    3.2160   -0.7360   -0.5920 C   0  0  0  0  0  0  0  0  0  0  0  0
    1.9830   -0.2140   -0.9980 O   0  0  0  0  0  0  0  0  0  0  0  0
    1.1440    0.5690   -0.2280 C   0  0  0  0  0  0  0  0  0  0  0  0
    1.5470    0.8200    0.9390 O   0  0  0  0  0  0  0  0  0  0  0  0
   -0.1440    1.1060   -0.6770 C   0  0  1  0  0  0  0  0  0  0  0  0
   -0.3790    0.7420   -2.0760 N   0  0  0  0  0  0  0  0  0  0  0  0
   -1.3110    0.5190    0.1290 C   0  0  0  0  0  0  0  0  0  0  0  0
   -2.8440    1.1980   -0.4530 S   0  0  0  0  0  0  0  0  0  0  0  0
   -4.3290    0.6510    0.3440 C   0  0  2  0  0  0  0  0  0  0  0  0
   -4.6220   -0.7900    0.0210 C   0  0  0  0  0  0  0  0  0  0  0  0
   -3.6220   -1.7280    0.4250 N   0  0  0  0  0  0  0  0  0  0  0  0
   -5.5070    1.4320   -0.1660 C   0  0  0  0  0  0  0  0  0  0  0  0
   -6.7680    1.0870    0.3500 N   0  0  0  0  0  0  0  0  0  0  0  0
   -5.2950    2.3200   -1.0010 O   0  0  0  0  0  0  0  0  0  0  0  0
  1  2  1  0
  2  3  1  0
  3  4  2  0
  3  5  1  0
  5  6  1  0
  6  7  1  0
  7  8  1  0
  8  9  2  0
  8 10  1  0
 10 11  1  6
 10 12  1  0
 12 13  1  0
 13 14  1  0
 14 15  1  6
 14 17  1  0
 15 16  1  0
 17 18  1  0
 17 19  2  0
M  CHG  1  16   1
M  END
