
     RDKit          3D

 20 19  0  0  0  0  0  0  0  0999 V2000
   -5.3180    2.8910   -0.2540 C   0  0  0  0  0  0  0  0  0  0  0  0
   -4.7260    1.8520    0.4520 O   0  0  0  0  0  0  0  0  0  0  0  0
   -3.5210    1.4890   -0.1430 C   0  0  0  0  0  0  0  0  0  0  0  0
   -2.8600    0.3540    0.6170 C   0  0  2  0  0  0  0  0  0  0  0  0
   -1.6550    0.0610   -0.0590 O   0  0  0  0  0  0  0  0  0  0  0  0
   -0.4090    0.1600    0.5320 C   0  0  0  0  0  0  0  0  0  0  0  0
   -0.3610    0.5300    1.7270 O   0  0  0  0  0  0  0  0  0  0  0  0
    0.8590   -0.1470   -0.1780 C   0  0  0  0  0  0  0  0  0  0  0  0
    1.9020    0.0510    0.6850 O   0  0  0  0  0  0  0  0  0  0  0  0
    3.1640   -0.2000    0.2110 C   0  0  1  0  0  0  0  0  0  0  0  0
    3.2790   -1.6460   -0.2380 C   0  0  0  0  0  0  0  0  0  0  0  0
    3.5270    0.7590   -0.8890 C   0  0  0  0  0  0  0  0  0  0  0  0
    4.8460    0.5600   -1.4360 N   0  0  0  0  0  0  0  0  0  0  0  0
    4.1230   -0.0460    1.3340 C   0  0  0  0  0  0  0  0  0  0  0  0
    3.7100    0.2730    2.4250 O   0  0  0  0  0  0  0  0  0  0  0  0
    5.8550   -0.3370    1.0460 S   0  0  0  0  0  0  0  0  0  0  0  0
   -3.7420   -0.8370    0.6840 C   0  0  0  0  0  0  0  0  0  0  0  0
   -4.8600   -0.7780    1.2470 O   0  0  0  0  0  0  0  0  0  0  0  0
   -3.2800   -2.0420    0.0930 N   0  0  0  0  0  0  0  0  0  0  0  0
   -4.0650   -3.2070    0.1210 N   0  0  0  0  0  0  0  0  0  0  0  0
  1  2  1  0
  2  3  1  0
  4  3  1  6
  4  5  1  0
  4 17  1  0
  5  6  1  0
  6  7  2  0
  6  8  1  0
  8  9  1  0
  9 10  1  0
 10 11  1  6
 10 12  1  0
 10 14  1  0
 12 13  1  0
 14 15  2  0
 14 16  1  0
 17 18  2  0
 17 19  1  0
 19 20  1  0
M  CHG  1  13   1
M  END
