
     RDKit          3D

 19 18  0  0  0  0  0  0  0  0999 V2000
   -0.4020    0.4860   -1.7590 C   0  0  0  0  0  0  0  0  0  0  0  0
    0.1380   -0.6800   -1.1520 N   0  0  0  0  0  0  0  0  0  0  0  0
    0.0390   -0.7960    0.2590 C   0  0  1  0  0  0  0  0  0  0  0  0
   -0.0130   -2.2910    0.6720 C   0  0  0  0  0  0  0  0  0  0  0  0
    1.1860   -3.0560    0.2550 C   0  0  0  0  0  0  0  0  0  0  0  0
    1.3520   -3.0500   -1.1260 O   0  0  0  0  0  0  0  0  0  0  0  0
    1.1400   -0.2200    1.0670 C   0  0  0  0  0  0  0  0  0  0  0  0
    1.4210    1.2230    0.9560 C   0  0  0  0  0  0  0  0  0  0  0  0
    1.8230    1.7090   -0.2790 O   0  0  0  0  0  0  0  0  0  0  0  0
    2.9550    1.3590   -0.9750 C   0  0  0  0  0  0  0  0  0  0  0  0
    3.2980    1.9030   -2.2400 N   0  0  0  0  0  0  0  0  0  0  0  0
    3.7110    0.4960   -0.4230 O   0  0  0  0  0  0  0  0  0  0  0  0
   -1.3140   -0.3050    0.7210 C   0  0  0  0  0  0  0  0  0  0  0  0
   -1.4840   -0.2660    1.9630 O   0  0  0  0  0  0  0  0  0  0  0  0
   -2.3270    0.0840   -0.0970 O   0  0  0  0  0  0  0  0  0  0  0  0
   -3.5900    0.5410    0.3090 C   0  0  0  0  0  0  0  0  0  0  0  0
   -3.5320    1.7490    1.1450 C   0  0  0  0  0  0  0  0  0  0  0  0
   -2.3290    2.4040    1.5160 N   0  0  0  0  0  0  0  0  0  0  0  0
   -4.6110    2.2400    1.5620 O   0  0  0  0  0  0  0  0  0  0  0  0
  1  2  1  0
  2  3  1  0
  3  4  1  6
  3  7  1  0
  3 13  1  0
  4  5  1  0
  5  6  1  0
  7  8  1  0
  8  9  1  0
  9 10  1  0
 10 11  1  0
 10 12  2  0
 13 14  2  0
 13 15  1  0
 15 16  1  0
 16 17  1  0
 17 18  1  0
 17 19  2  0
M  CHG  1   2   1
M  END
