
     RDKit          3D

 12 12  0  0  0  0  0  0  0  0999 V2000
   -4.7380    0.4320    0.0050 N   0  0  0  0  0  0  0  0  0  0  0  0
   -3.8900    0.0330    1.1130 C   0  0  0  0  0  0  0  0  0  0  0  0
   -2.4990    0.3860    0.7440 C   0  0  0  0  0  0  0  0  0  0  0  0
   -1.5880   -0.5490    0.6700 C   0  0  0  0  0  0  0  0  0  0  0  0
   -0.1880   -0.2540    0.3080 C   0  0  0  0  0  0  0  0  0  0  0  0
    0.3340    0.9930    0.0090 C   0  0  0  0  0  0  0  0  0  0  0  0
    1.6700    0.7960   -0.2680 C   0  0  0  0  0  0  0  0  0  0  0  0
    1.9160   -0.5490   -0.1310 C   0  0  0  0  0  0  0  0  0  0  0  0
    3.2330   -1.2450   -0.3320 C   0  0  0  0  0  0  0  0  0  0  0  0
    4.2780   -0.2210   -0.7180 C   0  0  0  0  0  0  0  0  0  0  0  0
    4.4310    0.7380    0.2600 O   0  0  0  0  0  0  0  0  0  0  0  0
    0.7960   -1.1070    0.2050 O   0  0  0  0  0  0  0  0  0  0  0  0
  1  2  1  0
  2  3  1  0
  3  4  2  3
  4  5  1  0
  5  6  2  0
  5 12  1  0
  6  7  1  0
  7  8  2  0
  8  9  1  0
  8 12  1  0
  9 10  1  0
 10 11  1  0
M  CHG  1   1   1
M  END
