
     RDKit          3D

 12 12  0  0  0  0  0  0  0  0999 V2000
    2.2070    1.5060    1.5190 C   0  0  0  0  0  0  0  0  0  0  0  0
    1.5850    0.3260    1.1280 O   0  0  0  0  0  0  0  0  0  0  0  0
    0.9490    0.4190   -0.0940 C   0  0  1  0  0  0  0  0  0  0  0  0
    1.7140   -0.4350   -1.0770 C   0  0  0  0  0  0  0  0  0  0  0  0
    1.4390   -1.9040   -0.9250 C   0  0  0  0  0  0  0  0  0  0  0  0
    0.2410   -2.1680   -0.0350 C   0  0  0  0  0  0  0  0  0  0  0  0
   -0.8600   -1.2430   -0.5060 C   0  0  0  0  0  0  0  0  0  0  0  0
   -0.5090    0.1580   -0.0550 C   0  0  2  0  0  0  0  0  0  0  0  0
   -1.2170    1.1640   -0.9770 C   0  0  0  0  0  0  0  0  0  0  0  0
   -2.6430    0.9530   -0.9760 N   0  0  0  0  0  0  0  0  0  0  0  0
   -1.1340    0.3560    1.3090 C   0  0  0  0  0  0  0  0  0  0  0  0
   -0.6150   -0.4510    2.2870 O   0  0  0  0  0  0  0  0  0  0  0  0
  1  2  1  0
  3  2  1  1
  3  4  1  0
  3  8  1  0
  4  5  1  0
  5  6  1  0
  6  7  1  0
  7  8  1  0
  8  9  1  6
  8 11  1  0
  9 10  1  0
 11 12  1  0
M  CHG  1  10   1
M  END
