
     RDKit          3D

 19 20  0  0  0  0  0  0  0  0999 V2000
   -1.2780   -1.1530   -0.6610 O   0  0  0  0  0  0  0  0  0  0  0  0
   -0.9720   -0.0440   -0.1580 C   0  0  0  0  0  0  0  0  0  0  0  0
   -1.9930    0.8950    0.1220 N   0  0  0  0  0  0  0  0  0  0  0  0
   -3.3730    0.6270   -0.1370 C   0  0  0  0  0  0  0  0  0  0  0  0
   -4.3390    0.5610    0.7160 C   0  0  0  0  0  0  0  0  0  0  0  0
   -5.7610    0.2750    0.3700 C   0  0  0  0  0  0  0  0  0  0  0  0
   -5.9680   -0.0250   -0.9650 O   0  0  0  0  0  0  0  0  0  0  0  0
   -4.9340    0.0560   -1.8710 C   0  0  0  0  0  0  0  0  0  0  0  0
   -3.6890    0.3510   -1.5680 C   0  0  0  0  0  0  0  0  0  0  0  0
    0.3840    0.1750    0.1030 O   0  0  0  0  0  0  0  0  0  0  0  0
    1.3290   -0.8790   -0.1700 C   0  0  0  0  0  0  0  0  0  0  0  0
    2.7100   -0.5050    0.1190 C   0  0  0  0  0  0  0  0  0  0  0  0
    3.6800   -0.7830   -0.8610 C   0  0  0  0  0  0  0  0  0  0  0  0
    4.9830   -0.4830   -0.5380 C   0  0  0  0  0  0  0  0  0  0  0  0
    5.9400   -0.7670   -1.5120 O   0  0  0  0  0  0  0  0  0  0  0  0
    5.3480    0.0620    0.6750 C   0  0  0  0  0  0  0  0  0  0  0  0
    4.3620    0.3200    1.6050 C   0  0  0  0  0  0  0  0  0  0  0  0
    3.0520    0.0410    1.3340 C   0  0  0  0  0  0  0  0  0  0  0  0
    2.0360    0.2950    2.2610 O   0  0  0  0  0  0  0  0  0  0  0  0
  1  2  2  0
  2  3  1  0
  2 10  1  0
  3  4  1  0
  4  5  2  0
  4  9  1  0
  5  6  1  0
  6  7  1  0
  7  8  1  0
  8  9  2  0
 10 11  1  0
 11 12  1  0
 12 13  2  0
 12 18  1  0
 13 14  1  0
 14 15  1  0
 14 16  2  0
 16 17  1  0
 17 18  2  0
 18 19  1  0
M  END
