
     RDKit          3D

 12 12  0  0  0  0  0  0  0  0999 V2000
    3.1250   -0.3800    0.5110 N   0  0  0  0  0  0  0  0  0  0  0  0
    2.5850    0.2470   -0.6740 C   0  0  0  0  0  0  0  0  0  0  0  0
    1.2300    0.8560   -0.4660 C   0  0  0  0  0  0  0  0  0  0  0  0
    0.1280   -0.0210   -0.0680 C   0  0  2  0  0  0  0  0  0  0  0  0
    0.4040   -0.6490    1.1700 O   0  0  0  0  0  0  0  0  0  0  0  0
   -0.1910   -1.1380   -1.0220 C   0  0  0  0  0  0  0  0  0  0  0  0
   -1.2500   -2.0160   -0.4090 C   0  0  0  0  0  0  0  0  0  0  0  0
   -2.4200   -1.2990    0.1680 C   0  0  0  0  0  0  0  0  0  0  0  0
   -2.0380   -0.1220    1.0130 C   0  0  0  0  0  0  0  0  0  0  0  0
   -1.1390    0.7500    0.1440 C   0  0  1  0  0  0  0  0  0  0  0  0
   -1.0310    2.1250    0.6710 C   0  0  0  0  0  0  0  0  0  0  0  0
   -0.3130    2.9370   -0.1830 O   0  0  0  0  0  0  0  0  0  0  0  0
  1  2  1  0
  2  3  1  0
  3  4  1  0
  4  5  1  1
  4  6  1  0
  4 10  1  0
  6  7  1  0
  7  8  1  0
  8  9  1  0
  9 10  1  0
 10 11  1  1
 11 12  1  0
M  CHG  1   1   1
M  END
