
     RDKit          3D

 19 20  0  0  0  0  0  0  0  0999 V2000
    0.4460    1.9780    1.5000 O   0  0  0  0  0  0  0  0  0  0  0  0
   -0.2800    1.2220    0.8290 C   0  0  0  0  0  0  0  0  0  0  0  0
   -1.6990    1.2620    1.0790 N   0  0  0  0  0  0  0  0  0  0  0  0
   -2.7250    0.5250    0.3670 C   0  0  0  0  0  0  0  0  0  0  0  0
   -3.9620    0.8600    0.8890 C   0  0  0  0  0  0  0  0  0  0  0  0
   -5.1110    0.3020    0.3930 C   0  0  0  0  0  0  0  0  0  0  0  0
   -4.9910   -0.6080   -0.6470 C   0  0  0  0  0  0  0  0  0  0  0  0
   -3.7680   -0.9510   -1.1770 C   0  0  0  0  0  0  0  0  0  0  0  0
   -2.6260   -0.3780   -0.6630 C   0  0  0  0  0  0  0  0  0  0  0  0
   -1.4830   -0.8580   -1.3370 O   0  0  0  0  0  0  0  0  0  0  0  0
   -0.2010   -0.2460   -1.2910 C   0  0  0  0  0  0  0  0  0  0  0  0
    0.4680   -0.2250   -2.3530 O   0  0  0  0  0  0  0  0  0  0  0  0
    0.4440    0.3720   -0.1480 C   0  0  0  0  0  0  0  0  0  0  0  0
    1.7250    0.1790    0.0290 C   0  0  0  0  0  0  0  0  0  0  0  0
    2.6440   -0.5860   -0.7500 C   0  0  0  0  0  0  0  0  0  0  0  0
    3.9260   -0.7120   -0.4860 C   0  0  0  0  0  0  0  0  0  0  0  0
    4.7500   -1.4970   -1.3270 O   0  0  0  0  0  0  0  0  0  0  0  0
    4.6020   -0.0860    0.6440 C   0  0  0  0  0  0  0  0  0  0  0  0
    5.6210    0.7710    0.1730 O   0  0  0  0  0  0  0  0  0  0  0  0
  1  2  2  0
  2  3  1  0
  2 13  1  0
  3  4  1  0
  4  5  2  0
  4  9  1  0
  5  6  1  0
  6  7  2  0
  7  8  1  0
  8  9  2  0
  9 10  1  0
 10 11  1  0
 11 12  2  0
 11 13  1  0
 13 14  2  3
 14 15  1  0
 15 16  2  3
 16 17  1  0
 16 18  1  0
 18 19  1  0
M  END
