
     RDKit          3D

 12 12  0  0  0  0  0  0  0  0999 V2000
   -3.3930   -1.4320   -0.0010 C   0  0  0  0  0  0  0  0  0  0  0  0
   -2.0500   -0.8190    0.0450 C   0  0  0  0  0  0  0  0  0  0  0  0
   -1.8730    0.4330   -0.3240 C   0  0  0  0  0  0  0  0  0  0  0  0
   -3.0110    1.2000   -0.7760 N   0  0  0  0  0  0  0  0  0  0  0  0
   -0.5500    1.0530   -0.2830 C   0  0  0  0  0  0  0  0  0  0  0  0
    0.4660    0.0610    0.2200 C   0  0  0  0  0  0  0  0  0  0  0  0
    1.8480    0.7120    0.2610 C   0  0  1  0  0  0  0  0  0  0  0  0
    2.8280   -0.3160    0.7690 C   0  0  0  0  0  0  0  0  0  0  0  0
    3.3840   -0.8790   -0.5230 C   0  0  0  0  0  0  0  0  0  0  0  0
    3.3930    0.3220   -1.3970 C   0  0  0  0  0  0  0  0  0  0  0  0
    4.2390    0.6140   -2.2620 O   0  0  0  0  0  0  0  0  0  0  0  0
    2.2530    1.0540   -1.0460 O   0  0  0  0  0  0  0  0  0  0  0  0
  1  2  1  0
  2  3  2  3
  3  4  1  0
  3  5  1  0
  5  6  1  0
  7  6  1  6
  7  8  1  0
  7 12  1  0
  8  9  1  0
  9 10  1  0
 10 11  2  0
 10 12  1  0
M  CHG  1   4   1
M  END
