
     RDKit          3D

 19 20  0  0  0  0  0  0  0  0999 V2000
   -3.3290    0.1410    1.7320 C   0  0  0  0  0  0  0  0  0  0  0  0
   -3.3670    0.2500    0.2760 C   0  0  0  0  0  0  0  0  0  0  0  0
   -2.3490    0.1210   -0.5030 C   0  0  0  0  0  0  0  0  0  0  0  0
   -0.9790   -0.1540   -0.2190 C   0  0  0  0  0  0  0  0  0  0  0  0
   -0.4300   -1.1150    0.5560 C   0  0  0  0  0  0  0  0  0  0  0  0
    0.9670   -1.3130    0.7070 C   0  0  0  0  0  0  0  0  0  0  0  0
    1.8560   -0.5160    0.0610 C   0  0  0  0  0  0  0  0  0  0  0  0
    3.3070   -0.6010   -0.1330 C   0  0  0  0  0  0  0  0  0  0  0  0
    4.1200   -0.1750    0.9250 O   0  0  0  0  0  0  0  0  0  0  0  0
    5.5150   -0.0730    0.6290 C   0  0  0  0  0  0  0  0  0  0  0  0
    6.4970    0.4720    1.4160 N   0  0  0  0  0  0  0  0  0  0  0  0
    5.7970   -0.5290   -0.5530 O   0  0  0  0  0  0  0  0  0  0  0  0
    1.2690    0.5370   -0.7730 C   0  0  0  0  0  0  0  0  0  0  0  0
    2.2320    1.3280   -1.3640 O   0  0  0  0  0  0  0  0  0  0  0  0
   -0.0280    0.6870   -0.8950 C   0  0  0  0  0  0  0  0  0  0  0  0
   -2.6920    0.2990   -1.8980 O   0  0  0  0  0  0  0  0  0  0  0  0
   -3.8220   -0.3210   -2.3910 C   0  0  0  0  0  0  0  0  0  0  0  0
   -4.8920   -0.2980   -1.5150 O   0  0  0  0  0  0  0  0  0  0  0  0
   -4.6560    0.5790   -0.4550 C   0  0  0  0  0  0  0  0  0  0  0  0
  1  2  1  0
  2  3  2  0
  2 19  1  0
  3  4  1  0
  3 16  1  0
  4  5  2  0
  4 15  1  0
  5  6  1  0
  6  7  2  0
  7  8  1  0
  7 13  1  0
  8  9  1  0
  9 10  1  0
 10 11  1  0
 10 12  2  0
 13 14  1  0
 13 15  2  0
 16 17  1  0
 17 18  1  0
 18 19  1  0
M  END
