
     RDKit          3D

 16 17  0  0  0  0  0  0  0  0999 V2000
   -1.9840   -3.3530   -0.8730 C   0  0  0  0  0  0  0  0  0  0  0  0
   -2.0860   -2.0520   -0.3810 O   0  0  0  0  0  0  0  0  0  0  0  0
   -1.0500   -1.1700   -0.2360 C   0  0  0  0  0  0  0  0  0  0  0  0
    0.2450   -1.4610   -0.5620 C   0  0  0  0  0  0  0  0  0  0  0  0
    1.2910   -0.5890   -0.4220 C   0  0  0  0  0  0  0  0  0  0  0  0
    1.0360    0.6680    0.0800 C   0  0  0  0  0  0  0  0  0  0  0  0
   -0.2820    0.9910    0.4220 C   0  0  0  0  0  0  0  0  0  0  0  0
   -1.3390    0.1170    0.2820 C   0  0  0  0  0  0  0  0  0  0  0  0
   -2.6520    0.4410    0.6240 N   0  0  0  0  0  0  0  0  0  0  0  0
   -3.1490    1.6210    1.1390 C   0  0  0  0  0  0  0  0  0  0  0  0
   -2.3600    2.7600    1.4200 N   0  0  0  0  0  0  0  0  0  0  0  0
   -4.7810    1.7820    1.4750 S   0  0  0  0  0  0  0  0  0  0  0  0
    2.2220    1.3800    0.1380 O   0  0  0  0  0  0  0  0  0  0  0  0
    3.3020    0.4410    0.0140 C   0  0  2  0  0  0  0  0  0  0  0  0
    4.4270    1.0380   -0.7890 C   0  0  0  0  0  0  0  0  0  0  0  0
    2.6610   -0.6210   -0.6670 O   0  0  0  0  0  0  0  0  0  0  0  0
  1  2  1  0
  2  3  1  0
  3  4  2  0
  3  8  1  0
  4  5  1  0
  5  6  2  0
  5 16  1  0
  6  7  1  0
  6 13  1  0
  7  8  2  0
  8  9  1  0
  9 10  1  0
 10 11  1  0
 10 12  2  0
 13 14  1  0
 14 15  1  6
 14 16  1  0
M  END
