
     RDKit          3D

 16 17  0  0  0  0  0  0  0  0999 V2000
   -2.5670   -1.3530   -0.1670 C   0  0  0  0  0  0  0  0  0  0  0  0
   -1.1030   -1.2910    0.1750 C   0  0  0  0  0  0  0  0  0  0  0  0
   -0.4610   -0.2440   -0.3110 C   0  0  0  0  0  0  0  0  0  0  0  0
   -1.2130    0.7510   -1.1250 C   0  0  0  0  0  0  0  0  0  0  0  0
   -1.4780    2.0360   -0.3800 C   0  0  0  0  0  0  0  0  0  0  0  0
   -2.2770    1.8230    0.7830 O   0  0  0  0  0  0  0  0  0  0  0  0
    0.9600    0.0150   -0.0480 C   0  0  0  0  0  0  0  0  0  0  0  0
    1.7530   -0.7900    0.7440 C   0  0  0  0  0  0  0  0  0  0  0  0
    3.0660   -0.6300    0.8810 N   0  0  0  0  0  0  0  0  0  0  0  0
    3.6940    0.3450    0.2400 C   0  0  0  0  0  0  0  0  0  0  0  0
    4.9340    0.4830    0.3810 O   0  0  0  0  0  0  0  0  0  0  0  0
    3.0040    1.1600   -0.5400 N   0  0  0  0  0  0  0  0  0  0  0  0
    1.6610    1.0130   -0.6940 C   0  0  0  0  0  0  0  0  0  0  0  0
    1.1430    1.8380   -1.4610 O   0  0  0  0  0  0  0  0  0  0  0  0
    0.9940   -2.0910    1.6950 S   0  0  0  0  0  0  0  0  0  0  0  0
   -0.5860   -2.4210    0.9570 C   0  0  0  0  0  0  0  0  0  0  0  0
  1  2  1  0
  2  3  2  0
  2 16  1  0
  3  4  1  0
  3  7  1  0
  4  5  1  0
  5  6  1  0
  7  8  2  0
  7 13  1  0
  8  9  1  0
  8 15  1  0
  9 10  1  0
 10 11  2  0
 10 12  1  0
 12 13  1  0
 13 14  2  0
 15 16  1  0
M  END
