
     RDKit          3D

 16 16  0  0  0  0  0  0  0  0999 V2000
    2.2750    2.9190   -0.3890 C   0  0  0  0  0  0  0  0  0  0  0  0
    2.1590    1.6140   -0.9520 O   0  0  0  0  0  0  0  0  0  0  0  0
    3.0170    0.6010   -0.6550 C   0  0  0  0  0  0  0  0  0  0  0  0
    2.8190   -0.6300   -0.3090 C   0  0  0  0  0  0  0  0  0  0  0  0
    1.5030   -1.2440   -0.1510 C   0  0  0  0  0  0  0  0  0  0  0  0
    1.4750   -2.5390    0.2120 C   0  0  0  0  0  0  0  0  0  0  0  0
   -0.2220   -3.0430    0.3350 S   0  0  0  0  0  0  0  0  0  0  0  0
   -0.9130   -1.4740   -0.0950 C   0  0  0  0  0  0  0  0  0  0  0  0
   -2.1790   -1.1760   -0.1750 C   0  0  0  0  0  0  0  0  0  0  0  0
   -3.2130   -2.1130    0.0830 N   0  0  0  0  0  0  0  0  0  0  0  0
   -2.6310    0.1070   -0.5260 O   0  0  0  0  0  0  0  0  0  0  0  0
   -3.1740    0.9000    0.5180 C   0  0  0  0  0  0  0  0  0  0  0  0
   -2.2080    1.1380    1.5860 C   0  0  0  0  0  0  0  0  0  0  0  0
   -1.4300    1.3100    2.4510 N   0  0  0  0  0  0  0  0  0  0  0  0
    0.2380   -0.6300   -0.3280 C   0  0  0  0  0  0  0  0  0  0  0  0
    0.0420    0.5810   -0.6700 O   0  0  0  0  0  0  0  0  0  0  0  0
  1  2  1  0
  2  3  1  0
  3  4  2  3
  4  5  1  0
  5  6  2  0
  5 15  1  0
  6  7  1  0
  7  8  1  0
  8  9  2  3
  8 15  1  0
  9 10  1  0
  9 11  1  0
 11 12  1  0
 12 13  1  0
 13 14  3  0
 15 16  2  0
M  END
