
     RDKit          3D

 11 12  0  0  0  0  0  0  0  0999 V2000
    1.5630   -0.1140    1.1970 C   0  0  0  0  0  0  0  0  0  0  0  0
    0.6710    0.3330    0.1060 C   0  0  2  0  0  0  0  0  0  0  0  0
    1.3740    1.0310   -1.0090 C   0  0  0  0  0  0  0  0  0  0  0  0
   -0.4580    1.2480    0.5970 C   0  0  2  0  0  0  0  0  0  0  0  0
   -1.2120    0.3580    1.5190 C   0  0  0  0  0  0  0  0  0  0  0  0
   -1.1000   -1.0120    0.8330 C   0  0  0  0  0  0  0  0  0  0  0  0
   -0.2590   -0.7790   -0.4020 C   0  0  2  0  0  0  0  0  0  0  0  0
    0.4300   -1.9460   -0.9350 C   0  0  0  0  0  0  0  0  0  0  0  0
   -1.0780    0.0000   -1.3520 C   0  0  0  0  0  0  0  0  0  0  0  0
   -1.5200   -0.3190   -2.4200 O   0  0  0  0  0  0  0  0  0  0  0  0
   -1.2680    1.3490   -0.6940 C   0  0  0  0  0  0  0  0  0  0  0  0
  2  1  1  1
  2  3  1  0
  2  4  1  0
  2  7  1  0
  4  5  1  1
  4 11  1  0
  5  6  1  0
  6  7  1  0
  7  8  1  6
  7  9  1  0
  9 10  2  0
  9 11  1  0
M  END
