
     RDKit          3D

 15 16  0  0  0  0  0  0  0  0999 V2000
    3.7440    2.3690   -0.8050 O   0  0  0  0  0  0  0  0  0  0  0  0
    3.1950    1.3080   -0.3730 C   0  0  0  0  0  0  0  0  0  0  0  0
    1.8980    1.0810   -0.5320 N   0  0  0  0  0  0  0  0  0  0  0  0
    1.2940   -0.0540   -0.0730 C   0  0  0  0  0  0  0  0  0  0  0  0
    2.1110   -0.9240    0.5520 C   0  0  0  0  0  0  0  0  0  0  0  0
    3.4740   -0.7190    0.7370 C   0  0  0  0  0  0  0  0  0  0  0  0
    4.1860   -1.5670    1.3290 O   0  0  0  0  0  0  0  0  0  0  0  0
    3.9880    0.4220    0.2560 N   0  0  0  0  0  0  0  0  0  0  0  0
    1.1210   -2.3280    1.0620 S   0  0  0  0  0  0  0  0  0  0  0  0
   -0.3960   -1.7890    0.2300 C   0  0  0  0  0  0  0  0  0  0  0  0
   -0.0960   -0.4130   -0.1840 C   0  0  0  0  0  0  0  0  0  0  0  0
   -1.0690    0.3980   -0.6160 C   0  0  0  0  0  0  0  0  0  0  0  0
   -2.4490   -0.1110   -0.6760 C   0  0  0  0  0  0  0  0  0  0  0  0
   -3.3340    0.7220    0.2250 C   0  0  0  0  0  0  0  0  0  0  0  0
   -4.6400    0.2120    0.1460 O   0  0  0  0  0  0  0  0  0  0  0  0
  1  2  2  0
  2  3  1  0
  2  8  1  0
  3  4  1  0
  4  5  2  0
  4 11  1  0
  5  6  1  0
  5  9  1  0
  6  7  2  0
  6  8  1  0
  9 10  1  0
 10 11  1  0
 11 12  2  3
 12 13  1  0
 13 14  1  0
 14 15  1  0
M  END
