
     RDKit          3D

 16 16  0  0  0  0  0  0  0  0999 V2000
   -3.8460    0.0710    1.5980 C   0  0  0  0  0  0  0  0  0  0  0  0
   -3.0180    0.2920    0.5250 C   0  0  0  0  0  0  0  0  0  0  0  0
   -3.6660    1.0130   -0.5650 C   0  0  0  0  0  0  0  0  0  0  0  0
   -1.6810   -0.1850    0.5900 C   0  0  0  0  0  0  0  0  0  0  0  0
   -0.6120   -0.2110   -0.1230 C   0  0  0  0  0  0  0  0  0  0  0  0
    0.6070   -0.8800    0.4430 C   0  0  0  0  0  0  0  0  0  0  0  0
    1.7330   -0.9480   -0.2210 C   0  0  0  0  0  0  0  0  0  0  0  0
    2.8980   -1.5980    0.3430 N   0  0  0  0  0  0  0  0  0  0  0  0
    4.1060   -0.8880    0.4730 C   0  0  0  0  0  0  0  0  0  0  0  0
    4.2230    0.4830    0.0580 N   0  0  0  0  0  0  0  0  0  0  0  0
    5.4020   -1.6420    1.1120 S   0  0  0  0  0  0  0  0  0  0  0  0
    1.8030   -0.3580   -1.5460 C   0  0  0  0  0  0  0  0  0  0  0  0
    2.9260   -0.4560   -2.1430 O   0  0  0  0  0  0  0  0  0  0  0  0
    0.7210    0.2700   -2.1220 O   0  0  0  0  0  0  0  0  0  0  0  0
   -0.5150    0.3690   -1.4450 C   0  0  0  0  0  0  0  0  0  0  0  0
   -1.4300    0.9580   -2.0590 O   0  0  0  0  0  0  0  0  0  0  0  0
  1  2  2  0
  2  3  1  0
  2  4  1  0
  4  5  2  3
  5  6  1  0
  5 15  1  0
  6  7  2  0
  7  8  1  0
  7 12  1  0
  8  9  1  0
  9 10  1  0
  9 11  2  0
 12 13  2  0
 12 14  1  0
 14 15  1  0
 15 16  2  0
M  END
