
     RDKit          3D

 22 23  0  0  0  0  0  0  0  0999 V2000
   -2.2730   -2.9230   -3.9860 C   0  0  0  0  0  0  0  0  0  0  0  0
   -2.5740   -2.3510   -2.7990 C   0  0  0  0  0  0  0  0  0  0  0  0
   -1.5400   -1.6150   -2.1080 C   0  0  0  0  0  0  0  0  0  0  0  0
   -1.6440   -0.9960   -0.9700 C   0  0  0  0  0  0  0  0  0  0  0  0
   -0.5080   -0.2420   -0.2880 C   0  0  0  0  0  0  0  0  0  0  0  0
    0.8500   -0.6820   -0.4590 C   0  0  0  0  0  0  0  0  0  0  0  0
    1.0440   -1.7420   -1.1930 O   0  0  0  0  0  0  0  0  0  0  0  0
    2.0120   -0.1840    0.0160 O   0  0  0  0  0  0  0  0  0  0  0  0
    3.2540   -0.7630   -0.2670 C   0  0  2  0  0  0  0  0  0  0  0  0
    3.8770   -1.2150    1.0360 C   0  0  0  0  0  0  0  0  0  0  0  0
    4.1490    0.2280   -0.9900 C   0  0  0  0  0  0  0  0  0  0  0  0
    4.3940    1.4660   -0.1600 C   0  0  0  0  0  0  0  0  0  0  0  0
   -1.0060    0.7250    0.4100 C   0  0  0  0  0  0  0  0  0  0  0  0
   -0.4120    1.7620    1.2560 C   0  0  0  0  0  0  0  0  0  0  0  0
   -1.1580    2.6790    1.8970 C   0  0  0  0  0  0  0  0  0  0  0  0
   -0.2840    3.5840    2.6650 C   0  0  0  0  0  0  0  0  0  0  0  0
    1.0430    3.0950    2.4000 C   0  0  0  0  0  0  0  0  0  0  0  0
    0.9500    2.0300    1.5750 C   0  0  0  0  0  0  0  0  0  0  0  0
   -2.5280    0.6880    0.2840 C   0  0  0  0  0  0  0  0  0  0  0  0
   -2.7770   -0.7800   -0.0670 C   0  0  2  0  0  0  0  0  0  0  0  0
   -2.7160   -1.6400    1.1620 C   0  0  0  0  0  0  0  0  0  0  0  0
   -4.1470   -0.8340   -0.6430 C   0  0  0  0  0  0  0  0  0  0  0  0
  1  2  2  0
  2  3  1  0
  3  4  2  3
  4  5  1  0
  4 20  1  0
  5  6  1  0
  5 13  2  0
  6  7  2  0
  6  8  1  0
  8  9  1  0
  9 10  1  1
  9 11  1  0
 11 12  1  0
 13 14  1  0
 13 19  1  0
 14 15  2  0
 14 18  1  0
 15 16  1  0
 16 17  1  0
 17 18  2  0
 19 20  1  0
 20 21  1  1
 20 22  1  0
M  END
