
     RDKit          3D

 19 19  0  0  0  0  0  0  0  0999 V2000
   -5.4080   -0.2260    1.4310 C   0  0  0  0  0  0  0  0  0  0  0  0
   -5.4400    0.3040    0.2290 C   0  0  0  0  0  0  0  0  0  0  0  0
   -4.2680    0.7260   -0.4870 C   0  0  0  0  0  0  0  0  0  0  0  0
   -4.4170    1.2770   -1.7030 C   0  0  0  0  0  0  0  0  0  0  0  0
   -6.1530    1.4850   -2.4430 Br  0  0  0  0  0  0  0  0  0  0  0  0
   -2.8970    0.6100    0.0250 C   0  0  0  0  0  0  0  0  0  0  0  0
   -2.3600   -0.8010    0.0670 C   0  0  0  0  0  0  0  0  0  0  0  0
   -1.0290   -0.8680    0.5850 N   0  0  0  0  0  0  0  0  0  0  0  0
    0.0880   -0.2090   -0.0150 C   0  0  0  0  0  0  0  0  0  0  0  0
   -0.0530    0.4710   -1.0460 O   0  0  0  0  0  0  0  0  0  0  0  0
    1.3960   -0.3020    0.5390 N   0  0  0  0  0  0  0  0  0  0  0  0
    2.5260    0.3640   -0.0670 C   0  0  1  0  0  0  0  0  0  0  0  0
    2.2670    1.8740   -0.1040 C   0  0  0  0  0  0  0  0  0  0  0  0
    3.6910    0.1960    0.9190 C   0  0  0  0  0  0  0  0  0  0  0  0
    4.3340   -1.1740    0.7200 C   0  0  0  0  0  0  0  0  0  0  0  0
    4.9660   -1.1830   -0.6400 C   0  0  0  0  0  0  0  0  0  0  0  0
    3.9630   -0.9640   -1.6130 O   0  0  0  0  0  0  0  0  0  0  0  0
    2.8790   -0.1280   -1.3980 C   0  0  0  0  0  0  0  0  0  0  0  0
    2.1910    0.2060   -2.3890 O   0  0  0  0  0  0  0  0  0  0  0  0
  1  2  2  0
  2  3  1  0
  3  4  2  3
  3  6  1  0
  4  5  1  0
  6  7  1  0
  7  8  1  0
  8  9  1  0
  9 10  2  0
  9 11  1  0
 11 12  1  0
 12 13  1  6
 12 14  1  0
 12 18  1  0
 14 15  1  0
 15 16  1  0
 16 17  1  0
 17 18  1  0
 18 19  2  0
M  END
