
     RDKit          3D

 22 23  0  0  0  0  0  0  0  0999 V2000
    4.5910   -1.6620    1.1960 C   0  0  0  0  0  0  0  0  0  0  0  0
    3.4560   -0.8370    0.6830 C   0  0  0  0  0  0  0  0  0  0  0  0
    3.7760    0.5120    0.1720 C   0  0  0  0  0  0  0  0  0  0  0  0
    4.9800    1.0330    0.1140 C   0  0  0  0  0  0  0  0  0  0  0  0
    6.3130    0.4860    0.5110 C   0  0  0  0  0  0  0  0  0  0  0  0
    4.8550    2.3950   -0.4650 C   0  0  0  0  0  0  0  0  0  0  0  0
    3.4450    2.5690   -0.7190 C   0  0  0  0  0  0  0  0  0  0  0  0
    2.7670    1.4700   -0.3540 C   0  0  0  0  0  0  0  0  0  0  0  0
    1.3450    1.3320   -0.4800 C   0  0  0  0  0  0  0  0  0  0  0  0
    0.6160    2.4310   -1.0310 O   0  0  0  0  0  0  0  0  0  0  0  0
    0.5950    0.3130   -0.1530 C   0  0  0  0  0  0  0  0  0  0  0  0
   -0.8610    0.3510   -0.3580 C   0  0  0  0  0  0  0  0  0  0  0  0
   -1.6270   -0.6550   -0.0410 C   0  0  0  0  0  0  0  0  0  0  0  0
   -0.9090   -1.8420    0.5460 C   0  0  0  0  0  0  0  0  0  0  0  0
   -3.0650   -0.6760   -0.2570 C   0  0  0  0  0  0  0  0  0  0  0  0
   -3.7980   -1.7170    0.1160 C   0  0  0  0  0  0  0  0  0  0  0  0
   -5.2900   -1.9630   -0.0030 C   0  0  0  0  0  0  0  0  0  0  0  0
   -5.9470   -0.9700   -0.9230 C   0  0  0  0  0  0  0  0  0  0  0  0
   -5.9940    0.3660   -0.2100 C   0  0  0  0  0  0  0  0  0  0  0  0
   -4.8710    1.2700   -0.6850 C   0  0  0  0  0  0  0  0  0  0  0  0
   -3.6310    0.4880   -0.9340 C   0  0  0  0  0  0  0  0  0  0  0  0
   -2.9600    0.9140   -1.9070 O   0  0  0  0  0  0  0  0  0  0  0  0
  1  2  1  0
  2  3  1  0
  3  4  2  0
  3  8  1  0
  4  5  1  0
  4  6  1  0
  6  7  1  0
  7  8  2  0
  8  9  1  0
  9 10  1  0
  9 11  2  3
 11 12  1  0
 12 13  2  3
 13 14  1  0
 13 15  1  0
 15 16  2  0
 15 21  1  0
 16 17  1  0
 17 18  1  0
 18 19  1  0
 19 20  1  0
 20 21  1  0
 21 22  2  0
M  END
