
     RDKit          3D

 22 22  0  0  0  0  0  0  0  0999 V2000
    5.5610    3.7020   -2.5220 C   0  0  0  0  0  0  0  0  0  0  0  0
    5.0290    2.7860   -1.7530 C   0  0  0  0  0  0  0  0  0  0  0  0
    5.8870    2.0070   -0.8390 C   0  0  0  0  0  0  0  0  0  0  0  0
    3.5980    2.5470   -1.8030 C   0  0  0  0  0  0  0  0  0  0  0  0
    3.0530    1.6270   -1.0340 C   0  0  0  0  0  0  0  0  0  0  0  0
    1.6410    1.3770   -1.0690 C   0  0  0  0  0  0  0  0  0  0  0  0
    1.0250    0.4510   -0.3110 C   0  0  0  0  0  0  0  0  0  0  0  0
    1.9120   -0.3140    0.5840 C   0  0  0  0  0  0  0  0  0  0  0  0
    1.0380   -1.1080    1.5210 C   0  0  0  0  0  0  0  0  0  0  0  0
    0.1660   -1.9840    0.6480 C   0  0  0  0  0  0  0  0  0  0  0  0
   -0.8740   -1.1680   -0.0830 C   0  0  1  0  0  0  0  0  0  0  0  0
   -1.1810   -1.8840   -1.3770 C   0  0  0  0  0  0  0  0  0  0  0  0
   -2.0840   -1.1810    0.7800 C   0  0  0  0  0  0  0  0  0  0  0  0
   -3.1530   -1.6280    0.3050 O   0  0  0  0  0  0  0  0  0  0  0  0
   -2.0930   -0.7250    2.0840 O   0  0  0  0  0  0  0  0  0  0  0  0
   -3.2320   -0.7290    2.9150 C   0  0  0  0  0  0  0  0  0  0  0  0
   -3.7320   -2.1290    3.0760 C   0  0  0  0  0  0  0  0  0  0  0  0
   -4.9220   -2.5490    2.7320 C   0  0  0  0  0  0  0  0  0  0  0  0
   -5.9530   -1.6670    2.1240 C   0  0  0  0  0  0  0  0  0  0  0  0
   -0.4130    0.2310   -0.3820 C   0  0  1  0  0  0  0  0  0  0  0  0
   -1.1380    1.2580    0.4770 C   0  0  0  0  0  0  0  0  0  0  0  0
   -0.8270    0.5520   -1.8270 C   0  0  0  0  0  0  0  0  0  0  0  0
  1  2  2  0
  2  3  1  0
  2  4  1  0
  4  5  2  3
  5  6  1  0
  6  7  2  3
  7  8  1  0
  7 20  1  0
  8  9  1  0
  9 10  1  0
 10 11  1  0
 11 12  1  6
 11 13  1  0
 11 20  1  0
 13 14  2  0
 13 15  1  0
 15 16  1  0
 16 17  1  0
 17 18  2  3
 18 19  1  0
 20 21  1  1
 20 22  1  0
M  END
