
     RDKit          3D

 18 18  0  0  0  0  0  0  0  0999 V2000
   -6.4610   -1.1990    0.1310 C   0  0  0  0  0  0  0  0  0  0  0  0
   -5.1690   -1.2790    0.6980 O   0  0  0  0  0  0  0  0  0  0  0  0
   -4.0960   -0.5920    0.1330 C   0  0  0  0  0  0  0  0  0  0  0  0
   -4.3520    0.0840   -0.8910 O   0  0  0  0  0  0  0  0  0  0  0  0
   -2.7800   -0.6920    0.7410 C   0  0  0  0  0  0  0  0  0  0  0  0
   -1.6910   -0.1080    0.3360 C   0  0  0  0  0  0  0  0  0  0  0  0
   -0.4360   -0.2960    1.0430 C   0  0  0  0  0  0  0  0  0  0  0  0
    0.7460    0.0640    0.5580 C   0  0  0  0  0  0  0  0  0  0  0  0
    1.9490   -0.1890    1.3830 C   0  0  0  0  0  0  0  0  0  0  0  0
    3.1770    0.0070    1.1230 C   0  0  0  0  0  0  0  0  0  0  0  0
    4.4570   -0.4530    2.5330 Br  0  0  0  0  0  0  0  0  0  0  0  0
    3.7880    0.4060   -0.1410 C   0  0  0  0  0  0  0  0  0  0  0  0
    4.9840   -0.5560   -0.2930 C   0  0  0  0  0  0  0  0  0  0  0  0
    6.2730   -0.0380   -0.4750 N   0  0  0  0  0  0  0  0  0  0  0  0
    4.7490   -1.7670   -0.2450 O   0  0  0  0  0  0  0  0  0  0  0  0
    0.8130    0.7810   -0.7110 C   0  0  0  0  0  0  0  0  0  0  0  0
   -0.4610    1.6150   -0.8960 C   0  0  0  0  0  0  0  0  0  0  0  0
   -1.6900    0.7670   -0.8560 C   0  0  0  0  0  0  0  0  0  0  0  0
  1  2  1  0
  2  3  1  0
  3  4  2  0
  3  5  1  0
  5  6  2  3
  6  7  1  0
  6 18  1  0
  7  8  2  0
  8  9  1  0
  8 16  1  0
  9 10  2  3
 10 11  1  0
 10 12  1  0
 12 13  1  0
 13 14  1  0
 13 15  2  0
 16 17  1  0
 17 18  1  0
M  END
