
     RDKit          3D

 19 19  0  0  0  0  0  0  0  0999 V2000
   -4.3700   -0.1580   -1.4140 C   0  0  0  0  0  0  0  0  0  0  0  0
   -3.3450    0.6210   -0.5880 C   0  0  2  0  0  0  0  0  0  0  0  0
   -2.8390    1.8170   -1.3770 C   0  0  0  0  0  0  0  0  0  0  0  0
   -2.2380   -0.2160   -0.3100 O   0  0  0  0  0  0  0  0  0  0  0  0
   -1.6070   -0.2120    0.9280 C   0  0  0  0  0  0  0  0  0  0  0  0
   -0.2250   -0.3520    1.1130 N   0  0  0  0  0  0  0  0  0  0  0  0
    0.3760   -1.4060    0.6780 C   0  0  0  0  0  0  0  0  0  0  0  0
   -0.3430   -2.4240    0.0150 N   0  0  0  0  0  0  0  0  0  0  0  0
    1.7450   -1.4940    0.8870 O   0  0  0  0  0  0  0  0  0  0  0  0
    2.4560   -0.3160    1.2030 C   0  0  0  0  0  0  0  0  0  0  0  0
    3.9190   -0.6070    1.3940 C   0  0  0  0  0  0  0  0  0  0  0  0
    4.5490   -1.1930    0.1550 C   0  0  0  0  0  0  0  0  0  0  0  0
    4.4540   -0.2830   -1.0350 C   0  0  0  0  0  0  0  0  0  0  0  0
    5.1350    1.0440   -0.8130 C   0  0  0  0  0  0  0  0  0  0  0  0
    7.0080    0.8690   -0.4370 Br  0  0  0  0  0  0  0  0  0  0  0  0
   -2.3830   -0.0630    1.9900 C   0  0  0  0  0  0  0  0  0  0  0  0
   -3.8430    0.0840    1.7590 C   0  0  0  0  0  0  0  0  0  0  0  0
   -4.0110    1.1300    0.6710 C   0  0  1  0  0  0  0  0  0  0  0  0
   -3.4200    2.3040    1.1360 O   0  0  0  0  0  0  0  0  0  0  0  0
  2  1  1  6
  2  3  1  0
  2  4  1  0
  2 18  1  0
  4  5  1  0
  5  6  1  0
  5 16  2  0
  6  7  2  3
  7  8  1  0
  7  9  1  0
  9 10  1  0
 10 11  1  0
 11 12  1  0
 12 13  1  0
 13 14  1  0
 14 15  1  0
 16 17  1  0
 17 18  1  0
 18 19  1  1
M  END
