
     RDKit          3D

 22 23  0  0  0  0  0  0  0  0999 V2000
   -4.3300    0.0560    2.7650 C   0  0  0  0  0  0  0  0  0  0  0  0
   -3.3260    0.2180    1.6730 C   0  0  0  0  0  0  0  0  0  0  0  0
   -3.8210    0.5400    0.3140 C   0  0  0  0  0  0  0  0  0  0  0  0
   -5.0630    0.7540   -0.0130 C   0  0  0  0  0  0  0  0  0  0  0  0
   -6.3280    0.7590    0.7700 C   0  0  0  0  0  0  0  0  0  0  0  0
   -5.0860    1.0390   -1.4970 C   0  0  0  0  0  0  0  0  0  0  0  0
   -3.7060    0.9440   -1.8860 C   0  0  0  0  0  0  0  0  0  0  0  0
   -2.9150    0.6510   -0.8550 C   0  0  0  0  0  0  0  0  0  0  0  0
   -1.4880    0.4980   -0.9780 C   0  0  0  0  0  0  0  0  0  0  0  0
   -0.9480    0.6840   -2.2960 O   0  0  0  0  0  0  0  0  0  0  0  0
   -0.6000    0.2100   -0.0480 C   0  0  0  0  0  0  0  0  0  0  0  0
    0.8330    0.1050   -0.4160 C   0  0  0  0  0  0  0  0  0  0  0  0
    1.7770   -0.1700    0.4110 C   0  0  0  0  0  0  0  0  0  0  0  0
    1.5170   -0.4170    1.8470 C   0  0  0  0  0  0  0  0  0  0  0  0
    3.1950   -0.2200   -0.0090 C   0  0  0  0  0  0  0  0  0  0  0  0
    4.1040   -0.5380    0.9030 C   0  0  0  0  0  0  0  0  0  0  0  0
    5.5810   -0.6840    0.8490 C   0  0  0  0  0  0  0  0  0  0  0  0
    6.1210   -0.6500   -0.5490 C   0  0  0  0  0  0  0  0  0  0  0  0
    5.3550   -1.4400   -1.5380 C   0  0  0  0  0  0  0  0  0  0  0  0
    4.4260   -0.5490   -2.3510 C   0  0  0  0  0  0  0  0  0  0  0  0
    3.5140    0.1180   -1.3970 C   0  0  0  0  0  0  0  0  0  0  0  0
    2.9280    1.1300   -1.8560 O   0  0  0  0  0  0  0  0  0  0  0  0
  1  2  1  0
  2  3  1  0
  3  4  2  0
  3  8  1  0
  4  5  1  0
  4  6  1  0
  6  7  1  0
  7  8  2  0
  8  9  1  0
  9 10  1  0
  9 11  2  3
 11 12  1  0
 12 13  2  3
 13 14  1  0
 13 15  1  0
 15 16  2  0
 15 21  1  0
 16 17  1  0
 17 18  1  0
 18 19  1  0
 19 20  1  0
 20 21  1  0
 21 22  2  0
M  END
