
     RDKit          3D

 18 18  0  0  0  0  0  0  0  0999 V2000
   -1.8880    1.4600   -2.4860 C   0  0  0  0  0  0  0  0  0  0  0  0
   -2.7660    0.7320   -1.5010 C   0  0  0  0  0  0  0  0  0  0  0  0
   -4.1880    0.6730   -1.7220 C   0  0  0  0  0  0  0  0  0  0  0  0
   -2.1280    0.1720   -0.4450 C   0  0  0  0  0  0  0  0  0  0  0  0
   -0.7830    0.3430   -0.4180 O   0  0  0  0  0  0  0  0  0  0  0  0
    0.2950    0.0460    0.2820 C   0  0  0  0  0  0  0  0  0  0  0  0
    1.5190    0.6740   -0.4350 C   0  0  0  0  0  0  0  0  0  0  0  0
    2.7400    0.4130    0.2400 N   0  0  0  0  0  0  0  0  0  0  0  0
    3.1470   -0.9750    0.2140 C   0  0  0  0  0  0  0  0  0  0  0  0
    4.4910   -1.1140    0.8800 C   0  0  0  0  0  0  0  0  0  0  0  0
    4.8980    0.1240    1.3880 O   0  0  0  0  0  0  0  0  0  0  0  0
    5.1000    0.9490    0.2600 C   0  0  0  0  0  0  0  0  0  0  0  0
    3.7550    1.2830   -0.3380 C   0  0  0  0  0  0  0  0  0  0  0  0
   -2.8020   -0.5650    0.5950 C   0  0  0  0  0  0  0  0  0  0  0  0
   -4.2400   -0.7260    0.5090 N   0  0  0  0  0  0  0  0  0  0  0  0
   -2.2420   -1.1270    1.6430 C   0  0  0  0  0  0  0  0  0  0  0  0
   -3.0950   -1.8690    2.6510 C   0  0  0  0  0  0  0  0  0  0  0  0
   -2.9140   -1.0530    4.3930 Br  0  0  0  0  0  0  0  0  0  0  0  0
  1  2  1  0
  2  3  1  0
  2  4  2  3
  4  5  1  0
  4 14  1  0
  5  6  1  0
  6  7  1  0
  7  8  1  0
  8  9  1  0
  8 13  1  0
  9 10  1  0
 10 11  1  0
 11 12  1  0
 12 13  1  0
 14 15  1  0
 14 16  2  3
 16 17  1  0
 17 18  1  0
M  END
