
     RDKit          3D

 22 23  0  0  0  0  0  0  0  0999 V2000
   -0.4270   -4.3020    1.3060 C   0  0  0  0  0  0  0  0  0  0  0  0
   -0.9800   -3.4310    0.4620 C   0  0  0  0  0  0  0  0  0  0  0  0
   -0.6010   -2.0310    0.4800 C   0  0  0  0  0  0  0  0  0  0  0  0
   -1.0640   -1.0730   -0.2820 C   0  0  0  0  0  0  0  0  0  0  0  0
   -0.5760    0.3580   -0.1640 C   0  0  0  0  0  0  0  0  0  0  0  0
    0.8020    0.6550    0.2550 C   0  0  0  0  0  0  0  0  0  0  0  0
    1.3440    1.7320    0.4110 O   0  0  0  0  0  0  0  0  0  0  0  0
    1.6930   -0.4020    0.5360 O   0  0  0  0  0  0  0  0  0  0  0  0
    2.9800   -0.1800    0.9260 C   0  0  2  0  0  0  0  0  0  0  0  0
    3.9620   -0.7200   -0.1230 C   0  0  0  0  0  0  0  0  0  0  0  0
    3.4000   -0.7570    2.2460 C   0  0  0  0  0  0  0  0  0  0  0  0
    4.8530   -0.3720    2.4450 C   0  0  0  0  0  0  0  0  0  0  0  0
   -1.5350    1.1440   -0.5130 C   0  0  0  0  0  0  0  0  0  0  0  0
   -1.6400    2.5930   -0.5930 C   0  0  0  0  0  0  0  0  0  0  0  0
   -2.7750    3.1750   -0.9970 C   0  0  0  0  0  0  0  0  0  0  0  0
   -2.6320    4.6550   -0.9930 C   0  0  0  0  0  0  0  0  0  0  0  0
   -1.2710    4.8610   -0.5340 C   0  0  0  0  0  0  0  0  0  0  0  0
   -0.7130    3.6440   -0.3080 C   0  0  0  0  0  0  0  0  0  0  0  0
   -2.7480    0.2980   -0.9260 C   0  0  0  0  0  0  0  0  0  0  0  0
   -2.0820   -1.0280   -1.3300 C   0  0  2  0  0  0  0  0  0  0  0  0
   -3.1320   -2.0850   -1.3210 C   0  0  0  0  0  0  0  0  0  0  0  0
   -1.4270   -0.9000   -2.6740 C   0  0  0  0  0  0  0  0  0  0  0  0
  1  2  2  0
  2  3  1  0
  3  4  2  3
  4  5  1  0
  4 20  1  0
  5  6  1  0
  5 13  2  0
  6  7  2  0
  6  8  1  0
  8  9  1  0
  9 10  1  6
  9 11  1  0
 11 12  1  0
 13 14  1  0
 13 19  1  0
 14 15  2  0
 14 18  1  0
 15 16  1  0
 16 17  1  0
 17 18  2  0
 19 20  1  0
 20 21  1  6
 20 22  1  0
M  END
