
     RDKit          3D

 19 19  0  0  0  0  0  0  0  0999 V2000
    7.2240   -1.7850    1.6090 C   0  0  0  0  0  0  0  0  0  0  0  0
    6.1290   -1.3910    0.9820 C   0  0  0  0  0  0  0  0  0  0  0  0
    6.0040   -1.5580   -0.4470 C   0  0  0  0  0  0  0  0  0  0  0  0
    7.4660   -2.3670   -1.4050 Br  0  0  0  0  0  0  0  0  0  0  0  0
    4.9440   -1.1860   -1.1180 C   0  0  0  0  0  0  0  0  0  0  0  0
    3.7700   -0.5660   -0.5250 C   0  0  0  0  0  0  0  0  0  0  0  0
    2.7400   -0.2170   -1.2710 C   0  0  0  0  0  0  0  0  0  0  0  0
    1.5690    0.4010   -0.6840 C   0  0  0  0  0  0  0  0  0  0  0  0
    1.5480    0.6020    0.5580 O   0  0  0  0  0  0  0  0  0  0  0  0
    0.4630    0.7730   -1.5040 N   0  0  0  0  0  0  0  0  0  0  0  0
   -0.6710    1.3640   -0.9820 N   0  0  0  0  0  0  0  0  0  0  0  0
   -1.9250    0.7090   -1.0640 C   0  0  0  0  0  0  0  0  0  0  0  0
   -1.9830   -0.4120   -1.6180 O   0  0  0  0  0  0  0  0  0  0  0  0
   -3.1710    1.3030   -0.5150 C   0  0  0  0  0  0  0  0  0  0  0  0
   -4.3420    0.3470   -0.7400 C   0  0  2  0  0  0  0  0  0  0  0  0
   -5.5500    1.0290   -0.1510 C   0  0  0  0  0  0  0  0  0  0  0  0
   -5.3780    0.7670    1.3160 C   0  0  0  0  0  0  0  0  0  0  0  0
   -4.3880   -0.3510    1.3650 C   0  0  0  0  0  0  0  0  0  0  0  0
   -4.1050   -0.7450    0.0920 O   0  0  0  0  0  0  0  0  0  0  0  0
  1  2  2  0
  2  3  1  0
  3  4  1  0
  3  5  2  3
  5  6  1  0
  6  7  2  3
  7  8  1  0
  8  9  2  0
  8 10  1  0
 10 11  1  0
 11 12  1  0
 12 13  2  0
 12 14  1  0
 15 14  1  1
 15 16  1  0
 15 19  1  0
 16 17  1  0
 17 18  1  0
 18 19  1  0
M  END
