
     RDKit          3D

 38 42  0  0  0  0  0  0  0  0999 V2000
    4.9600   -2.9180    1.3420 C   0  0  0  0  0  0  0  0  0  0  0  0
    4.7020   -1.6590    0.7440 O   0  0  0  0  0  0  0  0  0  0  0  0
    5.7730   -0.8190    0.5240 C   0  0  0  0  0  0  0  0  0  0  0  0
    7.0640   -1.1250    0.8470 C   0  0  0  0  0  0  0  0  0  0  0  0
    8.1320   -0.3030    0.6350 C   0  0  0  0  0  0  0  0  0  0  0  0
    7.8910    0.9160    0.0580 C   0  0  0  0  0  0  0  0  0  0  0  0
    6.5760    1.2760   -0.2930 C   0  0  0  0  0  0  0  0  0  0  0  0
    5.5200    0.4210   -0.0650 C   0  0  0  0  0  0  0  0  0  0  0  0
    4.1890    0.7430   -0.4020 N   0  0  0  0  0  0  0  0  0  0  0  0
    3.6680    1.9010   -0.9820 C   0  0  0  0  0  0  0  0  0  0  0  0
    4.5190    2.8280   -1.2600 O   0  0  0  0  0  0  0  0  0  0  0  0
    2.2890    2.2250   -1.3260 C   0  0  0  0  0  0  0  0  0  0  0  0
    1.2640    1.3680   -1.0960 O   0  0  0  0  0  0  0  0  0  0  0  0
    0.7530    0.7920    0.0240 C   0  0  0  0  0  0  0  0  0  0  0  0
    1.3720    1.0940    1.1140 O   0  0  0  0  0  0  0  0  0  0  0  0
   -0.3940   -0.0880    0.0350 C   0  0  0  0  0  0  0  0  0  0  0  0
   -0.1960   -1.4670   -0.0340 C   0  0  0  0  0  0  0  0  0  0  0  0
    1.1890   -1.9980   -0.1200 C   0  0  0  0  0  0  0  0  0  0  0  0
    1.7360   -1.7730   -1.7800 Cl  0  0  0  0  0  0  0  0  0  0  0  0
   -1.1910   -2.3650   -0.0450 N   0  0  0  0  0  0  0  0  0  0  0  0
   -2.4330   -1.8970    0.0150 C   0  0  0  0  0  0  0  0  0  0  0  0
   -3.5180   -2.8180    0.0080 N   0  0  0  0  0  0  0  0  0  0  0  0
   -3.4170   -4.2690   -0.0570 C   0  0  0  0  0  0  0  0  0  0  0  0
   -4.6270   -4.7910    0.6870 C   0  0  0  0  0  0  0  0  0  0  0  0
   -5.3910   -3.5530    1.1300 C   0  0  0  0  0  0  0  0  0  0  0  0
   -4.9440   -2.5560    0.0610 C   0  0  0  0  0  0  0  0  0  0  0  0
   -2.6650   -0.5960    0.0810 N   0  0  0  0  0  0  0  0  0  0  0  0
   -1.6790    0.3730    0.0930 C   0  0  0  0  0  0  0  0  0  0  0  0
   -2.1140    1.7630    0.0600 C   0  0  0  0  0  0  0  0  0  0  0  0
   -1.3290    2.8450    0.3330 C   0  0  0  0  0  0  0  0  0  0  0  0
   -1.7960    4.1690    0.2270 C   0  0  0  0  0  0  0  0  0  0  0  0
   -3.0890    4.4260   -0.1630 C   0  0  0  0  0  0  0  0  0  0  0  0
   -3.8850    3.3620   -0.4390 C   0  0  0  0  0  0  0  0  0  0  0  0
   -3.4190    2.0720   -0.3330 C   0  0  0  0  0  0  0  0  0  0  0  0
   -5.2040    3.8530   -0.8290 C   0  0  0  0  0  0  0  0  0  0  0  0
   -6.2350    3.1800   -1.0430 O   0  0  0  0  0  0  0  0  0  0  0  0
   -5.0840    5.3260   -0.9260 C   0  0  0  0  0  0  0  0  0  0  0  0
   -3.8150    5.6370   -0.3510 N   0  0  0  0  0  0  0  0  0  0  0  0
  1  2  1  0
  2  3  1  0
  3  4  2  0
  3  8  1  0
  4  5  1  0
  5  6  2  0
  6  7  1  0
  7  8  2  0
  8  9  1  0
  9 10  1  0
 10 11  2  0
 10 12  1  0
 12 13  1  0
 13 14  1  0
 14 15  2  0
 14 16  1  0
 16 17  2  0
 16 28  1  0
 17 18  1  0
 17 20  1  0
 18 19  1  0
 20 21  2  0
 21 22  1  0
 21 27  1  0
 22 23  1  0
 22 26  1  0
 23 24  1  0
 24 25  1  0
 25 26  1  0
 27 28  2  0
 28 29  1  0
 29 30  2  0
 29 34  1  0
 30 31  1  0
 31 32  2  0
 32 33  1  0
 32 38  1  0
 33 34  2  0
 33 35  1  0
 35 36  2  0
 35 37  1  0
 37 38  1  0
M  CHG  2  20   1  27   1
M  END
