
     RDKit          3D

 38 41  0  0  0  0  0  0  0  0999 V2000
   -3.4380   -2.5910   -1.5160 C   0  0  0  0  0  0  0  0  0  0  0  0
   -2.6890   -2.5130   -0.2150 C   0  0  2  0  0  0  0  0  0  0  0  0
   -3.0510   -3.7690    0.5850 C   0  0  0  0  0  0  0  0  0  0  0  0
   -3.0240   -1.3060    0.5910 C   0  0  0  0  0  0  0  0  0  0  0  0
   -2.7510   -0.1010   -0.0720 N   0  0  0  0  0  0  0  0  0  0  0  0
   -1.4470    0.4370   -0.0440 C   0  0  0  0  0  0  0  0  0  0  0  0
   -0.9210    0.8940    1.2720 C   0  0  1  0  0  0  0  0  0  0  0  0
   -0.8430   -0.1450    2.1960 O   0  0  0  0  0  0  0  0  0  0  0  0
    0.4270    1.5470    1.1900 C   0  0  2  0  0  0  0  0  0  0  0  0
    0.4160    2.8770    0.5040 C   0  0  0  0  0  0  0  0  0  0  0  0
    1.7910    3.4360    0.4750 C   0  0  0  0  0  0  0  0  0  0  0  0
    2.6580    3.1890   -0.5640 C   0  0  0  0  0  0  0  0  0  0  0  0
    3.9480    3.6900   -0.6280 C   0  0  0  0  0  0  0  0  0  0  0  0
    4.4030    4.4930    0.4200 C   0  0  0  0  0  0  0  0  0  0  0  0
    3.5600    4.7490    1.4550 C   0  0  0  0  0  0  0  0  0  0  0  0
    2.2790    4.2450    1.5090 C   0  0  0  0  0  0  0  0  0  0  0  0
    1.4610    0.6470    0.7480 N   0  0  0  0  0  0  0  0  0  0  0  0
    2.4960    0.1280    1.5670 C   0  0  0  0  0  0  0  0  0  0  0  0
    2.5300    0.4600    2.7770 O   0  0  0  0  0  0  0  0  0  0  0  0
    3.4890   -0.7290    1.1340 O   0  0  0  0  0  0  0  0  0  0  0  0
    4.4980   -1.2440    1.9240 C   0  0  1  0  0  0  0  0  0  0  0  0
    4.6180   -2.7340    1.9100 C   0  0  0  0  0  0  0  0  0  0  0  0
    5.3640   -2.9770    0.7600 O   0  0  0  0  0  0  0  0  0  0  0  0
    6.4370   -2.0830    0.8860 C   0  0  1  0  0  0  0  0  0  0  0  0
    6.9420   -1.7610   -0.3580 O   0  0  0  0  0  0  0  0  0  0  0  0
    7.1670   -0.3900   -0.3820 C   0  0  0  0  0  0  0  0  0  0  0  0
    5.9050    0.1220    0.3320 C   0  0  0  0  0  0  0  0  0  0  0  0
    5.8820   -0.8230    1.5030 C   0  0  1  0  0  0  0  0  0  0  0  0
   -4.0130    0.9540   -0.4140 S   0  0  2  0  0  0  0  0  0  0  0  0
   -3.4660    2.1500   -1.1770 O   0  0  0  0  0  0  0  0  0  0  0  0
   -4.7300    1.4470    0.8180 O   0  0  0  0  0  0  0  0  0  0  0  0
   -5.1920    0.2130   -1.4630 C   0  0  0  0  0  0  0  0  0  0  0  0
   -5.0800    0.2480   -2.8380 C   0  0  0  0  0  0  0  0  0  0  0  0
   -6.0100   -0.3190   -3.6840 C   0  0  0  0  0  0  0  0  0  0  0  0
   -7.1120   -0.9590   -3.1840 C   0  0  0  0  0  0  0  0  0  0  0  0
   -8.0950   -1.5580   -4.0290 N   0  0  0  0  0  0  0  0  0  0  0  0
   -7.2320   -0.9990   -1.7950 C   0  0  0  0  0  0  0  0  0  0  0  0
   -6.3100   -0.4350   -0.9460 C   0  0  0  0  0  0  0  0  0  0  0  0
  2  1  1  6
  2  3  1  0
  2  4  1  0
  4  5  1  0
  5  6  1  0
 29  5  1  1
  6  7  1  0
  7  8  1  1
  7  9  1  0
  9 10  1  6
  9 17  1  0
 10 11  1  0
 11 12  2  0
 11 16  1  0
 12 13  1  0
 13 14  2  0
 14 15  1  0
 15 16  2  0
 17 18  1  0
 18 19  2  0
 18 20  1  0
 21 20  1  6
 21 22  1  0
 21 28  1  0
 22 23  1  0
 24 23  1  6
 24 25  1  0
 24 28  1  0
 25 26  1  0
 26 27  1  0
 28 27  1  6
 29 30  2  0
 29 31  2  0
 29 32  1  0
 32 33  2  0
 32 38  1  0
 33 34  1  0
 34 35  2  0
 35 36  1  0
 35 37  1  0
 37 38  2  0
M  END
