
     RDKit          3D

 38 42  0  0  0  0  0  0  0  0999 V2000
   -7.1760   -0.8950    1.6080 C   0  0  0  0  0  0  0  0  0  0  0  0
   -5.9210   -0.1140    1.4480 C   0  0  0  0  0  0  0  0  0  0  0  0
   -5.6930    0.9280    2.3170 C   0  0  0  0  0  0  0  0  0  0  0  0
   -4.5390    1.6660    2.1920 C   0  0  0  0  0  0  0  0  0  0  0  0
   -3.6170    1.3670    1.2050 C   0  0  0  0  0  0  0  0  0  0  0  0
   -3.8700    0.3220    0.3510 C   0  0  0  0  0  0  0  0  0  0  0  0
   -2.9230   -0.0690   -0.6940 C   0  0  0  0  0  0  0  0  0  0  0  0
   -1.8310    0.7870   -0.7550 O   0  0  0  0  0  0  0  0  0  0  0  0
   -1.8950    2.1250   -1.0800 C   0  0  0  0  0  0  0  0  0  0  0  0
   -3.0190    2.6570   -1.3660 O   0  0  0  0  0  0  0  0  0  0  0  0
   -0.6850    2.9810   -1.1080 C   0  0  0  0  0  0  0  0  0  0  0  0
    0.4360    2.1610   -0.7520 O   0  0  0  0  0  0  0  0  0  0  0  0
    1.6970    2.7110   -0.6820 C   0  0  0  0  0  0  0  0  0  0  0  0
    1.8860    3.9040   -0.9190 O   0  0  0  0  0  0  0  0  0  0  0  0
    2.8980    1.8540   -0.3060 C   0  0  0  0  0  0  0  0  0  0  0  0
    4.0720    2.6360   -0.2530 N   0  0  1  0  0  0  0  0  0  0  0  0
    4.0130    3.4430    0.9960 C   0  0  0  0  0  0  0  0  0  0  0  0
    5.2770    1.9240   -0.1700 C   0  0  0  0  0  0  0  0  0  0  0  0
    6.4860    2.5710   -0.1810 N   0  0  0  0  0  0  0  0  0  0  0  0
    7.4140    1.6680   -0.0750 N   0  0  0  0  0  0  0  0  0  0  0  0
    6.8770    0.4490    0.0070 C   0  0  0  0  0  0  0  0  0  0  0  0
    5.5220    0.6230   -0.0540 N   0  0  0  0  0  0  0  0  0  0  0  0
    4.9710   -0.6960    0.0430 C   0  0  0  0  0  0  0  0  0  0  0  0
    3.7560   -1.0120    0.0320 O   0  0  0  0  0  0  0  0  0  0  0  0
    6.0500   -1.6790    0.1650 C   0  0  0  0  0  0  0  0  0  0  0  0
    6.0290   -3.0490    0.2840 C   0  0  0  0  0  0  0  0  0  0  0  0
    7.2110   -3.7300    0.3830 C   0  0  0  0  0  0  0  0  0  0  0  0
    8.3930   -3.0300    0.3610 C   0  0  0  0  0  0  0  0  0  0  0  0
    8.3970   -1.6730    0.2430 C   0  0  0  0  0  0  0  0  0  0  0  0
    7.2150   -0.9520    0.1400 C   0  0  0  0  0  0  0  0  0  0  0  0
   -5.0440   -0.4400    0.4670 C   0  0  0  0  0  0  0  0  0  0  0  0
   -5.3220   -1.5540   -0.4320 C   0  0  0  0  0  0  0  0  0  0  0  0
   -6.1860   -1.4230   -1.5050 C   0  0  0  0  0  0  0  0  0  0  0  0
   -6.4200   -2.5040   -2.3320 C   0  0  0  0  0  0  0  0  0  0  0  0
   -5.8370   -3.7080   -2.1450 N   0  0  0  0  0  0  0  0  0  0  0  0
   -4.9910   -3.8620   -1.1080 C   0  0  0  0  0  0  0  0  0  0  0  0
   -4.2570   -5.4370   -0.8990 Cl  0  0  0  0  0  0  0  0  0  0  0  0
   -4.7440   -2.8000   -0.2730 C   0  0  0  0  0  0  0  0  0  0  0  0
  1  2  1  0
  2  3  2  0
  2 31  1  0
  3  4  1  0
  4  5  2  0
  5  6  1  0
  6  7  1  0
  6 31  2  0
  7  8  1  0
  8  9  1  0
  9 10  2  0
  9 11  1  0
 11 12  1  0
 12 13  1  0
 13 14  2  0
 13 15  1  0
 15 16  1  0
 16 17  1  1
 16 18  1  0
 18 19  2  0
 18 22  1  0
 19 20  1  0
 20 21  2  0
 21 22  1  0
 21 30  1  0
 22 23  1  0
 23 24  2  0
 23 25  1  0
 25 26  2  0
 25 30  1  0
 26 27  1  0
 27 28  2  0
 28 29  1  0
 29 30  2  0
 31 32  1  0
 32 33  2  0
 32 38  1  0
 33 34  1  0
 34 35  2  0
 35 36  1  0
 36 37  1  0
 36 38  2  0
M  CHG  2  16   1  35   1
M  END
