
     RDKit          3D

 38 42  0  0  0  0  0  0  0  0999 V2000
    8.2710   -3.4740    0.1650 C   0  0  0  0  0  0  0  0  0  0  0  0
    8.8000   -2.0640    0.4970 C   0  0  0  0  0  0  0  0  0  0  0  0
    7.7050   -1.1730   -0.0860 C   0  0  0  0  0  0  0  0  0  0  0  0
    6.6650   -0.9340    0.7390 N   0  0  0  0  0  0  0  0  0  0  0  0
    5.6810   -0.1600    0.3040 C   0  0  0  0  0  0  0  0  0  0  0  0
    5.7460    0.3910   -1.0080 C   0  0  0  0  0  0  0  0  0  0  0  0
    6.8160    0.1080   -1.7680 C   0  0  0  0  0  0  0  0  0  0  0  0
    6.8480    0.6130   -2.9010 O   0  0  0  0  0  0  0  0  0  0  0  0
    7.7710   -0.6720   -1.3000 O   0  0  0  0  0  0  0  0  0  0  0  0
    4.5460    1.1900   -1.3290 C   0  0  0  0  0  0  0  0  0  0  0  0
    3.2890    0.3510   -1.0200 C   0  0  0  0  0  0  0  0  0  0  0  0
    3.2800   -0.2290    0.3200 N   0  0  2  0  0  0  0  0  0  0  0  0
    2.2560    0.3950    1.0960 C   0  0  0  0  0  0  0  0  0  0  0  0
    0.8870    0.4310    0.6080 C   0  0  0  0  0  0  0  0  0  0  0  0
   -0.0730   -0.4830    0.4430 N   0  0  0  0  0  0  0  0  0  0  0  0
   -1.2520    0.0910    0.1880 C   0  0  0  0  0  0  0  0  0  0  0  0
   -2.6200   -0.5270    0.0730 C   0  0  2  0  0  0  0  0  0  0  0  0
   -2.7950   -1.5920   -0.9490 C   0  0  0  0  0  0  0  0  0  0  0  0
   -4.2430   -2.0460   -0.9080 C   0  0  0  0  0  0  0  0  0  0  0  0
   -5.0590   -1.4580    0.1930 C   0  0  0  0  0  0  0  0  0  0  0  0
   -4.9920   -0.0550    0.3340 N   0  0  0  0  0  0  0  0  0  0  0  0
   -6.0100    0.8360    0.6650 C   0  0  0  0  0  0  0  0  0  0  0  0
   -5.5800    2.0240    1.0210 O   0  0  0  0  0  0  0  0  0  0  0  0
   -7.4200    0.6870    0.6800 C   0  0  0  0  0  0  0  0  0  0  0  0
   -8.2120    1.4510    1.4940 O   0  0  0  0  0  0  0  0  0  0  0  0
   -9.4770    1.1390    1.2950 C   0  0  0  0  0  0  0  0  0  0  0  0
   -9.5550    0.1690    0.3590 C   0  0  0  0  0  0  0  0  0  0  0  0
   -8.2580   -0.1090   -0.0290 C   0  0  0  0  0  0  0  0  0  0  0  0
   -7.9560   -1.0560   -1.1740 C   0  0  0  0  0  0  0  0  0  0  0  0
   -3.6750    0.5340   -0.0160 C   0  0  0  0  0  0  0  0  0  0  0  0
   -1.0140    1.4370    0.1940 N   0  0  0  0  0  0  0  0  0  0  0  0
    0.2480    1.7050    0.4320 C   0  0  0  0  0  0  0  0  0  0  0  0
    1.0430    2.9590    0.5090 C   0  0  0  0  0  0  0  0  0  0  0  0
    0.6310    4.0780    0.0360 C   0  0  0  0  0  0  0  0  0  0  0  0
   -0.5260    4.4280   -0.6350 C   0  0  0  0  0  0  0  0  0  0  0  0
   -1.5820    3.9500   -1.0720 O   0  0  0  0  0  0  0  0  0  0  0  0
   -0.5550    6.2880   -1.0020 Cl  0  0  0  0  0  0  0  0  0  0  0  0
    4.5130    0.2170    1.0780 C   0  0  0  0  0  0  0  0  0  0  0  0
  1  2  1  0
  2  3  1  0
  3  4  2  0
  3  9  1  0
  4  5  1  0
  5  6  2  0
  5 38  1  0
  6  7  1  0
  6 10  1  0
  7  8  2  0
  7  9  1  0
 10 11  1  0
 11 12  1  0
 12 13  1  1
 12 38  1  0
 13 14  1  0
 14 15  1  0
 14 32  2  0
 15 16  1  0
 17 16  1  6
 16 31  2  0
 17 18  1  0
 17 30  1  0
 18 19  1  0
 19 20  1  0
 20 21  1  0
 21 22  1  0
 21 30  1  0
 22 23  2  0
 22 24  1  0
 24 25  1  0
 24 28  2  0
 25 26  1  0
 26 27  2  0
 27 28  1  0
 28 29  1  0
 31 32  1  0
 32 33  1  0
 33 34  2  3
 34 35  1  0
 35 36  2  0
 35 37  1  0
M  CHG  2   4   1  12   1
M  END
