
     RDKit          3D

 38 42  0  0  0  0  0  0  0  0999 V2000
   -7.3920   -2.7350    2.4340 C   0  0  0  0  0  0  0  0  0  0  0  0
   -7.0750   -3.3190    1.2300 O   0  0  0  0  0  0  0  0  0  0  0  0
   -6.4730   -2.4430    0.3380 C   0  0  2  0  0  0  0  0  0  0  0  0
   -7.2250   -2.2910   -0.9400 C   0  0  0  0  0  0  0  0  0  0  0  0
   -5.0550   -2.9420    0.1520 C   0  0  0  0  0  0  0  0  0  0  0  0
   -4.2820   -2.1820   -0.7210 O   0  0  0  0  0  0  0  0  0  0  0  0
   -3.9950   -0.8420   -0.5730 C   0  0  0  0  0  0  0  0  0  0  0  0
   -4.4570   -0.2260    0.4130 O   0  0  0  0  0  0  0  0  0  0  0  0
   -3.1690   -0.1580   -1.5530 C   0  0  0  0  0  0  0  0  0  0  0  0
   -1.8840    0.2810   -1.0480 N   0  0  0  0  0  0  0  0  0  0  0  0
   -0.7960   -0.4530   -1.0560 C   0  0  0  0  0  0  0  0  0  0  0  0
   -0.8440   -1.6340   -1.5170 O   0  0  0  0  0  0  0  0  0  0  0  0
    0.4540    0.0450   -0.5540 C   0  0  0  0  0  0  0  0  0  0  0  0
    1.5150   -0.8990   -0.6490 C   0  0  0  0  0  0  0  0  0  0  0  0
    2.8460   -0.8420   -0.3160 N   0  0  2  0  0  0  0  0  0  0  0  0
    3.7090   -0.2290   -1.3300 C   0  0  0  0  0  0  0  0  0  0  0  0
    5.0290    0.0740   -0.6560 C   0  0  0  0  0  0  0  0  0  0  0  0
    5.2810   -0.8590    0.4330 N   0  0  0  0  0  0  0  0  0  0  0  0
    6.7340   -1.0590    0.4580 C   0  0  0  0  0  0  0  0  0  0  0  0
    6.9730   -1.9840   -0.6330 N   0  0  0  0  0  0  0  0  0  0  0  0
    5.7970   -2.7800   -0.7750 C   0  0  0  0  0  0  0  0  0  0  0  0
    4.7900   -2.1710    0.1760 C   0  0  1  0  0  0  0  0  0  0  0  0
    4.8590   -2.9650    1.4720 C   0  0  0  0  0  0  0  0  0  0  0  0
    3.3960   -2.2760   -0.3310 C   0  0  0  0  0  0  0  0  0  0  0  0
    0.4350    1.3140   -0.0750 C   0  0  0  0  0  0  0  0  0  0  0  0
    1.5730    1.9010    0.4330 C   0  0  0  0  0  0  0  0  0  0  0  0
    1.6140    3.1610    0.9230 C   0  0  0  0  0  0  0  0  0  0  0  0
    0.4730    3.9000    0.9190 C   0  0  0  0  0  0  0  0  0  0  0  0
    0.4770    5.1950    1.4070 C   0  0  0  0  0  0  0  0  0  0  0  0
   -0.6570    5.9670    1.4100 C   0  0  0  0  0  0  0  0  0  0  0  0
   -0.6460    7.5950    2.0260 Cl  0  0  0  0  0  0  0  0  0  0  0  0
   -1.7990    5.4260    0.9170 C   0  0  0  0  0  0  0  0  0  0  0  0
   -3.0500    6.2450    0.9050 C   0  0  0  0  0  0  0  0  0  0  0  0
   -1.8590    4.1130    0.4090 C   0  0  0  0  0  0  0  0  0  0  0  0
   -0.7130    3.3620    0.4170 C   0  0  0  0  0  0  0  0  0  0  0  0
   -0.7170    2.0810   -0.0700 N   0  0  0  0  0  0  0  0  0  0  0  0
   -1.8470    1.5600   -0.5510 C   0  0  0  0  0  0  0  0  0  0  0  0
   -2.9180    2.1740   -0.5830 O   0  0  0  0  0  0  0  0  0  0  0  0
  1  2  1  0
  2  3  1  0
  3  4  1  6
  3  5  1  0
  5  6  1  0
  6  7  1  0
  7  8  2  0
  7  9  1  0
  9 10  1  0
 10 11  1  0
 10 37  1  0
 11 12  2  0
 11 13  1  0
 13 14  1  0
 13 25  2  0
 15 14  1  6
 15 16  1  0
 15 24  1  0
 16 17  1  0
 17 18  1  0
 18 19  1  0
 18 22  1  0
 19 20  1  0
 20 21  1  0
 21 22  1  0
 22 23  1  1
 22 24  1  0
 25 26  1  0
 25 36  1  0
 26 27  2  0
 27 28  1  0
 28 29  2  0
 28 35  1  0
 29 30  1  0
 30 31  1  0
 30 32  2  0
 32 33  1  0
 32 34  1  0
 34 35  2  0
 35 36  1  0
 36 37  1  0
 37 38  2  0
M  CHG  2  15   1  20   1
M  END
