
     RDKit          3D

 38 42  0  0  0  0  0  0  0  0999 V2000
    8.9580   -2.1930    0.7150 C   0  0  0  0  0  0  0  0  0  0  0  0
    9.0600   -0.8360    0.5100 O   0  0  0  0  0  0  0  0  0  0  0  0
    7.8290   -0.2440    0.2130 C   0  0  0  0  0  0  0  0  0  0  0  0
    8.0560    1.2290    0.0070 C   0  0  0  0  0  0  0  0  0  0  0  0
    9.3340    1.7640    0.1340 C   0  0  0  0  0  0  0  0  0  0  0  0
    9.5650    3.1280   -0.0530 C   0  0  0  0  0  0  0  0  0  0  0  0
    8.4900    3.9260   -0.3670 C   0  0  0  0  0  0  0  0  0  0  0  0
    8.7550    5.6340   -0.6060 Cl  0  0  0  0  0  0  0  0  0  0  0  0
    7.2400    3.3620   -0.4840 C   0  0  0  0  0  0  0  0  0  0  0  0
    7.0240    2.0320   -0.2990 N   0  0  0  0  0  0  0  0  0  0  0  0
    5.7170    1.4930   -0.4300 C   0  0  0  0  0  0  0  0  0  0  0  0
    4.7670    1.8550    0.4900 C   0  0  0  0  0  0  0  0  0  0  0  0
    3.4720    1.3180    0.3550 C   0  0  0  0  0  0  0  0  0  0  0  0
    3.1980    0.4670   -0.6690 C   0  0  0  0  0  0  0  0  0  0  0  0
    1.8680   -0.1300   -0.8730 C   0  0  0  0  0  0  0  0  0  0  0  0
    1.7430   -0.8860   -1.8800 O   0  0  0  0  0  0  0  0  0  0  0  0
    0.8260    0.1570    0.0300 N   0  0  0  0  0  0  0  0  0  0  0  0
   -0.4590   -0.3830   -0.1130 C   0  0  0  0  0  0  0  0  0  0  0  0
   -0.7690   -1.4420   -0.9070 C   0  0  0  0  0  0  0  0  0  0  0  0
   -2.0610   -1.9110   -1.0310 C   0  0  0  0  0  0  0  0  0  0  0  0
   -3.1290   -1.2940   -0.3210 C   0  0  0  0  0  0  0  0  0  0  0  0
   -4.3010   -1.7670   -0.4750 O   0  0  0  0  0  0  0  0  0  0  0  0
   -5.4690   -2.2370   -0.6290 C   0  0  1  0  0  0  0  0  0  0  0  0
   -6.0520   -2.1560   -2.0780 C   0  0  0  0  0  0  0  0  0  0  0  0
   -7.2630   -3.0670   -1.8420 C   0  0  0  0  0  0  0  0  0  0  0  0
   -6.5750   -4.2450   -1.3550 N   0  0  0  0  0  0  0  0  0  0  0  0
   -5.6630   -3.7420   -0.3700 C   0  0  0  0  0  0  0  0  0  0  0  0
   -2.8130   -0.2250    0.4820 C   0  0  0  0  0  0  0  0  0  0  0  0
   -3.8160    0.4710    1.2520 C   0  0  0  0  0  0  0  0  0  0  0  0
   -3.4700    1.4610    1.9840 O   0  0  0  0  0  0  0  0  0  0  0  0
   -5.1530    0.1690    1.2820 O   0  0  0  0  0  0  0  0  0  0  0  0
   -6.0300    0.9170    2.0700 C   0  0  0  0  0  0  0  0  0  0  0  0
   -6.0600    2.3780    1.6990 C   0  0  1  0  0  0  0  0  0  0  0  0
   -6.4490    2.8540    0.3640 C   0  0  0  0  0  0  0  0  0  0  0  0
   -7.4810    2.9010    1.4190 C   0  0  0  0  0  0  0  0  0  0  0  0
   -1.5080    0.2100    0.5760 C   0  0  0  0  0  0  0  0  0  0  0  0
    4.1910    0.1530   -1.5410 N   0  0  0  0  0  0  0  0  0  0  0  0
    5.3850    0.6520   -1.4120 N   0  0  0  0  0  0  0  0  0  0  0  0
  1  2  1  0
  2  3  1  0
  3  4  1  0
  4  5  2  0
  4 10  1  0
  5  6  1  0
  6  7  2  0
  7  8  1  0
  7  9  1  0
  9 10  2  0
 10 11  1  0
 11 12  2  0
 11 38  1  0
 12 13  1  0
 13 14  2  0
 14 15  1  0
 14 37  1  0
 15 16  2  0
 15 17  1  0
 17 18  1  0
 18 19  2  0
 18 36  1  0
 19 20  1  0
 20 21  2  0
 21 22  1  0
 21 28  1  0
 23 22  1  6
 23 24  1  0
 23 27  1  0
 24 25  1  0
 25 26  1  0
 26 27  1  0
 28 29  1  0
 28 36  2  0
 29 30  2  0
 29 31  1  0
 31 32  1  0
 33 32  1  6
 33 34  1  0
 33 35  1  0
 34 35  1  0
 37 38  2  0
M  CHG  2  10   1  26   1
M  END
