
     RDKit          3D

 38 42  0  0  0  0  0  0  0  0999 V2000
    5.3880    1.2300   -1.5710 C   0  0  0  0  0  0  0  0  0  0  0  0
    5.6250   -0.0350   -1.6110 C   0  0  0  0  0  0  0  0  0  0  0  0
    6.2420   -0.8140   -0.5620 C   0  0  0  0  0  0  0  0  0  0  0  0
    6.4230   -2.1210   -0.8770 C   0  0  0  0  0  0  0  0  0  0  0  0
    7.0220   -3.0980    0.0290 C   0  0  0  0  0  0  0  0  0  0  0  0
    5.8130   -4.4080    0.2790 Cl  0  0  0  0  0  0  0  0  0  0  0  0
    6.7880   -0.3810    0.7130 C   0  0  0  0  0  0  0  0  0  0  0  0
    5.8800   -0.0560    1.8380 C   0  0  0  0  0  0  0  0  0  0  0  0
    4.9580    0.9830    1.6460 N   0  0  0  0  0  0  0  0  0  0  0  0
    5.2450    2.2620    1.9390 C   0  0  0  0  0  0  0  0  0  0  0  0
    6.4150    2.5640    2.3750 O   0  0  0  0  0  0  0  0  0  0  0  0
    4.3200    3.2030    1.7740 N   0  0  0  0  0  0  0  0  0  0  0  0
    3.0800    2.9270    1.3180 C   0  0  0  0  0  0  0  0  0  0  0  0
    2.1670    3.8950    1.1710 N   0  0  0  0  0  0  0  0  0  0  0  0
    0.9410    3.6270    0.7290 C   0  0  0  0  0  0  0  0  0  0  0  0
    0.6290    2.3310    0.4250 C   0  0  0  0  0  0  0  0  0  0  0  0
    1.4970    1.2750    0.5430 C   0  0  0  0  0  0  0  0  0  0  0  0
    1.1700   -0.0960    0.1900 C   0  0  0  0  0  0  0  0  0  0  0  0
   -0.1730   -0.3870   -0.2590 N   0  0  2  0  0  0  0  0  0  0  0  0
   -0.4770   -0.0270   -1.6120 C   0  0  0  0  0  0  0  0  0  0  0  0
   -1.4530   -1.0000   -2.2630 C   0  0  0  0  0  0  0  0  0  0  0  0
   -2.8900   -0.5010   -2.0680 C   0  0  0  0  0  0  0  0  0  0  0  0
   -3.2410   -0.8140   -0.6310 C   0  0  2  0  0  0  0  0  0  0  0  0
   -4.7030   -0.7370   -0.3820 C   0  0  0  0  0  0  0  0  0  0  0  0
   -5.5540   -1.6920    0.0320 N   0  0  0  0  0  0  0  0  0  0  0  0
   -6.8100   -1.1980    0.1310 C   0  0  0  0  0  0  0  0  0  0  0  0
   -6.6860    0.1240   -0.2470 C   0  0  0  0  0  0  0  0  0  0  0  0
   -5.4260    0.3450   -0.5390 O   0  0  0  0  0  0  0  0  0  0  0  0
   -7.7750    1.1530   -0.3230 C   0  0  0  0  0  0  0  0  0  0  0  0
   -8.6920    0.9250    0.7020 O   0  0  0  0  0  0  0  0  0  0  0  0
   -9.3960   -0.2530    0.3850 C   0  0  0  0  0  0  0  0  0  0  0  0
   -8.9210   -1.2460    1.2390 O   0  0  0  0  0  0  0  0  0  0  0  0
   -7.9890   -1.9990    0.5640 C   0  0  0  0  0  0  0  0  0  0  0  0
   -2.5190    0.2430    0.2080 C   0  0  0  0  0  0  0  0  0  0  0  0
   -1.2030   -0.2490    0.7060 C   0  0  0  0  0  0  0  0  0  0  0  0
    2.7670    1.5880    1.0080 C   0  0  0  0  0  0  0  0  0  0  0  0
    3.7220    0.6470    1.1830 C   0  0  0  0  0  0  0  0  0  0  0  0
    3.4720   -0.5510    0.9180 O   0  0  0  0  0  0  0  0  0  0  0  0
  1  2  2  0
  2  3  1  0
  3  4  2  3
  3  7  1  0
  4  5  1  0
  5  6  1  0
  7  8  1  0
  8  9  1  0
  9 10  1  0
  9 37  1  0
 10 11  2  0
 10 12  1  0
 12 13  1  0
 13 14  2  0
 13 36  1  0
 14 15  1  0
 15 16  2  0
 16 17  1  0
 17 18  1  0
 17 36  2  0
 19 18  1  1
 19 20  1  0
 19 35  1  0
 20 21  1  0
 21 22  1  0
 22 23  1  0
 23 24  1  6
 23 34  1  0
 24 25  2  0
 24 28  1  0
 25 26  1  0
 26 27  2  0
 26 33  1  0
 27 28  1  0
 27 29  1  0
 29 30  1  0
 30 31  1  0
 31 32  1  0
 32 33  1  0
 34 35  1  0
 36 37  1  0
 37 38  2  0
M  CHG  2  19   1  25   1
M  END
