
     RDKit          3D

 38 42  0  0  0  0  0  0  0  0999 V2000
    6.9880   -3.1580    2.1980 C   0  0  0  0  0  0  0  0  0  0  0  0
    7.2640   -2.2480    1.2110 O   0  0  0  0  0  0  0  0  0  0  0  0
    6.3230   -2.1330    0.2150 C   0  0  2  0  0  0  0  0  0  0  0  0
    6.8150   -2.5100   -1.1370 C   0  0  0  0  0  0  0  0  0  0  0  0
    5.7230   -0.7390    0.2890 C   0  0  0  0  0  0  0  0  0  0  0  0
    4.7730   -0.4920   -0.7050 O   0  0  0  0  0  0  0  0  0  0  0  0
    3.6140   -1.2070   -0.9330 C   0  0  0  0  0  0  0  0  0  0  0  0
    3.3620   -2.1690   -0.2030 O   0  0  0  0  0  0  0  0  0  0  0  0
    2.7570   -0.7490   -2.0630 C   0  0  0  0  0  0  0  0  0  0  0  0
    1.6250   -0.0470   -1.4970 N   0  0  0  0  0  0  0  0  0  0  0  0
    0.5120   -0.6790   -1.2260 C   0  0  0  0  0  0  0  0  0  0  0  0
    0.3850   -1.9230   -1.4430 O   0  0  0  0  0  0  0  0  0  0  0  0
   -0.6140    0.0030   -0.6720 C   0  0  0  0  0  0  0  0  0  0  0  0
   -1.7410   -0.8590   -0.4590 C   0  0  0  0  0  0  0  0  0  0  0  0
   -3.0070   -0.6210    0.0220 N   0  0  2  0  0  0  0  0  0  0  0  0
   -3.0610   -0.6520    1.4660 C   0  0  0  0  0  0  0  0  0  0  0  0
   -3.8880   -1.7810    1.9750 C   0  0  0  0  0  0  0  0  0  0  0  0
   -5.2610   -1.5990    1.5640 N   0  0  0  0  0  0  0  0  0  0  0  0
   -6.1040   -2.7430    1.8950 C   0  0  0  0  0  0  0  0  0  0  0  0
   -7.1170   -2.6650    0.8410 N   0  0  0  0  0  0  0  0  0  0  0  0
   -6.2540   -2.5300   -0.3430 C   0  0  0  0  0  0  0  0  0  0  0  0
   -5.2660   -1.5190    0.1160 C   0  0  1  0  0  0  0  0  0  0  0  0
   -5.7530   -0.1500   -0.3510 C   0  0  0  0  0  0  0  0  0  0  0  0
   -3.9210   -1.7370   -0.4740 C   0  0  0  0  0  0  0  0  0  0  0  0
   -0.4470    1.3300   -0.4500 C   0  0  0  0  0  0  0  0  0  0  0  0
   -1.4640    2.1010    0.0930 C   0  0  0  0  0  0  0  0  0  0  0  0
   -1.3780    3.4330    0.3530 C   0  0  0  0  0  0  0  0  0  0  0  0
   -0.1760    4.0400    0.0440 C   0  0  0  0  0  0  0  0  0  0  0  0
   -0.0140    5.3870    0.2780 C   0  0  0  0  0  0  0  0  0  0  0  0
    1.1680    6.0210   -0.0190 C   0  0  0  0  0  0  0  0  0  0  0  0
    1.2880    7.7370    0.3120 Cl  0  0  0  0  0  0  0  0  0  0  0  0
    2.2240    5.3220   -0.5600 C   0  0  0  0  0  0  0  0  0  0  0  0
    3.4860    6.0410   -0.8660 C   0  0  0  0  0  0  0  0  0  0  0  0
    2.0670    3.9500   -0.8010 C   0  0  0  0  0  0  0  0  0  0  0  0
    0.8920    3.3160   -0.5070 C   0  0  0  0  0  0  0  0  0  0  0  0
    0.7460    1.9760   -0.7460 N   0  0  0  0  0  0  0  0  0  0  0  0
    1.7570    1.2860   -1.2620 C   0  0  0  0  0  0  0  0  0  0  0  0
    2.8520    1.7710   -1.5590 O   0  0  0  0  0  0  0  0  0  0  0  0
  1  2  1  0
  2  3  1  0
  3  4  1  6
  3  5  1  0
  5  6  1  0
  6  7  1  0
  7  8  2  0
  7  9  1  0
  9 10  1  0
 10 11  1  0
 10 37  1  0
 11 12  2  0
 11 13  1  0
 13 14  1  0
 13 25  2  0
 15 14  1  1
 15 16  1  0
 15 24  1  0
 16 17  1  0
 17 18  1  0
 18 19  1  0
 18 22  1  0
 19 20  1  0
 20 21  1  0
 21 22  1  0
 22 23  1  1
 22 24  1  0
 25 26  1  0
 25 36  1  0
 26 27  2  0
 27 28  1  0
 28 29  2  0
 28 35  1  0
 29 30  1  0
 30 31  1  0
 30 32  2  0
 32 33  1  0
 32 34  1  0
 34 35  2  0
 35 36  1  0
 36 37  1  0
 37 38  2  0
M  CHG  2  15   1  20   1
M  END
