
     RDKit          3D

 38 42  0  0  0  0  0  0  0  0999 V2000
    7.8420    3.2810   -0.3160 C   0  0  0  0  0  0  0  0  0  0  0  0
    6.7370    2.4310   -0.2540 O   0  0  0  0  0  0  0  0  0  0  0  0
    6.7930    1.1490    0.2820 C   0  0  0  0  0  0  0  0  0  0  0  0
    8.0080    0.7310    0.7620 C   0  0  0  0  0  0  0  0  0  0  0  0
    8.1020   -0.5360    1.3010 C   0  0  0  0  0  0  0  0  0  0  0  0
    6.9860   -1.3370    1.3420 C   0  0  0  0  0  0  0  0  0  0  0  0
    5.7460   -0.9160    0.8540 C   0  0  0  0  0  0  0  0  0  0  0  0
    5.6430    0.3330    0.3200 C   0  0  0  0  0  0  0  0  0  0  0  0
    4.4700    0.9180   -0.2120 N   0  0  0  0  0  0  0  0  0  0  0  0
    3.2130    0.2680   -0.2930 C   0  0  0  0  0  0  0  0  0  0  0  0
    3.0770   -0.8920    0.1140 O   0  0  0  0  0  0  0  0  0  0  0  0
    2.0900    1.0540   -0.8860 C   0  0  0  0  0  0  0  0  0  0  0  0
    0.8940    0.3810   -0.9640 O   0  0  0  0  0  0  0  0  0  0  0  0
    0.1520   -0.1760    0.0750 C   0  0  0  0  0  0  0  0  0  0  0  0
    0.6400   -0.0610    1.2320 O   0  0  0  0  0  0  0  0  0  0  0  0
   -1.0820   -0.8290   -0.2550 C   0  0  0  0  0  0  0  0  0  0  0  0
   -0.9970   -2.1720   -0.6310 C   0  0  0  0  0  0  0  0  0  0  0  0
    0.3270   -2.8240   -0.6740 C   0  0  0  0  0  0  0  0  0  0  0  0
    0.8820   -3.2230    0.9660 Cl  0  0  0  0  0  0  0  0  0  0  0  0
   -2.1010   -2.8570   -0.9340 N   0  0  0  0  0  0  0  0  0  0  0  0
   -3.3280   -2.3070   -0.8970 C   0  0  0  0  0  0  0  0  0  0  0  0
   -4.4850   -3.0560   -1.2290 N   0  0  0  0  0  0  0  0  0  0  0  0
   -5.8420   -2.5830   -1.2180 C   0  0  0  0  0  0  0  0  0  0  0  0
   -6.6020   -3.8070   -0.7100 C   0  0  0  0  0  0  0  0  0  0  0  0
   -5.6510   -4.9570   -0.7100 C   0  0  0  0  0  0  0  0  0  0  0  0
   -4.5540   -4.4310   -1.6460 C   0  0  0  0  0  0  0  0  0  0  0  0
   -3.4030   -1.0160   -0.5340 N   0  0  0  0  0  0  0  0  0  0  0  0
   -2.3010   -0.2500   -0.2060 C   0  0  0  0  0  0  0  0  0  0  0  0
   -2.5510    1.0940    0.2760 C   0  0  0  0  0  0  0  0  0  0  0  0
   -3.8380    1.4450    0.7020 C   0  0  0  0  0  0  0  0  0  0  0  0
   -4.2070    2.6910    1.1330 C   0  0  0  0  0  0  0  0  0  0  0  0
   -3.2850    3.7050    1.1710 C   0  0  0  0  0  0  0  0  0  0  0  0
   -2.0150    3.4120    0.7650 C   0  0  0  0  0  0  0  0  0  0  0  0
   -1.6500    2.1280    0.3230 C   0  0  0  0  0  0  0  0  0  0  0  0
   -1.2640    4.6530    0.9100 C   0  0  0  0  0  0  0  0  0  0  0  0
   -0.1430    4.8700    0.3760 O   0  0  0  0  0  0  0  0  0  0  0  0
   -2.0680    5.5740    1.7870 C   0  0  0  0  0  0  0  0  0  0  0  0
   -3.4000    5.0600    1.5660 N   0  0  0  0  0  0  0  0  0  0  0  0
  1  2  1  0
  2  3  1  0
  3  4  2  0
  3  8  1  0
  4  5  1  0
  5  6  2  0
  6  7  1  0
  7  8  2  0
  8  9  1  0
  9 10  1  0
 10 11  2  0
 10 12  1  0
 12 13  1  0
 13 14  1  0
 14 15  2  0
 14 16  1  0
 16 17  2  0
 16 28  1  0
 17 18  1  0
 17 20  1  0
 18 19  1  0
 20 21  2  0
 21 22  1  0
 21 27  1  0
 22 23  1  0
 22 26  1  0
 23 24  1  0
 24 25  1  0
 25 26  1  0
 27 28  2  0
 28 29  1  0
 29 30  2  0
 29 34  1  0
 30 31  1  0
 31 32  2  0
 32 33  1  0
 32 38  1  0
 33 34  2  0
 33 35  1  0
 35 36  2  0
 35 37  1  0
 37 38  1  0
M  CHG  2  20   1  27   1
M  END
