
     RDKit          3D

 38 42  0  0  0  0  0  0  0  0999 V2000
   -7.5640   -1.5170    2.0880 C   0  0  0  0  0  0  0  0  0  0  0  0
   -6.1390   -1.5140    1.6620 C   0  0  0  0  0  0  0  0  0  0  0  0
   -5.1850   -2.1680    2.4080 C   0  0  0  0  0  0  0  0  0  0  0  0
   -3.8810   -2.1450    1.9840 C   0  0  0  0  0  0  0  0  0  0  0  0
   -3.5030   -1.4740    0.8140 C   0  0  0  0  0  0  0  0  0  0  0  0
   -4.4500   -0.8280    0.0770 C   0  0  0  0  0  0  0  0  0  0  0  0
   -4.1160   -0.1350   -1.1730 C   0  0  0  0  0  0  0  0  0  0  0  0
   -2.7490   -0.1130   -1.5040 O   0  0  0  0  0  0  0  0  0  0  0  0
   -1.7460    0.4890   -0.7920 C   0  0  0  0  0  0  0  0  0  0  0  0
   -2.0400    1.1010    0.2670 O   0  0  0  0  0  0  0  0  0  0  0  0
   -0.3160    0.4680   -1.1900 C   0  0  0  0  0  0  0  0  0  0  0  0
    0.5030    1.1600   -0.2900 O   0  0  0  0  0  0  0  0  0  0  0  0
    1.8590    1.2110   -0.5710 C   0  0  0  0  0  0  0  0  0  0  0  0
    2.3050    0.6390   -1.6180 O   0  0  0  0  0  0  0  0  0  0  0  0
    2.8240    1.9240    0.3230 C   0  0  0  0  0  0  0  0  0  0  0  0
    4.1680    1.8370   -0.2010 N   0  0  1  0  0  0  0  0  0  0  0  0
    4.7800    3.1230   -0.1580 C   0  0  0  0  0  0  0  0  0  0  0  0
    4.9190    0.8000    0.3730 C   0  0  0  0  0  0  0  0  0  0  0  0
    4.4490   -0.0270    1.3260 N   0  0  0  0  0  0  0  0  0  0  0  0
    5.3830   -0.8820    1.6490 N   0  0  0  0  0  0  0  0  0  0  0  0
    6.5030   -0.6480    0.9190 C   0  0  0  0  0  0  0  0  0  0  0  0
    6.1670    0.4150    0.1330 N   0  0  0  0  0  0  0  0  0  0  0  0
    7.3190    0.6890   -0.6490 C   0  0  0  0  0  0  0  0  0  0  0  0
    7.3840    1.6050   -1.4940 O   0  0  0  0  0  0  0  0  0  0  0  0
    8.3830   -0.2430   -0.3200 C   0  0  0  0  0  0  0  0  0  0  0  0
    9.6740   -0.4130   -0.7740 C   0  0  0  0  0  0  0  0  0  0  0  0
   10.4660   -1.4140   -0.2570 C   0  0  0  0  0  0  0  0  0  0  0  0
    9.9210   -2.2290    0.7220 C   0  0  0  0  0  0  0  0  0  0  0  0
    8.6330   -2.0760    1.1890 C   0  0  0  0  0  0  0  0  0  0  0  0
    7.8590   -1.0760    0.6650 C   0  0  0  0  0  0  0  0  0  0  0  0
   -5.7590   -0.8500    0.5020 C   0  0  0  0  0  0  0  0  0  0  0  0
   -6.7480   -0.1490   -0.3060 C   0  0  0  0  0  0  0  0  0  0  0  0
   -7.1920    1.1230    0.0120 C   0  0  0  0  0  0  0  0  0  0  0  0
   -8.1290    1.6910   -0.8260 C   0  0  0  0  0  0  0  0  0  0  0  0
   -8.6040    1.0430   -1.9180 N   0  0  0  0  0  0  0  0  0  0  0  0
   -8.1890   -0.1920   -2.2480 C   0  0  0  0  0  0  0  0  0  0  0  0
   -8.7870   -1.0450   -3.6540 Cl  0  0  0  0  0  0  0  0  0  0  0  0
   -7.2540   -0.7880   -1.4340 C   0  0  0  0  0  0  0  0  0  0  0  0
  1  2  1  0
  2  3  2  0
  2 31  1  0
  3  4  1  0
  4  5  2  0
  5  6  1  0
  6  7  1  0
  6 31  2  0
  7  8  1  0
  8  9  1  0
  9 10  2  0
  9 11  1  0
 11 12  1  0
 12 13  1  0
 13 14  2  0
 13 15  1  0
 15 16  1  0
 16 17  1  1
 16 18  1  0
 18 19  2  0
 18 22  1  0
 19 20  1  0
 20 21  2  0
 21 22  1  0
 21 30  1  0
 22 23  1  0
 23 24  2  0
 23 25  1  0
 25 26  2  0
 25 30  1  0
 26 27  1  0
 27 28  2  0
 28 29  1  0
 29 30  2  0
 31 32  1  0
 32 33  2  0
 32 38  1  0
 33 34  1  0
 34 35  2  0
 35 36  1  0
 36 37  1  0
 36 38  2  0
M  CHG  2  16   1  35   1
M  END
