
     RDKit          3D

 38 42  0  0  0  0  0  0  0  0999 V2000
    5.7210   -0.1480   -3.0880 C   0  0  0  0  0  0  0  0  0  0  0  0
    6.3280    0.7460   -2.2080 O   0  0  0  0  0  0  0  0  0  0  0  0
    7.0340    0.0170   -1.2540 C   0  0  0  0  0  0  0  0  0  0  0  0
    7.7130    0.9050   -0.2750 C   0  0  0  0  0  0  0  0  0  0  0  0
    8.9940    1.3560   -0.5180 C   0  0  0  0  0  0  0  0  0  0  0  0
    9.6200    2.1810    0.3930 C   0  0  0  0  0  0  0  0  0  0  0  0
    8.9140    2.5210    1.5290 C   0  0  0  0  0  0  0  0  0  0  0  0
    9.6460    3.5640    2.7300 Cl  0  0  0  0  0  0  0  0  0  0  0  0
    7.6320    2.0570    1.7500 C   0  0  0  0  0  0  0  0  0  0  0  0
    7.0270    1.2500    0.8520 N   0  0  0  0  0  0  0  0  0  0  0  0
    5.7220    0.7520    1.0350 C   0  0  0  0  0  0  0  0  0  0  0  0
    5.5020   -0.3650    1.8140 C   0  0  0  0  0  0  0  0  0  0  0  0
    4.2070   -0.8610    1.9970 C   0  0  0  0  0  0  0  0  0  0  0  0
    3.1730   -0.2190    1.3930 C   0  0  0  0  0  0  0  0  0  0  0  0
    1.7670   -0.6990    1.5490 C   0  0  0  0  0  0  0  0  0  0  0  0
    1.5330   -1.7100    2.2420 O   0  0  0  0  0  0  0  0  0  0  0  0
    0.7080   -0.0250    0.9250 N   0  0  0  0  0  0  0  0  0  0  0  0
   -0.6530   -0.3340    0.9660 C   0  0  0  0  0  0  0  0  0  0  0  0
   -1.1950   -1.3540    1.6940 C   0  0  0  0  0  0  0  0  0  0  0  0
   -2.5550   -1.6460    1.7170 C   0  0  0  0  0  0  0  0  0  0  0  0
   -3.4160   -0.8810    0.9740 C   0  0  0  0  0  0  0  0  0  0  0  0
   -4.7770   -1.0370    0.8880 O   0  0  0  0  0  0  0  0  0  0  0  0
   -5.4660   -2.0310    1.5730 C   0  0  1  0  0  0  0  0  0  0  0  0
   -6.6160   -1.4680    2.4010 C   0  0  0  0  0  0  0  0  0  0  0  0
   -7.4940   -2.6730    2.5720 C   0  0  0  0  0  0  0  0  0  0  0  0
   -7.0980   -3.6440    1.5740 N   0  0  0  0  0  0  0  0  0  0  0  0
   -6.2510   -2.9380    0.6310 C   0  0  0  0  0  0  0  0  0  0  0  0
   -2.9060    0.1830    0.2060 C   0  0  0  0  0  0  0  0  0  0  0  0
   -3.8260    1.0040   -0.5900 C   0  0  0  0  0  0  0  0  0  0  0  0
   -5.0430    0.7780   -0.5980 O   0  0  0  0  0  0  0  0  0  0  0  0
   -3.3730    2.0620   -1.3630 O   0  0  0  0  0  0  0  0  0  0  0  0
   -4.2200    2.8740   -2.1400 C   0  0  0  0  0  0  0  0  0  0  0  0
   -4.9840    2.1340   -3.1870 C   0  0  2  0  0  0  0  0  0  0  0  0
   -4.2800    1.3800   -4.2550 C   0  0  0  0  0  0  0  0  0  0  0  0
   -4.8490    2.7470   -4.5840 C   0  0  0  0  0  0  0  0  0  0  0  0
   -1.5640    0.4310    0.2150 C   0  0  0  0  0  0  0  0  0  0  0  0
    3.4220    0.8660    0.6430 N   0  0  0  0  0  0  0  0  0  0  0  0
    4.6360    1.3210    0.4780 N   0  0  0  0  0  0  0  0  0  0  0  0
  1  2  1  0
  2  3  1  0
  3  4  1  0
  4  5  2  0
  4 10  1  0
  5  6  1  0
  6  7  2  0
  7  8  1  0
  7  9  1  0
  9 10  2  0
 10 11  1  0
 11 12  2  0
 11 38  1  0
 12 13  1  0
 13 14  2  0
 14 15  1  0
 14 37  1  0
 15 16  2  0
 15 17  1  0
 17 18  1  0
 18 19  2  0
 18 36  1  0
 19 20  1  0
 20 21  2  0
 21 22  1  0
 21 28  1  0
 23 22  1  6
 23 24  1  0
 23 27  1  0
 24 25  1  0
 25 26  1  0
 26 27  1  0
 28 29  1  0
 28 36  2  0
 29 30  2  0
 29 31  1  0
 31 32  1  0
 33 32  1  1
 33 34  1  0
 33 35  1  0
 34 35  1  0
 37 38  2  0
M  CHG  2  10   1  26   1
M  END
