
     RDKit          3D

 28 30  0  0  0  0  0  0  0  0999 V2000
   -4.6390    3.2890    0.3450 N   0  0  0  0  0  0  0  0  0  0  0  0
   -4.8710    1.9270   -0.0040 C   0  0  0  0  0  0  0  0  0  0  0  0
   -3.8630    1.0550    0.1680 N   0  0  0  0  0  0  0  0  0  0  0  0
   -4.0140   -0.2410   -0.1400 C   0  0  0  0  0  0  0  0  0  0  0  0
   -5.2520   -0.6440   -0.6440 C   0  0  0  0  0  0  0  0  0  0  0  0
   -5.1360   -1.9540   -0.8640 N   0  0  0  0  0  0  0  0  0  0  0  0
   -3.8950   -2.3590   -0.5190 C   0  0  0  0  0  0  0  0  0  0  0  0
   -3.1960   -1.3030   -0.0710 N   0  0  0  0  0  0  0  0  0  0  0  0
   -1.8510   -1.3320    0.3850 C   0  0  2  0  0  0  0  0  0  0  0  0
   -1.0830   -0.2620   -0.0750 O   0  0  0  0  0  0  0  0  0  0  0  0
    0.1620   -0.6000    0.4750 C   0  0  2  0  0  0  0  0  0  0  0  0
    1.2380    0.3480    0.1010 C   0  0  0  0  0  0  0  0  0  0  0  0
    2.4200   -0.1270    0.7270 O   0  0  0  0  0  0  0  0  0  0  0  0
    3.6730    0.7330    0.4600 P   0  0  0  0  0  0  0  0  0  0  0  0
    3.4990    0.4980   -1.1620 O   0  0  0  0  0  0  0  0  0  0  0  0
    2.9170    2.0350    1.1300 O   0  0  0  0  0  0  0  0  0  0  0  0
    4.9400    1.5830    0.2400 O   0  0  0  0  0  0  0  0  0  0  0  0
    6.2060    1.0210   -0.4260 P   0  0  0  0  0  0  0  0  0  0  0  0
    6.1650   -0.3690    0.3630 O   0  0  0  0  0  0  0  0  0  0  0  0
    7.0760    2.3220    0.1770 O   0  0  0  0  0  0  0  0  0  0  0  0
    5.4600    1.2060   -1.9050 O   0  0  0  0  0  0  0  0  0  0  0  0
    0.3640   -1.9960   -0.0130 C   0  0  1  0  0  0  0  0  0  0  0  0
    1.0490   -2.7010    0.9910 O   0  0  0  0  0  0  0  0  0  0  0  0
   -1.0650   -2.5140   -0.1360 C   0  0  1  0  0  0  0  0  0  0  0  0
   -1.2220   -3.5780    0.7550 O   0  0  0  0  0  0  0  0  0  0  0  0
   -6.2870    0.2420   -0.8230 C   0  0  0  0  0  0  0  0  0  0  0  0
   -7.4120   -0.0790   -1.2720 O   0  0  0  0  0  0  0  0  0  0  0  0
   -6.0800    1.5280   -0.4980 N   0  0  0  0  0  0  0  0  0  0  0  0
  1  2  1  0
  2  3  1  0
  2 28  2  0
  3  4  1  0
  4  5  2  0
  4  8  1  0
  5  6  1  0
  5 26  1  0
  6  7  2  0
  7  8  1  0
  9  8  1  6
  9 10  1  0
  9 24  1  0
 10 11  1  0
 11 12  1  6
 11 22  1  0
 12 13  1  0
 13 14  1  0
 14 15  1  0
 14 16  1  0
 14 17  1  0
 17 18  1  0
 18 19  1  0
 18 20  1  0
 18 21  1  0
 22 23  1  1
 22 24  1  0
 24 25  1  1
 26 27  2  0
 26 28  1  0
M  CHG  1  28   1
M  END
