
     RDKit          3D

 11 10  0  0  0  0  0  0  0  0999 V2000
    2.1840   -1.0560    0.8720 C   0  0  0  0  0  0  0  0  0  0  0  0
    2.2980    0.2740    0.6440 O   0  0  0  0  0  0  0  0  0  0  0  0
    1.7200    0.8280   -0.4410 C   0  0  0  0  0  0  0  0  0  0  0  0
    0.2370    0.7120   -0.4480 C   0  0  1  0  0  0  0  0  0  0  0  0
   -0.3150    1.3160   -1.6030 O   0  0  0  0  0  0  0  0  0  0  0  0
   -1.0830    2.3190   -1.3130 O   0  0  0  0  0  0  0  0  0  0  0  0
   -0.2470   -0.5610   -0.3480 O   0  0  0  0  0  0  0  0  0  0  0  0
   -1.2450   -0.6570    0.5760 O   0  0  0  0  0  0  0  0  0  0  0  0
   -2.5040   -1.0510    0.1980 C   0  0  0  0  0  0  0  0  0  0  0  0
   -2.7220   -1.3210   -1.0010 O   0  0  0  0  0  0  0  0  0  0  0  0
   -3.5740   -1.1690    1.1040 O   0  0  0  0  0  0  0  0  0  0  0  0
  1  2  1  0
  2  3  1  0
  4  3  1  6
  4  5  1  0
  4  7  1  0
  5  6  1  0
  7  8  1  0
  8  9  1  0
  9 10  2  0
  9 11  1  0
M  END
