
     RDKit          3D

 11 10  0  0  0  0  0  0  0  0999 V2000
   -1.5230    1.7090   -1.0950 O   0  0  0  0  0  0  0  0  0  0  0  0
   -2.1510    1.2300   -0.1390 C   0  0  0  0  0  0  0  0  0  0  0  0
   -3.5420    1.2590   -0.1510 O   0  0  0  0  0  0  0  0  0  0  0  0
   -1.4780    0.6780    0.9200 O   0  0  0  0  0  0  0  0  0  0  0  0
   -0.0800    0.5840    1.0560 C   0  0  0  0  0  0  0  0  0  0  0  0
    0.4680   -0.2360   -0.0650 C   0  0  2  0  0  0  0  0  0  0  0  0
   -0.1540   -1.6240    0.0200 C   0  0  0  0  0  0  0  0  0  0  0  0
    0.3060   -2.4080   -1.0580 O   0  0  0  0  0  0  0  0  0  0  0  0
    1.8520   -0.3820   -0.0010 O   0  0  0  0  0  0  0  0  0  0  0  0
    2.4570    0.0460   -1.0850 O   0  0  0  0  0  0  0  0  0  0  0  0
    3.3940    0.9240   -0.8190 O   0  0  0  0  0  0  0  0  0  0  0  0
  1  2  2  0
  2  3  1  0
  2  4  1  0
  4  5  1  0
  6  5  1  1
  6  7  1  0
  6  9  1  0
  7  8  1  0
  9 10  1  0
 10 11  1  0
M  END
