
     RDKit          3D

 13 13  0  0  0  0  0  0  0  0999 V2000
    3.6440   -0.1700   -3.1320 C   0  0  0  0  0  0  0  0  0  0  0  0
    2.9540   -1.0580   -2.5280 N   0  0  0  0  0  0  0  0  0  0  0  0
    1.8720   -0.8310   -1.6750 C   0  0  0  0  0  0  0  0  0  0  0  0
    0.9120   -1.6400   -1.4840 N   0  0  0  0  0  0  0  0  0  0  0  0
   -0.1420   -1.4850   -0.6910 O   0  0  0  0  0  0  0  0  0  0  0  0
   -0.4720   -0.4500    0.1090 C   0  0  0  0  0  0  0  0  0  0  0  0
   -1.7280   -0.5290    0.9070 C   0  0  0  0  0  0  0  0  0  0  0  0
   -2.4950   -1.5970    0.8240 C   0  0  0  0  0  0  0  0  0  0  0  0
   -2.1080    0.5360    1.7560 N   0  0  0  0  0  0  0  0  0  0  0  0
   -1.7020    0.6450    3.1310 C   0  0  0  0  0  0  0  0  0  0  0  0
    0.2610    0.6270    0.2190 C   0  0  0  0  0  0  0  0  0  0  0  0
    1.8060    0.7490   -0.7480 P   0  0  0  0  0  0  0  0  0  0  0  0
    1.7280    2.0750   -1.8740 O   0  0  0  0  0  0  0  0  0  0  0  0
  1  2  2  0
  2  3  1  0
  3  4  2  0
  3 12  1  0
  4  5  1  0
  5  6  1  0
  6  7  1  0
  6 11  2  0
  7  8  2  0
  7  9  1  0
  9 10  1  0
 11 12  1  0
 12 13  1  0
M  END
