
     RDKit          3D

 13 14  0  0  0  0  0  0  0  0999 V2000
    0.9090   -2.2650   -0.6960 C   0  0  0  0  0  0  0  0  0  0  0  0
    0.9430   -0.8510   -0.1970 C   0  0  0  0  0  0  0  0  0  0  0  0
    2.1360   -0.2750   -0.1970 C   0  0  0  0  0  0  0  0  0  0  0  0
    2.2240    1.4560    0.4060 P   0  0  0  0  0  0  0  0  0  0  0  0
    3.1450    2.4610   -0.6600 O   0  0  0  0  0  0  0  0  0  0  0  0
    0.5590    2.0010    0.4390 O   0  0  0  0  0  0  0  0  0  0  0  0
   -0.2670    1.0360    0.9280 C   0  0  1  0  0  0  0  0  0  0  0  0
   -1.6130    1.5060    0.7040 O   0  0  0  0  0  0  0  0  0  0  0  0
   -2.0350    0.9820   -0.5320 C   0  0  0  0  0  0  0  0  0  0  0  0
   -3.1220    1.5480   -1.2940 N   0  0  0  0  0  0  0  0  0  0  0  0
   -1.3010   -0.0550   -0.8470 C   0  0  0  0  0  0  0  0  0  0  0  0
   -0.3210   -0.2560    0.2320 C   0  0  1  0  0  0  0  0  0  0  0  0
   -0.9460   -1.2200    1.1570 N   0  0  0  0  0  0  0  0  0  0  0  0
  1  2  1  0
  2  3  2  0
  2 12  1  0
  3  4  1  0
  4  5  1  0
  4  6  1  0
  7  6  1  6
  7  8  1  0
  7 12  1  0
  8  9  1  0
  9 10  1  0
  9 11  2  0
 11 12  1  0
 12 13  1  1
M  END
