
     RDKit          3D

 11 11  0  0  0  0  0  0  0  0999 V2000
    4.3940    0.0140   -0.4730 O   0  0  0  0  0  0  0  0  0  0  0  0
    3.2260    0.3960   -0.0080 O   0  0  0  0  0  0  0  0  0  0  0  0
    2.5820   -0.5670    0.5890 O   0  0  0  0  0  0  0  0  0  0  0  0
    1.5210   -0.9770   -0.0410 O   0  0  0  0  0  0  0  0  0  0  0  0
    0.3670   -0.2470    0.3290 C   0  0  2  0  0  0  0  0  0  0  0  0
   -0.5800   -1.2540    0.9430 C   0  0  0  0  0  0  0  0  0  0  0  0
   -1.8590   -0.7970    1.0900 O   0  0  0  0  0  0  0  0  0  0  0  0
   -2.3190   -0.0030    0.0710 C   0  0  0  0  0  0  0  0  0  0  0  0
   -1.7740    1.4070    0.1210 C   0  0  0  0  0  0  0  0  0  0  0  0
   -0.5550    1.5430   -0.5070 O   0  0  0  0  0  0  0  0  0  0  0  0
   -0.1260    0.3330   -0.8220 O   0  0  0  0  0  0  0  0  0  0  0  0
  1  2  1  0
  2  3  1  0
  3  4  1  0
  5  4  1  6
  5  6  1  0
  5 11  1  0
  6  7  1  0
  7  8  1  0
  8  9  1  0
  9 10  1  0
 10 11  1  0
M  END
