
     RDKit          3D

  8  8  0  0  0  0  0  0  0  0999 V2000
   -2.5050    0.1770   -0.9590 O   0  0  0  0  0  0  0  0  0  0  0  0
   -1.9120   -0.4960    0.1350 C   0  0  0  0  0  0  0  0  0  0  0  0
   -0.4620   -0.1730    0.1850 C   0  0  0  0  0  0  0  0  0  0  0  0
   -0.0000    0.4170    1.2740 C   0  0  0  0  0  0  0  0  0  0  0  0
    1.7200    0.8300    1.3990 S   0  0  0  0  0  0  0  0  0  0  0  0
    2.5260    0.3080   -0.1200 C   0  0  0  0  0  0  0  0  0  0  0  0
    1.5980   -0.2850   -1.0050 N   0  0  0  0  0  0  0  0  0  0  0  0
    0.3760   -0.5090   -0.9410 C   0  0  0  0  0  0  0  0  0  0  0  0
  1  2  1  0
  2  3  1  0
  3  4  2  0
  3  8  1  0
  4  5  1  0
  5  6  1  0
  6  7  1  0
  7  8  2  0
M  END
