
     RDKit          3D

  8  8  0  0  0  0  0  0  0  0999 V2000
    2.8250    1.3180    0.1620 O   0  0  0  0  0  0  0  0  0  0  0  0
    2.9410    0.0780    0.1330 C   0  0  0  0  0  0  0  0  0  0  0  0
    1.7590   -0.7870    0.0290 C   0  0  0  0  0  0  0  0  0  0  0  0
    0.5390   -0.2650   -0.0370 C   0  0  0  0  0  0  0  0  0  0  0  0
   -0.6810   -0.9440   -0.1380 N   0  0  0  0  0  0  0  0  0  0  0  0
   -1.8340   -0.2330    0.2130 C   0  0  0  0  0  0  0  0  0  0  0  0
   -1.6660    1.2150    0.1580 C   0  0  0  0  0  0  0  0  0  0  0  0
    0.1260    1.4760   -0.0120 S   0  0  0  0  0  0  0  0  0  0  0  0
  1  2  2  0
  2  3  1  0
  3  4  2  3
  4  5  1  0
  4  8  1  0
  5  6  1  0
  6  7  1  0
  7  8  1  0
M  END
