
     RDKit          3D

  7  7  0  0  0  0  0  0  0  0999 V2000
    0.0690    1.7210   -0.0790 C   0  0  0  0  0  0  0  0  0  0  0  0
   -0.1550    0.4120   -0.1240 C   0  0  0  0  0  0  0  0  0  0  0  0
   -1.4440   -0.2390   -0.3970 C   0  0  0  0  0  0  0  0  0  0  0  0
   -1.7070   -1.1990    0.6720 N   0  0  0  0  0  0  0  0  0  0  0  0
   -0.1240   -2.0420    0.6900 S   0  0  0  0  0  0  0  0  0  0  0  0
    0.8550   -0.6410    0.0930 C   0  0  0  0  0  0  0  0  0  0  0  0
    2.1360   -0.5650   -0.1030 C   0  0  0  0  0  0  0  0  0  0  0  0
  1  2  2  0
  2  3  1  0
  2  6  1  0
  3  4  1  0
  4  5  1  0
  5  6  1  0
  6  7  2  0
M  END
