
     RDKit          3D

  8  8  0  0  0  0  0  0  0  0999 V2000
   -1.6600   -1.1730   -0.0010 C   0  0  0  0  0  0  0  0  0  0  0  0
   -0.3380   -0.4410   -0.0160 C   0  0  0  0  0  0  0  0  0  0  0  0
    0.6840   -1.1520    0.1850 N   0  0  0  0  0  0  0  0  0  0  0  0
    2.0580   -0.8030    0.2370 C   0  0  0  0  0  0  0  0  0  0  0  0
    2.3410    0.9480   -0.0310 S   0  0  0  0  0  0  0  0  0  0  0  0
    0.7700    1.7200   -0.2860 C   0  0  0  0  0  0  0  0  0  0  0  0
   -0.3290    0.9880   -0.2530 C   0  0  0  0  0  0  0  0  0  0  0  0
   -1.5420    1.6450   -0.4600 O   0  0  0  0  0  0  0  0  0  0  0  0
  1  2  1  0
  2  3  2  0
  2  7  1  0
  3  4  1  0
  4  5  1  0
  5  6  1  0
  6  7  2  0
  7  8  1  0
M  END
