
     RDKit          3D

  8  8  0  0  0  0  0  0  0  0999 V2000
    2.5030    0.8840    0.1930 C   0  0  0  0  0  0  0  0  0  0  0  0
    1.9970   -0.5060    0.0700 C   0  0  0  0  0  0  0  0  0  0  0  0
    0.7010   -0.7360   -0.0100 C   0  0  0  0  0  0  0  0  0  0  0  0
   -0.4000    0.0790   -0.0060 N   0  0  0  0  0  0  0  0  0  0  0  0
   -1.5330   -0.4150   -0.0940 C   0  0  0  0  0  0  0  0  0  0  0  0
   -2.7620    0.4500   -0.0920 C   0  0  0  0  0  0  0  0  0  0  0  0
   -1.6520   -1.7820   -0.1940 O   0  0  0  0  0  0  0  0  0  0  0  0
   -0.0010   -2.4000   -0.1630 S   0  0  0  0  0  0  0  0  0  0  0  0
  1  2  1  0
  2  3  2  3
  3  4  1  0
  3  8  1  0
  4  5  2  0
  5  6  1  0
  5  7  1  0
  7  8  1  0
M  END
