
     RDKit          3D

  8  8  0  0  0  0  0  0  0  0999 V2000
    2.2930   -0.6920    0.6750 C   0  0  0  0  0  0  0  0  0  0  0  0
    1.5480    0.2920    0.3070 C   0  0  0  0  0  0  0  0  0  0  0  0
    2.0280    1.9830    0.0440 S   0  0  0  0  0  0  0  0  0  0  0  0
    0.4800    2.5130   -0.5680 O   0  0  0  0  0  0  0  0  0  0  0  0
   -0.3670    1.5940   -0.1170 N   0  0  0  0  0  0  0  0  0  0  0  0
    0.1260    0.2890    0.0110 C   0  0  0  0  0  0  0  0  0  0  0  0
   -0.6000   -0.8260   -0.1190 C   0  0  0  0  0  0  0  0  0  0  0  0
   -2.0420   -0.7140   -0.4220 C   0  0  0  0  0  0  0  0  0  0  0  0
  1  2  2  0
  2  3  1  0
  2  6  1  0
  3  4  1  0
  4  5  1  0
  5  6  1  0
  6  7  2  3
  7  8  1  0
M  END
