
     RDKit          3D

  8  8  0  0  0  0  0  0  0  0999 V2000
    0.6690   -2.1690   -0.5600 O   0  0  0  0  0  0  0  0  0  0  0  0
    0.1930   -0.8810   -0.3120 N   0  0  0  0  0  0  0  0  0  0  0  0
   -1.2180   -0.6920   -0.2170 C   0  0  0  0  0  0  0  0  0  0  0  0
   -1.6150    0.6850    0.0430 C   0  0  0  0  0  0  0  0  0  0  0  0
   -0.7350    1.6410    0.1730 C   0  0  0  0  0  0  0  0  0  0  0  0
    0.7030    1.4230    0.0720 C   0  0  0  0  0  0  0  0  0  0  0  0
    1.1000    0.1820   -0.1640 C   0  0  0  0  0  0  0  0  0  0  0  0
    2.8590   -0.2110   -0.3110 S   0  0  0  0  0  0  0  0  0  0  0  0
  1  2  1  0
  2  3  1  0
  2  7  1  0
  3  4  1  0
  4  5  2  0
  5  6  1  0
  6  7  2  0
  7  8  1  0
M  END
