
     RDKit          3D

 37 40  0  0  0  0  0  0  0  0999 V2000
   -7.7760    0.0010   -1.9620 C   0  0  0  0  0  0  0  0  0  0  0  0
   -6.5210    0.5160   -1.5580 O   0  0  0  0  0  0  0  0  0  0  0  0
   -6.2750    1.8390   -1.3190 C   0  0  0  0  0  0  0  0  0  0  0  0
   -7.2970    2.7810   -1.4600 C   0  0  0  0  0  0  0  0  0  0  0  0
   -6.9930    4.1220   -1.2050 C   0  0  0  0  0  0  0  0  0  0  0  0
   -5.7350    4.5400   -0.8240 C   0  0  0  0  0  0  0  0  0  0  0  0
   -5.4640    5.9790   -0.5590 C   0  0  0  0  0  0  0  0  0  0  0  0
   -4.7520    3.5830   -0.6950 C   0  0  0  0  0  0  0  0  0  0  0  0
   -5.0160    2.2400   -0.9400 C   0  0  0  0  0  0  0  0  0  0  0  0
   -4.0320    1.2730   -0.8150 O   0  0  0  0  0  0  0  0  0  0  0  0
   -3.4260    0.8090   -1.9720 C   0  0  0  0  0  0  0  0  0  0  0  0
   -3.8180    1.2960   -3.0700 O   0  0  0  0  0  0  0  0  0  0  0  0
   -2.3570   -0.2210   -1.9330 C   0  0  0  0  0  0  0  0  0  0  0  0
   -1.9640   -0.4220   -0.4950 C   0  0  0  0  0  0  0  0  0  0  0  0
   -0.9250   -1.4120   -0.3410 N   0  0  0  0  0  0  0  0  0  0  0  0
    0.4340   -0.9760   -0.4160 C   0  0  0  0  0  0  0  0  0  0  0  0
    0.9020   -0.5480    0.9510 C   0  0  0  0  0  0  0  0  0  0  0  0
    2.3130   -0.0710    0.9230 C   0  0  0  0  0  0  0  0  0  0  0  0
    3.3650   -0.9350    1.1360 C   0  0  0  0  0  0  0  0  0  0  0  0
    4.6890   -0.5000    1.1060 C   0  0  0  0  0  0  0  0  0  0  0  0
    4.9750    0.8040    0.8640 C   0  0  0  0  0  0  0  0  0  0  0  0
    3.9230    1.6880    0.6470 C   0  0  0  0  0  0  0  0  0  0  0  0
    2.6250    1.2580    0.6770 C   0  0  0  0  0  0  0  0  0  0  0  0
    4.3390    3.0990    0.3830 C   0  0  0  0  0  0  0  0  0  0  0  0
    5.3880    3.0140   -0.5310 O   0  0  0  0  0  0  0  0  0  0  0  0
    6.5540    2.5110   -0.0100 C   0  0  1  0  0  0  0  0  0  0  0  0
    7.3400    3.5280    0.7780 C   0  0  0  0  0  0  0  0  0  0  0  0
    8.5550    2.9240    1.2960 N   0  0  0  0  0  0  0  0  0  0  0  0
    6.3880    1.2720    0.8320 C   0  0  0  0  0  0  0  0  0  0  0  0
   -1.2590   -2.7530   -0.1370 C   0  0  0  0  0  0  0  0  0  0  0  0
   -2.5140   -3.0360   -0.1040 O   0  0  0  0  0  0  0  0  0  0  0  0
   -0.3350   -3.8920    0.0470 C   0  0  2  0  0  0  0  0  0  0  0  0
   -1.0200   -5.1070   -0.5990 C   0  0  0  0  0  0  0  0  0  0  0  0
   -0.4300   -6.3890   -0.0760 C   0  0  0  0  0  0  0  0  0  0  0  0
    0.9710   -6.2110    0.4810 C   0  0  0  0  0  0  0  0  0  0  0  0
    0.9210   -5.2580    1.6580 C   0  0  0  0  0  0  0  0  0  0  0  0
   -0.2010   -4.2570    1.5170 C   0  0  0  0  0  0  0  0  0  0  0  0
  1  2  1  0
  2  3  1  0
  3  4  2  0
  3  9  1  0
  4  5  1  0
  5  6  2  0
  6  7  1  0
  6  8  1  0
  8  9  2  0
  9 10  1  0
 10 11  1  0
 11 12  2  0
 11 13  1  0
 13 14  1  0
 14 15  1  0
 15 16  1  0
 15 30  1  0
 16 17  1  0
 17 18  1  0
 18 19  2  0
 18 23  1  0
 19 20  1  0
 20 21  2  0
 21 22  1  0
 21 29  1  0
 22 23  2  0
 22 24  1  0
 24 25  1  0
 25 26  1  0
 26 27  1  1
 26 29  1  0
 27 28  1  0
 30 31  2  0
 32 30  1  1
 32 33  1  0
 32 37  1  0
 33 34  1  0
 34 35  1  0
 35 36  1  0
 36 37  1  0
M  CHG  1  28   1
M  END
