
     RDKit          3D

 37 40  0  0  0  0  0  0  0  0999 V2000
   -3.5090   -5.3880   -1.2330 C   0  0  0  0  0  0  0  0  0  0  0  0
   -3.2870   -4.5130    0.3370 S   0  0  0  0  0  0  0  0  0  0  0  0
   -1.9560   -3.3640    0.3330 C   0  0  0  0  0  0  0  0  0  0  0  0
   -2.1850   -1.9750   -0.0730 N   0  0  0  0  0  0  0  0  0  0  0  0
   -1.3040   -1.3400    0.0370 C   0  0  0  0  0  0  0  0  0  0  0  0
   -1.7390    0.1660    0.3040 N   0  0  0  0  0  0  0  0  0  0  0  0
   -2.6940    1.0040   -0.0330 C   0  0  0  0  0  0  0  0  0  0  0  0
   -4.1410    0.7700   -0.3290 C   0  0  0  0  0  0  0  0  0  0  0  0
   -4.7180    1.9850   -0.6680 N   0  0  0  0  0  0  0  0  0  0  0  0
   -4.6920    3.0630    0.2730 C   0  0  0  0  0  0  0  0  0  0  0  0
   -4.5810    4.3030   -0.6650 C   0  0  0  0  0  0  0  0  0  0  0  0
   -5.0970    4.2440   -1.7800 C   0  0  0  0  0  0  0  0  0  0  0  0
   -5.8130    3.2310   -2.4620 C   0  0  2  0  0  0  0  0  0  0  0  0
   -7.1680    3.5360   -2.9200 N   0  0  0  0  0  0  0  0  0  0  0  0
   -8.3410    3.7910   -3.3060 N   0  0  0  0  0  0  0  0  0  0  0  0
   -5.8040    1.9850   -1.5670 C   0  0  0  0  0  0  0  0  0  0  0  0
    0.0860   -1.3780    0.4180 C   0  0  0  0  0  0  0  0  0  0  0  0
    0.7300   -0.1680    0.5580 C   0  0  0  0  0  0  0  0  0  0  0  0
    0.8190    0.9110    0.7300 O   0  0  0  0  0  0  0  0  0  0  0  0
    2.5320   -0.5330    0.2130 N   0  0  0  0  0  0  0  0  0  0  0  0
    2.8370    0.8240    0.5100 C   0  0  0  0  0  0  0  0  0  0  0  0
    2.9770    1.8210    0.7370 O   0  0  0  0  0  0  0  0  0  0  0  0
    4.5390    0.4810    0.2270 N   0  0  0  0  0  0  0  0  0  0  0  0
    5.3990    1.5300    0.2100 C   0  0  0  0  0  0  0  0  0  0  0  0
    6.1980    1.7450   -0.9110 C   0  0  0  0  0  0  0  0  0  0  0  0
    7.2010    2.6830   -0.8630 C   0  0  0  0  0  0  0  0  0  0  0  0
    8.1530    2.9420   -2.0320 C   0  0  0  0  0  0  0  0  0  0  0  0
    7.4370    3.4410    0.2810 C   0  0  0  0  0  0  0  0  0  0  0  0
    6.6160    3.1650    1.4480 C   0  0  0  0  0  0  0  0  0  0  0  0
    5.6370    2.2480    1.3880 C   0  0  0  0  0  0  0  0  0  0  0  0
    4.8900    1.9090    2.4420 F   0  0  0  0  0  0  0  0  0  0  0  0
    0.3810   -2.6670    0.8020 C   0  0  0  0  0  0  0  0  0  0  0  0
   -0.7180   -3.7570    0.7980 C   0  0  0  0  0  0  0  0  0  0  0  0
   -0.4130   -5.0640    1.2620 C   0  0  0  0  0  0  0  0  0  0  0  0
    0.2670   -4.8420    2.6420 C   0  0  0  0  0  0  0  0  0  0  0  0
    1.5990   -4.3080    2.3140 C   0  0  0  0  0  0  0  0  0  0  0  0
    1.6240   -3.1050    1.4020 C   0  0  0  0  0  0  0  0  0  0  0  0
  1  2  1  0
  2  3  1  0
  3  4  2  0
  3 33  1  0
  4  5  1  0
  5  6  1  0
  5 17  2  0
  6  7  1  0
  7  8  1  0
  8  9  1  0
  9 10  1  0
  9 16  1  0
 10 11  1  0
 11 12  2  0
 12 13  1  0
 13 14  1  1
 13 16  1  0
 14 15  3  0
 17 18  1  0
 17 32  1  0
 18 19  2  0
 18 20  1  0
 20 21  1  0
 21 22  2  0
 21 23  1  0
 23 24  1  0
 24 25  2  0
 24 30  1  0
 25 26  1  0
 26 27  1  0
 26 28  2  0
 28 29  1  0
 29 30  2  0
 30 31  1  0
 32 33  2  0
 32 37  1  0
 33 34  1  0
 34 35  1  0
 35 36  1  0
 36 37  1  0
M  CHG  1  14   1
M  END
