
     RDKit          3D

 37 40  0  0  0  0  0  0  0  0999 V2000
   -8.8960    1.6740   -1.8510 C   0  0  0  0  0  0  0  0  0  0  0  0
   -7.7510    1.0480   -2.6440 C   0  0  0  0  0  0  0  0  0  0  0  0
   -6.9600    0.2290   -1.7110 C   0  0  0  0  0  0  0  0  0  0  0  0
   -5.7580    0.6830   -1.2430 C   0  0  0  0  0  0  0  0  0  0  0  0
   -4.9700   -0.0360   -0.3680 C   0  0  0  0  0  0  0  0  0  0  0  0
   -3.6930    0.4900    0.1040 C   0  0  0  0  0  0  0  0  0  0  0  0
   -3.3160    1.6130   -0.2980 O   0  0  0  0  0  0  0  0  0  0  0  0
   -2.8680   -0.2830    1.0310 C   0  0  2  0  0  0  0  0  0  0  0  0
   -3.6100   -0.3280    2.3730 C   0  0  0  0  0  0  0  0  0  0  0  0
   -1.6150    0.4520    1.2620 N   0  0  0  0  0  0  0  0  0  0  0  0
   -0.7340    0.3260    0.1270 C   0  0  0  0  0  0  0  0  0  0  0  0
    0.6880    0.6310    0.4320 C   0  0  0  0  0  0  0  0  0  0  0  0
    1.1550    1.0060    1.6640 C   0  0  0  0  0  0  0  0  0  0  0  0
    2.5140    1.2680    1.8710 C   0  0  0  0  0  0  0  0  0  0  0  0
    3.4490    1.1690    0.8690 C   0  0  0  0  0  0  0  0  0  0  0  0
    4.8360    1.4300    1.0890 N   0  0  0  0  0  0  0  0  0  0  0  0
    5.2180    2.5140    1.7880 C   0  0  0  0  0  0  0  0  0  0  0  0
    6.5490    2.8270    2.0430 C   0  0  0  0  0  0  0  0  0  0  0  0
    7.4910    1.9370    1.5260 C   0  0  0  0  0  0  0  0  0  0  0  0
    7.1400    0.8140    0.8030 C   0  0  0  0  0  0  0  0  0  0  0  0
    8.1410   -0.1150    0.2720 C   0  0  0  0  0  0  0  0  0  0  0  0
    9.5090   -0.0240    0.4110 C   0  0  0  0  0  0  0  0  0  0  0  0
   10.0820   -1.1140   -0.2470 C   0  0  0  0  0  0  0  0  0  0  0  0
   11.4260   -1.3960   -0.3460 O   0  0  0  0  0  0  0  0  0  0  0  0
   11.8200   -2.5540   -1.0590 C   0  0  0  0  0  0  0  0  0  0  0  0
    8.9890   -1.8110   -0.7550 C   0  0  0  0  0  0  0  0  0  0  0  0
    7.9060   -1.1820   -0.4190 O   0  0  0  0  0  0  0  0  0  0  0  0
    5.7880    0.6080    0.6140 C   0  0  0  0  0  0  0  0  0  0  0  0
    5.4650   -0.4160   -0.0450 O   0  0  0  0  0  0  0  0  0  0  0  0
    2.9840    0.7920   -0.3740 C   0  0  0  0  0  0  0  0  0  0  0  0
    1.6490    0.5320   -0.5870 C   0  0  0  0  0  0  0  0  0  0  0  0
    1.2070    0.1550   -1.8500 O   0  0  0  0  0  0  0  0  0  0  0  0
   -5.4310   -1.2840    0.0520 C   0  0  0  0  0  0  0  0  0  0  0  0
   -6.6420   -1.7590   -0.4100 C   0  0  0  0  0  0  0  0  0  0  0  0
   -7.0840   -3.0930    0.0670 C   0  0  0  0  0  0  0  0  0  0  0  0
   -7.4160   -0.9980   -1.3000 C   0  0  0  0  0  0  0  0  0  0  0  0
   -8.6980   -1.5850   -1.7400 C   0  0  0  0  0  0  0  0  0  0  0  0
  1  2  1  0
  2  3  1  0
  3  4  2  0
  3 36  1  0
  4  5  1  0
  5  6  1  0
  5 33  2  0
  6  7  2  0
  6  8  1  0
  8  9  1  1
  8 10  1  0
 10 11  1  0
 11 12  1  0
 12 13  2  0
 12 31  1  0
 13 14  1  0
 14 15  2  0
 15 16  1  0
 15 30  1  0
 16 17  1  0
 16 28  1  0
 17 18  2  0
 18 19  1  0
 19 20  2  0
 20 21  1  0
 20 28  1  0
 21 22  2  0
 21 27  1  0
 22 23  1  0
 23 24  1  0
 23 26  2  0
 24 25  1  0
 26 27  1  0
 28 29  2  0
 30 31  2  0
 31 32  1  0
 33 34  1  0
 34 35  1  0
 34 36  2  0
 36 37  1  0
M  CHG  1  10   1
M  END
