
     RDKit          3D

 37 40  0  0  0  0  0  0  0  0999 V2000
    8.8460   -3.0350    0.2380 C   0  0  0  0  0  0  0  0  0  0  0  0
    7.9130   -3.4830   -0.7750 N   0  0  0  0  0  0  0  0  0  0  0  0
    6.8180   -2.6000   -0.8770 C   0  0  0  0  0  0  0  0  0  0  0  0
    5.5100   -3.0900   -0.8110 C   0  0  0  0  0  0  0  0  0  0  0  0
    4.4200   -2.2460   -0.8730 C   0  0  0  0  0  0  0  0  0  0  0  0
    4.5910   -0.8870   -1.0040 C   0  0  0  0  0  0  0  0  0  0  0  0
    3.4040   -0.0400   -1.1060 N   0  0  0  0  0  0  0  0  0  0  0  0
    2.5290   -0.1540   -0.0150 C   0  0  0  0  0  0  0  0  0  0  0  0
    1.2150    0.4610   -0.0320 C   0  0  0  0  0  0  0  0  0  0  0  0
    0.0830    0.0280   -0.5890 N   0  0  0  0  0  0  0  0  0  0  0  0
   -1.1300    0.5650   -0.3160 C   0  0  0  0  0  0  0  0  0  0  0  0
   -2.6910   -0.1780   -0.8990 S   0  0  0  0  0  0  0  0  0  0  0  0
   -3.1610   -1.2980    0.4790 C   0  0  0  0  0  0  0  0  0  0  0  0
   -4.5830   -1.6230    0.3790 C   0  0  0  0  0  0  0  0  0  0  0  0
   -4.8690   -2.8670    0.1930 N   0  0  0  0  0  0  0  0  0  0  0  0
   -6.0920   -3.5850    0.0490 C   0  0  0  0  0  0  0  0  0  0  0  0
   -5.8990   -5.0450   -0.0680 C   0  0  0  0  0  0  0  0  0  0  0  0
   -5.1110   -5.2680   -1.1770 F   0  0  0  0  0  0  0  0  0  0  0  0
   -7.3300   -3.1070    0.0070 C   0  0  0  0  0  0  0  0  0  0  0  0
   -7.8100   -1.7610    0.0890 N   0  0  0  0  0  0  0  0  0  0  0  0
   -6.9620   -0.6490    0.3730 C   0  0  0  0  0  0  0  0  0  0  0  0
   -7.5400    0.4470    0.5080 O   0  0  0  0  0  0  0  0  0  0  0  0
   -5.5390   -0.5760    0.5360 N   0  0  0  0  0  0  0  0  0  0  0  0
   -1.3110    1.6200    0.5610 C   0  0  0  0  0  0  0  0  0  0  0  0
   -2.6030    2.2010    0.9080 C   0  0  0  0  0  0  0  0  0  0  0  0
   -3.2250    1.8340    1.9460 O   0  0  0  0  0  0  0  0  0  0  0  0
   -3.2000    3.1810    0.1220 N   0  0  0  0  0  0  0  0  0  0  0  0
   -4.5030    3.8280    0.4280 C   0  0  0  0  0  0  0  0  0  0  0  0
   -4.0550    5.3100    0.2860 C   0  0  0  0  0  0  0  0  0  0  0  0
   -3.0210    5.3000   -0.8000 C   0  0  0  0  0  0  0  0  0  0  0  0
   -2.7530    3.8140   -1.0930 C   0  0  0  0  0  0  0  0  0  0  0  0
   -0.1580    2.1020    1.1560 C   0  0  0  0  0  0  0  0  0  0  0  0
    1.0400    1.5610    0.8870 C   0  0  0  0  0  0  0  0  0  0  0  0
    2.2840    2.1120    1.4880 C   0  0  0  0  0  0  0  0  0  0  0  0
    5.8580   -0.3720   -1.0750 C   0  0  0  0  0  0  0  0  0  0  0  0
    6.0960    1.1220   -1.1560 C   0  0  0  0  0  0  0  0  0  0  0  0
    6.9530   -1.2080   -1.0110 C   0  0  0  0  0  0  0  0  0  0  0  0
  1  2  1  0
  2  3  1  0
  3  4  2  0
  3 37  1  0
  4  5  1  0
  5  6  2  0
  6  7  1  0
  6 35  1  0
  7  8  1  0
  8  9  1  0
  9 10  2  0
  9 33  1  0
 10 11  1  0
 11 12  1  0
 11 24  2  0
 12 13  1  0
 13 14  1  0
 14 15  2  0
 14 23  1  0
 15 16  1  0
 16 17  1  0
 16 19  2  0
 17 18  1  0
 19 20  1  0
 20 21  1  0
 21 22  2  0
 21 23  1  0
 24 25  1  0
 24 32  1  0
 25 26  2  0
 25 27  1  0
 27 28  1  0
 27 31  1  0
 28 29  1  0
 29 30  1  0
 30 31  1  0
 32 33  2  0
 33 34  1  0
 35 36  1  0
 35 37  2  0
M  CHG  1   2   1
M  END
