
     RDKit          3D

 37 40  0  0  0  0  0  0  0  0999 V2000
   -3.8230    3.4470    2.2790 C   0  0  0  0  0  0  0  0  0  0  0  0
   -4.1920    2.3660    1.6770 C   0  0  0  0  0  0  0  0  0  0  0  0
   -3.5970    1.3310    0.9220 C   0  0  0  0  0  0  0  0  0  0  0  0
   -4.5770    0.3930    0.5290 C   0  0  0  0  0  0  0  0  0  0  0  0
   -4.2540   -0.7770   -0.2630 C   0  0  0  0  0  0  0  0  0  0  0  0
   -2.2680    1.0230    0.5320 C   0  0  0  0  0  0  0  0  0  0  0  0
   -1.0670    1.4090    0.5330 C   0  0  0  0  0  0  0  0  0  0  0  0
   -0.5250    2.6640    1.0870 C   0  0  0  0  0  0  0  0  0  0  0  0
    0.1220    3.4550    0.0090 N   0  0  0  0  0  0  0  0  0  0  0  0
   -0.5540    4.7360   -0.0680 C   0  0  0  0  0  0  0  0  0  0  0  0
    0.0380    0.4870    0.1010 C   0  0  0  0  0  0  0  0  0  0  0  0
    1.1410    1.1170   -0.0850 N   0  0  0  0  0  0  0  0  0  0  0  0
    2.3900    0.6980   -0.4720 C   0  0  0  0  0  0  0  0  0  0  0  0
    3.0300   -0.3930    0.0910 C   0  0  0  0  0  0  0  0  0  0  0  0
    4.2920   -0.7680   -0.3230 C   0  0  0  0  0  0  0  0  0  0  0  0
    4.9640   -0.0830   -1.3030 C   0  0  0  0  0  0  0  0  0  0  0  0
    4.3050    1.0220   -1.8660 C   0  0  0  0  0  0  0  0  0  0  0  0
    3.0680    1.4050   -1.4750 C   0  0  0  0  0  0  0  0  0  0  0  0
    5.0180    1.6880   -2.8530 O   0  0  0  0  0  0  0  0  0  0  0  0
    6.4020    1.7980   -2.7370 C   0  0  0  0  0  0  0  0  0  0  0  0
    7.1080    0.5900   -2.2460 C   0  0  0  0  0  0  0  0  0  0  0  0
    6.2280   -0.3900   -1.7790 O   0  0  0  0  0  0  0  0  0  0  0  0
   -0.0350   -0.9030   -0.2290 C   0  0  0  0  0  0  0  0  0  0  0  0
    0.5120   -1.3150   -1.4810 C   0  0  0  0  0  0  0  0  0  0  0  0
    0.2520   -2.5480   -2.0150 C   0  0  0  0  0  0  0  0  0  0  0  0
    0.8430   -2.9180   -3.3120 C   0  0  0  0  0  0  0  0  0  0  0  0
    1.5780   -2.1000   -3.9140 O   0  0  0  0  0  0  0  0  0  0  0  0
    0.5830   -4.1630   -3.8540 O   0  0  0  0  0  0  0  0  0  0  0  0
   -0.5590   -3.4130   -1.3210 C   0  0  0  0  0  0  0  0  0  0  0  0
   -1.1040   -3.0350   -0.0870 C   0  0  0  0  0  0  0  0  0  0  0  0
   -1.8360   -3.9390    0.6540 C   0  0  0  0  0  0  0  0  0  0  0  0
   -2.3010   -3.6380    1.9210 C   0  0  0  0  0  0  0  0  0  0  0  0
   -2.0380   -2.4060    2.4800 C   0  0  0  0  0  0  0  0  0  0  0  0
   -2.4870   -2.0550    3.7660 O   0  0  0  0  0  0  0  0  0  0  0  0
   -3.2370   -2.9650    4.5500 C   0  0  0  0  0  0  0  0  0  0  0  0
   -1.3120   -1.5080    1.7350 C   0  0  0  0  0  0  0  0  0  0  0  0
   -0.8350   -1.8000    0.4370 C   0  0  0  0  0  0  0  0  0  0  0  0
  1  2  2  0
  2  3  1  0
  3  4  2  3
  3  6  1  0
  4  5  1  0
  6  7  2  3
  7  8  1  0
  7 11  1  0
  8  9  1  0
  9 10  1  0
 11 12  2  3
 11 23  1  0
 12 13  1  0
 13 14  2  0
 13 18  1  0
 14 15  1  0
 15 16  2  0
 16 17  1  0
 16 22  1  0
 17 18  2  0
 17 19  1  0
 19 20  1  0
 20 21  1  0
 21 22  1  0
 23 24  2  0
 23 37  1  0
 24 25  1  0
 25 26  1  0
 25 29  2  0
 26 27  2  0
 26 28  1  0
 29 30  1  0
 30 31  2  0
 30 37  1  0
 31 32  1  0
 32 33  2  0
 33 34  1  0
 33 36  1  0
 34 35  1  0
 36 37  2  0
M  CHG  1   9   1
M  END
