
     RDKit          3D

 37 40  0  0  0  0  0  0  0  0999 V2000
   -8.7610    3.2030   -0.3760 C   0  0  0  0  0  0  0  0  0  0  0  0
   -7.7030    2.9450    0.3430 C   0  0  0  0  0  0  0  0  0  0  0  0
   -7.6360    3.4220    2.0860 S   0  0  0  0  0  0  0  0  0  0  0  0
   -6.5570    2.2670   -0.2390 C   0  0  0  0  0  0  0  0  0  0  0  0
   -6.5720    1.8350   -1.5430 C   0  0  0  0  0  0  0  0  0  0  0  0
   -5.4390    1.1970   -2.0330 C   0  0  0  0  0  0  0  0  0  0  0  0
   -4.3280    0.9920   -1.2600 C   0  0  0  0  0  0  0  0  0  0  0  0
   -4.3350    1.4330    0.0470 C   0  0  0  0  0  0  0  0  0  0  0  0
   -3.2400    1.2580    0.9170 N   0  0  0  0  0  0  0  0  0  0  0  0
   -2.0080    0.6080    0.5570 C   0  0  0  0  0  0  0  0  0  0  0  0
   -2.2010   -0.8360    0.2160 C   0  0  0  0  0  0  0  0  0  0  0  0
   -3.3450   -1.5370    0.2230 N   0  0  0  0  0  0  0  0  0  0  0  0
   -3.0860   -2.7730   -0.1330 N   0  0  0  0  0  0  0  0  0  0  0  0
   -4.0500   -3.8450   -0.2510 C   0  0  0  0  0  0  0  0  0  0  0  0
   -1.7540   -2.9310   -0.3890 C   0  0  0  0  0  0  0  0  0  0  0  0
   -1.2090   -1.6910   -0.1630 C   0  0  0  0  0  0  0  0  0  0  0  0
    0.2630   -1.5020   -0.3520 C   0  0  0  0  0  0  0  0  0  0  0  0
    0.9830   -2.7120   -0.2040 N   0  0  0  0  0  0  0  0  0  0  0  0
    1.7290   -2.9050    0.9760 C   0  0  0  0  0  0  0  0  0  0  0  0
    2.9090   -2.0120    1.0280 C   0  0  0  0  0  0  0  0  0  0  0  0
    3.7000   -2.0090    2.0220 O   0  0  0  0  0  0  0  0  0  0  0  0
    3.2500   -1.1040   -0.0070 N   0  0  0  0  0  0  0  0  0  0  0  0
    4.3540   -0.2660    0.0410 N   0  0  0  0  0  0  0  0  0  0  0  0
    4.3520    0.9640    0.2960 C   0  0  0  0  0  0  0  0  0  0  0  0
    5.4560    1.8470    0.3540 C   0  0  0  0  0  0  0  0  0  0  0  0
    5.1660    3.1880    0.6760 C   0  0  0  0  0  0  0  0  0  0  0  0
    6.1240    4.1640    0.7780 C   0  0  0  0  0  0  0  0  0  0  0  0
    7.4300    3.7900    0.5490 C   0  0  0  0  0  0  0  0  0  0  0  0
    8.4010    4.7410    0.6430 F   0  0  0  0  0  0  0  0  0  0  0  0
    7.7320    2.4950    0.2340 C   0  0  0  0  0  0  0  0  0  0  0  0
    6.7450    1.4880    0.1290 C   0  0  0  0  0  0  0  0  0  0  0  0
    7.1810    0.1580   -0.2140 C   0  0  0  0  0  0  0  0  0  0  0  0
    8.6660   -0.0780   -0.4260 C   0  0  0  0  0  0  0  0  0  0  0  0
    6.4820   -0.8530   -0.3660 O   0  0  0  0  0  0  0  0  0  0  0  0
    0.4820   -3.8410   -0.8840 C   0  0  0  0  0  0  0  0  0  0  0  0
   -0.9700   -4.1190   -0.8170 C   0  0  0  0  0  0  0  0  0  0  0  0
   -5.4340    2.0460    0.5040 N   0  0  0  0  0  0  0  0  0  0  0  0
  1  2  2  0
  2  3  1  0
  2  4  1  0
  4  5  2  0
  4 37  1  0
  5  6  1  0
  6  7  2  0
  7  8  1  0
  8  9  1  0
  8 37  2  0
  9 10  1  0
 10 11  1  0
 11 12  2  0
 11 16  1  0
 12 13  1  0
 13 14  1  0
 13 15  1  0
 15 16  2  0
 15 36  1  0
 16 17  1  0
 17 18  1  0
 18 19  1  0
 18 35  1  0
 19 20  1  0
 20 21  2  0
 20 22  1  0
 22 23  1  0
 23 24  2  3
 24 25  1  0
 25 26  2  0
 25 31  1  0
 26 27  1  0
 27 28  2  0
 28 29  1  0
 28 30  1  0
 30 31  2  0
 31 32  1  0
 32 33  1  0
 32 34  2  0
 35 36  1  0
M  CHG  1  37   1
M  END
