
     RDKit          3D

 37 40  0  0  0  0  0  0  0  0999 V2000
   -6.5820   -1.9390   -0.6280 C   0  0  0  0  0  0  0  0  0  0  0  0
   -5.1380   -1.5210   -0.7230 C   0  0  0  0  0  0  0  0  0  0  0  0
   -4.6370   -0.9810    0.3550 C   0  0  0  0  0  0  0  0  0  0  0  0
   -5.4250   -0.7960    1.5370 N   0  0  0  0  0  0  0  0  0  0  0  0
   -5.6090    0.6850    1.5950 C   0  0  0  0  0  0  0  0  0  0  0  0
   -4.3110    1.3520    1.5300 C   0  0  0  0  0  0  0  0  0  0  0  0
   -4.1630    2.5220    2.1690 C   0  0  0  0  0  0  0  0  0  0  0  0
   -2.9260    3.2930    2.1960 C   0  0  0  0  0  0  0  0  0  0  0  0
   -1.8060    2.6600    1.5150 C   0  0  0  0  0  0  0  0  0  0  0  0
   -1.8660    1.4960    0.8730 C   0  0  0  0  0  0  0  0  0  0  0  0
   -3.1500    0.8050    0.8590 C   0  0  0  0  0  0  0  0  0  0  0  0
   -3.2810   -0.4430    0.3140 C   0  0  0  0  0  0  0  0  0  0  0  0
   -2.1990   -1.0850   -0.2320 N   0  0  0  0  0  0  0  0  0  0  0  0
   -2.1030   -2.3570   -0.7780 C   0  0  0  0  0  0  0  0  0  0  0  0
   -3.0780   -3.1250   -0.7850 O   0  0  0  0  0  0  0  0  0  0  0  0
   -0.8590   -2.9360   -1.3990 C   0  0  0  0  0  0  0  0  0  0  0  0
    0.1310   -1.9680   -1.4540 O   0  0  0  0  0  0  0  0  0  0  0  0
    0.1330   -0.7740   -2.1250 C   0  0  0  0  0  0  0  0  0  0  0  0
    1.0600    0.1250   -1.8480 C   0  0  0  0  0  0  0  0  0  0  0  0
    2.0930   -0.1030   -0.8480 C   0  0  0  0  0  0  0  0  0  0  0  0
    2.4880    0.8600    0.0430 C   0  0  0  0  0  0  0  0  0  0  0  0
    3.4950    0.6050    0.9840 C   0  0  0  0  0  0  0  0  0  0  0  0
    4.1230   -0.6090    1.0510 C   0  0  0  0  0  0  0  0  0  0  0  0
    5.1110   -0.9110    1.9520 O   0  0  0  0  0  0  0  0  0  0  0  0
    5.7340   -0.2000    2.9330 C   0  0  0  0  0  0  0  0  0  0  0  0
    6.5500    0.9940    2.4990 C   0  0  0  0  0  0  0  0  0  0  0  0
    7.1560    1.6650    3.5530 O   0  0  0  0  0  0  0  0  0  0  0  0
    6.2900    2.1740    4.4800 C   0  0  0  0  0  0  0  0  0  0  0  0
    3.7060   -1.5840    0.1310 C   0  0  0  0  0  0  0  0  0  0  0  0
    4.3780   -2.9030    0.1940 C   0  0  0  0  0  0  0  0  0  0  0  0
    2.7240   -1.3190   -0.7780 C   0  0  0  0  0  0  0  0  0  0  0  0
    1.0760    1.4040   -2.5710 C   0  0  0  0  0  0  0  0  0  0  0  0
    1.9440    2.2590   -2.2290 O   0  0  0  0  0  0  0  0  0  0  0  0
    0.1080    1.6650   -3.6520 C   0  0  0  0  0  0  0  0  0  0  0  0
   -0.3180    0.3640   -4.2620 C   0  0  1  0  0  0  0  0  0  0  0  0
    0.8710   -0.3060   -4.8860 C   0  0  0  0  0  0  0  0  0  0  0  0
   -0.8980   -0.5050   -3.1490 C   0  0  0  0  0  0  0  0  0  0  0  0
  1  2  1  0
  2  3  2  3
  3  4  1  0
  3 12  1  0
  4  5  1  0
  5  6  1  0
  6  7  2  0
  6 11  1  0
  7  8  1  0
  8  9  1  0
  9 10  2  0
 10 11  1  0
 11 12  2  0
 12 13  1  0
 13 14  1  0
 14 15  2  0
 14 16  1  0
 16 17  1  0
 17 18  1  0
 18 19  2  0
 18 37  1  0
 19 20  1  0
 19 32  1  0
 20 21  2  0
 20 31  1  0
 21 22  1  0
 22 23  2  0
 23 24  1  0
 23 29  1  0
 24 25  1  0
 25 26  1  0
 26 27  1  0
 27 28  1  0
 29 30  1  0
 29 31  2  0
 32 33  2  0
 32 34  1  0
 34 35  1  0
 35 36  1  1
 35 37  1  0
M  CHG  1   4   1
M  END
