
     RDKit          3D

 37 39  0  0  0  0  0  0  0  0999 V2000
    8.3070    1.3630    1.4920 C   0  0  0  0  0  0  0  0  0  0  0  0
    8.2820    0.2480    0.7700 C   0  0  0  0  0  0  0  0  0  0  0  0
    7.0190   -0.1490    0.0900 C   0  0  0  0  0  0  0  0  0  0  0  0
    5.8550    0.6430    0.2060 N   0  0  0  0  0  0  0  0  0  0  0  0
    4.5440    0.1290    0.3670 C   0  0  0  0  0  0  0  0  0  0  0  0
    3.5110    0.5050   -0.3490 C   0  0  0  0  0  0  0  0  0  0  0  0
    3.6570    1.5360   -1.4200 C   0  0  0  0  0  0  0  0  0  0  0  0
    2.1930   -0.0450   -0.1490 C   0  0  0  0  0  0  0  0  0  0  0  0
    1.9470   -1.0450    0.8980 C   0  0  0  0  0  0  0  0  0  0  0  0
    1.1590    0.3570   -0.9020 C   0  0  0  0  0  0  0  0  0  0  0  0
   -0.1990   -0.2170   -0.6930 C   0  0  0  0  0  0  0  0  0  0  0  0
   -0.4610   -1.4710   -0.4920 N   0  0  0  0  0  0  0  0  0  0  0  0
   -1.4720   -2.0300   -0.3100 C   0  0  0  0  0  0  0  0  0  0  0  0
   -2.0000   -3.3350   -0.0790 N   0  0  0  0  0  0  0  0  0  0  0  0
   -1.2000   -4.5200   -0.3040 C   0  0  0  0  0  0  0  0  0  0  0  0
   -1.6540   -5.6510    0.5360 C   0  0  0  0  0  0  0  0  0  0  0  0
   -0.6490   -6.6060    1.0890 C   0  0  0  0  0  0  0  0  0  0  0  0
   -2.9380   -5.8160    0.7950 C   0  0  0  0  0  0  0  0  0  0  0  0
   -3.3720   -6.8960    1.5970 N   0  0  0  0  0  0  0  0  0  0  0  0
   -3.9280   -4.8720    0.2510 C   0  0  0  0  0  0  0  0  0  0  0  0
   -3.3410   -3.5100    0.3820 C   0  0  0  0  0  0  0  0  0  0  0  0
   -3.9730   -2.5400    0.8720 O   0  0  0  0  0  0  0  0  0  0  0  0
   -2.6460   -0.5620   -0.3930 S   0  0  0  0  0  0  0  0  0  0  0  0
   -1.3080    0.6450   -0.6990 C   0  0  0  0  0  0  0  0  0  0  0  0
   -1.3850    2.0190   -0.8970 C   0  0  0  0  0  0  0  0  0  0  0  0
   -0.2820    2.6390   -1.1450 O   0  0  0  0  0  0  0  0  0  0  0  0
   -2.5310    2.8240   -0.8610 N   0  0  0  0  0  0  0  0  0  0  0  0
   -2.3730    4.2770   -1.1310 C   0  0  0  0  0  0  0  0  0  0  0  0
   -3.7340    4.9040   -1.0440 C   0  0  0  0  0  0  0  0  0  0  0  0
   -4.2190    4.6800    0.2920 N   0  0  0  0  0  0  0  0  0  0  0  0
   -5.3070    5.5220    0.6830 C   0  0  0  0  0  0  0  0  0  0  0  0
   -4.9540    6.9710    0.8370 C   0  0  0  0  0  0  0  0  0  0  0  0
   -4.6140    3.3010    0.3900 C   0  0  0  0  0  0  0  0  0  0  0  0
   -3.8660    2.3920   -0.5750 C   0  0  0  0  0  0  0  0  0  0  0  0
    6.9670   -1.2230   -0.6080 N   0  0  0  0  0  0  0  0  0  0  0  0
    5.8580   -1.7510   -1.3230 C   0  0  0  0  0  0  0  0  0  0  0  0
    5.4590   -0.9430   -2.3750 F   0  0  0  0  0  0  0  0  0  0  0  0
  1  2  2  0
  2  3  1  0
  3  4  1  0
  3 35  2  3
  4  5  1  0
  5  6  2  3
  6  7  1  0
  6  8  1  0
  8  9  1  0
  8 10  2  3
 10 11  1  0
 11 12  1  0
 11 24  2  0
 12 13  2  0
 13 14  1  0
 13 23  1  0
 14 15  1  0
 14 21  1  0
 15 16  1  0
 16 17  1  0
 16 18  2  0
 18 19  1  0
 18 20  1  0
 20 21  1  0
 21 22  2  0
 23 24  1  0
 24 25  1  0
 25 26  2  0
 25 27  1  0
 27 28  1  0
 27 34  1  0
 28 29  1  0
 29 30  1  0
 30 31  1  0
 30 33  1  0
 31 32  1  0
 33 34  1  0
 35 36  1  0
 36 37  1  0
M  CHG  1  35   1
M  END
