
     RDKit          3D

 37 40  0  0  0  0  0  0  0  0999 V2000
    4.7980    2.5210    2.9550 C   0  0  0  0  0  0  0  0  0  0  0  0
    3.9000    1.8330    1.9150 C   0  0  0  0  0  0  0  0  0  0  0  0
    4.6190    1.7170    0.6030 C   0  0  0  0  0  0  0  0  0  0  0  0
    5.8270    2.1320    0.4540 N   0  0  0  0  0  0  0  0  0  0  0  0
    6.2650    1.9020   -0.8890 C   0  0  2  0  0  0  0  0  0  0  0  0
    6.5320    3.1970   -1.4960 N   0  0  0  0  0  0  0  0  0  0  0  0
    5.0280    4.0330   -1.6780 S   0  0  0  0  0  0  0  0  0  0  0  0
    5.2160    5.3150   -2.5070 O   0  0  0  0  0  0  0  0  0  0  0  0
    5.1200    1.2740   -1.5510 C   0  0  0  0  0  0  0  0  0  0  0  0
    4.1460    1.1680   -0.6530 C   0  0  0  0  0  0  0  0  0  0  0  0
    2.8430    0.6400   -0.8660 N   0  0  0  0  0  0  0  0  0  0  0  0
    2.3510   -0.5370   -0.2340 C   0  0  0  0  0  0  0  0  0  0  0  0
    3.1030   -1.1380    0.5390 O   0  0  0  0  0  0  0  0  0  0  0  0
    1.0470   -1.0310   -0.4610 N   0  0  0  0  0  0  0  0  0  0  0  0
    0.4940   -2.1900    0.1310 C   0  0  0  0  0  0  0  0  0  0  0  0
    1.1140   -3.0360    1.0220 C   0  0  0  0  0  0  0  0  0  0  0  0
    0.2140   -4.0440    1.3480 C   0  0  0  0  0  0  0  0  0  0  0  0
    0.2900   -5.1420    2.1780 C   0  0  0  0  0  0  0  0  0  0  0  0
   -0.7760   -6.0010    2.3210 C   0  0  0  0  0  0  0  0  0  0  0  0
   -0.7050   -7.0940    3.1450 F   0  0  0  0  0  0  0  0  0  0  0  0
   -1.9220   -5.7210    1.6050 C   0  0  0  0  0  0  0  0  0  0  0  0
   -1.9800   -4.6190    0.7810 C   0  0  0  0  0  0  0  0  0  0  0  0
   -0.9220   -3.7490    0.6250 C   0  0  0  0  0  0  0  0  0  0  0  0
   -0.7580   -2.6410   -0.1040 N   0  0  0  0  0  0  0  0  0  0  0  0
   -1.6950   -2.0190   -0.9750 C   0  0  0  0  0  0  0  0  0  0  0  0
   -2.1720   -2.6500   -2.1150 C   0  0  0  0  0  0  0  0  0  0  0  0
   -3.0840   -2.0290   -2.9520 C   0  0  0  0  0  0  0  0  0  0  0  0
   -3.5500   -0.7650   -2.6820 C   0  0  0  0  0  0  0  0  0  0  0  0
   -4.5200   -0.0740   -3.5480 C   0  0  0  0  0  0  0  0  0  0  0  0
   -3.0560   -0.1440   -1.5250 C   0  0  0  0  0  0  0  0  0  0  0  0
   -3.5100    1.1690   -1.2510 N   0  0  0  0  0  0  0  0  0  0  0  0
   -3.1420    1.9370   -0.1180 C   0  0  0  0  0  0  0  0  0  0  0  0
   -3.7270    1.5960    1.1930 C   0  0  2  0  0  0  0  0  0  0  0  0
   -3.4780    0.2420    1.7490 C   0  0  0  0  0  0  0  0  0  0  0  0
   -5.2450    1.8530    1.0760 C   0  0  0  0  0  0  0  0  0  0  0  0
   -3.2600    2.6940    2.1720 C   0  0  0  0  0  0  0  0  0  0  0  0
   -2.1690   -0.7870   -0.7400 N   0  0  0  0  0  0  0  0  0  0  0  0
  1  2  1  0
  2  3  1  0
  3  4  2  0
  3 10  1  0
  4  5  1  0
  5  6  1  6
  5  9  1  0
  6  7  1  0
  7  8  2  0
  9 10  2  0
 10 11  1  0
 11 12  1  0
 12 13  2  0
 12 14  1  0
 14 15  1  0
 15 16  2  0
 15 24  1  0
 16 17  1  0
 17 18  2  0
 17 23  1  0
 18 19  1  0
 19 20  1  0
 19 21  2  0
 21 22  1  0
 22 23  2  0
 23 24  1  0
 24 25  1  0
 25 26  2  0
 25 37  1  0
 26 27  1  0
 27 28  2  0
 28 29  1  0
 28 30  1  0
 30 31  1  0
 30 37  2  0
 31 32  1  0
 32 33  1  0
 33 34  1  1
 33 35  1  0
 33 36  1  0
M  CHG  1   6   1
M  END
