
     RDKit          3D

 37 39  0  0  0  0  0  0  0  0999 V2000
    4.9550   -3.0760   -3.1020 C   0  0  0  0  0  0  0  0  0  0  0  0
    4.6380   -1.9690   -2.5310 C   0  0  0  0  0  0  0  0  0  0  0  0
    5.3770   -1.2950   -1.4870 C   0  0  0  0  0  0  0  0  0  0  0  0
    4.7290   -0.0330   -1.0300 N   0  0  0  0  0  0  0  0  0  0  0  0
    4.7080    0.2040    0.3580 C   0  0  0  0  0  0  0  0  0  0  0  0
    3.7050    0.5190    1.1280 C   0  0  0  0  0  0  0  0  0  0  0  0
    3.9930    0.7090    2.6150 C   0  0  0  0  0  0  0  0  0  0  0  0
    2.3340    0.7400    0.6710 C   0  0  0  0  0  0  0  0  0  0  0  0
    1.9770    0.7200   -0.7520 C   0  0  0  0  0  0  0  0  0  0  0  0
    1.4140    1.0370    1.5720 C   0  0  0  0  0  0  0  0  0  0  0  0
    0.0160    1.2600    1.1420 C   0  0  0  0  0  0  0  0  0  0  0  0
   -0.5360    2.4240    1.1470 N   0  0  0  0  0  0  0  0  0  0  0  0
   -1.6850    2.7150    0.8390 C   0  0  0  0  0  0  0  0  0  0  0  0
   -2.5090    3.8750    0.7530 N   0  0  0  0  0  0  0  0  0  0  0  0
   -2.7960    4.3410   -0.5960 C   0  0  0  0  0  0  0  0  0  0  0  0
   -3.3250    5.7140   -0.5450 C   0  0  0  0  0  0  0  0  0  0  0  0
   -3.0910    6.5680   -1.7480 C   0  0  0  0  0  0  0  0  0  0  0  0
   -3.9760    6.2260    0.4730 C   0  0  0  0  0  0  0  0  0  0  0  0
   -4.4310    7.5740    0.3830 N   0  0  0  0  0  0  0  0  0  0  0  0
   -4.2330    5.4200    1.6930 C   0  0  0  0  0  0  0  0  0  0  0  0
   -3.0200    4.5440    1.8830 C   0  0  0  0  0  0  0  0  0  0  0  0
   -2.4580    4.3890    2.9760 O   0  0  0  0  0  0  0  0  0  0  0  0
   -2.3250    1.0170    0.3900 S   0  0  0  0  0  0  0  0  0  0  0  0
   -0.7750    0.1850    0.7410 C   0  0  0  0  0  0  0  0  0  0  0  0
   -0.4510   -1.1970    0.6520 C   0  0  0  0  0  0  0  0  0  0  0  0
    0.7280   -1.5690    0.9800 O   0  0  0  0  0  0  0  0  0  0  0  0
   -1.3440   -2.2020    0.2180 N   0  0  0  0  0  0  0  0  0  0  0  0
   -0.8400   -3.5600    0.1390 C   0  0  0  0  0  0  0  0  0  0  0  0
   -1.8420   -4.4570    0.8380 C   0  0  0  0  0  0  0  0  0  0  0  0
   -3.1150   -4.3520    0.2230 N   0  0  0  0  0  0  0  0  0  0  0  0
   -3.3990   -5.4600   -0.6170 C   0  0  0  0  0  0  0  0  0  0  0  0
   -3.5960   -6.7040    0.2340 C   0  0  0  0  0  0  0  0  0  0  0  0
   -3.6010   -3.0980   -0.1600 C   0  0  0  0  0  0  0  0  0  0  0  0
   -2.7000   -1.9280   -0.1290 C   0  0  0  0  0  0  0  0  0  0  0  0
    6.4800   -1.5950   -0.9320 N   0  0  0  0  0  0  0  0  0  0  0  0
    7.2820   -2.7480   -1.2430 C   0  0  0  0  0  0  0  0  0  0  0  0
    8.4750   -2.6370   -0.4480 F   0  0  0  0  0  0  0  0  0  0  0  0
  1  2  2  0
  2  3  1  0
  3  4  1  0
  3 35  2  3
  4  5  1  0
  5  6  2  3
  6  7  1  0
  6  8  1  0
  8  9  1  0
  8 10  2  3
 10 11  1  0
 11 12  1  0
 11 24  2  0
 12 13  2  0
 13 14  1  0
 13 23  1  0
 14 15  1  0
 14 21  1  0
 15 16  1  0
 16 17  1  0
 16 18  2  0
 18 19  1  0
 18 20  1  0
 20 21  1  0
 21 22  2  0
 23 24  1  0
 24 25  1  0
 25 26  2  0
 25 27  1  0
 27 28  1  0
 27 34  1  0
 28 29  1  0
 29 30  1  0
 30 31  1  0
 30 33  1  0
 31 32  1  0
 33 34  1  0
 35 36  1  0
 36 37  1  0
M  CHG  1  35   1
M  END
