
     RDKit          3D

 37 40  0  0  0  0  0  0  0  0999 V2000
    3.7690   -5.3460   -0.8140 C   0  0  0  0  0  0  0  0  0  0  0  0
    4.1110   -3.9940   -0.6720 O   0  0  0  0  0  0  0  0  0  0  0  0
    5.2900   -3.5200   -0.1160 C   0  0  0  0  0  0  0  0  0  0  0  0
    6.2420   -4.4150    0.3540 C   0  0  0  0  0  0  0  0  0  0  0  0
    7.4150   -3.9400    0.9060 C   0  0  0  0  0  0  0  0  0  0  0  0
    7.6920   -2.6000    1.0160 C   0  0  0  0  0  0  0  0  0  0  0  0
    8.9590   -2.1620    1.6150 C   0  0  0  0  0  0  0  0  0  0  0  0
    6.7230   -1.7260    0.5380 C   0  0  0  0  0  0  0  0  0  0  0  0
    5.5520   -2.1710   -0.0140 C   0  0  0  0  0  0  0  0  0  0  0  0
    4.6080   -1.2770   -0.4790 O   0  0  0  0  0  0  0  0  0  0  0  0
    3.6630   -0.7540    0.3870 C   0  0  0  0  0  0  0  0  0  0  0  0
    3.7180   -1.1350    1.5920 O   0  0  0  0  0  0  0  0  0  0  0  0
    2.6270    0.2140   -0.0780 C   0  0  0  0  0  0  0  0  0  0  0  0
    1.7520    0.5940    1.1050 C   0  0  0  0  0  0  0  0  0  0  0  0
    0.7130    1.5590    0.7140 N   0  0  0  0  0  0  0  0  0  0  0  0
   -0.5740    1.0960    0.2750 C   0  0  0  0  0  0  0  0  0  0  0  0
   -1.5250    0.9020    1.4500 C   0  0  0  0  0  0  0  0  0  0  0  0
   -2.8620    0.4210    0.9780 C   0  0  0  0  0  0  0  0  0  0  0  0
   -3.8560    1.3490    0.6840 C   0  0  0  0  0  0  0  0  0  0  0  0
   -5.1000    0.9110    0.2450 C   0  0  0  0  0  0  0  0  0  0  0  0
   -5.3880   -0.4250    0.0880 C   0  0  0  0  0  0  0  0  0  0  0  0
   -4.4030   -1.3320    0.3800 C   0  0  0  0  0  0  0  0  0  0  0  0
   -3.1400   -0.9170    0.8250 C   0  0  0  0  0  0  0  0  0  0  0  0
   -4.6550   -2.7920    0.2140 C   0  0  0  0  0  0  0  0  0  0  0  0
   -5.9440   -3.1100   -0.1130 O   0  0  0  0  0  0  0  0  0  0  0  0
   -6.4300   -2.2300   -1.0920 C   0  0  1  0  0  0  0  0  0  0  0  0
   -7.6720   -2.7740   -1.7540 C   0  0  0  0  0  0  0  0  0  0  0  0
   -7.4340   -4.0280   -2.4020 N   0  0  0  0  0  0  0  0  0  0  0  0
   -6.7000   -0.9320   -0.3650 C   0  0  0  0  0  0  0  0  0  0  0  0
    0.9710    2.9500    0.7970 C   0  0  0  0  0  0  0  0  0  0  0  0
    2.1160    3.3070    1.2530 O   0  0  0  0  0  0  0  0  0  0  0  0
    0.0290    3.9960    0.3990 C   0  0  1  0  0  0  0  0  0  0  0  0
    0.4710    5.3240    0.9970 C   0  0  0  0  0  0  0  0  0  0  0  0
   -0.1860    6.4830    0.2710 C   0  0  0  0  0  0  0  0  0  0  0  0
    0.5270    6.6200   -1.0520 C   0  0  0  0  0  0  0  0  0  0  0  0
    0.8270    5.2750   -1.6130 C   0  0  0  0  0  0  0  0  0  0  0  0
   -0.0610    4.1600   -1.1060 C   0  0  0  0  0  0  0  0  0  0  0  0
  1  2  1  0
  2  3  1  0
  3  4  2  0
  3  9  1  0
  4  5  1  0
  5  6  2  0
  6  7  1  0
  6  8  1  0
  8  9  2  0
  9 10  1  0
 10 11  1  0
 11 12  2  0
 11 13  1  0
 13 14  1  0
 14 15  1  0
 15 16  1  0
 15 30  1  0
 16 17  1  0
 17 18  1  0
 18 19  2  0
 18 23  1  0
 19 20  1  0
 20 21  2  0
 21 22  1  0
 21 29  1  0
 22 23  2  0
 22 24  1  0
 24 25  1  0
 25 26  1  0
 26 27  1  1
 26 29  1  0
 27 28  1  0
 30 31  2  0
 32 30  1  6
 32 33  1  0
 32 37  1  0
 33 34  1  0
 34 35  1  0
 35 36  1  0
 36 37  1  0
M  CHG  1  28   1
M  END
