
     RDKit          3D

 37 40  0  0  0  0  0  0  0  0999 V2000
   -3.9840   -5.1980   -0.9180 C   0  0  0  0  0  0  0  0  0  0  0  0
   -3.7520   -4.0530    0.4600 S   0  0  0  0  0  0  0  0  0  0  0  0
   -2.3280   -2.9960    0.1330 C   0  0  0  0  0  0  0  0  0  0  0  0
   -2.4970   -1.8270   -0.5250 N   0  0  0  0  0  0  0  0  0  0  0  0
   -1.4680   -1.0590   -0.7720 C   0  0  0  0  0  0  0  0  0  0  0  0
   -1.5050    0.0680   -1.6060 N   0  0  0  0  0  0  0  0  0  0  0  0
   -2.7980    0.7240   -1.7260 C   0  0  0  0  0  0  0  0  0  0  0  0
   -2.8240    1.4390   -0.3660 C   0  0  0  0  0  0  0  0  0  0  0  0
   -3.9220    2.3240   -0.2400 N   0  0  0  0  0  0  0  0  0  0  0  0
   -3.9260    3.4070   -1.1180 C   0  0  0  0  0  0  0  0  0  0  0  0
   -4.8770    4.4460   -0.6140 C   0  0  0  0  0  0  0  0  0  0  0  0
   -5.5040    4.3440    0.4540 C   0  0  0  0  0  0  0  0  0  0  0  0
   -5.4560    3.2090    1.4490 C   0  0  2  0  0  0  0  0  0  0  0  0
   -4.5630    3.6210    2.4770 N   0  0  0  0  0  0  0  0  0  0  0  0
   -3.8010    3.9610    3.3480 N   0  0  0  0  0  0  0  0  0  0  0  0
   -4.8760    2.0310    0.7340 C   0  0  0  0  0  0  0  0  0  0  0  0
   -0.1470   -1.3790   -0.3400 C   0  0  0  0  0  0  0  0  0  0  0  0
    0.7960   -0.2870   -0.4350 C   0  0  0  0  0  0  0  0  0  0  0  0
    0.7310    0.8360   -0.4650 O   0  0  0  0  0  0  0  0  0  0  0  0
    2.4060   -0.9110   -0.5620 N   0  0  0  0  0  0  0  0  0  0  0  0
    3.0710    0.4180   -0.4300 C   0  0  0  0  0  0  0  0  0  0  0  0
    2.6860    1.4260   -0.3740 O   0  0  0  0  0  0  0  0  0  0  0  0
    4.5350   -0.0460   -0.3560 N   0  0  0  0  0  0  0  0  0  0  0  0
    5.4590    0.9570   -0.3020 C   0  0  0  0  0  0  0  0  0  0  0  0
    5.1950    2.2750   -0.2160 C   0  0  0  0  0  0  0  0  0  0  0  0
    6.2260    3.2290   -0.2530 C   0  0  0  0  0  0  0  0  0  0  0  0
    5.9090    4.6880   -0.2070 C   0  0  0  0  0  0  0  0  0  0  0  0
    7.4990    2.8410   -0.3760 C   0  0  0  0  0  0  0  0  0  0  0  0
    7.7870    1.4780   -0.4600 C   0  0  0  0  0  0  0  0  0  0  0  0
    6.8080    0.5890   -0.4220 C   0  0  0  0  0  0  0  0  0  0  0  0
    7.1040   -0.7580   -0.4770 F   0  0  0  0  0  0  0  0  0  0  0  0
   -0.0000   -2.5540    0.3150 C   0  0  0  0  0  0  0  0  0  0  0  0
   -1.1180   -3.3780    0.5500 C   0  0  0  0  0  0  0  0  0  0  0  0
   -0.9200   -4.6470    1.3200 C   0  0  0  0  0  0  0  0  0  0  0  0
    0.2960   -5.4150    0.7660 C   0  0  0  0  0  0  0  0  0  0  0  0
    1.3690   -4.5000    0.2090 C   0  0  0  0  0  0  0  0  0  0  0  0
    1.2340   -3.0970    0.9010 C   0  0  0  0  0  0  0  0  0  0  0  0
  1  2  1  0
  2  3  1  0
  3  4  2  0
  3 33  1  0
  4  5  1  0
  5  6  1  0
  5 17  2  0
  6  7  1  0
  7  8  1  0
  8  9  1  0
  9 10  1  0
  9 16  1  0
 10 11  1  0
 11 12  2  0
 12 13  1  0
 13 14  1  1
 13 16  1  0
 14 15  3  0
 17 18  1  0
 17 32  1  0
 18 19  2  0
 18 20  1  0
 20 21  1  0
 21 22  2  0
 21 23  1  0
 23 24  1  0
 24 25  2  0
 24 30  1  0
 25 26  1  0
 26 27  1  0
 26 28  2  0
 28 29  1  0
 29 30  2  0
 30 31  1  0
 32 33  2  0
 32 37  1  0
 33 34  1  0
 34 35  1  0
 35 36  1  0
 36 37  1  0
M  CHG  1  14   1
M  END
