
     RDKit          3D

 37 40  0  0  0  0  0  0  0  0999 V2000
    8.1540   -1.8430    1.7080 C   0  0  0  0  0  0  0  0  0  0  0  0
    7.1010   -1.4230    1.0670 C   0  0  0  0  0  0  0  0  0  0  0  0
    5.6370   -2.4710    1.0520 S   0  0  0  0  0  0  0  0  0  0  0  0
    7.0760   -0.1300    0.3670 C   0  0  0  0  0  0  0  0  0  0  0  0
    8.1160    0.7430    0.4000 C   0  0  0  0  0  0  0  0  0  0  0  0
    8.0370    1.9460   -0.2800 C   0  0  0  0  0  0  0  0  0  0  0  0
    6.9120    2.2420   -0.9780 C   0  0  0  0  0  0  0  0  0  0  0  0
    5.8370    1.3600   -1.0220 C   0  0  0  0  0  0  0  0  0  0  0  0
    4.7030    1.7440   -1.7690 N   0  0  0  0  0  0  0  0  0  0  0  0
    3.5560    0.9180   -1.8760 C   0  0  0  0  0  0  0  0  0  0  0  0
    2.8510    0.6410   -0.5930 C   0  0  0  0  0  0  0  0  0  0  0  0
    3.0900    1.0050    0.6540 N   0  0  0  0  0  0  0  0  0  0  0  0
    2.2180    0.5380    1.4970 N   0  0  0  0  0  0  0  0  0  0  0  0
    2.1620    0.7220    2.9310 C   0  0  0  0  0  0  0  0  0  0  0  0
    1.3250   -0.1930    0.7750 C   0  0  0  0  0  0  0  0  0  0  0  0
    1.7040   -0.1420   -0.5410 C   0  0  0  0  0  0  0  0  0  0  0  0
    0.9540   -0.8260   -1.6230 C   0  0  0  0  0  0  0  0  0  0  0  0
   -0.4330   -1.0610   -1.1810 N   0  0  0  0  0  0  0  0  0  0  0  0
   -1.1200    0.1690   -0.9670 C   0  0  0  0  0  0  0  0  0  0  0  0
   -2.5630   -0.0740   -0.7720 C   0  0  0  0  0  0  0  0  0  0  0  0
   -3.0380   -1.2200   -0.8180 O   0  0  0  0  0  0  0  0  0  0  0  0
   -3.4780    1.0010   -0.5250 N   0  0  0  0  0  0  0  0  0  0  0  0
   -4.8100    0.7370   -0.3600 N   0  0  0  0  0  0  0  0  0  0  0  0
   -5.4260   -0.0520    0.3710 C   0  0  0  0  0  0  0  0  0  0  0  0
   -6.8400   -0.2780    0.4910 C   0  0  0  0  0  0  0  0  0  0  0  0
   -7.2540   -0.9890    1.6420 C   0  0  0  0  0  0  0  0  0  0  0  0
   -8.5750   -1.1380    1.9970 C   0  0  0  0  0  0  0  0  0  0  0  0
   -9.5390   -0.5760    1.2070 C   0  0  0  0  0  0  0  0  0  0  0  0
  -10.8590   -0.7170    1.5590 F   0  0  0  0  0  0  0  0  0  0  0  0
   -9.1820    0.1120    0.0880 C   0  0  0  0  0  0  0  0  0  0  0  0
   -7.8190    0.2660   -0.2850 C   0  0  0  0  0  0  0  0  0  0  0  0
   -7.5660    0.8300   -1.5790 C   0  0  0  0  0  0  0  0  0  0  0  0
   -6.4460    0.8230   -2.5000 C   0  0  0  0  0  0  0  0  0  0  0  0
   -8.5900    1.5040   -2.0560 O   0  0  0  0  0  0  0  0  0  0  0  0
   -0.3730   -1.7980    0.0770 C   0  0  0  0  0  0  0  0  0  0  0  0
    0.1180   -0.9430    1.2010 C   0  0  0  0  0  0  0  0  0  0  0  0
    5.9690    0.2160   -0.3490 N   0  0  0  0  0  0  0  0  0  0  0  0
  1  2  2  0
  2  3  1  0
  2  4  1  0
  4  5  2  0
  4 37  1  0
  5  6  1  0
  6  7  2  0
  7  8  1  0
  8  9  1  0
  8 37  2  0
  9 10  1  0
 10 11  1  0
 11 12  2  0
 11 16  1  0
 12 13  1  0
 13 14  1  0
 13 15  1  0
 15 16  2  0
 15 36  1  0
 16 17  1  0
 17 18  1  0
 18 19  1  0
 18 35  1  0
 19 20  1  0
 20 21  2  0
 20 22  1  0
 22 23  1  0
 23 24  2  3
 24 25  1  0
 25 26  2  0
 25 31  1  0
 26 27  1  0
 27 28  2  0
 28 29  1  0
 28 30  1  0
 30 31  2  0
 31 32  1  0
 32 33  1  0
 32 34  2  0
 35 36  1  0
M  CHG  1  37   1
M  END
