
     RDKit          3D

 37 40  0  0  0  0  0  0  0  0999 V2000
   -2.0510    3.1370    2.1490 C   0  0  0  0  0  0  0  0  0  0  0  0
   -2.4280    2.2370    1.0320 C   0  0  0  0  0  0  0  0  0  0  0  0
   -3.5800    1.6390    1.0490 C   0  0  0  0  0  0  0  0  0  0  0  0
   -4.4580    1.8880    2.1640 N   0  0  0  0  0  0  0  0  0  0  0  0
   -5.5700    2.6720    1.5480 C   0  0  0  0  0  0  0  0  0  0  0  0
   -6.0980    1.9600    0.3870 C   0  0  0  0  0  0  0  0  0  0  0  0
   -7.3740    2.1260    0.1140 C   0  0  0  0  0  0  0  0  0  0  0  0
   -8.0360    1.4680   -1.0150 C   0  0  0  0  0  0  0  0  0  0  0  0
   -7.2030    0.5560   -1.7970 C   0  0  0  0  0  0  0  0  0  0  0  0
   -5.9010    0.3470   -1.5430 C   0  0  0  0  0  0  0  0  0  0  0  0
   -5.3110    1.0610   -0.4340 C   0  0  0  0  0  0  0  0  0  0  0  0
   -4.0290    0.8270   -0.0580 C   0  0  0  0  0  0  0  0  0  0  0  0
   -3.2380   -0.1080   -0.7070 N   0  0  0  0  0  0  0  0  0  0  0  0
   -1.9250   -0.5320   -0.4430 C   0  0  0  0  0  0  0  0  0  0  0  0
   -1.2840   -0.1040    0.4980 O   0  0  0  0  0  0  0  0  0  0  0  0
   -1.2380   -1.5460   -1.3210 C   0  0  0  0  0  0  0  0  0  0  0  0
    0.0550   -1.8090   -0.8680 O   0  0  0  0  0  0  0  0  0  0  0  0
    0.9210   -2.7030   -1.4840 C   0  0  0  0  0  0  0  0  0  0  0  0
    2.2300   -2.5140   -1.5200 C   0  0  0  0  0  0  0  0  0  0  0  0
    2.8570   -1.3620   -0.9200 C   0  0  0  0  0  0  0  0  0  0  0  0
    2.2580   -0.1230   -0.9950 C   0  0  0  0  0  0  0  0  0  0  0  0
    2.9210    0.9290   -0.3930 C   0  0  0  0  0  0  0  0  0  0  0  0
    4.1290    0.7660    0.2580 C   0  0  0  0  0  0  0  0  0  0  0  0
    4.7930    1.8220    0.8620 O   0  0  0  0  0  0  0  0  0  0  0  0
    4.3270    3.1290    0.8770 C   0  0  0  0  0  0  0  0  0  0  0  0
    5.1740    4.1310    1.5710 C   0  0  0  0  0  0  0  0  0  0  0  0
    5.4180    3.9320    2.9000 O   0  0  0  0  0  0  0  0  0  0  0  0
    6.0620    2.7660    3.2410 C   0  0  0  0  0  0  0  0  0  0  0  0
    4.7200   -0.4870    0.3260 C   0  0  0  0  0  0  0  0  0  0  0  0
    6.0140   -0.6840    1.0210 C   0  0  0  0  0  0  0  0  0  0  0  0
    4.0760   -1.5490   -0.2670 C   0  0  0  0  0  0  0  0  0  0  0  0
    3.0490   -3.5100   -2.1920 C   0  0  0  0  0  0  0  0  0  0  0  0
    4.2610   -3.2730   -2.5270 O   0  0  0  0  0  0  0  0  0  0  0  0
    2.5480   -4.8530   -2.5350 C   0  0  0  0  0  0  0  0  0  0  0  0
    1.1590   -5.1110   -2.0580 C   0  0  1  0  0  0  0  0  0  0  0  0
    1.2410   -5.7180   -0.6760 C   0  0  0  0  0  0  0  0  0  0  0  0
    0.2740   -3.8950   -2.1050 C   0  0  0  0  0  0  0  0  0  0  0  0
  1  2  1  0
  2  3  2  3
  3  4  1  0
  3 12  1  0
  4  5  1  0
  5  6  1  0
  6  7  2  0
  6 11  1  0
  7  8  1  0
  8  9  1  0
  9 10  2  0
 10 11  1  0
 11 12  2  0
 12 13  1  0
 13 14  1  0
 14 15  2  0
 14 16  1  0
 16 17  1  0
 17 18  1  0
 18 19  2  0
 18 37  1  0
 19 20  1  0
 19 32  1  0
 20 21  2  0
 20 31  1  0
 21 22  1  0
 22 23  2  0
 23 24  1  0
 23 29  1  0
 24 25  1  0
 25 26  1  0
 26 27  1  0
 27 28  1  0
 29 30  1  0
 29 31  2  0
 32 33  2  0
 32 34  1  0
 34 35  1  0
 35 36  1  1
 35 37  1  0
M  CHG  1   4   1
M  END
