
     RDKit          3D

 36 39  0  0  0  0  0  0  0  0999 V2000
   11.8530   -1.5360    0.5990 C   0  0  0  0  0  0  0  0  0  0  0  0
   10.8310   -1.0120    0.2230 C   0  0  0  0  0  0  0  0  0  0  0  0
    9.5910   -0.5590    0.8340 C   0  0  0  0  0  0  0  0  0  0  0  0
    8.4590   -1.2920    0.3050 O   0  0  0  0  0  0  0  0  0  0  0  0
    7.1910   -0.6770    0.4360 C   0  0  0  0  0  0  0  0  0  0  0  0
    6.9860    0.5210    1.0430 C   0  0  0  0  0  0  0  0  0  0  0  0
    5.6780    1.0550    1.1110 C   0  0  0  0  0  0  0  0  0  0  0  0
    5.5190    2.3760    1.7570 C   0  0  0  0  0  0  0  0  0  0  0  0
    4.6050    0.4240    0.5970 C   0  0  0  0  0  0  0  0  0  0  0  0
    3.2930    0.9280    0.6530 O   0  0  0  0  0  0  0  0  0  0  0  0
    2.2480    0.1590    0.0840 C   0  0  0  0  0  0  0  0  0  0  0  0
    0.9190    0.7700    0.2370 C   0  0  0  0  0  0  0  0  0  0  0  0
    0.4230    1.6570   -0.6720 C   0  0  0  0  0  0  0  0  0  0  0  0
   -0.8230    2.2270   -0.5260 C   0  0  0  0  0  0  0  0  0  0  0  0
   -1.6290    1.9250    0.5480 C   0  0  0  0  0  0  0  0  0  0  0  0
   -2.9640    2.5300    0.6940 C   0  0  0  0  0  0  0  0  0  0  0  0
   -4.0700    1.6650    0.2230 C   0  0  0  0  0  0  0  0  0  0  0  0
   -4.8300    0.9640    1.1420 C   0  0  0  0  0  0  0  0  0  0  0  0
   -5.8390    0.1640    0.6850 C   0  0  0  0  0  0  0  0  0  0  0  0
   -6.1260    0.0320   -0.6670 C   0  0  0  0  0  0  0  0  0  0  0  0
   -5.3680    0.7310   -1.5610 C   0  0  0  0  0  0  0  0  0  0  0  0
   -4.3420    1.5480   -1.1500 C   0  0  0  0  0  0  0  0  0  0  0  0
   -3.5500    2.2790   -2.0040 O   0  0  0  0  0  0  0  0  0  0  0  0
   -3.6880    2.2670   -3.3880 C   0  0  0  0  0  0  0  0  0  0  0  0
   -7.1740   -0.8180   -1.3440 C   0  0  0  0  0  0  0  0  0  0  0  0
   -7.5310   -1.9190   -0.3600 C   0  0  2  0  0  0  0  0  0  0  0  0
   -8.0350   -3.1020   -1.0160 N   0  0  0  0  0  0  0  0  0  0  0  0
   -8.5550   -1.4180    0.6340 C   0  0  0  0  0  0  0  0  0  0  0  0
   -8.0430   -0.4050    1.4980 N   0  0  0  0  0  0  0  0  0  0  0  0
   -6.6230   -0.5200    1.7660 C   0  0  0  0  0  0  0  0  0  0  0  0
   -1.1260    1.0230    1.4710 C   0  0  0  0  0  0  0  0  0  0  0  0
    0.1410    0.4460    1.3230 C   0  0  0  0  0  0  0  0  0  0  0  0
    4.8040   -0.8200   -0.0320 C   0  0  0  0  0  0  0  0  0  0  0  0
    6.0800   -1.3400   -0.1010 C   0  0  0  0  0  0  0  0  0  0  0  0
    6.3380   -2.5430   -0.7060 O   0  0  0  0  0  0  0  0  0  0  0  0
    5.4630   -3.4180   -1.3300 C   0  0  0  0  0  0  0  0  0  0  0  0
  1  2  2  0
  2  3  1  0
  3  4  1  0
  4  5  1  0
  5  6  2  0
  5 34  1  0
  6  7  1  0
  7  8  1  0
  7  9  2  0
  9 10  1  0
  9 33  1  0
 10 11  1  0
 11 12  1  0
 12 13  2  0
 12 32  1  0
 13 14  1  0
 14 15  2  0
 15 16  1  0
 15 31  1  0
 16 17  1  0
 17 18  2  0
 17 22  1  0
 18 19  1  0
 19 20  2  0
 19 30  1  0
 20 21  1  0
 20 25  1  0
 21 22  2  0
 22 23  1  0
 23 24  1  0
 25 26  1  0
 26 27  1  6
 26 28  1  0
 28 29  1  0
 29 30  1  0
 31 32  2  0
 33 34  2  0
 34 35  1  0
 35 36  1  0
M  CHG  1  29   1
M  END
