
     RDKit          3D

 37 40  0  0  0  0  0  0  0  0999 V2000
   -4.7660   -3.3490    0.4040 C   0  0  0  0  0  0  0  0  0  0  0  0
   -3.7160   -3.8480   -0.1030 C   0  0  0  0  0  0  0  0  0  0  0  0
   -2.3700   -3.4930   -0.4360 C   0  0  0  0  0  0  0  0  0  0  0  0
   -1.7270   -4.5940   -1.0540 C   0  0  0  0  0  0  0  0  0  0  0  0
   -0.3460   -4.5270   -1.5020 C   0  0  0  0  0  0  0  0  0  0  0  0
   -1.6100   -2.3350   -0.3820 C   0  0  0  0  0  0  0  0  0  0  0  0
   -1.5660   -1.0960    0.0650 C   0  0  0  0  0  0  0  0  0  0  0  0
   -2.6790   -0.5540    0.8650 C   0  0  0  0  0  0  0  0  0  0  0  0
   -2.2180    0.0160    2.1510 N   0  0  0  0  0  0  0  0  0  0  0  0
   -3.0210    1.1570    2.5380 C   0  0  0  0  0  0  0  0  0  0  0  0
   -0.2710   -0.3490   -0.1410 C   0  0  0  0  0  0  0  0  0  0  0  0
    0.6580   -1.1600   -0.5840 N   0  0  0  0  0  0  0  0  0  0  0  0
    1.9700   -0.9430   -0.9160 C   0  0  0  0  0  0  0  0  0  0  0  0
    2.3510    0.1180   -1.7450 C   0  0  0  0  0  0  0  0  0  0  0  0
    3.6780    0.2910   -2.0700 C   0  0  0  0  0  0  0  0  0  0  0  0
    4.6310   -0.5940   -1.5690 C   0  0  0  0  0  0  0  0  0  0  0  0
    4.2890   -1.6440   -0.7540 C   0  0  0  0  0  0  0  0  0  0  0  0
    2.9590   -1.8080   -0.4350 C   0  0  0  0  0  0  0  0  0  0  0  0
    5.2690   -2.5170   -0.2660 O   0  0  0  0  0  0  0  0  0  0  0  0
    6.5390   -2.4780   -0.9120 C   0  0  0  0  0  0  0  0  0  0  0  0
    6.9480   -1.0160   -1.0810 C   0  0  0  0  0  0  0  0  0  0  0  0
    5.9620   -0.4160   -1.8980 O   0  0  0  0  0  0  0  0  0  0  0  0
    0.0660    0.9760    0.2250 C   0  0  0  0  0  0  0  0  0  0  0  0
    1.2760    1.1970    0.9480 C   0  0  0  0  0  0  0  0  0  0  0  0
    1.5840    2.3750    1.5670 C   0  0  0  0  0  0  0  0  0  0  0  0
    2.8500    2.5510    2.3010 C   0  0  0  0  0  0  0  0  0  0  0  0
    3.6600    1.6070    2.3590 O   0  0  0  0  0  0  0  0  0  0  0  0
    3.1610    3.7440    2.9290 O   0  0  0  0  0  0  0  0  0  0  0  0
    0.6870    3.4120    1.4990 C   0  0  0  0  0  0  0  0  0  0  0  0
   -0.5070    3.2160    0.7890 C   0  0  0  0  0  0  0  0  0  0  0  0
   -1.3540    4.3070    0.6780 C   0  0  0  0  0  0  0  0  0  0  0  0
   -2.5110    4.2250   -0.0640 C   0  0  0  0  0  0  0  0  0  0  0  0
   -2.8110    3.0380   -0.6970 C   0  0  0  0  0  0  0  0  0  0  0  0
   -3.9530    2.8720   -1.4670 O   0  0  0  0  0  0  0  0  0  0  0  0
   -4.9050    3.8840   -1.6750 C   0  0  0  0  0  0  0  0  0  0  0  0
   -1.9830    1.9480   -0.5960 C   0  0  0  0  0  0  0  0  0  0  0  0
   -0.8100    2.0340    0.1670 C   0  0  0  0  0  0  0  0  0  0  0  0
  1  2  2  0
  2  3  1  0
  3  4  2  3
  3  6  1  0
  4  5  1  0
  6  7  2  3
  7  8  1  0
  7 11  1  0
  8  9  1  0
  9 10  1  0
 11 12  2  3
 11 23  1  0
 12 13  1  0
 13 14  2  0
 13 18  1  0
 14 15  1  0
 15 16  2  0
 16 17  1  0
 16 22  1  0
 17 18  2  0
 17 19  1  0
 19 20  1  0
 20 21  1  0
 21 22  1  0
 23 24  2  0
 23 37  1  0
 24 25  1  0
 25 26  1  0
 25 29  2  0
 26 27  2  0
 26 28  1  0
 29 30  1  0
 30 31  2  0
 30 37  1  0
 31 32  1  0
 32 33  2  0
 33 34  1  0
 33 36  1  0
 34 35  1  0
 36 37  2  0
M  CHG  1   9   1
M  END
