
     RDKit          3D

 37 40  0  0  0  0  0  0  0  0999 V2000
    8.3020    0.0010    3.0470 C   0  0  0  0  0  0  0  0  0  0  0  0
    7.6950    0.9540    2.0650 C   0  0  0  0  0  0  0  0  0  0  0  0
    7.0450    0.1860    0.9560 C   0  0  0  0  0  0  0  0  0  0  0  0
    5.6510    0.0650    0.9240 C   0  0  0  0  0  0  0  0  0  0  0  0
    4.9760   -0.6170   -0.0500 C   0  0  0  0  0  0  0  0  0  0  0  0
    3.5460   -0.7730   -0.1150 C   0  0  0  0  0  0  0  0  0  0  0  0
    3.0360   -1.3920   -1.0860 O   0  0  0  0  0  0  0  0  0  0  0  0
    2.6330   -0.2440    0.9010 C   0  0  2  0  0  0  0  0  0  0  0  0
    2.6940   -1.0290    2.2000 C   0  0  0  0  0  0  0  0  0  0  0  0
    1.2310   -0.3560    0.4600 N   0  0  0  0  0  0  0  0  0  0  0  0
    0.7510    0.9450    0.0240 C   0  0  0  0  0  0  0  0  0  0  0  0
   -0.6700    0.9220   -0.3430 C   0  0  0  0  0  0  0  0  0  0  0  0
   -1.3930   -0.2340   -0.2590 C   0  0  0  0  0  0  0  0  0  0  0  0
   -2.7480   -0.2420   -0.6120 C   0  0  0  0  0  0  0  0  0  0  0  0
   -3.3550    0.9170   -1.0450 C   0  0  0  0  0  0  0  0  0  0  0  0
   -4.7370    0.9630   -1.4180 N   0  0  0  0  0  0  0  0  0  0  0  0
   -5.0870    1.5970   -2.5500 C   0  0  0  0  0  0  0  0  0  0  0  0
   -6.4250    1.6240   -2.8820 C   0  0  0  0  0  0  0  0  0  0  0  0
   -7.3790    1.0140   -2.0670 C   0  0  0  0  0  0  0  0  0  0  0  0
   -6.9950    0.3720   -0.9120 C   0  0  0  0  0  0  0  0  0  0  0  0
   -7.9710   -0.2770   -0.0380 C   0  0  0  0  0  0  0  0  0  0  0  0
   -9.3380   -0.3530   -0.2030 C   0  0  0  0  0  0  0  0  0  0  0  0
   -9.8770   -1.0560    0.8560 C   0  0  0  0  0  0  0  0  0  0  0  0
  -11.2230   -1.3750    1.1000 O   0  0  0  0  0  0  0  0  0  0  0  0
  -12.2030   -0.9460    0.1740 C   0  0  0  0  0  0  0  0  0  0  0  0
   -8.7900   -1.3860    1.6410 C   0  0  0  0  0  0  0  0  0  0  0  0
   -7.6990   -0.9090    1.0770 O   0  0  0  0  0  0  0  0  0  0  0  0
   -5.6520    0.3590   -0.6050 C   0  0  0  0  0  0  0  0  0  0  0  0
   -5.2940   -0.2300    0.4560 O   0  0  0  0  0  0  0  0  0  0  0  0
   -2.6380    2.0670   -1.1300 C   0  0  0  0  0  0  0  0  0  0  0  0
   -1.2910    2.0700   -0.7780 C   0  0  0  0  0  0  0  0  0  0  0  0
   -0.6050    3.2660   -0.8810 O   0  0  0  0  0  0  0  0  0  0  0  0
    5.7770   -1.2020   -1.0380 C   0  0  0  0  0  0  0  0  0  0  0  0
    7.1500   -1.0960   -1.0270 C   0  0  0  0  0  0  0  0  0  0  0  0
    8.0100   -1.7160   -2.0750 C   0  0  0  0  0  0  0  0  0  0  0  0
    7.7990   -0.3950   -0.0220 C   0  0  0  0  0  0  0  0  0  0  0  0
    9.2800   -0.2870   -0.0180 C   0  0  0  0  0  0  0  0  0  0  0  0
  1  2  1  0
  2  3  1  0
  3  4  2  0
  3 36  1  0
  4  5  1  0
  5  6  1  0
  5 33  2  0
  6  7  2  0
  6  8  1  0
  8  9  1  1
  8 10  1  0
 10 11  1  0
 11 12  1  0
 12 13  2  0
 12 31  1  0
 13 14  1  0
 14 15  2  0
 15 16  1  0
 15 30  1  0
 16 17  1  0
 16 28  1  0
 17 18  2  0
 18 19  1  0
 19 20  2  0
 20 21  1  0
 20 28  1  0
 21 22  2  0
 21 27  1  0
 22 23  1  0
 23 24  1  0
 23 26  2  0
 24 25  1  0
 26 27  1  0
 28 29  2  0
 30 31  2  0
 31 32  1  0
 33 34  1  0
 34 35  1  0
 34 36  2  0
 36 37  1  0
M  CHG  1  10   1
M  END
