
     RDKit          3D

 37 40  0  0  0  0  0  0  0  0999 V2000
   -5.4410    2.8350    2.2540 C   0  0  0  0  0  0  0  0  0  0  0  0
   -4.4880    1.5700    1.3810 S   0  0  1  0  0  0  0  0  0  0  0  0
   -3.3550    2.3070    0.7740 O   0  0  0  0  0  0  0  0  0  0  0  0
   -3.9290    0.5900    2.3910 O   0  0  0  0  0  0  0  0  0  0  0  0
   -5.5640    0.7910    0.2670 C   0  0  0  0  0  0  0  0  0  0  0  0
   -6.8850    1.2160    0.1970 C   0  0  0  0  0  0  0  0  0  0  0  0
   -7.8190    0.6370   -0.6350 C   0  0  0  0  0  0  0  0  0  0  0  0
   -7.4030   -0.4080   -1.4240 C   0  0  0  0  0  0  0  0  0  0  0  0
   -6.0990   -0.8520   -1.3770 C   0  0  0  0  0  0  0  0  0  0  0  0
   -5.1630   -0.2420   -0.5170 C   0  0  0  0  0  0  0  0  0  0  0  0
   -3.7840   -0.6940   -0.4980 C   0  0  0  0  0  0  0  0  0  0  0  0
   -2.7350    0.0820   -0.9270 C   0  0  0  0  0  0  0  0  0  0  0  0
   -1.4100   -0.3840   -0.8350 C   0  0  0  0  0  0  0  0  0  0  0  0
   -1.0770   -1.6060   -0.3310 C   0  0  0  0  0  0  0  0  0  0  0  0
    0.2420   -2.1290   -0.2600 N   0  0  0  0  0  0  0  0  0  0  0  0
    1.4430   -1.4000   -0.3530 C   0  0  0  0  0  0  0  0  0  0  0  0
    1.3710   -0.1510   -0.4880 O   0  0  0  0  0  0  0  0  0  0  0  0
    2.7570   -2.0610   -0.2940 C   0  0  0  0  0  0  0  0  0  0  0  0
    3.1230   -3.3640   -0.4410 C   0  0  0  0  0  0  0  0  0  0  0  0
    4.4910   -3.4840   -0.2660 C   0  0  0  0  0  0  0  0  0  0  0  0
    5.3010   -4.7310   -0.3320 C   0  0  1  0  0  0  0  0  0  0  0  0
    6.6240   -4.3750   -0.1750 F   0  0  0  0  0  0  0  0  0  0  0  0
    5.0070   -5.5910    0.7260 F   0  0  0  0  0  0  0  0  0  0  0  0
    5.1620   -5.4010   -1.5380 F   0  0  0  0  0  0  0  0  0  0  0  0
    4.9180   -2.2150   -0.0110 N   0  0  0  0  0  0  0  0  0  0  0  0
    3.9010   -1.3780   -0.0260 N   0  0  0  0  0  0  0  0  0  0  0  0
    3.9680    0.0170    0.2420 C   0  0  0  0  0  0  0  0  0  0  0  0
    3.4920    0.4930    1.4770 C   0  0  0  0  0  0  0  0  0  0  0  0
    3.5010    1.8120    1.8320 C   0  0  0  0  0  0  0  0  0  0  0  0
    4.0020    2.7230    0.9340 C   0  0  0  0  0  0  0  0  0  0  0  0
    4.4760    2.3090   -0.2770 C   0  0  0  0  0  0  0  0  0  0  0  0
    5.0260    3.2930   -1.2300 C   0  0  0  0  0  0  0  0  0  0  0  0
    6.4720    3.0430   -1.3490 N   0  0  0  0  0  0  0  0  0  0  0  0
    4.4600    0.9610   -0.6250 C   0  0  0  0  0  0  0  0  0  0  0  0
   -2.1530   -2.4040    0.1060 C   0  0  0  0  0  0  0  0  0  0  0  0
   -1.8350   -3.6250    0.6060 F   0  0  0  0  0  0  0  0  0  0  0  0
   -3.4490   -1.9330    0.0120 C   0  0  0  0  0  0  0  0  0  0  0  0
  2  1  1  1
  2  3  2  0
  2  4  2  0
  2  5  1  0
  5  6  2  0
  5 10  1  0
  6  7  1  0
  7  8  2  0
  8  9  1  0
  9 10  2  0
 10 11  1  0
 11 12  2  0
 11 37  1  0
 12 13  1  0
 13 14  2  0
 14 15  1  0
 14 35  1  0
 15 16  1  0
 16 17  2  0
 16 18  1  0
 18 19  2  0
 18 26  1  0
 19 20  1  0
 20 21  1  0
 20 25  2  0
 21 22  1  1
 21 23  1  0
 21 24  1  0
 25 26  1  0
 26 27  1  0
 27 28  2  0
 27 34  1  0
 28 29  1  0
 29 30  2  0
 30 31  1  0
 31 32  1  0
 31 34  2  0
 32 33  1  0
 35 36  1  0
 35 37  2  0
M  CHG  1  33   1
M  END
