
     RDKit          3D

 37 40  0  0  0  0  0  0  0  0999 V2000
    7.7810    1.1270   -1.3460 N   0  0  0  0  0  0  0  0  0  0  0  0
    6.1000    0.8620   -0.9020 S   0  0  1  0  0  0  0  0  0  0  0  0
    5.5850    2.0930   -0.2450 O   0  0  0  0  0  0  0  0  0  0  0  0
    5.3860    0.6060   -2.2160 O   0  0  0  0  0  0  0  0  0  0  0  0
    6.0430   -0.5430    0.1190 C   0  0  0  0  0  0  0  0  0  0  0  0
    7.2370   -1.1980    0.4320 C   0  0  0  0  0  0  0  0  0  0  0  0
    7.2710   -2.3400    1.1910 C   0  0  0  0  0  0  0  0  0  0  0  0
    6.0980   -2.8810    1.6740 C   0  0  0  0  0  0  0  0  0  0  0  0
    4.9160   -2.2700    1.3900 C   0  0  0  0  0  0  0  0  0  0  0  0
    4.8910   -1.0900    0.6050 C   0  0  0  0  0  0  0  0  0  0  0  0
    3.6030   -0.4730    0.3570 C   0  0  0  0  0  0  0  0  0  0  0  0
    2.6540   -1.1560   -0.3700 C   0  0  0  0  0  0  0  0  0  0  0  0
    1.3760   -0.6010   -0.5940 C   0  0  0  0  0  0  0  0  0  0  0  0
    1.0520    0.6230   -0.0980 C   0  0  0  0  0  0  0  0  0  0  0  0
   -0.2000    1.2490   -0.3450 N   0  0  0  0  0  0  0  0  0  0  0  0
   -1.3860    0.5860   -0.7410 C   0  0  0  0  0  0  0  0  0  0  0  0
   -1.3980   -0.6540   -0.8750 O   0  0  0  0  0  0  0  0  0  0  0  0
   -2.6390    1.3330   -1.0030 C   0  0  0  0  0  0  0  0  0  0  0  0
   -2.6800    2.7040   -1.1650 C   0  0  0  0  0  0  0  0  0  0  0  0
   -4.0060    3.0170   -1.3760 C   0  0  0  0  0  0  0  0  0  0  0  0
   -4.5720    4.3940   -1.6150 C   0  0  1  0  0  0  0  0  0  0  0  0
   -5.9440    4.2600   -1.7210 F   0  0  0  0  0  0  0  0  0  0  0  0
   -4.2040    5.2900   -0.6590 F   0  0  0  0  0  0  0  0  0  0  0  0
   -4.1550    4.7660   -2.9020 F   0  0  0  0  0  0  0  0  0  0  0  0
   -4.6770    1.8630   -1.3310 N   0  0  0  0  0  0  0  0  0  0  0  0
   -3.8710    0.8210   -1.1050 N   0  0  0  0  0  0  0  0  0  0  0  0
   -4.2590   -0.5420   -0.9740 C   0  0  0  0  0  0  0  0  0  0  0  0
   -4.1020   -1.5030   -1.9300 C   0  0  0  0  0  0  0  0  0  0  0  0
   -4.5130   -2.8080   -1.7440 C   0  0  0  0  0  0  0  0  0  0  0  0
   -5.1060   -3.2020   -0.5700 C   0  0  0  0  0  0  0  0  0  0  0  0
   -5.2750   -2.2400    0.4170 C   0  0  0  0  0  0  0  0  0  0  0  0
   -4.8620   -0.9470    0.2160 C   0  0  0  0  0  0  0  0  0  0  0  0
   -5.0370    0.0490    1.2860 C   0  0  0  0  0  0  0  0  0  0  0  0
   -5.6940   -0.5230    2.4350 N   0  0  0  0  0  0  0  0  0  0  0  0
    2.0180    1.3250    0.6460 C   0  0  0  0  0  0  0  0  0  0  0  0
    1.6700    2.5290    1.1300 F   0  0  0  0  0  0  0  0  0  0  0  0
    3.2730    0.7490    0.8520 C   0  0  0  0  0  0  0  0  0  0  0  0
  2  1  1  6
  2  3  2  0
  2  4  2  0
  2  5  1  0
  5  6  2  0
  5 10  1  0
  6  7  1  0
  7  8  2  0
  8  9  1  0
  9 10  2  0
 10 11  1  0
 11 12  2  0
 11 37  1  0
 12 13  1  0
 13 14  2  0
 14 15  1  0
 14 35  1  0
 15 16  1  0
 16 17  2  0
 16 18  1  0
 18 19  2  0
 18 26  1  0
 19 20  1  0
 20 21  1  0
 20 25  2  0
 21 22  1  6
 21 23  1  0
 21 24  1  0
 25 26  1  0
 26 27  1  0
 27 28  2  0
 27 32  1  0
 28 29  1  0
 29 30  2  0
 30 31  1  0
 31 32  2  0
 32 33  1  0
 33 34  1  0
 35 36  1  0
 35 37  2  0
M  CHG  1  34   1
M  END
