
     RDKit          3D

 37 40  0  0  0  0  0  0  0  0999 V2000
    6.7570    5.1680   -0.1130 C   0  0  0  0  0  0  0  0  0  0  0  0
    5.7150    5.7920   -0.9530 N   0  0  0  0  0  0  0  0  0  0  0  0
    4.4670    5.4590   -0.3850 N   0  0  0  0  0  0  0  0  0  0  0  0
    4.1970    4.0530   -0.1980 C   0  0  0  0  0  0  0  0  0  0  0  0
    4.9830    3.1330   -0.5040 O   0  0  0  0  0  0  0  0  0  0  0  0
    2.9670    3.7110    0.3380 N   0  0  0  0  0  0  0  0  0  0  0  0
    2.2840    2.4450    0.4460 C   0  0  0  0  0  0  0  0  0  0  0  0
    0.9820    2.5840    0.9480 C   0  0  0  0  0  0  0  0  0  0  0  0
    0.0840    1.5600    0.7660 C   0  0  0  0  0  0  0  0  0  0  0  0
    0.4180    0.4170    0.1190 C   0  0  0  0  0  0  0  0  0  0  0  0
   -0.5980   -0.5500   -0.2380 N   0  0  0  0  0  0  0  0  0  0  0  0
   -1.9180   -0.3900    0.2310 C   0  0  0  0  0  0  0  0  0  0  0  0
   -2.2410    0.4550    1.1110 O   0  0  0  0  0  0  0  0  0  0  0  0
   -3.0290   -1.1400   -0.2560 N   0  0  0  0  0  0  0  0  0  0  0  0
   -4.3280   -0.8320    0.3040 C   0  0  2  0  0  0  0  0  0  0  0  0
   -5.3540   -1.8620    0.0810 C   0  0  0  0  0  0  0  0  0  0  0  0
   -6.7570   -1.3280    0.4050 C   0  0  2  0  0  0  0  0  0  0  0  0
   -7.0680   -0.3330   -0.6910 C   0  0  0  0  0  0  0  0  0  0  0  0
   -5.8430    0.3590   -1.2480 C   0  0  0  0  0  0  0  0  0  0  0  0
   -4.8520    0.5430   -0.1190 C   0  0  1  0  0  0  0  0  0  0  0  0
   -5.9090    1.0290    1.2780 S   0  0  2  0  0  0  0  0  0  0  0  0
   -6.8710    2.0830    0.8850 O   0  0  0  0  0  0  0  0  0  0  0  0
   -5.0530    1.5390    2.3920 O   0  0  0  0  0  0  0  0  0  0  0  0
   -6.6960   -0.5170    1.7150 C   0  0  0  0  0  0  0  0  0  0  0  0
    1.7420    0.2620   -0.3710 C   0  0  0  0  0  0  0  0  0  0  0  0
    1.9240   -0.8620   -1.2420 C   0  0  0  0  0  0  0  0  0  0  0  0
    2.9480   -1.8630   -1.0130 N   0  0  0  0  0  0  0  0  0  0  0  0
    2.7210   -2.7070    0.1670 C   0  0  0  0  0  0  0  0  0  0  0  0
    1.6820   -2.3870    0.8490 O   0  0  0  0  0  0  0  0  0  0  0  0
    3.5000   -3.8160    0.5870 C   0  0  2  0  0  0  0  0  0  0  0  0
    5.2840   -3.6170    0.7570 S   0  0  0  0  0  0  0  0  0  0  0  0
    5.7100   -5.2650    0.1750 C   0  0  0  0  0  0  0  0  0  0  0  0
    6.9400   -5.9030    0.3240 N   0  0  0  0  0  0  0  0  0  0  0  0
    4.6670   -5.7070   -0.3960 N   0  0  0  0  0  0  0  0  0  0  0  0
    3.5370   -4.9330   -0.4530 C   0  0  0  0  0  0  0  0  0  0  0  0
    2.5420   -5.0160   -1.2420 O   0  0  0  0  0  0  0  0  0  0  0  0
    2.6180    1.3070   -0.1730 N   0  0  0  0  0  0  0  0  0  0  0  0
  1  2  1  0
  2  3  1  0
  3  4  1  0
  4  5  2  0
  4  6  1  0
  6  7  1  0
  7  8  2  0
  7 37  1  0
  8  9  1  0
  9 10  2  0
 10 11  1  0
 10 25  1  0
 11 12  1  0
 12 13  2  0
 12 14  1  0
 15 14  1  6
 15 16  1  0
 15 20  1  0
 16 17  1  0
 17 18  1  6
 17 24  1  0
 18 19  1  0
 20 19  1  6
 20 21  1  0
 21 22  2  0
 21 23  2  0
 21 24  1  1
 25 26  1  0
 25 37  2  0
 26 27  1  0
 27 28  1  0
 28 29  2  0
 30 28  1  6
 30 31  1  0
 30 35  1  0
 31 32  1  0
 32 33  1  0
 32 34  2  0
 34 35  1  0
 35 36  2  0
M  END
