
     RDKit          3D

 34 37  0  0  0  0  0  0  0  0999 V2000
    8.2250   -0.7250    0.8300 C   0  0  0  0  0  0  0  0  0  0  0  0
    6.8280   -0.7400    0.3450 C   0  0  0  0  0  0  0  0  0  0  0  0
    6.0980    0.4170    0.2670 C   0  0  0  0  0  0  0  0  0  0  0  0
    4.7730    0.3410   -0.2020 C   0  0  0  0  0  0  0  0  0  0  0  0
    4.1970   -0.8390   -0.5790 C   0  0  0  0  0  0  0  0  0  0  0  0
    2.8040   -0.8820   -1.0690 C   0  0  0  0  0  0  0  0  0  0  0  0
    2.1840    0.3870   -1.0900 N   0  0  0  0  0  0  0  0  0  0  0  0
    1.7000    0.8160    0.2410 C   0  0  0  0  0  0  0  0  0  0  0  0
    0.3970    0.2300    0.5200 C   0  0  0  0  0  0  0  0  0  0  0  0
   -0.7260    0.7570    0.8280 C   0  0  0  0  0  0  0  0  0  0  0  0
   -1.8110   -0.2220    1.0120 N   0  0  0  0  0  0  0  0  0  0  0  0
   -2.5700   -0.6560   -0.1400 C   0  0  0  0  0  0  0  0  0  0  0  0
   -2.1870   -0.3540   -1.3130 N   0  0  0  0  0  0  0  0  0  0  0  0
   -3.3020   -1.0190   -2.4280 S   0  0  1  0  0  0  0  0  0  0  0  0
   -3.9950    0.0680   -3.1820 O   0  0  0  0  0  0  0  0  0  0  0  0
   -2.6840   -2.0410   -3.3230 O   0  0  0  0  0  0  0  0  0  0  0  0
   -4.3620   -1.7590   -1.2360 C   0  0  0  0  0  0  0  0  0  0  0  0
   -5.5070   -2.4910   -1.3730 C   0  0  0  0  0  0  0  0  0  0  0  0
   -6.1450   -2.9570   -0.2500 C   0  0  0  0  0  0  0  0  0  0  0  0
   -7.3360   -3.7200   -0.3750 N   0  0  0  0  0  0  0  0  0  0  0  0
   -5.6010   -2.6650    0.9960 C   0  0  0  0  0  0  0  0  0  0  0  0
   -4.4500   -1.9280    1.1090 C   0  0  0  0  0  0  0  0  0  0  0  0
   -3.7800   -1.4410   -0.0360 C   0  0  0  0  0  0  0  0  0  0  0  0
   -1.1090    2.1240    1.1590 C   0  0  0  0  0  0  0  0  0  0  0  0
   -2.4770    2.4560    1.1220 C   0  0  0  0  0  0  0  0  0  0  0  0
   -2.9650    3.6860    1.4720 C   0  0  0  0  0  0  0  0  0  0  0  0
   -2.0820    4.6520    1.8820 C   0  0  0  0  0  0  0  0  0  0  0  0
   -2.6210    5.9420    2.2470 C   0  0  0  0  0  0  0  0  0  0  0  0
   -3.0380    6.9750    2.5520 N   0  0  0  0  0  0  0  0  0  0  0  0
   -0.7480    4.3720    1.9330 C   0  0  0  0  0  0  0  0  0  0  0  0
   -0.2640    3.1150    1.5750 C   0  0  0  0  0  0  0  0  0  0  0  0
    4.9620   -1.9970   -0.4890 C   0  0  0  0  0  0  0  0  0  0  0  0
    4.2090   -3.4900   -0.9740 Cl  0  0  0  0  0  0  0  0  0  0  0  0
    6.2520   -1.9320   -0.0330 C   0  0  0  0  0  0  0  0  0  0  0  0
  1  2  1  0
  2  3  2  0
  2 34  1  0
  3  4  1  0
  4  5  2  0
  5  6  1  0
  5 32  1  0
  6  7  1  0
  7  8  1  0
  8  9  1  0
  9 10  2  3
 10 11  1  0
 10 24  1  0
 11 12  1  0
 12 13  2  0
 12 23  1  0
 14 13  1  1
 14 15  2  0
 14 16  2  0
 14 17  1  0
 17 18  2  0
 17 23  1  0
 18 19  1  0
 19 20  1  0
 19 21  2  0
 21 22  1  0
 22 23  2  0
 24 25  2  0
 24 31  1  0
 25 26  1  0
 26 27  2  0
 27 28  1  0
 27 30  1  0
 28 29  3  0
 30 31  2  0
 32 33  1  0
 32 34  2  0
M  CHG  1   7   1
M  END
