
     RDKit          3D

 32 33  0  0  0  0  0  0  0  0999 V2000
    2.0070   -4.5700    0.6730 C   0  0  0  0  0  0  0  0  0  0  0  0
    2.5650   -3.4740    0.0160 O   0  0  0  0  0  0  0  0  0  0  0  0
    1.6180   -2.4120   -0.0370 C   0  0  2  0  0  0  0  0  0  0  0  0
    1.4360   -2.2260   -1.4220 O   0  0  0  0  0  0  0  0  0  0  0  0
    2.2670   -1.2500    0.6050 C   0  0  2  0  0  0  0  0  0  0  0  0
    2.6420   -1.6220    1.9260 O   0  0  0  0  0  0  0  0  0  0  0  0
    1.5330    0.0470    0.6220 C   0  0  2  0  0  0  0  0  0  0  0  0
    1.0290    0.5150   -0.5550 O   0  0  0  0  0  0  0  0  0  0  0  0
   -0.1720    1.1400   -0.4460 C   0  0  0  0  0  0  0  0  0  0  0  0
   -1.3590    0.4190    0.0790 C   0  0  1  0  0  0  0  0  0  0  0  0
   -2.3870    1.4030    0.1290 O   0  0  0  0  0  0  0  0  0  0  0  0
   -1.8070   -0.7380   -0.7750 C   0  0  0  0  0  0  0  0  0  0  0  0
   -2.9480   -1.3360   -0.3160 O   0  0  0  0  0  0  0  0  0  0  0  0
   -4.0750   -0.5860   -0.4180 C   0  0  2  0  0  0  0  0  0  0  0  0
   -4.6030   -0.4490    0.8640 O   0  0  0  0  0  0  0  0  0  0  0  0
   -5.8020    0.1970    0.9400 C   0  0  1  0  0  0  0  0  0  0  0  0
   -5.5680    1.6970    0.8980 C   0  0  0  0  0  0  0  0  0  0  0  0
   -4.7720    2.1140    1.9640 O   0  0  0  0  0  0  0  0  0  0  0  0
   -6.8070   -0.2190    0.1290 O   0  0  0  0  0  0  0  0  0  0  0  0
   -6.4800   -0.6660   -1.1080 C   0  0  0  0  0  0  0  0  0  0  0  0
   -5.1370   -1.3330   -1.2100 C   0  0  2  0  0  0  0  0  0  0  0  0
   -5.1920   -2.6280   -0.7540 O   0  0  0  0  0  0  0  0  0  0  0  0
    2.5540    1.1200    1.1610 C   0  0  1  0  0  0  0  0  0  0  0  0
    3.0090    0.5980    2.3610 O   0  0  0  0  0  0  0  0  0  0  0  0
    3.6430    1.3280    0.1920 C   0  0  0  0  0  0  0  0  0  0  0  0
    3.7480    1.0330   -1.1280 C   0  0  0  0  0  0  0  0  0  0  0  0
    4.9940    1.4510   -1.5350 C   0  0  0  0  0  0  0  0  0  0  0  0
    5.6030    1.9920   -0.4240 C   0  0  0  0  0  0  0  0  0  0  0  0
    6.9940    2.5750   -0.4250 C   0  0  2  0  0  0  0  0  0  0  0  0
    6.9280    3.7920    0.2830 O   0  0  0  0  0  0  0  0  0  0  0  0
    7.4520    2.7580   -1.7100 O   0  0  0  0  0  0  0  0  0  0  0  0
    4.7710    1.8950    0.5560 O   0  0  0  0  0  0  0  0  0  0  0  0
  1  2  1  0
  2  3  1  0
  3  4  1  6
  3  5  1  0
  5  6  1  1
  5  7  1  0
  7  8  1  6
  7 23  1  0
  8  9  1  0
  9 10  1  0
 10 11  1  6
 10 12  1  0
 12 13  1  0
 14 13  1  1
 14 15  1  0
 14 21  1  0
 15 16  1  0
 16 17  1  6
 16 19  1  0
 17 18  1  0
 19 20  1  0
 20 21  1  0
 21 22  1  1
 23 24  1  1
 23 25  1  0
 25 26  2  0
 25 32  1  0
 26 27  1  0
 27 28  2  0
 28 29  1  0
 28 32  1  0
 29 30  1  6
 29 31  1  0
M  END
