
     RDKit          3D

 34 37  0  0  0  0  0  0  0  0999 V2000
    3.3070    2.9830   -1.2700 C   0  0  0  0  0  0  0  0  0  0  0  0
    3.2110    3.1930    0.2060 C   0  0  0  0  0  0  0  0  0  0  0  0
    3.6810    1.9240    0.9030 C   0  0  1  0  0  0  0  0  0  0  0  0
    2.5820    0.5920    0.3640 S   0  0  0  0  0  0  0  0  0  0  0  0
    3.5150   -0.9170    0.2770 C   0  0  0  0  0  0  0  0  0  0  0  0
    2.8670   -2.1230    0.2230 C   0  0  0  0  0  0  0  0  0  0  0  0
    1.4250   -2.3260    0.1670 C   0  0  0  0  0  0  0  0  0  0  0  0
    1.0560   -3.4930    0.5310 O   0  0  0  0  0  0  0  0  0  0  0  0
    0.4210   -1.4390   -0.2250 N   0  0  0  0  0  0  0  0  0  0  0  0
   -0.9780   -1.6790   -0.2690 C   0  0  0  0  0  0  0  0  0  0  0  0
   -1.5650   -2.8850    0.0720 C   0  0  0  0  0  0  0  0  0  0  0  0
   -2.9220   -3.1290    0.0170 C   0  0  0  0  0  0  0  0  0  0  0  0
   -3.5850   -4.6940    0.4690 Cl  0  0  0  0  0  0  0  0  0  0  0  0
   -3.7800   -2.1390   -0.3940 C   0  0  0  0  0  0  0  0  0  0  0  0
   -3.2460   -0.9210   -0.7410 C   0  0  0  0  0  0  0  0  0  0  0  0
   -1.8570   -0.7000   -0.6800 C   0  0  0  0  0  0  0  0  0  0  0  0
   -1.3870    0.6300   -1.0770 C   0  0  0  0  0  0  0  0  0  0  0  0
   -1.1930    1.4740    0.1340 C   0  0  0  0  0  0  0  0  0  0  0  0
   -0.7440    2.8860   -0.1890 C   0  0  0  0  0  0  0  0  0  0  0  0
   -0.5820    3.6780    1.0050 N   0  0  0  0  0  0  0  0  0  0  0  0
   -0.2000    5.0080    0.6450 C   0  0  0  0  0  0  0  0  0  0  0  0
   -4.0440    0.2470   -1.1460 C   0  0  0  0  0  0  0  0  0  0  0  0
   -5.1600    0.4100   -0.0850 C   0  0  0  0  0  0  0  0  0  0  0  0
   -6.2520   -0.5880   -0.2280 C   0  0  0  0  0  0  0  0  0  0  0  0
   -5.9460   -1.8220    0.5230 N   0  0  0  0  0  0  0  0  0  0  0  0
   -5.1910   -2.6330   -0.4040 C   0  0  0  0  0  0  0  0  0  0  0  0
    3.7070   -3.2540    0.1800 C   0  0  0  0  0  0  0  0  0  0  0  0
    5.0620   -3.2320    0.1890 C   0  0  0  0  0  0  0  0  0  0  0  0
    5.8880   -4.4940    0.1420 C   0  0  0  0  0  0  0  0  0  0  0  0
    5.6530   -2.0310    0.2410 N   0  0  0  0  0  0  0  0  0  0  0  0
    4.9160   -0.8930    0.2850 C   0  0  0  0  0  0  0  0  0  0  0  0
    5.6250    0.3390    0.3460 N   0  0  0  0  0  0  0  0  0  0  0  0
    5.0380    1.6150    0.4030 C   0  0  0  0  0  0  0  0  0  0  0  0
    5.7410    2.5890   -0.0150 O   0  0  0  0  0  0  0  0  0  0  0  0
  1  2  1  0
  3  2  1  6
  3  4  1  0
  3 33  1  0
  4  5  1  0
  5  6  2  0
  5 31  1  0
  6  7  1  0
  6 27  1  0
  7  8  2  0
  7  9  1  0
  9 10  1  0
 10 11  2  0
 10 16  1  0
 11 12  1  0
 12 13  1  0
 12 14  2  0
 14 15  1  0
 14 26  1  0
 15 16  2  0
 15 22  1  0
 16 17  1  0
 17 18  1  0
 18 19  1  0
 19 20  1  0
 20 21  1  0
 22 23  1  0
 23 24  1  0
 24 25  1  0
 25 26  1  0
 27 28  2  0
 28 29  1  0
 28 30  1  0
 30 31  2  0
 31 32  1  0
 32 33  1  0
 33 34  2  0
M  CHG  1  25   1
M  END
