
     RDKit          3D

 34 37  0  0  0  0  0  0  0  0999 V2000
    1.2850   -2.0650   -2.6400 C   0  0  0  0  0  0  0  0  0  0  0  0
    0.8780   -1.3880   -1.4490 N   0  0  0  0  0  0  0  0  0  0  0  0
    1.7850   -0.5240   -0.7890 C   0  0  0  0  0  0  0  0  0  0  0  0
    2.7500   -1.0510    0.0910 C   0  0  0  0  0  0  0  0  0  0  0  0
    3.6510   -0.2610    0.7610 C   0  0  0  0  0  0  0  0  0  0  0  0
    3.6580    1.1030    0.6060 C   0  0  0  0  0  0  0  0  0  0  0  0
    4.6080    1.9910    1.3070 C   0  0  0  0  0  0  0  0  0  0  0  0
    5.5630    1.5520    2.1610 C   0  0  0  0  0  0  0  0  0  0  0  0
    6.3890    2.5090    2.7500 C   0  0  0  0  0  0  0  0  0  0  0  0
    6.2710    3.8230    2.5040 N   0  0  0  0  0  0  0  0  0  0  0  0
    5.3140    4.2250    1.6520 C   0  0  0  0  0  0  0  0  0  0  0  0
    4.5240    3.3130    1.0880 N   0  0  0  0  0  0  0  0  0  0  0  0
    2.7170    1.6310   -0.2540 C   0  0  0  0  0  0  0  0  0  0  0  0
    2.7000    3.3770   -0.4750 Cl  0  0  0  0  0  0  0  0  0  0  0  0
    1.8090    0.8450   -0.9310 C   0  0  0  0  0  0  0  0  0  0  0  0
   -0.4840   -1.6350   -0.9220 C   0  0  2  0  0  0  0  0  0  0  0  0
   -1.4970   -1.4040   -1.9940 C   0  0  0  0  0  0  0  0  0  0  0  0
   -1.5360    0.1540   -2.7440 S   0  0  2  0  0  0  0  0  0  0  0  0
   -2.7100    0.0960   -3.7620 O   0  0  0  0  0  0  0  0  0  0  0  0
   -0.3430    0.3960   -3.6550 O   0  0  0  0  0  0  0  0  0  0  0  0
   -1.8580    1.5170   -1.7810 N   0  0  0  0  0  0  0  0  0  0  0  0
   -3.0370    1.8160   -1.0550 C   0  0  0  0  0  0  0  0  0  0  0  0
   -3.4660    3.1560   -1.1680 C   0  0  0  0  0  0  0  0  0  0  0  0
   -4.5880    3.5310   -0.5070 C   0  0  0  0  0  0  0  0  0  0  0  0
   -5.3070    2.6360    0.2620 C   0  0  0  0  0  0  0  0  0  0  0  0
   -4.8870    1.3320    0.3690 C   0  0  0  0  0  0  0  0  0  0  0  0
   -5.6340    0.4370    1.1590 N   0  0  0  0  0  0  0  0  0  0  0  0
   -3.7380    0.9310   -0.3020 C   0  0  0  0  0  0  0  0  0  0  0  0
   -0.6120   -0.8410    0.3080 C   0  0  0  0  0  0  0  0  0  0  0  0
   -1.4420   -1.3430    1.4210 C   0  0  0  0  0  0  0  0  0  0  0  0
   -0.7260   -2.4810    2.1360 C   0  0  0  0  0  0  0  0  0  0  0  0
   -1.3170   -3.7920    1.6300 C   0  0  0  0  0  0  0  0  0  0  0  0
   -1.5840   -3.6830    0.1370 C   0  0  0  0  0  0  0  0  0  0  0  0
   -0.4450   -3.1140   -0.6010 C   0  0  0  0  0  0  0  0  0  0  0  0
  1  2  1  0
  2  3  1  0
  2 16  1  0
  3  4  2  0
  3 15  1  0
  4  5  1  0
  5  6  2  0
  6  7  1  0
  6 13  1  0
  7  8  2  0
  7 12  1  0
  8  9  1  0
  9 10  2  0
 10 11  1  0
 11 12  2  0
 13 14  1  0
 13 15  2  0
 16 17  1  6
 16 29  1  0
 16 34  1  0
 18 17  1  1
 18 19  2  0
 18 20  2  0
 18 21  1  0
 21 22  1  0
 22 23  2  0
 22 28  1  0
 23 24  1  0
 24 25  2  0
 25 26  1  0
 26 27  1  0
 26 28  2  0
 29 30  1  0
 30 31  1  0
 31 32  1  0
 32 33  1  0
 33 34  1  0
M  CHG  1  10   1
M  END
