
     RDKit          3D

 34 37  0  0  0  0  0  0  0  0999 V2000
   -1.9650    5.5970    1.4990 C   0  0  0  0  0  0  0  0  0  0  0  0
   -1.0820    4.4090    1.6000 C   0  0  0  0  0  0  0  0  0  0  0  0
   -1.5090    3.2550    1.2130 C   0  0  0  0  0  0  0  0  0  0  0  0
   -3.2080    2.9950    0.5230 S   0  0  0  0  0  0  0  0  0  0  0  0
   -2.9930    1.2390    0.2610 C   0  0  0  0  0  0  0  0  0  0  0  0
   -3.9920    0.3940   -0.2810 N   0  0  0  0  0  0  0  0  0  0  0  0
   -5.2710    0.9130   -0.6610 C   0  0  0  0  0  0  0  0  0  0  0  0
   -5.5560    2.1310   -0.5300 O   0  0  0  0  0  0  0  0  0  0  0  0
   -6.2580   -0.0350   -1.2180 C   0  0  1  0  0  0  0  0  0  0  0  0
   -6.6000    0.4720   -2.6220 C   0  0  0  0  0  0  0  0  0  0  0  0
   -5.7920   -1.3240   -1.2940 O   0  0  0  0  0  0  0  0  0  0  0  0
   -1.6960    0.9750    0.6970 C   0  0  0  0  0  0  0  0  0  0  0  0
   -0.9850    1.9990    1.1650 C   0  0  0  0  0  0  0  0  0  0  0  0
    0.2730    1.7820    1.5960 N   0  0  0  0  0  0  0  0  0  0  0  0
    0.9100    0.5570    1.5960 C   0  0  0  0  0  0  0  0  0  0  0  0
    2.2570    0.4840    2.0890 N   0  0  0  0  0  0  0  0  0  0  0  0
    3.3720    0.4510    1.2200 C   0  0  0  0  0  0  0  0  0  0  0  0
    3.1310    0.4910   -0.1430 C   0  0  0  0  0  0  0  0  0  0  0  0
    4.1390    0.4650   -1.0690 C   0  0  0  0  0  0  0  0  0  0  0  0
    5.4310    0.3950   -0.5960 C   0  0  0  0  0  0  0  0  0  0  0  0
    6.5500    0.3620   -1.4760 N   0  0  0  0  0  0  0  0  0  0  0  0
    7.1600   -0.9420   -1.5470 C   0  0  0  0  0  0  0  0  0  0  0  0
    5.6780    0.3550    0.7510 C   0  0  0  0  0  0  0  0  0  0  0  0
    4.6600    0.3820    1.6990 C   0  0  0  0  0  0  0  0  0  0  0  0
    4.9850    0.3300    3.4190 Cl  0  0  0  0  0  0  0  0  0  0  0  0
    0.2800   -0.5070    1.1510 C   0  0  0  0  0  0  0  0  0  0  0  0
   -1.0760   -0.3710    0.6670 C   0  0  0  0  0  0  0  0  0  0  0  0
   -1.7260   -1.3920    0.2230 N   0  0  0  0  0  0  0  0  0  0  0  0
   -1.2070   -2.6870    0.1650 C   0  0  0  0  0  0  0  0  0  0  0  0
   -0.3410   -3.0250   -0.8770 C   0  0  0  0  0  0  0  0  0  0  0  0
    0.1580   -4.3100   -0.9130 C   0  0  0  0  0  0  0  0  0  0  0  0
   -0.1700   -5.2580    0.0390 C   0  0  0  0  0  0  0  0  0  0  0  0
   -1.0270   -4.9100    1.0640 C   0  0  0  0  0  0  0  0  0  0  0  0
   -1.5440   -3.6290    1.1260 C   0  0  0  0  0  0  0  0  0  0  0  0
  1  2  1  0
  2  3  2  3
  3  4  1  0
  3 13  1  0
  4  5  1  0
  5  6  1  0
  5 12  2  0
  6  7  1  0
  7  8  2  0
  7  9  1  0
  9 10  1  6
  9 11  1  0
 12 13  1  0
 12 27  1  0
 13 14  2  0
 14 15  1  0
 15 16  1  0
 15 26  2  0
 16 17  1  0
 17 18  2  0
 17 24  1  0
 18 19  1  0
 19 20  2  0
 20 21  1  0
 20 23  1  0
 21 22  1  0
 23 24  2  0
 24 25  1  0
 26 27  1  0
 27 28  2  3
 28 29  1  0
 29 30  2  0
 29 34  1  0
 30 31  1  0
 31 32  2  0
 32 33  1  0
 33 34  2  0
M  CHG  1  21   1
M  END
