
     RDKit          3D

 34 37  0  0  0  0  0  0  0  0999 V2000
    9.2090   -1.4360   -0.2050 C   0  0  0  0  0  0  0  0  0  0  0  0
    7.7520   -1.2240   -0.1960 C   0  0  0  0  0  0  0  0  0  0  0  0
    7.0300   -1.4890    0.9540 C   0  0  0  0  0  0  0  0  0  0  0  0
    5.6680   -1.2890    0.9530 C   0  0  0  0  0  0  0  0  0  0  0  0
    4.8760   -1.5760    2.2020 C   0  0  0  0  0  0  0  0  0  0  0  0
    4.9860   -0.8330   -0.1500 C   0  0  0  0  0  0  0  0  0  0  0  0
    3.5590   -0.6300   -0.1290 C   0  0  0  0  0  0  0  0  0  0  0  0
    2.6450   -1.5260   -0.4420 N   0  0  0  0  0  0  0  0  0  0  0  0
    1.3280   -1.3270   -0.4200 C   0  0  0  0  0  0  0  0  0  0  0  0
    0.8180   -0.0620   -0.0330 C   0  0  0  0  0  0  0  0  0  0  0  0
   -0.5210    0.3320    0.0500 C   0  0  0  0  0  0  0  0  0  0  0  0
   -1.5820   -0.6050   -0.2760 N   0  0  0  0  0  0  0  0  0  0  0  0
   -2.9590   -0.4150   -0.3370 C   0  0  0  0  0  0  0  0  0  0  0  0
   -3.6350   -1.7390   -0.8190 C   0  0  1  0  0  0  0  0  0  0  0  0
   -5.1020   -1.4670   -0.8570 C   0  0  0  0  0  0  0  0  0  0  0  0
   -3.1360   -2.0200   -2.1940 C   0  0  0  0  0  0  0  0  0  0  0  0
   -3.6710   -3.3080   -2.7620 C   0  0  0  0  0  0  0  0  0  0  0  0
   -3.7990   -4.3570   -1.7980 N   0  0  0  0  0  0  0  0  0  0  0  0
   -3.0010   -4.1590   -0.6130 C   0  0  0  0  0  0  0  0  0  0  0  0
   -3.3240   -2.8680    0.0950 C   0  0  0  0  0  0  0  0  0  0  0  0
   -0.7910    1.5730    0.4350 C   0  0  0  0  0  0  0  0  0  0  0  0
   -1.9230    2.4260    0.6800 C   0  0  0  0  0  0  0  0  0  0  0  0
   -3.0960    2.1200    0.5640 O   0  0  0  0  0  0  0  0  0  0  0  0
   -1.7400    3.8040    1.1110 N   0  0  0  0  0  0  0  0  0  0  0  0
   -2.9020    4.6490    1.3530 C   0  0  0  0  0  0  0  0  0  0  0  0
   -2.3540    5.9880    1.7780 C   0  0  0  0  0  0  0  0  0  0  0  0
   -3.4490    6.9830    2.0680 C   0  0  0  0  0  0  0  0  0  0  0  0
   -2.8530    8.1830    2.4510 O   0  0  0  0  0  0  0  0  0  0  0  0
    0.9070    2.2680    0.7090 S   0  0  0  0  0  0  0  0  0  0  0  0
    1.7510    0.8300    0.2800 C   0  0  0  0  0  0  0  0  0  0  0  0
    3.1150    0.5800    0.2420 N   0  0  0  0  0  0  0  0  0  0  0  0
    5.7340   -0.5730   -1.2960 C   0  0  0  0  0  0  0  0  0  0  0  0
    4.9320    0.0150   -2.7520 Cl  0  0  0  0  0  0  0  0  0  0  0  0
    7.0990   -0.7710   -1.3050 C   0  0  0  0  0  0  0  0  0  0  0  0
  1  2  1  0
  2  3  2  0
  2 34  1  0
  3  4  1  0
  4  5  1  0
  4  6  2  0
  6  7  1  0
  6 32  1  0
  7  8  2  0
  7 31  1  0
  8  9  1  0
  9 10  2  0
 10 11  1  0
 10 30  1  0
 11 12  1  0
 11 21  2  0
 12 13  1  0
 13 14  1  0
 14 15  1  6
 14 16  1  0
 14 20  1  0
 16 17  1  0
 17 18  1  0
 18 19  1  0
 19 20  1  0
 21 22  1  0
 21 29  1  0
 22 23  2  0
 22 24  1  0
 24 25  1  0
 25 26  1  0
 26 27  1  0
 27 28  1  0
 29 30  1  0
 30 31  2  0
 32 33  1  0
 32 34  2  0
M  CHG  1  18   1
M  END
