
     RDKit          3D

 34 37  0  0  0  0  0  0  0  0999 V2000
    8.7430    0.2890   -0.3090 C   0  0  0  0  0  0  0  0  0  0  0  0
    7.6880    0.3830    0.8020 C   0  0  0  0  0  0  0  0  0  0  0  0
    6.2020    0.1460    0.0900 S   0  0  0  0  0  0  0  0  0  0  0  0
    6.1590    1.6630   -0.5940 C   0  0  0  0  0  0  0  0  0  0  0  0
    6.0510   -0.4480   -1.4290 O   0  0  0  0  0  0  0  0  0  0  0  0
    4.8320    0.5440    0.9750 N   0  0  0  0  0  0  0  0  0  0  0  0
    3.5240    0.1970    0.7340 C   0  0  0  0  0  0  0  0  0  0  0  0
    2.4950    0.6390    1.5710 C   0  0  0  0  0  0  0  0  0  0  0  0
    1.1760    0.3040    1.3580 C   0  0  0  0  0  0  0  0  0  0  0  0
    0.8290   -0.4920    0.2900 C   0  0  0  0  0  0  0  0  0  0  0  0
   -0.5690   -0.9020   -0.0100 C   0  0  0  0  0  0  0  0  0  0  0  0
   -1.4170   -0.3800    1.0250 N   0  0  0  0  0  0  0  0  0  0  0  0
   -2.7980   -0.8020    0.8800 C   0  0  1  0  0  0  0  0  0  0  0  0
   -3.5280    0.2300    0.1470 C   0  0  0  0  0  0  0  0  0  0  0  0
   -4.0990    1.1190    0.8880 N   0  0  0  0  0  0  0  0  0  0  0  0
   -4.8540    2.1990    0.3690 C   0  0  0  0  0  0  0  0  0  0  0  0
   -6.0520    1.8990   -0.2800 C   0  0  0  0  0  0  0  0  0  0  0  0
   -6.8310    2.9040   -0.8050 C   0  0  0  0  0  0  0  0  0  0  0  0
   -6.4170    4.2170   -0.6860 C   0  0  0  0  0  0  0  0  0  0  0  0
   -5.2250    4.5180   -0.0400 C   0  0  0  0  0  0  0  0  0  0  0  0
   -4.7500    6.1860    0.0830 Cl  0  0  0  0  0  0  0  0  0  0  0  0
   -4.4380    3.5170    0.4900 C   0  0  0  0  0  0  0  0  0  0  0  0
   -3.7230    0.4310   -1.2460 N   0  0  0  0  0  0  0  0  0  0  0  0
   -3.5590   -0.5360   -2.2670 C   0  0  0  0  0  0  0  0  0  0  0  0
   -3.7540   -0.1110   -3.4500 O   0  0  0  0  0  0  0  0  0  0  0  0
   -3.2070   -1.9040   -2.1400 N   0  0  0  0  0  0  0  0  0  0  0  0
   -3.0880   -2.6530   -0.9530 C   0  0  0  0  0  0  0  0  0  0  0  0
   -3.1670   -4.0100   -1.2180 C   0  0  0  0  0  0  0  0  0  0  0  0
   -3.0720   -4.9210   -0.1950 C   0  0  0  0  0  0  0  0  0  0  0  0
   -2.8980   -4.4470    1.0900 C   0  0  0  0  0  0  0  0  0  0  0  0
   -2.8220   -3.0910    1.3300 C   0  0  0  0  0  0  0  0  0  0  0  0
   -2.9140   -2.1580    0.3180 C   0  0  0  0  0  0  0  0  0  0  0  0
    1.8150   -0.9440   -0.5530 C   0  0  0  0  0  0  0  0  0  0  0  0
    3.1500   -0.5920   -0.3180 C   0  0  0  0  0  0  0  0  0  0  0  0
  1  2  1  0
  2  3  1  0
  3  4  1  0
  3  5  2  0
  3  6  1  0
  6  7  1  0
  7  8  2  0
  7 34  1  0
  8  9  1  0
  9 10  2  0
 10 11  1  0
 10 33  1  0
 11 12  1  0
 13 12  1  6
 13 14  1  0
 13 32  1  0
 14 15  2  3
 14 23  1  0
 15 16  1  0
 16 17  2  0
 16 22  1  0
 17 18  1  0
 18 19  2  0
 19 20  1  0
 20 21  1  0
 20 22  2  0
 23 24  1  0
 24 25  2  0
 24 26  1  0
 26 27  1  0
 27 28  2  0
 27 32  1  0
 28 29  1  0
 29 30  2  0
 30 31  1  0
 31 32  2  0
 33 34  2  0
M  CHG  1  12   1
M  END
