
     RDKit          3D

 34 37  0  0  0  0  0  0  0  0999 V2000
    8.8980    0.6860   -2.4420 C   0  0  0  0  0  0  0  0  0  0  0  0
    7.5180    0.1320   -2.2440 C   0  0  0  0  0  0  0  0  0  0  0  0
    6.7460    0.4930   -1.1720 C   0  0  0  0  0  0  0  0  0  0  0  0
    5.4780   -0.0220   -0.9920 C   0  0  0  0  0  0  0  0  0  0  0  0
    4.9560   -0.9140   -1.8900 C   0  0  0  0  0  0  0  0  0  0  0  0
    3.6280   -1.4720   -1.7190 C   0  0  0  0  0  0  0  0  0  0  0  0
    3.1630   -2.2990   -2.5720 O   0  0  0  0  0  0  0  0  0  0  0  0
    2.7520   -1.1740   -0.6440 N   0  0  0  0  0  0  0  0  0  0  0  0
    1.4740   -1.7530   -0.5380 N   0  0  0  0  0  0  0  0  0  0  0  0
    1.1940   -2.4580    0.6590 C   0  0  0  0  0  0  0  0  0  0  0  0
    2.0840   -2.5480    1.5780 O   0  0  0  0  0  0  0  0  0  0  0  0
   -0.0860   -3.1340    0.9720 C   0  0  0  0  0  0  0  0  0  0  0  0
   -0.9090   -2.3290    2.3650 S   0  0  0  0  0  0  0  0  0  0  0  0
   -1.4730   -0.7170    1.8580 C   0  0  0  0  0  0  0  0  0  0  0  0
   -1.9700    0.0320    2.7680 N   0  0  0  0  0  0  0  0  0  0  0  0
   -2.4340    1.3520    2.4140 C   0  0  0  0  0  0  0  0  0  0  0  0
   -2.3560    1.8180    1.1920 C   0  0  0  0  0  0  0  0  0  0  0  0
   -2.8910    3.2080    0.9870 C   0  0  0  0  0  0  0  0  0  0  0  0
   -2.3050    4.0760    2.1120 C   0  0  0  0  0  0  0  0  0  0  0  0
   -2.8000    3.5990    3.4460 C   0  0  0  0  0  0  0  0  0  0  0  0
   -3.0140    2.1370    3.5670 C   0  0  0  0  0  0  0  0  0  0  0  0
   -1.7350    1.0600    0.1180 C   0  0  2  0  0  0  0  0  0  0  0  0
   -2.4310    1.1830   -1.2060 C   0  0  0  0  0  0  0  0  0  0  0  0
   -3.8330    0.7470   -1.2780 C   0  0  0  0  0  0  0  0  0  0  0  0
   -4.1430   -0.6430   -0.9800 C   0  0  0  0  0  0  0  0  0  0  0  0
   -4.4420   -1.0090    0.3180 C   0  0  0  0  0  0  0  0  0  0  0  0
   -4.7480   -2.3140    0.6500 C   0  0  0  0  0  0  0  0  0  0  0  0
   -4.7570   -3.2510   -0.3070 N   0  0  0  0  0  0  0  0  0  0  0  0
   -4.4680   -2.9070   -1.5720 C   0  0  0  0  0  0  0  0  0  0  0  0
   -4.1620   -1.6250   -1.9290 C   0  0  0  0  0  0  0  0  0  0  0  0
   -1.4360   -0.2820    0.5140 N   0  0  0  0  0  0  0  0  0  0  0  0
    5.6990   -1.3010   -2.9770 C   0  0  0  0  0  0  0  0  0  0  0  0
    6.9610   -0.7720   -3.1330 C   0  0  0  0  0  0  0  0  0  0  0  0
    7.9430   -1.2490   -4.5200 Cl  0  0  0  0  0  0  0  0  0  0  0  0
  1  2  1  0
  2  3  2  0
  2 33  1  0
  3  4  1  0
  4  5  2  0
  5  6  1  0
  5 32  1  0
  6  7  2  0
  6  8  1  0
  8  9  1  0
  9 10  1  0
 10 11  2  0
 10 12  1  0
 12 13  1  0
 13 14  1  0
 14 15  2  0
 14 31  1  0
 15 16  1  0
 16 17  2  0
 16 21  1  0
 17 18  1  0
 17 22  1  0
 18 19  1  0
 19 20  1  0
 20 21  1  0
 22 23  1  6
 22 31  1  0
 23 24  1  0
 24 25  1  0
 25 26  2  0
 25 30  1  0
 26 27  1  0
 27 28  2  0
 28 29  1  0
 29 30  2  0
 32 33  2  0
 33 34  1  0
M  CHG  1  28   1
M  END
