
     RDKit          3D

 24 25  0  0  0  0  0  0  0  0999 V2000
   -7.1650   -0.0750    0.1680 C   0  0  0  0  0  0  0  0  0  0  0  0
   -6.0530    0.0200   -0.6720 O   0  0  0  0  0  0  0  0  0  0  0  0
   -4.7820   -0.1830   -0.1610 C   0  0  0  0  0  0  0  0  0  0  0  0
   -4.5190   -0.4720    1.1040 N   0  0  0  0  0  0  0  0  0  0  0  0
   -3.2590   -0.6570    1.5310 C   0  0  0  0  0  0  0  0  0  0  0  0
   -2.2240   -0.5500    0.6630 N   0  0  0  0  0  0  0  0  0  0  0  0
   -2.4140   -0.2600   -0.6350 C   0  0  0  0  0  0  0  0  0  0  0  0
   -1.3690   -0.1420   -1.5770 N   0  0  0  0  0  0  0  0  0  0  0  0
    0.0280   -0.3220   -1.2180 C   0  0  0  0  0  0  0  0  0  0  0  0
    0.5110    0.6700   -0.1950 C   0  0  0  0  0  0  0  0  0  0  0  0
    1.9300    0.3770    0.0880 C   0  0  0  0  0  0  0  0  0  0  0  0
    2.9140    0.9660   -0.6690 C   0  0  0  0  0  0  0  0  0  0  0  0
    4.2500    0.7240   -0.4370 C   0  0  0  0  0  0  0  0  0  0  0  0
    4.6130   -0.1290    0.5780 C   0  0  0  0  0  0  0  0  0  0  0  0
    6.3160   -0.4530    0.8850 S   0  0  1  0  0  0  0  0  0  0  0  0
    6.9410    0.7000    1.9870 N   0  0  0  0  0  0  0  0  0  0  0  0
    6.4600   -1.8370    1.4550 O   0  0  0  0  0  0  0  0  0  0  0  0
    7.0880   -0.4030   -0.4040 O   0  0  0  0  0  0  0  0  0  0  0  0
    3.6500   -0.7430    1.3640 C   0  0  0  0  0  0  0  0  0  0  0  0
    2.3040   -0.4750    1.1010 C   0  0  0  0  0  0  0  0  0  0  0  0
   -3.7120   -0.0760   -1.0430 C   0  0  0  0  0  0  0  0  0  0  0  0
   -3.9740    0.2340   -2.4020 N   0  0  0  0  0  0  0  0  0  0  0  0
   -3.8740   -0.6270   -3.2670 O   0  0  0  0  0  0  0  0  0  0  0  0
   -4.3440    1.5090   -2.7400 O   0  0  0  0  0  0  0  0  0  0  0  0
  1  2  1  0
  2  3  1  0
  3  4  2  0
  3 21  1  0
  4  5  1  0
  5  6  2  0
  6  7  1  0
  7  8  1  0
  7 21  2  0
  8  9  1  0
  9 10  1  0
 10 11  1  0
 11 12  2  0
 11 20  1  0
 12 13  1  0
 13 14  2  0
 14 15  1  0
 14 19  1  0
 15 16  1  1
 15 17  2  0
 15 18  2  0
 19 20  2  0
 21 22  1  0
 22 23  2  0
 22 24  1  0
M  CHG  2  22   1  24  -1
M  END
