
     RDKit          3D

 22 23  0  0  0  0  0  0  0  0999 V2000
    3.5370   -2.6420   -2.5950 C   0  0  0  0  0  0  0  0  0  0  0  0
    2.4230   -2.2390   -1.7000 N   0  0  0  0  0  0  0  0  0  0  0  0
    2.6150   -1.1820   -0.8000 C   0  0  0  0  0  0  0  0  0  0  0  0
    3.7410   -0.6390   -0.8160 O   0  0  0  0  0  0  0  0  0  0  0  0
    1.5990   -0.6590    0.1600 C   0  0  0  0  0  0  0  0  0  0  0  0
    0.4210   -1.2230    0.1680 C   0  0  0  0  0  0  0  0  0  0  0  0
   -0.8340   -1.1050    0.8400 C   0  0  0  0  0  0  0  0  0  0  0  0
   -1.0170   -2.0090    1.9910 N   0  0  0  0  0  0  0  0  0  0  0  0
   -1.9130   -0.3820    0.5560 C   0  0  0  0  0  0  0  0  0  0  0  0
   -2.2010    0.5390   -0.5360 C   0  0  0  0  0  0  0  0  0  0  0  0
   -3.1850    0.1460   -1.3820 C   0  0  0  0  0  0  0  0  0  0  0  0
   -3.6110    0.9140   -2.5260 C   0  0  0  0  0  0  0  0  0  0  0  0
   -3.0550    2.0670   -2.8180 C   0  0  0  0  0  0  0  0  0  0  0  0
   -2.0540    2.4880   -1.9700 O   0  0  0  0  0  0  0  0  0  0  0  0
   -1.5900    1.8060   -0.8490 C   0  0  0  0  0  0  0  0  0  0  0  0
   -0.6270    2.4020   -0.1620 C   0  0  0  0  0  0  0  0  0  0  0  0
    0.0140    2.0350    0.9500 O   0  0  0  0  0  0  0  0  0  0  0  0
   -0.2790    1.9420    2.2950 C   0  0  0  0  0  0  0  0  0  0  0  0
    0.6000    0.9940    3.0520 C   0  0  0  0  0  0  0  0  0  0  0  0
    1.8260    0.6940    2.3650 N   0  0  0  0  0  0  0  0  0  0  0  0
    2.0890    0.4080    1.0300 C   0  0  0  0  0  0  0  0  0  0  0  0
    2.9160    1.2300    0.4530 O   0  0  0  0  0  0  0  0  0  0  0  0
  1  2  1  0
  2  3  1  0
  3  4  2  0
  3  5  1  0
  5  6  2  0
  5 21  1  0
  6  7  1  0
  7  8  1  0
  7  9  2  0
  9 10  1  0
 10 11  2  0
 10 15  1  0
 11 12  1  0
 12 13  2  0
 13 14  1  0
 14 15  1  0
 15 16  2  0
 16 17  1  0
 17 18  1  0
 18 19  1  0
 19 20  1  0
 20 21  1  0
 21 22  2  0
M  END
