
     RDKit          3D

 22 23  0  0  0  0  0  0  0  0999 V2000
    4.2110   -1.4220    2.3140 N   0  0  0  0  0  0  0  0  0  0  0  0
    3.4330   -0.4040    1.6890 C   0  0  0  0  0  0  0  0  0  0  0  0
    2.4590   -0.6660    0.8400 C   0  0  0  0  0  0  0  0  0  0  0  0
    1.6680    0.3840    0.2040 C   0  0  0  0  0  0  0  0  0  0  0  0
    1.9100    1.6890    0.4680 C   0  0  0  0  0  0  0  0  0  0  0  0
    2.9410    1.8870    1.3650 O   0  0  0  0  0  0  0  0  0  0  0  0
    3.7450    0.9920    2.0200 C   0  0  0  0  0  0  0  0  0  0  0  0
    1.1720    2.7890   -0.1230 C   0  0  0  0  0  0  0  0  0  0  0  0
    1.8500    3.8860   -0.1970 O   0  0  0  0  0  0  0  0  0  0  0  0
   -0.1320    2.8550   -0.6200 N   0  0  0  0  0  0  0  0  0  0  0  0
   -1.3720    2.5360    0.0500 C   0  0  0  0  0  0  0  0  0  0  0  0
   -2.3430    1.8350   -0.9180 C   0  0  0  0  0  0  0  0  0  0  0  0
   -3.1290    0.8260   -0.1800 C   0  0  0  0  0  0  0  0  0  0  0  0
   -3.1810   -0.4620   -0.2480 C   0  0  0  0  0  0  0  0  0  0  0  0
   -2.5280   -1.4940   -1.0400 C   0  0  2  0  0  0  0  0  0  0  0  0
   -1.8970   -2.5750   -0.1630 C   0  0  0  0  0  0  0  0  0  0  0  0
   -2.8420   -2.8170    0.8670 O   0  0  0  0  0  0  0  0  0  0  0  0
   -1.7170   -1.1310   -2.1530 N   0  0  0  0  0  0  0  0  0  0  0  0
   -0.3770   -1.4640   -2.4210 C   0  0  0  0  0  0  0  0  0  0  0  0
   -0.0830   -2.0100   -3.5450 O   0  0  0  0  0  0  0  0  0  0  0  0
    0.7990   -1.2530   -1.5220 C   0  0  0  0  0  0  0  0  0  0  0  0
    0.6020   -0.0230   -0.7080 C   0  0  0  0  0  0  0  0  0  0  0  0
  1  2  1  0
  2  3  2  0
  2  7  1  0
  3  4  1  0
  4  5  2  0
  4 22  1  0
  5  6  1  0
  5  8  1  0
  6  7  1  0
  8  9  2  0
  8 10  1  0
 10 11  1  0
 11 12  1  0
 12 13  1  0
 13 14  2  0
 14 15  1  0
 15 16  1  1
 15 18  1  0
 16 17  1  0
 18 19  1  0
 19 20  2  0
 19 21  1  0
 21 22  1  0
M  END
