
     RDKit          3D

 21 24  0  0  0  0  0  0  0  0999 V2000
   -5.1980    0.5240   -0.4970 C   0  0  0  0  0  0  0  0  0  0  0  0
   -4.6070   -0.0880    0.7570 C   0  0  0  0  0  0  0  0  0  0  0  0
   -3.2620   -0.6660    0.5390 C   0  0  0  0  0  0  0  0  0  0  0  0
   -2.9160   -1.9560    0.3510 N   0  0  0  0  0  0  0  0  0  0  0  0
   -1.6140   -2.0660    0.1720 N   0  0  0  0  0  0  0  0  0  0  0  0
   -1.0680   -0.8410    0.2390 C   0  0  0  0  0  0  0  0  0  0  0  0
   -2.0780    0.0540    0.4690 C   0  0  0  0  0  0  0  0  0  0  0  0
   -1.7420    1.3960    0.5810 C   0  0  0  0  0  0  0  0  0  0  0  0
   -2.7040    2.1990    0.7950 O   0  0  0  0  0  0  0  0  0  0  0  0
   -0.4870    1.8320    0.4730 N   0  0  0  0  0  0  0  0  0  0  0  0
    0.5110    0.9670    0.2460 C   0  0  0  0  0  0  0  0  0  0  0  0
    1.8260    1.3660    0.1160 C   0  0  0  0  0  0  0  0  0  0  0  0
    2.8120    0.4420   -0.1250 C   0  0  0  0  0  0  0  0  0  0  0  0
    4.1270    0.8210   -0.2680 C   0  0  0  0  0  0  0  0  0  0  0  0
    4.4750    2.1500   -0.1600 O   0  0  0  0  0  0  0  0  0  0  0  0
    5.1340   -0.1260   -0.5250 C   0  0  0  0  0  0  0  0  0  0  0  0
    4.8360   -1.4520   -0.6410 C   0  0  0  0  0  0  0  0  0  0  0  0
    3.5170   -1.8290   -0.4960 C   0  0  0  0  0  0  0  0  0  0  0  0
    2.5110   -0.9220   -0.2440 C   0  0  0  0  0  0  0  0  0  0  0  0
    1.1930   -1.3200   -0.1130 C   0  0  0  0  0  0  0  0  0  0  0  0
    0.2230   -0.3780    0.1280 C   0  0  0  0  0  0  0  0  0  0  0  0
  1  2  1  0
  2  3  1  0
  3  4  2  0
  3  7  1  0
  4  5  1  0
  5  6  1  0
  6  7  2  0
  6 21  1  0
  7  8  1  0
  8  9  2  0
  8 10  1  0
 10 11  1  0
 11 12  2  0
 11 21  1  0
 12 13  1  0
 13 14  2  0
 13 19  1  0
 14 15  1  0
 14 16  1  0
 16 17  2  0
 17 18  1  0
 18 19  2  0
 19 20  1  0
 20 21  2  0
M  END
