
     RDKit          3D

 21 24  0  0  0  0  0  0  0  0999 V2000
    5.3980    2.2070   -1.8840 O   0  0  0  0  0  0  0  0  0  0  0  0
    4.7880    1.3020   -1.2320 C   0  0  0  0  0  0  0  0  0  0  0  0
    5.4590    0.2590   -0.6940 N   0  0  0  0  0  0  0  0  0  0  0  0
    4.8070   -0.7080    0.0030 C   0  0  0  0  0  0  0  0  0  0  0  0
    5.4330   -1.6800    0.5040 O   0  0  0  0  0  0  0  0  0  0  0  0
    3.4370   -0.5820    0.1380 C   0  0  0  0  0  0  0  0  0  0  0  0
    2.7480   -1.5620    0.8510 C   0  0  0  0  0  0  0  0  0  0  0  0
    1.3770   -1.4250    0.9800 C   0  0  0  0  0  0  0  0  0  0  0  0
    0.6980   -0.3640    0.4320 C   0  0  0  0  0  0  0  0  0  0  0  0
   -0.7430   -0.2800    0.6060 C   0  0  0  0  0  0  0  0  0  0  0  0
   -1.3030   -0.7890    1.7850 C   0  0  0  0  0  0  0  0  0  0  0  0
   -2.6500   -0.7130    1.9500 C   0  0  0  0  0  0  0  0  0  0  0  0
   -3.4740   -0.1510    0.9960 C   0  0  0  0  0  0  0  0  0  0  0  0
   -2.8990    0.3430   -0.1550 C   0  0  0  0  0  0  0  0  0  0  0  0
   -1.5410    0.2870   -0.3640 C   0  0  0  0  0  0  0  0  0  0  0  0
   -3.9980    0.8900   -0.9990 C   0  0  0  0  0  0  0  0  0  0  0  0
   -5.2070    0.1580   -0.4960 C   0  0  0  0  0  0  0  0  0  0  0  0
   -4.8870    0.0450    0.9200 N   0  0  0  0  0  0  0  0  0  0  0  0
    1.3920    0.5920   -0.2660 C   0  0  0  0  0  0  0  0  0  0  0  0
    2.7850    0.4970   -0.4250 C   0  0  0  0  0  0  0  0  0  0  0  0
    3.4590    1.4380   -1.1090 N   0  0  0  0  0  0  0  0  0  0  0  0
  1  2  2  0
  2  3  1  0
  2 21  1  0
  3  4  1  0
  4  5  2  0
  4  6  1  0
  6  7  2  0
  6 20  1  0
  7  8  1  0
  8  9  2  0
  9 10  1  0
  9 19  1  0
 10 11  2  0
 10 15  1  0
 11 12  1  0
 12 13  2  0
 13 14  1  0
 13 18  1  0
 14 15  2  0
 14 16  1  0
 16 17  1  0
 17 18  1  0
 19 20  2  0
 20 21  1  0
M  END
