
     RDKit          3D

 22 23  0  0  0  0  0  0  0  0999 V2000
    6.3790   -0.0990    0.7130 C   0  0  0  0  0  0  0  0  0  0  0  0
    5.1980   -0.2850    0.1170 C   0  0  0  0  0  0  0  0  0  0  0  0
    4.1820    0.7540    0.2100 C   0  0  0  0  0  0  0  0  0  0  0  0
    2.9720    0.6500   -0.3600 C   0  0  0  0  0  0  0  0  0  0  0  0
    1.9760    1.7200   -0.2430 C   0  0  0  0  0  0  0  0  0  0  0  0
    0.7340    1.3410    0.3890 N   0  0  0  0  0  0  0  0  0  0  0  0
    0.6430    1.4140    1.7880 C   0  0  0  0  0  0  0  0  0  0  0  0
   -0.3180    1.1390    2.5170 O   0  0  0  0  0  0  0  0  0  0  0  0
   -0.3550    0.9560   -0.4150 C   0  0  0  0  0  0  0  0  0  0  0  0
   -0.2520    0.9700   -1.7020 O   0  0  0  0  0  0  0  0  0  0  0  0
   -1.6270    0.5300    0.0340 N   0  0  0  0  0  0  0  0  0  0  0  0
   -2.7010    0.1490   -0.8970 C   0  0  1  0  0  0  0  0  0  0  0  0
   -3.1390   -1.2690   -0.6560 C   0  0  0  0  0  0  0  0  0  0  0  0
   -4.6330   -1.4280   -0.6920 C   0  0  2  0  0  0  0  0  0  0  0  0
   -5.1900   -0.9780   -1.8700 O   0  0  0  0  0  0  0  0  0  0  0  0
   -5.1920   -0.5710    0.4460 C   0  0  0  0  0  0  0  0  0  0  0  0
   -4.9800    0.8100    0.0430 N   0  0  0  0  0  0  0  0  0  0  0  0
   -3.8370    1.0920   -0.7490 C   0  0  0  0  0  0  0  0  0  0  0  0
   -3.7820    2.1880   -1.3520 O   0  0  0  0  0  0  0  0  0  0  0  0
    2.7320   -0.5740   -1.0830 C   0  0  0  0  0  0  0  0  0  0  0  0
    3.6050   -1.5500   -1.2030 C   0  0  0  0  0  0  0  0  0  0  0  0
    4.9510   -1.5260   -0.6160 C   0  0  0  0  0  0  0  0  0  0  0  0
  1  2  2  0
  2  3  1  0
  2 22  1  0
  3  4  2  0
  4  5  1  0
  4 20  1  0
  5  6  1  0
  6  7  1  0
  6  9  1  0
  7  8  2  0
  9 10  2  0
  9 11  1  0
 12 11  1  1
 12 13  1  0
 12 18  1  0
 13 14  1  0
 14 15  1  6
 14 16  1  0
 16 17  1  0
 17 18  1  0
 18 19  2  0
 20 21  2  0
 21 22  1  0
M  END
