
     RDKit          3D

 22 24  0  0  0  0  0  0  0  0999 V2000
    1.3540    0.5060   -0.2700 O   0  0  0  0  0  0  0  0  0  0  0  0
    0.9700    0.2280    0.8660 C   0  0  0  0  0  0  0  0  0  0  0  0
    1.9740    0.0270    1.8560 N   0  0  0  0  0  0  0  0  0  0  0  0
    3.3740    0.1080    1.6720 C   0  0  0  0  0  0  0  0  0  0  0  0
    4.0100   -0.8420    0.7230 C   0  0  2  0  0  0  0  0  0  0  0  0
    5.5110   -0.5180    0.6480 C   0  0  0  0  0  0  0  0  0  0  0  0
    5.7730    0.5040   -0.3320 N   0  0  0  0  0  0  0  0  0  0  0  0
    5.4900    0.0080   -1.6640 C   0  0  0  0  0  0  0  0  0  0  0  0
    4.5140   -1.1490   -1.4980 C   0  0  0  0  0  0  0  0  0  0  0  0
    3.5480   -0.7370   -0.5760 O   0  0  0  0  0  0  0  0  0  0  0  0
   -0.3980    0.1240    1.1220 N   0  0  0  0  0  0  0  0  0  0  0  0
   -1.4560    0.3060    0.2040 C   0  0  0  0  0  0  0  0  0  0  0  0
   -1.3360    0.6200   -1.1100 C   0  0  0  0  0  0  0  0  0  0  0  0
   -2.4600    0.7770   -1.9310 C   0  0  0  0  0  0  0  0  0  0  0  0
   -3.7270    0.6180   -1.4310 C   0  0  0  0  0  0  0  0  0  0  0  0
   -3.8880    0.2960   -0.0870 C   0  0  0  0  0  0  0  0  0  0  0  0
   -2.7780    0.1540    0.6690 C   0  0  0  0  0  0  0  0  0  0  0  0
   -5.2360    0.1240    0.4580 C   0  0  1  0  0  0  0  0  0  0  0  0
   -5.6840    1.3030    1.0940 O   0  0  0  0  0  0  0  0  0  0  0  0
   -6.2450   -0.3800   -0.5090 C   0  0  0  0  0  0  0  0  0  0  0  0
   -6.0650    0.0660   -1.9160 C   0  0  0  0  0  0  0  0  0  0  0  0
   -4.8860    0.7570   -2.1790 O   0  0  0  0  0  0  0  0  0  0  0  0
  1  2  2  0
  2  3  1  0
  2 11  1  0
  3  4  1  0
  5  4  1  1
  5  6  1  0
  5 10  1  0
  6  7  1  0
  7  8  1  0
  8  9  1  0
  9 10  1  0
 11 12  1  0
 12 13  2  0
 12 17  1  0
 13 14  1  0
 14 15  2  0
 15 16  1  0
 15 22  1  0
 16 17  2  0
 16 18  1  0
 18 19  1  6
 18 20  1  0
 20 21  1  0
 21 22  1  0
M  END
