
     RDKit          3D

 23 24  0  0  0  0  0  0  0  0999 V2000
   -1.1200    5.1770    0.3190 C   0  0  0  0  0  0  0  0  0  0  0  0
   -1.0180    3.6980    0.2220 C   0  0  0  0  0  0  0  0  0  0  0  0
   -2.1230    2.9980    0.1370 C   0  0  0  0  0  0  0  0  0  0  0  0
   -2.1580    1.5270    0.0360 C   0  0  0  0  0  0  0  0  0  0  0  0
   -3.3650    0.8670   -0.0500 C   0  0  0  0  0  0  0  0  0  0  0  0
   -3.3870   -0.5020   -0.1440 C   0  0  0  0  0  0  0  0  0  0  0  0
   -2.2330   -1.2840   -0.1590 C   0  0  0  0  0  0  0  0  0  0  0  0
   -2.3430   -2.7520   -0.2620 C   0  0  2  0  0  0  0  0  0  0  0  0
   -3.8260   -3.0980   -0.3360 C   0  0  0  0  0  0  0  0  0  0  0  0
   -1.8230   -3.4800    0.9660 C   0  0  0  0  0  0  0  0  0  0  0  0
   -1.7330   -3.3110   -1.5340 C   0  0  0  0  0  0  0  0  0  0  0  0
   -1.0170   -0.6320   -0.0740 C   0  0  0  0  0  0  0  0  0  0  0  0
    0.2280   -1.4210   -0.0870 C   0  0  0  0  0  0  0  0  0  0  0  0
    1.3170   -0.4820    0.0140 O   0  0  0  0  0  0  0  0  0  0  0  0
    2.6310   -0.9510    0.0240 C   0  0  0  0  0  0  0  0  0  0  0  0
    2.7660   -2.2040   -0.0580 O   0  0  0  0  0  0  0  0  0  0  0  0
    3.7860   -0.0700    0.1230 C   0  0  0  0  0  0  0  0  0  0  0  0
    5.0370   -0.5010    0.1350 C   0  0  0  0  0  0  0  0  0  0  0  0
    5.9800    0.6240    0.2430 C   0  0  0  0  0  0  0  0  0  0  0  0
    5.0970    1.7980    0.2950 C   0  0  0  0  0  0  0  0  0  0  0  0
    3.8400    1.3600    0.2240 C   0  0  0  0  0  0  0  0  0  0  0  0
    2.6620    2.2660    0.2480 C   0  0  0  0  0  0  0  0  0  0  0  0
   -1.0250    0.7480    0.0200 C   0  0  0  0  0  0  0  0  0  0  0  0
  1  2  1  0
  2  3  2  3
  3  4  1  0
  4  5  2  0
  4 23  1  0
  5  6  1  0
  6  7  2  0
  7  8  1  0
  7 12  1  0
  8  9  1  6
  8 10  1  0
  8 11  1  0
 12 13  1  0
 12 23  2  0
 13 14  1  0
 14 15  1  0
 15 16  2  0
 15 17  1  0
 17 18  2  0
 17 21  1  0
 18 19  1  0
 19 20  1  0
 20 21  2  0
 21 22  1  0
M  END
