
     RDKit          3D

 23 24  0  0  0  0  0  0  0  0999 V2000
   -1.3480   -3.4770    2.5130 C   0  0  0  0  0  0  0  0  0  0  0  0
   -2.0070   -2.2740    1.9100 C   0  0  0  0  0  0  0  0  0  0  0  0
   -1.2360   -1.8580    0.7980 O   0  0  0  0  0  0  0  0  0  0  0  0
   -1.6450   -0.7590    0.0700 C   0  0  0  0  0  0  0  0  0  0  0  0
   -2.5290   -0.9570   -0.9920 C   0  0  0  0  0  0  0  0  0  0  0  0
   -2.9870   -2.3530   -1.2840 C   0  0  0  0  0  0  0  0  0  0  0  0
   -2.9280    0.1370   -1.7050 C   0  0  0  0  0  0  0  0  0  0  0  0
   -2.4870    1.4110   -1.4070 C   0  0  0  0  0  0  0  0  0  0  0  0
   -2.9380    2.5880   -2.2190 C   0  0  1  0  0  0  0  0  0  0  0  0
   -4.0430    3.3560   -1.5700 C   0  0  0  0  0  0  0  0  0  0  0  0
   -1.8140    3.3470   -2.4760 O   0  0  0  0  0  0  0  0  0  0  0  0
   -1.6170    1.5910   -0.3590 C   0  0  0  0  0  0  0  0  0  0  0  0
   -1.1920    0.4860    0.3870 C   0  0  0  0  0  0  0  0  0  0  0  0
   -0.2390    0.7230    1.4610 C   0  0  0  0  0  0  0  0  0  0  0  0
    1.1780    0.4190    1.0390 C   0  0  0  0  0  0  0  0  0  0  0  0
    1.9020    1.3840    0.3590 C   0  0  0  0  0  0  0  0  0  0  0  0
    3.1980    1.2300   -0.0720 C   0  0  0  0  0  0  0  0  0  0  0  0
    3.9290    2.3030   -0.8000 C   0  0  0  0  0  0  0  0  0  0  0  0
    3.7850    0.0010    0.2180 C   0  0  0  0  0  0  0  0  0  0  0  0
    5.1750   -0.2580   -0.2040 C   0  0  0  0  0  0  0  0  0  0  0  0
    3.1050   -0.9910    0.8920 C   0  0  0  0  0  0  0  0  0  0  0  0
    3.7080   -2.3180    1.2100 C   0  0  0  0  0  0  0  0  0  0  0  0
    1.7810   -0.7810    1.3110 C   0  0  0  0  0  0  0  0  0  0  0  0
  1  2  1  0
  2  3  1  0
  3  4  1  0
  4  5  2  0
  4 13  1  0
  5  6  1  0
  5  7  1  0
  7  8  2  0
  8  9  1  0
  8 12  1  0
  9 10  1  1
  9 11  1  0
 12 13  2  0
 13 14  1  0
 14 15  1  0
 15 16  2  0
 15 23  1  0
 16 17  1  0
 17 18  1  0
 17 19  2  0
 19 20  1  0
 19 21  1  0
 21 22  1  0
 21 23  2  0
M  END
