
     RDKit          3D

 23 24  0  0  0  0  0  0  0  0999 V2000
   -1.3780    3.6610    0.7550 C   0  0  0  0  0  0  0  0  0  0  0  0
   -2.2070    2.4350    0.7600 C   0  0  0  0  0  0  0  0  0  0  0  0
   -1.9580    1.3840    0.0030 C   0  0  0  0  0  0  0  0  0  0  0  0
   -2.7770    0.1900    0.0160 C   0  0  0  0  0  0  0  0  0  0  0  0
   -3.9090    0.0650    0.8250 C   0  0  0  0  0  0  0  0  0  0  0  0
   -4.6400   -1.1280    0.7500 C   0  0  0  0  0  0  0  0  0  0  0  0
   -5.8430   -1.2820    1.5980 C   0  0  0  0  0  0  0  0  0  0  0  0
   -4.2800   -2.1650   -0.0860 C   0  0  0  0  0  0  0  0  0  0  0  0
   -5.1200   -3.4050   -0.1020 C   0  0  0  0  0  0  0  0  0  0  0  0
   -3.1600   -2.0250   -0.8760 C   0  0  0  0  0  0  0  0  0  0  0  0
   -2.4260   -0.8480   -0.8110 C   0  0  0  0  0  0  0  0  0  0  0  0
   -1.2210   -0.7430   -1.6490 C   0  0  0  0  0  0  0  0  0  0  0  0
   -0.0230   -1.0280   -0.7430 C   0  0  0  0  0  0  0  0  0  0  0  0
    1.1820   -0.9050   -1.5960 C   0  0  0  0  0  0  0  0  0  0  0  0
    2.0870   -0.0190   -1.2790 C   0  0  0  0  0  0  0  0  0  0  0  0
    3.3480    0.2320   -2.0230 C   0  0  0  0  0  0  0  0  0  0  0  0
    4.4820   -0.0090   -1.0530 C   0  0  0  0  0  0  0  0  0  0  0  0
    4.2840    0.6950    0.2360 C   0  0  1  0  0  0  0  0  0  0  0  0
    4.2730   -0.3620    1.3510 C   0  0  0  0  0  0  0  0  0  0  0  0
    5.4300    1.6710    0.4670 C   0  0  0  0  0  0  0  0  0  0  0  0
    6.6520    1.0350    0.5110 O   0  0  0  0  0  0  0  0  0  0  0  0
    3.0140    1.4670    0.3890 C   0  0  0  0  0  0  0  0  0  0  0  0
    1.8940    0.7760   -0.1570 O   0  0  0  0  0  0  0  0  0  0  0  0
  1  2  1  0
  2  3  2  3
  3  4  1  0
  4  5  2  0
  4 11  1  0
  5  6  1  0
  6  7  1  0
  6  8  2  0
  8  9  1  0
  8 10  1  0
 10 11  2  0
 11 12  1  0
 12 13  1  0
 13 14  1  0
 14 15  2  3
 15 16  1  0
 15 23  1  0
 16 17  1  0
 17 18  1  0
 18 19  1  1
 18 20  1  0
 18 22  1  0
 20 21  1  0
 22 23  1  0
M  END
