
     RDKit          3D

 25 27  0  0  0  0  0  0  0  0999 V2000
   -4.4250   -2.5010    1.2320 C   0  0  0  0  0  0  0  0  0  0  0  0
   -3.0570   -2.1290    1.0320 N   0  0  0  0  0  0  0  0  0  0  0  0
   -2.7400   -0.8250    0.5810 C   0  0  0  0  0  0  0  0  0  0  0  0
   -3.6310    0.1570    0.3060 N   0  0  0  0  0  0  0  0  0  0  0  0
   -2.9520    1.2240   -0.0860 C   0  0  0  0  0  0  0  0  0  0  0  0
   -3.4310    2.4780   -0.4740 C   0  0  0  0  0  0  0  0  0  0  0  0
   -4.8200    2.7530   -0.4870 N   0  0  0  0  0  0  0  0  0  0  0  0
   -2.5310    3.4030   -0.8320 N   0  0  0  0  0  0  0  0  0  0  0  0
   -1.2060    3.1220   -0.8140 C   0  0  0  0  0  0  0  0  0  0  0  0
   -0.7400    1.9050   -0.4370 N   0  0  0  0  0  0  0  0  0  0  0  0
   -1.6090    0.9340   -0.0660 C   0  0  0  0  0  0  0  0  0  0  0  0
   -1.4930   -0.3210    0.3440 N   0  0  0  0  0  0  0  0  0  0  0  0
   -0.2770   -1.0720    0.5240 C   0  0  2  0  0  0  0  0  0  0  0  0
    0.7910   -0.2740    0.9170 O   0  0  0  0  0  0  0  0  0  0  0  0
    1.8840   -1.0760    0.5830 C   0  0  2  0  0  0  0  0  0  0  0  0
    3.2030   -0.6030    0.9990 C   0  0  0  0  0  0  0  0  0  0  0  0
    3.6940    0.5970    0.6850 O   0  0  0  0  0  0  0  0  0  0  0  0
    3.8360    0.9420   -0.6050 C   0  0  0  0  0  0  0  0  0  0  0  0
    4.5040    2.2800   -0.7770 C   0  0  0  0  0  0  0  0  0  0  0  0
    4.9350    3.0860    0.2960 N   0  0  0  0  0  0  0  0  0  0  0  0
    4.6770    2.6790   -1.9490 O   0  0  0  0  0  0  0  0  0  0  0  0
    1.6160   -1.4720   -0.8160 C   0  0  1  0  0  0  0  0  0  0  0  0
    2.3470   -2.6020   -1.1920 O   0  0  0  0  0  0  0  0  0  0  0  0
    0.1170   -1.8650   -0.6790 C   0  0  1  0  0  0  0  0  0  0  0  0
    0.1030   -3.2400   -0.4390 O   0  0  0  0  0  0  0  0  0  0  0  0
  1  2  1  0
  2  3  1  0
  3  4  2  0
  3 12  1  0
  4  5  1  0
  5  6  2  0
  5 11  1  0
  6  7  1  0
  6  8  1  0
  8  9  2  0
  9 10  1  0
 10 11  2  0
 11 12  1  0
 13 12  1  6
 13 14  1  0
 13 24  1  0
 14 15  1  0
 15 16  1  6
 15 22  1  0
 16 17  1  0
 17 18  1  0
 18 19  1  0
 19 20  1  0
 19 21  2  0
 22 23  1  1
 22 24  1  0
 24 25  1  1
M  END
