
     RDKit          3D

 23 24  0  0  0  0  0  0  0  0999 V2000
   -1.9700    3.6690   -0.1530 C   0  0  0  0  0  0  0  0  0  0  0  0
   -2.6540    2.5830    0.6570 C   0  0  0  0  0  0  0  0  0  0  0  0
   -1.9810    1.3360    0.3210 C   0  0  0  0  0  0  0  0  0  0  0  0
   -1.4210    0.2830    0.0180 C   0  0  0  0  0  0  0  0  0  0  0  0
   -0.7300   -0.9630   -0.3490 C   0  0  0  0  0  0  0  0  0  0  0  0
    0.5550   -1.0350   -0.2890 C   0  0  0  0  0  0  0  0  0  0  0  0
    1.4100    0.0980    0.1250 C   0  0  0  0  0  0  0  0  0  0  0  0
    1.2090    1.3530   -0.4030 C   0  0  0  0  0  0  0  0  0  0  0  0
    1.9670    2.4540   -0.0230 C   0  0  0  0  0  0  0  0  0  0  0  0
    2.9520    2.2620    0.9180 C   0  0  0  0  0  0  0  0  0  0  0  0
    3.7620    3.4480    1.3180 C   0  0  0  0  0  0  0  0  0  0  0  0
    3.3550    4.5910    0.6390 O   0  0  0  0  0  0  0  0  0  0  0  0
    3.1890    1.0310    1.4710 C   0  0  0  0  0  0  0  0  0  0  0  0
    4.1960    0.8860    2.4190 O   0  0  0  0  0  0  0  0  0  0  0  0
    4.4860   -0.3610    3.0240 C   0  0  0  0  0  0  0  0  0  0  0  0
    2.4070   -0.0330    1.0590 C   0  0  0  0  0  0  0  0  0  0  0  0
   -1.5190   -2.0270   -0.9620 C   0  0  0  0  0  0  0  0  0  0  0  0
   -1.0100   -3.1620   -1.5240 C   0  0  0  0  0  0  0  0  0  0  0  0
   -1.8240   -4.1380   -2.1020 C   0  0  0  0  0  0  0  0  0  0  0  0
   -3.1800   -3.9770   -2.1210 C   0  0  0  0  0  0  0  0  0  0  0  0
   -4.0500   -5.0010   -2.7300 C   0  0  0  0  0  0  0  0  0  0  0  0
   -3.7240   -2.8460   -1.5640 C   0  0  0  0  0  0  0  0  0  0  0  0
   -2.9150   -1.8920   -0.9970 C   0  0  0  0  0  0  0  0  0  0  0  0
  1  2  1  0
  2  3  1  0
  3  4  3  0
  4  5  1  0
  5  6  2  3
  5 17  1  0
  6  7  1  0
  7  8  2  0
  7 16  1  0
  8  9  1  0
  9 10  2  0
 10 11  1  0
 10 13  1  0
 11 12  1  0
 13 14  1  0
 13 16  2  0
 14 15  1  0
 17 18  2  0
 17 23  1  0
 18 19  1  0
 19 20  2  0
 20 21  1  0
 20 22  1  0
 22 23  2  0
M  END
