
     RDKit          3D

 23 24  0  0  0  0  0  0  0  0999 V2000
   -3.9860   -2.6050   -0.4410 C   0  0  0  0  0  0  0  0  0  0  0  0
   -3.1280   -1.6260    0.3420 C   0  0  0  0  0  0  0  0  0  0  0  0
   -2.2780   -2.1280    1.1990 C   0  0  0  0  0  0  0  0  0  0  0  0
   -1.3100   -1.5620    2.1040 C   0  0  0  0  0  0  0  0  0  0  0  0
    0.0060   -1.3540    1.9830 C   0  0  0  0  0  0  0  0  0  0  0  0
    0.9600   -1.5930    0.9560 C   0  0  0  0  0  0  0  0  0  0  0  0
    1.6670   -0.8600    0.1070 C   0  0  0  0  0  0  0  0  0  0  0  0
    2.5420   -1.7430   -0.7850 C   0  0  0  0  0  0  0  0  0  0  0  0
    3.4290   -1.0370   -1.6820 C   0  0  0  0  0  0  0  0  0  0  0  0
    4.3330   -1.8760   -2.5770 C   0  0  0  0  0  0  0  0  0  0  0  0
    3.4750    0.2600   -1.7440 C   0  0  0  0  0  0  0  0  0  0  0  0
    2.6360    1.0900   -0.9110 C   0  0  0  0  0  0  0  0  0  0  0  0
    1.7560    0.5830   -0.0170 C   0  0  0  0  0  0  0  0  0  0  0  0
    1.0110    1.6320    0.7220 C   0  0  0  0  0  0  0  0  0  0  0  0
    1.7420    2.5780    1.3460 C   0  0  0  0  0  0  0  0  0  0  0  0
    1.2740    3.7150    2.1310 C   0  0  0  0  0  0  0  0  0  0  0  0
   -0.0650    3.8700    2.2610 O   0  0  0  0  0  0  0  0  0  0  0  0
   -0.4610    1.6880    0.8030 C   0  0  0  0  0  0  0  0  0  0  0  0
   -0.9560    1.6470    1.9600 O   0  0  0  0  0  0  0  0  0  0  0  0
   -1.4000    1.7850   -0.3270 C   0  0  0  0  0  0  0  0  0  0  0  0
   -1.5290    0.5760   -1.1800 C   0  0  0  0  0  0  0  0  0  0  0  0
   -2.9830    0.1960   -1.3480 C   0  0  0  0  0  0  0  0  0  0  0  0
   -3.4530   -0.2280    0.0180 C   0  0  0  0  0  0  0  0  0  0  0  0
  1  2  1  0
  2  3  2  0
  2 23  1  0
  3  4  1  0
  4  5  2  0
  5  6  1  0
  6  7  2  0
  7  8  1  0
  7 13  1  0
  8  9  1  0
  9 10  1  0
  9 11  2  0
 11 12  1  0
 12 13  2  0
 13 14  1  0
 14 15  2  3
 14 18  1  0
 15 16  1  0
 16 17  1  0
 18 19  2  0
 18 20  1  0
 20 21  1  0
 21 22  1  0
 22 23  1  0
M  END
