
     RDKit          3D

 23 24  0  0  0  0  0  0  0  0999 V2000
    2.2880    2.0070    2.0980 C   0  0  0  0  0  0  0  0  0  0  0  0
    3.0360    1.4470    1.1010 C   0  0  0  0  0  0  0  0  0  0  0  0
    4.3990    1.9830    1.0280 C   0  0  0  0  0  0  0  0  0  0  0  0
    2.4140    0.4450    0.2840 C   0  0  0  0  0  0  0  0  0  0  0  0
    2.8720   -0.2380   -0.7050 C   0  0  0  0  0  0  0  0  0  0  0  0
    4.1520   -0.1360   -1.2150 C   0  0  0  0  0  0  0  0  0  0  0  0
    4.6530   -0.8760   -2.2890 C   0  0  0  0  0  0  0  0  0  0  0  0
    3.7970   -1.7640   -2.8680 C   0  0  0  0  0  0  0  0  0  0  0  0
    2.5060   -1.9320   -2.4260 C   0  0  0  0  0  0  0  0  0  0  0  0
    2.0380   -1.1700   -1.3420 C   0  0  0  0  0  0  0  0  0  0  0  0
    0.8010   -1.3650   -0.9570 C   0  0  0  0  0  0  0  0  0  0  0  0
   -0.0950   -2.3860   -1.6650 C   0  0  0  0  0  0  0  0  0  0  0  0
   -1.4860   -2.1450   -1.1390 C   0  0  0  0  0  0  0  0  0  0  0  0
   -1.3660   -0.7470   -0.5560 C   0  0  1  0  0  0  0  0  0  0  0  0
   -1.2410    0.2350   -1.6710 C   0  0  0  0  0  0  0  0  0  0  0  0
   -0.7620    1.4520   -1.2440 O   0  0  0  0  0  0  0  0  0  0  0  0
   -2.4030   -0.4550    0.4680 C   0  0  2  0  0  0  0  0  0  0  0  0
   -2.3280   -1.3920    1.6520 C   0  0  0  0  0  0  0  0  0  0  0  0
   -3.7640   -0.7550   -0.1790 C   0  0  0  0  0  0  0  0  0  0  0  0
   -2.3530    0.9510    0.9720 C   0  0  0  0  0  0  0  0  0  0  0  0
   -3.3910    1.2700    2.0270 C   0  0  0  0  0  0  0  0  0  0  0  0
   -3.2040    2.7450    2.4190 C   0  0  0  0  0  0  0  0  0  0  0  0
   -0.0420   -0.8740    0.0070 O   0  0  0  0  0  0  0  0  0  0  0  0
  1  2  2  0
  2  3  1  0
  2  4  1  0
  4  5  2  3
  5  6  1  0
  5 10  1  0
  6  7  2  0
  7  8  1  0
  8  9  2  0
  9 10  1  0
 10 11  2  3
 11 12  1  0
 11 23  1  0
 12 13  1  0
 13 14  1  0
 14 15  1  6
 14 17  1  0
 14 23  1  0
 15 16  1  0
 17 18  1  1
 17 19  1  0
 17 20  1  0
 20 21  1  0
 21 22  1  0
M  END
