
     RDKit          3D

 23 24  0  0  0  0  0  0  0  0999 V2000
   -3.9920    2.5290   -1.6720 C   0  0  0  0  0  0  0  0  0  0  0  0
   -3.9360    2.5720   -0.1620 C   0  0  0  0  0  0  0  0  0  0  0  0
   -3.7430    1.1650    0.2990 C   0  0  0  0  0  0  0  0  0  0  0  0
   -4.7640    0.4590    0.8400 C   0  0  0  0  0  0  0  0  0  0  0  0
   -4.5380   -0.8110    1.2480 C   0  0  0  0  0  0  0  0  0  0  0  0
   -3.2560   -1.3940    1.1140 C   0  0  0  0  0  0  0  0  0  0  0  0
   -3.0990   -2.7580    1.6600 C   0  0  0  0  0  0  0  0  0  0  0  0
   -2.1950   -0.7180    0.5700 C   0  0  0  0  0  0  0  0  0  0  0  0
   -0.9190   -1.3700    0.3310 C   0  0  0  0  0  0  0  0  0  0  0  0
   -0.7610   -2.8190    0.0430 C   0  0  0  0  0  0  0  0  0  0  0  0
    0.1980   -0.6610    0.2570 C   0  0  0  0  0  0  0  0  0  0  0  0
    1.5330   -1.1330    0.0280 C   0  0  0  0  0  0  0  0  0  0  0  0
    1.7280   -2.3820   -0.1120 O   0  0  0  0  0  0  0  0  0  0  0  0
    2.6810   -0.2150   -0.0480 C   0  0  0  0  0  0  0  0  0  0  0  0
    2.4820    1.1410    0.0370 C   0  0  0  0  0  0  0  0  0  0  0  0
    3.5980    1.9920   -0.0460 C   0  0  0  0  0  0  0  0  0  0  0  0
    4.8580    1.4860   -0.2080 C   0  0  0  0  0  0  0  0  0  0  0  0
    6.0560    2.3730   -0.2990 C   0  0  0  0  0  0  0  0  0  0  0  0
    5.0030    0.1350   -0.2880 C   0  0  0  0  0  0  0  0  0  0  0  0
    3.9460   -0.7620   -0.2130 C   0  0  0  0  0  0  0  0  0  0  0  0
    4.1820   -2.2090   -0.3060 C   0  0  0  0  0  0  0  0  0  0  0  0
   -2.4790    0.5940    0.1620 C   0  0  0  0  0  0  0  0  0  0  0  0
   -1.4900    1.3720   -0.4040 O   0  0  0  0  0  0  0  0  0  0  0  0
  1  2  1  0
  2  3  1  0
  3  4  2  0
  3 22  1  0
  4  5  1  0
  5  6  2  0
  6  7  1  0
  6  8  1  0
  8  9  1  0
  8 22  2  0
  9 10  1  0
  9 11  2  3
 11 12  1  0
 12 13  2  0
 12 14  1  0
 14 15  2  0
 14 20  1  0
 15 16  1  0
 16 17  2  0
 17 18  1  0
 17 19  1  0
 19 20  2  0
 20 21  1  0
 22 23  1  0
M  END
