
     RDKit          3D

 21 22  0  0  0  0  0  0  0  0999 V2000
    5.1480    1.4310   -0.6190 N   0  0  0  0  0  0  0  0  0  0  0  0
    4.5860   -0.1080   -0.0770 S   0  0  1  0  0  0  0  0  0  0  0  0
    4.9070   -1.1070   -1.1610 O   0  0  0  0  0  0  0  0  0  0  0  0
    5.2930   -0.4210    1.2030 O   0  0  0  0  0  0  0  0  0  0  0  0
    2.8410   -0.0540    0.1480 C   0  0  0  0  0  0  0  0  0  0  0  0
    2.2700    0.3080    1.3380 C   0  0  0  0  0  0  0  0  0  0  0  0
    0.9020    0.3390    1.4800 C   0  0  0  0  0  0  0  0  0  0  0  0
    0.0280    0.0080    0.4360 C   0  0  0  0  0  0  0  0  0  0  0  0
   -1.3630    0.0640    0.6580 N   0  0  0  0  0  0  0  0  0  0  0  0
   -2.3970   -0.2450   -0.2340 C   0  0  0  0  0  0  0  0  0  0  0  0
   -2.2550   -0.6650   -1.5020 N   0  0  0  0  0  0  0  0  0  0  0  0
   -3.2590   -0.9580   -2.3420 C   0  0  0  0  0  0  0  0  0  0  0  0
   -4.5190   -0.8230   -1.8910 N   0  0  0  0  0  0  0  0  0  0  0  0
   -4.7830   -0.4100   -0.6410 C   0  0  0  0  0  0  0  0  0  0  0  0
   -6.4220   -0.2240   -0.0210 Cl  0  0  0  0  0  0  0  0  0  0  0  0
   -3.7140   -0.1170    0.1980 C   0  0  0  0  0  0  0  0  0  0  0  0
   -3.9830    0.3150    1.5110 N   0  0  0  0  0  0  0  0  0  0  0  0
   -4.4140    1.4490    1.7560 O   0  0  0  0  0  0  0  0  0  0  0  0
   -3.7640   -0.5390    2.5540 O   0  0  0  0  0  0  0  0  0  0  0  0
    0.6140   -0.3500   -0.7410 C   0  0  0  0  0  0  0  0  0  0  0  0
    2.0110   -0.3840   -0.8960 C   0  0  0  0  0  0  0  0  0  0  0  0
  2  1  1  6
  2  3  2  0
  2  4  2  0
  2  5  1  0
  5  6  2  0
  5 21  1  0
  6  7  1  0
  7  8  2  0
  8  9  1  0
  8 20  1  0
  9 10  1  0
 10 11  2  0
 10 16  1  0
 11 12  1  0
 12 13  2  0
 13 14  1  0
 14 15  1  0
 14 16  2  0
 16 17  1  0
 17 18  2  0
 17 19  1  0
 20 21  2  0
M  CHG  2  17   1  19  -1
M  END
