
     RDKit          3D

 28 30  0  0  0  0  0  0  0  0999 V2000
   -7.5680   -1.2180   -0.9020 C   0  0  0  0  0  0  0  0  0  0  0  0
   -7.3870   -0.0470    0.0700 C   0  0  2  0  0  0  0  0  0  0  0  0
   -6.5030    1.0060   -0.4990 C   0  0  0  0  0  0  0  0  0  0  0  0
   -5.0750    0.8810   -0.1960 C   0  0  0  0  0  0  0  0  0  0  0  0
   -4.1470    1.6010   -0.9580 C   0  0  0  0  0  0  0  0  0  0  0  0
   -2.7990    1.5130   -0.7180 C   0  0  0  0  0  0  0  0  0  0  0  0
   -2.3000    0.7000    0.3000 C   0  0  0  0  0  0  0  0  0  0  0  0
   -0.8670    0.5680    0.5590 C   0  0  0  0  0  0  0  0  0  0  0  0
   -0.3550    0.6940    1.7050 O   0  0  0  0  0  0  0  0  0  0  0  0
   -0.0470    0.2850   -0.5370 N   0  0  0  0  0  0  0  0  0  0  0  0
    1.3440    0.1400   -0.4220 N   0  0  0  0  0  0  0  0  0  0  0  0
    2.1970    1.2060   -0.0540 C   0  0  0  0  0  0  0  0  0  0  0  0
    1.6730    2.3260    0.1900 O   0  0  0  0  0  0  0  0  0  0  0  0
    3.6180    1.0160    0.0350 C   0  0  0  0  0  0  0  0  0  0  0  0
    4.2150   -0.1210   -0.2140 C   0  0  0  0  0  0  0  0  0  0  0  0
    5.6690   -0.3080   -0.1260 C   0  0  0  0  0  0  0  0  0  0  0  0
    6.2440   -1.5430   -0.4140 C   0  0  0  0  0  0  0  0  0  0  0  0
    7.6060   -1.7550   -0.3660 C   0  0  0  0  0  0  0  0  0  0  0  0
    8.4720   -0.7430   -0.0250 C   0  0  0  0  0  0  0  0  0  0  0  0
   10.2340   -1.0010    0.0370 S   0  0  0  0  0  0  0  0  0  0  0  0
   10.5700   -1.8450    1.2800 O   0  0  0  0  0  0  0  0  0  0  0  0
    7.9150    0.4810    0.2620 C   0  0  0  0  0  0  0  0  0  0  0  0
    6.5340    0.7020    0.2150 C   0  0  0  0  0  0  0  0  0  0  0  0
   -3.2300    0.0080    1.0290 C   0  0  0  0  0  0  0  0  0  0  0  0
   -4.6100    0.0830    0.8000 C   0  0  0  0  0  0  0  0  0  0  0  0
   -5.5080   -0.6770    1.5900 N   0  0  0  0  0  0  0  0  0  0  0  0
   -6.8920   -0.6060    1.3410 C   0  0  0  0  0  0  0  0  0  0  0  0
   -7.6960   -1.0140    2.1920 O   0  0  0  0  0  0  0  0  0  0  0  0
  2  1  1  6
  2  3  1  0
  2 27  1  0
  3  4  1  0
  4  5  2  0
  4 25  1  0
  5  6  1  0
  6  7  2  0
  7  8  1  0
  7 24  1  0
  8  9  2  0
  8 10  1  0
 10 11  1  0
 11 12  1  0
 12 13  2  0
 12 14  1  0
 14 15  2  3
 15 16  1  0
 16 17  2  0
 16 23  1  0
 17 18  1  0
 18 19  2  0
 19 20  1  0
 19 22  1  0
 20 21  2  0
 22 23  2  0
 24 25  2  0
 25 26  1  0
 26 27  1  0
 27 28  2  0
M  END
