
     RDKit          3D

 19 20  0  0  0  0  0  0  0  0999 V2000
   -0.4480    2.9310   -0.1650 N   0  0  0  0  0  0  0  0  0  0  0  0
   -0.8250    1.5300   -0.2990 C   0  0  2  0  0  0  0  0  0  0  0  0
   -2.3190    1.3580   -0.2440 C   0  0  0  0  0  0  0  0  0  0  0  0
   -2.6470    0.0170   -0.7790 C   0  0  0  0  0  0  0  0  0  0  0  0
   -2.7700    0.0040   -2.0640 O   0  0  0  0  0  0  0  0  0  0  0  0
   -2.8290   -1.1730   -0.0700 N   0  0  0  0  0  0  0  0  0  0  0  0
   -1.9510   -1.8310    0.8270 C   0  0  0  0  0  0  0  0  0  0  0  0
   -2.3900   -1.9430    2.0410 O   0  0  0  0  0  0  0  0  0  0  0  0
   -0.6660   -2.3540    0.4790 N   0  0  0  0  0  0  0  0  0  0  0  0
   -0.0800   -2.4710   -0.7600 N   0  0  0  0  0  0  0  0  0  0  0  0
    0.4110   -1.4770   -1.6420 C   0  0  0  0  0  0  0  0  0  0  0  0
   -0.1480   -1.4540   -2.8140 O   0  0  0  0  0  0  0  0  0  0  0  0
    1.4270   -0.5210   -1.3970 N   0  0  0  0  0  0  0  0  0  0  0  0
    1.9370   -0.0810   -0.1210 C   0  0  0  0  0  0  0  0  0  0  0  0
    3.1900   -0.1270    0.3530 C   0  0  0  0  0  0  0  0  0  0  0  0
    3.2610    0.4290    1.7060 C   0  0  0  0  0  0  0  0  0  0  0  0
    1.8590    0.8180    1.9650 C   0  0  0  0  0  0  0  0  0  0  0  0
    1.1140    0.5220    0.9120 C   0  0  0  0  0  0  0  0  0  0  0  0
   -0.2750    0.7300    0.7380 O   0  0  0  0  0  0  0  0  0  0  0  0
  2  1  1  1
  2  3  1  0
  2 19  1  0
  3  4  1  0
  4  5  2  0
  4  6  1  0
  6  7  1  0
  7  8  2  0
  7  9  1  0
  9 10  1  0
 10 11  1  0
 11 12  2  0
 11 13  1  0
 13 14  1  0
 14 15  2  0
 14 18  1  0
 15 16  1  0
 16 17  1  0
 17 18  2  0
 18 19  1  0
M  END
