
     RDKit          3D

 28 30  0  0  0  0  0  0  0  0999 V2000
   -5.9860    1.0940    2.5710 C   0  0  0  0  0  0  0  0  0  0  0  0
   -4.8540    0.5760    1.8240 N   0  0  0  0  0  0  0  0  0  0  0  0
   -4.8640    0.7920    0.4040 C   0  0  0  0  0  0  0  0  0  0  0  0
   -5.8540    1.4300   -0.2050 N   0  0  0  0  0  0  0  0  0  0  0  0
   -5.8930    1.6480   -1.5290 C   0  0  0  0  0  0  0  0  0  0  0  0
   -4.8430    1.1780   -2.2780 C   0  0  0  0  0  0  0  0  0  0  0  0
   -3.7910    0.5070   -1.6780 C   0  0  0  0  0  0  0  0  0  0  0  0
   -3.7800    0.2990   -0.3240 C   0  0  0  0  0  0  0  0  0  0  0  0
   -2.6690   -0.3790    0.3710 C   0  0  0  0  0  0  0  0  0  0  0  0
   -1.6260   -0.9290   -0.3620 N   0  0  0  0  0  0  0  0  0  0  0  0
   -1.8070   -2.0660   -1.1490 C   0  0  0  0  0  0  0  0  0  0  0  0
   -2.1680   -3.2260   -0.1860 C   0  0  0  0  0  0  0  0  0  0  0  0
   -1.1200   -2.9860    1.2770 S   0  0  0  0  0  0  0  0  0  0  0  0
    0.4450   -2.2890    0.7670 C   0  0  0  0  0  0  0  0  0  0  0  0
    1.3940   -2.7610    1.3680 O   0  0  0  0  0  0  0  0  0  0  0  0
    0.8070   -1.2530   -0.2440 C   0  0  2  0  0  0  0  0  0  0  0  0
    1.9080   -0.5530    0.2870 O   0  0  0  0  0  0  0  0  0  0  0  0
    3.0980   -0.5200   -0.4710 C   0  0  0  0  0  0  0  0  0  0  0  0
    3.1360   -1.1040   -1.5690 O   0  0  0  0  0  0  0  0  0  0  0  0
    4.2710    0.1830    0.0150 C   0  0  0  0  0  0  0  0  0  0  0  0
    4.1740    0.8110    1.2480 C   0  0  0  0  0  0  0  0  0  0  0  0
    5.2650    1.4730    1.7280 C   0  0  0  0  0  0  0  0  0  0  0  0
    6.4370    1.5000    0.9750 C   0  0  0  0  0  0  0  0  0  0  0  0
    7.5830    2.2420    1.5640 C   0  0  0  0  0  0  0  0  0  0  0  0
    6.5200    0.8760   -0.2390 C   0  0  0  0  0  0  0  0  0  0  0  0
    5.4180    0.1970   -0.7460 C   0  0  0  0  0  0  0  0  0  0  0  0
    5.5870   -0.3960   -1.9610 O   0  0  0  0  0  0  0  0  0  0  0  0
   -0.3610   -0.3080   -0.3190 C   0  0  0  0  0  0  0  0  0  0  0  0
  1  2  1  0
  2  3  1  0
  3  4  2  0
  3  8  1  0
  4  5  1  0
  5  6  2  0
  6  7  1  0
  7  8  2  0
  8  9  1  0
  9 10  1  0
 10 11  1  0
 10 28  1  0
 11 12  1  0
 12 13  1  0
 13 14  1  0
 14 15  2  0
 14 16  1  0
 16 17  1  1
 16 28  1  0
 17 18  1  0
 18 19  2  0
 18 20  1  0
 20 21  2  0
 20 26  1  0
 21 22  1  0
 22 23  2  0
 23 24  1  0
 23 25  1  0
 25 26  2  0
 26 27  1  0
M  END
