
     RDKit          3D

 28 30  0  0  0  0  0  0  0  0999 V2000
    3.1460   -2.0500   -1.4650 C   0  0  0  0  0  0  0  0  0  0  0  0
    3.1760   -1.9270   -0.1810 N   0  0  0  0  0  0  0  0  0  0  0  0
    3.5350   -0.6220    0.3220 C   0  0  0  0  0  0  0  0  0  0  0  0
    4.7840   -0.4870    0.7310 C   0  0  0  0  0  0  0  0  0  0  0  0
    5.5150    0.6590    1.2960 C   0  0  0  0  0  0  0  0  0  0  0  0
    5.8280    1.7980    0.4420 C   0  0  0  0  0  0  0  0  0  0  0  0
    4.8340    2.4260   -0.4290 C   0  0  0  0  0  0  0  0  0  0  0  0
    3.5520    2.6780    0.1130 O   0  0  0  0  0  0  0  0  0  0  0  0
    2.4470    1.7760    0.2060 C   0  0  0  0  0  0  0  0  0  0  0  0
    1.3510    2.3220    0.2540 O   0  0  0  0  0  0  0  0  0  0  0  0
    2.3660    0.3180    0.2580 C   0  0  0  0  0  0  0  0  0  0  0  0
    1.2300   -0.2780    0.2570 C   0  0  0  0  0  0  0  0  0  0  0  0
   -0.1030    0.1680    0.2090 N   0  0  0  0  0  0  0  0  0  0  0  0
   -1.2240   -0.7140    0.2240 C   0  0  0  0  0  0  0  0  0  0  0  0
   -0.8750   -1.9610    0.2760 O   0  0  0  0  0  0  0  0  0  0  0  0
   -2.6130   -0.4340    0.1950 C   0  0  0  0  0  0  0  0  0  0  0  0
   -3.2090    0.6950    0.1910 C   0  0  0  0  0  0  0  0  0  0  0  0
   -2.6780    2.0280    0.2230 C   0  0  0  0  0  0  0  0  0  0  0  0
   -2.1520    2.7640    1.2700 C   0  0  0  0  0  0  0  0  0  0  0  0
   -1.7100    3.9870    1.0540 C   0  0  0  0  0  0  0  0  0  0  0  0
   -1.7620    4.5530   -0.2050 C   0  0  0  0  0  0  0  0  0  0  0  0
   -2.5280    3.1460   -1.1240 S   0  0  0  0  0  0  0  0  0  0  0  0
   -3.4860   -1.6120    0.1670 N   0  0  0  0  0  0  0  0  0  0  0  0
   -4.5000   -1.8390    1.1590 C   0  0  0  0  0  0  0  0  0  0  0  0
   -4.8900   -3.3160    1.0030 C   0  0  0  0  0  0  0  0  0  0  0  0
   -5.4820   -3.4990   -0.2430 O   0  0  0  0  0  0  0  0  0  0  0  0
   -4.6670   -3.1580   -1.3050 C   0  0  0  0  0  0  0  0  0  0  0  0
   -3.3430   -2.6020   -0.8890 C   0  0  0  0  0  0  0  0  0  0  0  0
  1  2  2  0
  2  3  1  0
  3  4  2  0
  3 11  1  0
  4  5  1  0
  5  6  1  0
  6  7  1  0
  7  8  1  0
  8  9  1  0
  9 10  2  0
  9 11  1  0
 11 12  2  3
 12 13  1  0
 13 14  1  0
 14 15  2  0
 14 16  1  0
 16 17  2  3
 16 23  1  0
 17 18  1  0
 18 19  2  0
 18 22  1  0
 19 20  1  0
 20 21  2  0
 21 22  1  0
 23 24  1  0
 23 28  1  0
 24 25  1  0
 25 26  1  0
 26 27  1  0
 27 28  1  0
M  END
