
     RDKit          3D

 19 20  0  0  0  0  0  0  0  0999 V2000
   -1.0570    0.7220    1.7890 C   0  0  0  0  0  0  0  0  0  0  0  0
   -0.8010   -0.4840    0.9380 C   0  0  2  0  0  0  0  0  0  0  0  0
    0.4500   -0.3290    0.1080 C   0  0  0  0  0  0  0  0  0  0  0  0
    0.3900   -0.3740   -1.1510 O   0  0  0  0  0  0  0  0  0  0  0  0
    1.6890   -0.1320    0.7590 N   0  0  0  0  0  0  0  0  0  0  0  0
    2.9240    0.0250    0.0880 C   0  0  0  0  0  0  0  0  0  0  0  0
    3.1430    0.0170   -1.2640 C   0  0  0  0  0  0  0  0  0  0  0  0
    4.4800    0.2020   -1.5030 N   0  0  0  0  0  0  0  0  0  0  0  0
    5.1300    0.3290   -0.3420 C   0  0  0  0  0  0  0  0  0  0  0  0
    4.1630    0.2190    0.6590 C   0  0  0  0  0  0  0  0  0  0  0  0
    4.3620    0.2870    2.0320 O   0  0  0  0  0  0  0  0  0  0  0  0
   -1.9880   -0.7780    0.0730 C   0  0  2  0  0  0  0  0  0  0  0  0
   -2.2720    0.3490   -0.8000 N   0  0  0  0  0  0  0  0  0  0  0  0
   -3.5990    0.6070   -1.2550 C   0  0  0  0  0  0  0  0  0  0  0  0
   -3.8060    1.3180   -2.2500 O   0  0  0  0  0  0  0  0  0  0  0  0
   -4.7120    0.0470   -0.5650 N   0  0  0  0  0  0  0  0  0  0  0  0
   -4.4890   -0.7470    0.5450 N   0  0  0  0  0  0  0  0  0  0  0  0
   -3.1550   -0.9820    0.9700 C   0  0  0  0  0  0  0  0  0  0  0  0
   -2.9720   -1.3830    2.1680 O   0  0  0  0  0  0  0  0  0  0  0  0
  2  1  1  6
  2  3  1  0
  2 12  1  0
  3  4  2  0
  3  5  1  0
  5  6  1  0
  6  7  2  0
  6 10  1  0
  7  8  1  0
  8  9  1  0
  9 10  2  0
 10 11  1  0
 12 13  1  6
 12 18  1  0
 13 14  1  0
 14 15  2  0
 14 16  1  0
 16 17  1  0
 17 18  1  0
 18 19  2  0
M  END
