
     RDKit          3D

 28 30  0  0  0  0  0  0  0  0999 V2000
   -0.2910   -3.6320   -2.2520 C   0  0  0  0  0  0  0  0  0  0  0  0
   -0.4300   -2.5610   -1.2280 C   0  0  0  0  0  0  0  0  0  0  0  0
    0.4600   -1.4790   -1.2170 C   0  0  0  0  0  0  0  0  0  0  0  0
    0.3530   -0.4830   -0.2860 C   0  0  0  0  0  0  0  0  0  0  0  0
    1.2880    0.6480   -0.2750 C   0  0  1  0  0  0  0  0  0  0  0  0
    2.6040    0.3100    0.2950 C   0  0  0  0  0  0  0  0  0  0  0  0
    3.5580    0.6370   -0.5440 C   0  0  0  0  0  0  0  0  0  0  0  0
    4.9830    0.4560   -0.3310 N   0  0  0  0  0  0  0  0  0  0  0  0
    5.9480    1.1330   -1.1740 C   0  0  0  0  0  0  0  0  0  0  0  0
    7.3000    0.4640   -0.8850 C   0  0  0  0  0  0  0  0  0  0  0  0
    7.6780    0.6240    0.4360 O   0  0  0  0  0  0  0  0  0  0  0  0
    6.6760    0.3890    1.3430 C   0  0  0  0  0  0  0  0  0  0  0  0
    5.5180   -0.3920    0.7070 C   0  0  0  0  0  0  0  0  0  0  0  0
    2.9510    1.2180   -1.7320 C   0  0  0  0  0  0  0  0  0  0  0  0
    3.6030    1.6450   -2.7470 O   0  0  0  0  0  0  0  0  0  0  0  0
    1.5550    1.2140   -1.5410 N   0  0  0  0  0  0  0  0  0  0  0  0
   -0.6480   -0.5500    0.6510 C   0  0  0  0  0  0  0  0  0  0  0  0
   -1.5560   -1.6010    0.6820 C   0  0  0  0  0  0  0  0  0  0  0  0
   -2.8020   -1.6080    1.9110 S   0  0  2  0  0  0  0  0  0  0  0  0
   -2.2340   -0.9140    3.1150 O   0  0  0  0  0  0  0  0  0  0  0  0
   -3.1170   -3.0100    2.3030 O   0  0  0  0  0  0  0  0  0  0  0  0
   -4.2270   -0.8220    1.4190 N   0  0  0  0  0  0  0  0  0  0  0  0
   -4.0200    0.5820    1.1160 C   0  0  0  0  0  0  0  0  0  0  0  0
   -5.2830    1.2590    0.6860 C   0  0  2  0  0  0  0  0  0  0  0  0
   -5.8800    0.6410   -0.5520 C   0  0  0  0  0  0  0  0  0  0  0  0
   -4.9510    2.7150    0.4050 C   0  0  0  0  0  0  0  0  0  0  0  0
   -6.3470    1.2480    1.7570 C   0  0  0  0  0  0  0  0  0  0  0  0
   -1.4350   -2.6010   -0.2650 C   0  0  0  0  0  0  0  0  0  0  0  0
  1  2  1  0
  2  3  2  0
  2 28  1  0
  3  4  1  0
  5  4  1  6
  4 17  2  0
  5  6  1  0
  5 16  1  0
  6  7  2  0
  7  8  1  0
  7 14  1  0
  8  9  1  0
  8 13  1  0
  9 10  1  0
 10 11  1  0
 11 12  1  0
 12 13  1  0
 14 15  2  0
 14 16  1  0
 17 18  1  0
 18 19  1  0
 18 28  2  0
 19 20  2  0
 19 21  2  0
 19 22  1  6
 22 23  1  0
 23 24  1  0
 24 25  1  6
 24 26  1  0
 24 27  1  0
M  END
