
     RDKit          3D

 12 12  0  0  0  0  0  0  0  0999 V2000
    2.7530   -0.4880   -0.7590 C   0  0  0  0  0  0  0  0  0  0  0  0
    1.6770   -0.7750    0.2150 N   0  0  0  0  0  0  0  0  0  0  0  0
    0.9160    0.3860    0.4200 C   0  0  2  0  0  0  0  0  0  0  0  0
    0.8900    1.0630    1.7560 C   0  0  0  0  0  0  0  0  0  0  0  0
   -0.3850    0.4280   -0.2770 C   0  0  0  0  0  0  0  0  0  0  0  0
   -0.6010    1.2020   -1.3520 N   0  0  0  0  0  0  0  0  0  0  0  0
   -1.7460    1.1830   -2.0540 C   0  0  0  0  0  0  0  0  0  0  0  0
   -2.7370    0.3490   -1.6620 N   0  0  0  0  0  0  0  0  0  0  0  0
   -2.5810   -0.4560   -0.5780 C   0  0  0  0  0  0  0  0  0  0  0  0
   -3.6500   -1.3100   -0.1960 O   0  0  0  0  0  0  0  0  0  0  0  0
   -1.3980   -0.4180    0.1160 C   0  0  0  0  0  0  0  0  0  0  0  0
   -1.2230   -1.2370    1.2410 O   0  0  0  0  0  0  0  0  0  0  0  0
  1  2  1  0
  2  3  1  0
  3  4  1  1
  3  5  1  0
  5  6  2  0
  5 11  1  0
  6  7  1  0
  7  8  2  0
  8  9  1  0
  9 10  1  0
  9 11  2  0
 11 12  1  0
M  CHG  1   2   1
M  END
