
     RDKit          3D

 12 12  0  0  0  0  0  0  0  0999 V2000
   -2.7530    0.7180    1.0980 C   0  0  0  0  0  0  0  0  0  0  0  0
   -2.8860   -0.0400   -0.2030 C   0  0  1  0  0  0  0  0  0  0  0  0
   -2.9360    0.8130   -1.2840 O   0  0  0  0  0  0  0  0  0  0  0  0
   -1.7670   -1.0450   -0.3750 C   0  0  0  0  0  0  0  0  0  0  0  0
   -0.4830   -0.3320   -0.3720 C   0  0  0  0  0  0  0  0  0  0  0  0
    0.6000   -0.9230   -0.0100 N   0  0  0  0  0  0  0  0  0  0  0  0
    1.8630   -0.3030    0.0170 C   0  0  0  0  0  0  0  0  0  0  0  0
    2.5490    0.1900   -1.0590 C   0  0  0  0  0  0  0  0  0  0  0  0
    3.7340    0.7150   -0.6390 N   0  0  0  0  0  0  0  0  0  0  0  0
    3.7390    0.5280    0.6960 C   0  0  0  0  0  0  0  0  0  0  0  0
    4.6720    0.8780    1.4710 O   0  0  0  0  0  0  0  0  0  0  0  0
    2.6100   -0.0880    1.0990 N   0  0  0  0  0  0  0  0  0  0  0  0
  2  1  1  1
  2  3  1  0
  2  4  1  0
  4  5  1  0
  5  6  2  3
  6  7  1  0
  7  8  2  0
  7 12  1  0
  8  9  1  0
  9 10  1  0
 10 11  2  0
 10 12  1  0
M  CHG  1   6   1
M  END
