
     RDKit          3D

 12 12  0  0  0  0  0  0  0  0999 V2000
    5.0440    0.2270    0.9890 C   0  0  0  0  0  0  0  0  0  0  0  0
    3.7940   -0.4380    0.9230 O   0  0  0  0  0  0  0  0  0  0  0  0
    2.7950   -0.0590    0.0300 C   0  0  0  0  0  0  0  0  0  0  0  0
    3.0570    0.9080   -0.7220 O   0  0  0  0  0  0  0  0  0  0  0  0
    1.4950   -0.7170   -0.0690 C   0  0  0  0  0  0  0  0  0  0  0  0
    0.6980   -0.0820   -1.0910 N   0  0  0  0  0  0  0  0  0  0  0  0
   -0.5370   -0.7640   -1.1320 N   0  0  0  0  0  0  0  0  0  0  0  0
   -1.6440   -0.1870   -0.4560 C   0  0  0  0  0  0  0  0  0  0  0  0
   -1.7960    1.0850   -0.1290 C   0  0  0  0  0  0  0  0  0  0  0  0
   -3.1070    1.2530    0.5690 C   0  0  0  0  0  0  0  0  0  0  0  0
   -3.8610    0.1430   -0.0340 N   0  0  0  0  0  0  0  0  0  0  0  0
   -2.8540   -0.9050    0.0170 C   0  0  0  0  0  0  0  0  0  0  0  0
  1  2  1  0
  2  3  1  0
  3  4  2  0
  3  5  1  0
  5  6  1  0
  6  7  1  0
  7  8  1  0
  8  9  2  0
  8 12  1  0
  9 10  1  0
 10 11  1  0
 11 12  1  0
M  CHG  1  11   1
M  END
