
     RDKit          3D

 12 12  0  0  0  0  0  0  0  0999 V2000
   -4.6810    0.2730    0.3190 N   0  0  0  0  0  0  0  0  0  0  0  0
   -3.4350   -0.3220    0.0030 C   0  0  0  0  0  0  0  0  0  0  0  0
   -3.3170   -1.7290    0.2340 N   0  0  0  0  0  0  0  0  0  0  0  0
   -2.4540    0.3510   -0.4660 N   0  0  0  0  0  0  0  0  0  0  0  0
   -1.2310   -0.3070   -0.7620 C   0  0  0  0  0  0  0  0  0  0  0  0
   -0.1570   -0.1070   -0.0160 C   0  0  0  0  0  0  0  0  0  0  0  0
    1.1400   -0.7730   -0.2890 C   0  0  0  0  0  0  0  0  0  0  0  0
    2.1590    0.3050   -0.5390 C   0  0  2  0  0  0  0  0  0  0  0  0
    3.5290   -0.2210   -0.8310 C   0  0  0  0  0  0  0  0  0  0  0  0
    4.3520    0.8350   -0.4330 O   0  0  0  0  0  0  0  0  0  0  0  0
    3.5520    1.7600    0.2070 C   0  0  0  0  0  0  0  0  0  0  0  0
    2.3880    1.0870    0.5980 O   0  0  0  0  0  0  0  0  0  0  0  0
  1  2  1  0
  2  3  1  0
  2  4  2  3
  4  5  1  0
  5  6  2  3
  6  7  1  0
  8  7  1  1
  8  9  1  0
  8 12  1  0
  9 10  1  0
 10 11  1  0
 11 12  1  0
M  CHG  1   4   1
M  END
