
     RDKit          3D

 12 12  0  0  0  0  0  0  0  0999 V2000
   -2.8320   -1.4160   -0.1170 C   0  0  0  0  0  0  0  0  0  0  0  0
   -1.9510   -0.3620    0.5910 C   0  0  2  0  0  0  0  0  0  0  0  0
   -2.6450    0.8220    0.6760 O   0  0  0  0  0  0  0  0  0  0  0  0
   -0.5920   -0.3780    0.1220 C   0  0  0  0  0  0  0  0  0  0  0  0
    0.0970   -1.5280   -0.0690 N   0  0  0  0  0  0  0  0  0  0  0  0
    1.4320   -1.0920   -0.2500 C   0  0  0  0  0  0  0  0  0  0  0  0
    2.4790   -2.0260   -0.6470 N   0  0  0  0  0  0  0  0  0  0  0  0
    1.5020    0.1740   -0.1120 N   0  0  0  0  0  0  0  0  0  0  0  0
    2.7560    0.9650    0.2010 C   0  0  0  0  0  0  0  0  0  0  0  0
    0.2970    0.6810    0.0710 C   0  0  0  0  0  0  0  0  0  0  0  0
   -0.1150    2.1150    0.1820 C   0  0  0  0  0  0  0  0  0  0  0  0
    0.2730    2.9440   -0.8920 O   0  0  0  0  0  0  0  0  0  0  0  0
  2  1  1  6
  2  3  1  0
  2  4  1  0
  4  5  1  0
  4 10  2  0
  5  6  2  0
  6  7  1  0
  6  8  1  0
  8  9  1  0
  8 10  1  0
 10 11  1  0
 11 12  1  0
M  CHG  1   5   1
M  END
