
     RDKit          3D

 12 12  0  0  0  0  0  0  0  0999 V2000
   -3.5990   -0.8560    0.4780 N   0  0  0  0  0  0  0  0  0  0  0  0
   -2.5060   -0.0030    0.1520 C   0  0  0  0  0  0  0  0  0  0  0  0
   -2.6830    1.3310    0.2440 N   0  0  0  0  0  0  0  0  0  0  0  0
   -1.6350    2.1170   -0.0700 C   0  0  0  0  0  0  0  0  0  0  0  0
   -0.4300    1.5680   -0.4680 C   0  0  0  0  0  0  0  0  0  0  0  0
   -0.2610    0.2370   -0.5570 N   0  0  0  0  0  0  0  0  0  0  0  0
    1.0190   -0.3260   -0.9800 C   0  0  0  0  0  0  0  0  0  0  0  0
    1.8420   -0.5340    0.2400 C   0  0  0  0  0  0  0  0  0  0  0  0
    3.2070   -1.1190   -0.0540 C   0  0  0  0  0  0  0  0  0  0  0  0
    3.9440   -0.2860   -0.8920 O   0  0  0  0  0  0  0  0  0  0  0  0
   -1.3080   -0.5430   -0.2440 C   0  0  0  0  0  0  0  0  0  0  0  0
   -1.1760   -1.8090   -0.3190 O   0  0  0  0  0  0  0  0  0  0  0  0
  1  2  1  0
  2  3  2  0
  2 11  1  0
  3  4  1  0
  4  5  2  0
  5  6  1  0
  6  7  1  0
  6 11  1  0
  7  8  1  0
  8  9  1  0
  9 10  1  0
 11 12  2  0
M  CHG  1   3   1
M  END
