
     RDKit          3D

 12 12  0  0  0  0  0  0  0  0999 V2000
    3.2660   -1.4520   -0.8050 C   0  0  0  0  0  0  0  0  0  0  0  0
    2.7780   -0.0740   -0.6470 N   0  0  0  0  0  0  0  0  0  0  0  0
    1.4280    0.2180   -0.3310 C   0  0  0  0  0  0  0  0  0  0  0  0
    0.4260   -0.6640   -0.1410 N   0  0  0  0  0  0  0  0  0  0  0  0
   -0.7150   -0.0030    0.1560 C   0  0  0  0  0  0  0  0  0  0  0  0
   -2.0590   -0.5780    0.4700 C   0  0  1  0  0  0  0  0  0  0  0  0
   -2.1460   -2.0250    0.0590 C   0  0  0  0  0  0  0  0  0  0  0  0
   -2.2240   -0.5920    1.8910 O   0  0  0  0  0  0  0  0  0  0  0  0
   -0.3850    1.3380    0.1420 C   0  0  0  0  0  0  0  0  0  0  0  0
   -1.2920    2.4860    0.3950 C   0  0  0  0  0  0  0  0  0  0  0  0
   -0.5710    3.6910    0.2980 O   0  0  0  0  0  0  0  0  0  0  0  0
    0.9040    1.4300   -0.1510 N   0  0  0  0  0  0  0  0  0  0  0  0
  1  2  1  0
  2  3  1  0
  3  4  1  0
  3 12  2  0
  4  5  1  0
  5  6  1  0
  5  9  2  0
  6  7  1  1
  6  8  1  0
  9 10  1  0
  9 12  1  0
 10 11  1  0
M  CHG  1  12   1
M  END
