
     RDKit          3D

 12 12  0  0  0  0  0  0  0  0999 V2000
    3.6610    1.1480   -0.7980 C   0  0  0  0  0  0  0  0  0  0  0  0
    2.7620    0.9610    0.2510 O   0  0  0  0  0  0  0  0  0  0  0  0
    2.1890   -0.3180    0.0740 C   0  0  0  0  0  0  0  0  0  0  0  0
    1.2240   -0.4970    1.2150 C   0  0  0  0  0  0  0  0  0  0  0  0
    0.5570   -1.7090    1.2170 O   0  0  0  0  0  0  0  0  0  0  0  0
   -0.1990   -1.9050    0.0890 C   0  0  0  0  0  0  0  0  0  0  0  0
   -1.2590   -0.8700   -0.0910 C   0  0  0  0  0  0  0  0  0  0  0  0
   -1.8200   -0.5040   -1.3170 C   0  0  0  0  0  0  0  0  0  0  0  0
   -2.7450    0.4460   -1.1200 N   0  0  0  0  0  0  0  0  0  0  0  0
   -2.7750    0.6810    0.2000 C   0  0  0  0  0  0  0  0  0  0  0  0
   -3.5960    1.6010    0.8770 N   0  0  0  0  0  0  0  0  0  0  0  0
   -1.8700   -0.1200    0.8360 N   0  0  0  0  0  0  0  0  0  0  0  0
  1  2  1  0
  2  3  1  0
  3  4  1  0
  4  5  1  0
  5  6  1  0
  6  7  1  0
  7  8  2  0
  7 12  1  0
  8  9  1  0
  9 10  2  0
 10 11  1  0
 10 12  1  0
M  CHG  1   9   1
M  END
