
     RDKit          3D

 12 12  0  0  0  0  0  0  0  0999 V2000
    3.3510    0.9670    0.1610 N   0  0  0  0  0  0  0  0  0  0  0  0
    3.2830   -0.4260   -0.0090 C   0  0  0  0  0  0  0  0  0  0  0  0
    4.3310   -1.1060    0.1310 O   0  0  0  0  0  0  0  0  0  0  0  0
    1.9980   -1.1100   -0.3510 C   0  0  0  0  0  0  0  0  0  0  0  0
    0.9220   -0.1670   -0.4670 N   0  0  0  0  0  0  0  0  0  0  0  0
    0.0160   -0.3320    0.6770 C   0  0  0  0  0  0  0  0  0  0  0  0
   -1.3210    0.1670    0.2290 C   0  0  0  0  0  0  0  0  0  0  0  0
   -2.3480   -0.6500    0.2350 C   0  0  0  0  0  0  0  0  0  0  0  0
   -3.6820   -0.2030   -0.1970 C   0  0  0  0  0  0  0  0  0  0  0  0
   -3.7010    1.1400   -0.5920 O   0  0  0  0  0  0  0  0  0  0  0  0
   -2.6110    1.9370   -0.5770 N   0  0  0  0  0  0  0  0  0  0  0  0
   -1.4430    1.5540   -0.2020 C   0  0  0  0  0  0  0  0  0  0  0  0
  1  2  1  0
  2  3  2  0
  2  4  1  0
  4  5  1  0
  5  6  1  0
  6  7  1  0
  7  8  2  0
  7 12  1  0
  8  9  1  0
  9 10  1  0
 10 11  1  0
 11 12  2  0
M  CHG  1   5   1
M  END
