
     RDKit          3D

 28 31  0  0  0  0  0  0  0  0999 V2000
    8.7510   -0.6180    0.4560 N   0  0  0  0  0  0  0  0  0  0  0  0
    7.6660    0.1690    1.5050 S   0  0  2  0  0  0  0  0  0  0  0  0
    8.2940    1.5010    1.8910 O   0  0  0  0  0  0  0  0  0  0  0  0
    7.5080   -0.6220    2.7700 O   0  0  0  0  0  0  0  0  0  0  0  0
    6.1140    0.4700    0.7650 C   0  0  0  0  0  0  0  0  0  0  0  0
    4.9890   -0.0690    1.3130 C   0  0  0  0  0  0  0  0  0  0  0  0
    3.7020    0.1370    0.7640 C   0  0  0  0  0  0  0  0  0  0  0  0
    2.5520   -0.4610    1.3920 C   0  0  0  0  0  0  0  0  0  0  0  0
    2.8690   -1.1670    2.4660 O   0  0  0  0  0  0  0  0  0  0  0  0
    1.1370   -0.4380    1.0790 C   0  0  0  0  0  0  0  0  0  0  0  0
    0.5660    0.4730   -0.3400 S   0  0  0  0  0  0  0  0  0  0  0  0
   -1.2160    0.3100   -0.4600 C   0  0  0  0  0  0  0  0  0  0  0  0
   -1.9200   -0.6290   -1.1170 N   0  0  0  0  0  0  0  0  0  0  0  0
   -3.2410   -0.4430   -0.9910 C   0  0  0  0  0  0  0  0  0  0  0  0
   -4.3770   -1.0900   -1.4470 C   0  0  0  0  0  0  0  0  0  0  0  0
   -5.6490   -0.6560   -1.1470 C   0  0  0  0  0  0  0  0  0  0  0  0
   -5.7760    0.4740   -0.3590 C   0  0  0  0  0  0  0  0  0  0  0  0
   -4.6520    1.1340    0.1060 C   0  0  0  0  0  0  0  0  0  0  0  0
   -3.3760    0.6840   -0.2040 C   0  0  0  0  0  0  0  0  0  0  0  0
   -2.1450    1.1240    0.1060 N   0  0  0  0  0  0  0  0  0  0  0  0
   -7.0500    0.9260   -0.0470 O   0  0  0  0  0  0  0  0  0  0  0  0
   -8.1070    0.5110   -0.8970 C   0  0  0  0  0  0  0  0  0  0  0  0
   -8.0530   -0.9930   -1.0040 C   0  0  0  0  0  0  0  0  0  0  0  0
   -6.7940   -1.3070   -1.6060 O   0  0  0  0  0  0  0  0  0  0  0  0
    3.5650    0.9040   -0.3630 C   0  0  0  0  0  0  0  0  0  0  0  0
    4.7240    1.4580   -0.9260 C   0  0  0  0  0  0  0  0  0  0  0  0
    5.9620    1.2370   -0.3640 C   0  0  0  0  0  0  0  0  0  0  0  0
    7.4080    1.9300   -1.0690 Cl  0  0  0  0  0  0  0  0  0  0  0  0
  2  1  1  6
  2  3  2  0
  2  4  2  0
  2  5  1  0
  5  6  2  0
  5 27  1  0
  6  7  1  0
  7  8  1  0
  7 25  2  0
  8  9  2  0
  8 10  1  0
 10 11  1  0
 11 12  1  0
 12 13  2  0
 12 20  1  0
 13 14  1  0
 14 15  2  0
 14 19  1  0
 15 16  1  0
 16 17  2  0
 16 24  1  0
 17 18  1  0
 17 21  1  0
 18 19  2  0
 19 20  1  0
 21 22  1  0
 22 23  1  0
 23 24  1  0
 25 26  1  0
 26 27  2  0
 27 28  1  0
M  END
