
     RDKit          3D

 25 25  0  0  0  0  0  0  0  0999 V2000
    5.2940    1.7120   -0.8220 C   0  0  0  0  0  0  0  0  0  0  0  0
    4.6880    0.6410   -1.2710 C   0  0  0  0  0  0  0  0  0  0  0  0
    3.6730   -0.0320   -0.4440 C   0  0  0  0  0  0  0  0  0  0  0  0
    3.1260   -1.0860   -0.9590 C   0  0  0  0  0  0  0  0  0  0  0  0
    3.5260   -1.5520   -2.3100 C   0  0  0  0  0  0  0  0  0  0  0  0
    3.3700    0.5460    0.8390 C   0  0  0  0  0  0  0  0  0  0  0  0
    2.3480    0.0260    1.7390 C   0  0  0  0  0  0  0  0  0  0  0  0
    0.9360    0.0300    1.3300 C   0  0  0  0  0  0  0  0  0  0  0  0
    0.1960   -1.0930    1.0420 C   0  0  0  0  0  0  0  0  0  0  0  0
   -1.1390   -1.1040    0.6960 C   0  0  0  0  0  0  0  0  0  0  0  0
   -1.8820   -2.2080    0.4060 O   0  0  0  0  0  0  0  0  0  0  0  0
   -1.5250   -3.5410    0.3700 C   0  0  0  0  0  0  0  0  0  0  0  0
   -0.4720   -3.8930   -0.6190 C   0  0  0  0  0  0  0  0  0  0  0  0
    0.0030   -5.2940   -0.7040 C   0  0  0  0  0  0  0  0  0  0  0  0
   -0.0330   -3.0100   -1.3300 O   0  0  0  0  0  0  0  0  0  0  0  0
   -1.8000    0.1300    0.6320 C   0  0  0  0  0  0  0  0  0  0  0  0
   -3.1470    0.1810    0.2880 O   0  0  0  0  0  0  0  0  0  0  0  0
   -3.7650    1.4470    0.2370 C   0  0  0  0  0  0  0  0  0  0  0  0
   -5.2100    1.3830   -0.1430 C   0  0  0  0  0  0  0  0  0  0  0  0
   -5.7650    2.7510   -0.1690 C   0  0  0  0  0  0  0  0  0  0  0  0
   -4.9120    3.9200    0.1520 C   0  0  0  0  0  0  0  0  0  0  0  0
   -6.9510    2.8840   -0.4650 O   0  0  0  0  0  0  0  0  0  0  0  0
   -1.0760    1.2660    0.9170 C   0  0  0  0  0  0  0  0  0  0  0  0
    0.2650    1.2590    1.2630 C   0  0  0  0  0  0  0  0  0  0  0  0
    0.9540    2.5410    1.5660 C   0  0  0  0  0  0  0  0  0  0  0  0
  1  2  2  0
  2  3  1  0
  3  4  2  3
  3  6  1  0
  4  5  1  0
  6  7  1  0
  7  8  1  0
  8  9  2  0
  8 24  1  0
  9 10  1  0
 10 11  1  0
 10 16  2  0
 11 12  1  0
 12 13  1  0
 13 14  1  0
 13 15  2  0
 16 17  1  0
 16 23  1  0
 17 18  1  0
 18 19  1  0
 19 20  1  0
 20 21  1  0
 20 22  2  0
 23 24  2  0
 24 25  1  0
M  END
