
     RDKit          3D

 25 25  0  0  0  0  0  0  0  0999 V2000
   -6.4890   -3.4060   -0.5620 C   0  0  0  0  0  0  0  0  0  0  0  0
   -5.6780   -2.7860    0.2590 C   0  0  0  0  0  0  0  0  0  0  0  0
   -5.6170   -2.9680    1.7450 C   0  0  0  0  0  0  0  0  0  0  0  0
   -4.1650   -2.6490    2.0180 C   0  0  0  0  0  0  0  0  0  0  0  0
   -3.7810   -1.6970    0.9540 C   0  0  0  0  0  0  0  0  0  0  0  0
   -2.6240   -0.8120    1.0130 C   0  0  0  0  0  0  0  0  0  0  0  0
   -1.9030   -0.8620    2.0420 O   0  0  0  0  0  0  0  0  0  0  0  0
   -2.3090    0.0620   -0.0150 O   0  0  0  0  0  0  0  0  0  0  0  0
   -1.1520    0.8850    0.1320 C   0  0  1  0  0  0  0  0  0  0  0  0
   -1.2090    1.7650    1.3420 C   0  0  0  0  0  0  0  0  0  0  0  0
    0.0480    0.0070    0.0600 C   0  0  0  0  0  0  0  0  0  0  0  0
    1.3690    0.7290    0.2060 C   0  0  0  0  0  0  0  0  0  0  0  0
    2.5050   -0.3070    0.1230 C   0  0  0  0  0  0  0  0  0  0  0  0
    3.7890    0.4730    0.2760 C   0  0  0  0  0  0  0  0  0  0  0  0
    5.0100   -0.3890    0.2180 C   0  0  2  0  0  0  0  0  0  0  0  0
    5.1470   -1.1390   -1.0800 C   0  0  0  0  0  0  0  0  0  0  0  0
    5.0820   -1.2890    1.4190 C   0  0  0  0  0  0  0  0  0  0  0  0
    6.2180    0.5510    0.3040 C   0  0  0  0  0  0  0  0  0  0  0  0
   -1.1950    1.8270   -1.0520 C   0  0  0  0  0  0  0  0  0  0  0  0
   -2.0920    1.7630   -1.9300 O   0  0  0  0  0  0  0  0  0  0  0  0
   -0.2150    2.7940   -1.1720 O   0  0  0  0  0  0  0  0  0  0  0  0
   -0.1800    3.7050   -2.2330 C   0  0  0  0  0  0  0  0  0  0  0  0
    1.0330    4.6120   -2.0350 C   0  0  0  0  0  0  0  0  0  0  0  0
   -4.6490   -1.7850   -0.0400 C   0  0  0  0  0  0  0  0  0  0  0  0
   -4.6450   -1.0090   -1.3150 C   0  0  0  0  0  0  0  0  0  0  0  0
  1  2  2  0
  2  3  1  0
  2 24  1  0
  3  4  1  0
  4  5  1  0
  5  6  1  0
  5 24  2  0
  6  7  2  0
  6  8  1  0
  8  9  1  0
  9 10  1  1
  9 11  1  0
  9 19  1  0
 11 12  1  0
 12 13  1  0
 13 14  1  0
 14 15  1  0
 15 16  1  6
 15 17  1  0
 15 18  1  0
 19 20  2  0
 19 21  1  0
 21 22  1  0
 22 23  1  0
 24 25  1  0
M  END
