
     RDKit          3D

 25 25  0  0  0  0  0  0  0  0999 V2000
    3.1340   -5.1330    0.2660 C   0  0  0  0  0  0  0  0  0  0  0  0
    2.1890   -4.2280    0.0570 C   0  0  0  0  0  0  0  0  0  0  0  0
    2.3660   -3.2290   -1.0320 C   0  0  0  0  0  0  0  0  0  0  0  0
    2.3560   -1.9230   -0.4980 O   0  0  0  0  0  0  0  0  0  0  0  0
    2.5260   -1.0670   -1.5790 C   0  0  0  0  0  0  0  0  0  0  0  0
    2.5420    0.2900   -1.2430 O   0  0  0  0  0  0  0  0  0  0  0  0
    1.4400    0.8700   -0.6290 C   0  0  0  0  0  0  0  0  0  0  0  0
    0.2950    0.1520   -0.3270 C   0  0  0  0  0  0  0  0  0  0  0  0
   -0.7980    0.7250    0.2820 C   0  0  0  0  0  0  0  0  0  0  0  0
   -2.0310   -0.0320    0.6090 C   0  0  1  0  0  0  0  0  0  0  0  0
   -2.8390   -0.4250   -0.5610 C   0  0  0  0  0  0  0  0  0  0  0  0
   -2.3460   -1.2650   -1.6950 C   0  0  0  0  0  0  0  0  0  0  0  0
   -4.1300   -0.0330   -0.6760 C   0  0  0  0  0  0  0  0  0  0  0  0
   -4.9960   -0.3830   -1.8060 C   0  0  0  0  0  0  0  0  0  0  0  0
   -1.8630   -1.0760    1.6650 C   0  0  2  0  0  0  0  0  0  0  0  0
   -0.8950   -2.1610    1.4190 C   0  0  0  0  0  0  0  0  0  0  0  0
   -3.2310   -1.6000    2.1070 C   0  0  0  0  0  0  0  0  0  0  0  0
   -0.6720    2.0850    0.5750 C   0  0  0  0  0  0  0  0  0  0  0  0
    0.4650    2.8040    0.2760 C   0  0  0  0  0  0  0  0  0  0  0  0
    1.5510    2.2240   -0.3310 C   0  0  0  0  0  0  0  0  0  0  0  0
    2.7120    2.9170   -0.6440 O   0  0  0  0  0  0  0  0  0  0  0  0
    2.9930    4.2480   -0.4030 C   0  0  0  0  0  0  0  0  0  0  0  0
    2.9980    4.5910    1.0420 C   0  0  0  0  0  0  0  0  0  0  0  0
    3.2320    6.0050    1.4370 C   0  0  0  0  0  0  0  0  0  0  0  0
    2.8200    3.7650    1.8990 O   0  0  0  0  0  0  0  0  0  0  0  0
  1  2  2  0
  2  3  1  0
  3  4  1  0
  4  5  1  0
  5  6  1  0
  6  7  1  0
  7  8  2  0
  7 20  1  0
  8  9  1  0
  9 10  1  0
  9 18  2  0
 10 11  1  6
 10 15  1  0
 11 12  1  0
 11 13  2  3
 13 14  1  0
 15 16  1  6
 15 17  1  0
 18 19  1  0
 19 20  2  0
 20 21  1  0
 21 22  1  0
 22 23  1  0
 23 24  1  0
 23 25  2  0
M  END
