
     RDKit          3D

 25 25  0  0  0  0  0  0  0  0999 V2000
   -7.0290    1.3320   -0.7830 C   0  0  0  0  0  0  0  0  0  0  0  0
   -6.0490    0.4870   -0.9460 C   0  0  0  0  0  0  0  0  0  0  0  0
   -5.9820   -0.2710   -2.1230 O   0  0  0  0  0  0  0  0  0  0  0  0
   -5.8000    0.3770   -3.3670 C   0  0  0  0  0  0  0  0  0  0  0  0
   -5.0050    0.2830    0.0440 C   0  0  0  0  0  0  0  0  0  0  0  0
   -3.6930    0.1030   -0.3850 C   0  0  0  0  0  0  0  0  0  0  0  0
   -2.6420   -0.1230    0.5200 C   0  0  0  0  0  0  0  0  0  0  0  0
   -1.3430   -0.3510   -0.0180 C   0  0  0  0  0  0  0  0  0  0  0  0
   -1.1310    0.1590   -1.1970 O   0  0  0  0  0  0  0  0  0  0  0  0
   -0.2070   -1.0750    0.5410 C   0  0  1  0  0  0  0  0  0  0  0  0
   -0.5580   -2.5720    0.6130 C   0  0  0  0  0  0  0  0  0  0  0  0
    0.9050   -1.0150   -0.3690 O   0  0  0  0  0  0  0  0  0  0  0  0
    2.1400   -0.6330    0.0640 C   0  0  0  0  0  0  0  0  0  0  0  0
    2.2900   -0.3320    1.2840 O   0  0  0  0  0  0  0  0  0  0  0  0
    3.2750   -0.5720   -0.8600 C   0  0  0  0  0  0  0  0  0  0  0  0
    4.5250   -0.1170   -0.1120 C   0  0  0  0  0  0  0  0  0  0  0  0
    5.7090   -0.0480   -1.0570 C   0  0  0  0  0  0  0  0  0  0  0  0
    6.9050    0.4100   -0.2340 C   0  0  0  0  0  0  0  0  0  0  0  0
    8.0890    0.4840   -1.1540 C   0  0  0  0  0  0  0  0  0  0  0  0
    9.3180    0.9320   -0.4120 C   0  0  0  0  0  0  0  0  0  0  0  0
   -2.9730   -0.1560    1.8380 C   0  0  0  0  0  0  0  0  0  0  0  0
   -1.9240   -0.3350    2.8990 C   0  0  0  0  0  0  0  0  0  0  0  0
   -4.2910    0.0220    2.2920 C   0  0  0  0  0  0  0  0  0  0  0  0
   -5.3060    0.2420    1.3720 C   0  0  0  0  0  0  0  0  0  0  0  0
   -6.6840    0.3810    1.8900 C   0  0  0  0  0  0  0  0  0  0  0  0
  1  2  2  0
  2  3  1  0
  2  5  1  0
  3  4  1  0
  5  6  2  0
  5 24  1  0
  6  7  1  0
  7  8  1  0
  7 21  2  0
  8  9  2  0
  8 10  1  0
 10 11  1  6
 10 12  1  0
 12 13  1  0
 13 14  2  0
 13 15  1  0
 15 16  1  0
 16 17  1  0
 17 18  1  0
 18 19  1  0
 19 20  1  0
 21 22  1  0
 21 23  1  0
 23 24  2  0
 24 25  1  0
M  END
