
     RDKit          3D

 25 25  0  0  0  0  0  0  0  0999 V2000
    8.2310    0.3650    1.4550 C   0  0  0  0  0  0  0  0  0  0  0  0
    7.9320    1.1920    0.4640 C   0  0  0  0  0  0  0  0  0  0  0  0
    7.7530    0.7370   -0.9170 C   0  0  0  0  0  0  0  0  0  0  0  0
    6.5040    1.0140   -1.4060 O   0  0  0  0  0  0  0  0  0  0  0  0
    5.2570    0.6200   -1.0300 C   0  0  0  0  0  0  0  0  0  0  0  0
    4.9450   -0.2250    0.0080 C   0  0  0  0  0  0  0  0  0  0  0  0
    3.6390   -0.5740    0.3220 C   0  0  0  0  0  0  0  0  0  0  0  0
    2.5770   -0.0810   -0.4040 C   0  0  0  0  0  0  0  0  0  0  0  0
    1.2600   -0.4080   -0.1200 O   0  0  0  0  0  0  0  0  0  0  0  0
    1.0200   -1.2820    0.9630 C   0  0  0  0  0  0  0  0  0  0  0  0
   -0.3970   -1.5690    1.1850 C   0  0  0  0  0  0  0  0  0  0  0  0
   -0.6840   -2.3350    2.0900 O   0  0  0  0  0  0  0  0  0  0  0  0
   -1.4390   -0.9480    0.3380 C   0  0  2  0  0  0  0  0  0  0  0  0
   -1.4730    0.5380    0.4340 C   0  0  0  0  0  0  0  0  0  0  0  0
   -2.7770   -1.5390    0.7320 C   0  0  0  0  0  0  0  0  0  0  0  0
   -3.9140   -0.9560   -0.0920 C   0  0  0  0  0  0  0  0  0  0  0  0
   -5.1890   -1.6370    0.4100 C   0  0  0  0  0  0  0  0  0  0  0  0
   -6.3550   -1.0980   -0.3710 C   0  0  0  0  0  0  0  0  0  0  0  0
   -6.5070    0.3720   -0.2110 C   0  0  0  0  0  0  0  0  0  0  0  0
   -6.4330    1.1330   -1.2780 C   0  0  0  0  0  0  0  0  0  0  0  0
   -6.7390    1.0140    1.1090 C   0  0  0  0  0  0  0  0  0  0  0  0
    2.8660    0.7680   -1.4500 C   0  0  0  0  0  0  0  0  0  0  0  0
    1.7230    1.2860   -2.2160 C   0  0  0  0  0  0  0  0  0  0  0  0
    1.9630    2.0610   -3.1740 O   0  0  0  0  0  0  0  0  0  0  0  0
    4.1580    1.1140   -1.7620 C   0  0  0  0  0  0  0  0  0  0  0  0
  1  2  2  0
  2  3  1  0
  3  4  1  0
  4  5  1  0
  5  6  2  0
  5 25  1  0
  6  7  1  0
  7  8  2  0
  8  9  1  0
  8 22  1  0
  9 10  1  0
 10 11  1  0
 11 12  2  0
 11 13  1  0
 13 14  1  1
 13 15  1  0
 15 16  1  0
 16 17  1  0
 17 18  1  0
 18 19  1  0
 19 20  2  0
 19 21  1  0
 22 23  1  0
 22 25  2  0
 23 24  2  0
M  END
