
     RDKit          3D

 27 27  0  0  0  0  0  0  0  0999 V2000
    6.9380   -2.2830   -0.9970 C   0  0  0  0  0  0  0  0  0  0  0  0
    5.9550   -1.2320   -0.4630 C   0  0  0  0  0  0  0  0  0  0  0  0
    4.6240   -1.9090   -0.3960 C   0  0  0  0  0  0  0  0  0  0  0  0
    3.5110   -0.9990    0.1230 C   0  0  0  0  0  0  0  0  0  0  0  0
    3.3640    0.1780   -0.7630 C   0  0  0  0  0  0  0  0  0  0  0  0
    2.3280    1.1830   -0.4160 C   0  0  2  0  0  0  0  0  0  0  0  0
    2.5470    1.8010    0.9550 C   0  0  0  0  0  0  0  0  0  0  0  0
    1.5020    2.7930    1.2690 C   0  0  0  0  0  0  0  0  0  0  0  0
    0.5860    3.0230    0.4540 O   0  0  0  0  0  0  0  0  0  0  0  0
    1.5350    3.4870    2.4950 N   0  0  0  0  0  0  0  0  0  0  0  0
    0.6110    4.4120    2.8550 O   0  0  0  0  0  0  0  0  0  0  0  0
    0.9320    0.7860   -0.6490 C   0  0  0  0  0  0  0  0  0  0  0  0
    0.2590    1.2920   -1.6170 O   0  0  0  0  0  0  0  0  0  0  0  0
    0.2000   -0.1550    0.1220 N   0  0  0  0  0  0  0  0  0  0  0  0
   -1.2040   -0.5000   -0.1980 C   0  0  2  0  0  0  0  0  0  0  0  0
   -2.0890   -0.1310    0.9180 C   0  0  0  0  0  0  0  0  0  0  0  0
   -1.5620   -0.2280    2.0760 O   0  0  0  0  0  0  0  0  0  0  0  0
   -3.4170    0.3080    0.8410 N   0  0  0  0  0  0  0  0  0  0  0  0
   -4.2480    0.6360    1.9930 C   0  0  0  0  0  0  0  0  0  0  0  0
   -5.6510    0.2710    1.5940 C   0  0  0  0  0  0  0  0  0  0  0  0
   -5.5740   -0.0880    0.1130 C   0  0  0  0  0  0  0  0  0  0  0  0
   -4.2820    0.5800   -0.2950 C   0  0  1  0  0  0  0  0  0  0  0  0
   -4.6030    2.0670   -0.3810 C   0  0  0  0  0  0  0  0  0  0  0  0
   -5.4260    2.2350   -1.4910 O   0  0  0  0  0  0  0  0  0  0  0  0
   -1.2710   -1.9660   -0.5650 C   0  0  1  0  0  0  0  0  0  0  0  0
   -2.6660   -2.4130   -0.9110 C   0  0  0  0  0  0  0  0  0  0  0  0
   -0.3050   -2.2990   -1.6870 C   0  0  0  0  0  0  0  0  0  0  0  0
  1  2  1  0
  2  3  1  0
  3  4  1  0
  4  5  1  0
  6  5  1  1
  6  7  1  0
  6 12  1  0
  7  8  1  0
  8  9  2  0
  8 10  1  0
 10 11  1  0
 12 13  2  0
 12 14  1  0
 15 14  1  1
 15 16  1  0
 15 25  1  0
 16 17  2  0
 16 18  1  0
 18 19  1  0
 18 22  1  0
 19 20  1  0
 20 21  1  0
 21 22  1  0
 22 23  1  1
 23 24  1  0
 25 26  1  6
 25 27  1  0
M  END
