
     RDKit          3D

 24 26  0  0  0  0  0  0  0  0999 V2000
   -5.0060    2.7500    0.5070 C   0  0  0  0  0  0  0  0  0  0  0  0
   -4.1330    1.4770    0.4230 C   0  0  0  0  0  0  0  0  0  0  0  0
   -4.2810    0.9740   -0.9620 C   0  0  0  0  0  0  0  0  0  0  0  0
   -3.5130   -0.3110   -1.2700 C   0  0  1  0  0  0  0  0  0  0  0  0
   -3.8350   -0.6180   -2.7520 C   0  0  0  0  0  0  0  0  0  0  0  0
   -2.3610   -0.7670   -2.9780 C   0  0  0  0  0  0  0  0  0  0  0  0
   -2.1340   -0.1220   -1.6290 C   0  0  2  0  0  0  0  0  0  0  0  0
   -0.9890   -0.9040   -0.9470 C   0  0  0  0  0  0  0  0  0  0  0  0
   -0.8940   -0.6740    0.4280 N   0  0  1  0  0  0  0  0  0  0  0  0
   -1.8710   -1.5410    1.0870 C   0  0  0  0  0  0  0  0  0  0  0  0
   -1.1610   -2.2800    2.1870 C   0  0  0  0  0  0  0  0  0  0  0  0
    0.2390   -2.2410    1.6330 C   0  0  0  0  0  0  0  0  0  0  0  0
    0.3470   -0.8280    1.1560 C   0  0  2  0  0  0  0  0  0  0  0  0
    0.1740    0.1120    2.3310 C   0  0  0  0  0  0  0  0  0  0  0  0
    1.1490    0.2110    3.3300 N   0  0  0  0  0  0  0  0  0  0  0  0
    1.5740   -0.5750    0.3360 C   0  0  1  0  0  0  0  0  0  0  0  0
    1.8390   -1.5980   -0.7370 C   0  0  0  0  0  0  0  0  0  0  0  0
    1.5380    0.8600   -0.1830 C   0  0  0  0  0  0  0  0  0  0  0  0
    2.5770    1.1340   -1.2110 C   0  0  0  0  0  0  0  0  0  0  0  0
    3.9290    0.8320   -0.6850 C   0  0  1  0  0  0  0  0  0  0  0  0
    4.8440    0.6060   -1.8950 C   0  0  0  0  0  0  0  0  0  0  0  0
    4.4940    2.0860   -0.0020 C   0  0  0  0  0  0  0  0  0  0  0  0
    4.0660   -0.3670    0.1870 C   0  0  0  0  0  0  0  0  0  0  0  0
    2.8700   -0.5490    1.1320 C   0  0  0  0  0  0  0  0  0  0  0  0
  1  2  1  0
  2  3  1  0
  4  3  1  6
  4  5  1  0
  4  7  1  0
  5  6  1  0
  6  7  1  0
  7  8  1  1
  9  8  1  6
  9 10  1  0
  9 13  1  0
 10 11  1  0
 11 12  1  0
 12 13  1  0
 13 14  1  1
 13 16  1  0
 14 15  1  0
 16 17  1  6
 16 18  1  0
 16 24  1  0
 18 19  1  0
 19 20  1  0
 20 21  1  6
 20 22  1  0
 20 23  1  0
 23 24  1  0
M  CHG  2   9   1  15   1
M  END
