
     RDKit          3D

 24 26  0  0  0  0  0  0  0  0999 V2000
    5.4420    0.9550    1.7920 C   0  0  0  0  0  0  0  0  0  0  0  0
    4.1250    0.2460    1.5050 C   0  0  0  0  0  0  0  0  0  0  0  0
    3.7310    0.3470    0.0730 C   0  0  1  0  0  0  0  0  0  0  0  0
    4.7360   -0.2980   -0.8250 C   0  0  2  0  0  0  0  0  0  0  0  0
    4.9670   -1.7950   -0.6860 C   0  0  0  0  0  0  0  0  0  0  0  0
    6.0430   -0.8110   -0.4140 C   0  0  0  0  0  0  0  0  0  0  0  0
    2.3300   -0.2580   -0.2040 C   0  0  2  0  0  0  0  0  0  0  0  0
    2.0670   -0.0860   -1.6680 C   0  0  0  0  0  0  0  0  0  0  0  0
    1.3300    0.2790    0.7090 C   0  0  0  0  0  0  0  0  0  0  0  0
   -0.0920   -0.1200    0.6300 C   0  0  2  0  0  0  0  0  0  0  0  0
   -0.2820   -1.6190    0.7690 C   0  0  0  0  0  0  0  0  0  0  0  0
   -1.7580   -1.9760    0.8170 C   0  0  0  0  0  0  0  0  0  0  0  0
   -2.5900   -1.2440   -0.1820 C   0  0  2  0  0  0  0  0  0  0  0  0
   -3.4240   -2.1990   -1.0080 C   0  0  0  0  0  0  0  0  0  0  0  0
   -4.3650   -3.0120   -0.1490 C   0  0  0  0  0  0  0  0  0  0  0  0
   -5.1080   -3.8860   -1.0420 N   0  0  0  0  0  0  0  0  0  0  0  0
   -1.6520   -0.5380   -1.1390 C   0  0  0  0  0  0  0  0  0  0  0  0
   -0.8430    0.4600   -0.4060 N   0  0  1  0  0  0  0  0  0  0  0  0
   -1.6820    1.5750   -0.0580 C   0  0  2  0  0  0  0  0  0  0  0  0
   -1.3860    2.8150   -0.8980 C   0  0  0  0  0  0  0  0  0  0  0  0
   -2.6530    3.6460   -0.9380 C   0  0  0  0  0  0  0  0  0  0  0  0
   -3.4940    3.4390    0.3150 C   0  0  0  0  0  0  0  0  0  0  0  0
   -2.5580    3.2460    1.4630 C   0  0  0  0  0  0  0  0  0  0  0  0
   -1.7270    1.9800    1.3600 C   0  0  0  0  0  0  0  0  0  0  0  0
  1  2  1  0
  3  2  1  1
  3  4  1  0
  3  7  1  0
  4  5  1  1
  4  6  1  0
  5  6  1  0
  7  8  1  6
  7  9  1  0
 10  9  1  6
 10 11  1  0
 10 18  1  0
 11 12  1  0
 12 13  1  0
 13 14  1  6
 13 17  1  0
 14 15  1  0
 15 16  1  0
 18 17  1  1
 18 19  1  0
 19 20  1  6
 19 24  1  0
 20 21  1  0
 21 22  1  0
 22 23  1  0
 23 24  1  0
M  CHG  2  16   1  18   1
M  END
