
     RDKit          3D

 24 26  0  0  0  0  0  0  0  0999 V2000
   -3.0880    2.6980    0.3560 C   0  0  0  0  0  0  0  0  0  0  0  0
   -3.1110    2.0020   -0.7430 C   0  0  0  0  0  0  0  0  0  0  0  0
   -4.1200    2.1970   -1.8000 C   0  0  0  0  0  0  0  0  0  0  0  0
   -5.1990    3.1620   -1.5870 C   0  0  0  0  0  0  0  0  0  0  0  0
   -2.0930    0.9390   -1.0040 C   0  0  0  0  0  0  0  0  0  0  0  0
   -1.1360    0.7400    0.0070 N   0  0  1  0  0  0  0  0  0  0  0  0
   -1.5880   -0.0560    1.1180 C   0  0  0  0  0  0  0  0  0  0  0  0
   -1.5770   -1.5220    0.9580 C   0  0  1  0  0  0  0  0  0  0  0  0
   -2.0970   -2.0900    2.2950 C   0  0  0  0  0  0  0  0  0  0  0  0
   -2.8680   -3.3250    1.9840 C   0  0  0  0  0  0  0  0  0  0  0  0
   -2.6380   -3.5670    0.5120 C   0  0  0  0  0  0  0  0  0  0  0  0
   -2.5690   -2.1100    0.0080 C   0  0  0  0  0  0  0  0  0  0  0  0
    0.1670    0.2560   -0.4860 C   0  0  1  0  0  0  0  0  0  0  0  0
    0.5670    1.1250   -1.6130 C   0  0  0  0  0  0  0  0  0  0  0  0
    2.0400    1.2800   -1.8620 C   0  0  0  0  0  0  0  0  0  0  0  0
    2.9110    1.2670   -0.6650 C   0  0  0  0  0  0  0  0  0  0  0  0
    2.5620    0.1920    0.3390 C   0  0  2  0  0  0  0  0  0  0  0  0
    3.3350    0.6220    1.6060 C   0  0  0  0  0  0  0  0  0  0  0  0
    4.7650    0.8090    1.2440 C   0  0  0  0  0  0  0  0  0  0  0  0
    5.3980   -0.3320    0.5260 C   0  0  0  0  0  0  0  0  0  0  0  0
    4.5150   -1.0410   -0.4410 C   0  0  0  0  0  0  0  0  0  0  0  0
    3.0750   -1.1580    0.0440 C   0  0  2  0  0  0  0  0  0  0  0  0
    2.3280   -1.9840   -0.8480 N   0  0  0  0  0  0  0  0  0  0  0  0
    1.1210    0.3130    0.6760 C   0  0  0  0  0  0  0  0  0  0  0  0
  1  2  2  0
  2  3  1  0
  2  5  1  0
  3  4  1  0
  6  5  1  6
  6  7  1  0
  6 13  1  0
  8  7  1  1
  8  9  1  0
  8 12  1  0
  9 10  1  0
 10 11  1  0
 11 12  1  0
 13 14  1  6
 13 24  1  0
 14 15  1  0
 15 16  1  0
 17 16  1  6
 17 18  1  0
 17 22  1  0
 17 24  1  0
 18 19  1  0
 19 20  1  0
 20 21  1  0
 21 22  1  0
 22 23  1  6
M  CHG  2   6   1  23   1
M  END
