
     RDKit          3D

 24 26  0  0  0  0  0  0  0  0999 V2000
    3.5150   -0.8450   -1.4880 C   0  0  0  0  0  0  0  0  0  0  0  0
    3.8770   -0.4380   -0.0810 C   0  0  1  0  0  0  0  0  0  0  0  0
    5.3950   -0.3050   -0.0330 C   0  0  0  0  0  0  0  0  0  0  0  0
    3.2980    0.8990    0.2200 C   0  0  2  0  0  0  0  0  0  0  0  0
    3.6370    1.3670    1.6160 C   0  0  0  0  0  0  0  0  0  0  0  0
    2.7430    0.7960    2.6670 C   0  0  0  0  0  0  0  0  0  0  0  0
    1.2970    1.2160    2.2680 C   0  0  0  0  0  0  0  0  0  0  0  0
    1.0270    0.4360    1.0230 C   0  0  1  0  0  0  0  0  0  0  0  0
   -0.3790    0.1260    0.6840 C   0  0  2  0  0  0  0  0  0  0  0  0
   -0.3920   -0.6630   -0.5440 N   0  0  0  0  0  0  0  0  0  0  0  0
   -1.2560   -1.8510   -0.3980 C   0  0  1  0  0  0  0  0  0  0  0  0
   -2.1290   -2.0740   -1.5830 C   0  0  0  0  0  0  0  0  0  0  0  0
   -2.2290   -3.4960   -2.0300 C   0  0  0  0  0  0  0  0  0  0  0  0
   -2.3270   -4.4830   -0.8970 C   0  0  0  0  0  0  0  0  0  0  0  0
   -1.3680   -4.1840    0.2240 C   0  0  0  0  0  0  0  0  0  0  0  0
   -0.3950   -3.1220   -0.2710 C   0  0  0  0  0  0  0  0  0  0  0  0
   -1.3840    1.2060    0.7080 C   0  0  2  0  0  0  0  0  0  0  0  0
   -1.5680    1.8020    2.0530 C   0  0  0  0  0  0  0  0  0  0  0  0
   -2.6640    0.9200   -0.0220 C   0  0  0  0  0  0  0  0  0  0  0  0
   -3.6100    2.0160    0.0350 N   0  0  0  0  0  0  0  0  0  0  0  0
   -3.0490    3.2820   -0.3170 C   0  0  1  0  0  0  0  0  0  0  0  0
   -2.2160    3.4130   -1.5080 C   0  0  0  0  0  0  0  0  0  0  0  0
   -3.5630    3.9790   -1.6010 C   0  0  0  0  0  0  0  0  0  0  0  0
    1.8330    1.0490   -0.1200 C   0  0  0  0  0  0  0  0  0  0  0  0
  2  1  1  6
  2  3  1  0
  2  4  1  0
  4  5  1  1
  4 24  1  0
  5  6  1  0
  6  7  1  0
  8  7  1  1
  8  9  1  0
  8 24  1  0
  9 10  1  6
  9 17  1  0
 11 10  1  6
 11 12  1  0
 11 16  1  0
 12 13  1  0
 13 14  1  0
 14 15  1  0
 15 16  1  0
 17 18  1  1
 17 19  1  0
 19 20  1  0
 21 20  1  6
 21 22  1  0
 21 23  1  0
 22 23  1  0
M  CHG  2  10   1  20   1
M  END
