
     RDKit          3D

 24 26  0  0  0  0  0  0  0  0999 V2000
    7.0510    0.2390   -1.0950 C   0  0  0  0  0  0  0  0  0  0  0  0
    6.0900    1.3700   -1.3900 C   0  0  0  0  0  0  0  0  0  0  0  0
    4.6740    0.8320   -1.6080 C   0  0  0  0  0  0  0  0  0  0  0  0
    4.2080    0.1390   -0.4360 N   0  0  0  0  0  0  0  0  0  0  0  0
    2.7540    0.0950   -0.3680 C   0  0  0  0  0  0  0  0  0  0  0  0
    2.3820   -0.2340    1.0430 C   0  0  1  0  0  0  0  0  0  0  0  0
    2.8890    0.7890    2.0390 C   0  0  0  0  0  0  0  0  0  0  0  0
    2.0250    0.3950    3.2180 C   0  0  0  0  0  0  0  0  0  0  0  0
    0.8920   -0.1360    2.7980 C   0  0  0  0  0  0  0  0  0  0  0  0
    0.9030   -0.1380    1.3240 C   0  0  2  0  0  0  0  0  0  0  0  0
    0.2510   -1.3280    0.7120 C   0  0  0  0  0  0  0  0  0  0  0  0
   -1.2200   -1.4580    0.8600 C   0  0  2  0  0  0  0  0  0  0  0  0
   -1.6470   -2.7180    0.1740 C   0  0  0  0  0  0  0  0  0  0  0  0
   -1.9390   -2.7260   -1.1780 N   0  0  0  0  0  0  0  0  0  0  0  0
   -1.5110   -1.7280   -2.0650 C   0  0  0  0  0  0  0  0  0  0  0  0
   -1.5900   -0.3220   -1.7930 C   0  0  0  0  0  0  0  0  0  0  0  0
   -2.4090    0.2180   -0.6580 C   0  0  1  0  0  0  0  0  0  0  0  0
   -2.0990    1.7300   -0.6690 C   0  0  0  0  0  0  0  0  0  0  0  0
   -3.3190    2.5740   -0.4190 C   0  0  0  0  0  0  0  0  0  0  0  0
   -4.2440    1.9530    0.6040 C   0  0  0  0  0  0  0  0  0  0  0  0
   -4.8340    0.7450   -0.1010 C   0  0  2  0  0  0  0  0  0  0  0  0
   -5.4950   -0.2230    0.8330 C   0  0  0  0  0  0  0  0  0  0  0  0
   -3.8640    0.1240   -1.0640 C   0  0  0  0  0  0  0  0  0  0  0  0
   -2.0750   -0.2850    0.6780 C   0  0  0  0  0  0  0  0  0  0  0  0
  1  2  1  0
  2  3  1  0
  3  4  1  0
  4  5  1  0
  6  5  1  6
  6  7  1  0
  6 10  1  0
  7  8  1  0
  8  9  2  0
  9 10  1  0
 10 11  1  1
 12 11  1  6
 12 13  1  0
 12 24  1  0
 13 14  1  0
 14 15  1  0
 15 16  1  0
 17 16  1  6
 17 18  1  0
 17 23  1  0
 17 24  1  0
 18 19  1  0
 19 20  1  0
 20 21  1  0
 21 22  1  1
 21 23  1  0
M  CHG  2   4   1  14   1
M  END
