
     RDKit          3D

 24 26  0  0  0  0  0  0  0  0999 V2000
   -3.5880   -4.4810   -0.8080 C   0  0  0  0  0  0  0  0  0  0  0  0
   -3.0080   -3.2230   -0.2110 C   0  0  0  0  0  0  0  0  0  0  0  0
   -3.9640   -2.0940   -0.1510 C   0  0  0  0  0  0  0  0  0  0  0  0
   -3.4180   -0.8180    0.4550 C   0  0  2  0  0  0  0  0  0  0  0  0
   -4.5680    0.1530    0.4010 C   0  0  0  0  0  0  0  0  0  0  0  0
   -4.1220    1.5490    0.6640 C   0  0  0  0  0  0  0  0  0  0  0  0
   -3.1880    1.8930   -0.5080 C   0  0  1  0  0  0  0  0  0  0  0  0
   -2.8890    3.3130   -0.3420 N   0  0  0  0  0  0  0  0  0  0  0  0
   -2.4390    3.9240   -1.5710 C   0  0  0  0  0  0  0  0  0  0  0  0
   -1.9440    1.0830   -0.3400 C   0  0  0  0  0  0  0  0  0  0  0  0
   -2.1290   -0.3670   -0.0800 C   0  0  1  0  0  0  0  0  0  0  0  0
   -1.0430   -0.7510    0.8430 N   0  0  0  0  0  0  0  0  0  0  0  0
    0.0950   -1.2860    0.1730 C   0  0  0  0  0  0  0  0  0  0  0  0
    1.4230   -0.9780    0.7620 C   0  0  1  0  0  0  0  0  0  0  0  0
    2.4950   -1.6550   -0.1070 C   0  0  0  0  0  0  0  0  0  0  0  0
    3.3350   -0.3840    0.0930 C   0  0  1  0  0  0  0  0  0  0  0  0
    4.3640   -0.6430    1.1350 C   0  0  0  0  0  0  0  0  0  0  0  0
    5.4700    0.3700    1.1990 C   0  0  0  0  0  0  0  0  0  0  0  0
    6.1330    0.3870   -0.1850 C   0  0  0  0  0  0  0  0  0  0  0  0
    5.0680    0.9870   -1.1140 C   0  0  0  0  0  0  0  0  0  0  0  0
    3.9710   -0.0390   -1.2100 C   0  0  0  0  0  0  0  0  0  0  0  0
    2.0770    0.3310    0.4860 C   0  0  1  0  0  0  0  0  0  0  0  0
    1.5170    1.1820   -0.6050 C   0  0  0  0  0  0  0  0  0  0  0  0
    2.1590    1.1420    1.7620 C   0  0  0  0  0  0  0  0  0  0  0  0
  1  2  1  0
  2  3  1  0
  4  3  1  6
  4  5  1  0
  4 11  1  0
  5  6  1  0
  6  7  1  0
  7  8  1  1
  7 10  1  0
  8  9  1  0
 10 11  1  0
 11 12  1  1
 12 13  1  0
 14 13  1  6
 14 15  1  0
 14 22  1  0
 16 15  1  6
 16 17  1  0
 16 21  1  0
 16 22  1  0
 17 18  1  0
 18 19  1  0
 19 20  1  0
 20 21  1  0
 22 23  1  6
 22 24  1  0
M  CHG  2   8   1  12   1
M  END
