
     RDKit          3D

 24 25  0  0  0  0  0  0  0  0999 V2000
   -1.4650    2.4730    2.3220 C   0  0  0  0  0  0  0  0  0  0  0  0
   -1.0600    2.3970    0.8950 C   0  0  0  0  0  0  0  0  0  0  0  0
   -1.9220    1.5050    0.0240 C   0  0  2  0  0  0  0  0  0  0  0  0
   -3.2780    2.0850    0.0970 C   0  0  0  0  0  0  0  0  0  0  0  0
   -3.1610    3.5550   -0.4180 C   0  0  0  0  0  0  0  0  0  0  0  0
   -1.6450    0.0870    0.2360 C   0  0  2  0  0  0  0  0  0  0  0  0
   -0.2490   -0.1920   -0.1080 N   0  0  0  0  0  0  0  0  0  0  0  0
    0.5030   -0.5020    1.0260 C   0  0  0  0  0  0  0  0  0  0  0  0
    2.0120   -0.6900    0.8630 C   0  0  2  0  0  0  0  0  0  0  0  0
    2.1780   -1.8280   -0.1270 C   0  0  0  0  0  0  0  0  0  0  0  0
    2.4910   -1.1080    2.2450 C   0  0  0  0  0  0  0  0  0  0  0  0
    2.6270    0.5330    0.3540 C   0  0  0  0  0  0  0  0  0  0  0  0
    4.0140    0.7540    0.1080 C   0  0  1  0  0  0  0  0  0  0  0  0
    5.0680    0.6620    1.1470 C   0  0  0  0  0  0  0  0  0  0  0  0
    6.3210    0.9030    0.2780 C   0  0  0  0  0  0  0  0  0  0  0  0
    5.9770    0.4840   -1.0640 N   0  0  0  0  0  0  0  0  0  0  0  0
    4.6300   -0.0950   -0.9800 C   0  0  0  0  0  0  0  0  0  0  0  0
   -2.6100   -0.9520   -0.2590 C   0  0  2  0  0  0  0  0  0  0  0  0
   -3.9510   -0.9310    0.4200 C   0  0  0  0  0  0  0  0  0  0  0  0
   -4.9200   -1.9610   -0.0880 C   0  0  0  0  0  0  0  0  0  0  0  0
   -2.1280   -2.3760   -0.1570 C   0  0  0  0  0  0  0  0  0  0  0  0
   -2.5210   -3.0830   -1.4320 C   0  0  0  0  0  0  0  0  0  0  0  0
   -2.7440   -2.0540   -2.4640 C   0  0  0  0  0  0  0  0  0  0  0  0
   -2.6940   -0.7690   -1.7460 C   0  0  0  0  0  0  0  0  0  0  0  0
  1  2  1  0
  3  2  1  1
  3  4  1  0
  3  6  1  0
  4  5  1  0
  6  7  1  6
  6 18  1  0
  7  8  1  0
  8  9  1  0
  9 10  1  6
  9 11  1  0
  9 12  1  0
 13 12  1  1
 13 14  1  0
 13 17  1  0
 14 15  1  0
 15 16  1  0
 16 17  1  0
 18 19  1  1
 18 21  1  0
 18 24  1  0
 19 20  1  0
 21 22  1  0
 22 23  1  0
 23 24  1  0
M  CHG  2   7   1  16   1
M  END
