
     RDKit          3D

 24 25  0  0  0  0  0  0  0  0999 V2000
   -0.9130    1.6390   -2.6170 C   0  0  0  0  0  0  0  0  0  0  0  0
   -1.5690    2.1470   -1.3700 C   0  0  0  0  0  0  0  0  0  0  0  0
   -1.3640    1.4610   -0.1220 C   0  0  1  0  0  0  0  0  0  0  0  0
   -2.1880    2.2430    0.9670 C   0  0  0  0  0  0  0  0  0  0  0  0
   -1.6160    3.6780    1.0020 C   0  0  0  0  0  0  0  0  0  0  0  0
   -1.3290    0.0380    0.1530 C   0  0  2  0  0  0  0  0  0  0  0  0
   -0.3110   -0.7140   -0.5400 N   0  0  0  0  0  0  0  0  0  0  0  0
    1.0510   -0.3210   -0.4380 C   0  0  0  0  0  0  0  0  0  0  0  0
    1.9070   -1.0480    0.5270 C   0  0  2  0  0  0  0  0  0  0  0  0
    1.8790   -2.5750    0.2160 C   0  0  0  0  0  0  0  0  0  0  0  0
    1.4690   -0.9280    1.9670 C   0  0  0  0  0  0  0  0  0  0  0  0
    3.3820   -0.7600    0.4690 C   0  0  0  0  0  0  0  0  0  0  0  0
    3.9050    0.5900    0.6730 C   0  0  1  0  0  0  0  0  0  0  0  0
    5.4710    0.4750    0.6660 C   0  0  0  0  0  0  0  0  0  0  0  0
    5.9340    0.9300   -0.6610 C   0  0  0  0  0  0  0  0  0  0  0  0
    4.7580    0.9770   -1.4880 N   0  0  0  0  0  0  0  0  0  0  0  0
    3.7720    1.4990   -0.5220 C   0  0  0  0  0  0  0  0  0  0  0  0
   -2.6290   -0.7640    0.1300 C   0  0  1  0  0  0  0  0  0  0  0  0
   -3.2270   -0.7100   -1.2170 C   0  0  0  0  0  0  0  0  0  0  0  0
   -4.5090   -1.4350   -1.4530 C   0  0  0  0  0  0  0  0  0  0  0  0
   -2.2580   -2.1970    0.4600 C   0  0  0  0  0  0  0  0  0  0  0  0
   -3.3660   -2.7890    1.2820 C   0  0  0  0  0  0  0  0  0  0  0  0
   -4.3240   -1.7030    1.6080 C   0  0  0  0  0  0  0  0  0  0  0  0
   -3.4970   -0.4620    1.2840 C   0  0  0  0  0  0  0  0  0  0  0  0
  1  2  1  0
  3  2  1  6
  3  4  1  0
  3  6  1  0
  4  5  1  0
  6  7  1  6
  6 18  1  0
  7  8  1  0
  8  9  1  0
  9 10  1  6
  9 11  1  0
  9 12  1  0
 13 12  1  6
 13 14  1  0
 13 17  1  0
 14 15  1  0
 15 16  1  0
 16 17  1  0
 18 19  1  6
 18 21  1  0
 18 24  1  0
 19 20  1  0
 21 22  1  0
 22 23  1  0
 23 24  1  0
M  CHG  2   7   1  16   1
M  END
