
     RDKit          3D

 24 26  0  0  0  0  0  0  0  0999 V2000
    1.7140    3.9520   -0.9660 C   0  0  0  0  0  0  0  0  0  0  0  0
    0.9090    3.1760    0.0420 C   0  0  0  0  0  0  0  0  0  0  0  0
    1.5630    1.9570    0.5810 C   0  0  2  0  0  0  0  0  0  0  0  0
    2.8620    2.3900    1.2470 C   0  0  0  0  0  0  0  0  0  0  0  0
    1.7070    0.7960   -0.3350 C   0  0  2  0  0  0  0  0  0  0  0  0
    2.5020    1.1110   -1.5000 N   0  0  0  0  0  0  0  0  0  0  0  0
    0.3590    0.3530   -0.8380 C   0  0  0  0  0  0  0  0  0  0  0  0
   -0.5900   -0.0700    0.2480 C   0  0  0  0  0  0  0  0  0  0  0  0
   -1.9100   -0.4990   -0.3580 C   0  0  2  0  0  0  0  0  0  0  0  0
   -2.5100    0.6370   -1.1150 C   0  0  0  0  0  0  0  0  0  0  0  0
   -3.9810    0.4710   -1.3910 C   0  0  2  0  0  0  0  0  0  0  0  0
   -4.7280    1.1530   -0.2600 C   0  0  0  0  0  0  0  0  0  0  0  0
   -5.0240    0.1020    0.7680 C   0  0  0  0  0  0  0  0  0  0  0  0
   -4.2530   -1.1080    0.3170 C   0  0  1  0  0  0  0  0  0  0  0  0
   -4.3560   -1.0000   -1.1920 C   0  0  0  0  0  0  0  0  0  0  0  0
   -2.8060   -1.0760    0.6990 C   0  0  2  0  0  0  0  0  0  0  0  0
   -2.5990   -0.4200    2.0510 C   0  0  0  0  0  0  0  0  0  0  0  0
   -2.3790   -2.5400    0.8810 C   0  0  0  0  0  0  0  0  0  0  0  0
    2.4390   -0.2850    0.4130 C   0  0  0  0  0  0  0  0  0  0  0  0
    2.6610   -1.4770   -0.3310 N   0  0  1  0  0  0  0  0  0  0  0  0
    4.0190   -1.5430   -0.7890 C   0  0  0  0  0  0  0  0  0  0  0  0
    4.7170   -2.6730   -0.0920 C   0  0  0  0  0  0  0  0  0  0  0  0
    3.8840   -2.8510    1.1600 C   0  0  0  0  0  0  0  0  0  0  0  0
    2.4820   -2.6070    0.5980 C   0  0  0  0  0  0  0  0  0  0  0  0
  1  2  1  0
  2  3  1  0
  3  4  1  6
  3  5  1  0
  5  6  1  6
  5  7  1  0
  5 19  1  0
  7  8  1  0
  9  8  1  1
  9 10  1  0
  9 16  1  0
 11 10  1  1
 11 12  1  0
 11 15  1  0
 12 13  1  0
 14 13  1  1
 14 15  1  0
 14 16  1  0
 16 17  1  1
 16 18  1  0
 20 19  1  1
 20 21  1  0
 20 24  1  0
 21 22  1  0
 22 23  1  0
 23 24  1  0
M  CHG  2   6   1  20   1
M  END
