
     RDKit          3D

 24 26  0  0  0  0  0  0  0  0999 V2000
    4.1160   -2.0750    0.5200 C   0  0  0  0  0  0  0  0  0  0  0  0
    4.4540   -0.7510   -0.1050 C   0  0  1  0  0  0  0  0  0  0  0  0
    4.5860   -0.9110   -1.6060 C   0  0  0  0  0  0  0  0  0  0  0  0
    3.5050    0.3640    0.2570 C   0  0  2  0  0  0  0  0  0  0  0  0
    3.5690    0.5030    1.7590 C   0  0  0  0  0  0  0  0  0  0  0  0
    2.4270    1.4520    2.1040 C   0  0  0  0  0  0  0  0  0  0  0  0
    1.1860    0.6010    2.0020 C   0  0  0  0  0  0  0  0  0  0  0  0
    1.0290   -0.0010    0.6690 C   0  0  1  0  0  0  0  0  0  0  0  0
   -0.2950    0.1500   -0.0110 C   0  0  2  0  0  0  0  0  0  0  0  0
   -0.7570    1.4700   -0.2500 N   0  0  0  0  0  0  0  0  0  0  0  0
   -1.3200    1.6350   -1.5870 C   0  0  2  0  0  0  0  0  0  0  0  0
   -0.5370    2.6470   -2.4030 C   0  0  0  0  0  0  0  0  0  0  0  0
   -0.5580    4.0170   -1.7750 C   0  0  0  0  0  0  0  0  0  0  0  0
   -1.9170    4.4940   -1.4010 C   0  0  0  0  0  0  0  0  0  0  0  0
   -2.8200    3.4560   -0.8310 C   0  0  0  0  0  0  0  0  0  0  0  0
   -2.7490    2.1250   -1.5420 C   0  0  0  0  0  0  0  0  0  0  0  0
   -1.4180   -0.6780    0.5280 C   0  0  2  0  0  0  0  0  0  0  0  0
   -1.7430   -0.4010    1.9770 C   0  0  0  0  0  0  0  0  0  0  0  0
   -1.2150   -2.1650    0.3210 C   0  0  0  0  0  0  0  0  0  0  0  0
   -2.4040   -2.8060    0.9060 N   0  0  0  0  0  0  0  0  0  0  0  0
   -2.6460   -4.1010    0.3200 C   0  0  2  0  0  0  0  0  0  0  0  0
   -3.9430   -4.3200   -0.4410 C   0  0  0  0  0  0  0  0  0  0  0  0
   -3.7750   -4.8650    0.9290 C   0  0  0  0  0  0  0  0  0  0  0  0
    2.1600    0.2300   -0.3070 C   0  0  0  0  0  0  0  0  0  0  0  0
  2  1  1  1
  2  3  1  0
  2  4  1  0
  4  5  1  1
  4 24  1  0
  5  6  1  0
  6  7  1  0
  8  7  1  1
  8  9  1  0
  8 24  1  0
  9 10  1  1
  9 17  1  0
 11 10  1  1
 11 12  1  0
 11 16  1  0
 12 13  1  0
 13 14  1  0
 14 15  1  0
 15 16  1  0
 17 18  1  1
 17 19  1  0
 19 20  1  0
 21 20  1  1
 21 22  1  0
 21 23  1  0
 22 23  1  0
M  CHG  2  10   1  20   1
M  END
