
     RDKit          3D

 27 27  0  0  0  0  0  0  0  0999 V2000
    6.7490   -1.1050    0.7740 C   0  0  0  0  0  0  0  0  0  0  0  0
    5.5250   -1.6480    0.0730 C   0  0  0  0  0  0  0  0  0  0  0  0
    4.3580   -1.5320    1.0650 C   0  0  0  0  0  0  0  0  0  0  0  0
    3.1250   -2.0520    0.4210 C   0  0  0  0  0  0  0  0  0  0  0  0
    2.7400   -1.3870   -0.8050 C   0  0  0  0  0  0  0  0  0  0  0  0
    2.3640    0.0250   -0.9190 C   0  0  2  0  0  0  0  0  0  0  0  0
    3.2830    1.1030   -0.5600 C   0  0  0  0  0  0  0  0  0  0  0  0
    2.6160    2.4260   -0.9100 C   0  0  0  0  0  0  0  0  0  0  0  0
    1.5710    2.4850   -1.5920 O   0  0  0  0  0  0  0  0  0  0  0  0
    3.1790    3.6530   -0.4600 N   0  0  0  0  0  0  0  0  0  0  0  0
    2.6200    4.8460   -0.7480 O   0  0  0  0  0  0  0  0  0  0  0  0
    1.0930    0.1770   -0.0640 C   0  0  0  0  0  0  0  0  0  0  0  0
    1.2050    0.1080    1.1860 O   0  0  0  0  0  0  0  0  0  0  0  0
   -0.1310    0.3740   -0.6610 N   0  0  0  0  0  0  0  0  0  0  0  0
   -1.4350    0.4920    0.0180 C   0  0  2  0  0  0  0  0  0  0  0  0
   -2.3940   -0.3030   -0.7480 C   0  0  0  0  0  0  0  0  0  0  0  0
   -2.0630   -0.5800   -1.9590 O   0  0  0  0  0  0  0  0  0  0  0  0
   -3.6390   -0.8110   -0.3260 N   0  0  0  0  0  0  0  0  0  0  0  0
   -4.5580   -1.5640   -1.1960 C   0  0  0  0  0  0  0  0  0  0  0  0
   -5.9290   -1.2910   -0.6670 C   0  0  0  0  0  0  0  0  0  0  0  0
   -5.7240   -0.4580    0.5810 C   0  0  0  0  0  0  0  0  0  0  0  0
   -4.2960   -0.8010    0.9470 C   0  0  1  0  0  0  0  0  0  0  0  0
   -4.3700   -2.2150    1.5350 C   0  0  0  0  0  0  0  0  0  0  0  0
   -3.1040   -2.7420    1.7160 O   0  0  0  0  0  0  0  0  0  0  0  0
   -1.7260    1.9780    0.0520 C   0  0  1  0  0  0  0  0  0  0  0  0
   -3.0700    2.3270    0.6530 C   0  0  0  0  0  0  0  0  0  0  0  0
   -0.7370    2.5600    1.0970 C   0  0  0  0  0  0  0  0  0  0  0  0
  1  2  1  0
  2  3  1  0
  3  4  1  0
  4  5  1  0
  6  5  1  1
  6  7  1  0
  6 12  1  0
  7  8  1  0
  8  9  2  0
  8 10  1  0
 10 11  1  0
 12 13  2  0
 12 14  1  0
 15 14  1  6
 15 16  1  0
 15 25  1  0
 16 17  2  0
 16 18  1  0
 18 19  1  0
 18 22  1  0
 19 20  1  0
 20 21  1  0
 21 22  1  0
 22 23  1  6
 23 24  1  0
 25 26  1  1
 25 27  1  0
M  END
