
     RDKit          3D

 24 26  0  0  0  0  0  0  0  0999 V2000
   -3.2440    2.8030    1.2730 C   0  0  0  0  0  0  0  0  0  0  0  0
   -2.2750    2.4190    0.4500 C   0  0  0  0  0  0  0  0  0  0  0  0
   -2.1650    3.1150   -0.8440 C   0  0  0  0  0  0  0  0  0  0  0  0
   -3.2090    4.2000   -1.0240 C   0  0  0  0  0  0  0  0  0  0  0  0
   -1.3320    1.3680    0.8320 C   0  0  0  0  0  0  0  0  0  0  0  0
   -1.2790    0.1770    0.0700 N   0  0  1  0  0  0  0  0  0  0  0  0
   -2.3060   -0.0830   -0.8650 C   0  0  0  0  0  0  0  0  0  0  0  0
   -2.9920   -1.3910   -0.8080 C   0  0  2  0  0  0  0  0  0  0  0  0
   -3.7020   -1.6760    0.5140 C   0  0  0  0  0  0  0  0  0  0  0  0
   -4.3060   -3.0450    0.1670 C   0  0  0  0  0  0  0  0  0  0  0  0
   -3.3450   -3.6750   -0.8100 C   0  0  0  0  0  0  0  0  0  0  0  0
   -2.2130   -2.6340   -0.9690 C   0  0  0  0  0  0  0  0  0  0  0  0
    0.0390   -0.1800   -0.4520 C   0  0  1  0  0  0  0  0  0  0  0  0
    0.5830    0.6810   -1.5130 C   0  0  0  0  0  0  0  0  0  0  0  0
    1.5330    1.7540   -1.1090 C   0  0  0  0  0  0  0  0  0  0  0  0
    2.4770    1.3940   -0.0230 C   0  0  0  0  0  0  0  0  0  0  0  0
    2.4110   -0.0430    0.4160 C   0  0  2  0  0  0  0  0  0  0  0  0
    3.0950   -0.0820    1.7930 C   0  0  0  0  0  0  0  0  0  0  0  0
    4.5940   -0.0790    1.6650 C   0  0  0  0  0  0  0  0  0  0  0  0
    5.0630   -1.3110    0.9420 C   0  0  0  0  0  0  0  0  0  0  0  0
    3.9030   -2.0290    0.2900 C   0  0  0  0  0  0  0  0  0  0  0  0
    3.0890   -1.0010   -0.5080 C   0  0  2  0  0  0  0  0  0  0  0  0
    3.9930   -0.4070   -1.4450 N   0  0  0  0  0  0  0  0  0  0  0  0
    0.9960   -0.4970    0.6700 C   0  0  0  0  0  0  0  0  0  0  0  0
  1  2  2  0
  2  3  1  0
  2  5  1  0
  3  4  1  0
  6  5  1  6
  6  7  1  0
  6 13  1  0
  8  7  1  1
  8  9  1  0
  8 12  1  0
  9 10  1  0
 10 11  1  0
 11 12  1  0
 13 14  1  1
 13 24  1  0
 14 15  1  0
 15 16  1  0
 17 16  1  6
 17 18  1  0
 17 22  1  0
 17 24  1  0
 18 19  1  0
 19 20  1  0
 20 21  1  0
 21 22  1  0
 22 23  1  6
M  CHG  2   6   1  23   1
M  END
