
     RDKit          3D

 24 26  0  0  0  0  0  0  0  0999 V2000
    4.5510    1.0710    2.2500 C   0  0  0  0  0  0  0  0  0  0  0  0
    3.5320    0.2140    1.5990 C   0  0  0  0  0  0  0  0  0  0  0  0
    2.7910    0.7440    0.4230 C   0  0  1  0  0  0  0  0  0  0  0  0
    3.5440    1.0800   -0.7910 C   0  0  1  0  0  0  0  0  0  0  0  0
    4.6190    2.1420   -0.7130 C   0  0  0  0  0  0  0  0  0  0  0  0
    4.9890    0.7330   -0.9550 C   0  0  0  0  0  0  0  0  0  0  0  0
    1.5880   -0.1990    0.1860 C   0  0  2  0  0  0  0  0  0  0  0  0
    2.0810   -1.5710   -0.1230 C   0  0  0  0  0  0  0  0  0  0  0  0
    0.6650    0.4360   -0.7710 C   0  0  0  0  0  0  0  0  0  0  0  0
   -0.6040   -0.3670   -1.0810 C   0  0  2  0  0  0  0  0  0  0  0  0
   -1.3680    0.4370   -2.1050 C   0  0  0  0  0  0  0  0  0  0  0  0
   -1.6450    1.8060   -1.5770 C   0  0  0  0  0  0  0  0  0  0  0  0
   -2.4850    1.6570   -0.3350 C   0  0  2  0  0  0  0  0  0  0  0  0
   -2.1730    2.6610    0.7250 C   0  0  0  0  0  0  0  0  0  0  0  0
   -2.3610    4.0790    0.3230 C   0  0  0  0  0  0  0  0  0  0  0  0
   -3.6790    4.4350   -0.0790 N   0  0  0  0  0  0  0  0  0  0  0  0
   -2.5900    0.2680    0.1600 C   0  0  0  0  0  0  0  0  0  0  0  0
   -1.4330   -0.5810    0.0550 N   0  0  1  0  0  0  0  0  0  0  0  0
   -1.9060   -1.9400    0.2370 C   0  0  1  0  0  0  0  0  0  0  0  0
   -2.0590   -2.7620   -0.9770 C   0  0  0  0  0  0  0  0  0  0  0  0
   -1.1750   -4.0130   -0.8520 C   0  0  0  0  0  0  0  0  0  0  0  0
   -1.7610   -4.8550    0.2700 C   0  0  0  0  0  0  0  0  0  0  0  0
   -1.9500   -3.9980    1.5040 C   0  0  0  0  0  0  0  0  0  0  0  0
   -1.1560   -2.6900    1.3300 C   0  0  0  0  0  0  0  0  0  0  0  0
  1  2  1  0
  3  2  1  1
  3  4  1  0
  3  7  1  0
  4  5  1  1
  4  6  1  0
  5  6  1  0
  7  8  1  6
  7  9  1  0
 10  9  1  1
 10 11  1  0
 10 18  1  0
 11 12  1  0
 12 13  1  0
 13 14  1  1
 13 17  1  0
 14 15  1  0
 15 16  1  0
 18 17  1  6
 18 19  1  0
 19 20  1  6
 19 24  1  0
 20 21  1  0
 21 22  1  0
 22 23  1  0
 23 24  1  0
M  CHG  2  16   1  18   1
M  END
