
     RDKit          3D

 32 32  0  0  0  0  0  0  0  0999 V2000
   -4.3560   -5.4910   -0.5920 C   0  0  0  0  0  0  0  0  0  0  0  0
   -3.1610   -4.5940   -0.4680 C   0  0  0  0  0  0  0  0  0  0  0  0
   -2.0540   -4.9980   -1.2260 O   0  0  0  0  0  0  0  0  0  0  0  0
   -0.7140   -3.8650   -1.0330 P   0  0  0  0  0  0  0  0  0  0  0  0
    0.1690   -3.7620   -2.5560 O   0  0  0  0  0  0  0  0  0  0  0  0
   -1.2790   -2.3140   -0.6240 O   0  0  0  0  0  0  0  0  0  0  0  0
   -0.6410   -1.6280    0.3730 C   0  0  1  0  0  0  0  0  0  0  0  0
   -0.7060   -2.4550    1.5130 O   0  0  0  0  0  0  0  0  0  0  0  0
    0.6620   -1.2100    0.1180 O   0  0  0  0  0  0  0  0  0  0  0  0
    1.2980   -0.1170    0.6320 C   0  0  0  0  0  0  0  0  0  0  0  0
    2.7140   -0.0380    0.9430 N   0  0  0  0  0  0  0  0  0  0  0  0
    3.2990    0.9770    0.9090 C   0  0  0  0  0  0  0  0  0  0  0  0
    4.5790    1.6220    1.0940 C   0  0  0  0  0  0  0  0  0  0  0  0
    5.6190    0.9060    1.4840 C   0  0  0  0  0  0  0  0  0  0  0  0
    5.4020   -0.5040    1.7120 N   0  0  0  0  0  0  0  0  0  0  0  0
    4.7480    3.0280    0.8160 C   0  0  0  0  0  0  0  0  0  0  0  0
    3.7320    3.6700    0.3870 O   0  0  0  0  0  0  0  0  0  0  0  0
    5.9610    3.7630    0.9770 N   0  0  0  0  0  0  0  0  0  0  0  0
    5.8620    5.1660    0.5960 C   0  0  0  0  0  0  0  0  0  0  0  0
    7.0250    5.8400    0.8680 O   0  0  0  0  0  0  0  0  0  0  0  0
    0.5420    0.9670    0.8610 C   0  0  0  0  0  0  0  0  0  0  0  0
   -0.8730    0.8620    0.5170 C   0  0  0  0  0  0  0  0  0  0  0  0
   -1.4170    1.9230    0.0740 O   0  0  0  0  0  0  0  0  0  0  0  0
   -1.5660   -0.4200    0.6880 C   0  0  2  0  0  0  0  0  0  0  0  0
   -1.8330   -0.5150    2.0620 F   0  0  0  0  0  0  0  0  0  0  0  0
   -2.7960   -0.5360   -0.0500 N   0  0  0  0  0  0  0  0  0  0  0  0
   -3.8850    0.3410    0.1480 C   0  0  0  0  0  0  0  0  0  0  0  0
   -3.8000    1.2740    0.9990 O   0  0  0  0  0  0  0  0  0  0  0  0
   -5.1650    0.2180   -0.6100 C   0  0  0  0  0  0  0  0  0  0  0  0
   -5.9060    1.3790   -0.5000 O   0  0  0  0  0  0  0  0  0  0  0  0
   -5.3580    2.4140   -1.1960 C   0  0  0  0  0  0  0  0  0  0  0  0
   -4.0990    2.8240   -0.9000 F   0  0  0  0  0  0  0  0  0  0  0  0
  1  2  1  0
  2  3  1  0
  3  4  1  0
  4  5  1  0
  4  6  1  0
  6  7  1  0
  7  8  1  1
  7  9  1  0
  7 24  1  0
  9 10  1  0
 10 11  1  0
 10 21  2  0
 11 12  2  3
 12 13  1  0
 13 14  2  3
 13 16  1  0
 14 15  1  0
 16 17  2  0
 16 18  1  0
 18 19  1  0
 19 20  1  0
 21 22  1  0
 22 23  2  0
 22 24  1  0
 24 25  1  1
 24 26  1  0
 26 27  1  0
 27 28  2  0
 27 29  1  0
 29 30  1  0
 30 31  1  0
 31 32  1  0
M  END
