
     RDKit          3D

 31 32  0  0  0  0  0  0  0  0999 V2000
    1.2770   -2.1010   -1.4620 O   0  0  0  0  0  0  0  0  0  0  0  0
    0.5150   -1.7090   -0.5220 C   0  0  0  0  0  0  0  0  0  0  0  0
    0.1820   -2.6540    0.4550 N   0  0  0  0  0  0  0  0  0  0  0  0
    0.6660   -4.0390    0.3870 C   0  0  0  0  0  0  0  0  0  0  0  0
    0.1860   -4.7410    1.4690 F   0  0  0  0  0  0  0  0  0  0  0  0
    0.0540   -0.3360   -0.5120 C   0  0  0  0  0  0  0  0  0  0  0  0
    0.9570    0.7240   -0.6900 C   0  0  0  0  0  0  0  0  0  0  0  0
    2.3260    0.6230   -0.8660 O   0  0  0  0  0  0  0  0  0  0  0  0
    3.2060    0.6340    0.2140 C   0  0  0  0  0  0  0  0  0  0  0  0
    2.6680    0.7420    1.3580 O   0  0  0  0  0  0  0  0  0  0  0  0
    4.6810    0.5260    0.0420 C   0  0  2  0  0  0  0  0  0  0  0  0
    4.9300   -0.6660   -0.5810 F   0  0  0  0  0  0  0  0  0  0  0  0
    5.3150    0.5480    1.4110 C   0  0  0  0  0  0  0  0  0  0  0  0
    4.8030   -0.5460    2.1130 O   0  0  0  0  0  0  0  0  0  0  0  0
    5.1060    1.7120   -0.8020 C   0  0  0  0  0  0  0  0  0  0  0  0
    6.9150    1.7510   -1.1230 P   0  0  0  0  0  0  0  0  0  0  0  0
    7.7740    2.4510    0.2290 O   0  0  0  0  0  0  0  0  0  0  0  0
    7.4920    0.1630   -1.4760 O   0  0  0  0  0  0  0  0  0  0  0  0
    0.2240    1.8190   -0.6530 N   0  0  0  0  0  0  0  0  0  0  0  0
   -1.0670    1.5080   -0.4670 N   0  0  0  0  0  0  0  0  0  0  0  0
   -1.2460    0.1960   -0.3740 C   0  0  0  0  0  0  0  0  0  0  0  0
   -2.4360   -0.5910   -0.1990 C   0  0  0  0  0  0  0  0  0  0  0  0
   -2.2910   -1.8720   -0.2250 O   0  0  0  0  0  0  0  0  0  0  0  0
   -3.7230   -0.0860   -0.0050 N   0  0  0  0  0  0  0  0  0  0  0  0
   -4.0490    1.2980    0.0610 C   0  0  0  0  0  0  0  0  0  0  0  0
   -5.5360    1.3960    0.4960 C   0  0  1  0  0  0  0  0  0  0  0  0
   -5.7950    2.7610    0.6040 O   0  0  0  0  0  0  0  0  0  0  0  0
   -6.3760    0.7300   -0.5400 C   0  0  0  0  0  0  0  0  0  0  0  0
   -5.8710   -0.6520   -0.8860 C   0  0  1  0  0  0  0  0  0  0  0  0
   -5.3860   -0.7370   -2.1710 O   0  0  0  0  0  0  0  0  0  0  0  0
   -4.8320   -1.0520    0.1380 C   0  0  0  0  0  0  0  0  0  0  0  0
  1  2  2  0
  2  3  1  0
  2  6  1  0
  3  4  1  0
  4  5  1  0
  6  7  1  0
  6 21  2  0
  7  8  1  0
  7 19  2  0
  8  9  1  0
  9 10  2  0
  9 11  1  0
 11 12  1  6
 11 13  1  0
 11 15  1  0
 13 14  1  0
 15 16  1  0
 16 17  1  0
 16 18  1  0
 19 20  1  0
 20 21  1  0
 21 22  1  0
 22 23  2  0
 22 24  1  0
 24 25  1  0
 24 31  1  0
 25 26  1  0
 26 27  1  6
 26 28  1  0
 28 29  1  0
 29 30  1  6
 29 31  1  0
M  END
