
     RDKit          3D

 32 33  0  0  0  0  0  0  0  0999 V2000
   -5.8420   -2.1780    2.0050 N   0  0  0  0  0  0  0  0  0  0  0  0
   -5.7030   -1.2240    0.9150 C   0  0  2  0  0  0  0  0  0  0  0  0
   -6.2100   -1.7730   -0.3760 C   0  0  0  0  0  0  0  0  0  0  0  0
   -5.4070   -1.0440   -1.4240 C   0  0  1  0  0  0  0  0  0  0  0  0
   -5.1380   -1.8680   -2.5130 F   0  0  0  0  0  0  0  0  0  0  0  0
   -6.1450    0.0240   -1.8650 F   0  0  0  0  0  0  0  0  0  0  0  0
   -4.1890   -0.6420   -0.7620 N   0  0  0  0  0  0  0  0  0  0  0  0
   -3.0610   -0.0500   -1.4080 C   0  0  0  0  0  0  0  0  0  0  0  0
   -3.0920    0.1400   -2.6650 O   0  0  0  0  0  0  0  0  0  0  0  0
   -1.8790    0.3440   -0.7330 N   0  0  0  0  0  0  0  0  0  0  0  0
   -0.7160    0.8220   -1.4230 C   0  0  0  0  0  0  0  0  0  0  0  0
   -0.7890    0.9440   -2.6560 O   0  0  0  0  0  0  0  0  0  0  0  0
    0.5310    1.1560   -0.7100 C   0  0  1  0  0  0  0  0  0  0  0  0
    0.4230    2.5550   -0.1490 C   0  0  0  0  0  0  0  0  0  0  0  0
   -0.7020    2.8110    0.7810 C   0  0  0  0  0  0  0  0  0  0  0  0
   -0.5870    4.1430    1.2350 O   0  0  0  0  0  0  0  0  0  0  0  0
   -0.6170    5.2530    0.4430 C   0  0  0  0  0  0  0  0  0  0  0  0
   -0.7580    5.1800   -0.7830 O   0  0  0  0  0  0  0  0  0  0  0  0
   -0.4900    6.5640    0.9570 O   0  0  0  0  0  0  0  0  0  0  0  0
    1.0240    0.1250    0.2310 C   0  0  0  0  0  0  0  0  0  0  0  0
    2.4730   -0.0410   -0.1630 C   0  0  1  0  0  0  0  0  0  0  0  0
    2.6500   -1.3530   -0.7020 N   0  0  0  0  0  0  0  0  0  0  0  0
    3.7550   -2.0990   -0.1520 C   0  0  0  0  0  0  0  0  0  0  0  0
    5.0810   -1.4930   -0.5740 C   0  0  0  0  0  0  0  0  0  0  0  0
    6.4740   -2.4830    0.1290 P   0  0  0  0  0  0  0  0  0  0  0  0
    6.9880   -3.7320   -0.9610 O   0  0  0  0  0  0  0  0  0  0  0  0
    6.2080   -3.0370    1.7220 O   0  0  0  0  0  0  0  0  0  0  0  0
    7.3860   -3.4190    2.2100 O   0  0  0  0  0  0  0  0  0  0  0  0
    2.7040    1.0670   -1.1140 C   0  0  0  0  0  0  0  0  0  0  0  0
    1.5060    1.2850   -1.7240 O   0  0  0  0  0  0  0  0  0  0  0  0
   -4.2910   -0.9500    0.6140 C   0  0  0  0  0  0  0  0  0  0  0  0
   -3.3580   -0.9890    1.4490 O   0  0  0  0  0  0  0  0  0  0  0  0
  2  1  1  1
  2  3  1  0
  2 31  1  0
  3  4  1  0
  4  5  1  6
  4  6  1  0
  4  7  1  0
  7  8  1  0
  7 31  1  0
  8  9  2  0
  8 10  1  0
 10 11  1  0
 11 12  2  0
 11 13  1  0
 13 14  1  1
 13 20  1  0
 13 30  1  0
 14 15  1  0
 15 16  1  0
 16 17  1  0
 17 18  2  0
 17 19  1  0
 20 21  1  0
 21 22  1  6
 21 29  1  0
 22 23  1  0
 23 24  1  0
 24 25  1  0
 25 26  1  0
 25 27  1  0
 27 28  1  0
 29 30  1  0
 31 32  2  0
M  END
