
     RDKit          3D

 31 31  0  0  0  0  0  0  0  0999 V2000
   -1.7940    2.2450    1.2760 C   0  0  0  0  0  0  0  0  0  0  0  0
   -1.4340    1.6760   -0.0320 C   0  0  1  0  0  0  0  0  0  0  0  0
   -2.4550    0.7650   -0.3670 F   0  0  0  0  0  0  0  0  0  0  0  0
   -1.3820    2.6560   -1.1300 C   0  0  0  0  0  0  0  0  0  0  0  0
   -2.5540    3.3100   -1.3930 O   0  0  0  0  0  0  0  0  0  0  0  0
   -3.3050    4.2460   -0.8050 C   0  0  0  0  0  0  0  0  0  0  0  0
   -4.5560    4.7210   -1.3470 N   0  0  0  0  0  0  0  0  0  0  0  0
   -2.9360    4.7610    0.2730 O   0  0  0  0  0  0  0  0  0  0  0  0
   -0.1680    0.7770    0.0020 C   0  0  2  0  0  0  0  0  0  0  0  0
    0.9930    1.5640    0.4550 C   0  0  0  0  0  0  0  0  0  0  0  0
    2.2660    0.9440    0.6030 N   0  0  0  0  0  0  0  0  0  0  0  0
    3.1560    0.4300   -0.3390 C   0  0  0  0  0  0  0  0  0  0  0  0
    2.8990    0.5020   -1.5440 O   0  0  0  0  0  0  0  0  0  0  0  0
    4.4430   -0.2230    0.1320 C   0  0  0  0  0  0  0  0  0  0  0  0
    4.5040   -0.2180    1.5180 O   0  0  0  0  0  0  0  0  0  0  0  0
    5.9280   -0.9680    2.1200 P   0  0  0  0  0  0  0  0  0  0  0  0
    7.3830   -0.2020    1.6110 O   0  0  0  0  0  0  0  0  0  0  0  0
    5.8940   -1.1440    3.8320 O   0  0  0  0  0  0  0  0  0  0  0  0
   -0.0750    0.2490   -1.3920 C   0  0  0  0  0  0  0  0  0  0  0  0
    0.3410   -1.1360   -1.4760 N   0  0  0  0  0  0  0  0  0  0  0  0
   -0.4840   -2.1250   -0.7450 C   0  0  0  0  0  0  0  0  0  0  0  0
   -0.5620   -3.3170   -1.2480 C   0  0  0  0  0  0  0  0  0  0  0  0
   -1.1300   -4.6030   -1.0030 C   0  0  0  0  0  0  0  0  0  0  0  0
   -1.8460   -4.8540    0.1140 O   0  0  0  0  0  0  0  0  0  0  0  0
   -0.9190   -1.6780    0.4900 N   0  0  0  0  0  0  0  0  0  0  0  0
   -2.0940   -2.0820    1.1540 C   0  0  0  0  0  0  0  0  0  0  0  0
   -2.0890   -1.9690    2.4140 O   0  0  0  0  0  0  0  0  0  0  0  0
   -3.3110   -2.5740    0.5410 C   0  0  0  0  0  0  0  0  0  0  0  0
   -4.1210   -3.2860    1.4230 F   0  0  0  0  0  0  0  0  0  0  0  0
   -0.4550   -0.3370    0.9310 C   0  0  0  0  0  0  0  0  0  0  0  0
   -0.3310   -0.2540    2.1710 O   0  0  0  0  0  0  0  0  0  0  0  0
  2  1  1  1
  2  3  1  0
  2  4  1  0
  2  9  1  0
  4  5  1  0
  5  6  1  0
  6  7  1  0
  6  8  2  0
  9 10  1  1
  9 19  1  0
  9 30  1  0
 10 11  1  0
 11 12  1  0
 12 13  2  0
 12 14  1  0
 14 15  1  0
 15 16  1  0
 16 17  1  0
 16 18  1  0
 19 20  1  0
 20 21  1  0
 21 22  2  3
 21 25  1  0
 22 23  1  0
 23 24  1  0
 25 26  1  0
 25 30  1  0
 26 27  2  0
 26 28  1  0
 28 29  1  0
 30 31  2  0
M  END
