
     RDKit          3D

 31 32  0  0  0  0  0  0  0  0999 V2000
    3.8630   -0.3210   -2.1280 C   0  0  0  0  0  0  0  0  0  0  0  0
    3.5030   -0.8630   -0.8380 N   0  0  0  0  0  0  0  0  0  0  0  0
    4.2520   -1.9750   -0.2980 C   0  0  0  0  0  0  0  0  0  0  0  0
    6.0460   -1.5740   -0.0740 P   0  0  0  0  0  0  0  0  0  0  0  0
    6.4000   -1.0660    1.5460 O   0  0  0  0  0  0  0  0  0  0  0  0
    7.0300   -2.9750   -0.3970 O   0  0  0  0  0  0  0  0  0  0  0  0
    2.4210   -0.3020   -0.1140 C   0  0  0  0  0  0  0  0  0  0  0  0
    2.6470    0.0010    1.1510 C   0  0  0  0  0  0  0  0  0  0  0  0
    1.6330    0.5830    2.0210 C   0  0  1  0  0  0  0  0  0  0  0  0
    1.3970   -0.1560    3.1630 F   0  0  0  0  0  0  0  0  0  0  0  0
    2.0450    1.9770    2.5120 C   0  0  0  0  0  0  0  0  0  0  0  0
    3.2490    1.9090    3.2220 O   0  0  0  0  0  0  0  0  0  0  0  0
    0.3930    0.7700    1.3100 N   0  0  0  0  0  0  0  0  0  0  0  0
    0.1610    0.4420   -0.0490 C   0  0  0  0  0  0  0  0  0  0  0  0
   -1.1190    0.6750   -0.6460 N   0  0  0  0  0  0  0  0  0  0  0  0
   -1.7100    1.9990   -0.6180 C   0  0  0  0  0  0  0  0  0  0  0  0
   -2.7760    2.0190   -1.6940 C   0  0  2  0  0  0  0  0  0  0  0  0
   -2.1690    1.6450   -2.8760 F   0  0  0  0  0  0  0  0  0  0  0  0
   -3.3780    3.2850   -1.7880 O   0  0  0  0  0  0  0  0  0  0  0  0
   -4.0510    3.9040   -0.7660 C   0  0  0  0  0  0  0  0  0  0  0  0
   -4.1470    3.3190    0.3340 O   0  0  0  0  0  0  0  0  0  0  0  0
   -4.6060    5.1560   -0.9740 O   0  0  0  0  0  0  0  0  0  0  0  0
   -3.6810    1.0100   -1.3570 O   0  0  0  0  0  0  0  0  0  0  0  0
   -3.1160   -0.1890   -1.7860 C   0  0  0  0  0  0  0  0  0  0  0  0
   -1.7730   -0.4650   -1.2670 C   0  0  2  0  0  0  0  0  0  0  0  0
   -1.5820   -1.6910   -0.4160 C   0  0  0  0  0  0  0  0  0  0  0  0
   -2.0470   -1.6490    0.8480 O   0  0  0  0  0  0  0  0  0  0  0  0
   -3.3660   -1.5650    1.1120 C   0  0  0  0  0  0  0  0  0  0  0  0
   -4.1960   -2.7560    0.6830 C   0  0  0  0  0  0  0  0  0  0  0  0
   -5.5190   -2.4860    1.0300 O   0  0  0  0  0  0  0  0  0  0  0  0
    1.1410   -0.0690   -0.7130 N   0  0  0  0  0  0  0  0  0  0  0  0
  1  2  1  0
  2  3  1  0
  2  7  1  0
  3  4  1  0
  4  5  1  0
  4  6  1  0
  7  8  2  0
  7 31  1  0
  8  9  1  0
  9 10  1  1
  9 11  1  0
  9 13  1  0
 11 12  1  0
 13 14  1  0
 14 15  1  0
 14 31  2  0
 15 16  1  0
 15 25  1  0
 16 17  1  0
 17 18  1  6
 17 19  1  0
 17 23  1  0
 19 20  1  0
 20 21  2  0
 20 22  1  0
 23 24  1  0
 24 25  1  0
 25 26  1  1
 26 27  1  0
 27 28  1  0
 28 29  1  0
 29 30  1  0
M  END
