
     RDKit          3D

 31 32  0  0  0  0  0  0  0  0999 V2000
   -2.3820    3.3700    1.9450 N   0  0  0  0  0  0  0  0  0  0  0  0
   -3.5840    2.7030    1.6600 C   0  0  0  0  0  0  0  0  0  0  0  0
   -4.6180    2.9730    2.3030 O   0  0  0  0  0  0  0  0  0  0  0  0
   -3.6180    1.6980    0.6130 N   0  0  0  0  0  0  0  0  0  0  0  0
   -4.8300    1.0570    0.3580 C   0  0  0  0  0  0  0  0  0  0  0  0
   -5.8630    1.3870    1.0290 O   0  0  0  0  0  0  0  0  0  0  0  0
   -4.9720    0.0140   -0.6590 C   0  0  0  0  0  0  0  0  0  0  0  0
   -3.7270   -0.2910   -1.2700 N   0  0  0  0  0  0  0  0  0  0  0  0
   -2.6450   -0.8510   -0.5170 C   0  0  0  0  0  0  0  0  0  0  0  0
   -2.8550   -1.0640    0.6770 O   0  0  0  0  0  0  0  0  0  0  0  0
   -1.3440   -1.1560   -1.1520 C   0  0  0  0  0  0  0  0  0  0  0  0
   -0.3310   -1.5310   -0.1270 C   0  0  1  0  0  0  0  0  0  0  0  0
   -0.0640   -0.4320    0.8250 C   0  0  0  0  0  0  0  0  0  0  0  0
    0.4890    0.7470    0.1310 C   0  0  0  0  0  0  0  0  0  0  0  0
    0.7990    0.7430   -1.0700 O   0  0  0  0  0  0  0  0  0  0  0  0
    0.7040    1.9950    0.8270 N   0  0  0  0  0  0  0  0  0  0  0  0
    1.2370    3.1530    0.1880 C   0  0  0  0  0  0  0  0  0  0  0  0
    2.6170    2.9350   -0.3870 C   0  0  0  0  0  0  0  0  0  0  0  0
    3.4730    2.5790    0.6490 O   0  0  0  0  0  0  0  0  0  0  0  0
    5.0400    2.3320   -0.0130 P   0  0  0  0  0  0  0  0  0  0  0  0
    5.9490    1.2040    0.9380 O   0  0  0  0  0  0  0  0  0  0  0  0
    5.9070    3.8260   -0.1010 O   0  0  0  0  0  0  0  0  0  0  0  0
   -0.7890   -2.8070    0.5510 C   0  0  0  0  0  0  0  0  0  0  0  0
    0.5020   -3.5430    0.7970 C   0  0  1  0  0  0  0  0  0  0  0  0
    0.6170   -4.6580   -0.0390 O   0  0  0  0  0  0  0  0  0  0  0  0
    1.9890   -4.8900   -0.1010 C   0  0  0  0  0  0  0  0  0  0  0  0
    2.6070   -3.5380   -0.2320 C   0  0  1  0  0  0  0  0  0  0  0  0
    3.6940   -3.4870    0.6140 F   0  0  0  0  0  0  0  0  0  0  0  0
    3.0010   -3.2380   -1.5120 F   0  0  0  0  0  0  0  0  0  0  0  0
    1.5240   -2.6020    0.2690 C   0  0  1  0  0  0  0  0  0  0  0  0
    0.8700   -1.9590   -0.7510 O   0  0  0  0  0  0  0  0  0  0  0  0
  1  2  1  0
  2  3  2  0
  2  4  1  0
  4  5  1  0
  5  6  2  0
  5  7  1  0
  7  8  1  0
  8  9  1  0
  9 10  2  0
  9 11  1  0
 12 11  1  6
 12 13  1  0
 12 23  1  0
 12 31  1  0
 13 14  1  0
 14 15  2  0
 14 16  1  0
 16 17  1  0
 17 18  1  0
 18 19  1  0
 19 20  1  0
 20 21  1  0
 20 22  1  0
 24 23  1  6
 24 25  1  0
 24 30  1  0
 25 26  1  0
 26 27  1  0
 27 28  1  1
 27 29  1  0
 27 30  1  0
 30 31  1  6
M  END
