
     RDKit          3D

 25 27  0  0  0  0  0  0  0  0999 V2000
   -6.6490    0.9180   -0.7320 N   0  0  0  0  0  0  0  0  0  0  0  0
   -5.8530    0.1440    0.5930 S   0  0  2  0  0  0  0  0  0  0  0  0
   -6.3060   -1.3030    0.6000 O   0  0  0  0  0  0  0  0  0  0  0  0
   -6.3020    0.7290    1.9010 O   0  0  0  0  0  0  0  0  0  0  0  0
   -4.1150    0.2050    0.4000 C   0  0  0  0  0  0  0  0  0  0  0  0
   -3.3590   -0.9250    0.2350 C   0  0  0  0  0  0  0  0  0  0  0  0
   -1.9670   -0.8890    0.0290 C   0  0  0  0  0  0  0  0  0  0  0  0
   -1.2760   -2.1520   -0.1350 C   0  0  0  0  0  0  0  0  0  0  0  0
   -1.9600   -3.2330    0.0760 O   0  0  0  0  0  0  0  0  0  0  0  0
    0.1120   -2.3900   -0.5250 C   0  0  0  0  0  0  0  0  0  0  0  0
    1.2270   -2.4610    0.8850 S   0  0  0  0  0  0  0  0  0  0  0  0
    2.5620   -1.3140    0.6330 C   0  0  0  0  0  0  0  0  0  0  0  0
    3.6680   -1.6030   -0.1070 N   0  0  0  0  0  0  0  0  0  0  0  0
    4.4890   -0.5650   -0.1530 C   0  0  0  0  0  0  0  0  0  0  0  0
    5.7140   -0.3360   -0.7560 C   0  0  0  0  0  0  0  0  0  0  0  0
    6.3780    0.8610   -0.6520 C   0  0  0  0  0  0  0  0  0  0  0  0
    8.0430    1.0870   -1.5360 Br  0  0  0  0  0  0  0  0  0  0  0  0
    5.7890    1.8610    0.0890 C   0  0  0  0  0  0  0  0  0  0  0  0
    4.5510    1.6240    0.6930 C   0  0  0  0  0  0  0  0  0  0  0  0
    3.8940    0.4270    0.5810 C   0  0  0  0  0  0  0  0  0  0  0  0
    2.7100   -0.0820    1.0430 N   0  0  0  0  0  0  0  0  0  0  0  0
   -1.3250    0.3130   -0.0100 C   0  0  0  0  0  0  0  0  0  0  0  0
   -2.0760    1.4660    0.1590 C   0  0  0  0  0  0  0  0  0  0  0  0
   -3.4380    1.4140    0.3570 C   0  0  0  0  0  0  0  0  0  0  0  0
   -4.3950    2.8800    0.5680 Cl  0  0  0  0  0  0  0  0  0  0  0  0
  2  1  1  6
  2  3  2  0
  2  4  2  0
  2  5  1  0
  5  6  2  0
  5 24  1  0
  6  7  1  0
  7  8  1  0
  7 22  2  0
  8  9  2  0
  8 10  1  0
 10 11  1  0
 11 12  1  0
 12 13  2  0
 12 21  1  0
 13 14  1  0
 14 15  2  0
 14 20  1  0
 15 16  1  0
 16 17  1  0
 16 18  2  0
 18 19  1  0
 19 20  2  0
 20 21  1  0
 22 23  1  0
 23 24  2  0
 24 25  1  0
M  END
