
     RDKit          3D

  6  5  0  0  0  0  0  0  0  0999 V2000
   -2.1210   -0.4390   -0.2600 O   0  0  0  0  0  0  0  0  0  0  0  0
   -1.2170    0.5710   -0.5050 C   0  0  0  0  0  0  0  0  0  0  0  0
    0.0780    0.3390   -0.5940 C   0  0  0  0  0  0  0  0  0  0  0  0
    1.2400    1.6480   -0.9110 S   0  0  0  0  0  0  0  0  0  0  0  0
    0.5960   -1.0320   -0.4290 C   0  0  0  0  0  0  0  0  0  0  0  0
    1.4810   -1.1740    0.6150 O   0  0  0  0  0  0  0  0  0  0  0  0
  1  2  1  0
  2  3  2  3
  3  4  1  0
  3  5  1  0
  5  6  1  0
M  END
