
     RDKit          3D

  7  6  0  0  0  0  0  0  0  0999 V2000
   -1.7420    0.1390   -0.2080 N   0  0  0  0  0  0  0  0  0  0  0  0
   -0.6320   -0.4400    0.4520 C   0  0  0  0  0  0  0  0  0  0  0  0
   -0.7480   -1.5150    0.9950 O   0  0  0  0  0  0  0  0  0  0  0  0
    0.6810    0.2750    0.4800 C   0  0  2  0  0  0  0  0  0  0  0  0
    0.6190    1.4790   -0.1880 O   0  0  0  0  0  0  0  0  0  0  0  0
    1.7610   -0.5710   -0.1100 C   0  0  0  0  0  0  0  0  0  0  0  0
    2.3510   -1.6560    0.6120 S   0  0  0  0  0  0  0  0  0  0  0  0
  1  2  1  0
  2  3  2  0
  2  4  1  0
  4  5  1  6
  4  6  1  0
  6  7  2  0
M  CHG  1   1   1
M  END
