
     RDKit          3D

  7  6  0  0  0  0  0  0  0  0999 V2000
    2.8060    0.0080   -0.0770 N   0  0  0  0  0  0  0  0  0  0  0  0
    1.4100    0.0490   -0.3270 C   0  0  0  0  0  0  0  0  0  0  0  0
    0.9340    1.1220   -0.6370 O   0  0  0  0  0  0  0  0  0  0  0  0
    0.3210   -1.3350   -0.2220 S   0  0  0  0  0  0  0  0  0  0  0  0
   -1.3600   -0.8680   -0.5830 C   0  0  0  0  0  0  0  0  0  0  0  0
   -2.0110    0.0390    0.4120 C   0  0  0  0  0  0  0  0  0  0  0  0
   -1.3730    1.2590    0.5830 O   0  0  0  0  0  0  0  0  0  0  0  0
  1  2  1  0
  2  3  2  0
  2  4  1  0
  4  5  1  0
  5  6  1  0
  6  7  1  0
M  CHG  1   1   1
M  END
