
     RDKit          3D

 26 28  0  0  0  0  0  0  0  0999 V2000
    7.7570   -0.9170    2.7380 C   0  0  0  0  0  0  0  0  0  0  0  0
    6.4350   -1.2000    2.0680 C   0  0  1  0  0  0  0  0  0  0  0  0
    5.2170    0.1220    2.4790 S   0  0  0  0  0  0  0  0  0  0  0  0
    4.5320    0.2830    0.8440 C   0  0  0  0  0  0  0  0  0  0  0  0
    3.5690    1.0370    0.5140 N   0  0  0  0  0  0  0  0  0  0  0  0
    3.0610    1.1330   -0.7850 N   0  0  0  0  0  0  0  0  0  0  0  0
    1.7630    1.5730   -1.1060 C   0  0  0  0  0  0  0  0  0  0  0  0
    0.9940    1.9070   -0.1780 O   0  0  0  0  0  0  0  0  0  0  0  0
    1.2470    1.6660   -2.5010 C   0  0  0  0  0  0  0  0  0  0  0  0
   -0.0670    2.1290   -2.5500 O   0  0  0  0  0  0  0  0  0  0  0  0
   -1.1200    1.4680   -1.9350 C   0  0  0  0  0  0  0  0  0  0  0  0
   -0.8480    0.4030   -1.3100 O   0  0  0  0  0  0  0  0  0  0  0  0
   -2.5230    1.9920   -2.0070 C   0  0  0  0  0  0  0  0  0  0  0  0
   -3.3940    1.0540   -1.2500 C   0  0  0  0  0  0  0  0  0  0  0  0
   -3.7110    1.1080    0.0820 C   0  0  0  0  0  0  0  0  0  0  0  0
   -4.5520    0.0370    0.3740 C   0  0  0  0  0  0  0  0  0  0  0  0
   -4.7180   -0.6390   -0.8090 C   0  0  0  0  0  0  0  0  0  0  0  0
   -4.0170   -0.0160   -1.7730 N   0  0  0  0  0  0  0  0  0  0  0  0
   -5.5710   -1.8140   -0.7620 C   0  0  0  0  0  0  0  0  0  0  0  0
   -6.1340   -2.1790    0.3620 C   0  0  0  0  0  0  0  0  0  0  0  0
   -7.1510   -3.6290    0.2890 Cl  0  0  0  0  0  0  0  0  0  0  0  0
   -5.9690   -1.4910    1.5630 N   0  0  0  0  0  0  0  0  0  0  0  0
   -5.1640   -0.3500    1.6440 C   0  0  0  0  0  0  0  0  0  0  0  0
    5.2820   -0.5920    0.0350 N   0  0  0  0  0  0  0  0  0  0  0  0
    6.4920   -0.9980    0.5950 C   0  0  0  0  0  0  0  0  0  0  0  0
    7.5880   -1.1980   -0.0360 O   0  0  0  0  0  0  0  0  0  0  0  0
  2  1  1  1
  2  3  1  0
  2 25  1  0
  3  4  1  0
  4  5  2  3
  4 24  1  0
  5  6  1  0
  6  7  1  0
  7  8  2  0
  7  9  1  0
  9 10  1  0
 10 11  1  0
 11 12  2  0
 11 13  1  0
 13 14  1  0
 14 15  2  0
 14 18  1  0
 15 16  1  0
 16 17  2  0
 16 23  1  0
 17 18  1  0
 17 19  1  0
 19 20  2  0
 20 21  1  0
 20 22  1  0
 22 23  1  0
 24 25  1  0
 25 26  2  0
M  CHG  1  22   1
M  END
