
     RDKit          3D

  6  5  0  0  0  0  0  0  0  0999 V2000
   -1.8900   -0.3270    0.1940 C   0  0  0  0  0  0  0  0  0  0  0  0
   -0.6770    0.0060    0.8250 O   0  0  0  0  0  0  0  0  0  0  0  0
    0.2890    0.0900   -0.1590 C   0  0  2  0  0  0  0  0  0  0  0  0
    1.3540   -0.8340    0.1220 N   0  0  0  0  0  0  0  0  0  0  0  0
    0.7930    1.4920   -0.1810 C   0  0  0  0  0  0  0  0  0  0  0  0
    0.3740    2.3500    0.5690 O   0  0  0  0  0  0  0  0  0  0  0  0
  1  2  1  0
  2  3  1  0
  3  4  1  1
  3  5  1  0
  5  6  2  0
M  CHG  1   4   1
M  END
