
     RDKit          3D

 26 27  0  0  0  0  0  0  0  0999 V2000
   -4.9170    0.7880   -2.2150 C   0  0  0  0  0  0  0  0  0  0  0  0
   -5.9690    0.5400   -1.4220 C   0  0  0  0  0  0  0  0  0  0  0  0
   -7.1380    1.1550   -1.7810 O   0  0  0  0  0  0  0  0  0  0  0  0
   -5.8260   -0.3190   -0.2790 C   0  0  0  0  0  0  0  0  0  0  0  0
   -6.6880   -0.7170    0.6000 C   0  0  0  0  0  0  0  0  0  0  0  0
   -8.1030   -0.4950    0.8200 C   0  0  0  0  0  0  0  0  0  0  0  0
   -9.0000    0.5160   -0.2590 Cl  0  0  0  0  0  0  0  0  0  0  0  0
   -4.4580   -0.8210   -0.0740 N   0  0  0  0  0  0  0  0  0  0  0  0
   -3.4950    0.1510    0.3060 C   0  0  0  0  0  0  0  0  0  0  0  0
   -3.8210    1.3520    0.4520 O   0  0  0  0  0  0  0  0  0  0  0  0
   -2.1740   -0.3580    0.5040 C   0  0  0  0  0  0  0  0  0  0  0  0
   -1.8800   -1.5760    0.2390 O   0  0  0  0  0  0  0  0  0  0  0  0
   -1.1070    0.3970    1.0140 N   0  0  0  0  0  0  0  0  0  0  0  0
    0.0880   -0.2940    1.0630 C   0  0  0  0  0  0  0  0  0  0  0  0
    0.9010   -0.1290    1.9300 N   0  0  0  0  0  0  0  0  0  0  0  0
    2.1280   -0.8450    1.9960 C   0  0  0  0  0  0  0  0  0  0  0  0
    2.3150   -1.6490    2.9390 O   0  0  0  0  0  0  0  0  0  0  0  0
    3.1930   -0.6820    1.0000 C   0  0  2  0  0  0  0  0  0  0  0  0
    4.2150    0.3600    1.3630 C   0  0  0  0  0  0  0  0  0  0  0  0
    5.2060    0.5150    0.3290 N   0  0  0  0  0  0  0  0  0  0  0  0
    6.2050   -0.5060    0.3970 C   0  0  0  0  0  0  0  0  0  0  0  0
    7.1970   -0.3670   -0.6220 N   0  0  0  0  0  0  0  0  0  0  0  0
    4.6690    0.7610   -0.9580 C   0  0  0  0  0  0  0  0  0  0  0  0
    3.5950   -0.2770   -1.3390 C   0  0  0  0  0  0  0  0  0  0  0  0
    2.5720   -0.1310   -0.3010 C   0  0  1  0  0  0  0  0  0  0  0  0
    1.0120   -0.9390   -0.4550 S   0  0  0  0  0  0  0  0  0  0  0  0
  1  2  2  0
  2  3  1  0
  2  4  1  0
  4  5  2  3
  4  8  1  0
  5  6  1  0
  6  7  1  0
  8  9  1  0
  9 10  2  0
  9 11  1  0
 11 12  2  0
 11 13  1  0
 13 14  1  0
 14 15  2  0
 14 26  1  0
 15 16  1  0
 16 17  2  0
 16 18  1  0
 18 19  1  1
 18 25  1  0
 19 20  1  0
 20 21  1  0
 20 23  1  0
 21 22  1  0
 23 24  1  0
 25 24  1  6
 25 26  1  0
M  CHG  1  22   1
M  END
