
     RDKit          3D

  6  5  0  0  0  0  0  0  0  0999 V2000
    1.3870   -1.3490   -0.0060 C   0  0  0  0  0  0  0  0  0  0  0  0
    1.0840   -0.1280   -0.5620 O   0  0  0  0  0  0  0  0  0  0  0  0
    0.2190    0.6390    0.1600 C   0  0  1  0  0  0  0  0  0  0  0  0
    0.8440    1.8530    0.6400 N   0  0  0  0  0  0  0  0  0  0  0  0
   -1.3500    0.9650   -0.6740 S   0  0  0  0  0  0  0  0  0  0  0  0
   -2.2980   -0.5850   -0.8660 C   0  0  0  0  0  0  0  0  0  0  0  0
  1  2  1  0
  2  3  1  0
  3  4  1  6
  3  5  1  0
  5  6  1  0
M  CHG  1   4   1
M  END
