
     RDKit          3D

 10  9  0  0  0  0  0  0  0  0999 V2000
   -1.7080   -2.1420    1.0810 C   0  0  0  0  0  0  0  0  0  0  0  0
   -1.8320   -1.1440    0.1430 O   0  0  0  0  0  0  0  0  0  0  0  0
   -0.8910   -0.1230    0.2850 C   0  0  2  0  0  0  0  0  0  0  0  0
   -1.6340    1.1300    0.6400 C   0  0  0  0  0  0  0  0  0  0  0  0
   -0.8510    2.2460    0.8200 O   0  0  0  0  0  0  0  0  0  0  0  0
   -0.0600   -0.0180   -0.7990 O   0  0  0  0  0  0  0  0  0  0  0  0
    1.2620   -0.3210   -0.4880 C   0  0  1  0  0  0  0  0  0  0  0  0
    1.5540   -1.5190   -1.1530 O   0  0  0  0  0  0  0  0  0  0  0  0
    2.2240    0.7270   -0.9360 C   0  0  0  0  0  0  0  0  0  0  0  0
    1.9780    1.9500   -0.3650 O   0  0  0  0  0  0  0  0  0  0  0  0
  1  2  1  0
  2  3  1  0
  3  4  1  6
  3  6  1  0
  4  5  1  0
  6  7  1  0
  7  8  1  6
  7  9  1  0
  9 10  1  0
M  END
