
     RDKit          3D

  9  9  0  0  0  0  0  0  0  0999 V2000
   -2.3160   -0.7500   -0.3220 O   0  0  0  0  0  0  0  0  0  0  0  0
   -2.0910    0.6090   -0.3500 C   0  0  0  0  0  0  0  0  0  0  0  0
   -0.8020    0.9730   -0.6350 O   0  0  0  0  0  0  0  0  0  0  0  0
    0.1340    0.5080    0.2520 C   0  0  1  0  0  0  0  0  0  0  0  0
   -0.0570    0.9370    1.5540 O   0  0  0  0  0  0  0  0  0  0  0  0
    0.3020   -0.9860    0.1420 C   0  0  0  0  0  0  0  0  0  0  0  0
    1.8170   -1.1100    0.0930 C   0  0  0  0  0  0  0  0  0  0  0  0
    2.1260   -0.0720   -0.8130 O   0  0  0  0  0  0  0  0  0  0  0  0
    1.5040    1.0040   -0.1920 C   0  0  0  0  0  0  0  0  0  0  0  0
  1  2  1  0
  2  3  1  0
  3  4  1  0
  4  5  1  1
  4  6  1  0
  4  9  1  0
  6  7  1  0
  7  8  1  0
  8  9  1  0
M  END
