
     RDKit          3D

  9  9  0  0  0  0  0  0  0  0999 V2000
    2.8330   -0.5180    0.3120 C   0  0  0  0  0  0  0  0  0  0  0  0
    1.8220   -0.7420   -0.6510 O   0  0  0  0  0  0  0  0  0  0  0  0
    0.6330   -0.3660   -0.0920 C   0  0  1  0  0  0  0  0  0  0  0  0
   -0.0180    0.8010   -0.8480 C   0  0  0  0  0  0  0  0  0  0  0  0
   -1.3130    0.8150   -0.0210 C   0  0  1  0  0  0  0  0  0  0  0  0
   -2.2950    1.5640   -0.5850 O   0  0  0  0  0  0  0  0  0  0  0  0
   -1.5810   -0.6820   -0.0560 C   0  0  2  0  0  0  0  0  0  0  0  0
   -2.3870   -1.0970    0.9760 O   0  0  0  0  0  0  0  0  0  0  0  0
   -0.3560   -1.3110   -0.1100 O   0  0  0  0  0  0  0  0  0  0  0  0
  1  2  1  0
  3  2  1  6
  3  4  1  0
  3  9  1  0
  4  5  1  0
  5  6  1  6
  5  7  1  0
  7  8  1  1
  7  9  1  0
M  END
