
     RDKit          3D

 10  9  0  0  0  0  0  0  0  0999 V2000
    1.9590    0.7220    1.2560 C   0  0  0  0  0  0  0  0  0  0  0  0
    1.3020   -0.3540    0.6400 O   0  0  0  0  0  0  0  0  0  0  0  0
    0.8360   -0.0050   -0.6230 C   0  0  1  0  0  0  0  0  0  0  0  0
    1.4420   -0.8200   -1.5540 O   0  0  0  0  0  0  0  0  0  0  0  0
   -0.6630   -0.1430   -0.6780 C   0  0  2  0  0  0  0  0  0  0  0  0
   -1.1380    0.2010   -1.9270 O   0  0  0  0  0  0  0  0  0  0  0  0
   -1.3480    0.6840    0.3800 C   0  0  0  0  0  0  0  0  0  0  0  0
   -1.1480    2.0410    0.2260 O   0  0  0  0  0  0  0  0  0  0  0  0
   -1.0690   -1.5920   -0.4320 C   0  0  0  0  0  0  0  0  0  0  0  0
   -0.6410   -2.0480    0.8040 O   0  0  0  0  0  0  0  0  0  0  0  0
  1  2  1  0
  2  3  1  0
  3  4  1  6
  3  5  1  0
  5  6  1  6
  5  7  1  0
  5  9  1  0
  7  8  1  0
  9 10  1  0
M  END
