
     RDKit          3D

 10 10  0  0  0  0  0  0  0  0999 V2000
   -0.2590   -0.8410    1.8360 O   0  0  0  0  0  0  0  0  0  0  0  0
    0.3260    0.1870    1.1520 C   0  0  1  0  0  0  0  0  0  0  0  0
    1.3730   -0.2350    0.1620 C   0  0  2  0  0  0  0  0  0  0  0  0
    1.9580    0.9550   -0.3280 O   0  0  0  0  0  0  0  0  0  0  0  0
    0.6840   -0.8800   -1.0120 C   0  0  0  0  0  0  0  0  0  0  0  0
   -0.6470   -1.2110   -0.7310 O   0  0  0  0  0  0  0  0  0  0  0  0
   -1.4160   -0.0680   -0.5330 C   0  0  1  0  0  0  0  0  0  0  0  0
   -2.6320   -0.4140    0.0300 O   0  0  0  0  0  0  0  0  0  0  0  0
   -0.7530    0.9310    0.3760 C   0  0  2  0  0  0  0  0  0  0  0  0
   -0.1160    1.8900   -0.3970 O   0  0  0  0  0  0  0  0  0  0  0  0
  2  1  1  6
  2  3  1  0
  2  9  1  0
  3  4  1  6
  3  5  1  0
  5  6  1  0
  6  7  1  0
  7  8  1  1
  7  9  1  0
  9 10  1  6
M  END
