
     RDKit          3D

  9  9  0  0  0  0  0  0  0  0999 V2000
    2.6030   -0.3390   -0.2400 O   0  0  0  0  0  0  0  0  0  0  0  0
    1.5990   -1.0840    0.3770 C   0  0  0  0  0  0  0  0  0  0  0  0
    0.2620   -0.6160   -0.1570 C   0  0  1  0  0  0  0  0  0  0  0  0
   -0.7280   -1.3380    0.4400 O   0  0  0  0  0  0  0  0  0  0  0  0
   -2.0030   -0.9190    0.2540 C   0  0  0  0  0  0  0  0  0  0  0  0
   -2.2500    0.3510   -0.0680 O   0  0  0  0  0  0  0  0  0  0  0  0
   -1.2670    1.2590   -0.1280 C   0  0  0  0  0  0  0  0  0  0  0  0
    0.0950    0.8390    0.2810 C   0  0  2  0  0  0  0  0  0  0  0  0
    1.0810    1.5600   -0.3880 O   0  0  0  0  0  0  0  0  0  0  0  0
  1  2  1  0
  3  2  1  1
  3  4  1  0
  3  8  1  0
  4  5  1  0
  5  6  1  0
  6  7  1  0
  7  8  1  0
  8  9  1  6
M  END
