
     RDKit          3D

 11 12  0  0  0  0  0  0  0  0999 V2000
    2.9240    1.0690   -0.2930 C   0  0  0  0  0  0  0  0  0  0  0  0
    2.3600   -0.2110    0.0930 N   0  0  0  0  0  0  0  0  0  0  0  0
    0.9410   -0.2900    0.1540 C   0  0  0  0  0  0  0  0  0  0  0  0
    0.1460    0.7550   -0.1270 N   0  0  0  0  0  0  0  0  0  0  0  0
   -1.1930    0.6390   -0.0570 C   0  0  0  0  0  0  0  0  0  0  0  0
   -2.2390    1.5220   -0.2850 C   0  0  0  0  0  0  0  0  0  0  0  0
   -3.3560    0.8320   -0.0550 N   0  0  0  0  0  0  0  0  0  0  0  0
   -3.0770   -0.4430    0.3060 C   0  0  0  0  0  0  0  0  0  0  0  0
   -1.7370   -0.5380    0.2980 N   0  0  0  0  0  0  0  0  0  0  0  0
   -0.9290   -1.5810    0.5780 C   0  0  0  0  0  0  0  0  0  0  0  0
    0.3910   -1.4580    0.5070 N   0  0  0  0  0  0  0  0  0  0  0  0
  1  2  1  0
  2  3  1  0
  3  4  2  0
  3 11  1  0
  4  5  1  0
  5  6  2  0
  5  9  1  0
  6  7  1  0
  7  8  2  0
  8  9  1  0
  9 10  1  0
 10 11  2  0
M  CHG  1  11   1
M  END
