
     RDKit          3D

 11 12  0  0  0  0  0  0  0  0999 V2000
   -2.5500    1.4700    0.5860 C   0  0  0  0  0  0  0  0  0  0  0  0
   -2.0250    0.2670   -0.0380 N   0  0  0  0  0  0  0  0  0  0  0  0
   -2.8990   -0.7280   -0.6330 C   0  0  0  0  0  0  0  0  0  0  0  0
   -0.6240    0.0610   -0.0650 C   0  0  0  0  0  0  0  0  0  0  0  0
    0.0320   -0.9890   -0.5970 N   0  0  0  0  0  0  0  0  0  0  0  0
    1.3560   -0.8550   -0.4440 C   0  0  0  0  0  0  0  0  0  0  0  0
    1.5430    0.3520    0.2250 C   0  0  0  0  0  0  0  0  0  0  0  0
    0.3310    0.8690    0.4330 N   0  0  0  0  0  0  0  0  0  0  0  0
    2.9990    0.5800    0.4380 C   0  0  0  0  0  0  0  0  0  0  0  0
    3.5580   -0.7510    0.2520 N   0  0  0  0  0  0  0  0  0  0  0  0
    2.6690   -1.3670   -0.6440 N   0  0  0  0  0  0  0  0  0  0  0  0
  1  2  1  0
  2  3  1  0
  2  4  1  0
  4  5  1  0
  4  8  2  0
  5  6  1  0
  6  7  2  0
  6 11  1  0
  7  8  1  0
  7  9  1  0
  9 10  1  0
 10 11  1  0
M  CHG  1   8   1
M  END
