
     RDKit          3D

 11 12  0  0  0  0  0  0  0  0999 V2000
   -2.7090   -0.8200   -0.3530 C   0  0  0  0  0  0  0  0  0  0  0  0
   -1.7680    0.2640   -0.1460 N   0  0  0  0  0  0  0  0  0  0  0  0
   -2.0650    1.5490   -0.0370 N   0  0  0  0  0  0  0  0  0  0  0  0
   -0.9360    2.2230    0.1450 N   0  0  0  0  0  0  0  0  0  0  0  0
    0.1130    1.3810    0.1570 C   0  0  0  0  0  0  0  0  0  0  0  0
    1.4750    1.5510    0.3080 C   0  0  0  0  0  0  0  0  0  0  0  0
    2.3090    0.4530    0.2710 C   0  0  0  0  0  0  0  0  0  0  0  0
    1.7570   -0.8150    0.0820 C   0  0  0  0  0  0  0  0  0  0  0  0
    2.6080   -1.9500    0.0430 N   0  0  0  0  0  0  0  0  0  0  0  0
    0.4200   -0.9090   -0.0580 N   0  0  0  0  0  0  0  0  0  0  0  0
   -0.4190    0.1230   -0.0290 C   0  0  0  0  0  0  0  0  0  0  0  0
  1  2  1  0
  2  3  1  0
  2 11  1  0
  3  4  2  0
  4  5  1  0
  5  6  2  0
  5 11  1  0
  6  7  1  0
  7  8  2  0
  8  9  1  0
  8 10  1  0
 10 11  2  0
M  CHG  1   3   1
M  END
