
     RDKit          3D

 11 12  0  0  0  0  0  0  0  0999 V2000
   -2.5600   -0.5440    0.0430 C   0  0  0  0  0  0  0  0  0  0  0  0
   -1.1070   -0.6000   -0.1100 N   0  0  0  0  0  0  0  0  0  0  0  0
   -0.4780   -1.7020   -0.5510 C   0  0  0  0  0  0  0  0  0  0  0  0
    0.8570   -1.7880   -0.7030 N   0  0  0  0  0  0  0  0  0  0  0  0
    1.6710   -0.7510   -0.4180 C   0  0  0  0  0  0  0  0  0  0  0  0
    3.0720   -0.7960   -0.5630 N   0  0  0  0  0  0  0  0  0  0  0  0
    1.0420    0.4020    0.0390 C   0  0  0  0  0  0  0  0  0  0  0  0
    1.5540    1.5710    0.3980 N   0  0  0  0  0  0  0  0  0  0  0  0
    0.5220    2.3660    0.7690 C   0  0  0  0  0  0  0  0  0  0  0  0
   -0.6370    1.6940    0.6430 N   0  0  0  0  0  0  0  0  0  0  0  0
   -0.3350    0.4650    0.1880 C   0  0  0  0  0  0  0  0  0  0  0  0
  1  2  1  0
  2  3  2  0
  2 11  1  0
  3  4  1  0
  4  5  2  0
  5  6  1  0
  5  7  1  0
  7  8  1  0
  7 11  2  0
  8  9  2  0
  9 10  1  0
 10 11  1  0
M  CHG  1   2   1
M  END
