
     RDKit          3D

 11 12  0  0  0  0  0  0  0  0999 V2000
    2.7120    0.8190    0.0860 C   0  0  0  0  0  0  0  0  0  0  0  0
    1.4430    1.4050   -0.4160 C   0  0  0  0  0  0  0  0  0  0  0  0
    1.2830    2.6010   -1.0100 N   0  0  0  0  0  0  0  0  0  0  0  0
   -0.0080    2.7750   -1.3220 N   0  0  0  0  0  0  0  0  0  0  0  0
   -0.6800    1.6980   -0.9330 C   0  0  0  0  0  0  0  0  0  0  0  0
    0.2170    0.8500   -0.3720 N   0  0  0  0  0  0  0  0  0  0  0  0
   -0.4700   -0.3160    0.0560 C   0  0  0  0  0  0  0  0  0  0  0  0
    0.0190   -1.2640    0.8330 C   0  0  0  0  0  0  0  0  0  0  0  0
   -0.7350   -2.4070    1.2210 N   0  0  0  0  0  0  0  0  0  0  0  0
   -1.8190   -0.2490   -0.5350 C   0  0  0  0  0  0  0  0  0  0  0  0
   -1.9920    1.1590   -0.9120 N   0  0  0  0  0  0  0  0  0  0  0  0
  1  2  1  0
  2  3  2  0
  2  6  1  0
  3  4  1  0
  4  5  2  0
  5  6  1  0
  5 11  1  0
  6  7  1  0
  7  8  2  3
  7 10  1  0
  8  9  1  0
 10 11  1  0
M  CHG  1   9   1
M  END
