
     RDKit          3D

 11 12  0  0  0  0  0  0  0  0999 V2000
   -1.7340   -1.6960   -0.4580 C   0  0  0  0  0  0  0  0  0  0  0  0
   -1.2670   -0.8180    0.6840 C   0  0  0  0  0  0  0  0  0  0  0  0
   -0.2680    0.1230    0.2590 N   0  0  0  0  0  0  0  0  0  0  0  0
   -0.5190    1.3460   -0.2030 C   0  0  0  0  0  0  0  0  0  0  0  0
   -1.8040    1.9770   -0.3750 N   0  0  0  0  0  0  0  0  0  0  0  0
    0.6790    1.8900   -0.4850 N   0  0  0  0  0  0  0  0  0  0  0  0
    1.6760    1.0350   -0.2100 C   0  0  0  0  0  0  0  0  0  0  0  0
    2.9980    0.7850   -0.1900 N   0  0  0  0  0  0  0  0  0  0  0  0
    3.2440   -0.4300    0.2700 N   0  0  0  0  0  0  0  0  0  0  0  0
    2.0740   -1.0050    0.5620 C   0  0  0  0  0  0  0  0  0  0  0  0
    1.0660   -0.1010    0.2690 C   0  0  0  0  0  0  0  0  0  0  0  0
  1  2  1  0
  2  3  1  0
  3  4  1  0
  3 11  1  0
  4  5  1  0
  4  6  2  0
  6  7  1  0
  7  8  2  0
  7 11  1  0
  8  9  1  0
  9 10  1  0
 10 11  2  0
M  CHG  1   6   1
M  END
