
     RDKit          3D

 11 12  0  0  0  0  0  0  0  0999 V2000
   -1.6280   -1.5520   -0.2130 C   0  0  0  0  0  0  0  0  0  0  0  0
   -1.5460   -0.0700   -0.0610 C   0  0  0  0  0  0  0  0  0  0  0  0
   -2.5840    0.7850   -0.0120 N   0  0  0  0  0  0  0  0  0  0  0  0
   -2.0600    2.0170    0.1310 C   0  0  0  0  0  0  0  0  0  0  0  0
   -0.7150    1.9230    0.1690 N   0  0  0  0  0  0  0  0  0  0  0  0
   -0.3440    0.6360    0.0520 C   0  0  0  0  0  0  0  0  0  0  0  0
    0.9980    0.0670    0.0420 C   0  0  0  0  0  0  0  0  0  0  0  0
    1.3740   -1.2090   -0.0730 N   0  0  0  0  0  0  0  0  0  0  0  0
    2.7260   -1.2290   -0.0280 C   0  0  0  0  0  0  0  0  0  0  0  0
    3.1800    0.0510    0.1170 N   0  0  0  0  0  0  0  0  0  0  0  0
    2.1130    0.8080    0.1560 N   0  0  0  0  0  0  0  0  0  0  0  0
  1  2  1  0
  2  3  1  0
  2  6  2  0
  3  4  1  0
  4  5  2  0
  5  6  1  0
  6  7  1  0
  7  8  2  0
  7 11  1  0
  8  9  1  0
  9 10  2  0
 10 11  1  0
M  CHG  1  10   1
M  END
