
     RDKit          3D

 25 28  0  0  0  0  0  0  0  0999 V2000
    8.5710    0.3030    0.6960 N   0  0  0  0  0  0  0  0  0  0  0  0
    7.3850    0.1220   -0.1040 C   0  0  0  0  0  0  0  0  0  0  0  0
    7.3230   -0.8330   -0.9610 N   0  0  0  0  0  0  0  0  0  0  0  0
    6.2960    0.9950    0.0490 N   0  0  0  0  0  0  0  0  0  0  0  0
    4.9750    0.5170    0.1200 C   0  0  0  0  0  0  0  0  0  0  0  0
    4.6860   -0.8060    0.3130 C   0  0  0  0  0  0  0  0  0  0  0  0
    3.3900   -1.2580    0.3630 C   0  0  0  0  0  0  0  0  0  0  0  0
    2.3300   -0.3980    0.2210 C   0  0  0  0  0  0  0  0  0  0  0  0
    1.0080   -0.5660    0.2280 O   0  0  0  0  0  0  0  0  0  0  0  0
    0.3720    0.5450    0.0550 C   0  0  0  0  0  0  0  0  0  0  0  0
   -1.1080    0.7080    0.0110 C   0  0  0  0  0  0  0  0  0  0  0  0
   -1.7660   -0.5510    0.1890 N   0  0  0  0  0  0  0  0  0  0  0  0
   -3.1870   -0.6890    0.1900 C   0  0  0  0  0  0  0  0  0  0  0  0
   -3.7610   -1.9150    0.3640 C   0  0  0  0  0  0  0  0  0  0  0  0
   -5.1510   -2.0310    0.3630 C   0  0  0  0  0  0  0  0  0  0  0  0
   -5.9800   -0.9430    0.1900 C   0  0  0  0  0  0  0  0  0  0  0  0
   -7.3640   -1.0730    0.1910 C   0  0  0  0  0  0  0  0  0  0  0  0
   -8.1910    0.0250    0.0170 C   0  0  0  0  0  0  0  0  0  0  0  0
   -7.6010    1.2690   -0.1600 C   0  0  0  0  0  0  0  0  0  0  0  0
   -6.2190    1.3800   -0.1580 C   0  0  0  0  0  0  0  0  0  0  0  0
   -5.3910    0.2910    0.0150 C   0  0  0  0  0  0  0  0  0  0  0  0
   -4.0020    0.4040    0.0170 C   0  0  0  0  0  0  0  0  0  0  0  0
    1.3340    1.5280   -0.0780 C   0  0  0  0  0  0  0  0  0  0  0  0
    2.5820    0.9420    0.0250 C   0  0  0  0  0  0  0  0  0  0  0  0
    3.8800    1.3860   -0.0240 C   0  0  0  0  0  0  0  0  0  0  0  0
  1  2  1  0
  2  3  2  0
  2  4  1  0
  4  5  1  0
  5  6  2  0
  5 25  1  0
  6  7  1  0
  7  8  2  0
  8  9  1  0
  8 24  1  0
  9 10  1  0
 10 11  1  0
 10 23  2  0
 11 12  1  0
 12 13  1  0
 13 14  2  0
 13 22  1  0
 14 15  1  0
 15 16  2  0
 16 17  1  0
 16 21  1  0
 17 18  2  0
 18 19  1  0
 19 20  2  0
 20 21  1  0
 21 22  2  0
 23 24  1  0
 24 25  2  0
M  CHG  1   3   1
M  END
