
     RDKit          3D

 11 12  0  0  0  0  0  0  0  0999 V2000
   -2.9450    0.5270   -0.6970 C   0  0  0  0  0  0  0  0  0  0  0  0
   -2.1980    0.6630    0.5980 C   0  0  0  0  0  0  0  0  0  0  0  0
   -1.1030   -0.3010    0.6990 N   0  0  0  0  0  0  0  0  0  0  0  0
   -1.1350   -1.5200    1.1980 N   0  0  0  0  0  0  0  0  0  0  0  0
    0.0540   -2.1070    1.1230 C   0  0  0  0  0  0  0  0  0  0  0  0
    0.8900   -1.1880    0.5360 C   0  0  0  0  0  0  0  0  0  0  0  0
    2.1570   -0.9600    0.1140 N   0  0  0  0  0  0  0  0  0  0  0  0
    2.1920    0.2860   -0.3960 C   0  0  0  0  0  0  0  0  0  0  0  0
    3.3760    0.8640   -0.9370 N   0  0  0  0  0  0  0  0  0  0  0  0
    0.9860    0.8400   -0.3040 N   0  0  0  0  0  0  0  0  0  0  0  0
    0.1430   -0.0640    0.2790 C   0  0  0  0  0  0  0  0  0  0  0  0
  1  2  1  0
  2  3  1  0
  3  4  1  0
  3 11  1  0
  4  5  2  0
  5  6  1  0
  6  7  1  0
  6 11  2  0
  7  8  1  0
  8  9  1  0
  8 10  2  0
 10 11  1  0
M  CHG  1  10   1
M  END
