
     RDKit          3D

 14 15  0  0  0  0  0  0  0  0999 V2000
   -4.3340   -0.7690    0.6770 O   0  0  0  0  0  0  0  0  0  0  0  0
   -3.2010   -0.4680    0.1720 C   0  0  0  0  0  0  0  0  0  0  0  0
   -2.9150    0.6780   -0.6390 N   0  0  0  0  0  0  0  0  0  0  0  0
   -1.8210    0.3340   -1.4390 N   0  0  0  0  0  0  0  0  0  0  0  0
   -1.0450   -0.6090   -0.6740 C   0  0  1  0  0  0  0  0  0  0  0  0
    0.1120    0.0470    0.0100 C   0  0  0  0  0  0  0  0  0  0  0  0
    1.3850   -0.2630   -0.1810 C   0  0  0  0  0  0  0  0  0  0  0  0
    1.8950   -1.2410   -1.0390 O   0  0  0  0  0  0  0  0  0  0  0  0
    2.2100    0.5940    0.6610 C   0  0  0  0  0  0  0  0  0  0  0  0
    3.4230    0.4320    1.0390 N   0  0  0  0  0  0  0  0  0  0  0  0
    4.0900   -0.6870    0.6240 O   0  0  0  0  0  0  0  0  0  0  0  0
    1.2910    1.7380    0.9920 C   0  0  0  0  0  0  0  0  0  0  0  0
    0.0490    1.0680    0.9410 O   0  0  0  0  0  0  0  0  0  0  0  0
   -1.9730   -1.1730    0.2810 N   0  0  0  0  0  0  0  0  0  0  0  0
  1  2  2  0
  2  3  1  0
  2 14  1  0
  3  4  1  0
  4  5  1  0
  5  6  1  1
  5 14  1  0
  6  7  2  0
  6 13  1  0
  7  8  1  0
  7  9  1  0
  9 10  2  3
  9 12  1  0
 10 11  1  0
 12 13  1  0
M  END
