
     RDKit          3D

 13 14  0  0  0  0  0  0  0  0999 V2000
    3.4910    1.3020   -1.5270 O   0  0  0  0  0  0  0  0  0  0  0  0
    2.9060    0.2180   -1.7910 N   0  0  0  0  0  0  0  0  0  0  0  0
    2.3700   -0.5000   -0.7200 N   0  0  0  0  0  0  0  0  0  0  0  0
    1.3840    0.1750    0.1130 C   0  0  1  0  0  0  0  0  0  0  0  0
    0.2110    0.5910   -0.6360 C   0  0  0  0  0  0  0  0  0  0  0  0
   -1.0110    0.2920   -0.2520 C   0  0  0  0  0  0  0  0  0  0  0  0
   -2.2390    0.5720   -0.7880 N   0  0  0  0  0  0  0  0  0  0  0  0
   -3.2160    0.0460   -0.0280 C   0  0  0  0  0  0  0  0  0  0  0  0
   -4.4610    0.1240   -0.2450 O   0  0  0  0  0  0  0  0  0  0  0  0
   -2.6220   -0.5550    0.9710 O   0  0  0  0  0  0  0  0  0  0  0  0
   -1.3200   -0.4330    0.8750 C   0  0  0  0  0  0  0  0  0  0  0  0
   -0.3000   -0.8470    1.6070 C   0  0  0  0  0  0  0  0  0  0  0  0
    1.0510   -0.5750    1.2790 N   0  0  0  0  0  0  0  0  0  0  0  0
  1  2  2  0
  2  3  1  0
  4  3  1  6
  4  5  1  0
  4 13  1  0
  5  6  2  0
  6  7  1  0
  6 11  1  0
  7  8  1  0
  8  9  2  0
  8 10  1  0
 10 11  1  0
 11 12  2  0
 12 13  1  0
M  END
