
     RDKit          3D

 14 14  0  0  0  0  0  0  0  0999 V2000
   -2.2870    0.8130   -0.6180 C   0  0  0  0  0  0  0  0  0  0  0  0
   -1.8330    0.0910    0.6270 C   0  0  1  0  0  0  0  0  0  0  0  0
   -2.8860   -0.8240    0.9250 O   0  0  0  0  0  0  0  0  0  0  0  0
   -0.6340   -0.7370    0.4630 C   0  0  1  0  0  0  0  0  0  0  0  0
   -0.9000   -1.6740   -0.6410 N   0  0  0  0  0  0  0  0  0  0  0  0
    0.6290   -0.1540    0.2900 N   0  0  0  0  0  0  0  0  0  0  0  0
    1.6310   -1.0150    0.0120 N   0  0  0  0  0  0  0  0  0  0  0  0
    2.8800   -0.5590   -0.1720 C   0  0  0  0  0  0  0  0  0  0  0  0
    3.8020   -1.3980   -0.4340 O   0  0  0  0  0  0  0  0  0  0  0  0
    3.1690    0.7480   -0.0860 N   0  0  0  0  0  0  0  0  0  0  0  0
    2.1640    1.6220    0.1950 C   0  0  0  0  0  0  0  0  0  0  0  0
    2.4030    2.8450    0.2820 O   0  0  0  0  0  0  0  0  0  0  0  0
    0.8780    1.1550    0.3850 C   0  0  0  0  0  0  0  0  0  0  0  0
   -0.0870    1.9050    0.6450 O   0  0  0  0  0  0  0  0  0  0  0  0
  2  1  1  6
  2  3  1  0
  2  4  1  0
  4  5  1  6
  4  6  1  0
  6  7  1  0
  6 13  1  0
  7  8  1  0
  8  9  2  0
  8 10  1  0
 10 11  1  0
 11 12  2  0
 11 13  1  0
 13 14  2  0
M  END
