
     RDKit          3D

  8  7  0  0  0  0  0  0  0  0999 V2000
   -1.6610    0.8990    0.0470 C   0  0  0  0  0  0  0  0  0  0  0  0
   -0.5090   -0.0070   -0.0140 N   0  0  2  0  0  0  0  0  0  0  0  0
   -0.6860   -0.9090   -1.1550 C   0  0  0  0  0  0  0  0  0  0  0  0
   -0.4930   -0.7770    1.1910 C   0  0  0  0  0  0  0  0  0  0  0  0
    0.6550    0.7930   -0.2180 C   0  0  0  0  0  0  0  0  0  0  0  0
    1.9200    0.0560   -0.0390 C   0  0  0  0  0  0  0  0  0  0  0  0
    1.9150   -1.1580    0.2640 O   0  0  0  0  0  0  0  0  0  0  0  0
    3.1430    0.6770   -0.1970 O   0  0  0  0  0  0  0  0  0  0  0  0
  2  1  1  1
  2  3  1  0
  2  4  1  0
  2  5  1  0
  5  6  1  0
  6  7  2  0
  6  8  1  0
M  CHG  1   2   1
M  END
