
     RDKit          3D

 14 15  0  0  0  0  0  0  0  0999 V2000
   -2.3020   -0.9760    0.5130 N   0  0  0  0  0  0  0  0  0  0  0  0
   -1.4510    0.0960    0.0760 C   0  0  0  0  0  0  0  0  0  0  0  0
   -0.2000   -0.2280   -0.1240 C   0  0  0  0  0  0  0  0  0  0  0  0
    0.2890   -1.6200    0.1020 C   0  0  0  0  0  0  0  0  0  0  0  0
   -0.5640   -2.5390    0.1090 O   0  0  0  0  0  0  0  0  0  0  0  0
    1.6790   -1.8880    0.3020 N   0  0  0  0  0  0  0  0  0  0  0  0
    2.5560   -0.7760    0.2730 N   0  0  0  0  0  0  0  0  0  0  0  0
    2.0870    0.5450    0.0550 C   0  0  0  0  0  0  0  0  0  0  0  0
    2.7400    1.5310    0.4210 O   0  0  0  0  0  0  0  0  0  0  0  0
    0.7740    0.7610   -0.6320 C   0  0  2  0  0  0  0  0  0  0  0  0
    0.3110    2.0520   -0.6000 O   0  0  0  0  0  0  0  0  0  0  0  0
   -0.9970    2.4010   -0.4060 C   0  0  0  0  0  0  0  0  0  0  0  0
   -1.3010    3.6170   -0.5570 O   0  0  0  0  0  0  0  0  0  0  0  0
   -1.9610    1.4200   -0.0490 N   0  0  0  0  0  0  0  0  0  0  0  0
  1  2  1  0
  2  3  2  0
  2 14  1  0
  3  4  1  0
  3 10  1  0
  4  5  2  0
  4  6  1  0
  6  7  1  0
  7  8  1  0
  8  9  2  0
  8 10  1  0
 10 11  1  1
 11 12  1  0
 12 13  2  0
 12 14  1  0
M  END
