
     RDKit          3D

 14 14  0  0  0  0  0  0  0  0999 V2000
    0.0640    2.5640   -0.7760 C   0  0  0  0  0  0  0  0  0  0  0  0
    0.2360    1.0720   -0.6670 C   0  0  1  0  0  0  0  0  0  0  0  0
    0.9780    0.6840    0.5230 N   0  0  0  0  0  0  0  0  0  0  0  0
    2.2250    0.0190    0.4660 C   0  0  0  0  0  0  0  0  0  0  0  0
    2.7070   -0.2460   -0.6550 O   0  0  0  0  0  0  0  0  0  0  0  0
    2.9460   -0.3580    1.5930 O   0  0  0  0  0  0  0  0  0  0  0  0
    4.1590   -1.0060    1.5230 N   0  0  0  0  0  0  0  0  0  0  0  0
   -1.0910    0.3440   -0.7580 C   0  0  2  0  0  0  0  0  0  0  0  0
   -1.8960    0.6230    0.3500 O   0  0  0  0  0  0  0  0  0  0  0  0
   -2.9130   -0.3240    0.4530 C   0  0  0  0  0  0  0  0  0  0  0  0
   -2.2970   -1.5230    1.0420 N   0  0  0  0  0  0  0  0  0  0  0  0
   -1.4530   -2.0360    0.0530 N   0  0  0  0  0  0  0  0  0  0  0  0
   -0.8680   -1.1200   -0.8560 C   0  0  0  0  0  0  0  0  0  0  0  0
   -0.1380   -1.5510   -1.7770 O   0  0  0  0  0  0  0  0  0  0  0  0
  2  1  1  1
  2  3  1  0
  2  8  1  0
  3  4  1  0
  4  5  2  0
  4  6  1  0
  6  7  1  0
  8  9  1  1
  8 13  1  0
  9 10  1  0
 10 11  1  0
 11 12  1  0
 12 13  1  0
 13 14  2  0
M  END
