
     RDKit          3D

 23 26  0  0  0  0  0  0  0  0999 V2000
   -2.3470    2.3120   -2.7100 O   0  0  0  0  0  0  0  0  0  0  0  0
   -2.5230    1.3380   -1.9720 C   0  0  0  0  0  0  0  0  0  0  0  0
   -3.8790    0.7390   -2.0370 C   0  0  0  0  0  0  0  0  0  0  0  0
   -4.4610   -0.0520   -1.1330 C   0  0  0  0  0  0  0  0  0  0  0  0
   -3.9820   -0.5550    0.1400 C   0  0  0  0  0  0  0  0  0  0  0  0
   -2.7650   -0.4240    0.6490 C   0  0  0  0  0  0  0  0  0  0  0  0
   -2.6980   -1.0500    1.9050 N   0  0  0  0  0  0  0  0  0  0  0  0
   -1.5790   -1.0060    2.5440 C   0  0  0  0  0  0  0  0  0  0  0  0
   -0.4150   -0.3530    2.0340 N   0  0  0  0  0  0  0  0  0  0  0  0
   -0.4140    0.3090    0.7520 C   0  0  0  0  0  0  0  0  0  0  0  0
    0.8050    0.9750    0.2550 C   0  0  1  0  0  0  0  0  0  0  0  0
    1.4970    1.5530    1.3740 N   0  0  0  0  0  0  0  0  0  0  0  0
    2.6750    0.8850    1.6640 C   0  0  0  0  0  0  0  0  0  0  0  0
    2.8980    0.0290    0.4720 C   0  0  0  0  0  0  0  0  0  0  0  0
    4.0250   -0.7350    0.1810 C   0  0  0  0  0  0  0  0  0  0  0  0
    4.0690   -1.4800   -0.9810 C   0  0  0  0  0  0  0  0  0  0  0  0
    5.1270   -2.2450   -1.3330 F   0  0  0  0  0  0  0  0  0  0  0  0
    2.9790   -1.4400   -1.8240 C   0  0  0  0  0  0  0  0  0  0  0  0
    2.9980   -2.1700   -2.9820 F   0  0  0  0  0  0  0  0  0  0  0  0
    1.8710   -0.6780   -1.5190 C   0  0  0  0  0  0  0  0  0  0  0  0
    1.7990    0.0860   -0.3500 C   0  0  0  0  0  0  0  0  0  0  0  0
   -1.5660    0.2550    0.1080 C   0  0  0  0  0  0  0  0  0  0  0  0
   -1.4620    0.8770   -1.1470 N   0  0  0  0  0  0  0  0  0  0  0  0
  1  2  2  0
  2  3  1  0
  2 23  1  0
  3  4  2  0
  4  5  1  0
  5  6  2  0
  6  7  1  0
  6 22  1  0
  7  8  2  0
  8  9  1  0
  9 10  1  0
 11 10  1  1
 10 22  2  0
 11 12  1  0
 11 21  1  0
 12 13  1  0
 13 14  1  0
 14 15  2  0
 14 21  1  0
 15 16  1  0
 16 17  1  0
 16 18  2  0
 18 19  1  0
 18 20  1  0
 20 21  2  0
 22 23  1  0
M  END
