
     RDKit          3D

 22 24  0  0  0  0  0  0  0  0999 V2000
    3.7330    2.2090   -1.7240 C   0  0  0  0  0  0  0  0  0  0  0  0
    3.8150    1.2780   -0.7030 O   0  0  0  0  0  0  0  0  0  0  0  0
    2.5680    0.7100   -0.3950 C   0  0  2  0  0  0  0  0  0  0  0  0
    2.2280    0.9070    1.0320 C   0  0  0  0  0  0  0  0  0  0  0  0
    1.1930    1.4770    1.5790 C   0  0  0  0  0  0  0  0  0  0  0  0
    1.4010    1.3730    3.5690 Br  0  0  0  0  0  0  0  0  0  0  0  0
    0.0310    2.1450    1.0780 C   0  0  0  0  0  0  0  0  0  0  0  0
   -1.0130    1.9650    0.3390 C   0  0  0  0  0  0  0  0  0  0  0  0
   -2.1460    2.9950   -0.0090 C   0  0  0  0  0  0  0  0  0  0  0  0
   -2.0570    3.0210   -1.5190 C   0  0  0  0  0  0  0  0  0  0  0  0
   -1.9640    1.5650   -1.7970 C   0  0  0  0  0  0  0  0  0  0  0  0
   -1.6160    0.8840   -0.4280 C   0  0  1  0  0  0  0  0  0  0  0  0
   -1.0260   -0.3210   -0.7390 N   0  0  0  0  0  0  0  0  0  0  0  0
   -1.2510   -1.4930    0.0280 C   0  0  2  0  0  0  0  0  0  0  0  0
   -2.5550   -1.4260    0.7810 C   0  0  0  0  0  0  0  0  0  0  0  0
   -2.7530   -2.8580    1.3210 C   0  0  0  0  0  0  0  0  0  0  0  0
   -1.7730   -3.0270    2.2880 O   0  0  0  0  0  0  0  0  0  0  0  0
   -0.5190   -3.1750    1.7070 C   0  0  0  0  0  0  0  0  0  0  0  0
   -0.1250   -1.9520    0.9110 C   0  0  1  0  0  0  0  0  0  0  0  0
    1.0190   -2.2970    0.1080 N   0  0  0  0  0  0  0  0  0  0  0  0
    2.1980   -1.5420    0.5170 C   0  0  0  0  0  0  0  0  0  0  0  0
    2.7160   -0.7750   -0.6430 C   0  0  0  0  0  0  0  0  0  0  0  0
  1  2  1  0
  3  2  1  1
  3  4  1  0
  3 22  1  0
  4  5  2  0
  5  6  1  0
  5  7  1  0
  7  8  2  0
  8  9  1  0
  8 12  1  0
  9 10  1  0
 10 11  1  0
 12 11  1  6
 12 13  1  0
 13 14  1  0
 14 15  1  1
 14 19  1  0
 15 16  1  0
 16 17  1  0
 17 18  1  0
 19 18  1  6
 19 20  1  0
 20 21  1  0
 21 22  1  0
M  CHG  2  13   1  20   1
M  END
