
     RDKit          3D

 24 27  0  0  0  0  0  0  0  0999 V2000
   -3.9350    2.5940    1.0240 O   0  0  0  0  0  0  0  0  0  0  0  0
   -4.3400    1.5990    0.3520 C   0  0  0  0  0  0  0  0  0  0  0  0
   -5.5270    1.6910   -0.5240 C   0  0  0  0  0  0  0  0  0  0  0  0
   -6.0950   -0.0240   -0.6420 S   0  0  0  0  0  0  0  0  0  0  0  0
   -4.6870   -0.8220    0.1590 C   0  0  1  0  0  0  0  0  0  0  0  0
   -4.0540   -1.8600   -0.7600 C   0  0  0  0  0  0  0  0  0  0  0  0
   -2.9330   -2.4800    0.0330 C   0  0  0  0  0  0  0  0  0  0  0  0
   -1.9790   -1.4380    0.4410 C   0  0  1  0  0  0  0  0  0  0  0  0
   -0.8200   -1.4440   -0.4650 N   0  0  0  0  0  0  0  0  0  0  0  0
    0.2910   -0.5960   -0.1070 C   0  0  0  0  0  0  0  0  0  0  0  0
    1.4870   -0.9640   -0.5010 C   0  0  0  0  0  0  0  0  0  0  0  0
    2.7480   -0.2920   -0.2640 C   0  0  0  0  0  0  0  0  0  0  0  0
    3.9090   -0.7090   -0.7190 N   0  0  0  0  0  0  0  0  0  0  0  0
    4.9550    0.1330   -0.3410 C   0  0  0  0  0  0  0  0  0  0  0  0
    6.2550   -0.0420   -0.2780 C   0  0  0  0  0  0  0  0  0  0  0  0
    7.2110    0.9810    0.1510 C   0  0  1  0  0  0  0  0  0  0  0  0
    6.7930    2.2470   -0.2270 F   0  0  0  0  0  0  0  0  0  0  0  0
    7.4440    0.9930    1.4990 F   0  0  0  0  0  0  0  0  0  0  0  0
    4.2840    1.4290    0.0270 C   0  0  0  0  0  0  0  0  0  0  0  0
    3.0030    0.8690    0.5060 N   0  0  0  0  0  0  0  0  0  0  0  0
   -0.0030    0.6420    0.6530 C   0  0  0  0  0  0  0  0  0  0  0  0
   -1.4180    0.9250    0.6220 N   0  0  0  0  0  0  0  0  0  0  0  0
   -2.4380   -0.0460    0.4590 C   0  0  0  0  0  0  0  0  0  0  0  0
   -3.7430    0.3000    0.3400 C   0  0  0  0  0  0  0  0  0  0  0  0
  1  2  2  0
  2  3  1  0
  2 24  1  0
  3  4  1  0
  4  5  1  0
  5  6  1  6
  5 24  1  0
  6  7  1  0
  8  7  1  6
  8  9  1  0
  8 23  1  0
  9 10  1  0
 10 11  2  3
 10 21  1  0
 11 12  1  0
 12 13  2  0
 12 20  1  0
 13 14  1  0
 14 15  2  3
 14 19  1  0
 15 16  1  0
 16 17  1  1
 16 18  1  0
 19 20  1  0
 21 22  1  0
 22 23  1  0
 23 24  2  0
M  END
