
     RDKit          3D

 22 24  0  0  0  0  0  0  0  0999 V2000
   -3.2820    2.6810    0.9010 C   0  0  0  0  0  0  0  0  0  0  0  0
   -3.8440    1.6500    0.0550 N   0  0  0  0  0  0  0  0  0  0  0  0
   -3.0580    0.4240    0.0880 C   0  0  1  0  0  0  0  0  0  0  0  0
   -3.9630   -0.6850   -0.3400 C   0  0  0  0  0  0  0  0  0  0  0  0
   -3.6010   -2.0270    0.2030 C   0  0  0  0  0  0  0  0  0  0  0  0
   -2.1400   -2.3160    0.2180 C   0  0  0  0  0  0  0  0  0  0  0  0
   -1.5180   -1.8100   -1.0560 C   0  0  0  0  0  0  0  0  0  0  0  0
   -0.8330   -0.4690   -0.6650 C   0  0  2  0  0  0  0  0  0  0  0  0
   -0.2750   -0.5380    0.5390 O   0  0  0  0  0  0  0  0  0  0  0  0
    0.9890   -0.4460    1.0260 C   0  0  0  0  0  0  0  0  0  0  0  0
    1.1690   -0.5820    2.4330 C   0  0  0  0  0  0  0  0  0  0  0  0
    2.3800   -0.5070    3.0170 C   0  0  0  0  0  0  0  0  0  0  0  0
    3.5180   -0.2900    2.2530 C   0  0  0  0  0  0  0  0  0  0  0  0
    5.2120   -0.1920    3.1270 Br  0  0  0  0  0  0  0  0  0  0  0  0
    3.3890   -0.1540    0.8900 C   0  0  0  0  0  0  0  0  0  0  0  0
    2.1380   -0.2320    0.2930 C   0  0  0  0  0  0  0  0  0  0  0  0
    1.9190   -0.1070   -1.0540 O   0  0  0  0  0  0  0  0  0  0  0  0
    2.5410    0.6950   -2.0130 C   0  0  0  0  0  0  0  0  0  0  0  0
    4.0390    0.4580   -1.9650 C   0  0  0  0  0  0  0  0  0  0  0  0
    4.6630    1.0250   -0.8090 N   0  0  0  0  0  0  0  0  0  0  0  0
    4.7260    0.0690    0.2790 C   0  0  0  0  0  0  0  0  0  0  0  0
   -1.8870    0.6320   -0.8210 C   0  0  0  0  0  0  0  0  0  0  0  0
  1  2  1  0
  3  2  1  6
  3  4  1  0
  3 22  1  0
  4  5  1  0
  5  6  1  0
  6  7  1  0
  7  8  1  0
  8  9  1  1
  8 22  1  0
  9 10  1  0
 10 11  2  0
 10 16  1  0
 11 12  1  0
 12 13  2  0
 13 14  1  0
 13 15  1  0
 15 16  2  0
 15 21  1  0
 16 17  1  0
 17 18  1  0
 18 19  1  0
 19 20  1  0
 20 21  1  0
M  CHG  2   2   1  20   1
M  END
