
     RDKit          3D

  9  9  0  0  0  0  0  0  0  0999 V2000
    1.9230   -0.5810    0.2760 C   0  0  0  0  0  0  0  0  0  0  0  0
    0.4990   -0.3850    0.1010 N   0  0  0  0  0  0  0  0  0  0  0  0
   -0.0150    0.8430   -0.0830 C   0  0  0  0  0  0  0  0  0  0  0  0
    0.8860    1.9260   -0.0980 N   0  0  0  0  0  0  0  0  0  0  0  0
   -1.3900    1.0410   -0.2520 C   0  0  0  0  0  0  0  0  0  0  0  0
   -2.1790   -0.0910   -0.2190 C   0  0  0  0  0  0  0  0  0  0  0  0
   -1.6560   -1.3250   -0.0330 N   0  0  0  0  0  0  0  0  0  0  0  0
   -0.3200   -1.4500    0.1240 C   0  0  0  0  0  0  0  0  0  0  0  0
    0.1980   -2.5840    0.2980 O   0  0  0  0  0  0  0  0  0  0  0  0
  1  2  1  0
  2  3  2  0
  2  8  1  0
  3  4  1  0
  3  5  1  0
  5  6  2  0
  6  7  1  0
  7  8  1  0
  8  9  2  0
M  CHG  1   2   1
M  END
