
     RDKit          3D

 25 28  0  0  0  0  0  0  0  0999 V2000
   -5.4920    0.2040   -0.4120 C   0  0  0  0  0  0  0  0  0  0  0  0
   -4.4340    1.1140   -0.5290 N   0  0  0  0  0  0  0  0  0  0  0  0
   -3.9150    1.2720   -1.8710 C   0  0  0  0  0  0  0  0  0  0  0  0
   -3.4770    1.3030    0.4900 C   0  0  0  0  0  0  0  0  0  0  0  0
   -2.5460    0.2100    0.6470 C   0  0  0  0  0  0  0  0  0  0  0  0
   -1.2520    0.3910    0.4030 C   0  0  0  0  0  0  0  0  0  0  0  0
   -0.8130    1.6970   -0.0160 C   0  0  0  0  0  0  0  0  0  0  0  0
    0.4390    2.0140   -0.2780 C   0  0  0  0  0  0  0  0  0  0  0  0
    1.5250    0.9980   -0.1530 C   0  0  0  0  0  0  0  0  0  0  0  0
    2.6940    1.3380   -0.4080 N   0  0  0  0  0  0  0  0  0  0  0  0
    3.9710    0.8810   -0.4600 C   0  0  0  0  0  0  0  0  0  0  0  0
    4.8590    0.9530    0.6260 C   0  0  0  0  0  0  0  0  0  0  0  0
    6.1410    0.4980    0.5610 C   0  0  0  0  0  0  0  0  0  0  0  0
    6.6440   -0.0670   -0.5940 C   0  0  0  0  0  0  0  0  0  0  0  0
    5.7860   -0.1400   -1.6560 C   0  0  0  0  0  0  0  0  0  0  0  0
    4.5000    0.3050   -1.6250 C   0  0  0  0  0  0  0  0  0  0  0  0
    1.1050   -0.3290    0.2650 C   0  0  0  0  0  0  0  0  0  0  0  0
    2.0300   -1.3510    0.4270 C   0  0  0  0  0  0  0  0  0  0  0  0
    1.6380   -2.6080    0.8320 C   0  0  0  0  0  0  0  0  0  0  0  0
    2.8080   -3.9180    1.0420 Cl  0  0  0  0  0  0  0  0  0  0  0  0
    0.3210   -2.8950    1.0880 C   0  0  0  0  0  0  0  0  0  0  0  0
   -0.6300   -1.8780    0.9310 C   0  0  0  0  0  0  0  0  0  0  0  0
   -0.2280   -0.6400    0.5340 C   0  0  0  0  0  0  0  0  0  0  0  0
   -2.0500   -2.1960    1.1230 C   0  0  0  0  0  0  0  0  0  0  0  0
   -2.9970   -1.0710    1.1930 C   0  0  0  0  0  0  0  0  0  0  0  0
  1  2  1  0
  2  3  1  0
  2  4  1  0
  4  5  1  0
  5  6  2  0
  5 25  1  0
  6  7  1  0
  6 23  1  0
  7  8  2  0
  8  9  1  0
  9 10  2  3
  9 17  1  0
 10 11  1  0
 11 12  2  0
 11 16  1  0
 12 13  1  0
 13 14  2  0
 14 15  1  0
 15 16  2  0
 17 18  1  0
 17 23  2  0
 18 19  2  0
 19 20  1  0
 19 21  1  0
 21 22  2  0
 22 23  1  0
 22 24  1  0
 24 25  1  0
M  END
