
     RDKit          3D

 25 28  0  0  0  0  0  0  0  0999 V2000
   -0.4630   -2.2050    0.8320 C   0  0  0  0  0  0  0  0  0  0  0  0
   -1.8810   -1.7650    0.8830 C   0  0  0  0  0  0  0  0  0  0  0  0
   -2.8380   -2.6090    1.4230 C   0  0  0  0  0  0  0  0  0  0  0  0
   -4.1730   -2.2770    1.4010 C   0  0  0  0  0  0  0  0  0  0  0  0
   -4.5600   -1.0890    0.8340 C   0  0  0  0  0  0  0  0  0  0  0  0
   -3.6350   -0.2390    0.2970 C   0  0  0  0  0  0  0  0  0  0  0  0
   -4.0400    0.9530   -0.2720 C   0  0  0  0  0  0  0  0  0  0  0  0
   -3.1050    1.7980   -0.8060 C   0  0  0  0  0  0  0  0  0  0  0  0
   -3.6330    3.3220   -1.5350 Cl  0  0  0  0  0  0  0  0  0  0  0  0
   -1.7870    1.5250   -0.8040 C   0  0  0  0  0  0  0  0  0  0  0  0
   -1.3360    0.2850   -0.2140 C   0  0  0  0  0  0  0  0  0  0  0  0
    0.0820    0.1890   -0.1620 N   0  0  0  0  0  0  0  0  0  0  0  0
    0.8140    0.1660   -1.3610 C   0  0  0  0  0  0  0  0  0  0  0  0
    1.8830   -0.7760   -1.6350 C   0  0  0  0  0  0  0  0  0  0  0  0
    2.4960   -1.7350   -0.9780 C   0  0  0  0  0  0  0  0  0  0  0  0
    3.5370   -2.3630   -1.8110 C   0  0  0  0  0  0  0  0  0  0  0  0
    3.4580   -1.6310   -3.0750 C   0  0  0  0  0  0  0  0  0  0  0  0
    2.5220   -0.7310   -2.9820 C   0  0  0  0  0  0  0  0  0  0  0  0
    0.7240    0.4200    1.1000 C   0  0  0  0  0  0  0  0  0  0  0  0
    1.2470    1.8600    1.1680 C   0  0  0  0  0  0  0  0  0  0  0  0
    2.4990    2.1890    1.3380 C   0  0  0  0  0  0  0  0  0  0  0  0
    2.5930    3.6640    1.3470 C   0  0  0  0  0  0  0  0  0  0  0  0
    1.1830    4.0670    1.1530 C   0  0  0  0  0  0  0  0  0  0  0  0
    0.4610    3.0190    1.0570 N   0  0  0  0  0  0  0  0  0  0  0  0
   -2.2470   -0.5660    0.3130 C   0  0  0  0  0  0  0  0  0  0  0  0
  1  2  1  0
  2  3  2  0
  2 25  1  0
  3  4  1  0
  4  5  2  0
  5  6  1  0
  6  7  2  0
  6 25  1  0
  7  8  1  0
  8  9  1  0
  8 10  2  0
 10 11  1  0
 11 12  1  0
 11 25  2  0
 12 13  1  0
 12 19  1  0
 13 14  1  0
 14 15  2  0
 14 18  1  0
 15 16  1  0
 16 17  1  0
 17 18  2  0
 19 20  1  0
 20 21  2  0
 20 24  1  0
 21 22  1  0
 22 23  1  0
 23 24  2  0
M  END
