
     RDKit          3D

 25 28  0  0  0  0  0  0  0  0999 V2000
    5.1700    1.3840    1.0670 C   0  0  0  0  0  0  0  0  0  0  0  0
    4.6110    0.2190    0.3770 C   0  0  0  0  0  0  0  0  0  0  0  0
    3.3240   -0.0990    0.4950 C   0  0  0  0  0  0  0  0  0  0  0  0
    2.2640    0.5480    1.2480 C   0  0  0  0  0  0  0  0  0  0  0  0
    0.9760    0.2440    0.5200 C   0  0  1  0  0  0  0  0  0  0  0  0
    0.5940    1.3020   -0.4090 C   0  0  0  0  0  0  0  0  0  0  0  0
    1.6200    2.1170   -0.9110 C   0  0  0  0  0  0  0  0  0  0  0  0
    1.3610    3.1310   -1.7930 C   0  0  0  0  0  0  0  0  0  0  0  0
    0.0410    3.3040   -2.1550 C   0  0  0  0  0  0  0  0  0  0  0  0
   -0.9440    2.5360   -1.6830 N   0  0  0  0  0  0  0  0  0  0  0  0
   -0.6920    1.5080   -0.7920 C   0  0  0  0  0  0  0  0  0  0  0  0
   -1.8450    0.8400   -0.2650 C   0  0  0  0  0  0  0  0  0  0  0  0
   -2.6480    1.6090    0.6030 C   0  0  0  0  0  0  0  0  0  0  0  0
   -3.8210    1.1220    1.1310 C   0  0  0  0  0  0  0  0  0  0  0  0
   -4.2520   -0.1500    0.8220 C   0  0  0  0  0  0  0  0  0  0  0  0
   -5.5290   -0.6590    1.4090 C   0  0  0  0  0  0  0  0  0  0  0  0
   -3.5000   -0.9340   -0.0210 C   0  0  0  0  0  0  0  0  0  0  0  0
   -3.9440   -2.3100   -0.3850 C   0  0  0  0  0  0  0  0  0  0  0  0
   -3.6940   -3.4480    0.9400 Cl  0  0  0  0  0  0  0  0  0  0  0  0
   -2.3230   -0.4040   -0.5320 C   0  0  0  0  0  0  0  0  0  0  0  0
    1.3050   -0.9760   -0.1880 N   0  0  0  0  0  0  0  0  0  0  0  0
    0.6920   -2.0640   -0.9590 C   0  0  0  0  0  0  0  0  0  0  0  0
    1.7500   -3.1040   -1.1600 C   0  0  0  0  0  0  0  0  0  0  0  0
    2.9790   -2.4400   -0.6890 C   0  0  0  0  0  0  0  0  0  0  0  0
    2.6910   -1.2670   -0.1520 C   0  0  0  0  0  0  0  0  0  0  0  0
  1  2  1  0
  2  3  2  3
  3  4  1  0
  3 25  1  0
  4  5  1  0
  5  6  1  6
  5 21  1  0
  6  7  2  0
  6 11  1  0
  7  8  1  0
  8  9  2  0
  9 10  1  0
 10 11  2  0
 11 12  1  0
 12 13  2  0
 12 20  1  0
 13 14  1  0
 14 15  2  0
 15 16  1  0
 15 17  1  0
 17 18  1  0
 17 20  2  0
 18 19  1  0
 21 22  1  0
 21 25  1  0
 22 23  1  0
 23 24  1  0
 24 25  2  0
M  END
