
     RDKit          3D

 25 28  0  0  0  0  0  0  0  0999 V2000
    2.5860    1.0490    1.3890 Cl  0  0  0  0  0  0  0  0  0  0  0  0
    2.4110   -0.1900    0.1450 C   0  0  0  0  0  0  0  0  0  0  0  0
    3.5630   -0.7140   -0.4120 C   0  0  0  0  0  0  0  0  0  0  0  0
    3.5270   -1.6640   -1.4030 C   0  0  0  0  0  0  0  0  0  0  0  0
    2.2850   -2.0880   -1.8350 C   0  0  0  0  0  0  0  0  0  0  0  0
    1.1080   -1.5680   -1.2830 C   0  0  0  0  0  0  0  0  0  0  0  0
    1.1740   -0.6260   -0.2990 C   0  0  0  0  0  0  0  0  0  0  0  0
   -0.0400   -0.0470    0.3240 C   0  0  1  0  0  0  0  0  0  0  0  0
    0.0330    1.4020    0.0720 C   0  0  0  0  0  0  0  0  0  0  0  0
    0.2240    1.7660   -1.2640 C   0  0  0  0  0  0  0  0  0  0  0  0
    0.3230    3.0750   -1.6380 C   0  0  0  0  0  0  0  0  0  0  0  0
    0.2350    4.0670   -0.6980 C   0  0  0  0  0  0  0  0  0  0  0  0
    0.0470    3.7310    0.6180 C   0  0  0  0  0  0  0  0  0  0  0  0
   -0.0510    2.4100    0.9840 C   0  0  0  0  0  0  0  0  0  0  0  0
   -1.2890   -0.6120   -0.2390 C   0  0  0  0  0  0  0  0  0  0  0  0
   -2.1870    0.2110   -0.8510 C   0  0  0  0  0  0  0  0  0  0  0  0
   -3.3840   -0.2760   -1.3820 C   0  0  0  0  0  0  0  0  0  0  0  0
   -3.6270   -1.6230   -1.2650 C   0  0  0  0  0  0  0  0  0  0  0  0
   -2.7240   -2.4670   -0.6480 C   0  0  0  0  0  0  0  0  0  0  0  0
   -1.5680   -1.9480   -0.1440 C   0  0  0  0  0  0  0  0  0  0  0  0
   -0.1040   -0.3990    1.7480 N   0  0  0  0  0  0  0  0  0  0  0  0
    0.7800   -1.1810    2.3930 C   0  0  0  0  0  0  0  0  0  0  0  0
    0.3230   -1.2560    3.7010 C   0  0  0  0  0  0  0  0  0  0  0  0
   -0.8040   -0.5380    3.8330 N   0  0  0  0  0  0  0  0  0  0  0  0
   -1.0520   -0.0190    2.6250 C   0  0  0  0  0  0  0  0  0  0  0  0
  1  2  1  0
  2  3  2  0
  2  7  1  0
  3  4  1  0
  4  5  2  0
  5  6  1  0
  6  7  2  0
  7  8  1  0
  8  9  1  0
  8 15  1  0
  8 21  1  1
  9 10  2  0
  9 14  1  0
 10 11  1  0
 11 12  2  0
 12 13  1  0
 13 14  2  0
 15 16  2  0
 15 20  1  0
 16 17  1  0
 17 18  2  0
 18 19  1  0
 19 20  2  0
 21 22  1  0
 21 25  1  0
 22 23  2  0
 23 24  1  0
 24 25  2  0
M  END
