
     RDKit          3D

 25 28  0  0  0  0  0  0  0  0999 V2000
    2.1460   -0.4940   -2.1240 C   0  0  0  0  0  0  0  0  0  0  0  0
    2.9090   -0.0090   -0.9480 C   0  0  0  0  0  0  0  0  0  0  0  0
    3.7820    0.9370   -1.2710 C   0  0  0  0  0  0  0  0  0  0  0  0
    4.7700    1.7440   -0.5060 C   0  0  0  0  0  0  0  0  0  0  0  0
    5.8630    0.9150    0.1170 C   0  0  0  0  0  0  0  0  0  0  0  0
    5.5120    0.3680    1.4440 C   0  0  0  0  0  0  0  0  0  0  0  0
    6.7950    0.6530    2.6020 Cl  0  0  0  0  0  0  0  0  0  0  0  0
    4.4930   -0.2780    1.9980 C   0  0  0  0  0  0  0  0  0  0  0  0
    3.1950   -0.7490    1.4620 C   0  0  0  0  0  0  0  0  0  0  0  0
    2.5590   -0.6530    0.3100 C   0  0  0  0  0  0  0  0  0  0  0  0
    1.2600   -1.3090    0.2770 C   0  0  0  0  0  0  0  0  0  0  0  0
    0.1590   -0.4150   -0.0060 N   0  0  0  0  0  0  0  0  0  0  0  0
   -0.0810    0.4990    1.0410 C   0  0  0  0  0  0  0  0  0  0  0  0
   -1.3930    1.1600    1.0930 C   0  0  0  0  0  0  0  0  0  0  0  0
   -2.4780    0.4620    0.4830 N   0  0  0  0  0  0  0  0  0  0  0  0
   -2.2560   -0.5950   -0.2850 C   0  0  0  0  0  0  0  0  0  0  0  0
   -3.4540   -1.1010   -0.7620 C   0  0  0  0  0  0  0  0  0  0  0  0
   -3.6870   -2.2710   -1.6530 C   0  0  0  0  0  0  0  0  0  0  0  0
   -4.4420   -0.2910   -0.2420 C   0  0  0  0  0  0  0  0  0  0  0  0
   -5.8360   -0.2800   -0.3510 C   0  0  0  0  0  0  0  0  0  0  0  0
   -6.5970    0.6710    0.2920 C   0  0  0  0  0  0  0  0  0  0  0  0
   -5.9450    1.6180    1.0520 C   0  0  0  0  0  0  0  0  0  0  0  0
   -4.5540    1.6190    1.1700 C   0  0  0  0  0  0  0  0  0  0  0  0
   -3.8220    0.6580    0.5160 C   0  0  0  0  0  0  0  0  0  0  0  0
   -0.9050   -1.1210   -0.5610 C   0  0  0  0  0  0  0  0  0  0  0  0
  1  2  1  0
  2  3  2  0
  2 10  1  0
  3  4  1  0
  4  5  1  0
  5  6  1  0
  6  7  1  0
  6  8  2  0
  8  9  1  0
  9 10  2  0
 10 11  1  0
 11 12  1  0
 12 13  1  0
 12 25  1  0
 13 14  1  0
 14 15  1  0
 15 16  1  0
 15 24  1  0
 16 17  2  0
 16 25  1  0
 17 18  1  0
 17 19  1  0
 19 20  2  0
 19 24  1  0
 20 21  1  0
 21 22  2  0
 22 23  1  0
 23 24  2  0
M  END
