
     RDKit          3D

 25 28  0  0  0  0  0  0  0  0999 V2000
    3.3110    3.2570    0.0910 C   0  0  0  0  0  0  0  0  0  0  0  0
    3.6180    1.9810    0.1830 C   0  0  0  0  0  0  0  0  0  0  0  0
    2.5110    1.0130    0.1220 C   0  0  0  0  0  0  0  0  0  0  0  0
    2.7680   -0.2780    0.1800 C   0  0  0  0  0  0  0  0  0  0  0  0
    4.1370   -0.7960    0.3130 C   0  0  0  0  0  0  0  0  0  0  0  0
    5.1460    0.0420    0.3790 C   0  0  0  0  0  0  0  0  0  0  0  0
    5.0060    1.5240    0.3280 C   0  0  0  0  0  0  0  0  0  0  0  0
    4.2390   -2.2720    0.3510 C   0  0  0  0  0  0  0  0  0  0  0  0
    3.3400   -2.8020   -0.7280 C   0  0  0  0  0  0  0  0  0  0  0  0
    1.8740   -2.5140   -0.5440 C   0  0  0  0  0  0  0  0  0  0  0  0
    1.7000   -1.2110    0.0870 N   0  0  0  0  0  0  0  0  0  0  0  0
    0.4150   -0.8520    0.5960 C   0  0  0  0  0  0  0  0  0  0  0  0
   -0.5200   -0.5750   -0.5660 C   0  0  0  0  0  0  0  0  0  0  0  0
   -1.8400   -0.2480   -0.1460 N   0  0  0  0  0  0  0  0  0  0  0  0
   -2.7120   -1.3010    0.4200 C   0  0  0  0  0  0  0  0  0  0  0  0
   -4.1420   -1.0320   -0.0250 C   0  0  1  0  0  0  0  0  0  0  0  0
   -4.9550   -2.2550    0.2860 C   0  0  0  0  0  0  0  0  0  0  0  0
   -4.5850    0.1970    0.6960 C   0  0  0  0  0  0  0  0  0  0  0  0
   -3.7020    1.3170    0.1990 C   0  0  0  0  0  0  0  0  0  0  0  0
   -4.1840    2.5920    0.1370 C   0  0  0  0  0  0  0  0  0  0  0  0
   -3.3980    3.6330   -0.3120 C   0  0  0  0  0  0  0  0  0  0  0  0
   -4.0340    5.2580   -0.3760 Cl  0  0  0  0  0  0  0  0  0  0  0  0
   -2.0950    3.4140   -0.7150 C   0  0  0  0  0  0  0  0  0  0  0  0
   -1.6340    2.1200   -0.6420 C   0  0  0  0  0  0  0  0  0  0  0  0
   -2.3920    1.0610   -0.1990 C   0  0  0  0  0  0  0  0  0  0  0  0
  1  2  2  0
  2  3  1  0
  2  7  1  0
  3  4  2  0
  4  5  1  0
  4 11  1  0
  5  6  2  0
  5  8  1  0
  6  7  1  0
  8  9  1  0
  9 10  1  0
 10 11  1  0
 11 12  1  0
 12 13  1  0
 13 14  1  0
 14 15  1  0
 14 25  1  0
 15 16  1  0
 16 17  1  1
 16 18  1  0
 18 19  1  0
 19 20  2  0
 19 25  1  0
 20 21  1  0
 21 22  1  0
 21 23  2  0
 23 24  1  0
 24 25  2  0
M  END
