
     RDKit          3D

 25 28  0  0  0  0  0  0  0  0999 V2000
    5.1370    3.0810    0.0680 C   0  0  0  0  0  0  0  0  0  0  0  0
    4.1000    1.9970    0.0430 C   0  0  0  0  0  0  0  0  0  0  0  0
    3.3510    1.6760    1.1320 C   0  0  0  0  0  0  0  0  0  0  0  0
    2.4090    0.6740    1.0590 C   0  0  0  0  0  0  0  0  0  0  0  0
    2.1830   -0.0450   -0.1110 C   0  0  0  0  0  0  0  0  0  0  0  0
    1.2530   -1.0680   -0.2210 N   0  0  0  0  0  0  0  0  0  0  0  0
   -0.0460   -1.0100   -0.2660 C   0  0  0  0  0  0  0  0  0  0  0  0
   -0.8240   -2.2700   -0.3870 C   0  0  0  0  0  0  0  0  0  0  0  0
   -0.4540   -3.5870   -0.5920 C   0  0  0  0  0  0  0  0  0  0  0  0
    0.9540   -3.9820   -0.5930 C   0  0  0  0  0  0  0  0  0  0  0  0
   -1.4530   -4.5430   -0.8020 C   0  0  0  0  0  0  0  0  0  0  0  0
   -2.7810   -4.1780   -0.8040 C   0  0  0  0  0  0  0  0  0  0  0  0
   -3.1440   -2.8720   -0.5970 C   0  0  0  0  0  0  0  0  0  0  0  0
   -2.1280   -1.9220   -0.3850 C   0  0  0  0  0  0  0  0  0  0  0  0
   -2.2440   -0.5080   -0.0220 C   0  0  2  0  0  0  0  0  0  0  0  0
   -2.7740   -0.4280    1.3910 C   0  0  0  0  0  0  0  0  0  0  0  0
   -4.0820    0.0060    0.8260 C   0  0  0  0  0  0  0  0  0  0  0  0
   -3.4260    0.2220   -0.4900 C   0  0  0  0  0  0  0  0  0  0  0  0
   -0.9500    0.0620   -0.2120 N   0  0  0  0  0  0  0  0  0  0  0  0
   -0.5540    1.4510   -0.3520 C   0  0  0  0  0  0  0  0  0  0  0  0
   -0.6850    2.2920    0.8570 C   0  0  0  0  0  0  0  0  0  0  0  0
   -0.1890    3.6940    0.4400 C   0  0  0  0  0  0  0  0  0  0  0  0
   -0.3000    4.8030    1.8270 Cl  0  0  0  0  0  0  0  0  0  0  0  0
    2.9590    0.3040   -1.2000 C   0  0  0  0  0  0  0  0  0  0  0  0
    3.9100    1.3150   -1.1270 C   0  0  0  0  0  0  0  0  0  0  0  0
  1  2  1  0
  2  3  2  0
  2 25  1  0
  3  4  1  0
  4  5  2  0
  5  6  1  0
  5 24  1  0
  6  7  2  3
  7  8  1  0
  7 19  1  0
  8  9  2  0
  8 14  1  0
  9 10  1  0
  9 11  1  0
 11 12  2  0
 12 13  1  0
 13 14  2  0
 14 15  1  0
 15 16  1  1
 15 18  1  0
 15 19  1  0
 16 17  1  0
 17 18  1  0
 19 20  1  0
 20 21  1  0
 21 22  1  0
 22 23  1  0
 24 25  2  0
M  END
