
     RDKit          3D

 24 27  0  0  0  0  0  0  0  0999 V2000
    0.5990   -3.9050   -0.1630 C   0  0  0  0  0  0  0  0  0  0  0  0
   -0.1530   -2.6530   -0.0560 N   0  0  0  0  0  0  0  0  0  0  0  0
    0.3720   -1.4410   -0.2960 C   0  0  0  0  0  0  0  0  0  0  0  0
    1.7540   -1.1760   -0.6980 C   0  0  0  0  0  0  0  0  0  0  0  0
    2.1050    0.2010   -0.7810 N   0  0  0  0  0  0  0  0  0  0  0  0
    1.9450    0.8350    0.5120 C   0  0  0  0  0  0  0  0  0  0  0  0
    3.2520    1.1200    1.1720 C   0  0  0  0  0  0  0  0  0  0  0  0
    4.3270    1.7800    0.7260 C   0  0  0  0  0  0  0  0  0  0  0  0
    4.5590    2.4430   -0.5760 C   0  0  0  0  0  0  0  0  0  0  0  0
    3.8590    1.6600   -1.6780 C   0  0  0  0  0  0  0  0  0  0  0  0
    3.5110    0.2910   -1.1300 C   0  0  0  0  0  0  0  0  0  0  0  0
   -0.6310   -0.5190   -0.0930 C   0  0  0  0  0  0  0  0  0  0  0  0
   -1.7820   -1.1630    0.2730 C   0  0  0  0  0  0  0  0  0  0  0  0
   -3.0340   -0.7330    0.5860 C   0  0  0  0  0  0  0  0  0  0  0  0
   -3.3330    0.6880    0.5430 C   0  0  0  0  0  0  0  0  0  0  0  0
   -3.0000    1.4970   -0.5210 C   0  0  0  0  0  0  0  0  0  0  0  0
   -3.2990    2.8560   -0.5190 C   0  0  0  0  0  0  0  0  0  0  0  0
   -3.9400    3.4290    0.5550 C   0  0  0  0  0  0  0  0  0  0  0  0
   -4.2780    2.6410    1.6180 C   0  0  0  0  0  0  0  0  0  0  0  0
   -3.9770    1.2960    1.6070 C   0  0  0  0  0  0  0  0  0  0  0  0
   -3.9910   -1.6700    0.9260 C   0  0  0  0  0  0  0  0  0  0  0  0
   -3.6720   -3.0260    0.9470 C   0  0  0  0  0  0  0  0  0  0  0  0
   -2.4060   -3.4530    0.6290 C   0  0  0  0  0  0  0  0  0  0  0  0
   -1.4340   -2.5210    0.2850 C   0  0  0  0  0  0  0  0  0  0  0  0
  1  2  1  0
  2  3  1  0
  2 24  1  0
  3  4  1  0
  3 12  2  0
  4  5  1  0
  5  6  1  0
  5 11  1  0
  6  7  1  0
  7  8  2  0
  8  9  1  0
  9 10  1  0
 10 11  1  0
 12 13  1  0
 13 14  2  0
 13 24  1  0
 14 15  1  0
 14 21  1  0
 15 16  2  0
 15 20  1  0
 16 17  1  0
 17 18  2  0
 18 19  1  0
 19 20  2  0
 21 22  2  0
 22 23  1  0
 23 24  2  0
M  END
