
     RDKit          3D

 16 17  0  0  0  0  0  0  0  0999 V2000
    2.3900   -1.0300   -1.5620 O   0  0  0  0  0  0  0  0  0  0  0  0
    1.5970   -1.0550   -0.5560 C   0  0  0  0  0  0  0  0  0  0  0  0
    0.5160   -2.0690   -0.5020 C   0  0  0  0  0  0  0  0  0  0  0  0
   -0.5030   -1.9190    0.9670 S   0  0  0  0  0  0  0  0  0  0  0  0
   -1.4230   -0.4030    0.8950 C   0  0  0  0  0  0  0  0  0  0  0  0
   -0.9980    0.7520    1.4300 N   0  0  0  0  0  0  0  0  0  0  0  0
   -1.9300    1.6440    1.1760 N   0  0  0  0  0  0  0  0  0  0  0  0
   -2.9730    1.0880    0.4750 C   0  0  0  0  0  0  0  0  0  0  0  0
   -2.6740   -0.1920    0.2900 C   0  0  0  0  0  0  0  0  0  0  0  0
   -3.6480   -1.0200   -0.4530 C   0  0  0  0  0  0  0  0  0  0  0  0
   -4.6120    0.3000   -1.3020 S   0  0  0  0  0  0  0  0  0  0  0  0
   -4.2590    1.5840   -0.0660 C   0  0  0  0  0  0  0  0  0  0  0  0
    1.8250   -0.1110    0.4180 O   0  0  0  0  0  0  0  0  0  0  0  0
    2.8540    0.8410    0.3510 C   0  0  0  0  0  0  0  0  0  0  0  0
    4.2330    0.2660    0.2840 C   0  0  0  0  0  0  0  0  0  0  0  0
    5.1620    1.3010    0.2220 O   0  0  0  0  0  0  0  0  0  0  0  0
  1  2  2  0
  2  3  1  0
  2 13  1  0
  3  4  1  0
  4  5  1  0
  5  6  1  0
  5  9  2  0
  6  7  1  0
  7  8  2  0
  8  9  1  0
  8 12  1  0
  9 10  1  0
 10 11  1  0
 11 12  1  0
 13 14  1  0
 14 15  1  0
 15 16  1  0
M  END
