
     RDKit          3D

 16 17  0  0  0  0  0  0  0  0999 V2000
    4.3280    1.3290   -0.1010 C   0  0  0  0  0  0  0  0  0  0  0  0
    4.1680    0.0010   -0.8010 C   0  0  0  0  0  0  0  0  0  0  0  0
    3.1180   -0.7400   -0.2810 O   0  0  0  0  0  0  0  0  0  0  0  0
    1.8010   -0.4270   -0.2240 C   0  0  0  0  0  0  0  0  0  0  0  0
    1.3230    0.7530   -0.7190 C   0  0  0  0  0  0  0  0  0  0  0  0
   -0.0050    1.0630   -0.6580 C   0  0  0  0  0  0  0  0  0  0  0  0
   -0.9710    0.2080   -0.0930 C   0  0  0  0  0  0  0  0  0  0  0  0
   -2.2550    0.3760    0.0280 N   0  0  0  0  0  0  0  0  0  0  0  0
   -3.0590   -0.4270    0.5430 C   0  0  0  0  0  0  0  0  0  0  0  0
   -4.7810   -0.4740    0.8400 S   0  0  1  0  0  0  0  0  0  0  0  0
   -5.5280   -1.1840   -0.5340 N   0  0  0  0  0  0  0  0  0  0  0  0
   -5.0640   -1.2320    2.0970 O   0  0  0  0  0  0  0  0  0  0  0  0
   -5.2790    0.9280    1.0390 O   0  0  0  0  0  0  0  0  0  0  0  0
   -1.9270   -1.7780    1.0160 S   0  0  0  0  0  0  0  0  0  0  0  0
   -0.4370   -0.9710    0.3920 C   0  0  0  0  0  0  0  0  0  0  0  0
    0.8960   -1.3140    0.3460 C   0  0  0  0  0  0  0  0  0  0  0  0
  1  2  1  0
  2  3  1  0
  3  4  1  0
  4  5  2  0
  4 16  1  0
  5  6  1  0
  6  7  2  0
  7  8  1  0
  7 15  1  0
  8  9  2  0
  9 10  1  0
  9 14  1  0
 10 11  1  6
 10 12  2  0
 10 13  2  0
 14 15  1  0
 15 16  2  0
M  END
