
     RDKit          3D

 16 17  0  0  0  0  0  0  0  0999 V2000
    4.0890    0.7050    0.0350 C   0  0  0  0  0  0  0  0  0  0  0  0
    3.1930    0.6850   -1.1850 C   0  0  0  0  0  0  0  0  0  0  0  0
    2.7190   -1.0510   -1.4120 S   0  0  0  0  0  0  0  0  0  0  0  0
    1.6500   -1.6500   -0.0810 C   0  0  0  0  0  0  0  0  0  0  0  0
    0.3370   -0.9390   -0.1840 C   0  0  0  0  0  0  0  0  0  0  0  0
   -0.0580    0.2550   -1.3800 S   0  0  0  0  0  0  0  0  0  0  0  0
   -1.7530    0.5720   -0.8060 C   0  0  0  0  0  0  0  0  0  0  0  0
   -2.7480    1.4150   -1.2560 C   0  0  0  0  0  0  0  0  0  0  0  0
   -2.5650    2.1640   -2.2460 O   0  0  0  0  0  0  0  0  0  0  0  0
   -3.9460    1.4300   -0.6120 N   0  0  0  0  0  0  0  0  0  0  0  0
   -4.0380    0.5890    0.4380 C   0  0  0  0  0  0  0  0  0  0  0  0
   -5.1530    0.6040    1.0370 O   0  0  0  0  0  0  0  0  0  0  0  0
   -3.0860   -0.2230    0.8760 N   0  0  0  0  0  0  0  0  0  0  0  0
   -1.8500   -0.2840    0.2650 C   0  0  0  0  0  0  0  0  0  0  0  0
   -0.7760   -1.0400    0.5620 C   0  0  0  0  0  0  0  0  0  0  0  0
   -0.7790   -1.9620    1.6600 O   0  0  0  0  0  0  0  0  0  0  0  0
  1  2  1  0
  2  3  1  0
  3  4  1  0
  4  5  1  0
  5  6  1  0
  5 15  2  0
  6  7  1  0
  7  8  1  0
  7 14  2  0
  8  9  2  0
  8 10  1  0
 10 11  1  0
 11 12  2  0
 11 13  1  0
 13 14  1  0
 14 15  1  0
 15 16  1  0
M  END
