
     RDKit          3D

 16 17  0  0  0  0  0  0  0  0999 V2000
   -5.4720   -1.8100    0.1830 O   0  0  0  0  0  0  0  0  0  0  0  0
   -4.1390   -1.3970    0.0170 C   0  0  0  0  0  0  0  0  0  0  0  0
   -4.0650    0.0390    0.4240 C   0  0  0  0  0  0  0  0  0  0  0  0
   -2.7090    0.6030    0.2980 C   0  0  0  0  0  0  0  0  0  0  0  0
   -2.4040    1.8750    0.6060 N   0  0  0  0  0  0  0  0  0  0  0  0
   -1.1570    2.0580    0.3920 O   0  0  0  0  0  0  0  0  0  0  0  0
   -0.5810    0.9510   -0.0580 C   0  0  0  0  0  0  0  0  0  0  0  0
    0.8470    0.8750   -0.3880 C   0  0  0  0  0  0  0  0  0  0  0  0
    1.7830    0.3690    1.0910 S   0  0  0  0  0  0  0  0  0  0  0  0
    3.5530    0.2990    0.5930 C   0  0  0  0  0  0  0  0  0  0  0  0
    4.3330    1.4560    0.7300 C   0  0  0  0  0  0  0  0  0  0  0  0
    5.9260    0.9470    0.1480 S   0  0  0  0  0  0  0  0  0  0  0  0
    5.4890   -0.7190   -0.2340 C   0  0  0  0  0  0  0  0  0  0  0  0
    4.1760   -0.7830    0.1000 C   0  0  0  0  0  0  0  0  0  0  0  0
    3.4880   -2.0360   -0.0910 O   0  0  0  0  0  0  0  0  0  0  0  0
   -1.5590    0.0410   -0.1150 N   0  0  0  0  0  0  0  0  0  0  0  0
  1  2  1  0
  2  3  1  0
  3  4  1  0
  4  5  2  0
  4 16  1  0
  5  6  1  0
  6  7  1  0
  7  8  1  0
  7 16  2  0
  8  9  1  0
  9 10  1  0
 10 11  2  0
 10 14  1  0
 11 12  1  0
 12 13  1  0
 13 14  2  0
 14 15  1  0
M  END
