
     RDKit          3D

 16 17  0  0  0  0  0  0  0  0999 V2000
   -3.3630    0.8100    0.4410 C   0  0  0  0  0  0  0  0  0  0  0  0
   -2.5720    1.1280   -0.7970 C   0  0  0  0  0  0  0  0  0  0  0  0
   -2.1980   -0.4060   -1.6210 S   0  0  1  0  0  0  0  0  0  0  0  0
   -3.4870   -1.1420   -1.9600 O   0  0  0  0  0  0  0  0  0  0  0  0
   -1.5390   -0.1150   -2.9170 O   0  0  0  0  0  0  0  0  0  0  0  0
   -1.2750   -1.4220   -0.5790 N   0  0  0  0  0  0  0  0  0  0  0  0
   -0.0090   -0.9860   -0.1310 C   0  0  0  0  0  0  0  0  0  0  0  0
    0.4200   -1.0700    1.1560 C   0  0  0  0  0  0  0  0  0  0  0  0
    1.6280   -0.6580    1.6200 C   0  0  0  0  0  0  0  0  0  0  0  0
    2.5600   -0.0790    0.7050 C   0  0  0  0  0  0  0  0  0  0  0  0
    3.7480    0.3570    1.0070 N   0  0  0  0  0  0  0  0  0  0  0  0
    4.5570    0.8860    0.0810 C   0  0  0  0  0  0  0  0  0  0  0  0
    5.6870    1.3530    0.1160 O   0  0  0  0  0  0  0  0  0  0  0  0
    3.5180    0.7560   -1.4090 S   0  0  0  0  0  0  0  0  0  0  0  0
    2.1210    0.0030   -0.5970 C   0  0  0  0  0  0  0  0  0  0  0  0
    0.8740   -0.4290   -1.0380 C   0  0  0  0  0  0  0  0  0  0  0  0
  1  2  1  0
  3  2  1  1
  3  4  2  0
  3  5  2  0
  3  6  1  0
  6  7  1  0
  7  8  2  0
  7 16  1  0
  8  9  1  0
  9 10  2  0
 10 11  1  0
 10 15  1  0
 11 12  1  0
 12 13  2  0
 12 14  1  0
 14 15  1  0
 15 16  2  0
M  END
