
     RDKit          3D

 16 16  0  0  0  0  0  0  0  0999 V2000
    5.7960    1.4470    0.4590 C   0  0  0  0  0  0  0  0  0  0  0  0
    4.7360    0.8160    0.0440 C   0  0  0  0  0  0  0  0  0  0  0  0
    3.2370    0.5140    0.9520 S   0  0  0  0  0  0  0  0  0  0  0  0
    2.3820   -0.3790   -0.3560 C   0  0  0  0  0  0  0  0  0  0  0  0
    1.0580   -0.9290   -0.2700 N   0  0  0  0  0  0  0  0  0  0  0  0
   -0.0580   -0.1100   -0.0160 C   0  0  0  0  0  0  0  0  0  0  0  0
    0.1240    1.1260    0.1370 O   0  0  0  0  0  0  0  0  0  0  0  0
   -1.3990   -0.7000    0.0650 C   0  0  0  0  0  0  0  0  0  0  0  0
   -2.4260    0.2720    0.3300 N   0  0  0  0  0  0  0  0  0  0  0  0
   -3.7840   -0.1150    0.4430 C   0  0  0  0  0  0  0  0  0  0  0  0
   -4.0460   -1.3470    0.3000 O   0  0  0  0  0  0  0  0  0  0  0  0
   -4.7520    0.8320    0.6970 O   0  0  0  0  0  0  0  0  0  0  0  0
   -6.0990    0.3770    0.7980 C   0  0  0  0  0  0  0  0  0  0  0  0
    3.2070   -0.4170   -1.3740 C   0  0  0  0  0  0  0  0  0  0  0  0
    4.4770    0.1970   -1.2350 C   0  0  0  0  0  0  0  0  0  0  0  0
    5.6340    0.2350   -2.4300 S   0  0  0  0  0  0  0  0  0  0  0  0
  1  2  2  0
  2  3  1  0
  2 15  1  0
  3  4  1  0
  4  5  1  0
  4 14  2  0
  5  6  1  0
  6  7  2  0
  6  8  1  0
  8  9  1  0
  9 10  1  0
 10 11  2  0
 10 12  1  0
 12 13  1  0
 14 15  1  0
 15 16  2  0
M  END
