
     RDKit          3D

 20 22  0  0  0  0  0  0  0  0999 V2000
    5.5510    0.2410   -0.9130 C   0  0  0  0  0  0  0  0  0  0  0  0
    4.4350    0.0580    0.0730 C   0  0  2  0  0  0  0  0  0  0  0  0
    4.3740   -1.0900    0.9980 C   0  0  0  0  0  0  0  0  0  0  0  0
    3.4880   -1.0550   -0.1950 C   0  0  1  0  0  0  0  0  0  0  0  0
    2.0110   -0.8630   -0.0790 C   0  0  2  0  0  0  0  0  0  0  0  0
    1.5950    0.2110   -1.0550 C   0  0  0  0  0  0  0  0  0  0  0  0
    0.1860    0.6160   -0.9370 C   0  0  0  0  0  0  0  0  0  0  0  0
   -0.4720    1.0080   -1.9690 O   0  0  0  0  0  0  0  0  0  0  0  0
   -0.4400    0.5700    0.3330 N   0  0  0  0  0  0  0  0  0  0  0  0
   -1.6250    1.3830    0.5910 C   0  0  0  0  0  0  0  0  0  0  0  0
   -2.8710    0.6530    0.2520 C   0  0  0  0  0  0  0  0  0  0  0  0
   -2.8430   -0.5660   -0.2160 C   0  0  0  0  0  0  0  0  0  0  0  0
   -4.0670   -1.2870   -0.5500 C   0  0  0  0  0  0  0  0  0  0  0  0
   -5.3500   -0.5880   -0.3410 C   0  0  0  0  0  0  0  0  0  0  0  0
   -5.2880    0.7740    0.1860 C   0  0  0  0  0  0  0  0  0  0  0  0
   -4.1290    1.3340    0.4550 C   0  0  0  0  0  0  0  0  0  0  0  0
   -4.1480    2.6500    0.9610 O   0  0  0  0  0  0  0  0  0  0  0  0
    0.1120   -0.2810    1.3210 C   0  0  0  0  0  0  0  0  0  0  0  0
   -0.6740   -0.7840    2.1970 O   0  0  0  0  0  0  0  0  0  0  0  0
    1.5590   -0.5650    1.3240 C   0  0  0  0  0  0  0  0  0  0  0  0
  2  1  1  6
  2  3  1  0
  2  4  1  0
  4  3  1  1
  4  5  1  0
  5  6  1  6
  5 20  1  0
  6  7  1  0
  7  8  2  0
  7  9  1  0
  9 10  1  0
  9 18  1  0
 10 11  1  0
 11 12  2  0
 11 16  1  0
 12 13  1  0
 13 14  1  0
 14 15  1  0
 15 16  2  0
 16 17  1  0
 18 19  2  0
 18 20  1  0
M  END
