
     RDKit          3D

 15 15  0  0  0  0  0  0  0  0999 V2000
    5.2640   -0.1150    0.9160 C   0  0  0  0  0  0  0  0  0  0  0  0
    4.6860    1.2120    0.4850 C   0  0  0  0  0  0  0  0  0  0  0  0
    3.3230    1.0620   -0.0660 O   0  0  0  0  0  0  0  0  0  0  0  0
    2.3120    0.8410    0.6720 C   0  0  0  0  0  0  0  0  0  0  0  0
    2.1550    0.6450    1.8440 O   0  0  0  0  0  0  0  0  0  0  0  0
    0.7640    0.7960   -0.1550 N   0  0  0  0  0  0  0  0  0  0  0  0
   -0.0470    0.6310    0.8950 C   0  0  0  0  0  0  0  0  0  0  0  0
   -0.3560    0.5680    1.9540 O   0  0  0  0  0  0  0  0  0  0  0  0
   -1.4430    0.3460    0.0170 N   0  0  0  0  0  0  0  0  0  0  0  0
   -2.5590    0.0240    0.7390 C   0  0  0  0  0  0  0  0  0  0  0  0
   -3.6620   -0.2820   -0.3170 C   0  0  0  0  0  0  0  0  0  0  0  0
   -3.6650   -1.6460   -0.3400 C   0  0  0  0  0  0  0  0  0  0  0  0
   -4.7200   -2.5620   -1.3890 S   0  0  0  0  0  0  0  0  0  0  0  0
   -5.0190   -1.1500   -2.6440 C   0  0  0  0  0  0  0  0  0  0  0  0
   -4.7980    0.2520   -1.4330 S   0  0  0  0  0  0  0  0  0  0  0  0
  1  2  1  0
  2  3  1  0
  3  4  1  0
  4  5  2  0
  4  6  1  0
  6  7  1  0
  7  8  2  0
  7  9  1  0
  9 10  1  0
 10 11  1  0
 11 12  2  0
 11 15  1  0
 12 13  1  0
 13 14  1  0
 14 15  1  0
M  END
