
     RDKit          3D

 27 30  0  0  0  0  0  0  0  0999 V2000
    2.7910    2.9600   -1.1760 C   0  0  0  0  0  0  0  0  0  0  0  0
    3.2330    1.7330   -0.4740 C   0  0  0  0  0  0  0  0  0  0  0  0
    4.2160    1.7510    0.4930 C   0  0  0  0  0  0  0  0  0  0  0  0
    4.6000    0.5880    1.1230 C   0  0  0  0  0  0  0  0  0  0  0  0
    4.0280   -0.6550    0.8270 C   0  0  0  0  0  0  0  0  0  0  0  0
    4.5490   -1.8570    1.5410 C   0  0  0  0  0  0  0  0  0  0  0  0
    3.0490   -0.6820   -0.1300 C   0  0  0  0  0  0  0  0  0  0  0  0
    2.3670   -1.9210   -0.4850 C   0  0  0  0  0  0  0  0  0  0  0  0
    1.2310   -2.3570    0.3640 C   0  0  1  0  0  0  0  0  0  0  0  0
    1.5200   -2.6090    1.8070 C   0  0  0  0  0  0  0  0  0  0  0  0
    0.0220   -1.5000    0.1840 C   0  0  0  0  0  0  0  0  0  0  0  0
   -0.0500   -0.2730    0.7590 C   0  0  0  0  0  0  0  0  0  0  0  0
   -1.1540    0.5930    0.6290 C   0  0  0  0  0  0  0  0  0  0  0  0
   -1.1070    1.9000    1.3020 C   0  0  0  0  0  0  0  0  0  0  0  0
   -2.2200    0.1510   -0.1340 C   0  0  0  0  0  0  0  0  0  0  0  0
   -2.1580   -1.0950   -0.7230 C   0  0  0  0  0  0  0  0  0  0  0  0
   -1.0460   -1.9080   -0.5620 C   0  0  0  0  0  0  0  0  0  0  0  0
   -3.4200   -1.7920   -1.7120 S   0  0  2  0  0  0  0  0  0  0  0  0
   -3.8790   -3.0490   -1.0040 O   0  0  0  0  0  0  0  0  0  0  0  0
   -2.8560   -2.1460   -3.0770 O   0  0  0  0  0  0  0  0  0  0  0  0
   -4.7080   -0.6380   -1.7950 C   0  0  0  0  0  0  0  0  0  0  0  0
   -4.4590    0.6120   -1.0450 C   0  0  0  0  0  0  0  0  0  0  0  0
   -3.4350    0.9890   -0.3360 C   0  0  0  0  0  0  0  0  0  0  0  0
   -3.7060    2.3280    0.1940 C   0  0  0  0  0  0  0  0  0  0  0  0
   -4.9220    2.7700   -0.2060 C   0  0  0  0  0  0  0  0  0  0  0  0
   -5.4890    1.7250   -1.0150 C   0  0  0  0  0  0  0  0  0  0  0  0
    2.6720    0.5180   -0.7640 C   0  0  0  0  0  0  0  0  0  0  0  0
  1  2  1  0
  2  3  2  0
  2 27  1  0
  3  4  1  0
  4  5  2  0
  5  6  1  0
  5  7  1  0
  7  8  1  0
  7 27  2  0
  8  9  1  0
  9 10  1  1
  9 11  1  0
 11 12  2  0
 11 17  1  0
 12 13  1  0
 13 14  1  0
 13 15  2  0
 15 16  1  0
 15 23  1  0
 16 17  2  0
 16 18  1  0
 18 19  2  0
 18 20  2  0
 18 21  1  6
 21 22  1  0
 22 23  2  0
 22 26  1  0
 23 24  1  0
 24 25  2  0
 25 26  1  0
M  END
