
     RDKit          3D

 27 30  0  0  0  0  0  0  0  0999 V2000
   -6.9680   -1.2770    2.0030 C   0  0  0  0  0  0  0  0  0  0  0  0
   -6.7130   -1.3250    0.5110 C   0  0  0  0  0  0  0  0  0  0  0  0
   -5.3890   -0.7610    0.1980 C   0  0  0  0  0  0  0  0  0  0  0  0
   -4.5810   -0.2840    1.2090 C   0  0  0  0  0  0  0  0  0  0  0  0
   -3.3360    0.2480    0.9210 C   0  0  0  0  0  0  0  0  0  0  0  0
   -2.8620    0.3220   -0.3570 C   0  0  0  0  0  0  0  0  0  0  0  0
   -1.5720    0.8640   -0.7300 C   0  0  0  0  0  0  0  0  0  0  0  0
   -0.7400    1.3410    0.1770 C   0  0  0  0  0  0  0  0  0  0  0  0
    0.5620    1.8850   -0.2240 C   0  0  0  0  0  0  0  0  0  0  0  0
    1.3850    2.3490    0.6050 O   0  0  0  0  0  0  0  0  0  0  0  0
    0.9540    1.9160   -1.5620 O   0  0  0  0  0  0  0  0  0  0  0  0
    2.2040    2.4360   -1.9520 C   0  0  0  0  0  0  0  0  0  0  0  0
    3.3580    1.7160   -1.3570 C   0  0  0  0  0  0  0  0  0  0  0  0
    4.5990    2.3020   -1.4930 C   0  0  0  0  0  0  0  0  0  0  0  0
    5.6930    1.6350   -0.9430 C   0  0  0  0  0  0  0  0  0  0  0  0
    5.5820    0.4360   -0.2820 C   0  0  0  0  0  0  0  0  0  0  0  0
    4.3450   -0.1170   -0.1650 C   0  0  0  0  0  0  0  0  0  0  0  0
    3.1980    0.5180   -0.7050 C   0  0  0  0  0  0  0  0  0  0  0  0
    4.4400   -1.3770    0.5640 C   0  0  0  0  0  0  0  0  0  0  0  0
    5.9170   -1.5040    0.8670 C   0  0  0  0  0  0  0  0  0  0  0  0
    6.6700   -2.5090    1.5510 C   0  0  0  0  0  0  0  0  0  0  0  0
    8.3160   -1.9000    1.4660 S   0  0  0  0  0  0  0  0  0  0  0  0
    7.9400   -0.3770    0.5480 C   0  0  0  0  0  0  0  0  0  0  0  0
    6.5680   -0.4800    0.3910 C   0  0  0  0  0  0  0  0  0  0  0  0
   -3.6970   -0.1680   -1.3700 C   0  0  0  0  0  0  0  0  0  0  0  0
   -4.9320   -0.6960   -1.0910 C   0  0  0  0  0  0  0  0  0  0  0  0
   -5.7630   -1.1960   -2.2210 C   0  0  0  0  0  0  0  0  0  0  0  0
  1  2  1  0
  2  3  1  0
  3  4  2  0
  3 26  1  0
  4  5  1  0
  5  6  2  0
  6  7  1  0
  6 25  1  0
  7  8  2  3
  8  9  1  0
  9 10  2  0
  9 11  1  0
 11 12  1  0
 12 13  1  0
 13 14  2  0
 13 18  1  0
 14 15  1  0
 15 16  2  0
 16 17  1  0
 16 24  1  0
 17 18  2  0
 17 19  1  0
 19 20  1  0
 20 21  2  0
 20 24  1  0
 21 22  1  0
 22 23  1  0
 23 24  2  0
 25 26  2  0
 26 27  1  0
M  END
