
     RDKit          3D

 27 30  0  0  0  0  0  0  0  0999 V2000
   -4.0150   -0.1310    2.9900 C   0  0  0  0  0  0  0  0  0  0  0  0
   -3.6230   -1.1250    1.9160 C   0  0  0  0  0  0  0  0  0  0  0  0
   -3.9200   -0.5990    0.5570 C   0  0  0  0  0  0  0  0  0  0  0  0
   -5.1570   -0.5180   -0.0410 C   0  0  0  0  0  0  0  0  0  0  0  0
   -6.4430   -0.9680    0.6060 C   0  0  0  0  0  0  0  0  0  0  0  0
   -4.9830   -0.0030   -1.2100 O   0  0  0  0  0  0  0  0  0  0  0  0
   -3.7320    0.2730   -1.4550 C   0  0  0  0  0  0  0  0  0  0  0  0
   -3.2200    0.8660   -2.6950 C   0  0  0  0  0  0  0  0  0  0  0  0
   -3.0060   -0.0940   -0.3430 C   0  0  0  0  0  0  0  0  0  0  0  0
   -1.5490    0.0200   -0.1340 C   0  0  0  0  0  0  0  0  0  0  0  0
   -1.0560    1.0590    0.3660 O   0  0  0  0  0  0  0  0  0  0  0  0
   -0.7080   -1.1150   -0.5280 C   0  0  0  0  0  0  0  0  0  0  0  0
    0.7620   -0.8620   -0.2890 C   0  0  0  0  0  0  0  0  0  0  0  0
    1.3550   -1.5750    0.6460 C   0  0  0  0  0  0  0  0  0  0  0  0
    3.0590   -1.4440    1.0860 S   0  0  0  0  0  0  0  0  0  0  0  0
    3.7160   -0.1000    0.0570 C   0  0  0  0  0  0  0  0  0  0  0  0
    4.9510    0.2760    0.2200 C   0  0  0  0  0  0  0  0  0  0  0  0
    5.7500   -0.4260    1.2470 C   0  0  0  0  0  0  0  0  0  0  0  0
    6.9900   -0.0990    1.4610 C   0  0  0  0  0  0  0  0  0  0  0  0
    8.2970   -0.1780    2.0990 C   0  0  0  0  0  0  0  0  0  0  0  0
    8.1380    0.7400    1.1380 C   0  0  0  0  0  0  0  0  0  0  0  0
    2.7890    0.4910   -0.9010 C   0  0  0  0  0  0  0  0  0  0  0  0
    3.3660    1.4760   -1.7090 C   0  0  0  0  0  0  0  0  0  0  0  0
    2.5970    2.1050   -2.6660 C   0  0  0  0  0  0  0  0  0  0  0  0
    1.2830    1.7700   -2.8230 C   0  0  0  0  0  0  0  0  0  0  0  0
    0.7100    0.8060   -2.0340 C   0  0  0  0  0  0  0  0  0  0  0  0
    1.4710    0.1550   -1.0560 C   0  0  0  0  0  0  0  0  0  0  0  0
  1  2  1  0
  2  3  1  0
  3  4  2  0
  3  9  1  0
  4  5  1  0
  4  6  1  0
  6  7  1  0
  7  8  1  0
  7  9  2  0
  9 10  1  0
 10 11  2  0
 10 12  1  0
 12 13  1  0
 13 14  2  0
 13 27  1  0
 14 15  1  0
 15 16  1  0
 16 17  2  3
 16 22  1  0
 17 18  1  0
 18 19  2  3
 19 20  1  0
 19 21  1  0
 20 21  2  0
 22 23  2  0
 22 27  1  0
 23 24  1  0
 24 25  2  0
 25 26  1  0
 26 27  2  0
M  END
