
     RDKit          3D

 27 30  0  0  0  0  0  0  0  0999 V2000
   -3.3330    2.9920   -0.0090 C   0  0  0  0  0  0  0  0  0  0  0  0
   -3.5680    1.5250   -0.3030 C   0  0  1  0  0  0  0  0  0  0  0  0
   -3.0580    1.1480   -1.6510 C   0  0  0  0  0  0  0  0  0  0  0  0
   -2.6290   -0.3230   -1.6030 C   0  0  0  0  0  0  0  0  0  0  0  0
   -1.3070   -0.4320   -0.8220 C   0  0  2  0  0  0  0  0  0  0  0  0
   -0.9890   -1.8750   -0.7110 C   0  0  0  0  0  0  0  0  0  0  0  0
   -1.8130   -2.8350   -1.3180 C   0  0  0  0  0  0  0  0  0  0  0  0
   -1.5220   -4.1590   -1.1860 C   0  0  0  0  0  0  0  0  0  0  0  0
   -0.4360   -4.6170   -0.4720 C   0  0  0  0  0  0  0  0  0  0  0  0
    0.3710   -3.6760    0.1210 C   0  0  0  0  0  0  0  0  0  0  0  0
    0.1000   -2.3150    0.0050 C   0  0  0  0  0  0  0  0  0  0  0  0
    1.0570   -1.3550    0.6360 C   0  0  0  0  0  0  0  0  0  0  0  0
    1.7340   -0.4190   -0.0620 C   0  0  0  0  0  0  0  0  0  0  0  0
    2.6280    0.3650    0.5950 C   0  0  0  0  0  0  0  0  0  0  0  0
    3.5010    1.4480    0.1270 C   0  0  0  0  0  0  0  0  0  0  0  0
    3.5140    1.8440   -1.1890 C   0  0  0  0  0  0  0  0  0  0  0  0
    4.3360    2.8610   -1.6290 C   0  0  0  0  0  0  0  0  0  0  0  0
    5.1720    3.5110   -0.7500 C   0  0  0  0  0  0  0  0  0  0  0  0
    5.1710    3.1290    0.5620 C   0  0  0  0  0  0  0  0  0  0  0  0
    4.3330    2.0950    0.9980 C   0  0  0  0  0  0  0  0  0  0  0  0
    2.5540   -0.2040    2.2980 S   0  0  0  0  0  0  0  0  0  0  0  0
    1.3200   -1.4540    1.9830 C   0  0  0  0  0  0  0  0  0  0  0  0
    0.7760   -2.2990    3.0110 C   0  0  0  0  0  0  0  0  0  0  0  0
   -0.1230   -3.1560    2.8460 O   0  0  0  0  0  0  0  0  0  0  0  0
    1.2600   -2.1840    4.3060 O   0  0  0  0  0  0  0  0  0  0  0  0
   -1.5720    0.2450    0.4810 C   0  0  0  0  0  0  0  0  0  0  0  0
   -3.0070    0.6100    0.7340 C   0  0  0  0  0  0  0  0  0  0  0  0
  2  1  1  1
  2  3  1  0
  2 27  1  0
  3  4  1  0
  4  5  1  0
  5  6  1  1
  5 26  1  0
  6  7  2  0
  6 11  1  0
  7  8  1  0
  8  9  2  0
  9 10  1  0
 10 11  2  0
 11 12  1  0
 12 13  1  0
 12 22  2  0
 13 14  2  0
 14 15  1  0
 14 21  1  0
 15 16  2  0
 15 20  1  0
 16 17  1  0
 17 18  2  0
 18 19  1  0
 19 20  2  0
 21 22  1  0
 22 23  1  0
 23 24  2  0
 23 25  1  0
 26 27  1  0
M  END
