
     RDKit          3D

 26 29  0  0  0  0  0  0  0  0999 V2000
   -4.4170   -2.4430   -0.4800 C   0  0  0  0  0  0  0  0  0  0  0  0
   -3.7000   -1.2350   -0.0310 C   0  0  0  0  0  0  0  0  0  0  0  0
   -2.7260   -1.3180    0.9510 C   0  0  0  0  0  0  0  0  0  0  0  0
   -2.0860   -0.1460    1.3340 C   0  0  0  0  0  0  0  0  0  0  0  0
   -1.1090   -0.2270    2.3230 O   0  0  0  0  0  0  0  0  0  0  0  0
   -2.3590    1.0880    0.7970 C   0  0  0  0  0  0  0  0  0  0  0  0
   -1.6900    2.2980    1.1880 C   0  0  0  0  0  0  0  0  0  0  0  0
   -0.4340    2.6110    1.2120 C   0  0  0  0  0  0  0  0  0  0  0  0
   -0.1120    3.9760    1.6980 C   0  0  0  0  0  0  0  0  0  0  0  0
    1.0500    4.4000    1.7580 O   0  0  0  0  0  0  0  0  0  0  0  0
    0.6210    1.7820    0.6710 C   0  0  0  0  0  0  0  0  0  0  0  0
    0.4440    0.7870   -0.2740 C   0  0  0  0  0  0  0  0  0  0  0  0
    1.4210   -0.0520   -0.7170 C   0  0  0  0  0  0  0  0  0  0  0  0
    2.7460    0.0450   -0.2160 C   0  0  0  0  0  0  0  0  0  0  0  0
    2.9100    1.0190    0.7030 C   0  0  0  0  0  0  0  0  0  0  0  0
    1.9220    1.8710    1.1550 C   0  0  0  0  0  0  0  0  0  0  0  0
    4.6110    0.9140    1.1440 S   0  0  0  0  0  0  0  0  0  0  0  0
    5.0090   -0.4430    0.0600 C   0  0  0  0  0  0  0  0  0  0  0  0
    6.2030   -1.1190   -0.1640 C   0  0  0  0  0  0  0  0  0  0  0  0
    6.2280   -2.1500   -1.0710 C   0  0  0  0  0  0  0  0  0  0  0  0
    5.0440   -2.4440   -1.7060 C   0  0  0  0  0  0  0  0  0  0  0  0
    3.8710   -1.7940   -1.4980 C   0  0  0  0  0  0  0  0  0  0  0  0
    3.8210   -0.7170   -0.5580 C   0  0  0  0  0  0  0  0  0  0  0  0
   -3.3520    1.1380   -0.1960 C   0  0  0  0  0  0  0  0  0  0  0  0
   -4.0020   -0.0220   -0.5900 C   0  0  0  0  0  0  0  0  0  0  0  0
   -5.0430    0.0470   -1.6310 C   0  0  0  0  0  0  0  0  0  0  0  0
  1  2  1  0
  2  3  2  0
  2 25  1  0
  3  4  1  0
  4  5  1  0
  4  6  2  0
  6  7  1  0
  6 24  1  0
  7  8  2  3
  8  9  1  0
  8 11  1  0
  9 10  2  0
 11 12  2  0
 11 16  1  0
 12 13  1  0
 13 14  2  0
 14 15  1  0
 14 23  1  0
 15 16  2  0
 15 17  1  0
 17 18  1  0
 18 19  2  0
 18 23  1  0
 19 20  1  0
 20 21  2  0
 21 22  1  0
 22 23  2  0
 24 25  2  0
 25 26  1  0
M  END
