
     RDKit          3D

 27 30  0  0  0  0  0  0  0  0999 V2000
   -0.0330   -0.3920    2.8580 C   0  0  0  0  0  0  0  0  0  0  0  0
   -0.5530    0.6100    1.9000 C   0  0  1  0  0  0  0  0  0  0  0  0
   -1.1850    1.7180    2.7600 C   0  0  0  0  0  0  0  0  0  0  0  0
    0.6420    1.2960    1.1950 C   0  0  0  0  0  0  0  0  0  0  0  0
    0.8930    2.5360    1.4050 C   0  0  0  0  0  0  0  0  0  0  0  0
    1.9660    3.4030    0.8520 C   0  0  0  0  0  0  0  0  0  0  0  0
    3.2050    2.5230   -0.0560 S   0  0  0  0  0  0  0  0  0  0  0  0
    2.5680    0.8470   -0.2770 C   0  0  0  0  0  0  0  0  0  0  0  0
    1.4510    0.3900    0.3500 C   0  0  0  0  0  0  0  0  0  0  0  0
    1.0790   -0.9210    0.1190 C   0  0  0  0  0  0  0  0  0  0  0  0
    1.8380   -1.7210   -0.7260 C   0  0  0  0  0  0  0  0  0  0  0  0
    2.9620   -1.2200   -1.3400 C   0  0  0  0  0  0  0  0  0  0  0  0
    3.3520    0.0810   -1.1280 C   0  0  0  0  0  0  0  0  0  0  0  0
    4.5960    0.3160   -1.9310 C   0  0  0  0  0  0  0  0  0  0  0  0
    5.1430   -1.0580   -2.1920 C   0  0  0  0  0  0  0  0  0  0  0  0
    3.8950   -1.9140   -2.2640 C   0  0  0  0  0  0  0  0  0  0  0  0
   -1.5440    0.2670    0.9140 C   0  0  0  0  0  0  0  0  0  0  0  0
   -1.3810    0.8350   -0.4140 O   0  0  0  0  0  0  0  0  0  0  0  0
   -2.6020   -0.4800    0.9990 C   0  0  0  0  0  0  0  0  0  0  0  0
   -3.1360   -1.2110    2.1260 C   0  0  0  0  0  0  0  0  0  0  0  0
   -2.6730   -1.2480    3.2540 O   0  0  0  0  0  0  0  0  0  0  0  0
   -3.4230   -0.6650   -0.2580 C   0  0  0  0  0  0  0  0  0  0  0  0
   -4.7670   -0.5360   -0.1700 C   0  0  0  0  0  0  0  0  0  0  0  0
   -5.5100   -0.7260   -1.3390 C   0  0  0  0  0  0  0  0  0  0  0  0
   -4.9100   -1.0320   -2.5340 C   0  0  0  0  0  0  0  0  0  0  0  0
   -3.5440   -1.1570   -2.5960 C   0  0  0  0  0  0  0  0  0  0  0  0
   -2.7980   -0.9650   -1.4120 C   0  0  0  0  0  0  0  0  0  0  0  0
  2  1  1  1
  2  3  1  0
  2  4  1  0
  2 17  1  0
  4  5  2  0
  4  9  1  0
  5  6  1  0
  6  7  1  0
  7  8  1  0
  8  9  2  0
  8 13  1  0
  9 10  1  0
 10 11  2  0
 11 12  1  0
 12 13  2  0
 12 16  1  0
 13 14  1  0
 14 15  1  0
 15 16  1  0
 17 18  1  0
 17 19  2  3
 19 20  1  0
 19 22  1  0
 20 21  2  0
 22 23  2  0
 22 27  1  0
 23 24  1  0
 24 25  2  0
 25 26  1  0
 26 27  2  0
M  END
