
     RDKit          3D

 27 30  0  0  0  0  0  0  0  0999 V2000
   -5.6130   -0.2610   -3.0270 C   0  0  0  0  0  0  0  0  0  0  0  0
   -4.2830   -0.0010   -2.5210 C   0  0  0  0  0  0  0  0  0  0  0  0
   -3.7980   -0.0540   -1.3190 C   0  0  0  0  0  0  0  0  0  0  0  0
   -4.4180   -0.3980   -0.0270 C   0  0  0  0  0  0  0  0  0  0  0  0
   -5.6890   -0.7540    0.0640 C   0  0  0  0  0  0  0  0  0  0  0  0
   -6.5540   -1.2000    1.5920 S   0  0  0  0  0  0  0  0  0  0  0  0
   -5.3880   -1.8900    2.6810 O   0  0  0  0  0  0  0  0  0  0  0  0
   -4.6480   -0.8650    3.2130 C   0  0  0  0  0  0  0  0  0  0  0  0
   -3.5390   -0.4790    2.3390 C   0  0  0  0  0  0  0  0  0  0  0  0
   -3.4380   -0.2890    1.0420 C   0  0  0  0  0  0  0  0  0  0  0  0
   -2.1800    0.1320    0.3790 C   0  0  0  0  0  0  0  0  0  0  0  0
   -0.9400    0.3800    0.9240 C   0  0  0  0  0  0  0  0  0  0  0  0
    0.1390    0.7660    0.1580 C   0  0  0  0  0  0  0  0  0  0  0  0
    1.4180    1.1010    0.7270 C   0  0  0  0  0  0  0  0  0  0  0  0
    2.5490    0.4840    0.2920 C   0  0  0  0  0  0  0  0  0  0  0  0
    2.4510   -0.5310   -0.7530 C   0  0  0  0  0  0  0  0  0  0  0  0
    3.7430    0.9150    0.9780 C   0  0  0  0  0  0  0  0  0  0  0  0
    3.5710    1.7890    1.9430 O   0  0  0  0  0  0  0  0  0  0  0  0
    5.0900    0.4980    0.7260 C   0  0  0  0  0  0  0  0  0  0  0  0
    5.5350   -0.2730   -0.2950 C   0  0  0  0  0  0  0  0  0  0  0  0
    6.8770   -0.6870   -0.4580 C   0  0  0  0  0  0  0  0  0  0  0  0
    7.7890   -0.2740    0.4920 C   0  0  0  0  0  0  0  0  0  0  0  0
    7.3870    0.5120    1.5480 C   0  0  0  0  0  0  0  0  0  0  0  0
    6.0740    0.8970    1.6770 C   0  0  0  0  0  0  0  0  0  0  0  0
   -0.1090    0.8890   -1.2060 C   0  0  0  0  0  0  0  0  0  0  0  0
   -1.3290    0.6510   -1.7700 C   0  0  0  0  0  0  0  0  0  0  0  0
   -2.3840    0.2650   -0.9610 C   0  0  0  0  0  0  0  0  0  0  0  0
  1  2  1  0
  2  3  2  3
  3  4  1  0
  3 27  1  0
  4  5  2  0
  4 10  1  0
  5  6  1  0
  6  7  1  0
  7  8  1  0
  8  9  1  0
  9 10  2  0
 10 11  1  0
 11 12  2  0
 11 27  1  0
 12 13  1  0
 13 14  1  0
 13 25  2  0
 14 15  2  3
 15 16  1  0
 15 17  1  0
 17 18  2  0
 17 19  1  0
 19 20  2  0
 19 24  1  0
 20 21  1  0
 21 22  2  0
 22 23  1  0
 23 24  2  0
 25 26  1  0
 26 27  2  0
M  END
