
     RDKit          3D

 27 30  0  0  0  0  0  0  0  0999 V2000
    4.1140    3.0130   -0.4250 C   0  0  0  0  0  0  0  0  0  0  0  0
    2.5750    2.2540   -0.9240 S   0  0  0  0  0  0  0  0  0  0  0  0
    2.7360    0.4620   -1.2190 C   0  0  2  0  0  0  0  0  0  0  0  0
    1.3880   -0.0170   -1.6280 C   0  0  0  0  0  0  0  0  0  0  0  0
    1.2460   -1.1230   -2.4220 C   0  0  0  0  0  0  0  0  0  0  0  0
   -0.0210   -1.5250   -2.7740 C   0  0  0  0  0  0  0  0  0  0  0  0
   -1.1390   -0.8430   -2.3460 C   0  0  0  0  0  0  0  0  0  0  0  0
   -1.0310    0.2740   -1.5450 C   0  0  0  0  0  0  0  0  0  0  0  0
   -2.0990    0.9960   -1.0860 O   0  0  0  0  0  0  0  0  0  0  0  0
   -2.8310    0.8240    0.0530 C   0  0  0  0  0  0  0  0  0  0  0  0
   -2.5230    1.4080    1.2820 C   0  0  0  0  0  0  0  0  0  0  0  0
   -1.3880    2.2170    1.3210 O   0  0  0  0  0  0  0  0  0  0  0  0
   -3.3030    1.1910    2.3830 C   0  0  0  0  0  0  0  0  0  0  0  0
   -4.4200    0.3890    2.3220 C   0  0  0  0  0  0  0  0  0  0  0  0
   -4.7680   -0.2170    1.1090 C   0  0  0  0  0  0  0  0  0  0  0  0
   -3.9700    0.0130    0.0100 C   0  0  0  0  0  0  0  0  0  0  0  0
   -4.5450   -0.7320   -1.1650 C   0  0  0  0  0  0  0  0  0  0  0  0
   -5.9750   -0.9810   -0.7340 C   0  0  0  0  0  0  0  0  0  0  0  0
   -5.9130   -1.1120    0.7760 C   0  0  0  0  0  0  0  0  0  0  0  0
    0.2590    0.6470   -1.2130 C   0  0  0  0  0  0  0  0  0  0  0  0
    3.2070   -0.1490    0.0510 C   0  0  0  0  0  0  0  0  0  0  0  0
    2.4270   -0.1370    1.1860 C   0  0  0  0  0  0  0  0  0  0  0  0
    2.8680   -0.7090    2.3760 C   0  0  0  0  0  0  0  0  0  0  0  0
    4.1170   -1.2860    2.3680 C   0  0  0  0  0  0  0  0  0  0  0  0
    4.9140   -1.3130    1.2510 C   0  0  0  0  0  0  0  0  0  0  0  0
    4.4690   -0.7410    0.0700 C   0  0  0  0  0  0  0  0  0  0  0  0
    5.2670   -0.7300   -1.1660 C   0  0  0  0  0  0  0  0  0  0  0  0
  1  2  1  0
  3  2  1  1
  3  4  1  0
  3 21  1  0
  4  5  2  0
  4 20  1  0
  5  6  1  0
  6  7  2  0
  7  8  1  0
  8  9  1  0
  8 20  2  0
  9 10  1  0
 10 11  2  0
 10 16  1  0
 11 12  1  0
 11 13  1  0
 13 14  2  0
 14 15  1  0
 15 16  2  0
 15 19  1  0
 16 17  1  0
 17 18  1  0
 18 19  1  0
 21 22  2  0
 21 26  1  0
 22 23  1  0
 23 24  2  0
 24 25  1  0
 25 26  2  0
 26 27  1  0
M  END
