
     RDKit          3D

 27 30  0  0  0  0  0  0  0  0999 V2000
   -6.7780    1.3760    1.5810 C   0  0  0  0  0  0  0  0  0  0  0  0
   -6.2370    0.0040    1.8930 C   0  0  0  0  0  0  0  0  0  0  0  0
   -5.0630   -0.3380    1.0370 C   0  0  0  0  0  0  0  0  0  0  0  0
   -3.7750   -0.2960    1.5420 C   0  0  0  0  0  0  0  0  0  0  0  0
   -2.6790   -0.6130    0.7460 C   0  0  0  0  0  0  0  0  0  0  0  0
   -2.8170   -0.9820   -0.5740 C   0  0  0  0  0  0  0  0  0  0  0  0
   -1.7660   -1.3050   -1.4090 O   0  0  0  0  0  0  0  0  0  0  0  0
   -0.4370   -1.2480   -1.1300 C   0  0  0  0  0  0  0  0  0  0  0  0
    0.3270   -2.3890   -1.1670 C   0  0  0  0  0  0  0  0  0  0  0  0
    1.6910   -2.3600   -0.8870 C   0  0  0  0  0  0  0  0  0  0  0  0
    2.3100   -1.1770   -0.5640 C   0  0  0  0  0  0  0  0  0  0  0  0
    3.7300   -1.1270   -0.2600 C   0  0  0  0  0  0  0  0  0  0  0  0
    4.3270   -2.1180    0.2130 O   0  0  0  0  0  0  0  0  0  0  0  0
    4.4990    0.1410   -0.5180 C   0  0  0  0  0  0  0  0  0  0  0  0
    4.0880    0.9120   -1.5810 C   0  0  0  0  0  0  0  0  0  0  0  0
    5.2160    2.2760   -1.5810 S   0  0  0  0  0  0  0  0  0  0  0  0
    6.1870    1.7170   -0.1290 C   0  0  0  0  0  0  0  0  0  0  0  0
    5.5610    0.5810    0.1880 C   0  0  0  0  0  0  0  0  0  0  0  0
    6.3070    0.0230    1.4190 C   0  0  0  0  0  0  0  0  0  0  0  0
    7.6060    0.7520    1.4320 C   0  0  0  0  0  0  0  0  0  0  0  0
    7.3200    2.0620    0.7240 C   0  0  0  0  0  0  0  0  0  0  0  0
    1.5440   -0.0320   -0.5270 C   0  0  0  0  0  0  0  0  0  0  0  0
    0.1720   -0.0600   -0.8090 C   0  0  0  0  0  0  0  0  0  0  0  0
   -0.5420    1.2390   -0.7450 C   0  0  0  0  0  0  0  0  0  0  0  0
   -4.1120   -1.0230   -1.0730 C   0  0  0  0  0  0  0  0  0  0  0  0
   -5.2060   -0.7070   -0.2820 C   0  0  0  0  0  0  0  0  0  0  0  0
   -6.5840   -0.7630   -0.8560 C   0  0  0  0  0  0  0  0  0  0  0  0
  1  2  1  0
  2  3  1  0
  3  4  2  0
  3 26  1  0
  4  5  1  0
  5  6  2  0
  6  7  1  0
  6 25  1  0
  7  8  1  0
  8  9  2  0
  8 23  1  0
  9 10  1  0
 10 11  2  0
 11 12  1  0
 11 22  1  0
 12 13  2  0
 12 14  1  0
 14 15  2  0
 14 18  1  0
 15 16  1  0
 16 17  1  0
 17 18  2  0
 17 21  1  0
 18 19  1  0
 19 20  1  0
 20 21  1  0
 22 23  2  0
 23 24  1  0
 25 26  2  0
 26 27  1  0
M  END
