
     RDKit          3D

 27 30  0  0  0  0  0  0  0  0999 V2000
   -1.8980    5.0940   -0.4380 C   0  0  0  0  0  0  0  0  0  0  0  0
   -1.3350    3.7830   -0.0100 C   0  0  0  0  0  0  0  0  0  0  0  0
   -1.3210    2.7480   -1.1130 C   0  0  0  0  0  0  0  0  0  0  0  0
   -0.7350    1.4710   -0.6870 C   0  0  0  0  0  0  0  0  0  0  0  0
   -1.4910    0.4380   -0.2350 N   0  0  0  0  0  0  0  0  0  0  0  0
   -0.9820   -0.6970    0.2060 C   0  0  0  0  0  0  0  0  0  0  0  0
   -1.7940   -1.7790    0.6810 N   0  0  0  0  0  0  0  0  0  0  0  0
   -1.3490   -3.0650    1.1780 C   0  0  0  0  0  0  0  0  0  0  0  0
   -2.4110   -4.0490    0.7300 C   0  0  0  0  0  0  0  0  0  0  0  0
   -3.6490   -3.2080    0.7980 C   0  0  0  0  0  0  0  0  0  0  0  0
   -4.9550   -3.2920    0.8750 C   0  0  0  0  0  0  0  0  0  0  0  0
   -5.5040   -1.9210    0.9000 C   0  0  0  0  0  0  0  0  0  0  0  0
   -4.3040   -1.0470    0.8230 C   0  0  0  0  0  0  0  0  0  0  0  0
   -3.2160   -1.8180    0.7640 C   0  0  0  0  0  0  0  0  0  0  0  0
    0.3370   -0.8370    0.2060 N   0  0  0  0  0  0  0  0  0  0  0  0
    1.1750    0.0930   -0.2090 C   0  0  0  0  0  0  0  0  0  0  0  0
    0.6300    1.3070   -0.6810 C   0  0  0  0  0  0  0  0  0  0  0  0
    1.7030    2.0830   -1.0640 C   0  0  0  0  0  0  0  0  0  0  0  0
    1.6290    3.4270   -1.6520 C   0  0  0  0  0  0  0  0  0  0  0  0
    2.7980    1.3450   -0.8170 N   0  0  0  0  0  0  0  0  0  0  0  0
    2.5000    0.1570   -0.3070 N   0  0  0  0  0  0  0  0  0  0  0  0
    3.4370   -0.8460    0.0600 C   0  0  0  0  0  0  0  0  0  0  0  0
    3.0730   -2.1390    0.6310 C   0  0  0  0  0  0  0  0  0  0  0  0
    4.7240   -0.5930   -0.1230 C   0  0  0  0  0  0  0  0  0  0  0  0
    5.8140   -1.4860    0.1900 C   0  0  0  0  0  0  0  0  0  0  0  0
    7.1840   -1.1010   -0.0540 N   0  0  0  0  0  0  0  0  0  0  0  0
    5.5960   -2.6150    0.6790 O   0  0  0  0  0  0  0  0  0  0  0  0
  1  2  1  0
  2  3  1  0
  3  4  1  0
  4  5  2  0
  4 17  1  0
  5  6  1  0
  6  7  1  0
  6 15  2  0
  7  8  1  0
  7 14  1  0
  8  9  1  0
  9 10  1  0
 10 11  2  0
 10 14  1  0
 11 12  1  0
 12 13  1  0
 13 14  2  0
 15 16  1  0
 16 17  2  0
 16 21  1  0
 17 18  1  0
 18 19  1  0
 18 20  2  0
 20 21  1  0
 21 22  1  0
 22 23  1  0
 22 24  2  3
 24 25  1  0
 25 26  1  0
 25 27  2  0
M  END
