
     RDKit          3D

 27 30  0  0  0  0  0  0  0  0999 V2000
   -3.2820    4.3140   -0.8200 C   0  0  0  0  0  0  0  0  0  0  0  0
   -3.5550    3.3980   -1.9930 C   0  0  0  0  0  0  0  0  0  0  0  0
   -3.5820    1.9560   -1.6140 C   0  0  0  0  0  0  0  0  0  0  0  0
   -2.2670    1.4890   -1.0150 C   0  0  2  0  0  0  0  0  0  0  0  0
   -1.3100    1.7030   -1.9990 O   0  0  0  0  0  0  0  0  0  0  0  0
   -2.3870    0.1250   -0.5340 C   0  0  0  0  0  0  0  0  0  0  0  0
   -3.9270   -0.8910   -0.7620 S   0  0  0  0  0  0  0  0  0  0  0  0
   -3.3630   -2.2850    0.0180 C   0  0  0  0  0  0  0  0  0  0  0  0
   -2.0670   -1.9810    0.4270 C   0  0  0  0  0  0  0  0  0  0  0  0
   -1.6040   -0.7580    0.1330 C   0  0  0  0  0  0  0  0  0  0  0  0
   -0.2100   -0.3320    0.5260 C   0  0  0  0  0  0  0  0  0  0  0  0
    0.0100    0.2320    1.6160 O   0  0  0  0  0  0  0  0  0  0  0  0
    0.8510   -0.6290   -0.4560 C   0  0  0  0  0  0  0  0  0  0  0  0
    2.1800   -0.1790   -0.0260 C   0  0  0  0  0  0  0  0  0  0  0  0
    2.7100    0.9640   -0.5910 C   0  0  0  0  0  0  0  0  0  0  0  0
    3.9490    1.4600   -0.2480 C   0  0  0  0  0  0  0  0  0  0  0  0
    4.6610    0.7640    0.7000 C   0  0  0  0  0  0  0  0  0  0  0  0
    4.1260   -0.3880    1.2690 C   0  0  0  0  0  0  0  0  0  0  0  0
    2.8850   -0.8840    0.9250 C   0  0  0  0  0  0  0  0  0  0  0  0
    2.3490   -2.1230    1.5570 C   0  0  0  0  0  0  0  0  0  0  0  0
    5.9420    1.4720    0.9150 C   0  0  0  0  0  0  0  0  0  0  0  0
    6.1800    2.1380   -0.4210 C   0  0  0  0  0  0  0  0  0  0  0  0
    4.7560    2.6510   -0.6980 C   0  0  0  0  0  0  0  0  0  0  0  0
   -1.4340   -3.1690    1.1550 C   0  0  0  0  0  0  0  0  0  0  0  0
   -2.3770   -3.4560    2.3040 C   0  0  0  0  0  0  0  0  0  0  0  0
   -3.6710   -4.0080    1.7830 C   0  0  0  0  0  0  0  0  0  0  0  0
   -3.9110   -3.6600    0.3350 C   0  0  0  0  0  0  0  0  0  0  0  0
  1  2  1  0
  2  3  1  0
  3  4  1  0
  4  5  1  6
  4  6  1  0
  6  7  1  0
  6 10  2  0
  7  8  1  0
  8  9  2  0
  8 27  1  0
  9 10  1  0
  9 24  1  0
 10 11  1  0
 11 12  2  0
 11 13  1  0
 13 14  1  0
 14 15  2  0
 14 19  1  0
 15 16  1  0
 16 17  2  0
 16 23  1  0
 17 18  1  0
 17 21  1  0
 18 19  2  0
 19 20  1  0
 21 22  1  0
 22 23  1  0
 24 25  1  0
 25 26  1  0
 26 27  1  0
M  END
