
     RDKit          3D

 13 13  0  0  0  0  0  0  0  0999 V2000
    3.3340   -1.7770    0.9110 N   0  0  0  0  0  0  0  0  0  0  0  0
    1.9970   -1.3200    0.7430 C   0  0  0  0  0  0  0  0  0  0  0  0
    1.0730   -1.9660    1.2480 O   0  0  0  0  0  0  0  0  0  0  0  0
    1.7530   -0.0890   -0.0280 C   0  0  0  0  0  0  0  0  0  0  0  0
    2.6480    0.6740   -0.6060 C   0  0  0  0  0  0  0  0  0  0  0  0
    4.0280    0.4030   -0.5620 O   0  0  0  0  0  0  0  0  0  0  0  0
    2.0350    1.7800   -1.2610 N   0  0  0  0  0  0  0  0  0  0  0  0
    0.7570    1.7110   -1.0950 C   0  0  0  0  0  0  0  0  0  0  0  0
    0.4480    0.5090   -0.2900 C   0  0  0  0  0  0  0  0  0  0  0  0
   -0.7100    0.0900    0.0900 N   0  0  0  0  0  0  0  0  0  0  0  0
   -1.8730    0.8700   -0.3030 C   0  0  0  0  0  0  0  0  0  0  0  0
   -3.1210    0.3770    0.4090 C   0  0  0  0  0  0  0  0  0  0  0  0
   -3.3970   -0.9980    0.1040 N   0  0  0  0  0  0  0  0  0  0  0  0
  1  2  1  0
  2  3  2  0
  2  4  1  0
  4  5  2  0
  4  9  1  0
  5  6  1  0
  5  7  1  0
  7  8  2  0
  8  9  1  0
  9 10  2  3
 10 11  1  0
 11 12  1  0
 12 13  1  0
M  CHG  1  13   1
M  END
