
     RDKit          3D

 13 13  0  0  0  0  0  0  0  0999 V2000
    4.8030    0.4270    0.6390 N   0  0  0  0  0  0  0  0  0  0  0  0
    3.9560   -0.0090   -0.4080 C   0  0  0  0  0  0  0  0  0  0  0  0
    4.4520   -0.3760   -1.5140 O   0  0  0  0  0  0  0  0  0  0  0  0
    2.5270   -0.0270   -0.1890 N   0  0  0  0  0  0  0  0  0  0  0  0
    1.7120   -0.4480   -1.2580 C   0  0  0  0  0  0  0  0  0  0  0  0
    2.2350   -0.8190   -2.3750 O   0  0  0  0  0  0  0  0  0  0  0  0
    0.2530   -0.4860   -1.1600 C   0  0  0  0  0  0  0  0  0  0  0  0
   -0.2860   -0.0800    0.0990 N   0  0  0  0  0  0  0  0  0  0  0  0
   -1.7080    0.0230    0.3250 C   0  0  0  0  0  0  0  0  0  0  0  0
   -2.6120   -0.9280    0.4200 C   0  0  0  0  0  0  0  0  0  0  0  0
   -3.9100   -0.3710    0.6480 N   0  0  0  0  0  0  0  0  0  0  0  0
   -3.7410    1.0340    0.6870 C   0  0  0  0  0  0  0  0  0  0  0  0
   -2.4570    1.2820    0.5000 C   0  0  0  0  0  0  0  0  0  0  0  0
  1  2  1  0
  2  3  2  0
  2  4  1  0
  4  5  1  0
  5  6  2  0
  5  7  1  0
  7  8  1  0
  8  9  1  0
  9 10  2  0
  9 13  1  0
 10 11  1  0
 11 12  1  0
 12 13  2  0
M  CHG  1  11   1
M  END
