
     RDKit          3D

 13 12  0  0  0  0  0  0  0  0999 V2000
   -0.5360   -2.8930   -0.4800 C   0  0  0  0  0  0  0  0  0  0  0  0
   -1.3680   -1.9670   -0.0440 C   0  0  0  0  0  0  0  0  0  0  0  0
   -2.7640   -2.2470   -0.0630 N   0  0  0  0  0  0  0  0  0  0  0  0
   -0.8870   -0.6830    0.4500 C   0  0  0  0  0  0  0  0  0  0  0  0
   -1.7690    0.1980    0.8710 C   0  0  0  0  0  0  0  0  0  0  0  0
   -1.2880    1.5130    1.3780 C   0  0  0  0  0  0  0  0  0  0  0  0
   -1.8780    2.5310    0.5410 N   0  0  0  0  0  0  0  0  0  0  0  0
    0.4750   -0.4160    0.4660 O   0  0  0  0  0  0  0  0  0  0  0  0
    1.0570    0.0760   -0.7120 C   0  0  0  0  0  0  0  0  0  0  0  0
    2.4960    0.3250   -0.5930 C   0  0  0  0  0  0  0  0  0  0  0  0
    3.1960    0.8220   -1.7090 N   0  0  0  0  0  0  0  0  0  0  0  0
    3.1230    0.0920    0.5310 N   0  0  0  0  0  0  0  0  0  0  0  0
    4.4490    0.3040    0.6930 O   0  0  0  0  0  0  0  0  0  0  0  0
  1  2  2  0
  2  3  1  0
  2  4  1  0
  4  5  2  3
  4  8  1  0
  5  6  1  0
  6  7  1  0
  8  9  1  0
  9 10  1  0
 10 11  1  0
 10 12  2  3
 12 13  1  0
M  CHG  1   7   1
M  END
