
     RDKit          3D

 13 13  0  0  0  0  0  0  0  0999 V2000
    4.2320   -0.9730    1.0180 N   0  0  0  0  0  0  0  0  0  0  0  0
    3.1810   -0.5990    0.1490 C   0  0  0  0  0  0  0  0  0  0  0  0
    2.3890   -1.5170   -0.2580 O   0  0  0  0  0  0  0  0  0  0  0  0
    2.9540    0.7140   -0.2950 N   0  0  0  0  0  0  0  0  0  0  0  0
    1.8500    1.0040   -1.1840 C   0  0  0  0  0  0  0  0  0  0  0  0
    0.5750    0.6190   -0.4750 C   0  0  0  0  0  0  0  0  0  0  0  0
    0.6050    0.1400    0.6980 O   0  0  0  0  0  0  0  0  0  0  0  0
   -0.6850    0.7760   -1.0820 N   0  0  0  0  0  0  0  0  0  0  0  0
   -1.8600    0.3840   -0.3370 C   0  0  0  0  0  0  0  0  0  0  0  0
   -2.8620    1.1670    0.0040 C   0  0  0  0  0  0  0  0  0  0  0  0
   -3.8010    0.4350    0.7100 N   0  0  0  0  0  0  0  0  0  0  0  0
   -3.3220   -0.8820    0.7950 C   0  0  0  0  0  0  0  0  0  0  0  0
   -2.1630   -0.9390    0.1770 C   0  0  0  0  0  0  0  0  0  0  0  0
  1  2  1  0
  2  3  2  0
  2  4  1  0
  4  5  1  0
  5  6  1  0
  6  7  2  0
  6  8  1  0
  8  9  1  0
  9 10  2  0
  9 13  1  0
 10 11  1  0
 11 12  1  0
 12 13  2  0
M  CHG  1  11   1
M  END
