
     RDKit          3D

 13 13  0  0  0  0  0  0  0  0999 V2000
    0.3450   -2.5840    0.1740 C   0  0  0  0  0  0  0  0  0  0  0  0
    0.8030   -1.3430   -0.0130 C   0  0  0  0  0  0  0  0  0  0  0  0
    2.2400   -1.1230    0.0490 C   0  0  0  0  0  0  0  0  0  0  0  0
    2.8200    0.0470   -0.1210 C   0  0  0  0  0  0  0  0  0  0  0  0
    2.1000    1.2510   -0.3880 N   0  0  0  0  0  0  0  0  0  0  0  0
   -0.1070   -0.3290   -0.2560 O   0  0  0  0  0  0  0  0  0  0  0  0
   -0.9590    0.2580    0.6790 C   0  0  2  0  0  0  0  0  0  0  0  0
   -1.8670   -0.6880    1.2870 N   0  0  0  0  0  0  0  0  0  0  0  0
   -3.1760   -0.2980    0.9120 C   0  0  0  0  0  0  0  0  0  0  0  0
   -4.2510   -0.8680    1.2370 O   0  0  0  0  0  0  0  0  0  0  0  0
   -3.0610    0.8450    0.1060 N   0  0  0  0  0  0  0  0  0  0  0  0
   -1.8500    1.1950   -0.0540 C   0  0  0  0  0  0  0  0  0  0  0  0
   -1.3680    2.3150   -0.8150 N   0  0  0  0  0  0  0  0  0  0  0  0
  1  2  2  0
  2  3  1  0
  2  6  1  0
  3  4  2  3
  4  5  1  0
  7  6  1  6
  7  8  1  0
  7 12  1  0
  8  9  1  0
  9 10  2  0
  9 11  1  0
 11 12  2  0
 12 13  1  0
M  CHG  1   5   1
M  END
