
     RDKit          3D

 13 12  0  0  0  0  0  0  0  0999 V2000
   -1.3850   -1.3440   -1.4730 C   0  0  0  0  0  0  0  0  0  0  0  0
   -0.9510   -0.8220   -0.1970 N   0  0  0  0  0  0  0  0  0  0  0  0
   -1.0360   -1.6720    0.9690 C   0  0  0  0  0  0  0  0  0  0  0  0
   -0.4510    0.5090   -0.1140 C   0  0  0  0  0  0  0  0  0  0  0  0
    0.9750    0.7880   -0.0540 C   0  0  0  0  0  0  0  0  0  0  0  0
    1.9040   -0.1580   -0.0690 C   0  0  0  0  0  0  0  0  0  0  0  0
    1.4850   -1.4760   -0.1460 O   0  0  0  0  0  0  0  0  0  0  0  0
    3.2870    0.1520   -0.0100 N   0  0  0  0  0  0  0  0  0  0  0  0
    3.9760    0.0950    1.2030 N   0  0  0  0  0  0  0  0  0  0  0  0
   -1.2930    1.5240   -0.0890 C   0  0  0  0  0  0  0  0  0  0  0  0
   -2.7410    1.3620   -0.1420 C   0  0  0  0  0  0  0  0  0  0  0  0
   -3.5830    2.5100   -0.1130 N   0  0  0  0  0  0  0  0  0  0  0  0
   -3.3250    0.2540   -0.2130 O   0  0  0  0  0  0  0  0  0  0  0  0
  1  2  1  0
  2  3  1  0
  2  4  1  0
  4  5  1  0
  4 10  2  3
  5  6  2  3
  6  7  1  0
  6  8  1  0
  8  9  1  0
 10 11  1  0
 11 12  1  0
 11 13  2  0
M  CHG  1   9   1
M  END
