
     RDKit          3D

 13 13  0  0  0  0  0  0  0  0999 V2000
    3.7940    1.5950   -0.3760 N   0  0  0  0  0  0  0  0  0  0  0  0
    2.9060    0.5020   -0.1650 C   0  0  0  0  0  0  0  0  0  0  0  0
    3.0770   -0.6290    0.5130 N   0  0  0  0  0  0  0  0  0  0  0  0
    1.9740   -1.3870    0.4540 C   0  0  0  0  0  0  0  0  0  0  0  0
    1.0610   -0.6750   -0.3110 C   0  0  0  0  0  0  0  0  0  0  0  0
   -0.3090   -1.1900   -0.6150 C   0  0  0  0  0  0  0  0  0  0  0  0
   -1.2630   -0.7470    0.4590 C   0  0  0  0  0  0  0  0  0  0  0  0
   -1.3500    0.7570    0.5470 C   0  0  2  0  0  0  0  0  0  0  0  0
   -2.2900    1.0580    1.6470 N   0  0  0  0  0  0  0  0  0  0  0  0
   -1.9900    1.2550   -0.6920 C   0  0  0  0  0  0  0  0  0  0  0  0
   -3.1600    1.7590   -0.5850 O   0  0  0  0  0  0  0  0  0  0  0  0
   -1.4120    1.2150   -1.9560 O   0  0  0  0  0  0  0  0  0  0  0  0
    1.6420    0.4710   -0.6800 N   0  0  0  0  0  0  0  0  0  0  0  0
  1  2  1  0
  2  3  2  0
  2 13  1  0
  3  4  1  0
  4  5  2  0
  5  6  1  0
  5 13  1  0
  6  7  1  0
  7  8  1  0
  8  9  1  1
  8 10  1  0
 10 11  2  0
 10 12  1  0
M  CHG  1   9   1
M  END
