
     RDKit          3D

 13 12  0  0  0  0  0  0  0  0999 V2000
   -4.9360    0.5120    0.2510 C   0  0  0  0  0  0  0  0  0  0  0  0
   -3.6310   -0.2430    0.0710 C   0  0  1  0  0  0  0  0  0  0  0  0
   -3.8220   -1.3460   -0.7440 O   0  0  0  0  0  0  0  0  0  0  0  0
   -2.6640    0.6510   -0.5490 N   0  0  0  0  0  0  0  0  0  0  0  0
   -1.3750    0.1260   -0.8000 C   0  0  0  0  0  0  0  0  0  0  0  0
   -0.6570   -0.3550    0.1920 C   0  0  0  0  0  0  0  0  0  0  0  0
    0.6410   -0.8890   -0.0330 N   0  0  0  0  0  0  0  0  0  0  0  0
    1.6710   -0.1160   -0.0900 C   0  0  0  0  0  0  0  0  0  0  0  0
    1.5490    1.2870    0.0680 N   0  0  0  0  0  0  0  0  0  0  0  0
    3.0190   -0.6840   -0.3250 C   0  0  1  0  0  0  0  0  0  0  0  0
    3.5320   -0.1010   -1.5400 N   0  0  0  0  0  0  0  0  0  0  0  0
    3.9000   -0.3410    0.8480 C   0  0  0  0  0  0  0  0  0  0  0  0
    3.3750   -0.9190    1.9980 O   0  0  0  0  0  0  0  0  0  0  0  0
  2  1  1  6
  2  3  1  0
  2  4  1  0
  4  5  1  0
  5  6  2  3
  6  7  1  0
  7  8  2  3
  8  9  1  0
  8 10  1  0
 10 11  1  6
 10 12  1  0
 12 13  1  0
M  CHG  1   7   1
M  END
