
     RDKit          3D

 13 12  0  0  0  0  0  0  0  0999 V2000
   -1.1040    0.3790    2.4530 N   0  0  0  0  0  0  0  0  0  0  0  0
   -1.5820    0.2230    1.2740 C   0  0  0  0  0  0  0  0  0  0  0  0
   -0.8530    0.1460    0.0430 C   0  0  0  0  0  0  0  0  0  0  0  0
    0.6130    0.2520    0.0930 C   0  0  0  0  0  0  0  0  0  0  0  0
    1.3730    0.4100    1.1000 C   0  0  0  0  0  0  0  0  0  0  0  0
    2.8380    0.4980    0.9730 C   0  0  0  0  0  0  0  0  0  0  0  0
    3.5760    0.6570    2.0060 O   0  0  0  0  0  0  0  0  0  0  0  0
    3.5430    0.4200   -0.2480 N   0  0  0  0  0  0  0  0  0  0  0  0
    4.9660    0.5150   -0.2800 N   0  0  0  0  0  0  0  0  0  0  0  0
   -1.4000   -0.0150   -1.1380 C   0  0  0  0  0  0  0  0  0  0  0  0
   -2.7480   -0.1530   -1.5720 C   0  0  0  0  0  0  0  0  0  0  0  0
   -3.9250   -0.1540   -0.7940 N   0  0  0  0  0  0  0  0  0  0  0  0
   -2.9750   -0.3030   -2.8610 O   0  0  0  0  0  0  0  0  0  0  0  0
  1  2  2  0
  2  3  1  0
  3  4  1  0
  3 10  2  3
  4  5  2  3
  5  6  1  0
  6  7  2  0
  6  8  1  0
  8  9  1  0
 10 11  1  0
 11 12  1  0
 11 13  2  0
M  CHG  1  12   1
M  END
