
     RDKit          3D

 11 11  0  0  0  0  0  0  0  0999 V2000
    3.4670    0.3810   -0.4850 N   0  0  0  0  0  0  0  0  0  0  0  0
    2.2560    0.1010    0.1860 C   0  0  0  0  0  0  0  0  0  0  0  0
    1.0610    0.1610   -0.4260 N   0  0  0  0  0  0  0  0  0  0  0  0
    0.1460   -0.1610    0.4960 C   0  0  0  0  0  0  0  0  0  0  0  0
   -1.3190   -0.2220    0.2560 C   0  0  1  0  0  0  0  0  0  0  0  0
   -1.8050    1.1490   -0.2090 C   0  0  0  0  0  0  0  0  0  0  0  0
   -1.4970    2.0430    0.8190 O   0  0  0  0  0  0  0  0  0  0  0  0
   -1.5650   -1.2720   -0.8100 C   0  0  0  0  0  0  0  0  0  0  0  0
   -2.9270   -1.3860   -1.0890 O   0  0  0  0  0  0  0  0  0  0  0  0
    0.7730   -0.4230    1.6880 C   0  0  0  0  0  0  0  0  0  0  0  0
    2.0900   -0.2540    1.4730 N   0  0  0  0  0  0  0  0  0  0  0  0
  1  2  1  0
  2  3  1  0
  2 11  2  0
  3  4  1  0
  4  5  1  0
  4 10  2  0
  5  6  1  6
  5  8  1  0
  6  7  1  0
  8  9  1  0
 10 11  1  0
M  CHG  1  11   1
M  END
