
     RDKit          3D

 12 12  0  0  0  0  0  0  0  0999 V2000
    4.4970    0.9610   -0.6220 N   0  0  0  0  0  0  0  0  0  0  0  0
    3.6220   -0.0560   -0.1610 C   0  0  0  0  0  0  0  0  0  0  0  0
    4.1220   -1.1330    0.2480 O   0  0  0  0  0  0  0  0  0  0  0  0
    2.1920    0.1280   -0.1570 N   0  0  0  0  0  0  0  0  0  0  0  0
    1.3470   -0.8980    0.3070 C   0  0  0  0  0  0  0  0  0  0  0  0
    0.0440   -0.8010    0.3400 C   0  0  0  0  0  0  0  0  0  0  0  0
   -0.7350   -1.9140    0.8340 N   0  0  0  0  0  0  0  0  0  0  0  0
   -0.7570    0.3650   -0.0890 C   0  0  1  0  0  0  0  0  0  0  0  0
   -1.6660   -0.1360   -1.2150 C   0  0  0  0  0  0  0  0  0  0  0  0
   -2.8680    0.7840   -0.9540 C   0  0  0  0  0  0  0  0  0  0  0  0
   -2.8590    0.7880    0.4910 N   0  0  0  0  0  0  0  0  0  0  0  0
   -1.6070    0.8080    0.9150 O   0  0  0  0  0  0  0  0  0  0  0  0
  1  2  1  0
  2  3  2  0
  2  4  1  0
  4  5  1  0
  5  6  2  3
  6  7  1  0
  8  6  1  1
  8  9  1  0
  8 12  1  0
  9 10  1  0
 10 11  1  0
 11 12  1  0
M  CHG  1  11   1
M  END
