
     RDKit          3D

 12 12  0  0  0  0  0  0  0  0999 V2000
    3.8500    1.0540   -0.4120 N   0  0  0  0  0  0  0  0  0  0  0  0
    2.7880    0.1290   -0.1350 C   0  0  0  0  0  0  0  0  0  0  0  0
    2.9400   -1.0760    0.4370 N   0  0  0  0  0  0  0  0  0  0  0  0
    1.7350   -1.6540    0.5360 C   0  0  0  0  0  0  0  0  0  0  0  0
    0.8330   -0.7500   -0.0020 C   0  0  0  0  0  0  0  0  0  0  0  0
   -0.6100   -1.0370   -0.0740 C   0  0  0  0  0  0  0  0  0  0  0  0
   -1.4220    0.0750   -0.6640 C   0  0  2  0  0  0  0  0  0  0  0  0
   -1.3410    1.3070    0.0610 N   0  0  0  0  0  0  0  0  0  0  0  0
   -2.8340   -0.3910   -0.7640 C   0  0  0  0  0  0  0  0  0  0  0  0
   -3.0530   -1.4510   -1.3700 O   0  0  0  0  0  0  0  0  0  0  0  0
   -3.9010    0.3040   -0.2150 O   0  0  0  0  0  0  0  0  0  0  0  0
    1.4880    0.3470   -0.4130 N   0  0  0  0  0  0  0  0  0  0  0  0
  1  2  1  0
  2  3  2  0
  2 12  1  0
  3  4  1  0
  4  5  2  0
  5  6  1  0
  5 12  1  0
  6  7  1  0
  7  8  1  1
  7  9  1  0
  9 10  2  0
  9 11  1  0
M  CHG  1   8   1
M  END
