
     RDKit          3D

 12 12  0  0  0  0  0  0  0  0999 V2000
    4.2620    0.8710   -0.0470 N   0  0  0  0  0  0  0  0  0  0  0  0
    2.8760    0.6740   -0.3440 C   0  0  0  0  0  0  0  0  0  0  0  0
    2.2400    1.5210   -1.0130 O   0  0  0  0  0  0  0  0  0  0  0  0
    2.1980   -0.4790    0.1100 N   0  0  0  0  0  0  0  0  0  0  0  0
    0.8080   -0.7620   -0.1370 C   0  0  0  0  0  0  0  0  0  0  0  0
   -0.0870    0.2840    0.4420 C   0  0  2  0  0  0  0  0  0  0  0  0
    0.0910    0.3730    1.8410 O   0  0  0  0  0  0  0  0  0  0  0  0
   -1.5190    0.0400    0.1260 C   0  0  0  0  0  0  0  0  0  0  0  0
   -2.5660    0.6950    0.6980 C   0  0  0  0  0  0  0  0  0  0  0  0
   -3.7340    0.2180    0.1730 N   0  0  0  0  0  0  0  0  0  0  0  0
   -3.3890   -0.7200   -0.7100 C   0  0  0  0  0  0  0  0  0  0  0  0
   -2.0500   -0.8300   -0.7410 N   0  0  0  0  0  0  0  0  0  0  0  0
  1  2  1  0
  2  3  2  0
  2  4  1  0
  4  5  1  0
  5  6  1  0
  6  7  1  1
  6  8  1  0
  8  9  2  0
  8 12  1  0
  9 10  1  0
 10 11  1  0
 11 12  2  0
M  CHG  1  12   1
M  END
