
     RDKit          3D

 12 12  0  0  0  0  0  0  0  0999 V2000
    0.1200    3.0240   -0.5150 N   0  0  0  0  0  0  0  0  0  0  0  0
    0.1810    1.6510   -0.1480 C   0  0  0  0  0  0  0  0  0  0  0  0
   -0.9190    0.9700   -0.2390 N   0  0  0  0  0  0  0  0  0  0  0  0
   -1.1840   -0.3990    0.0480 C   0  0  0  0  0  0  0  0  0  0  0  0
   -2.5820   -0.8710   -0.0250 C   0  0  0  0  0  0  0  0  0  0  0  0
   -3.4150   -0.1930    0.8620 O   0  0  0  0  0  0  0  0  0  0  0  0
   -0.3120   -1.3260    0.3810 C   0  0  0  0  0  0  0  0  0  0  0  0
    1.1530   -1.2530    0.5560 C   0  0  0  0  0  0  0  0  0  0  0  0
    1.8040   -2.4950    0.7970 N   0  0  0  0  0  0  0  0  0  0  0  0
    1.9000   -0.1720    0.5120 C   0  0  0  0  0  0  0  0  0  0  0  0
    3.2470   -0.4040    0.7110 O   0  0  0  0  0  0  0  0  0  0  0  0
    1.4580    1.1680    0.2840 N   0  0  0  0  0  0  0  0  0  0  0  0
  1  2  1  0
  2  3  2  0
  2 12  1  0
  3  4  1  0
  4  5  1  0
  4  7  2  0
  5  6  1  0
  7  8  1  0
  8  9  1  0
  8 10  2  0
 10 11  1  0
 10 12  1  0
M  CHG  1   3   1
M  END
