
     RDKit          3D

 11 11  0  0  0  0  0  0  0  0999 V2000
    4.5200    0.2350    0.8190 N   0  0  0  0  0  0  0  0  0  0  0  0
    3.6640    0.1090   -0.3440 C   0  0  0  0  0  0  0  0  0  0  0  0
    2.2670   -0.1670    0.1400 C   0  0  0  0  0  0  0  0  0  0  0  0
    1.8790   -0.2750    1.3810 N   0  0  0  0  0  0  0  0  0  0  0  0
    0.5300   -0.5300    1.4320 O   0  0  0  0  0  0  0  0  0  0  0  0
    0.0050   -0.1330    0.2050 C   0  0  2  0  0  0  0  0  0  0  0  0
   -1.1860   -0.9260   -0.2420 C   0  0  0  0  0  0  0  0  0  0  0  0
   -2.3400   -0.8410    0.7250 C   0  0  0  0  0  0  0  0  0  0  0  0
   -2.7690    0.6170    0.8640 C   0  0  0  0  0  0  0  0  0  0  0  0
   -3.1790    1.1250   -0.4330 N   0  0  0  0  0  0  0  0  0  0  0  0
    1.1250   -0.3560   -0.6890 N   0  0  0  0  0  0  0  0  0  0  0  0
  1  2  1  0
  2  3  1  0
  3  4  2  0
  3 11  1  0
  4  5  1  0
  5  6  1  0
  6  7  1  6
  6 11  1  0
  7  8  1  0
  8  9  1  0
  9 10  1  0
M  CHG  1  10   1
M  END
