
     RDKit          3D

 11 11  0  0  0  0  0  0  0  0999 V2000
   -3.3190    0.5950    0.1200 N   0  0  0  0  0  0  0  0  0  0  0  0
   -2.3170   -0.4500    0.1770 C   0  0  0  0  0  0  0  0  0  0  0  0
   -1.0840   -0.0640   -0.6300 C   0  0  1  0  0  0  0  0  0  0  0  0
   -0.5700    1.1440   -0.0530 N   0  0  0  0  0  0  0  0  0  0  0  0
    0.6190    1.2530    0.3650 C   0  0  0  0  0  0  0  0  0  0  0  0
    1.5870    0.1700    0.3050 C   0  0  0  0  0  0  0  0  0  0  0  0
    2.9810    0.3370    0.8090 C   0  0  0  0  0  0  0  0  0  0  0  0
    3.5940    1.3560    0.1000 O   0  0  0  0  0  0  0  0  0  0  0  0
    1.1970   -0.9800   -0.2120 C   0  0  0  0  0  0  0  0  0  0  0  0
    2.0820   -2.0450   -0.2920 O   0  0  0  0  0  0  0  0  0  0  0  0
   -0.1390   -1.1310   -0.6910 N   0  0  0  0  0  0  0  0  0  0  0  0
  1  2  1  0
  3  2  1  1
  3  4  1  0
  3 11  1  0
  4  5  2  0
  5  6  1  0
  6  7  1  0
  6  9  2  0
  7  8  1  0
  9 10  1  0
  9 11  1  0
M  CHG  1   1   1
M  END
