
     RDKit          3D

 25 28  0  0  0  0  0  0  0  0999 V2000
   -5.2970    1.8050    1.0520 C   0  0  0  0  0  0  0  0  0  0  0  0
   -4.9340    1.4600   -0.3760 C   0  0  0  0  0  0  0  0  0  0  0  0
   -4.6490    0.0650   -0.5220 N   0  0  0  0  0  0  0  0  0  0  0  0
   -5.5980   -0.8850   -0.8410 C   0  0  0  0  0  0  0  0  0  0  0  0
   -4.9620   -2.0860   -0.9140 C   0  0  0  0  0  0  0  0  0  0  0  0
   -3.6890   -1.8790   -0.6520 N   0  0  0  0  0  0  0  0  0  0  0  0
   -3.4730   -0.5410   -0.4030 C   0  0  0  0  0  0  0  0  0  0  0  0
   -2.1200   -0.0520   -0.1110 C   0  0  0  0  0  0  0  0  0  0  0  0
   -1.8550    1.1990    0.3240 C   0  0  0  0  0  0  0  0  0  0  0  0
   -0.5120    1.5700    0.5280 C   0  0  0  0  0  0  0  0  0  0  0  0
    0.5340    0.7000    0.3020 C   0  0  0  0  0  0  0  0  0  0  0  0
    0.2760   -0.5730   -0.1400 C   0  0  0  0  0  0  0  0  0  0  0  0
   -1.0410   -0.9260   -0.3380 C   0  0  0  0  0  0  0  0  0  0  0  0
    1.3340   -1.5330   -0.4190 C   0  0  0  0  0  0  0  0  0  0  0  0
    1.0500   -2.8180   -0.8630 C   0  0  0  0  0  0  0  0  0  0  0  0
    2.0650   -3.7120   -1.1200 C   0  0  0  0  0  0  0  0  0  0  0  0
    3.3600   -3.2670   -0.9150 C   0  0  0  0  0  0  0  0  0  0  0  0
    3.5790   -2.0260   -0.4880 N   0  0  0  0  0  0  0  0  0  0  0  0
    2.6390   -1.1310   -0.2280 C   0  0  0  0  0  0  0  0  0  0  0  0
    2.9660    0.2490    0.2530 C   0  0  0  0  0  0  0  0  0  0  0  0
    4.2460    0.5080    0.3590 C   0  0  0  0  0  0  0  0  0  0  0  0
    4.8070    1.8000    0.8070 C   0  0  0  0  0  0  0  0  0  0  0  0
    5.2800   -0.5530    0.0240 C   0  0  0  0  0  0  0  0  0  0  0  0
    1.9080    1.1390    0.5130 N   0  0  0  0  0  0  0  0  0  0  0  0
    2.0950    2.4530    1.0600 C   0  0  0  0  0  0  0  0  0  0  0  0
  1  2  1  0
  2  3  1  0
  3  4  1  0
  3  7  1  0
  4  5  2  0
  5  6  1  0
  6  7  2  0
  7  8  1  0
  8  9  2  0
  8 13  1  0
  9 10  1  0
 10 11  2  0
 11 12  1  0
 11 24  1  0
 12 13  2  0
 12 14  1  0
 14 15  2  0
 14 19  1  0
 15 16  1  0
 16 17  2  0
 17 18  1  0
 18 19  2  0
 19 20  1  0
 20 21  2  3
 20 24  1  0
 21 22  1  0
 21 23  1  0
 24 25  1  0
M  END
