
     RDKit          3D

 25 28  0  0  0  0  0  0  0  0999 V2000
    2.2990    2.1410   -1.1240 C   0  0  0  0  0  0  0  0  0  0  0  0
    3.2220    1.0920   -0.6710 C   0  0  0  0  0  0  0  0  0  0  0  0
    4.4020    1.1400   -1.2720 C   0  0  0  0  0  0  0  0  0  0  0  0
    5.6320    0.3290   -1.1660 C   0  0  0  0  0  0  0  0  0  0  0  0
    5.9740   -0.8500   -0.6640 C   0  0  0  0  0  0  0  0  0  0  0  0
    5.2340   -1.8950    0.0330 C   0  0  0  0  0  0  0  0  0  0  0  0
    4.0560   -1.9290    0.6280 C   0  0  0  0  0  0  0  0  0  0  0  0
    2.9950   -0.9730    0.8520 C   0  0  0  0  0  0  0  0  0  0  0  0
    2.0950   -1.3080    1.7880 N   0  0  0  0  0  0  0  0  0  0  0  0
    1.2080   -0.3060    1.8430 C   0  0  0  0  0  0  0  0  0  0  0  0
    0.0460   -0.2560    2.7370 C   0  0  0  0  0  0  0  0  0  0  0  0
   -1.1730   -0.8530    2.1440 C   0  0  0  0  0  0  0  0  0  0  0  0
   -1.5030   -2.1920    2.2800 C   0  0  0  0  0  0  0  0  0  0  0  0
   -2.6540   -2.6710    1.6980 C   0  0  0  0  0  0  0  0  0  0  0  0
   -3.5180   -1.8520    0.9660 C   0  0  0  0  0  0  0  0  0  0  0  0
   -3.1920   -0.5290    0.8320 C   0  0  0  0  0  0  0  0  0  0  0  0
   -4.0080    0.4290    0.0940 C   0  0  0  0  0  0  0  0  0  0  0  0
   -5.1850    0.1000   -0.5400 C   0  0  0  0  0  0  0  0  0  0  0  0
   -5.9610    1.0200   -1.2440 C   0  0  0  0  0  0  0  0  0  0  0  0
   -5.5240    2.3280   -1.3070 C   0  0  0  0  0  0  0  0  0  0  0  0
   -4.3470    2.6480   -0.6700 C   0  0  0  0  0  0  0  0  0  0  0  0
   -3.6300    1.7310   -0.0030 N   0  0  0  0  0  0  0  0  0  0  0  0
   -2.0200   -0.0650    1.4300 C   0  0  0  0  0  0  0  0  0  0  0  0
    1.5960    0.6150    0.9360 N   0  0  0  0  0  0  0  0  0  0  0  0
    2.6870    0.2260    0.3190 N   0  0  0  0  0  0  0  0  0  0  0  0
  1  2  1  0
  2  3  2  0
  2 25  1  0
  3  4  1  0
  4  5  2  0
  5  6  1  0
  6  7  2  0
  7  8  1  0
  8  9  2  0
  8 25  1  0
  9 10  1  0
 10 11  1  0
 10 24  2  0
 11 12  1  0
 12 13  2  0
 12 23  1  0
 13 14  1  0
 14 15  2  0
 15 16  1  0
 16 17  1  0
 16 23  2  0
 17 18  2  0
 17 22  1  0
 18 19  1  0
 19 20  2  0
 20 21  1  0
 21 22  2  0
 24 25  1  0
M  END
