
     RDKit          3D

 25 28  0  0  0  0  0  0  0  0999 V2000
    4.0520   -2.2760    1.8940 C   0  0  0  0  0  0  0  0  0  0  0  0
    5.1290   -2.1980    0.8820 C   0  0  0  0  0  0  0  0  0  0  0  0
    5.0350   -1.5580   -0.2300 C   0  0  0  0  0  0  0  0  0  0  0  0
    3.9800   -0.7730   -0.8340 C   0  0  0  0  0  0  0  0  0  0  0  0
    4.1840   -0.2220   -2.0490 C   0  0  0  0  0  0  0  0  0  0  0  0
    3.1640    0.5880   -2.7340 C   0  0  0  0  0  0  0  0  0  0  0  0
    2.5620    1.5000   -1.6590 C   0  0  0  0  0  0  0  0  0  0  0  0
    1.9060    0.5620   -0.7900 N   0  0  0  0  0  0  0  0  0  0  0  0
    0.5200    0.7150   -0.5340 C   0  0  0  0  0  0  0  0  0  0  0  0
   -0.1720   -0.1000    0.2570 N   0  0  0  0  0  0  0  0  0  0  0  0
   -1.5160    0.0070    0.5370 C   0  0  0  0  0  0  0  0  0  0  0  0
   -2.0930   -1.0170    1.4260 C   0  0  0  0  0  0  0  0  0  0  0  0
   -3.1050   -1.0200    2.2190 C   0  0  0  0  0  0  0  0  0  0  0  0
   -3.2240   -2.3640    2.8700 C   0  0  0  0  0  0  0  0  0  0  0  0
   -2.1060   -3.1040    2.2980 C   0  0  0  0  0  0  0  0  0  0  0  0
   -1.4910   -2.3560    1.5070 N   0  0  0  0  0  0  0  0  0  0  0  0
   -2.1870    1.0290   -0.0510 C   0  0  0  0  0  0  0  0  0  0  0  0
   -3.5600    1.1960    0.1190 C   0  0  0  0  0  0  0  0  0  0  0  0
   -4.2070    2.2310   -0.5350 C   0  0  0  0  0  0  0  0  0  0  0  0
   -5.6690    2.3980   -0.3420 C   0  0  0  0  0  0  0  0  0  0  0  0
   -3.5430    3.1040   -1.3510 C   0  0  0  0  0  0  0  0  0  0  0  0
   -2.1920    2.9060   -1.4990 C   0  0  0  0  0  0  0  0  0  0  0  0
   -1.4920    1.9030   -0.8840 C   0  0  0  0  0  0  0  0  0  0  0  0
   -0.1900    1.7240   -1.0940 N   0  0  0  0  0  0  0  0  0  0  0  0
    2.6680   -0.5070   -0.2040 C   0  0  0  0  0  0  0  0  0  0  0  0
  1  2  1  0
  2  3  2  3
  3  4  1  0
  4  5  2  0
  4 25  1  0
  5  6  1  0
  6  7  1  0
  7  8  1  0
  8  9  1  0
  8 25  1  0
  9 10  2  0
  9 24  1  0
 10 11  1  0
 11 12  1  0
 11 17  2  0
 12 13  2  0
 12 16  1  0
 13 14  1  0
 14 15  1  0
 15 16  2  0
 17 18  1  0
 17 23  1  0
 18 19  2  0
 19 20  1  0
 19 21  1  0
 21 22  2  0
 22 23  1  0
 23 24  2  0
M  END
