
     RDKit          3D

 25 28  0  0  0  0  0  0  0  0999 V2000
   -5.3130   -1.8490   -1.4440 C   0  0  0  0  0  0  0  0  0  0  0  0
   -5.3870   -1.3330   -0.2210 C   0  0  0  0  0  0  0  0  0  0  0  0
   -4.2400   -0.7170    0.4170 C   0  0  0  0  0  0  0  0  0  0  0  0
   -4.3680   -0.2220    1.6290 C   0  0  0  0  0  0  0  0  0  0  0  0
   -5.6510   -0.2750    2.3600 C   0  0  0  0  0  0  0  0  0  0  0  0
   -3.0120   -0.6670   -0.2850 N   0  0  0  0  0  0  0  0  0  0  0  0
   -1.9920   -1.7200   -0.3370 C   0  0  0  0  0  0  0  0  0  0  0  0
   -0.7330   -0.9080   -0.3480 C   0  0  0  0  0  0  0  0  0  0  0  0
    0.5710   -1.1840   -0.0120 C   0  0  0  0  0  0  0  0  0  0  0  0
    1.5540   -0.2410   -0.1160 N   0  0  0  0  0  0  0  0  0  0  0  0
    1.2870    0.9950   -0.5490 C   0  0  0  0  0  0  0  0  0  0  0  0
    2.2760    2.0360   -0.6810 C   0  0  0  0  0  0  0  0  0  0  0  0
    2.1290    3.3030   -1.1010 N   0  0  0  0  0  0  0  0  0  0  0  0
    3.3010    3.9500   -1.0770 C   0  0  0  0  0  0  0  0  0  0  0  0
    4.2210    3.0360   -0.6180 C   0  0  0  0  0  0  0  0  0  0  0  0
    3.5760    1.8750   -0.3830 N   0  0  0  0  0  0  0  0  0  0  0  0
    4.2090    0.6970    0.1030 C   0  0  0  0  0  0  0  0  0  0  0  0
    5.0370   -0.0900   -0.6910 C   0  0  0  0  0  0  0  0  0  0  0  0
    5.6430   -1.2280   -0.2040 C   0  0  0  0  0  0  0  0  0  0  0  0
    5.4510   -1.6330    1.1000 C   0  0  0  0  0  0  0  0  0  0  0  0
    4.6330   -0.8570    1.8920 C   0  0  0  0  0  0  0  0  0  0  0  0
    4.0170    0.2920    1.4080 C   0  0  0  0  0  0  0  0  0  0  0  0
   -0.0200    1.2760   -0.8860 C   0  0  0  0  0  0  0  0  0  0  0  0
   -1.0400    0.3540   -0.7970 C   0  0  0  0  0  0  0  0  0  0  0  0
   -2.4950    0.4170   -1.0960 C   0  0  0  0  0  0  0  0  0  0  0  0
  1  2  2  0
  2  3  1  0
  3  4  2  3
  3  6  1  0
  4  5  1  0
  6  7  1  0
  6 25  1  0
  7  8  1  0
  8  9  2  0
  8 24  1  0
  9 10  1  0
 10 11  2  0
 11 12  1  0
 11 23  1  0
 12 13  2  0
 12 16  1  0
 13 14  1  0
 14 15  2  0
 15 16  1  0
 16 17  1  0
 17 18  2  0
 17 22  1  0
 18 19  1  0
 19 20  2  0
 20 21  1  0
 21 22  2  0
 23 24  2  0
 24 25  1  0
M  END
