
     RDKit          3D

 22 25  0  0  0  0  0  0  0  0999 V2000
    7.3500    0.9880   -0.4430 N   0  0  0  0  0  0  0  0  0  0  0  0
    6.6720   -0.0570    0.7690 S   0  0  1  0  0  0  0  0  0  0  0  0
    7.6000   -1.1960    0.9570 O   0  0  0  0  0  0  0  0  0  0  0  0
    6.5140    0.7100    2.0520 O   0  0  0  0  0  0  0  0  0  0  0  0
    5.1420   -0.7130    0.2460 C   0  0  0  0  0  0  0  0  0  0  0  0
    4.7660   -1.7250   -0.3780 N   0  0  0  0  0  0  0  0  0  0  0  0
    3.5220   -1.9530   -0.6230 N   0  0  0  0  0  0  0  0  0  0  0  0
    2.5980   -1.2890   -0.3200 C   0  0  0  0  0  0  0  0  0  0  0  0
    1.1670   -1.1820   -0.3880 N   0  0  0  0  0  0  0  0  0  0  0  0
    0.4320   -0.1140    0.1680 C   0  0  0  0  0  0  0  0  0  0  0  0
    1.0590    0.7990    0.7560 O   0  0  0  0  0  0  0  0  0  0  0  0
   -1.0210   -0.0320    0.0840 C   0  0  2  0  0  0  0  0  0  0  0  0
   -1.7450   -1.1850    0.7250 C   0  0  0  0  0  0  0  0  0  0  0  0
   -3.2280   -0.9690    0.5360 C   0  0  1  0  0  0  0  0  0  0  0  0
   -3.6970    0.3140    1.1970 C   0  0  0  0  0  0  0  0  0  0  0  0
   -2.9720    1.4720    0.5790 C   0  0  2  0  0  0  0  0  0  0  0  0
   -3.1920    1.5740   -0.9100 C   0  0  0  0  0  0  0  0  0  0  0  0
   -2.8610    0.2550   -1.5530 C   0  0  2  0  0  0  0  0  0  0  0  0
   -3.6290   -0.8920   -0.9110 C   0  0  0  0  0  0  0  0  0  0  0  0
   -1.4000   -0.0390   -1.3840 C   0  0  0  0  0  0  0  0  0  0  0  0
   -1.4790    1.2250    0.7780 C   0  0  0  0  0  0  0  0  0  0  0  0
    3.5170    0.1030    0.5740 S   0  0  0  0  0  0  0  0  0  0  0  0
  2  1  1  6
  2  3  2  0
  2  4  2  0
  2  5  1  0
  5  6  2  0
  5 22  1  0
  6  7  1  0
  7  8  2  0
  8  9  1  0
  8 22  1  0
  9 10  1  0
 10 11  2  0
 12 10  1  6
 12 13  1  0
 12 20  1  0
 12 21  1  0
 14 13  1  6
 14 15  1  0
 14 19  1  0
 15 16  1  0
 16 17  1  6
 16 21  1  0
 18 17  1  1
 18 19  1  0
 18 20  1  0
M  END
