
     RDKit          3D

 25 28  0  0  0  0  0  0  0  0999 V2000
   -5.5590   -1.7430    2.4510 C   0  0  0  0  0  0  0  0  0  0  0  0
   -5.8160   -1.2070    1.3360 C   0  0  0  0  0  0  0  0  0  0  0  0
   -4.9710   -0.5500    0.3850 C   0  0  0  0  0  0  0  0  0  0  0  0
   -5.5590   -0.1110   -0.7510 C   0  0  0  0  0  0  0  0  0  0  0  0
   -4.8260    0.5710   -1.7950 C   0  0  0  0  0  0  0  0  0  0  0  0
   -3.5410   -0.3500    0.4780 C   0  0  0  0  0  0  0  0  0  0  0  0
   -2.8120   -0.3730    1.6320 C   0  0  0  0  0  0  0  0  0  0  0  0
   -1.4080   -0.2600    1.6070 C   0  0  0  0  0  0  0  0  0  0  0  0
   -0.7270   -0.1220    0.4280 C   0  0  0  0  0  0  0  0  0  0  0  0
    0.6000   -0.0110    0.3360 N   0  0  0  0  0  0  0  0  0  0  0  0
    1.2700    0.1250   -0.8110 C   0  0  0  0  0  0  0  0  0  0  0  0
    2.6890    0.2500   -0.9110 N   0  0  0  0  0  0  0  0  0  0  0  0
    3.3650    0.0670   -2.1680 C   0  0  0  0  0  0  0  0  0  0  0  0
    4.7990   -0.3270   -2.1070 C   0  0  0  0  0  0  0  0  0  0  0  0
    5.2150   -0.6960   -0.7900 N   0  0  0  0  0  0  0  0  0  0  0  0
    4.7490    0.0750    0.3040 C   0  0  0  0  0  0  0  0  0  0  0  0
    5.5020    0.3700    1.4290 C   0  0  0  0  0  0  0  0  0  0  0  0
    4.9770    1.1250    2.4530 C   0  0  0  0  0  0  0  0  0  0  0  0
    3.6940    1.6070    2.3890 C   0  0  0  0  0  0  0  0  0  0  0  0
    2.9140    1.3280    1.2750 C   0  0  0  0  0  0  0  0  0  0  0  0
    3.4520    0.5720    0.2610 C   0  0  0  0  0  0  0  0  0  0  0  0
    0.5530    0.1520   -1.9860 C   0  0  0  0  0  0  0  0  0  0  0  0
   -0.8120    0.0410   -1.9400 C   0  0  0  0  0  0  0  0  0  0  0  0
   -1.4750   -0.0990   -0.7310 C   0  0  0  0  0  0  0  0  0  0  0  0
   -2.7990   -0.2090   -0.6630 N   0  0  0  0  0  0  0  0  0  0  0  0
  1  2  2  0
  2  3  1  0
  3  4  2  3
  3  6  1  0
  4  5  1  0
  6  7  2  0
  6 25  1  0
  7  8  1  0
  8  9  2  0
  9 10  1  0
  9 24  1  0
 10 11  2  0
 11 12  1  0
 11 22  1  0
 12 13  1  0
 12 21  1  0
 13 14  1  0
 14 15  1  0
 15 16  1  0
 16 17  2  0
 16 21  1  0
 17 18  1  0
 18 19  2  0
 19 20  1  0
 20 21  2  0
 22 23  2  0
 23 24  1  0
 24 25  2  0
M  END
