
     RDKit          3D

 25 29  0  0  0  0  0  0  0  0999 V2000
   -1.4790   -0.7560   -0.0410 C   0  0  0  0  0  0  0  0  0  0  0  0
   -2.6470   -0.5910   -0.5770 C   0  0  0  0  0  0  0  0  0  0  0  0
   -3.3430   -1.7180   -1.3010 C   0  0  0  0  0  0  0  0  0  0  0  0
   -4.5600   -2.0960   -0.4940 C   0  0  0  0  0  0  0  0  0  0  0  0
   -5.4080   -0.9130   -0.2650 C   0  0  0  0  0  0  0  0  0  0  0  0
   -6.7210   -0.8440   -0.0100 C   0  0  0  0  0  0  0  0  0  0  0  0
   -7.1020    0.5660    0.1420 C   0  0  0  0  0  0  0  0  0  0  0  0
   -5.8110    1.2880   -0.0660 C   0  0  0  0  0  0  0  0  0  0  0  0
   -4.8460    0.4200   -0.2990 C   0  0  0  0  0  0  0  0  0  0  0  0
   -3.4000    0.6770   -0.5620 C   0  0  0  0  0  0  0  0  0  0  0  0
   -0.7240    0.2470    0.6730 C   0  0  0  0  0  0  0  0  0  0  0  0
   -1.2230    1.1080    1.5750 N   0  0  0  0  0  0  0  0  0  0  0  0
   -0.4270    1.9950    2.1870 C   0  0  0  0  0  0  0  0  0  0  0  0
    0.9150    2.0360    1.8990 C   0  0  0  0  0  0  0  0  0  0  0  0
    1.4720    1.1870    0.9950 N   0  0  0  0  0  0  0  0  0  0  0  0
    2.7080    1.0270    0.5520 N   0  0  0  0  0  0  0  0  0  0  0  0
    2.7030    0.0160   -0.3640 C   0  0  0  0  0  0  0  0  0  0  0  0
    3.8530   -0.5420   -1.1200 C   0  0  2  0  0  0  0  0  0  0  0  0
    4.5960   -1.5600   -0.2800 C   0  0  0  0  0  0  0  0  0  0  0  0
    5.8920   -1.0830    0.2740 C   0  0  0  0  0  0  0  0  0  0  0  0
    5.8960    0.3890    0.6110 C   0  0  0  0  0  0  0  0  0  0  0  0
    5.4890    1.2590   -0.5330 C   0  0  0  0  0  0  0  0  0  0  0  0
    4.7570    0.5260   -1.6360 C   0  0  0  0  0  0  0  0  0  0  0  0
    1.4300   -0.4020   -0.4380 N   0  0  0  0  0  0  0  0  0  0  0  0
    0.6530    0.3160    0.4020 C   0  0  0  0  0  0  0  0  0  0  0  0
  1  2  2  3
  1 11  1  0
  2  3  1  0
  2 10  1  0
  3  4  1  0
  4  5  1  0
  5  6  2  0
  5  9  1  0
  6  7  1  0
  7  8  1  0
  8  9  2  0
  9 10  1  0
 11 12  2  0
 11 25  1  0
 12 13  1  0
 13 14  2  0
 14 15  1  0
 15 16  1  0
 15 25  1  0
 16 17  2  0
 18 17  1  1
 17 24  1  0
 18 19  1  0
 18 23  1  0
 19 20  1  0
 20 21  1  0
 21 22  1  0
 22 23  1  0
 24 25  2  0
M  END
