
     RDKit          3D

 25 28  0  0  0  0  0  0  0  0999 V2000
    6.3450    0.4780   -0.0140 C   0  0  0  0  0  0  0  0  0  0  0  0
    5.7900   -0.8570   -0.1840 C   0  0  0  0  0  0  0  0  0  0  0  0
    4.5440   -1.2210   -0.1930 C   0  0  0  0  0  0  0  0  0  0  0  0
    3.3240   -0.4560   -0.0430 C   0  0  0  0  0  0  0  0  0  0  0  0
    2.1560   -1.1280   -0.1050 C   0  0  0  0  0  0  0  0  0  0  0  0
    2.2150   -2.6180   -0.3170 C   0  0  0  0  0  0  0  0  0  0  0  0
    0.8990   -0.4240   -0.0300 C   0  0  0  0  0  0  0  0  0  0  0  0
   -0.3020   -1.1040   -0.0460 C   0  0  0  0  0  0  0  0  0  0  0  0
   -1.5010   -0.3800    0.0690 C   0  0  0  0  0  0  0  0  0  0  0  0
   -1.5560    0.9730    0.1980 C   0  0  0  0  0  0  0  0  0  0  0  0
   -2.7770    1.7460    0.3200 C   0  0  0  0  0  0  0  0  0  0  0  0
   -2.7640    3.1230    0.4470 N   0  0  0  0  0  0  0  0  0  0  0  0
   -3.9960    3.6010    0.5430 C   0  0  0  0  0  0  0  0  0  0  0  0
   -4.7960    2.5280    0.4760 N   0  0  0  0  0  0  0  0  0  0  0  0
   -4.0450    1.4060    0.3410 N   0  0  0  0  0  0  0  0  0  0  0  0
   -4.5960    0.0970    0.2420 C   0  0  0  0  0  0  0  0  0  0  0  0
   -4.8470   -0.6930    1.3620 C   0  0  0  0  0  0  0  0  0  0  0  0
   -5.4060   -1.9280    1.1900 C   0  0  0  0  0  0  0  0  0  0  0  0
   -5.7290   -2.4250   -0.0150 N   0  0  0  0  0  0  0  0  0  0  0  0
   -5.5030   -1.6970   -1.1040 C   0  0  0  0  0  0  0  0  0  0  0  0
   -4.9400   -0.4430   -0.9800 C   0  0  0  0  0  0  0  0  0  0  0  0
   -0.3040    1.6110    0.2080 C   0  0  0  0  0  0  0  0  0  0  0  0
    0.8830    0.9380    0.0970 C   0  0  0  0  0  0  0  0  0  0  0  0
    2.1150    1.7550    0.0830 C   0  0  0  0  0  0  0  0  0  0  0  0
    3.3730    0.9760    0.2240 C   0  0  0  0  0  0  0  0  0  0  0  0
  1  2  1  0
  2  3  2  3
  3  4  1  0
  4  5  2  0
  4 25  1  0
  5  6  1  0
  5  7  1  0
  7  8  2  0
  7 23  1  0
  8  9  1  0
  9 10  2  0
 10 11  1  0
 10 22  1  0
 11 12  2  0
 11 15  1  0
 12 13  1  0
 13 14  2  0
 14 15  1  0
 15 16  1  0
 16 17  2  0
 16 21  1  0
 17 18  1  0
 18 19  2  0
 19 20  1  0
 20 21  2  0
 22 23  2  0
 23 24  1  0
 24 25  1  0
M  END
