
     RDKit          3D

 25 28  0  0  0  0  0  0  0  0999 V2000
    4.0710   -2.2920   -0.2810 C   0  0  0  0  0  0  0  0  0  0  0  0
    3.3770   -1.1950    0.0440 C   0  0  0  0  0  0  0  0  0  0  0  0
    1.9450   -1.2370   -0.0720 C   0  0  0  0  0  0  0  0  0  0  0  0
    1.0990   -0.2820    0.2150 C   0  0  0  0  0  0  0  0  0  0  0  0
   -0.3100   -0.3980    0.0720 N   0  0  0  0  0  0  0  0  0  0  0  0
   -1.2300    0.5680    0.3570 C   0  0  0  0  0  0  0  0  0  0  0  0
   -2.5020    0.1390    0.1090 C   0  0  0  0  0  0  0  0  0  0  0  0
   -3.7120    0.9230    0.3080 C   0  0  0  0  0  0  0  0  0  0  0  0
   -3.6180    2.2090    0.7830 C   0  0  0  0  0  0  0  0  0  0  0  0
   -4.7980    2.9300    0.9610 C   0  0  0  0  0  0  0  0  0  0  0  0
   -6.0340    2.3890    0.6750 C   0  0  0  0  0  0  0  0  0  0  0  0
   -6.0610    1.0930    0.2000 C   0  0  0  0  0  0  0  0  0  0  0  0
   -4.9070    0.3940    0.0290 N   0  0  0  0  0  0  0  0  0  0  0  0
   -2.3790   -1.1520   -0.3530 C   0  0  0  0  0  0  0  0  0  0  0  0
   -3.3290   -2.0730   -0.7570 C   0  0  0  0  0  0  0  0  0  0  0  0
   -2.9500   -3.3280   -1.1880 C   0  0  0  0  0  0  0  0  0  0  0  0
   -1.6020   -3.6080   -1.1920 C   0  0  0  0  0  0  0  0  0  0  0  0
   -0.7190   -2.6860   -0.7920 N   0  0  0  0  0  0  0  0  0  0  0  0
   -1.0300   -1.4510   -0.3640 C   0  0  0  0  0  0  0  0  0  0  0  0
    4.1840   -0.0710    0.5000 C   0  0  0  0  0  0  0  0  0  0  0  0
    5.1560   -0.1190    1.5190 C   0  0  0  0  0  0  0  0  0  0  0  0
    5.7430    1.1060    1.6500 C   0  0  0  0  0  0  0  0  0  0  0  0
    5.1520    1.9220    0.7250 C   0  0  0  0  0  0  0  0  0  0  0  0
    4.2210    1.1850    0.0510 N   0  0  0  0  0  0  0  0  0  0  0  0
    3.4200    1.7410   -1.0360 C   0  0  0  0  0  0  0  0  0  0  0  0
  1  2  2  0
  2  3  1  0
  2 20  1  0
  3  4  2  3
  4  5  1  0
  5  6  1  0
  5 19  1  0
  6  7  2  0
  7  8  1  0
  7 14  1  0
  8  9  2  0
  8 13  1  0
  9 10  1  0
 10 11  2  0
 11 12  1  0
 12 13  2  0
 14 15  2  0
 14 19  1  0
 15 16  1  0
 16 17  2  0
 17 18  1  0
 18 19  2  0
 20 21  2  0
 20 24  1  0
 21 22  1  0
 22 23  2  0
 23 24  1  0
 24 25  1  0
M  END
