
     RDKit          3D

 25 28  0  0  0  0  0  0  0  0999 V2000
   -4.5370    3.7950    0.4610 C   0  0  0  0  0  0  0  0  0  0  0  0
   -4.3510    2.3300    0.2840 C   0  0  0  0  0  0  0  0  0  0  0  0
   -3.1620    1.7960    0.0310 C   0  0  0  0  0  0  0  0  0  0  0  0
   -1.9340    2.6070   -0.0930 C   0  0  0  0  0  0  0  0  0  0  0  0
   -0.8010    1.7910    0.5490 C   0  0  0  0  0  0  0  0  0  0  0  0
   -0.7010    0.5440   -0.2240 N   0  0  0  0  0  0  0  0  0  0  0  0
    0.5220    0.2400   -0.8760 C   0  0  0  0  0  0  0  0  0  0  0  0
    1.6340   -0.0190    0.0680 C   0  0  0  0  0  0  0  0  0  0  0  0
    1.3260   -0.2540    1.3890 C   0  0  0  0  0  0  0  0  0  0  0  0
    2.3420   -0.5000    2.3220 C   0  0  0  0  0  0  0  0  0  0  0  0
    3.6070   -0.4950    1.8720 N   0  0  0  0  0  0  0  0  0  0  0  0
    3.9250   -0.2680    0.5880 C   0  0  0  0  0  0  0  0  0  0  0  0
    5.3460   -0.2780    0.1640 C   0  0  2  0  0  0  0  0  0  0  0  0
    5.6830    1.0780   -0.4250 C   0  0  0  0  0  0  0  0  0  0  0  0
    5.5980   -1.3700   -0.8620 C   0  0  0  0  0  0  0  0  0  0  0  0
    2.9300   -0.0360   -0.2840 N   0  0  0  0  0  0  0  0  0  0  0  0
   -1.8650   -0.2560   -0.2500 C   0  0  0  0  0  0  0  0  0  0  0  0
   -3.0880    0.3480   -0.1260 C   0  0  0  0  0  0  0  0  0  0  0  0
   -4.0110   -0.6830   -0.1920 C   0  0  0  0  0  0  0  0  0  0  0  0
   -3.3520   -1.8700   -0.3510 N   0  0  0  0  0  0  0  0  0  0  0  0
   -3.7950   -3.1310   -0.4650 C   0  0  0  0  0  0  0  0  0  0  0  0
   -2.8870   -4.1560   -0.6170 C   0  0  0  0  0  0  0  0  0  0  0  0
   -1.5430   -3.9240   -0.6560 C   0  0  0  0  0  0  0  0  0  0  0  0
   -1.0860   -2.6090   -0.5380 C   0  0  0  0  0  0  0  0  0  0  0  0
   -2.0200   -1.6070   -0.3870 C   0  0  0  0  0  0  0  0  0  0  0  0
  1  2  1  0
  2  3  2  3
  3  4  1  0
  3 18  1  0
  4  5  1  0
  5  6  1  0
  6  7  1  0
  6 17  1  0
  7  8  1  0
  8  9  2  0
  8 16  1  0
  9 10  1  0
 10 11  2  0
 11 12  1  0
 12 13  1  0
 12 16  2  0
 13 14  1  6
 13 15  1  0
 17 18  1  0
 17 25  2  0
 18 19  2  0
 19 20  1  0
 20 21  1  0
 20 25  1  0
 21 22  2  0
 22 23  1  0
 23 24  2  0
 24 25  1  0
M  END
