
     RDKit          3D

 25 28  0  0  0  0  0  0  0  0999 V2000
   -5.2710    2.1170   -0.7270 C   0  0  0  0  0  0  0  0  0  0  0  0
   -5.4410    0.7010   -0.2940 C   0  0  0  0  0  0  0  0  0  0  0  0
   -6.6160    0.2210    0.0060 C   0  0  0  0  0  0  0  0  0  0  0  0
   -6.8940   -1.1490    0.4410 C   0  0  0  0  0  0  0  0  0  0  0  0
   -5.7010   -1.9370    0.8650 C   0  0  0  0  0  0  0  0  0  0  0  0
   -4.4670   -1.5320    0.2230 N   0  0  0  0  0  0  0  0  0  0  0  0
   -3.2340   -2.2190   -0.1390 C   0  0  0  0  0  0  0  0  0  0  0  0
   -2.2590   -1.1160   -0.2010 C   0  0  0  0  0  0  0  0  0  0  0  0
   -0.9540   -1.1240   -0.0790 C   0  0  0  0  0  0  0  0  0  0  0  0
   -0.1430    0.0850   -0.1700 C   0  0  0  0  0  0  0  0  0  0  0  0
    1.1700    0.0640   -0.0450 C   0  0  0  0  0  0  0  0  0  0  0  0
    1.9420    1.2190   -0.1330 N   0  0  0  0  0  0  0  0  0  0  0  0
    1.3850    2.4250   -0.4620 C   0  0  0  0  0  0  0  0  0  0  0  0
    2.4210    3.3270   -0.4970 C   0  0  0  0  0  0  0  0  0  0  0  0
    3.5270    2.6570   -0.1970 N   0  0  0  0  0  0  0  0  0  0  0  0
    3.2500    1.3240    0.0390 C   0  0  0  0  0  0  0  0  0  0  0  0
    4.3050    0.3980    0.3580 C   0  0  0  0  0  0  0  0  0  0  0  0
    4.1770   -0.8200    0.9330 C   0  0  0  0  0  0  0  0  0  0  0  0
    5.2760   -1.6710    1.1370 C   0  0  0  0  0  0  0  0  0  0  0  0
    6.5430   -1.2910    0.7560 C   0  0  0  0  0  0  0  0  0  0  0  0
    6.7060   -0.0710    0.1770 C   0  0  0  0  0  0  0  0  0  0  0  0
    8.0690    0.3620   -0.2430 C   0  0  0  0  0  0  0  0  0  0  0  0
    5.6310    0.7330   -0.0110 C   0  0  0  0  0  0  0  0  0  0  0  0
   -3.0460    0.0680   -0.4370 N   0  0  0  0  0  0  0  0  0  0  0  0
   -4.2950   -0.1900   -0.1910 C   0  0  0  0  0  0  0  0  0  0  0  0
  1  2  1  0
  2  3  2  0
  2 25  1  0
  3  4  1  0
  4  5  1  0
  5  6  1  0
  6  7  1  0
  6 25  1  0
  7  8  1  0
  8  9  2  3
  8 24  1  0
  9 10  1  0
 10 11  2  3
 11 12  1  0
 12 13  1  0
 12 16  1  0
 13 14  2  0
 14 15  1  0
 15 16  2  0
 16 17  1  0
 17 18  2  0
 17 23  1  0
 18 19  1  0
 19 20  2  0
 20 21  1  0
 21 22  1  0
 21 23  2  0
 24 25  2  0
M  END
