
     RDKit          3D

 18 19  0  0  0  0  0  0  0  0999 V2000
   -4.7340    1.2890   -0.7980 C   0  0  0  0  0  0  0  0  0  0  0  0
   -4.4020    0.3840    0.1280 C   0  0  0  0  0  0  0  0  0  0  0  0
   -5.2340   -0.6100    0.7030 N   0  0  0  0  0  0  0  0  0  0  0  0
   -4.4660   -1.3570    1.6500 C   0  0  0  0  0  0  0  0  0  0  0  0
   -3.1220   -0.7750    1.6300 C   0  0  0  0  0  0  0  0  0  0  0  0
   -3.1100    0.2110    0.7590 C   0  0  0  0  0  0  0  0  0  0  0  0
   -2.0170    1.0210    0.4440 O   0  0  0  0  0  0  0  0  0  0  0  0
   -0.8020    0.4520   -0.0270 C   0  0  1  0  0  0  0  0  0  0  0  0
   -1.0030   -0.3120   -1.2980 C   0  0  0  0  0  0  0  0  0  0  0  0
    0.1070   -0.0110   -2.2520 C   0  0  0  0  0  0  0  0  0  0  0  0
    1.4350    0.0600   -1.5170 C   0  0  0  0  0  0  0  0  0  0  0  0
    1.4580    1.1090   -0.5460 N   0  0  0  0  0  0  0  0  0  0  0  0
    2.0590    0.6870    0.6970 C   0  0  0  0  0  0  0  0  0  0  0  0
    3.5120    0.4370    0.5680 C   0  0  0  0  0  0  0  0  0  0  0  0
    4.3620    1.4920    0.1600 N   0  0  0  0  0  0  0  0  0  0  0  0
    4.0050   -0.7520    0.8300 C   0  0  0  0  0  0  0  0  0  0  0  0
    5.3650   -1.0960    0.7410 N   0  0  0  0  0  0  0  0  0  0  0  0
    0.1360    1.6070   -0.2790 C   0  0  0  0  0  0  0  0  0  0  0  0
  1  2  2  0
  2  3  1  0
  2  6  1  0
  3  4  1  0
  4  5  1  0
  5  6  2  0
  6  7  1  0
  8  7  1  6
  8  9  1  0
  8 18  1  0
  9 10  1  0
 10 11  1  0
 11 12  1  0
 12 13  1  0
 12 18  1  0
 13 14  1  0
 14 15  1  0
 14 16  2  3
 16 17  1  0
M  CHG  1  17   1
M  END
