
     RDKit          3D

 11 12  0  0  0  0  0  0  0  0999 V2000
    2.6780    0.5940    0.7480 C   0  0  0  0  0  0  0  0  0  0  0  0
    1.3020    0.2430    0.2180 C   0  0  0  0  0  0  0  0  0  0  0  0
    0.6220    1.3350   -0.0990 C   0  0  0  0  0  0  0  0  0  0  0  0
   -0.7560    1.3760   -0.6010 C   0  0  2  0  0  0  0  0  0  0  0  0
   -1.7180    1.1220    0.5400 C   0  0  0  0  0  0  0  0  0  0  0  0
   -1.7920   -0.3900    0.6080 C   0  0  0  0  0  0  0  0  0  0  0  0
   -1.2580   -0.9060   -0.7120 C   0  0  2  0  0  0  0  0  0  0  0  0
   -0.0380   -1.7480   -0.5520 C   0  0  0  0  0  0  0  0  0  0  0  0
    1.0830   -1.1890    0.1940 C   0  0  0  0  0  0  0  0  0  0  0  0
   -1.0610    0.2820   -1.5570 C   0  0  0  0  0  0  0  0  0  0  0  0
   -1.1160    0.4250   -2.7610 O   0  0  0  0  0  0  0  0  0  0  0  0
  1  2  1  0
  2  3  2  0
  2  9  1  0
  3  4  1  0
  4  5  1  1
  4 10  1  0
  5  6  1  0
  7  6  1  1
  7  8  1  0
  7 10  1  0
  8  9  1  0
 10 11  2  0
M  END
