
     RDKit          3D

 18 20  0  0  0  0  0  0  0  0999 V2000
   -4.7450   -1.6610    0.4050 C   0  0  0  0  0  0  0  0  0  0  0  0
   -3.5730   -0.8060    0.1200 C   0  0  0  0  0  0  0  0  0  0  0  0
   -3.5430    0.3820    0.6390 N   0  0  0  0  0  0  0  0  0  0  0  0
   -2.4810    1.3470    0.4660 C   0  0  0  0  0  0  0  0  0  0  0  0
   -2.8680    2.5740    0.5190 N   0  0  0  0  0  0  0  0  0  0  0  0
   -1.9330    3.5550    0.3660 O   0  0  0  0  0  0  0  0  0  0  0  0
   -0.5690    3.3320    0.1070 C   0  0  0  0  0  0  0  0  0  0  0  0
   -0.1750    1.9110    0.0570 C   0  0  0  0  0  0  0  0  0  0  0  0
   -1.0660    0.9640    0.2250 C   0  0  0  0  0  0  0  0  0  0  0  0
   -0.4350   -0.3150    0.1540 N   0  0  0  0  0  0  0  0  0  0  0  0
    0.9880   -0.4460    0.2420 C   0  0  2  0  0  0  0  0  0  0  0  0
    1.6900    0.0360    1.4620 C   0  0  0  0  0  0  0  0  0  0  0  0
    3.1030    0.3170    1.0010 C   0  0  0  0  0  0  0  0  0  0  0  0
    3.1940    0.0740   -0.4600 C   0  0  1  0  0  0  0  0  0  0  0  0
    4.2670   -0.8050   -0.7970 N   0  0  0  0  0  0  0  0  0  0  0  0
    1.8310   -0.3840   -0.9620 C   0  0  0  0  0  0  0  0  0  0  0  0
   -1.2340   -1.5280    0.0040 C   0  0  0  0  0  0  0  0  0  0  0  0
   -2.4920   -1.3900   -0.7560 C   0  0  0  0  0  0  0  0  0  0  0  0
  1  2  1  0
  2  3  2  0
  2 18  1  0
  3  4  1  0
  4  5  2  0
  4  9  1  0
  5  6  1  0
  6  7  1  0
  7  8  1  0
  8  9  2  0
  9 10  1  0
 11 10  1  6
 10 17  1  0
 11 12  1  0
 11 16  1  0
 12 13  1  0
 13 14  1  0
 14 15  1  1
 14 16  1  0
 17 18  1  0
M  CHG  1  15   1
M  END
