
     RDKit          3D

 18 19  0  0  0  0  0  0  0  0999 V2000
   -0.0550   -2.6570    0.2010 N   0  0  0  0  0  0  0  0  0  0  0  0
   -0.9770   -1.5790    0.3140 C   0  0  0  0  0  0  0  0  0  0  0  0
   -0.5660   -0.4050    0.9610 N   0  0  0  0  0  0  0  0  0  0  0  0
    0.5030    0.2370    0.7390 C   0  0  0  0  0  0  0  0  0  0  0  0
    0.8090    1.4440    1.4850 C   0  0  0  0  0  0  0  0  0  0  0  0
    1.9090    2.1250    1.2730 C   0  0  0  0  0  0  0  0  0  0  0  0
    2.9140    1.7480    0.2910 C   0  0  0  0  0  0  0  0  0  0  0  0
    2.5990    0.5330   -0.4540 C   0  0  0  0  0  0  0  0  0  0  0  0
    3.5750    0.0310   -1.5140 C   0  0  0  0  0  0  0  0  0  0  0  0
    4.8320   -0.2320   -0.8520 N   0  0  0  0  0  0  0  0  0  0  0  0
    1.5010   -0.1530   -0.2480 C   0  0  0  0  0  0  0  0  0  0  0  0
   -2.1520   -1.7640   -0.1990 N   0  0  0  0  0  0  0  0  0  0  0  0
   -3.1750   -0.7920   -0.1680 C   0  0  0  0  0  0  0  0  0  0  0  0
   -3.2300    0.3420   -0.8370 C   0  0  0  0  0  0  0  0  0  0  0  0
   -4.4690    1.0950   -0.5360 C   0  0  0  0  0  0  0  0  0  0  0  0
   -5.1430    0.2000    0.4370 C   0  0  0  0  0  0  0  0  0  0  0  0
   -4.3880   -0.8680    0.6310 C   0  0  0  0  0  0  0  0  0  0  0  0
   -4.7640   -1.9000    1.5040 O   0  0  0  0  0  0  0  0  0  0  0  0
  1  2  1  0
  2  3  1  0
  2 12  2  3
  3  4  2  3
  4  5  1  0
  4 11  1  0
  5  6  2  0
  6  7  1  0
  7  8  1  0
  8  9  1  0
  8 11  2  0
  9 10  1  0
 12 13  1  0
 13 14  2  0
 13 17  1  0
 14 15  1  0
 15 16  1  0
 16 17  2  0
 17 18  1  0
M  CHG  1  10   1
M  END
