
     RDKit          3D

 11 12  0  0  0  0  0  0  0  0999 V2000
   -2.1770    0.3930    1.2200 C   0  0  0  0  0  0  0  0  0  0  0  0
   -1.2810    0.0780    0.0090 C   0  0  1  0  0  0  0  0  0  0  0  0
   -2.2490    0.1240   -1.1830 C   0  0  0  0  0  0  0  0  0  0  0  0
   -0.3020    1.1620   -0.1520 C   0  0  0  0  0  0  0  0  0  0  0  0
    1.0150    0.8050   -0.7260 C   0  0  1  0  0  0  0  0  0  0  0  0
    2.1070    1.0250    0.3280 C   0  0  0  0  0  0  0  0  0  0  0  0
    2.4540   -0.2870    0.9810 C   0  0  0  0  0  0  0  0  0  0  0  0
    1.3470   -1.0850    1.1840 O   0  0  0  0  0  0  0  0  0  0  0  0
    0.7050   -1.4650    0.0290 C   0  0  2  0  0  0  0  0  0  0  0  0
    1.1350   -0.6350   -1.1610 C   0  0  0  0  0  0  0  0  0  0  0  0
   -0.7640   -1.2940    0.2070 C   0  0  0  0  0  0  0  0  0  0  0  0
  2  1  1  1
  2  3  1  0
  2  4  1  0
  2 11  1  0
  5  4  1  1
  5  6  1  0
  5 10  1  0
  6  7  1  0
  7  8  1  0
  8  9  1  0
  9 10  1  0
  9 11  1  1
M  END
