
     RDKit          3D

 22 23  0  0  0  0  0  0  0  0999 V2000
    4.5620    1.3370   -2.0580 N   0  0  0  0  0  0  0  0  0  0  0  0
    4.3600   -0.2720   -1.4690 S   0  0  2  0  0  0  0  0  0  0  0  0
    5.5330   -0.7140   -0.6280 O   0  0  0  0  0  0  0  0  0  0  0  0
    4.2100   -1.2500   -2.5880 O   0  0  0  0  0  0  0  0  0  0  0  0
    2.9290   -0.4090   -0.4530 C   0  0  0  0  0  0  0  0  0  0  0  0
    1.6910   -0.7180   -0.9760 C   0  0  0  0  0  0  0  0  0  0  0  0
    0.5880   -0.8190   -0.1420 C   0  0  0  0  0  0  0  0  0  0  0  0
    0.6590   -0.6250    1.2110 C   0  0  0  0  0  0  0  0  0  0  0  0
   -0.5200   -0.7340    2.0990 C   0  0  0  0  0  0  0  0  0  0  0  0
   -1.7200   -0.8060    1.3180 N   0  0  0  0  0  0  0  0  0  0  0  0
   -2.1640    0.2260    0.4500 C   0  0  0  0  0  0  0  0  0  0  0  0
   -1.4970    1.3790    0.2800 N   0  0  0  0  0  0  0  0  0  0  0  0
   -1.9780    2.3340   -0.5690 C   0  0  0  0  0  0  0  0  0  0  0  0
   -3.1220    2.1640   -1.2590 N   0  0  0  0  0  0  0  0  0  0  0  0
   -3.8230    1.0270   -1.1200 C   0  0  0  0  0  0  0  0  0  0  0  0
   -4.9950    0.8910   -1.8470 O   0  0  0  0  0  0  0  0  0  0  0  0
   -3.3370    0.0630   -0.2630 C   0  0  0  0  0  0  0  0  0  0  0  0
   -4.0890   -1.1180   -0.1350 N   0  0  0  0  0  0  0  0  0  0  0  0
   -4.0970   -1.9440   -1.0430 O   0  0  0  0  0  0  0  0  0  0  0  0
   -4.8030   -1.3360    0.9970 O   0  0  0  0  0  0  0  0  0  0  0  0
    1.9210   -0.3130    1.7330 C   0  0  0  0  0  0  0  0  0  0  0  0
    3.0110   -0.2130    0.9030 C   0  0  0  0  0  0  0  0  0  0  0  0
  2  1  1  6
  2  3  2  0
  2  4  2  0
  2  5  1  0
  5  6  2  0
  5 22  1  0
  6  7  1  0
  7  8  2  0
  8  9  1  0
  8 21  1  0
  9 10  1  0
 10 11  1  0
 11 12  2  0
 11 17  1  0
 12 13  1  0
 13 14  2  0
 14 15  1  0
 15 16  1  0
 15 17  2  0
 17 18  1  0
 18 19  2  0
 18 20  1  0
 21 22  2  0
M  CHG  2  18   1  20  -1
M  END
