
     RDKit          3D

 18 20  0  0  0  0  0  0  0  0999 V2000
    4.7610   -0.5670    1.0890 N   0  0  0  0  0  0  0  0  0  0  0  0
    3.8480    0.2450    0.3950 C   0  0  0  0  0  0  0  0  0  0  0  0
    4.2250    1.5220   -0.0330 C   0  0  0  0  0  0  0  0  0  0  0  0
    3.3610    2.3510   -0.7160 C   0  0  0  0  0  0  0  0  0  0  0  0
    2.1240    1.8840   -0.9620 N   0  0  0  0  0  0  0  0  0  0  0  0
    1.7110    0.6650   -0.5730 C   0  0  0  0  0  0  0  0  0  0  0  0
    2.5650   -0.1920    0.1190 C   0  0  0  0  0  0  0  0  0  0  0  0
    2.1770   -1.5390    0.5680 C   0  0  0  0  0  0  0  0  0  0  0  0
    0.8920   -2.0040   -0.1330 C   0  0  0  0  0  0  0  0  0  0  0  0
   -0.0900   -0.8380    0.0660 C   0  0  2  0  0  0  0  0  0  0  0  0
   -1.4940   -1.2610   -0.0630 C   0  0  0  0  0  0  0  0  0  0  0  0
   -2.4470   -0.1550    0.1580 C   0  0  2  0  0  0  0  0  0  0  0  0
   -2.3120    0.4200    1.4410 O   0  0  0  0  0  0  0  0  0  0  0  0
   -3.9090   -0.6860    0.1850 C   0  0  0  0  0  0  0  0  0  0  0  0
   -4.6140    0.6720    0.2010 C   0  0  0  0  0  0  0  0  0  0  0  0
   -3.9650    1.3630   -0.8710 N   0  0  0  0  0  0  0  0  0  0  0  0
   -2.5810    0.8750   -0.9130 C   0  0  0  0  0  0  0  0  0  0  0  0
    0.3790    0.1690   -0.8460 N   0  0  0  0  0  0  0  0  0  0  0  0
  1  2  1  0
  2  3  2  0
  2  7  1  0
  3  4  1  0
  4  5  2  0
  5  6  1  0
  6  7  2  0
  6 18  1  0
  7  8  1  0
  8  9  1  0
  9 10  1  0
 10 11  1  6
 10 18  1  0
 11 12  1  0
 12 13  1  1
 12 14  1  0
 12 17  1  0
 14 15  1  0
 15 16  1  0
 16 17  1  0
M  CHG  1   5   1
M  END
