
     RDKit          3D

 17 19  0  0  0  0  0  0  0  0999 V2000
    4.0350    0.1310    0.4300 N   0  0  0  0  0  0  0  0  0  0  0  0
    3.4630   -1.0840   -0.1410 C   0  0  0  0  0  0  0  0  0  0  0  0
    2.3220   -0.6630   -0.9320 N   0  0  0  0  0  0  0  0  0  0  0  0
    1.2210    0.0180   -0.4170 C   0  0  0  0  0  0  0  0  0  0  0  0
    1.2120    1.3560   -0.2530 C   0  0  0  0  0  0  0  0  0  0  0  0
    0.1360    2.2220    0.2820 C   0  0  0  0  0  0  0  0  0  0  0  0
   -1.1050    2.0910   -0.5040 C   0  0  0  0  0  0  0  0  0  0  0  0
   -1.8810    0.8740   -0.5590 C   0  0  2  0  0  0  0  0  0  0  0  0
   -3.2240    0.9180    0.1890 C   0  0  0  0  0  0  0  0  0  0  0  0
   -3.6420   -0.5290    0.1940 C   0  0  0  0  0  0  0  0  0  0  0  0
   -4.7410   -1.0060    0.0760 O   0  0  0  0  0  0  0  0  0  0  0  0
   -2.3500   -1.2410    0.3840 C   0  0  0  0  0  0  0  0  0  0  0  0
   -1.9870   -2.3970    0.8790 C   0  0  0  0  0  0  0  0  0  0  0  0
   -0.6040   -2.8040    0.9520 N   0  0  0  0  0  0  0  0  0  0  0  0
    0.3400   -1.8850    0.4670 N   0  0  0  0  0  0  0  0  0  0  0  0
    0.0140   -0.7590   -0.0400 C   0  0  0  0  0  0  0  0  0  0  0  0
   -1.3470   -0.4560   -0.3580 C   0  0  2  0  0  0  0  0  0  0  0  0
  1  2  1  0
  2  3  1  0
  3  4  1  0
  4  5  2  0
  4 16  1  0
  5  6  1  0
  6  7  1  0
  8  7  1  1
  8  9  1  0
  8 17  1  0
  9 10  1  0
 10 11  2  0
 10 12  1  0
 12 13  2  0
 17 12  1  1
 13 14  1  0
 14 15  1  0
 15 16  2  0
 16 17  1  0
M  CHG  1   1   1
M  END
