
     RDKit          3D

 23 23  0  0  0  0  0  0  0  0999 V2000
   -7.5690   -0.2680   -1.8000 C   0  0  0  0  0  0  0  0  0  0  0  0
   -6.6700    0.2850   -1.0090 C   0  0  0  0  0  0  0  0  0  0  0  0
   -5.2740   -0.1620   -0.9970 C   0  0  0  0  0  0  0  0  0  0  0  0
   -4.4050    0.4120   -0.1970 C   0  0  0  0  0  0  0  0  0  0  0  0
   -4.9310    1.5270    0.6790 C   0  0  0  0  0  0  0  0  0  0  0  0
   -3.0070    0.0590   -0.0960 C   0  0  0  0  0  0  0  0  0  0  0  0
   -2.4980   -0.8700   -0.8030 N   0  0  0  0  0  0  0  0  0  0  0  0
   -2.1790    0.7460    0.7970 O   0  0  0  0  0  0  0  0  0  0  0  0
   -0.8320    0.4460    0.9320 C   0  0  0  0  0  0  0  0  0  0  0  0
   -0.3830   -0.4810    0.2080 O   0  0  0  0  0  0  0  0  0  0  0  0
    0.0530    1.1720    1.8780 C   0  0  0  0  0  0  0  0  0  0  0  0
    1.4080    0.6790    1.8360 N   0  0  0  0  0  0  0  0  0  0  0  0
    2.1180    0.7430    0.6970 C   0  0  0  0  0  0  0  0  0  0  0  0
    1.5280    1.2630   -0.3540 O   0  0  0  0  0  0  0  0  0  0  0  0
    3.3610    0.3840    0.3520 N   0  0  0  0  0  0  0  0  0  0  0  0
    4.5920    0.0310    0.0000 C   0  0  0  0  0  0  0  0  0  0  0  0
    4.7860    0.3290   -1.2700 O   0  0  0  0  0  0  0  0  0  0  0  0
    5.6170   -0.5400    0.6620 N   0  0  0  0  0  0  0  0  0  0  0  0
    6.8040   -0.7660   -0.0720 C   0  0  0  0  0  0  0  0  0  0  0  0
    7.2270   -0.5740   -1.2700 N   0  0  0  0  0  0  0  0  0  0  0  0
    8.3580   -0.8750   -1.6780 N   0  0  0  0  0  0  0  0  0  0  0  0
    9.2910   -1.4360   -0.9390 C   0  0  0  0  0  0  0  0  0  0  0  0
    8.2910   -1.5310    0.6580 S   0  0  0  0  0  0  0  0  0  0  0  0
  1  2  2  0
  2  3  1  0
  3  4  2  3
  4  5  1  0
  4  6  1  0
  6  7  2  0
  6  8  1  0
  8  9  1  0
  9 10  2  0
  9 11  1  0
 11 12  1  0
 12 13  1  0
 13 14  2  0
 13 15  1  0
 15 16  1  0
 16 17  2  0
 16 18  1  0
 18 19  1  0
 19 20  2  0
 19 23  1  0
 20 21  1  0
 21 22  2  0
 22 23  1  0
M  END
