
     RDKit          3D

 23 23  0  0  0  0  0  0  0  0999 V2000
    4.7840   -1.6690   -2.0660 C   0  0  0  0  0  0  0  0  0  0  0  0
    4.1610   -0.4040   -1.6110 C   0  0  0  0  0  0  0  0  0  0  0  0
    4.5300    0.6450   -2.2420 O   0  0  0  0  0  0  0  0  0  0  0  0
    3.2220   -0.3380   -0.5540 N   0  0  0  0  0  0  0  0  0  0  0  0
    2.8340   -1.5280    0.1240 C   0  0  0  0  0  0  0  0  0  0  0  0
    1.4100   -1.5550    0.6150 C   0  0  0  0  0  0  0  0  0  0  0  0
    0.8530   -0.1940    0.8760 C   0  0  2  0  0  0  0  0  0  0  0  0
   -0.5790   -0.2850    1.0460 N   0  0  0  0  0  0  0  0  0  0  0  0
   -1.3650    0.8570    1.2510 C   0  0  0  0  0  0  0  0  0  0  0  0
   -2.4650    1.1180    0.6250 C   0  0  0  0  0  0  0  0  0  0  0  0
   -3.1980    0.4200   -0.3890 C   0  0  0  0  0  0  0  0  0  0  0  0
   -4.3450    0.9780   -0.8260 C   0  0  0  0  0  0  0  0  0  0  0  0
   -4.7260    2.1800   -0.2610 O   0  0  0  0  0  0  0  0  0  0  0  0
   -2.7400   -1.0610   -1.1350 S   0  0  1  0  0  0  0  0  0  0  0  0
   -3.2850   -2.4850   -0.2230 C   0  0  0  0  0  0  0  0  0  0  0  0
   -3.5330   -1.1240   -2.4670 O   0  0  0  0  0  0  0  0  0  0  0  0
   -1.3210   -1.1750   -1.5390 O   0  0  0  0  0  0  0  0  0  0  0  0
   -0.8590    1.7680    2.2500 N   0  0  0  0  0  0  0  0  0  0  0  0
   -0.4690    1.2490    3.4420 O   0  0  0  0  0  0  0  0  0  0  0  0
   -0.7880    2.9830    2.0120 N   0  0  0  0  0  0  0  0  0  0  0  0
   -1.1360    3.6660    0.8690 N   0  0  0  0  0  0  0  0  0  0  0  0
    1.1470    0.7730   -0.2450 C   0  0  0  0  0  0  0  0  0  0  0  0
    2.6790    0.9610   -0.1950 C   0  0  0  0  0  0  0  0  0  0  0  0
  1  2  1  0
  2  3  2  0
  2  4  1  0
  4  5  1  0
  4 23  1  0
  5  6  1  0
  6  7  1  0
  7  8  1  6
  7 22  1  0
  8  9  1  0
  9 10  2  3
  9 18  1  0
 10 11  1  0
 11 12  2  3
 11 14  1  0
 12 13  1  0
 14 15  1  1
 14 16  2  0
 14 17  2  0
 18 19  1  0
 18 20  2  3
 20 21  1  0
 22 23  1  0
M  CHG  2  18   1  19  -1
M  END
