
     RDKit          3D

 23 24  0  0  0  0  0  0  0  0999 V2000
    6.5420    0.9260    0.0690 O   0  0  0  0  0  0  0  0  0  0  0  0
    5.9080   -0.1550    0.0890 C   0  0  0  0  0  0  0  0  0  0  0  0
    6.6320   -1.4430    0.1320 C   0  0  0  0  0  0  0  0  0  0  0  0
    8.0540   -1.1730    0.1440 N   0  0  0  0  0  0  0  0  0  0  0  0
    8.7930   -1.6010   -0.7580 O   0  0  0  0  0  0  0  0  0  0  0  0
    8.5950   -0.4410    1.1560 O   0  0  0  0  0  0  0  0  0  0  0  0
    4.4830   -0.0780    0.0670 N   0  0  0  0  0  0  0  0  0  0  0  0
    3.7510    1.1390    0.0260 C   0  0  0  0  0  0  0  0  0  0  0  0
    2.3250    0.8550    0.0130 C   0  0  0  0  0  0  0  0  0  0  0  0
    1.5150   -0.2230    0.0300 C   0  0  0  0  0  0  0  0  0  0  0  0
    0.2330   -0.0760    0.0090 N   0  0  0  0  0  0  0  0  0  0  0  0
   -0.3580    1.0640   -0.0290 C   0  0  0  0  0  0  0  0  0  0  0  0
   -1.7100    1.5760   -0.0610 C   0  0  0  0  0  0  0  0  0  0  0  0
   -1.9950    2.7940   -0.0960 O   0  0  0  0  0  0  0  0  0  0  0  0
   -2.7810    0.6530   -0.0520 N   0  0  0  0  0  0  0  0  0  0  0  0
   -4.1410    1.1280   -0.0830 C   0  0  0  0  0  0  0  0  0  0  0  0
   -5.0870    0.0060   -0.0670 C   0  0  0  0  0  0  0  0  0  0  0  0
   -4.8290   -1.3310   -0.0280 C   0  0  0  0  0  0  0  0  0  0  0  0
   -6.0510   -2.0120   -0.0280 C   0  0  0  0  0  0  0  0  0  0  0  0
   -6.9920   -1.0620   -0.0650 N   0  0  0  0  0  0  0  0  0  0  0  0
   -6.4560    0.1530   -0.0890 C   0  0  0  0  0  0  0  0  0  0  0  0
   -7.1370    1.3380   -0.1300 O   0  0  0  0  0  0  0  0  0  0  0  0
    1.0550    2.1790   -0.0380 S   0  0  0  0  0  0  0  0  0  0  0  0
  1  2  2  0
  2  3  1  0
  2  7  1  0
  3  4  1  0
  4  5  2  0
  4  6  1  0
  7  8  1  0
  8  9  1  0
  9 10  2  0
  9 23  1  0
 10 11  1  0
 11 12  2  0
 12 13  1  0
 12 23  1  0
 13 14  2  0
 13 15  1  0
 15 16  1  0
 16 17  1  0
 17 18  1  0
 17 21  2  0
 18 19  2  0
 19 20  1  0
 20 21  1  0
 21 22  1  0
M  CHG  2   4   1   6  -1
M  END
