
     RDKit          3D

 23 24  0  0  0  0  0  0  0  0999 V2000
    5.5310    1.1410   -1.3710 C   0  0  0  0  0  0  0  0  0  0  0  0
    4.7180    0.0580   -0.8750 N   0  0  0  0  0  0  0  0  0  0  0  0
    3.4510   -0.0510   -1.3380 C   0  0  0  0  0  0  0  0  0  0  0  0
    2.6810   -1.0920   -0.8570 C   0  0  0  0  0  0  0  0  0  0  0  0
    0.9940   -1.3620   -1.3740 S   0  0  0  0  0  0  0  0  0  0  0  0
   -0.1390   -0.4650   -0.2870 C   0  0  0  0  0  0  0  0  0  0  0  0
    0.3760    0.2810    0.7520 C   0  0  0  0  0  0  0  0  0  0  0  0
   -0.4630    0.9690    1.5890 C   0  0  0  0  0  0  0  0  0  0  0  0
   -1.8450    0.8830    1.3460 C   0  0  0  0  0  0  0  0  0  0  0  0
   -2.3620    0.1520    0.3260 C   0  0  0  0  0  0  0  0  0  0  0  0
   -3.7430    0.0160    0.0170 N   0  0  0  0  0  0  0  0  0  0  0  0
   -4.7840    0.6030    0.7000 C   0  0  0  0  0  0  0  0  0  0  0  0
   -4.5180    1.3500    1.7180 O   0  0  0  0  0  0  0  0  0  0  0  0
   -6.2360    0.5100    0.4420 C   0  0  0  0  0  0  0  0  0  0  0  0
   -6.7030   -0.2590   -0.6250 N   0  0  0  0  0  0  0  0  0  0  0  0
   -6.0710   -0.9220   -1.4480 O   0  0  0  0  0  0  0  0  0  0  0  0
   -8.0980   -0.2970   -0.8060 O   0  0  0  0  0  0  0  0  0  0  0  0
   -1.4540   -0.5120   -0.4710 N   0  0  0  0  0  0  0  0  0  0  0  0
    3.2470   -1.9560    0.0640 C   0  0  0  0  0  0  0  0  0  0  0  0
    2.5350   -2.9070    0.5010 O   0  0  0  0  0  0  0  0  0  0  0  0
    4.5130   -1.8230    0.5080 N   0  0  0  0  0  0  0  0  0  0  0  0
    5.2360   -0.8030    0.0220 C   0  0  0  0  0  0  0  0  0  0  0  0
    6.4350   -0.6510    0.4220 O   0  0  0  0  0  0  0  0  0  0  0  0
  1  2  1  0
  2  3  1  0
  2 22  1  0
  3  4  2  0
  4  5  1  0
  4 19  1  0
  5  6  1  0
  6  7  2  0
  6 18  1  0
  7  8  1  0
  8  9  2  0
  9 10  1  0
 10 11  1  0
 10 18  2  0
 11 12  1  0
 12 13  2  0
 12 14  1  0
 14 15  1  0
 15 16  2  0
 15 17  1  0
 19 20  2  0
 19 21  1  0
 21 22  1  0
 22 23  2  0
M  CHG  2  15   1  17  -1
M  END
