
     RDKit          3D

 23 24  0  0  0  0  0  0  0  0999 V2000
   -6.4880    1.6480   -0.2080 C   0  0  0  0  0  0  0  0  0  0  0  0
   -5.1190    1.0170   -0.1610 C   0  0  0  0  0  0  0  0  0  0  0  0
   -3.9870    1.6180   -0.4230 N   0  0  0  0  0  0  0  0  0  0  0  0
   -2.9020    1.2040   -0.4110 C   0  0  0  0  0  0  0  0  0  0  0  0
   -1.5090    1.5940   -0.6320 N   0  0  0  0  0  0  0  0  0  0  0  0
   -0.4420    0.6760   -0.5150 C   0  0  0  0  0  0  0  0  0  0  0  0
   -0.7200   -0.5210   -0.2110 O   0  0  0  0  0  0  0  0  0  0  0  0
    0.9400    1.0930   -0.7380 C   0  0  0  0  0  0  0  0  0  0  0  0
    1.2840    2.2490   -1.0030 O   0  0  0  0  0  0  0  0  0  0  0  0
    1.9620    0.0840   -0.6430 N   0  0  0  0  0  0  0  0  0  0  0  0
    3.2910    0.4090   -0.8440 N   0  0  0  0  0  0  0  0  0  0  0  0
    4.4260   -0.2470   -0.3550 C   0  0  0  0  0  0  0  0  0  0  0  0
    5.6820    0.2410   -0.7190 C   0  0  0  0  0  0  0  0  0  0  0  0
    6.8570   -0.3170   -0.3070 C   0  0  0  0  0  0  0  0  0  0  0  0
    6.8080   -1.4240    0.5150 C   0  0  0  0  0  0  0  0  0  0  0  0
    5.5830   -1.9190    0.8850 C   0  0  0  0  0  0  0  0  0  0  0  0
    4.4400   -1.3260    0.4460 N   0  0  0  0  0  0  0  0  0  0  0  0
    3.2440   -1.8510    0.8460 O   0  0  0  0  0  0  0  0  0  0  0  0
   -3.2400   -0.5910    0.0980 S   0  0  0  0  0  0  0  0  0  0  0  0
   -4.9890   -0.3160    0.1830 C   0  0  0  0  0  0  0  0  0  0  0  0
   -6.0010   -1.3160    0.5420 C   0  0  0  0  0  0  0  0  0  0  0  0
   -7.1910   -0.9870    0.5600 O   0  0  0  0  0  0  0  0  0  0  0  0
   -5.6530   -2.6210    0.8610 O   0  0  0  0  0  0  0  0  0  0  0  0
  1  2  1  0
  2  3  1  0
  2 20  2  0
  3  4  2  0
  4  5  1  0
  4 19  1  0
  5  6  1  0
  6  7  2  0
  6  8  1  0
  8  9  2  0
  8 10  1  0
 10 11  1  0
 11 12  1  0
 12 13  2  0
 12 17  1  0
 13 14  1  0
 14 15  2  0
 15 16  1  0
 16 17  2  0
 17 18  1  0
 19 20  1  0
 20 21  1  0
 21 22  2  0
 21 23  1  0
M  CHG  2  17   1  18  -1
M  END
