
     RDKit          3D

 23 24  0  0  0  0  0  0  0  0999 V2000
    6.5300    1.5340   -0.4280 C   0  0  0  0  0  0  0  0  0  0  0  0
    5.1290    1.6080   -0.6020 O   0  0  0  0  0  0  0  0  0  0  0  0
    4.3060    0.6260   -0.0770 C   0  0  0  0  0  0  0  0  0  0  0  0
    4.8460   -0.3950    0.5960 N   0  0  0  0  0  0  0  0  0  0  0  0
    4.0930   -1.3880    1.1330 C   0  0  0  0  0  0  0  0  0  0  0  0
    2.7620   -1.3210    0.9700 N   0  0  0  0  0  0  0  0  0  0  0  0
    2.1480   -0.3410    0.3160 C   0  0  0  0  0  0  0  0  0  0  0  0
    0.7290   -0.2680    0.1410 N   0  0  0  0  0  0  0  0  0  0  0  0
   -0.0910   -1.3170    0.6980 C   0  0  0  0  0  0  0  0  0  0  0  0
   -1.5160   -1.0480    0.4210 C   0  0  0  0  0  0  0  0  0  0  0  0
   -2.3250   -0.3850    1.3270 C   0  0  0  0  0  0  0  0  0  0  0  0
   -3.6460   -0.1600    1.0150 C   0  0  0  0  0  0  0  0  0  0  0  0
   -4.2180   -0.5620   -0.1630 C   0  0  0  0  0  0  0  0  0  0  0  0
   -5.9180   -0.2230   -0.4590 S   0  0  2  0  0  0  0  0  0  0  0  0
   -6.0870    1.3230   -1.1960 N   0  0  0  0  0  0  0  0  0  0  0  0
   -6.7030   -0.3780    0.7960 O   0  0  0  0  0  0  0  0  0  0  0  0
   -6.4660   -1.2360   -1.4550 O   0  0  0  0  0  0  0  0  0  0  0  0
   -3.4230   -1.2260   -1.0780 C   0  0  0  0  0  0  0  0  0  0  0  0
   -2.0970   -1.4570   -0.7760 C   0  0  0  0  0  0  0  0  0  0  0  0
    2.9300    0.6710   -0.2300 C   0  0  0  0  0  0  0  0  0  0  0  0
    2.3590    1.7460   -0.9400 N   0  0  0  0  0  0  0  0  0  0  0  0
    1.9150    1.5150   -2.0990 O   0  0  0  0  0  0  0  0  0  0  0  0
    2.2970    2.9900   -0.3680 O   0  0  0  0  0  0  0  0  0  0  0  0
  1  2  1  0
  2  3  1  0
  3  4  2  0
  3 20  1  0
  4  5  1  0
  5  6  2  0
  6  7  1  0
  7  8  1  0
  7 20  2  0
  8  9  1  0
  9 10  1  0
 10 11  2  0
 10 19  1  0
 11 12  1  0
 12 13  2  0
 13 14  1  0
 13 18  1  0
 14 15  1  6
 14 16  2  0
 14 17  2  0
 18 19  2  0
 20 21  1  0
 21 22  2  0
 21 23  1  0
M  CHG  2  21   1  23  -1
M  END
