
     RDKit          3D

 31 34  0  0  0  0  0  0  0  0999 V2000
    2.8000    0.6280   -0.1050 O   0  0  0  0  0  0  0  0  0  0  0  0
    2.5590   -0.5330    0.2980 C   0  0  0  0  0  0  0  0  0  0  0  0
    1.2000   -1.0850    0.1140 C   0  0  0  0  0  0  0  0  0  0  0  0
    0.3310   -0.1050   -0.5500 N   0  0  0  0  0  0  0  0  0  0  0  0
   -1.0440   -0.4400   -0.8270 C   0  0  0  0  0  0  0  0  0  0  0  0
   -1.2920   -1.6600   -1.0150 N   0  0  0  0  0  0  0  0  0  0  0  0
   -2.5250   -2.2590   -1.2980 C   0  0  0  0  0  0  0  0  0  0  0  0
   -3.6200   -1.5490   -1.4020 C   0  0  0  0  0  0  0  0  0  0  0  0
   -4.8830   -2.2200   -1.7000 C   0  0  0  0  0  0  0  0  0  0  0  0
   -4.9610   -3.4900   -0.8960 C   0  0  0  0  0  0  0  0  0  0  0  0
   -3.8540   -4.2140   -0.8140 C   0  0  0  0  0  0  0  0  0  0  0  0
   -3.8160   -5.7270    0.1000 Cl  0  0  0  0  0  0  0  0  0  0  0  0
   -2.6280   -3.7580   -1.4950 C   0  0  0  0  0  0  0  0  0  0  0  0
   -3.6380    0.1810   -1.1950 S   0  0  1  0  0  0  0  0  0  0  0  0
   -4.1260    0.8650   -2.4410 O   0  0  0  0  0  0  0  0  0  0  0  0
   -4.4350    0.5530    0.0050 O   0  0  0  0  0  0  0  0  0  0  0  0
   -1.9760    0.6100   -0.8660 N   0  0  0  0  0  0  0  0  0  0  0  0
   -1.6150    1.9680   -0.6480 C   0  0  0  0  0  0  0  0  0  0  0  0
   -1.6750    2.3010    0.8440 C   0  0  0  0  0  0  0  0  0  0  0  0
   -1.3080    3.6840    1.0760 N   0  0  0  0  0  0  0  0  0  0  0  0
   -2.0790    4.7860    1.1130 C   0  0  0  0  0  0  0  0  0  0  0  0
   -1.3250    5.8690    1.3600 N   0  0  0  0  0  0  0  0  0  0  0  0
   -0.0770    5.4660    1.4820 N   0  0  0  0  0  0  0  0  0  0  0  0
   -0.0560    4.1130    1.3080 C   0  0  0  0  0  0  0  0  0  0  0  0
    3.5370   -1.2970    0.9050 O   0  0  0  0  0  0  0  0  0  0  0  0
    4.8260   -0.6750    1.0400 C   0  0  0  0  0  0  0  0  0  0  0  0
    5.1960    0.0260    2.0490 C   0  0  0  0  0  0  0  0  0  0  0  0
    6.5460    0.6060    2.0580 C   0  0  0  0  0  0  0  0  0  0  0  0
    6.9370    0.4970    0.2800 S   0  0  0  0  0  0  0  0  0  0  0  0
    8.3830    0.0670    0.0860 O   0  0  0  0  0  0  0  0  0  0  0  0
    5.7940   -0.8560   -0.0630 C   0  0  0  0  0  0  0  0  0  0  0  0
  1  2  2  0
  2  3  1  0
  2 25  1  0
  3  4  1  0
  4  5  1  0
  5  6  2  0
  5 17  1  0
  6  7  1  0
  7  8  2  0
  7 13  1  0
  8  9  1  0
  8 14  1  0
  9 10  1  0
 10 11  2  0
 11 12  1  0
 11 13  1  0
 14 15  2  0
 14 16  2  0
 14 17  1  1
 17 18  1  0
 18 19  1  0
 19 20  1  0
 20 21  1  0
 20 24  1  0
 21 22  2  0
 22 23  1  0
 23 24  2  0
 25 26  1  0
 26 27  2  0
 26 31  1  0
 27 28  1  0
 29 28  1  1
 29 30  2  0
 29 31  1  0
M  END
