
     RDKit          3D

 29 30  0  0  0  0  0  0  0  0999 V2000
   -3.4760   -1.6080   -0.8830 C   0  0  0  0  0  0  0  0  0  0  0  0
   -3.0860   -0.1120   -0.9460 C   0  0  2  0  0  0  0  0  0  0  0  0
   -4.3530    0.6820   -0.9010 C   0  0  0  0  0  0  0  0  0  0  0  0
   -2.3010    0.1160   -2.2060 C   0  0  0  0  0  0  0  0  0  0  0  0
   -0.9480   -0.4930   -1.7610 C   0  0  0  0  0  0  0  0  0  0  0  0
   -0.7660   -0.0320   -0.4290 N   0  0  0  0  0  0  0  0  0  0  0  0
    0.4000    0.1730    0.3000 C   0  0  0  0  0  0  0  0  0  0  0  0
    0.1830    0.8010    1.4320 O   0  0  0  0  0  0  0  0  0  0  0  0
    1.7610   -0.1480    0.0820 C   0  0  0  0  0  0  0  0  0  0  0  0
    2.7140    0.3160    0.9260 C   0  0  0  0  0  0  0  0  0  0  0  0
    2.4560    1.1660    2.0930 C   0  0  0  0  0  0  0  0  0  0  0  0
    2.7690    0.9780    3.3810 C   0  0  0  0  0  0  0  0  0  0  0  0
    2.5100    1.9200    4.2870 C   0  0  0  0  0  0  0  0  0  0  0  0
    1.9130    3.0810    3.8470 C   0  0  0  0  0  0  0  0  0  0  0  0
    1.5260    4.2170    4.5230 F   0  0  0  0  0  0  0  0  0  0  0  0
    1.7270    2.7930    2.0810 S   0  0  0  0  0  0  0  0  0  0  0  0
    2.2900   -1.0240   -0.9460 C   0  0  0  0  0  0  0  0  0  0  0  0
    1.5280   -1.5700   -1.7730 O   0  0  0  0  0  0  0  0  0  0  0  0
    3.6690   -1.3600   -1.1410 N   0  0  0  0  0  0  0  0  0  0  0  0
    4.1660   -2.2430   -2.1630 C   0  0  0  0  0  0  0  0  0  0  0  0
    3.7350   -3.6530   -2.1230 C   0  0  1  0  0  0  0  0  0  0  0  0
    2.3820   -3.8200   -2.2290 F   0  0  0  0  0  0  0  0  0  0  0  0
    4.2620   -4.2530   -3.2860 F   0  0  0  0  0  0  0  0  0  0  0  0
    4.2200   -4.3450   -1.0210 F   0  0  0  0  0  0  0  0  0  0  0  0
   -2.1390    0.1430    0.1580 C   0  0  1  0  0  0  0  0  0  0  0  0
   -2.2740    1.4200    0.8590 C   0  0  0  0  0  0  0  0  0  0  0  0
   -2.1350    1.4120    2.2720 O   0  0  0  0  0  0  0  0  0  0  0  0
   -2.5090    2.5840    0.3350 C   0  0  0  0  0  0  0  0  0  0  0  0
   -2.6170    3.7220    1.1060 O   0  0  0  0  0  0  0  0  0  0  0  0
  2  1  1  6
  2  3  1  0
  2  4  1  0
  2 25  1  0
  4  5  1  0
  5  6  1  0
  6  7  1  0
  6 25  1  0
  7  8  2  0
  7  9  1  0
  9 10  2  3
  9 17  1  0
 10 11  1  0
 11 12  2  0
 11 16  1  0
 12 13  1  0
 13 14  2  0
 14 15  1  0
 14 16  1  0
 17 18  2  0
 17 19  1  0
 19 20  1  0
 20 21  1  0
 21 22  1  6
 21 23  1  0
 21 24  1  0
 25 26  1  6
 26 27  1  0
 26 28  2  3
 28 29  1  0
M  END
