
     RDKit          3D

 31 34  0  0  0  0  0  0  0  0999 V2000
   -7.6770   -2.0330    0.7430 C   0  0  0  0  0  0  0  0  0  0  0  0
   -7.8020   -0.7970   -0.1180 C   0  0  0  0  0  0  0  0  0  0  0  0
   -6.4380   -0.1220   -0.0020 C   0  0  0  0  0  0  0  0  0  0  0  0
   -5.4000   -0.2140    0.4830 N   0  0  0  0  0  0  0  0  0  0  0  0
   -4.3350    0.5510    0.4170 C   0  0  0  0  0  0  0  0  0  0  0  0
   -3.0330    0.3050    1.1120 C   0  0  0  0  0  0  0  0  0  0  0  0
   -2.8500   -0.6940    1.8420 O   0  0  0  0  0  0  0  0  0  0  0  0
   -1.9680    1.2340    0.9380 N   0  0  0  0  0  0  0  0  0  0  0  0
   -0.7290    0.9760    1.6150 C   0  0  0  0  0  0  0  0  0  0  0  0
    0.2860    2.0200    1.3310 C   0  0  0  0  0  0  0  0  0  0  0  0
    0.5880    2.0690   -0.0810 N   0  0  0  0  0  0  0  0  0  0  0  0
    0.1160    2.8540   -1.0580 C   0  0  0  0  0  0  0  0  0  0  0  0
   -0.7280    3.8020   -0.9470 O   0  0  0  0  0  0  0  0  0  0  0  0
    0.6620    2.5190   -2.2280 O   0  0  0  0  0  0  0  0  0  0  0  0
    1.4860    1.5360   -2.0810 C   0  0  0  0  0  0  0  0  0  0  0  0
    2.2920    0.8280   -2.9470 C   0  0  0  0  0  0  0  0  0  0  0  0
    3.0540   -0.1840   -2.3890 C   0  0  0  0  0  0  0  0  0  0  0  0
    3.8280   -0.8970   -3.0960 O   0  0  0  0  0  0  0  0  0  0  0  0
    3.0060   -0.4580   -1.0650 N   0  0  0  0  0  0  0  0  0  0  0  0
    3.8220   -1.5340   -0.5060 C   0  0  1  0  0  0  0  0  0  0  0  0
    3.0510   -3.0780   -0.9790 Cl  0  0  0  0  0  0  0  0  0  0  0  0
    5.2170   -1.4320   -1.0230 C   0  0  0  0  0  0  0  0  0  0  0  0
    6.2730   -1.7420    0.0140 C   0  0  0  0  0  0  0  0  0  0  0  0
    6.4820   -0.6270    0.9300 N   0  0  0  0  0  0  0  0  0  0  0  0
    4.8890   -0.1810    1.5510 S   0  0  0  0  0  0  0  0  0  0  0  0
    4.4810    1.1150    0.8670 O   0  0  0  0  0  0  0  0  0  0  0  0
    3.7530   -1.4650    1.0060 C   0  0  0  0  0  0  0  0  0  0  0  0
    2.2170    0.2470   -0.2640 N   0  0  0  0  0  0  0  0  0  0  0  0
    1.4610    1.2320   -0.7400 C   0  0  0  0  0  0  0  0  0  0  0  0
   -4.5420    1.6860   -0.4110 C   0  0  0  0  0  0  0  0  0  0  0  0
   -6.2140    1.4880   -0.9660 S   0  0  0  0  0  0  0  0  0  0  0  0
  1  2  1  0
  2  3  1  0
  3  4  2  0
  3 31  1  0
  4  5  1  0
  5  6  1  0
  5 30  2  0
  6  7  2  0
  6  8  1  0
  8  9  1  0
  9 10  1  0
 10 11  1  0
 11 12  1  0
 11 29  1  0
 12 13  2  0
 12 14  1  0
 14 15  1  0
 15 16  2  0
 15 29  1  0
 16 17  1  0
 17 18  2  0
 17 19  1  0
 19 20  1  0
 19 28  1  0
 20 21  1  6
 20 22  1  0
 20 27  1  0
 22 23  1  0
 23 24  1  0
 24 25  1  0
 25 26  2  0
 25 27  1  6
 28 29  2  0
 30 31  1  0
M  END
