
     RDKit          3D

 31 33  0  0  0  0  0  0  0  0999 V2000
   -4.0510   -4.2300    1.5080 C   0  0  0  0  0  0  0  0  0  0  0  0
   -3.6910   -2.8530    1.6500 N   0  0  0  0  0  0  0  0  0  0  0  0
   -4.1240   -2.0660    2.6020 C   0  0  0  0  0  0  0  0  0  0  0  0
   -4.9920   -2.5250    3.5740 O   0  0  0  0  0  0  0  0  0  0  0  0
   -4.6620   -1.5220    4.9730 S   0  0  0  0  0  0  0  0  0  0  0  0
   -3.5850   -0.2950    4.1710 C   0  0  0  0  0  0  0  0  0  0  0  0
   -3.7440   -0.6730    2.7240 C   0  0  1  0  0  0  0  0  0  0  0  0
   -2.3190   -0.5630    2.1830 N   0  0  0  0  0  0  0  0  0  0  0  0
   -1.3870   -1.4450    2.7970 C   0  0  0  0  0  0  0  0  0  0  0  0
   -2.1670    0.3740    1.1870 C   0  0  0  0  0  0  0  0  0  0  0  0
   -3.2610    1.0490    0.8450 O   0  0  0  0  0  0  0  0  0  0  0  0
   -1.0230    0.8080    0.3920 C   0  0  0  0  0  0  0  0  0  0  0  0
   -1.3110    1.7190   -0.4340 N   0  0  0  0  0  0  0  0  0  0  0  0
   -0.7640    2.4700   -1.3600 N   0  0  0  0  0  0  0  0  0  0  0  0
   -0.8870    2.2290   -2.7960 C   0  0  0  0  0  0  0  0  0  0  0  0
   -1.2090    1.0910   -3.2940 N   0  0  0  0  0  0  0  0  0  0  0  0
   -1.2420    1.1950   -4.7560 C   0  0  0  0  0  0  0  0  0  0  0  0
   -0.8810    2.6050   -5.0320 C   0  0  0  0  0  0  0  0  0  0  0  0
   -0.6770    3.1920   -3.8670 C   0  0  0  0  0  0  0  0  0  0  0  0
   -0.2220    4.8750   -3.6510 Cl  0  0  0  0  0  0  0  0  0  0  0  0
    0.3270    0.3010    0.4690 C   0  0  0  0  0  0  0  0  0  0  0  0
    0.7340   -0.5950    1.2420 O   0  0  0  0  0  0  0  0  0  0  0  0
    1.3580    0.8110   -0.3760 N   0  0  0  0  0  0  0  0  0  0  0  0
    2.7160    0.2860   -0.2830 C   0  0  2  0  0  0  0  0  0  0  0  0
    3.6450    1.4050    0.0550 C   0  0  0  0  0  0  0  0  0  0  0  0
    5.0240    1.2940   -0.5030 C   0  0  0  0  0  0  0  0  0  0  0  0
    5.6700   -0.0430   -0.2850 C   0  0  0  0  0  0  0  0  0  0  0  0
    4.6620   -1.2500   -1.1630 S   0  0  2  0  0  0  0  0  0  0  0  0
    4.3680   -2.4260   -0.3010 O   0  0  0  0  0  0  0  0  0  0  0  0
    5.4170   -1.6520   -2.3800 O   0  0  0  0  0  0  0  0  0  0  0  0
    3.1580   -0.3470   -1.5770 C   0  0  0  0  0  0  0  0  0  0  0  0
  1  2  1  0
  2  3  2  3
  3  4  1  0
  3  7  1  0
  4  5  1  0
  5  6  1  0
  6  7  1  0
  7  8  1  6
  8  9  1  0
  8 10  1  0
 10 11  2  0
 10 12  1  0
 12 13  2  3
 12 21  1  0
 13 14  1  0
 14 15  1  0
 15 16  2  0
 15 19  1  0
 16 17  1  0
 17 18  1  0
 18 19  2  0
 19 20  1  0
 21 22  2  0
 21 23  1  0
 24 23  1  6
 24 25  1  0
 24 31  1  0
 25 26  1  0
 26 27  1  0
 28 27  1  1
 28 29  2  0
 28 30  2  0
 28 31  1  0
M  END
