
     RDKit          3D

 29 30  0  0  0  0  0  0  0  0999 V2000
    2.5640   -2.1850    0.4030 C   0  0  0  0  0  0  0  0  0  0  0  0
    2.0110   -0.8100    0.6050 C   0  0  2  0  0  0  0  0  0  0  0  0
    2.6580   -0.0050    1.6670 C   0  0  0  0  0  0  0  0  0  0  0  0
    0.5060   -0.9240    0.9810 C   0  0  0  0  0  0  0  0  0  0  0  0
   -0.1930    0.0810    0.2940 N   0  0  0  0  0  0  0  0  0  0  0  0
   -1.5490    0.4160    0.1590 C   0  0  0  0  0  0  0  0  0  0  0  0
   -1.8310    1.4400   -0.6180 O   0  0  0  0  0  0  0  0  0  0  0  0
   -2.7450   -0.1980    0.7530 C   0  0  0  0  0  0  0  0  0  0  0  0
   -2.6870   -1.2280    1.5510 C   0  0  0  0  0  0  0  0  0  0  0  0
   -3.7350   -1.9760    2.2510 C   0  0  2  0  0  0  0  0  0  0  0  0
   -4.9060   -1.3290    2.4710 F   0  0  0  0  0  0  0  0  0  0  0  0
   -3.2420   -2.1830    3.6040 F   0  0  0  0  0  0  0  0  0  0  0  0
   -3.8490   -3.2530    1.7940 F   0  0  0  0  0  0  0  0  0  0  0  0
   -4.0150    0.3730    0.2320 C   0  0  0  0  0  0  0  0  0  0  0  0
   -4.1450    1.7580    0.1520 C   0  0  0  0  0  0  0  0  0  0  0  0
   -5.2340    2.3710   -0.4320 C   0  0  0  0  0  0  0  0  0  0  0  0
   -5.3360    3.7260   -0.4990 F   0  0  0  0  0  0  0  0  0  0  0  0
   -6.2400    1.6050   -0.9610 C   0  0  0  0  0  0  0  0  0  0  0  0
   -6.1380    0.2570   -0.8970 C   0  0  0  0  0  0  0  0  0  0  0  0
   -5.0250   -0.3710   -0.3020 C   0  0  0  0  0  0  0  0  0  0  0  0
   -5.0230   -1.7590   -0.3090 O   0  0  0  0  0  0  0  0  0  0  0  0
    0.8530    0.9210   -0.3860 C   0  0  0  0  0  0  0  0  0  0  0  0
    1.8740   -0.1260   -0.7230 C   0  0  1  0  0  0  0  0  0  0  0  0
    3.0980    0.5200   -1.2510 C   0  0  0  0  0  0  0  0  0  0  0  0
    4.2230   -0.3130   -1.4770 N   0  0  0  0  0  0  0  0  0  0  0  0
    5.5900    0.5280   -2.0910 S   0  0  2  0  0  0  0  0  0  0  0  0
    6.0880    1.7410   -0.8980 C   0  0  0  0  0  0  0  0  0  0  0  0
    5.1950    1.2580   -3.3420 O   0  0  0  0  0  0  0  0  0  0  0  0
    6.7200   -0.3710   -2.4220 O   0  0  0  0  0  0  0  0  0  0  0  0
  2  1  1  6
  2  3  1  0
  2  4  1  0
  2 23  1  0
  4  5  1  0
  5  6  1  0
  5 22  1  0
  6  7  2  0
  6  8  1  0
  8  9  2  3
  8 14  1  0
  9 10  1  0
 10 11  1  1
 10 12  1  0
 10 13  1  0
 14 15  2  0
 14 20  1  0
 15 16  1  0
 16 17  1  0
 16 18  2  0
 18 19  1  0
 19 20  2  0
 20 21  1  0
 22 23  1  0
 23 24  1  1
 24 25  1  0
 25 26  1  0
 26 27  1  1
 26 28  2  0
 26 29  2  0
M  END
