
     RDKit          3D

 31 34  0  0  0  0  0  0  0  0999 V2000
    4.6870    1.3560    1.7200 O   0  0  0  0  0  0  0  0  0  0  0  0
    5.5070    1.8520    0.9240 C   0  0  0  0  0  0  0  0  0  0  0  0
    5.8200    3.1880    1.0110 O   0  0  0  0  0  0  0  0  0  0  0  0
    6.1210    1.0030   -0.0880 C   0  0  0  0  0  0  0  0  0  0  0  0
    5.7840   -0.2930   -0.1320 C   0  0  0  0  0  0  0  0  0  0  0  0
    4.8860   -0.8480    0.7360 N   0  0  0  0  0  0  0  0  0  0  0  0
    4.7840   -2.1310    0.4220 C   0  0  0  0  0  0  0  0  0  0  0  0
    3.7230   -3.3160    1.2720 S   0  0  0  0  0  0  0  0  0  0  0  0
    2.1060   -3.3280    0.4550 C   0  0  0  0  0  0  0  0  0  0  0  0
    1.4490   -1.9640    0.6830 C   0  0  0  0  0  0  0  0  0  0  0  0
    0.1200   -1.9300    0.0320 C   0  0  0  0  0  0  0  0  0  0  0  0
   -0.2780   -2.9280   -0.5900 O   0  0  0  0  0  0  0  0  0  0  0  0
   -0.6620   -0.7580    0.1340 N   0  0  0  0  0  0  0  0  0  0  0  0
   -0.3180    0.4650    0.8240 C   0  0  0  0  0  0  0  0  0  0  0  0
   -1.6340    0.9910    1.3000 C   0  0  0  0  0  0  0  0  0  0  0  0
   -2.6810    0.3190    0.4780 C   0  0  1  0  0  0  0  0  0  0  0  0
   -3.3320    1.3250   -0.2960 O   0  0  0  0  0  0  0  0  0  0  0  0
   -4.6960    1.4670   -0.1700 C   0  0  0  0  0  0  0  0  0  0  0  0
   -5.4770    0.7410    0.6210 N   0  0  0  0  0  0  0  0  0  0  0  0
   -6.7240    1.1850    0.4550 C   0  0  0  0  0  0  0  0  0  0  0  0
   -6.7830    2.1800   -0.4210 N   0  0  0  0  0  0  0  0  0  0  0  0
   -5.5040    2.3540   -0.8120 N   0  0  0  0  0  0  0  0  0  0  0  0
   -8.0290    2.7390   -0.6850 C   0  0  0  0  0  0  0  0  0  0  0  0
   -8.2450    3.9120   -1.1540 O   0  0  0  0  0  0  0  0  0  0  0  0
   -9.1840    1.8490   -0.3740 C   0  0  0  0  0  0  0  0  0  0  0  0
   -8.4050    0.9040    1.0060 S   0  0  0  0  0  0  0  0  0  0  0  0
   -1.9730   -0.6010   -0.4560 C   0  0  0  0  0  0  0  0  0  0  0  0
    5.5730   -2.4080   -0.6010 N   0  0  0  0  0  0  0  0  0  0  0  0
    6.2310   -1.2680   -0.9890 C   0  0  0  0  0  0  0  0  0  0  0  0
    7.0880   -1.2230   -1.9820 C   0  0  0  0  0  0  0  0  0  0  0  0
    7.9080    0.2160   -2.4630 Cl  0  0  0  0  0  0  0  0  0  0  0  0
  1  2  2  0
  2  3  1  0
  2  4  1  0
  4  5  2  3
  5  6  1  0
  5 29  1  0
  6  7  2  0
  7  8  1  0
  7 28  1  0
  8  9  1  0
  9 10  1  0
 10 11  1  0
 11 12  2  0
 11 13  1  0
 13 14  1  0
 13 27  1  0
 14 15  1  0
 15 16  1  0
 16 17  1  6
 16 27  1  0
 17 18  1  0
 18 19  1  0
 18 22  2  0
 19 20  2  0
 20 21  1  0
 20 26  1  0
 21 22  1  0
 21 23  1  0
 23 24  2  0
 23 25  1  0
 25 26  1  0
 28 29  1  0
 29 30  2  3
 30 31  1  0
M  END
