
     RDKit          3D

 17 17  0  0  0  0  0  0  0  0999 V2000
   -5.9260   -0.5680   -1.0380 C   0  0  0  0  0  0  0  0  0  0  0  0
   -4.9790    0.4730   -0.9070 O   0  0  0  0  0  0  0  0  0  0  0  0
   -3.7990    0.3190   -0.1680 C   0  0  0  0  0  0  0  0  0  0  0  0
   -3.5900   -0.7860    0.3910 O   0  0  0  0  0  0  0  0  0  0  0  0
   -2.8080    1.4440   -0.0370 C   0  0  0  0  0  0  0  0  0  0  0  0
   -1.7870    1.0840    0.8050 O   0  0  0  0  0  0  0  0  0  0  0  0
   -0.8610    0.0380    0.6570 C   0  0  0  0  0  0  0  0  0  0  0  0
   -0.9710   -0.6450   -0.3640 O   0  0  0  0  0  0  0  0  0  0  0  0
    0.1280   -0.1310    1.7260 C   0  0  0  0  0  0  0  0  0  0  0  0
    1.5240   -1.1320    1.6010 S   0  0  0  0  0  0  0  0  0  0  0  0
    2.8570   -0.6080    0.6360 C   0  0  0  0  0  0  0  0  0  0  0  0
    4.0550   -0.5340    1.2630 C   0  0  0  0  0  0  0  0  0  0  0  0
    5.3140   -0.1110    0.6260 C   0  0  0  0  0  0  0  0  0  0  0  0
    5.1060    0.3530   -0.6960 O   0  0  0  0  0  0  0  0  0  0  0  0
    3.9020    0.2800   -1.3490 C   0  0  0  0  0  0  0  0  0  0  0  0
    2.7990   -0.1810   -0.7290 C   0  0  0  0  0  0  0  0  0  0  0  0
    1.6200   -0.2560   -1.5410 N   0  0  0  0  0  0  0  0  0  0  0  0
  1  2  1  0
  2  3  1  0
  3  4  2  0
  3  5  1  0
  5  6  1  0
  6  7  1  0
  7  8  2  0
  7  9  1  0
  9 10  1  0
 10 11  1  0
 11 12  2  0
 11 16  1  0
 12 13  1  0
 13 14  1  0
 14 15  1  0
 15 16  2  0
 16 17  1  0
M  END
