
     RDKit          3D

 22 23  0  0  0  0  0  0  0  0999 V2000
   -5.4820    0.4140   -0.6450 C   0  0  0  0  0  0  0  0  0  0  0  0
   -4.6200    0.6640    0.5740 C   0  0  0  0  0  0  0  0  0  0  0  0
   -3.5490   -0.3460    0.7290 C   0  0  0  0  0  0  0  0  0  0  0  0
   -2.3600   -0.4260    0.0100 C   0  0  0  0  0  0  0  0  0  0  0  0
   -2.0360    0.5520   -1.0890 C   0  0  0  0  0  0  0  0  0  0  0  0
   -0.7380    0.2710   -1.6340 N   0  0  0  0  0  0  0  0  0  0  0  0
    0.3630    0.3680   -0.7690 C   0  0  0  0  0  0  0  0  0  0  0  0
    0.3760    0.6850    0.4310 O   0  0  0  0  0  0  0  0  0  0  0  0
    1.6480    0.0860   -1.2270 N   0  0  0  0  0  0  0  0  0  0  0  0
    2.7760    0.2110   -0.4810 C   0  0  0  0  0  0  0  0  0  0  0  0
    3.2750    0.7860    0.6900 N   0  0  0  0  0  0  0  0  0  0  0  0
    3.7250   -0.4060   -1.2080 N   0  0  0  0  0  0  0  0  0  0  0  0
    4.9090   -0.2750   -0.4010 C   0  0  0  0  0  0  0  0  0  0  0  0
    5.5020    0.8590   -0.0300 C   0  0  0  0  0  0  0  0  0  0  0  0
    6.8560    0.6050    1.1690 S   0  0  0  0  0  0  0  0  0  0  0  0
    6.8430   -1.1400    1.3740 C   0  0  0  0  0  0  0  0  0  0  0  0
    7.7470   -1.7030    2.2240 O   0  0  0  0  0  0  0  0  0  0  0  0
    5.6580   -1.5830    0.4050 S   0  0  0  0  0  0  0  0  0  0  0  0
   -1.6310   -1.5010    0.4640 C   0  0  0  0  0  0  0  0  0  0  0  0
   -2.3520   -2.0470    1.4180 O   0  0  0  0  0  0  0  0  0  0  0  0
   -3.4810   -1.4040    1.6050 C   0  0  0  0  0  0  0  0  0  0  0  0
   -4.7540   -1.7710    2.7670 Cl  0  0  0  0  0  0  0  0  0  0  0  0
  1  2  1  0
  2  3  1  0
  3  4  1  0
  3 21  2  0
  4  5  1  0
  4 19  2  0
  5  6  1  0
  6  7  1  0
  7  8  2  0
  7  9  1  0
  9 10  1  0
 10 11  1  0
 10 12  2  3
 12 13  1  0
 13 14  2  0
 13 18  1  0
 14 15  1  0
 15 16  1  0
 16 17  2  0
 16 18  1  0
 19 20  1  0
 20 21  1  0
 21 22  1  0
M  END
