
     RDKit          3D

 22 23  0  0  0  0  0  0  0  0999 V2000
    7.9910    0.3760   -0.2960 C   0  0  0  0  0  0  0  0  0  0  0  0
    7.0510   -0.0020   -1.3680 C   0  0  0  0  0  0  0  0  0  0  0  0
    7.5000   -0.3200   -2.4840 O   0  0  0  0  0  0  0  0  0  0  0  0
    5.5980   -0.0150   -1.1650 C   0  0  0  0  0  0  0  0  0  0  0  0
    4.5760   -0.3270   -2.0080 C   0  0  0  0  0  0  0  0  0  0  0  0
    3.3250   -0.2440   -1.5250 C   0  0  0  0  0  0  0  0  0  0  0  0
    3.1050    0.1310   -0.2660 C   0  0  0  0  0  0  0  0  0  0  0  0
    1.9230    0.3060    0.5070 C   0  0  0  0  0  0  0  0  0  0  0  0
    1.6880    0.6710    1.7370 N   0  0  0  0  0  0  0  0  0  0  0  0
    0.5950    0.7730    2.2570 N   0  0  0  0  0  0  0  0  0  0  0  0
   -0.5590    0.5250    1.6440 C   0  0  0  0  0  0  0  0  0  0  0  0
   -1.8880    0.5310    1.8900 N   0  0  0  0  0  0  0  0  0  0  0  0
   -2.8450    0.1770    0.8990 C   0  0  0  0  0  0  0  0  0  0  0  0
   -2.4580   -0.1570   -0.2590 O   0  0  0  0  0  0  0  0  0  0  0  0
   -4.2700    0.2000    1.2140 C   0  0  0  0  0  0  0  0  0  0  0  0
   -4.6560    0.5310    2.3620 O   0  0  0  0  0  0  0  0  0  0  0  0
   -5.2680   -0.1430    0.2640 N   0  0  0  0  0  0  0  0  0  0  0  0
   -6.6950   -0.1100    0.6150 C   0  0  0  0  0  0  0  0  0  0  0  0
   -7.5020   -0.5260   -0.6060 C   0  0  0  0  0  0  0  0  0  0  0  0
   -7.2180    0.5630   -1.9650 Cl  0  0  0  0  0  0  0  0  0  0  0  0
    0.1880    0.0560   -0.0130 S   0  0  0  0  0  0  0  0  0  0  0  0
    4.7770    0.4030    0.3370 S   0  0  0  0  0  0  0  0  0  0  0  0
  1  2  1  0
  2  3  2  0
  2  4  1  0
  4  5  2  0
  4 22  1  0
  5  6  1  0
  6  7  2  0
  7  8  1  0
  7 22  1  0
  8  9  2  0
  8 21  1  0
  9 10  1  0
 10 11  2  0
 11 12  1  0
 11 21  1  0
 12 13  1  0
 13 14  2  0
 13 15  1  0
 15 16  2  0
 15 17  1  0
 17 18  1  0
 18 19  1  0
 19 20  1  0
M  END
