
     RDKit          3D

 22 23  0  0  0  0  0  0  0  0999 V2000
    4.8530    2.3940   -1.9000 C   0  0  0  0  0  0  0  0  0  0  0  0
    4.1620    1.3090   -1.1600 C   0  0  0  0  0  0  0  0  0  0  0  0
    4.6940    0.1880   -1.1140 O   0  0  0  0  0  0  0  0  0  0  0  0
    2.9360    1.5610   -0.5310 N   0  0  0  0  0  0  0  0  0  0  0  0
    2.1560    0.6400    0.2110 C   0  0  0  0  0  0  0  0  0  0  0  0
    2.4900   -0.6650    0.4610 C   0  0  0  0  0  0  0  0  0  0  0  0
    1.6740   -1.5260    1.2040 C   0  0  0  0  0  0  0  0  0  0  0  0
    0.4800   -1.0910    1.7260 C   0  0  0  0  0  0  0  0  0  0  0  0
   -0.5870   -2.1730    2.6820 S   0  0  0  0  0  0  0  0  0  0  0  0
   -1.6890   -3.0020    1.5170 C   0  0  0  0  0  0  0  0  0  0  0  0
   -2.6120   -2.0480    0.8850 C   0  0  0  0  0  0  0  0  0  0  0  0
   -3.7320   -1.8930    1.4400 O   0  0  0  0  0  0  0  0  0  0  0  0
   -2.2630   -1.3570   -0.2630 N   0  0  0  0  0  0  0  0  0  0  0  0
   -3.1680   -0.4240   -0.9140 C   0  0  0  0  0  0  0  0  0  0  0  0
   -3.2830    0.3050   -1.7890 N   0  0  0  0  0  0  0  0  0  0  0  0
   -4.2600    1.0590   -2.1770 N   0  0  0  0  0  0  0  0  0  0  0  0
   -5.3640    0.9820   -1.4090 C   0  0  0  0  0  0  0  0  0  0  0  0
   -6.5070    1.5720   -1.4830 O   0  0  0  0  0  0  0  0  0  0  0  0
   -4.8860   -0.2290   -0.1280 S   0  0  0  0  0  0  0  0  0  0  0  0
    0.1400    0.2180    1.4790 C   0  0  0  0  0  0  0  0  0  0  0  0
    0.9330    1.0650    0.7530 C   0  0  0  0  0  0  0  0  0  0  0  0
    0.4270    2.7370    0.4770 Cl  0  0  0  0  0  0  0  0  0  0  0  0
  1  2  1  0
  2  3  2  0
  2  4  1  0
  4  5  1  0
  5  6  2  0
  5 21  1  0
  6  7  1  0
  7  8  2  0
  8  9  1  0
  8 20  1  0
  9 10  1  0
 10 11  1  0
 11 12  2  0
 11 13  1  0
 13 14  1  0
 14 15  2  0
 14 19  1  0
 15 16  1  0
 16 17  1  0
 17 18  2  0
 17 19  1  0
 20 21  2  0
 21 22  1  0
M  END
