
     RDKit          3D

 22 22  0  0  0  0  0  0  0  0999 V2000
    2.9270   -3.4700    0.3020 C   0  0  0  0  0  0  0  0  0  0  0  0
    3.2430   -2.7180    1.5420 C   0  0  0  0  0  0  0  0  0  0  0  0
    3.4890   -1.4360    1.4880 C   0  0  0  0  0  0  0  0  0  0  0  0
    3.4730   -0.7020    0.2910 N   0  0  0  0  0  0  0  0  0  0  0  0
    2.3880   -0.2050   -0.2000 C   0  0  0  0  0  0  0  0  0  0  0  0
    1.2250   -0.4030    0.4700 C   0  0  0  0  0  0  0  0  0  0  0  0
   -0.0030    0.0990    0.0120 C   0  0  0  0  0  0  0  0  0  0  0  0
   -1.1550   -0.1400    0.7460 N   0  0  0  0  0  0  0  0  0  0  0  0
   -2.4600    0.2940    0.4240 C   0  0  0  0  0  0  0  0  0  0  0  0
   -2.7110    0.9540   -0.5840 O   0  0  0  0  0  0  0  0  0  0  0  0
   -3.5870   -0.0150    1.2650 N   0  0  0  0  0  0  0  0  0  0  0  0
   -4.9250    0.4490    0.9020 C   0  0  0  0  0  0  0  0  0  0  0  0
   -5.9440    0.0130    1.9190 C   0  0  0  0  0  0  0  0  0  0  0  0
    0.0740    0.8050   -1.1660 C   0  0  0  0  0  0  0  0  0  0  0  0
    1.2680    0.9900   -1.8250 C   0  0  0  0  0  0  0  0  0  0  0  0
    1.2970    1.8920   -3.3100 S   0  0  1  0  0  0  0  0  0  0  0  0
    1.5640    3.6230   -2.9720 C   0  0  0  0  0  0  0  0  0  0  0  0
    2.4330    1.4500   -4.2020 O   0  0  0  0  0  0  0  0  0  0  0  0
    0.0330    1.7130   -4.1000 O   0  0  0  0  0  0  0  0  0  0  0  0
    2.4190    0.4930   -1.3530 N   0  0  0  0  0  0  0  0  0  0  0  0
    3.8700   -0.5400    3.0010 S   0  0  0  0  0  0  0  0  0  0  0  0
    3.8300   -1.8560    4.6300 Cl  0  0  0  0  0  0  0  0  0  0  0  0
  1  2  1  0
  2  3  2  3
  3  4  1  0
  3 21  1  0
  4  5  2  3
  5  6  1  0
  5 20  1  0
  6  7  2  0
  7  8  1  0
  7 14  1  0
  8  9  1  0
  9 10  2  0
  9 11  1  0
 11 12  1  0
 12 13  1  0
 14 15  2  0
 15 16  1  0
 15 20  1  0
 16 17  1  1
 16 18  2  0
 16 19  2  0
 21 22  1  0
M  END
