
     RDKit          3D

 22 23  0  0  0  0  0  0  0  0999 V2000
    5.7950    0.3600   -0.9240 C   0  0  0  0  0  0  0  0  0  0  0  0
    5.8820   -0.6570   -0.1090 C   0  0  0  0  0  0  0  0  0  0  0  0
    4.7950   -1.2130    0.6670 C   0  0  0  0  0  0  0  0  0  0  0  0
    4.9990   -2.2480    1.4600 C   0  0  0  0  0  0  0  0  0  0  0  0
    6.5450   -3.0140    1.6370 Cl  0  0  0  0  0  0  0  0  0  0  0  0
    3.4660   -0.5820    0.5470 C   0  0  0  0  0  0  0  0  0  0  0  0
    2.8650    0.2620    0.0300 N   0  0  0  0  0  0  0  0  0  0  0  0
    1.6140    0.6290    0.1140 C   0  0  0  0  0  0  0  0  0  0  0  0
    0.9670    1.7860   -0.6450 C   0  0  0  0  0  0  0  0  0  0  0  0
   -0.3200    2.0720   -0.0810 N   0  0  0  0  0  0  0  0  0  0  0  0
   -1.3860    1.2340   -0.4230 C   0  0  0  0  0  0  0  0  0  0  0  0
   -1.3050    0.2170   -1.1910 O   0  0  0  0  0  0  0  0  0  0  0  0
   -2.6770    1.4030    0.0220 N   0  0  0  0  0  0  0  0  0  0  0  0
   -3.7210    0.4790   -0.2260 C   0  0  0  0  0  0  0  0  0  0  0  0
   -4.8340    1.1620   -0.0860 N   0  0  0  0  0  0  0  0  0  0  0  0
   -6.1520    0.1060   -0.4210 S   0  0  1  0  0  0  0  0  0  0  0  0
   -6.6140   -0.5990    0.7700 O   0  0  0  0  0  0  0  0  0  0  0  0
   -7.1050    0.7230   -1.3360 O   0  0  0  0  0  0  0  0  0  0  0  0
   -5.1140   -1.0800   -1.3810 C   0  0  0  0  0  0  0  0  0  0  0  0
   -3.9850   -0.9190   -0.3160 C   0  0  0  0  0  0  0  0  0  0  0  0
    0.8710   -0.1560    1.0010 C   0  0  0  0  0  0  0  0  0  0  0  0
    2.0830   -1.3360    1.6080 S   0  0  0  0  0  0  0  0  0  0  0  0
  1  2  2  0
  2  3  1  0
  3  4  2  3
  3  6  1  0
  4  5  1  0
  6  7  2  0
  6 22  1  0
  7  8  1  0
  8  9  1  0
  8 21  2  0
  9 10  1  0
 10 11  1  0
 11 12  2  0
 11 13  1  0
 13 14  1  0
 14 15  2  0
 14 20  1  0
 15 16  1  0
 16 17  2  0
 16 18  2  0
 16 19  1  6
 19 20  1  0
 21 22  1  0
M  END
