
     RDKit          3D

 21 21  0  0  0  0  0  0  0  0999 V2000
    5.4310    0.3170   -1.6590 C   0  0  0  0  0  0  0  0  0  0  0  0
    4.6370    0.6690   -0.5530 O   0  0  0  0  0  0  0  0  0  0  0  0
    3.4720   -0.1120   -0.6240 C   0  0  0  0  0  0  0  0  0  0  0  0
    2.6270    0.2830    0.5780 C   0  0  2  0  0  0  0  0  0  0  0  0
    3.3120    0.0340    1.7660 O   0  0  0  0  0  0  0  0  0  0  0  0
    1.2990   -0.4710    0.5610 C   0  0  1  0  0  0  0  0  0  0  0  0
    0.5010   -0.0500    1.7630 C   0  0  0  0  0  0  0  0  0  0  0  0
   -0.8440   -0.1800    1.5040 O   0  0  0  0  0  0  0  0  0  0  0  0
   -1.6140   -0.2550    2.6450 C   0  0  0  0  0  0  0  0  0  0  0  0
   -2.8930   -0.9630    2.4460 C   0  0  0  0  0  0  0  0  0  0  0  0
   -3.0380   -2.0780    2.9920 O   0  0  0  0  0  0  0  0  0  0  0  0
   -3.8740   -0.4150    1.6940 O   0  0  0  0  0  0  0  0  0  0  0  0
   -3.7440    0.3040    0.5030 C   0  0  0  0  0  0  0  0  0  0  0  0
   -3.4960   -0.5800   -0.6980 C   0  0  2  0  0  0  0  0  0  0  0  0
   -2.7750   -1.7170   -0.3730 O   0  0  0  0  0  0  0  0  0  0  0  0
   -2.8270    0.2270   -1.7800 C   0  0  1  0  0  0  0  0  0  0  0  0
   -2.9860    1.6060   -1.5580 O   0  0  0  0  0  0  0  0  0  0  0  0
   -1.3450   -0.0530   -1.8700 C   0  0  0  0  0  0  0  0  0  0  0  0
   -0.7740   -0.3500   -0.6590 O   0  0  0  0  0  0  0  0  0  0  0  0
    0.6050   -0.1070   -0.7320 C   0  0  1  0  0  0  0  0  0  0  0  0
    0.7780    1.2500   -0.9590 O   0  0  0  0  0  0  0  0  0  0  0  0
  1  2  1  0
  2  3  1  0
  3  4  1  0
  4  5  1  1
  4  6  1  0
  6  7  1  1
  6 20  1  0
  7  8  1  0
  8  9  1  0
  9 10  1  0
 10 11  2  0
 10 12  1  0
 12 13  1  0
 13 14  1  0
 14 15  1  1
 14 16  1  0
 16 17  1  1
 16 18  1  0
 18 19  1  0
 19 20  1  0
 20 21  1  1
M  END
