
     RDKit          3D

 21 21  0  0  0  0  0  0  0  0999 V2000
   -0.7680   -3.4350   -0.0170 O   0  0  0  0  0  0  0  0  0  0  0  0
    0.0380   -2.5620    0.6960 C   0  0  0  0  0  0  0  0  0  0  0  0
   -0.5250   -1.1530    0.5740 C   0  0  1  0  0  0  0  0  0  0  0  0
   -1.8030   -1.0750    1.0730 O   0  0  0  0  0  0  0  0  0  0  0  0
   -2.7040   -1.6740    0.2120 C   0  0  0  0  0  0  0  0  0  0  0  0
   -3.9760   -0.9120    0.0150 C   0  0  2  0  0  0  0  0  0  0  0  0
   -4.2930   -0.7450   -1.3410 O   0  0  0  0  0  0  0  0  0  0  0  0
   -4.0440    0.3810    0.7650 C   0  0  0  0  0  0  0  0  0  0  0  0
   -2.9290    1.1660    0.6690 O   0  0  0  0  0  0  0  0  0  0  0  0
   -2.7700    1.8130   -0.5370 C   0  0  0  0  0  0  0  0  0  0  0  0
   -1.3970    2.4460   -0.5980 C   0  0  0  0  0  0  0  0  0  0  0  0
   -0.5240    1.8800    0.3220 O   0  0  0  0  0  0  0  0  0  0  0  0
    0.7610    1.7070   -0.1660 C   0  0  0  0  0  0  0  0  0  0  0  0
    1.1780    0.2880    0.1780 C   0  0  1  0  0  0  0  0  0  0  0  0
    2.6250    0.3280    0.6510 C   0  0  1  0  0  0  0  0  0  0  0  0
    3.1110   -0.9220    0.9690 O   0  0  0  0  0  0  0  0  0  0  0  0
    3.4910    0.9800   -0.4080 C   0  0  2  0  0  0  0  0  0  0  0  0
    3.4920    0.1840   -1.5590 O   0  0  0  0  0  0  0  0  0  0  0  0
    4.9040    1.1370    0.1410 C   0  0  0  0  0  0  0  0  0  0  0  0
    5.4550   -0.0770    0.4730 O   0  0  0  0  0  0  0  0  0  0  0  0
    0.3480   -0.2400    1.1650 O   0  0  0  0  0  0  0  0  0  0  0  0
  1  2  1  0
  3  2  1  1
  3  4  1  0
  3 21  1  0
  4  5  1  0
  5  6  1  0
  6  7  1  6
  6  8  1  0
  8  9  1  0
  9 10  1  0
 10 11  1  0
 11 12  1  0
 12 13  1  0
 14 13  1  1
 14 15  1  0
 14 21  1  0
 15 16  1  6
 15 17  1  0
 17 18  1  6
 17 19  1  0
 19 20  1  0
M  END
