
     RDKit          3D

 10 11  0  0  0  0  0  0  0  0999 V2000
    3.7110    0.0080   -0.1960 N   0  0  0  0  0  0  0  0  0  0  0  0
    2.2700    0.0750   -0.1380 C   0  0  0  0  0  0  0  0  0  0  0  0
    1.3340    0.7450   -0.2490 N   0  0  0  0  0  0  0  0  0  0  0  0
    0.0520    0.4790   -0.1200 C   0  0  0  0  0  0  0  0  0  0  0  0
   -1.0690    1.3200   -0.2630 C   0  0  0  0  0  0  0  0  0  0  0  0
   -2.3280    0.8310   -0.0820 C   0  0  0  0  0  0  0  0  0  0  0  0
   -2.6240   -0.4750    0.2440 C   0  0  0  0  0  0  0  0  0  0  0  0
   -1.5180   -1.3200    0.3880 C   0  0  0  0  0  0  0  0  0  0  0  0
   -0.2440   -0.8110    0.2020 C   0  0  0  0  0  0  0  0  0  0  0  0
    1.3900   -1.5810    0.3010 S   0  0  0  0  0  0  0  0  0  0  0  0
  1  2  1  0
  2  3  2  0
  2 10  1  0
  3  4  1  0
  4  5  2  0
  4  9  1  0
  5  6  1  0
  6  7  2  0
  7  8  1  0
  8  9  2  0
  9 10  1  0
M  END
