
     RDKit          3D

 21 21  0  0  0  0  0  0  0  0999 V2000
   -4.1860    1.0930    1.5290 C   0  0  0  0  0  0  0  0  0  0  0  0
   -2.9970    0.9780    0.7490 O   0  0  0  0  0  0  0  0  0  0  0  0
   -2.7030   -0.1590    0.0150 C   0  0  0  0  0  0  0  0  0  0  0  0
   -3.4670   -1.1290    0.0080 O   0  0  0  0  0  0  0  0  0  0  0  0
   -1.4070   -0.1360   -0.7620 C   0  0  1  0  0  0  0  0  0  0  0  0
   -1.5670    1.0820   -1.6890 C   0  0  0  0  0  0  0  0  0  0  0  0
   -2.6980    0.8780   -2.5150 O   0  0  0  0  0  0  0  0  0  0  0  0
   -0.3420    0.1260    0.2800 C   0  0  2  0  0  0  0  0  0  0  0  0
   -0.4770    1.4330    0.7250 O   0  0  0  0  0  0  0  0  0  0  0  0
    0.9800   -0.2520   -0.2760 C   0  0  1  0  0  0  0  0  0  0  0  0
    1.2660    0.3970   -1.4870 O   0  0  0  0  0  0  0  0  0  0  0  0
    2.1230   -0.0400    0.6310 C   0  0  0  0  0  0  0  0  0  0  0  0
    2.3110    1.3880    1.0330 C   0  0  0  0  0  0  0  0  0  0  0  0
    3.5640    1.5180    1.9370 C   0  0  0  0  0  0  0  0  0  0  0  0
    3.7350    2.8480    2.3090 O   0  0  0  0  0  0  0  0  0  0  0  0
    0.8470   -1.7380   -0.6540 C   0  0  1  0  0  0  0  0  0  0  0  0
    2.1840   -2.3370   -1.0080 C   0  0  0  0  0  0  0  0  0  0  0  0
    0.3510   -2.3820    0.4540 O   0  0  0  0  0  0  0  0  0  0  0  0
    0.0460   -1.7830   -1.7680 O   0  0  0  0  0  0  0  0  0  0  0  0
   -1.2460   -1.3630   -1.5510 C   0  0  1  0  0  0  0  0  0  0  0  0
   -2.0440   -2.3910   -1.0040 O   0  0  0  0  0  0  0  0  0  0  0  0
  1  2  1  0
  2  3  1  0
  3  4  2  0
  3  5  1  0
  5  6  1  6
  5  8  1  0
  5 20  1  0
  6  7  1  0
  8  9  1  6
  8 10  1  0
 10 11  1  6
 10 12  1  0
 10 16  1  0
 12 13  1  0
 13 14  1  0
 14 15  1  0
 16 17  1  6
 16 18  1  0
 16 19  1  0
 19 20  1  0
 20 21  1  1
M  END
