
     RDKit          3D

  6  5  0  0  0  0  0  0  0  0999 V2000
    3.1690    0.4470   -0.1360 N   0  0  0  0  0  0  0  0  0  0  0  0
    2.0940   -0.2120    0.1150 C   0  0  0  0  0  0  0  0  0  0  0  0
    0.8280    0.0810   -0.5330 C   0  0  0  0  0  0  0  0  0  0  0  0
   -0.2790   -0.5890   -0.2810 C   0  0  0  0  0  0  0  0  0  0  0  0
   -1.5130   -0.2390   -0.9710 C   0  0  0  0  0  0  0  0  0  0  0  0
   -2.5840    0.1620   -0.0850 N   0  0  0  0  0  0  0  0  0  0  0  0
  1  2  2  0
  2  3  1  0
  3  4  2  3
  4  5  1  0
  5  6  1  0
M  CHG  2   1   1   6   1
M  END
