
     RDKit          3D

 21 21  0  0  0  0  0  0  0  0999 V2000
   -2.5290   -1.8110    1.7070 O   0  0  0  0  0  0  0  0  0  0  0  0
   -1.4500   -1.6130    0.8160 C   0  0  1  0  0  0  0  0  0  0  0  0
   -1.0640   -2.9340    0.1990 C   0  0  0  0  0  0  0  0  0  0  0  0
    0.2270   -3.3370    0.5890 O   0  0  0  0  0  0  0  0  0  0  0  0
    1.1870   -2.8010   -0.3010 C   0  0  0  0  0  0  0  0  0  0  0  0
    2.4030   -2.4980    0.4670 C   0  0  0  0  0  0  0  0  0  0  0  0
    3.2970   -1.6330   -0.0240 O   0  0  0  0  0  0  0  0  0  0  0  0
    2.9290   -0.4660   -0.5600 C   0  0  2  0  0  0  0  0  0  0  0  0
    3.9230   -0.1000   -1.4960 O   0  0  0  0  0  0  0  0  0  0  0  0
    2.8980    0.7040    0.4320 C   0  0  1  0  0  0  0  0  0  0  0  0
    4.1870    1.2830    0.5030 O   0  0  0  0  0  0  0  0  0  0  0  0
    1.9730    1.7860   -0.1090 C   0  0  0  0  0  0  0  0  0  0  0  0
    0.9060    2.0320    0.7480 O   0  0  0  0  0  0  0  0  0  0  0  0
   -0.1480    2.5410   -0.0360 C   0  0  0  0  0  0  0  0  0  0  0  0
   -1.4510    2.5560    0.7090 C   0  0  1  0  0  0  0  0  0  0  0  0
   -1.8200    3.9060    0.8630 O   0  0  0  0  0  0  0  0  0  0  0  0
   -2.5480    1.8020   -0.0290 C   0  0  1  0  0  0  0  0  0  0  0  0
   -2.3810    1.8460   -1.4030 O   0  0  0  0  0  0  0  0  0  0  0  0
   -2.7540    0.4190    0.5050 C   0  0  0  0  0  0  0  0  0  0  0  0
   -1.9810   -0.6370   -0.2370 C   0  0  2  0  0  0  0  0  0  0  0  0
   -2.7760   -1.3780   -1.1010 O   0  0  0  0  0  0  0  0  0  0  0  0
  2  1  1  1
  2  3  1  0
  2 20  1  0
  3  4  1  0
  4  5  1  0
  5  6  1  0
  6  7  1  0
  7  8  1  0
  8  9  1  6
  8 10  1  0
 10 11  1  6
 10 12  1  0
 12 13  1  0
 13 14  1  0
 14 15  1  0
 15 16  1  6
 15 17  1  0
 17 18  1  6
 17 19  1  0
 19 20  1  0
 20 21  1  6
M  END
