
     RDKit          3D

 23 23  0  0  0  0  0  0  0  0999 V2000
    0.7960   -1.1990   -3.8050 N   0  0  0  0  0  0  0  0  0  0  0  0
    0.3980   -2.1970   -3.0830 C   0  0  0  0  0  0  0  0  0  0  0  0
    0.5840   -2.1620   -1.6520 N   0  0  0  0  0  0  0  0  0  0  0  0
    1.5140   -1.2460   -1.1080 C   0  0  0  0  0  0  0  0  0  0  0  0
    1.1570   -0.3040   -0.2660 C   0  0  0  0  0  0  0  0  0  0  0  0
   -0.1760   -0.0200    0.2500 C   0  0  0  0  0  0  0  0  0  0  0  0
   -1.3700   -0.4630   -0.3470 N   0  0  0  0  0  0  0  0  0  0  0  0
   -2.6190   -0.2060    0.3850 C   0  0  0  0  0  0  0  0  0  0  0  0
   -3.1870    0.9380    0.2260 C   0  0  0  0  0  0  0  0  0  0  0  0
   -4.3820    1.4520    0.7970 C   0  0  0  0  0  0  0  0  0  0  0  0
   -5.1730    0.8990    1.6020 O   0  0  0  0  0  0  0  0  0  0  0  0
   -4.8070    2.7740    0.4560 O   0  0  0  0  0  0  0  0  0  0  0  0
   -3.0870   -1.2680    1.2140 C   0  0  0  0  0  0  0  0  0  0  0  0
   -2.3870   -2.3820    1.2680 N   0  0  0  0  0  0  0  0  0  0  0  0
   -4.2090   -1.2540    1.9740 O   0  0  0  0  0  0  0  0  0  0  0  0
   -0.0390    0.6980    1.3280 N   0  0  0  0  0  0  0  0  0  0  0  0
    1.2900    0.9290    1.5910 O   0  0  0  0  0  0  0  0  0  0  0  0
    2.0180    0.7370    0.4000 C   0  0  1  0  0  0  0  0  0  0  0  0
    3.3620    0.1310    0.6080 C   0  0  0  0  0  0  0  0  0  0  0  0
    4.2200    0.8820    1.4290 O   0  0  0  0  0  0  0  0  0  0  0  0
    4.6120    2.1760    1.1170 C   0  0  0  0  0  0  0  0  0  0  0  0
    4.1610    2.6620    0.0470 O   0  0  0  0  0  0  0  0  0  0  0  0
    5.4700    2.9130    1.9480 O   0  0  0  0  0  0  0  0  0  0  0  0
  1  2  2  0
  2  3  1  0
  3  4  1  0
  4  5  2  3
  5  6  1  0
  5 18  1  0
  6  7  1  0
  6 16  2  0
  7  8  1  0
  8  9  2  3
  8 13  1  0
  9 10  1  0
 10 11  2  0
 10 12  1  0
 13 14  2  0
 13 15  1  0
 16 17  1  0
 17 18  1  0
 18 19  1  1
 19 20  1  0
 20 21  1  0
 21 22  2  0
 21 23  1  0
M  END
