
     RDKit          3D

 23 25  0  0  0  0  0  0  0  0999 V2000
    0.0920    5.4850   -1.2580 O   0  0  0  0  0  0  0  0  0  0  0  0
    0.3370    4.2050   -1.1710 O   0  0  0  0  0  0  0  0  0  0  0  0
    0.7750    3.9590    0.1410 C   0  0  0  0  0  0  0  0  0  0  0  0
    1.0850    2.4690    0.3230 C   0  0  0  0  0  0  0  0  0  0  0  0
   -0.1020    1.6860    0.0710 N   0  0  0  0  0  0  0  0  0  0  0  0
   -0.0380    0.4130    0.0580 C   0  0  0  0  0  0  0  0  0  0  0  0
   -1.2320   -0.4290   -0.1970 C   0  0  1  0  0  0  0  0  0  0  0  0
   -1.4270   -1.3020    1.0260 C   0  0  0  0  0  0  0  0  0  0  0  0
   -2.7520   -1.1270    1.4010 O   0  0  0  0  0  0  0  0  0  0  0  0
   -3.3690   -0.3760    0.4280 C   0  0  2  0  0  0  0  0  0  0  0  0
   -4.2320   -1.2670   -0.4010 C   0  0  0  0  0  0  0  0  0  0  0  0
   -4.8980   -0.5860   -1.4170 O   0  0  0  0  0  0  0  0  0  0  0  0
   -5.6420   -1.4190   -2.1120 O   0  0  0  0  0  0  0  0  0  0  0  0
   -2.3990    0.2910   -0.2870 O   0  0  0  0  0  0  0  0  0  0  0  0
    1.1960   -0.2670    0.2890 N   0  0  0  0  0  0  0  0  0  0  0  0
    2.2620    0.2210    0.9130 N   0  0  0  0  0  0  0  0  0  0  0  0
    3.2400   -0.7020    0.9450 C   0  0  0  0  0  0  0  0  0  0  0  0
    4.4820   -0.9980    1.3310 N   0  0  0  0  0  0  0  0  0  0  0  0
    4.8010   -2.2610    0.9620 C   0  0  0  0  0  0  0  0  0  0  0  0
    3.7280   -2.8070    0.3130 C   0  0  0  0  0  0  0  0  0  0  0  0
    3.5990   -4.0790   -0.2400 O   0  0  0  0  0  0  0  0  0  0  0  0
    2.7530   -1.8170    0.3090 C   0  0  0  0  0  0  0  0  0  0  0  0
    1.5080   -1.5170   -0.0770 N   0  0  0  0  0  0  0  0  0  0  0  0
  1  2  1  0
  2  3  1  0
  3  4  1  0
  4  5  1  0
  5  6  2  3
  7  6  1  1
  6 15  1  0
  7  8  1  0
  7 14  1  0
  8  9  1  0
  9 10  1  0
 10 11  1  6
 10 14  1  0
 11 12  1  0
 12 13  1  0
 15 16  1  0
 15 23  1  0
 16 17  2  0
 17 18  1  0
 17 22  1  0
 18 19  1  0
 19 20  2  0
 20 21  1  0
 20 22  1  0
 22 23  2  0
M  END
