
     RDKit          3D

 22 23  0  0  0  0  0  0  0  0999 V2000
    4.1880    0.4390    1.5140 N   0  0  0  0  0  0  0  0  0  0  0  0
    3.7530    0.1900    0.3310 C   0  0  0  0  0  0  0  0  0  0  0  0
    2.3640    0.0420    0.1370 N   0  0  0  0  0  0  0  0  0  0  0  0
    1.4500   -0.0300    1.2540 C   0  0  0  0  0  0  0  0  0  0  0  0
    0.0870   -0.1800    0.8430 N   0  0  0  0  0  0  0  0  0  0  0  0
   -0.6400   -1.3890    0.6110 C   0  0  0  0  0  0  0  0  0  0  0  0
   -0.1680   -2.5420    0.7390 O   0  0  0  0  0  0  0  0  0  0  0  0
   -1.9890   -1.0740    0.2090 C   0  0  0  0  0  0  0  0  0  0  0  0
   -2.1120    0.2650    0.1870 C   0  0  0  0  0  0  0  0  0  0  0  0
   -0.8430    0.8610    0.5750 C   0  0  0  0  0  0  0  0  0  0  0  0
   -0.6370    2.0930    0.6520 O   0  0  0  0  0  0  0  0  0  0  0  0
   -3.3150    1.0470   -0.1670 C   0  0  0  0  0  0  0  0  0  0  0  0
   -3.1130    2.2320   -0.6950 C   0  0  0  0  0  0  0  0  0  0  0  0
   -4.2570    2.9660   -1.0260 O   0  0  0  0  0  0  0  0  0  0  0  0
   -4.6180    0.6110    0.0220 O   0  0  0  0  0  0  0  0  0  0  0  0
   -5.0740   -0.6700    0.3330 C   0  0  0  0  0  0  0  0  0  0  0  0
   -4.4310   -1.7940   -0.3980 C   0  0  0  0  0  0  0  0  0  0  0  0
   -3.0380   -1.9820   -0.1110 N   0  0  0  0  0  0  0  0  0  0  0  0
    4.6890    0.0690   -0.7620 N   0  0  0  0  0  0  0  0  0  0  0  0
    6.3860    0.4630   -0.4310 P   0  0  0  0  0  0  0  0  0  0  0  0
    7.4260   -0.9170   -0.5500 O   0  0  0  0  0  0  0  0  0  0  0  0
    6.9570    1.6680   -1.5500 O   0  0  0  0  0  0  0  0  0  0  0  0
  1  2  2  0
  2  3  1  0
  2 19  1  0
  3  4  1  0
  4  5  1  0
  5  6  1  0
  5 10  1  0
  6  7  2  0
  6  8  1  0
  8  9  2  0
  8 18  1  0
  9 10  1  0
  9 12  1  0
 10 11  2  0
 12 13  2  3
 12 15  1  0
 13 14  1  0
 15 16  1  0
 16 17  1  0
 17 18  1  0
 19 20  1  0
 20 21  1  0
 20 22  1  0
M  END
