
     RDKit          3D

 22 23  0  0  0  0  0  0  0  0999 V2000
   -6.1490   -0.1660   -0.3010 N   0  0  0  0  0  0  0  0  0  0  0  0
   -5.6120   -0.8370    0.8230 C   0  0  0  0  0  0  0  0  0  0  0  0
   -6.3340   -1.2890    1.7190 O   0  0  0  0  0  0  0  0  0  0  0  0
   -4.1690   -0.9890    0.9480 C   0  0  0  0  0  0  0  0  0  0  0  0
   -3.4200   -1.4090    1.9760 N   0  0  0  0  0  0  0  0  0  0  0  0
   -2.1560   -1.2340    1.6780 N   0  0  0  0  0  0  0  0  0  0  0  0
   -1.9880   -0.7120    0.4620 C   0  0  0  0  0  0  0  0  0  0  0  0
   -0.8720   -0.3780   -0.4090 C   0  0  2  0  0  0  0  0  0  0  0  0
    0.2240   -1.3020   -0.3320 O   0  0  0  0  0  0  0  0  0  0  0  0
    1.2640   -0.6650   -0.9440 C   0  0  2  0  0  0  0  0  0  0  0  0
    2.5540   -0.5320   -0.1050 C   0  0  0  0  0  0  0  0  0  0  0  0
    3.4660    0.1890   -0.7680 O   0  0  0  0  0  0  0  0  0  0  0  0
    4.8400    0.6020   -0.0460 P   0  0  0  0  0  0  0  0  0  0  0  0
    4.9450   -0.6790    0.7120 O   0  0  0  0  0  0  0  0  0  0  0  0
    4.9000    1.6090    1.2580 O   0  0  0  0  0  0  0  0  0  0  0  0
    6.3370    0.2920   -0.7890 O   0  0  0  0  0  0  0  0  0  0  0  0
    0.8660    0.8380   -1.0940 C   0  0  1  0  0  0  0  0  0  0  0  0
    0.1310    0.9060   -2.2360 O   0  0  0  0  0  0  0  0  0  0  0  0
   -0.0360    0.8250    0.1660 C   0  0  1  0  0  0  0  0  0  0  0  0
   -0.7970    1.9730    0.2230 O   0  0  0  0  0  0  0  0  0  0  0  0
   -3.3100   -0.5520   -0.0240 C   0  0  0  0  0  0  0  0  0  0  0  0
   -3.6630   -0.0300   -1.2890 O   0  0  0  0  0  0  0  0  0  0  0  0
  1  2  1  0
  2  3  2  0
  2  4  1  0
  4  5  1  0
  4 21  2  0
  5  6  1  0
  6  7  2  0
  8  7  1  1
  7 21  1  0
  8  9  1  0
  8 19  1  0
  9 10  1  0
 10 11  1  1
 10 17  1  0
 11 12  1  0
 12 13  1  0
 13 14  1  0
 13 15  1  0
 13 16  1  0
 17 18  1  6
 17 19  1  0
 19 20  1  6
 21 22  1  0
M  END
