
     RDKit          3D

 28 31  0  0  0  0  0  0  0  0999 V2000
    0.3650   -1.8420    0.3300 O   0  0  0  0  0  0  0  0  0  0  0  0
   -0.4950   -1.1350   -0.3080 C   0  0  0  0  0  0  0  0  0  0  0  0
    0.0230   -0.2210   -1.3480 C   0  0  0  0  0  0  0  0  0  0  0  0
    1.8440   -0.1730   -1.3330 S   0  0  0  0  0  0  0  0  0  0  0  0
    2.3420    0.5710    0.2130 C   0  0  0  0  0  0  0  0  0  0  0  0
    1.5970    1.0130    1.1790 N   0  0  0  0  0  0  0  0  0  0  0  0
    2.3990    1.5260    2.2250 C   0  0  0  0  0  0  0  0  0  0  0  0
    3.6840    1.4050    1.9130 C   0  0  0  0  0  0  0  0  0  0  0  0
    3.7150    0.7880    0.6100 C   0  0  0  0  0  0  0  0  0  0  0  0
    4.8240    0.4800   -0.0900 C   0  0  0  0  0  0  0  0  0  0  0  0
    6.1420    0.7450    0.4100 C   0  0  0  0  0  0  0  0  0  0  0  0
    7.2960    0.5100   -0.1380 C   0  0  0  0  0  0  0  0  0  0  0  0
    8.4520    0.8820    0.5940 O   0  0  0  0  0  0  0  0  0  0  0  0
    7.5540   -0.1010   -1.4430 C   0  0  1  0  0  0  0  0  0  0  0  0
    8.3620   -1.2280   -1.1950 F   0  0  0  0  0  0  0  0  0  0  0  0
    6.4820   -0.5580   -2.1310 F   0  0  0  0  0  0  0  0  0  0  0  0
   -1.8710   -1.2460   -0.0040 N   0  0  0  0  0  0  0  0  0  0  0  0
   -2.3740   -2.2170    0.9900 C   0  0  0  0  0  0  0  0  0  0  0  0
   -3.6380   -1.5270    1.5220 C   0  0  0  0  0  0  0  0  0  0  0  0
   -4.1000   -0.7010    0.3700 C   0  0  0  0  0  0  0  0  0  0  0  0
   -3.0220   -0.5780   -0.4790 C   0  0  0  0  0  0  0  0  0  0  0  0
   -3.2250    0.1590   -1.6260 C   0  0  0  0  0  0  0  0  0  0  0  0
   -4.4310    0.7260   -1.8870 N   0  0  0  0  0  0  0  0  0  0  0  0
   -5.4610    0.5860   -1.0370 C   0  0  0  0  0  0  0  0  0  0  0  0
   -5.3370   -0.1370    0.1330 C   0  0  0  0  0  0  0  0  0  0  0  0
   -6.6530   -0.0830    0.8210 C   0  0  0  0  0  0  0  0  0  0  0  0
   -7.3270    1.1010    0.1670 C   0  0  0  0  0  0  0  0  0  0  0  0
   -6.7490    1.0940   -1.1460 O   0  0  0  0  0  0  0  0  0  0  0  0
  1  2  2  0
  2  3  1  0
  2 17  1  0
  3  4  1  0
  4  5  1  0
  5  6  2  0
  5  9  1  0
  6  7  1  0
  7  8  2  0
  8  9  1  0
  9 10  2  3
 10 11  1  0
 11 12  2  3
 12 13  1  0
 12 14  1  0
 14 15  1  1
 14 16  1  0
 17 18  1  0
 17 21  1  0
 18 19  1  0
 19 20  1  0
 20 21  2  0
 20 25  1  0
 21 22  1  0
 22 23  2  0
 23 24  1  0
 24 25  2  0
 24 28  1  0
 25 26  1  0
 26 27  1  0
 27 28  1  0
M  END
