
     RDKit          3D

 29 32  0  0  0  0  0  0  0  0999 V2000
   -6.4830    1.3160    0.3900 C   0  0  0  0  0  0  0  0  0  0  0  0
   -6.6250   -0.0840    0.1930 O   0  0  0  0  0  0  0  0  0  0  0  0
   -5.4690   -0.8500   -0.0230 C   0  0  0  0  0  0  0  0  0  0  0  0
   -4.2200   -0.2860   -0.0470 C   0  0  0  0  0  0  0  0  0  0  0  0
   -3.0380   -1.0090   -0.2580 C   0  0  0  0  0  0  0  0  0  0  0  0
   -1.7510   -0.3390   -0.2700 C   0  0  0  0  0  0  0  0  0  0  0  0
   -1.7180    0.9910   -0.0730 N   0  0  0  0  0  0  0  0  0  0  0  0
   -0.5320    1.6700   -0.0740 C   0  0  0  0  0  0  0  0  0  0  0  0
   -0.1370    3.3450    0.1280 S   0  0  0  0  0  0  0  0  0  0  0  0
    1.6380    3.1770   -0.0560 C   0  0  0  0  0  0  0  0  0  0  0  0
    1.7820    1.8110   -0.2620 C   0  0  0  0  0  0  0  0  0  0  0  0
    3.1800    1.2820   -0.4190 C   0  0  0  0  0  0  0  0  0  0  0  0
    4.0130    1.7330   -1.4090 C   0  0  0  0  0  0  0  0  0  0  0  0
    5.3230    1.2620   -1.5370 C   0  0  0  0  0  0  0  0  0  0  0  0
    5.7630    0.3440   -0.6600 N   0  0  0  0  0  0  0  0  0  0  0  0
    4.9700   -0.1250    0.3310 C   0  0  0  0  0  0  0  0  0  0  0  0
    5.4180   -1.0720    1.2390 O   0  0  0  0  0  0  0  0  0  0  0  0
    6.7350   -1.5550    1.1210 C   0  0  1  0  0  0  0  0  0  0  0  0
    7.3940   -1.1760    2.2970 F   0  0  0  0  0  0  0  0  0  0  0  0
    6.7700   -2.9250    0.9660 F   0  0  0  0  0  0  0  0  0  0  0  0
    3.6590    0.3490    0.4570 C   0  0  0  0  0  0  0  0  0  0  0  0
    0.6770    1.0450   -0.2720 C   0  0  0  0  0  0  0  0  0  0  0  0
    0.5790   -0.3550   -0.4750 C   0  0  0  0  0  0  0  0  0  0  0  0
    1.5890   -1.0750   -0.6740 O   0  0  0  0  0  0  0  0  0  0  0  0
   -0.5950   -0.9670   -0.4650 N   0  0  0  0  0  0  0  0  0  0  0  0
   -3.1980   -2.3610   -0.4470 C   0  0  0  0  0  0  0  0  0  0  0  0
   -4.4690   -2.9580   -0.4260 C   0  0  0  0  0  0  0  0  0  0  0  0
   -5.5950   -2.1970   -0.2140 C   0  0  0  0  0  0  0  0  0  0  0  0
   -6.8250   -2.7750   -0.1940 F   0  0  0  0  0  0  0  0  0  0  0  0
  1  2  1  0
  2  3  1  0
  3  4  2  0
  3 28  1  0
  4  5  1  0
  5  6  1  0
  5 26  2  0
  6  7  2  0
  6 25  1  0
  7  8  1  0
  8  9  1  0
  8 22  2  0
  9 10  1  0
 10 11  2  0
 11 12  1  0
 11 22  1  0
 12 13  2  0
 12 21  1  0
 13 14  1  0
 14 15  2  0
 15 16  1  0
 16 17  1  0
 16 21  2  0
 17 18  1  0
 18 19  1  1
 18 20  1  0
 22 23  1  0
 23 24  2  0
 23 25  1  0
 26 27  1  0
 27 28  2  0
 28 29  1  0
M  END
