
     RDKit          3D

 29 31  0  0  0  0  0  0  0  0999 V2000
    8.4610   -0.7920    1.2250 C   0  0  0  0  0  0  0  0  0  0  0  0
    7.4930    0.0290    1.6080 C   0  0  0  0  0  0  0  0  0  0  0  0
    6.9080    0.9720    0.7300 N   0  0  0  0  0  0  0  0  0  0  0  0
    7.6500    2.1620    0.3990 C   0  0  0  0  0  0  0  0  0  0  0  0
    5.6300    0.7820    0.1510 C   0  0  0  0  0  0  0  0  0  0  0  0
    5.4440   -0.0400   -0.9510 C   0  0  0  0  0  0  0  0  0  0  0  0
    4.2370   -0.2430   -1.5530 C   0  0  0  0  0  0  0  0  0  0  0  0
    3.0870    0.3910   -1.0720 C   0  0  0  0  0  0  0  0  0  0  0  0
    3.2520    1.1990    0.0070 C   0  0  0  0  0  0  0  0  0  0  0  0
    4.4970    1.4020    0.6200 C   0  0  0  0  0  0  0  0  0  0  0  0
    2.0590    1.9030    0.5580 C   0  0  0  0  0  0  0  0  0  0  0  0
    0.8200    1.0780    0.3190 C   0  0  0  0  0  0  0  0  0  0  0  0
    0.6780    0.6470   -1.0280 N   0  0  2  0  0  0  0  0  0  0  0  0
   -0.5070   -0.1800   -1.1700 C   0  0  0  0  0  0  0  0  0  0  0  0
   -1.2260   -0.5080    0.0870 C   0  0  0  0  0  0  0  0  0  0  0  0
   -2.4300   -1.3000   -0.1550 N   0  0  0  0  0  0  0  0  0  0  0  0
   -2.4140   -2.7150   -0.1760 C   0  0  0  0  0  0  0  0  0  0  0  0
   -3.6210   -3.5240   -0.4340 C   0  0  0  0  0  0  0  0  0  0  0  0
   -1.3210   -3.2940    0.0340 O   0  0  0  0  0  0  0  0  0  0  0  0
   -3.6940   -0.6510   -0.3740 C   0  0  0  0  0  0  0  0  0  0  0  0
   -3.7330    0.6480   -0.3760 O   0  0  0  0  0  0  0  0  0  0  0  0
   -4.8550   -1.2260   -0.5780 O   0  0  0  0  0  0  0  0  0  0  0  0
   -6.1530   -1.0430   -0.7960 C   0  0  0  0  0  0  0  0  0  0  0  0
   -6.8720   -0.2780    0.2750 C   0  0  0  0  0  0  0  0  0  0  0  0
   -7.5080    0.8560    0.0950 C   0  0  0  0  0  0  0  0  0  0  0  0
   -8.0940    1.3040    1.4090 C   0  0  0  0  0  0  0  0  0  0  0  0
   -7.6720    0.2330    2.3180 C   0  0  0  0  0  0  0  0  0  0  0  0
   -6.9760   -0.6660    1.6690 C   0  0  0  0  0  0  0  0  0  0  0  0
    1.7930    0.1800   -1.7340 C   0  0  0  0  0  0  0  0  0  0  0  0
  1  2  2  0
  2  3  1  0
  3  4  1  0
  3  5  1  0
  5  6  2  0
  5 10  1  0
  6  7  1  0
  7  8  2  0
  8  9  1  0
  8 29  1  0
  9 10  2  0
  9 11  1  0
 11 12  1  0
 12 13  1  0
 13 14  1  1
 13 29  1  0
 14 15  1  0
 15 16  1  0
 16 17  1  0
 16 20  1  0
 17 18  1  0
 17 19  2  0
 20 21  2  0
 20 22  1  0
 22 23  1  0
 23 24  1  0
 24 25  2  0
 24 28  1  0
 25 26  1  0
 26 27  1  0
 27 28  2  0
M  CHG  1  13   1
M  END
