
     RDKit          3D

 29 31  0  0  0  0  0  0  0  0999 V2000
   -6.2600   -2.2140    0.5020 C   0  0  0  0  0  0  0  0  0  0  0  0
   -5.8660   -1.1650   -0.5080 C   0  0  0  0  0  0  0  0  0  0  0  0
   -5.4800    0.0880    0.1070 N   0  0  2  0  0  0  0  0  0  0  0  0
   -6.1970    1.1580   -0.5620 C   0  0  0  0  0  0  0  0  0  0  0  0
   -6.6620    2.2130    0.4320 C   0  0  0  0  0  0  0  0  0  0  0  0
   -4.0640    0.2860   -0.1600 C   0  0  0  0  0  0  0  0  0  0  0  0
   -3.2300   -0.1460    1.0120 C   0  0  0  0  0  0  0  0  0  0  0  0
   -1.8050    0.0440    0.7730 N   0  0  0  0  0  0  0  0  0  0  0  0
   -1.1030   -0.6080   -0.2750 C   0  0  0  0  0  0  0  0  0  0  0  0
   -1.8180   -1.3760   -0.9870 O   0  0  0  0  0  0  0  0  0  0  0  0
    0.3070   -0.4720   -0.5840 C   0  0  0  0  0  0  0  0  0  0  0  0
    0.8900   -1.2540   -1.5990 C   0  0  0  0  0  0  0  0  0  0  0  0
    0.2550   -2.2750   -2.4640 C   0  0  0  0  0  0  0  0  0  0  0  0
    2.1680   -0.8990   -1.6450 N   0  0  0  0  0  0  0  0  0  0  0  0
    2.4590    0.0430   -0.7470 C   0  0  0  0  0  0  0  0  0  0  0  0
    3.7260    0.6840   -0.4440 C   0  0  0  0  0  0  0  0  0  0  0  0
    4.8550    0.0730   -0.1700 C   0  0  0  0  0  0  0  0  0  0  0  0
    5.0430   -1.3630   -0.1130 C   0  0  0  0  0  0  0  0  0  0  0  0
    4.1910   -2.2490   -0.2900 O   0  0  0  0  0  0  0  0  0  0  0  0
    6.4390   -1.5550    0.1980 N   0  0  0  0  0  0  0  0  0  0  0  0
    7.1030   -0.3220    0.3340 C   0  0  0  0  0  0  0  0  0  0  0  0
    8.4340   -0.0250    0.6260 C   0  0  0  0  0  0  0  0  0  0  0  0
    8.8230    1.2950    0.7000 C   0  0  0  0  0  0  0  0  0  0  0  0
    7.8940    2.3030    0.4830 C   0  0  0  0  0  0  0  0  0  0  0  0
    8.2550    3.5900    0.5510 F   0  0  0  0  0  0  0  0  0  0  0  0
    6.5820    1.9840    0.1950 C   0  0  0  0  0  0  0  0  0  0  0  0
    6.1710    0.6670    0.1170 C   0  0  0  0  0  0  0  0  0  0  0  0
    1.2750    0.3300   -0.0580 C   0  0  0  0  0  0  0  0  0  0  0  0
    1.1200    1.3250    1.0300 C   0  0  0  0  0  0  0  0  0  0  0  0
  1  2  1  0
  3  2  1  6
  3  4  1  0
  3  6  1  0
  4  5  1  0
  6  7  1  0
  7  8  1  0
  8  9  1  0
  9 10  2  0
  9 11  1  0
 11 12  2  0
 11 28  1  0
 12 13  1  0
 12 14  1  0
 14 15  1  0
 15 16  1  0
 15 28  2  0
 16 17  2  3
 17 18  1  0
 17 27  1  0
 18 19  2  0
 18 20  1  0
 20 21  1  0
 21 22  2  0
 21 27  1  0
 22 23  1  0
 23 24  2  0
 24 25  1  0
 24 26  1  0
 26 27  2  0
 28 29  1  0
M  CHG  1   3   1
M  END
