
     RDKit          3D

 29 31  0  0  0  0  0  0  0  0999 V2000
   -6.4020    1.0400    1.8650 C   0  0  0  0  0  0  0  0  0  0  0  0
   -6.1310    0.9580    0.3960 C   0  0  2  0  0  0  0  0  0  0  0  0
   -6.5110    2.2850   -0.2270 C   0  0  0  0  0  0  0  0  0  0  0  0
   -6.9960   -0.1140   -0.2440 C   0  0  0  0  0  0  0  0  0  0  0  0
   -4.6740    0.7160    0.0750 C   0  0  0  0  0  0  0  0  0  0  0  0
   -4.1840   -0.5260    0.6440 N   0  0  2  0  0  0  0  0  0  0  0  0
   -2.9630   -0.2480    1.3280 C   0  0  0  0  0  0  0  0  0  0  0  0
   -2.0160   -1.4210    1.4000 C   0  0  0  0  0  0  0  0  0  0  0  0
   -1.8480   -2.0920    0.1480 N   0  0  0  0  0  0  0  0  0  0  0  0
   -0.4690   -2.1170   -0.2590 C   0  0  0  0  0  0  0  0  0  0  0  0
   -0.0020   -0.8090   -0.3960 O   0  0  0  0  0  0  0  0  0  0  0  0
    1.3300   -0.7730   -0.7880 C   0  0  1  0  0  0  0  0  0  0  0  0
    1.3920   -0.0110   -2.1020 C   0  0  0  0  0  0  0  0  0  0  0  0
    2.0420    1.3400   -1.8880 C   0  0  0  0  0  0  0  0  0  0  0  0
    3.5010    1.0510   -1.4440 C   0  0  0  0  0  0  0  0  0  0  0  0
    3.4310    0.3510   -0.2040 N   0  0  0  0  0  0  0  0  0  0  0  0
    4.5270   -0.0190    0.5790 C   0  0  0  0  0  0  0  0  0  0  0  0
    4.1400   -0.6430    1.6820 O   0  0  0  0  0  0  0  0  0  0  0  0
    5.9430    0.1440    0.4240 C   0  0  0  0  0  0  0  0  0  0  0  0
    6.5220    0.7020   -0.6760 C   0  0  0  0  0  0  0  0  0  0  0  0
    7.9220    0.8250   -0.7090 C   0  0  0  0  0  0  0  0  0  0  0  0
    8.7270    0.4080    0.3140 C   0  0  0  0  0  0  0  0  0  0  0  0
   10.1710    0.5320    0.2860 C   0  0  0  0  0  0  0  0  0  0  0  0
   10.8490    0.1280    1.2610 O   0  0  0  0  0  0  0  0  0  0  0  0
    8.1170   -0.1530    1.4130 C   0  0  0  0  0  0  0  0  0  0  0  0
    6.7530   -0.2960    1.4960 C   0  0  0  0  0  0  0  0  0  0  0  0
    2.0950   -0.0170    0.2800 C   0  0  0  0  0  0  0  0  0  0  0  0
   -2.6830   -1.5550   -0.9040 C   0  0  0  0  0  0  0  0  0  0  0  0
   -4.0900   -1.4940   -0.4100 C   0  0  0  0  0  0  0  0  0  0  0  0
  2  1  1  1
  2  3  1  0
  2  4  1  0
  2  5  1  0
  6  5  1  6
  6  7  1  0
  6 29  1  0
  7  8  1  0
  8  9  1  0
  9 10  1  0
  9 28  1  0
 10 11  1  0
 12 11  1  1
 12 13  1  0
 12 27  1  0
 13 14  1  0
 14 15  1  0
 15 16  1  0
 16 17  1  0
 16 27  1  0
 17 18  2  0
 17 19  1  0
 19 20  2  0
 19 26  1  0
 20 21  1  0
 21 22  2  0
 22 23  1  0
 22 25  1  0
 23 24  2  0
 25 26  2  0
 28 29  1  0
M  CHG  1   6   1
M  END
