
     RDKit          3D

 29 31  0  0  0  0  0  0  0  0999 V2000
   -8.1450   -2.1820   -0.6150 C   0  0  0  0  0  0  0  0  0  0  0  0
   -7.0440   -1.1880   -0.3980 C   0  0  0  0  0  0  0  0  0  0  0  0
   -5.8320   -1.3060   -1.0530 C   0  0  0  0  0  0  0  0  0  0  0  0
   -4.7980   -0.3760   -0.8490 C   0  0  0  0  0  0  0  0  0  0  0  0
   -4.9430    0.6920    0.0070 C   0  0  0  0  0  0  0  0  0  0  0  0
   -3.9090    1.7210    0.2450 C   0  0  0  0  0  0  0  0  0  0  0  0
   -2.7600    1.2730    0.9790 N   0  0  0  0  0  0  0  0  0  0  0  0
   -2.7590    1.2280    2.3460 C   0  0  0  0  0  0  0  0  0  0  0  0
   -3.8250    1.5810    2.9040 O   0  0  0  0  0  0  0  0  0  0  0  0
   -1.7300    0.8470    3.0390 O   0  0  0  0  0  0  0  0  0  0  0  0
   -0.6220    0.4820    2.4650 C   0  0  0  0  0  0  0  0  0  0  0  0
    0.3940    0.1060    3.1190 O   0  0  0  0  0  0  0  0  0  0  0  0
   -0.5250    0.4960    1.1100 C   0  0  0  0  0  0  0  0  0  0  0  0
    0.6770    0.1330    0.4760 C   0  0  0  0  0  0  0  0  0  0  0  0
    0.7350    0.1940   -0.8780 C   0  0  0  0  0  0  0  0  0  0  0  0
    1.9510   -0.1540   -1.5650 N   0  0  0  0  0  0  0  0  0  0  0  0
    1.9290   -1.4140   -2.2530 C   0  0  0  0  0  0  0  0  0  0  0  0
    3.0050    0.8040   -1.5710 C   0  0  0  0  0  0  0  0  0  0  0  0
    4.3160    0.4100   -0.9810 C   0  0  1  0  0  0  0  0  0  0  0  0
    5.2210    1.6430   -1.1090 C   0  0  0  0  0  0  0  0  0  0  0  0
    4.2610   -0.0230    0.4190 C   0  0  0  0  0  0  0  0  0  0  0  0
    5.4480   -0.4170    1.0760 N   0  0  1  0  0  0  0  0  0  0  0  0
    5.3580   -1.8020    1.5870 C   0  0  0  0  0  0  0  0  0  0  0  0
    6.6890   -0.2480    0.3950 C   0  0  0  0  0  0  0  0  0  0  0  0
   -0.3640    0.6020   -1.6300 C   0  0  0  0  0  0  0  0  0  0  0  0
   -1.5250    0.9490   -1.0060 C   0  0  0  0  0  0  0  0  0  0  0  0
   -1.6260    0.9020    0.3640 C   0  0  0  0  0  0  0  0  0  0  0  0
   -6.1890    0.7810    0.6550 C   0  0  0  0  0  0  0  0  0  0  0  0
   -7.2030   -0.1260    0.4590 C   0  0  0  0  0  0  0  0  0  0  0  0
  1  2  1  0
  2  3  2  0
  2 29  1  0
  3  4  1  0
  4  5  2  0
  5  6  1  0
  5 28  1  0
  6  7  1  0
  7  8  1  0
  7 27  1  0
  8  9  2  0
  8 10  1  0
 10 11  1  0
 11 12  2  0
 11 13  1  0
 13 14  2  0
 13 27  1  0
 14 15  1  0
 15 16  1  0
 15 25  2  0
 16 17  1  0
 16 18  1  0
 18 19  1  0
 19 20  1  1
 19 21  1  0
 21 22  1  0
 22 23  1  6
 22 24  1  0
 25 26  1  0
 26 27  2  0
 28 29  2  0
M  CHG  1  22   1
M  END
