
     RDKit          3D

 29 32  0  0  0  0  0  0  0  0999 V2000
   -6.2380    1.0610    1.6550 C   0  0  0  0  0  0  0  0  0  0  0  0
   -6.8120    0.2020    0.6540 N   0  0  0  0  0  0  0  0  0  0  0  0
   -8.1680    0.1480    0.5390 C   0  0  0  0  0  0  0  0  0  0  0  0
   -8.4710   -0.6640   -0.5020 C   0  0  0  0  0  0  0  0  0  0  0  0
   -7.2970   -1.1090   -1.0230 C   0  0  0  0  0  0  0  0  0  0  0  0
   -6.2310   -0.5430   -0.2650 C   0  0  0  0  0  0  0  0  0  0  0  0
   -4.8660   -0.9310   -0.5620 C   0  0  0  0  0  0  0  0  0  0  0  0
   -4.7470   -1.5480   -1.7600 O   0  0  0  0  0  0  0  0  0  0  0  0
   -3.6590   -0.8300    0.0810 N   0  0  0  0  0  0  0  0  0  0  0  0
   -3.3060   -0.3210    1.3460 C   0  0  0  0  0  0  0  0  0  0  0  0
   -2.5380    1.0000    1.1570 C   0  0  0  0  0  0  0  0  0  0  0  0
   -1.3510    0.5980    0.3530 C   0  0  0  0  0  0  0  0  0  0  0  0
   -1.3030   -0.4650   -0.4990 C   0  0  0  0  0  0  0  0  0  0  0  0
   -0.1450   -0.7680   -1.2150 C   0  0  0  0  0  0  0  0  0  0  0  0
    1.0030    0.0160   -1.0740 C   0  0  0  0  0  0  0  0  0  0  0  0
    2.2240   -0.3120   -1.8380 C   0  0  0  0  0  0  0  0  0  0  0  0
    3.3870    0.2530   -1.2310 N   0  0  1  0  0  0  0  0  0  0  0  0
    3.4280    1.6800   -1.4160 C   0  0  0  0  0  0  0  0  0  0  0  0
    3.5710   -0.2170    0.0930 C   0  0  0  0  0  0  0  0  0  0  0  0
    4.7500    0.2830    0.8450 C   0  0  0  0  0  0  0  0  0  0  0  0
    6.0670   -0.0180    0.2650 C   0  0  0  0  0  0  0  0  0  0  0  0
    6.9710   -0.7710    0.9190 C   0  0  0  0  0  0  0  0  0  0  0  0
    8.1850   -0.8900    0.0860 C   0  0  0  0  0  0  0  0  0  0  0  0
    7.8560   -0.1020   -1.1090 C   0  0  0  0  0  0  0  0  0  0  0  0
    6.6330    0.3960   -0.9970 C   0  0  0  0  0  0  0  0  0  0  0  0
    0.8890    1.0160   -0.2450 O   0  0  0  0  0  0  0  0  0  0  0  0
   -0.1640    1.3410    0.4450 C   0  0  0  0  0  0  0  0  0  0  0  0
   -0.1990    2.3280    1.2320 O   0  0  0  0  0  0  0  0  0  0  0  0
   -2.4800   -1.3430   -0.7010 C   0  0  0  0  0  0  0  0  0  0  0  0
  1  2  1  0
  2  3  1  0
  2  6  1  0
  3  4  2  0
  4  5  1  0
  5  6  2  0
  6  7  1  0
  7  8  2  0
  7  9  1  0
  9 10  1  0
  9 29  1  0
 10 11  1  0
 11 12  1  0
 12 13  2  0
 12 27  1  0
 13 14  1  0
 13 29  1  0
 14 15  2  0
 15 16  1  0
 15 26  1  0
 16 17  1  0
 17 18  1  1
 17 19  1  0
 19 20  1  0
 20 21  1  0
 21 22  2  0
 21 25  1  0
 22 23  1  0
 23 24  1  0
 24 25  2  0
 26 27  1  0
 27 28  2  0
M  CHG  1  17   1
M  END
