
     RDKit          3D

 29 32  0  0  0  0  0  0  0  0999 V2000
   -0.4430   -0.9170    3.3970 C   0  0  0  0  0  0  0  0  0  0  0  0
   -0.8370   -1.0420    1.9820 N   0  0  0  0  0  0  0  0  0  0  0  0
    0.1650   -1.0160    0.9710 C   0  0  0  0  0  0  0  0  0  0  0  0
   -0.1540   -0.4570   -0.1790 C   0  0  0  0  0  0  0  0  0  0  0  0
    0.7750   -0.3670   -1.2850 C   0  0  0  0  0  0  0  0  0  0  0  0
    0.4820    0.1630   -2.3860 O   0  0  0  0  0  0  0  0  0  0  0  0
    2.0760   -0.8720   -1.1960 O   0  0  0  0  0  0  0  0  0  0  0  0
    2.9820   -0.7910   -2.2560 C   0  0  0  0  0  0  0  0  0  0  0  0
    4.3050   -1.4090   -1.8940 C   0  0  0  0  0  0  0  0  0  0  0  0
    4.8830   -0.7510   -0.8030 N   0  0  0  0  0  0  0  0  0  0  0  0
    4.3210   -0.8560    0.4800 C   0  0  0  0  0  0  0  0  0  0  0  0
    4.0760    0.5660    0.9990 C   0  0  0  0  0  0  0  0  0  0  0  0
    5.1070    1.4790    0.3510 C   0  0  0  0  0  0  0  0  0  0  0  0
    6.4380    0.7360    0.1910 C   0  0  0  0  0  0  0  0  0  0  0  0
    6.2400   -0.3470   -0.8800 C   0  0  0  0  0  0  0  0  0  0  0  0
   -1.5320    0.0960   -0.3180 C   0  0  0  0  0  0  0  0  0  0  0  0
   -2.5140   -0.7800    0.2520 N   0  0  2  0  0  0  0  0  0  0  0  0
   -3.8370   -0.2510    0.2110 C   0  0  1  0  0  0  0  0  0  0  0  0
   -3.9250    1.2090    0.4560 C   0  0  0  0  0  0  0  0  0  0  0  0
   -4.4020    1.7250    1.5640 C   0  0  0  0  0  0  0  0  0  0  0  0
   -4.3470    3.1860    1.4830 C   0  0  0  0  0  0  0  0  0  0  0  0
   -3.7650    3.4660    0.1630 C   0  0  0  0  0  0  0  0  0  0  0  0
   -3.5280    2.3010   -0.4160 C   0  0  0  0  0  0  0  0  0  0  0  0
   -4.5950   -0.6170   -1.0320 C   0  0  0  0  0  0  0  0  0  0  0  0
   -4.6660   -1.8420   -1.6300 C   0  0  0  0  0  0  0  0  0  0  0  0
   -5.4680   -1.6840   -2.7240 C   0  0  0  0  0  0  0  0  0  0  0  0
   -5.8420   -0.3700   -2.7340 C   0  0  0  0  0  0  0  0  0  0  0  0
   -5.3050    0.2480   -1.7090 O   0  0  0  0  0  0  0  0  0  0  0  0
   -2.2050   -1.1940    1.5940 C   0  0  0  0  0  0  0  0  0  0  0  0
  1  2  1  0
  2  3  1  0
  2 29  1  0
  3  4  2  0
  4  5  1  0
  4 16  1  0
  5  6  2  0
  5  7  1  0
  7  8  1  0
  8  9  1  0
  9 10  1  0
 10 11  1  0
 10 15  1  0
 11 12  1  0
 12 13  1  0
 13 14  1  0
 14 15  1  0
 17 16  1  1
 17 18  1  0
 17 29  1  0
 18 19  1  6
 18 24  1  0
 19 20  2  0
 19 23  1  0
 20 21  1  0
 21 22  1  0
 22 23  2  0
 24 25  2  0
 24 28  1  0
 25 26  1  0
 26 27  2  0
 27 28  1  0
M  CHG  1  17   1
M  END
