
     RDKit          3D

 25 27  0  0  0  0  0  0  0  0999 V2000
   -6.9850    0.2760   -0.5390 C   0  0  0  0  0  0  0  0  0  0  0  0
   -5.9420    1.0770   -0.3980 C   0  0  0  0  0  0  0  0  0  0  0  0
   -6.0110    2.5080   -0.5110 C   0  0  0  0  0  0  0  0  0  0  0  0
   -4.9690    3.3040   -0.3690 C   0  0  0  0  0  0  0  0  0  0  0  0
   -3.6830    2.6980   -0.0850 C   0  0  0  0  0  0  0  0  0  0  0  0
   -3.5090    1.3650    0.0380 C   0  0  0  0  0  0  0  0  0  0  0  0
   -2.1810    0.9460    0.3170 N   0  0  0  0  0  0  0  0  0  0  0  0
   -1.4000    0.2730   -0.6530 C   0  0  0  0  0  0  0  0  0  0  0  0
   -1.8280    0.0170   -1.8040 O   0  0  0  0  0  0  0  0  0  0  0  0
   -0.0130   -0.1740   -0.3590 C   0  0  0  0  0  0  0  0  0  0  0  0
    0.6850   -0.7830   -1.2460 C   0  0  0  0  0  0  0  0  0  0  0  0
    2.0110   -1.3000   -1.2110 C   0  0  0  0  0  0  0  0  0  0  0  0
    2.5740   -2.0250   -2.2530 N   0  0  0  0  0  0  0  0  0  0  0  0
    3.7930   -2.3730   -1.9570 N   0  0  0  0  0  0  0  0  0  0  0  0
    4.0880   -1.9160   -0.7560 C   0  0  0  0  0  0  0  0  0  0  0  0
    2.9790   -1.2460   -0.2920 N   0  0  0  0  0  0  0  0  0  0  0  0
    3.1150   -0.6520    1.0100 C   0  0  0  0  0  0  0  0  0  0  0  0
    4.4320    0.0750    1.2270 C   0  0  2  0  0  0  0  0  0  0  0  0
    4.2950    1.5230    0.8030 C   0  0  0  0  0  0  0  0  0  0  0  0
    5.5890   -0.5250    0.4820 C   0  0  0  0  0  0  0  0  0  0  0  0
    5.2580   -1.9640    0.1580 C   0  0  1  0  0  0  0  0  0  0  0  0
    4.8740   -2.6950    1.2840 O   0  0  0  0  0  0  0  0  0  0  0  0
   -4.6220    0.4370   -0.1040 C   0  0  0  0  0  0  0  0  0  0  0  0
   -4.5870   -0.8020    0.0270 N   0  0  0  0  0  0  0  0  0  0  0  0
   -3.5700   -1.7130    0.2990 C   0  0  0  0  0  0  0  0  0  0  0  0
  1  2  2  0
  2  3  1  0
  2 23  1  0
  3  4  2  0
  4  5  1  0
  5  6  2  0
  6  7  1  0
  6 23  1  0
  7  8  1  0
  8  9  2  0
  8 10  1  0
 10 11  2  3
 11 12  1  0
 12 13  2  0
 12 16  1  0
 13 14  1  0
 14 15  2  0
 15 16  1  0
 15 21  1  0
 16 17  1  0
 17 18  1  0
 18 19  1  6
 18 20  1  0
 20 21  1  0
 21 22  1  1
 23 24  2  3
 24 25  1  0
M  END
