
     RDKit          3D

 22 23  0  0  0  0  0  0  0  0999 V2000
    4.6860   -1.3210   -1.2880 C   0  0  0  0  0  0  0  0  0  0  0  0
    4.2270   -1.6500   -0.1230 C   0  0  0  0  0  0  0  0  0  0  0  0
    4.8760   -2.7680    0.6170 C   0  0  0  0  0  0  0  0  0  0  0  0
    3.1140   -0.9700    0.5410 C   0  0  0  0  0  0  0  0  0  0  0  0
    2.7010    0.3140   -0.1310 C   0  0  2  0  0  0  0  0  0  0  0  0
    3.7360    1.2730   -0.1310 N   0  0  0  0  0  0  0  0  0  0  0  0
    3.5110    2.6030    0.2540 C   0  0  0  0  0  0  0  0  0  0  0  0
    4.5250    3.4020    0.2560 O   0  0  0  0  0  0  0  0  0  0  0  0
    2.2360    3.0590    0.6250 N   0  0  0  0  0  0  0  0  0  0  0  0
    1.1780    2.0480    0.5800 C   0  0  0  0  0  0  0  0  0  0  0  0
    1.3850    0.8110    0.2330 C   0  0  0  0  0  0  0  0  0  0  0  0
    0.2130   -0.1160    0.1170 C   0  0  0  0  0  0  0  0  0  0  0  0
    0.3080   -1.3010   -0.2040 O   0  0  0  0  0  0  0  0  0  0  0  0
   -1.0790    0.3970    0.3900 N   0  0  0  0  0  0  0  0  0  0  0  0
   -2.2330   -0.3750    0.7500 C   0  0  0  0  0  0  0  0  0  0  0  0
   -3.0360   -0.8160   -0.4540 C   0  0  0  0  0  0  0  0  0  0  0  0
   -4.2370   -1.6190   -0.0830 C   0  0  1  0  0  0  0  0  0  0  0  0
   -5.1990   -0.8630    0.8030 C   0  0  0  0  0  0  0  0  0  0  0  0
   -4.9900   -1.9360   -1.3700 C   0  0  0  0  0  0  0  0  0  0  0  0
   -1.2560    1.8640    0.2900 C   0  0  2  0  0  0  0  0  0  0  0  0
   -1.3490    2.2800   -1.1560 C   0  0  0  0  0  0  0  0  0  0  0  0
   -0.1740    2.5460    1.0350 C   0  0  0  0  0  0  0  0  0  0  0  0
  1  2  2  0
  2  3  1  0
  2  4  1  0
  5  4  1  1
  5  6  1  0
  5 11  1  0
  6  7  1  0
  7  8  2  0
  7  9  1  0
  9 10  1  0
 10 11  2  0
 10 22  1  0
 11 12  1  0
 12 13  2  0
 12 14  1  0
 14 15  1  0
 14 20  1  0
 15 16  1  0
 16 17  1  0
 17 18  1  1
 17 19  1  0
 20 21  1  6
 20 22  1  0
M  END
