
     RDKit          3D

 22 23  0  0  0  0  0  0  0  0999 V2000
   -6.1050    0.7780   -0.3760 C   0  0  0  0  0  0  0  0  0  0  0  0
   -5.3420   -0.2130   -0.0810 C   0  0  0  0  0  0  0  0  0  0  0  0
   -3.9760   -0.4860    0.0460 C   0  0  0  0  0  0  0  0  0  0  0  0
   -3.6650   -1.7790    0.4000 C   0  0  0  0  0  0  0  0  0  0  0  0
   -4.6960   -2.7860    0.6240 C   0  0  0  0  0  0  0  0  0  0  0  0
   -2.8090    0.3530   -0.1320 C   0  0  0  0  0  0  0  0  0  0  0  0
   -1.5570   -0.1360    0.0090 O   0  0  0  0  0  0  0  0  0  0  0  0
   -0.6490    0.7470   -0.1840 C   0  0  0  0  0  0  0  0  0  0  0  0
    0.8270    0.5760   -0.1140 C   0  0  0  0  0  0  0  0  0  0  0  0
    1.3400   -0.6000    0.1770 C   0  0  0  0  0  0  0  0  0  0  0  0
    2.7640   -0.8090    0.2540 C   0  0  0  0  0  0  0  0  0  0  0  0
    3.1580   -1.9650    0.5380 O   0  0  0  0  0  0  0  0  0  0  0  0
    3.6850    0.2210    0.0270 N   0  0  0  0  0  0  0  0  0  0  0  0
    5.0960    0.0680    0.0820 C   0  0  0  0  0  0  0  0  0  0  0  0
    5.7020   -1.1550   -0.0230 C   0  0  0  0  0  0  0  0  0  0  0  0
    7.0900   -1.2370    0.0660 C   0  0  0  0  0  0  0  0  0  0  0  0
    7.7880   -0.1110    0.2500 N   0  0  0  0  0  0  0  0  0  0  0  0
    7.2190    1.0920    0.3540 C   0  0  0  0  0  0  0  0  0  0  0  0
    5.8550    1.2350    0.2750 C   0  0  0  0  0  0  0  0  0  0  0  0
   -1.2880    1.9170   -0.4750 C   0  0  0  0  0  0  0  0  0  0  0  0
   -2.6710    1.6710   -0.4440 C   0  0  0  0  0  0  0  0  0  0  0  0
   -3.6640    2.6370   -0.6870 N   0  0  0  0  0  0  0  0  0  0  0  0
  1  2  2  0
  2  3  1  0
  3  4  2  3
  3  6  1  0
  4  5  1  0
  6  7  1  0
  6 21  2  0
  7  8  1  0
  8  9  1  0
  8 20  2  0
  9 10  2  3
 10 11  1  0
 11 12  2  0
 11 13  1  0
 13 14  1  0
 14 15  2  0
 14 19  1  0
 15 16  1  0
 16 17  2  0
 17 18  1  0
 18 19  2  0
 20 21  1  0
 21 22  1  0
M  END
