
     RDKit          3D

 25 28  0  0  0  0  0  0  0  0999 V2000
   -3.8700    0.4550   -1.6130 C   0  0  0  0  0  0  0  0  0  0  0  0
   -4.4470    0.4060   -0.2100 C   0  0  1  0  0  0  0  0  0  0  0  0
   -3.9840    1.5880    0.6150 C   0  0  0  0  0  0  0  0  0  0  0  0
   -5.9740    0.4930   -0.2590 C   0  0  0  0  0  0  0  0  0  0  0  0
   -4.1100   -0.8820    0.4570 C   0  0  0  0  0  0  0  0  0  0  0  0
   -4.9440   -1.8210    0.9350 N   0  0  0  0  0  0  0  0  0  0  0  0
   -4.2620   -2.8490    1.4700 C   0  0  0  0  0  0  0  0  0  0  0  0
   -2.9640   -2.5300    1.3160 N   0  0  0  0  0  0  0  0  0  0  0  0
   -2.8390   -1.3460    0.7060 C   0  0  0  0  0  0  0  0  0  0  0  0
   -1.6440   -0.6640    0.3630 N   0  0  0  0  0  0  0  0  0  0  0  0
   -0.3830   -1.2490    0.6750 C   0  0  0  0  0  0  0  0  0  0  0  0
   -0.3390   -2.3610    1.2490 O   0  0  0  0  0  0  0  0  0  0  0  0
    0.8530   -0.5560    0.3270 C   0  0  0  0  0  0  0  0  0  0  0  0
    2.1090   -1.0490    0.5900 C   0  0  0  0  0  0  0  0  0  0  0  0
    2.9760   -0.0890    0.1000 C   0  0  0  0  0  0  0  0  0  0  0  0
    2.3100    0.9270   -0.4270 N   0  0  0  0  0  0  0  0  0  0  0  0
    1.0110    0.6190   -0.2790 N   0  0  0  0  0  0  0  0  0  0  0  0
    2.9640    2.0900   -0.9490 C   0  0  0  0  0  0  0  0  0  0  0  0
    4.3760    1.9170   -1.3140 C   0  0  0  0  0  0  0  0  0  0  0  0
    5.1400    0.9010   -0.5900 C   0  0  0  0  0  0  0  0  0  0  0  0
    6.4770    0.9160   -0.5840 C   0  0  0  0  0  0  0  0  0  0  0  0
    7.1680   -0.0600    0.1100 O   0  0  0  0  0  0  0  0  0  0  0  0
    6.5950   -1.2420    0.6260 C   0  0  0  0  0  0  0  0  0  0  0  0
    5.1130   -1.1560    0.6640 C   0  0  0  0  0  0  0  0  0  0  0  0
    4.4460   -0.1860    0.0700 C   0  0  0  0  0  0  0  0  0  0  0  0
  2  1  1  6
  2  3  1  0
  2  4  1  0
  2  5  1  0
  5  6  1  0
  5  9  2  0
  6  7  1  0
  7  8  2  0
  8  9  1  0
  9 10  1  0
 10 11  1  0
 11 12  2  0
 11 13  1  0
 13 14  1  0
 13 17  2  0
 14 15  2  0
 15 16  1  0
 15 25  1  0
 16 17  1  0
 16 18  1  0
 18 19  1  0
 19 20  1  0
 20 21  2  0
 20 25  1  0
 21 22  1  0
 22 23  1  0
 23 24  1  0
 24 25  2  0
M  END
