
     RDKit          3D

 22 22  0  0  0  0  0  0  0  0999 V2000
    2.8510   -2.1000    1.2400 C   0  0  0  0  0  0  0  0  0  0  0  0
    3.6910   -1.1130    1.0680 C   0  0  0  0  0  0  0  0  0  0  0  0
    4.8410   -0.8070    1.9080 C   0  0  0  0  0  0  0  0  0  0  0  0
    5.2070   -1.4910    2.9900 C   0  0  0  0  0  0  0  0  0  0  0  0
    6.3850   -1.1130    3.7830 C   0  0  0  0  0  0  0  0  0  0  0  0
    5.4470    0.3700    1.3060 C   0  0  0  0  0  0  0  0  0  0  0  0
    4.7720    0.7500    0.2400 C   0  0  0  0  0  0  0  0  0  0  0  0
    3.6320   -0.1120   -0.0160 C   0  0  0  0  0  0  0  0  0  0  0  0
    2.7130   -0.0490   -0.9580 C   0  0  0  0  0  0  0  0  0  0  0  0
    2.7680    1.0030   -1.9860 C   0  0  0  0  0  0  0  0  0  0  0  0
    1.5490    1.8910   -1.7580 C   0  0  0  0  0  0  0  0  0  0  0  0
    0.3300    1.1000   -1.9000 C   0  0  0  0  0  0  0  0  0  0  0  0
    0.3710   -0.0580   -2.3860 O   0  0  0  0  0  0  0  0  0  0  0  0
   -0.9700    1.5810   -1.4980 N   0  0  0  0  0  0  0  0  0  0  0  0
   -2.0730    0.7550   -1.6590 N   0  0  0  0  0  0  0  0  0  0  0  0
   -3.3630    1.0470   -1.1540 C   0  0  0  0  0  0  0  0  0  0  0  0
   -3.4870    2.1660   -0.5430 O   0  0  0  0  0  0  0  0  0  0  0  0
   -4.4590    0.1600   -1.3040 N   0  0  0  0  0  0  0  0  0  0  0  0
   -5.7480    0.4960   -0.7890 C   0  0  0  0  0  0  0  0  0  0  0  0
   -6.5020    1.6690   -1.2970 C   0  0  0  0  0  0  0  0  0  0  0  0
   -6.2150   -0.3040    0.1460 C   0  0  0  0  0  0  0  0  0  0  0  0
   -7.5460   -0.0250    0.7300 C   0  0  0  0  0  0  0  0  0  0  0  0
  1  2  2  0
  2  3  1  0
  2  8  1  0
  3  4  2  3
  3  6  1  0
  4  5  1  0
  6  7  2  0
  7  8  1  0
  8  9  2  3
  9 10  1  0
 10 11  1  0
 11 12  1  0
 12 13  2  0
 12 14  1  0
 14 15  1  0
 15 16  1  0
 16 17  2  0
 16 18  1  0
 18 19  1  0
 19 20  1  0
 19 21  2  3
 21 22  1  0
M  END
