
     RDKit          3D

 25 28  0  0  0  0  0  0  0  0999 V2000
   -4.1360    0.1610   -2.0530 C   0  0  0  0  0  0  0  0  0  0  0  0
   -4.3870    0.0940   -0.8480 O   0  0  0  0  0  0  0  0  0  0  0  0
   -4.6590    0.0220    0.4490 C   0  0  0  0  0  0  0  0  0  0  0  0
   -5.9300    0.2530    1.0140 C   0  0  0  0  0  0  0  0  0  0  0  0
   -6.2320    0.1870    2.3030 N   0  0  0  0  0  0  0  0  0  0  0  0
   -5.2160   -0.1130    3.0250 C   0  0  0  0  0  0  0  0  0  0  0  0
   -5.5520   -0.1670    4.5190 O   0  0  0  0  0  0  0  0  0  0  0  0
   -3.9640   -0.3720    2.8190 C   0  0  0  0  0  0  0  0  0  0  0  0
   -3.6010   -0.3090    1.3700 C   0  0  0  0  0  0  0  0  0  0  0  0
   -2.2890   -0.4450    0.8650 C   0  0  2  0  0  0  0  0  0  0  0  0
   -1.3150   -1.4180    1.4690 C   0  0  0  0  0  0  0  0  0  0  0  0
   -0.0280   -0.8510    0.8400 N   0  0  0  0  0  0  0  0  0  0  0  0
    1.0690   -1.1960    0.4170 N   0  0  0  0  0  0  0  0  0  0  0  0
    1.8280   -0.0490    0.0550 C   0  0  0  0  0  0  0  0  0  0  0  0
    3.2150   -0.0480   -0.3320 C   0  0  1  0  0  0  0  0  0  0  0  0
    3.5850   -1.2470   -1.1610 C   0  0  0  0  0  0  0  0  0  0  0  0
    5.0280   -1.3070   -1.5160 C   0  0  0  0  0  0  0  0  0  0  0  0
    5.5490   -0.0220   -2.0490 C   0  0  0  0  0  0  0  0  0  0  0  0
    5.2170    1.1160   -1.1610 C   0  0  0  0  0  0  0  0  0  0  0  0
    3.7150    1.2450   -0.8830 C   0  0  0  0  0  0  0  0  0  0  0  0
    1.0110    1.0120    0.3460 C   0  0  0  0  0  0  0  0  0  0  0  0
    1.2210    2.4110    0.2200 C   0  0  0  0  0  0  0  0  0  0  0  0
    1.3980    3.5700    0.1140 N   0  0  0  0  0  0  0  0  0  0  0  0
   -0.1980    0.4250    0.8590 C   0  0  0  0  0  0  0  0  0  0  0  0
   -1.4920    0.7960    1.2800 N   0  0  0  0  0  0  0  0  0  0  0  0
  1  2  1  0
  2  3  1  0
  3  4  2  0
  3  9  1  0
  4  5  1  0
  5  6  2  0
  6  7  1  0
  6  8  1  0
  8  9  2  0
 10  9  1  1
 10 11  1  0
 10 25  1  0
 11 12  1  0
 12 13  1  0
 12 24  1  0
 13 14  2  0
 15 14  1  6
 14 21  1  0
 15 16  1  0
 15 20  1  0
 16 17  1  0
 17 18  1  0
 18 19  1  0
 19 20  1  0
 21 22  1  0
 21 24  2  0
 22 23  3  0
 24 25  1  0
M  END
