
     RDKit          3D

 25 28  0  0  0  0  0  0  0  0999 V2000
   -5.5930   -1.5720   -0.1150 C   0  0  0  0  0  0  0  0  0  0  0  0
   -4.3510   -0.9360    0.3890 C   0  0  0  0  0  0  0  0  0  0  0  0
   -3.2100   -1.5690    0.2720 C   0  0  0  0  0  0  0  0  0  0  0  0
   -1.9710   -0.9810    0.7530 C   0  0  0  0  0  0  0  0  0  0  0  0
   -1.9520    0.3750    1.0750 N   0  0  0  0  0  0  0  0  0  0  0  0
   -0.8930    1.0730    0.4330 C   0  0  0  0  0  0  0  0  0  0  0  0
   -1.0510    1.1840   -1.0640 C   0  0  0  0  0  0  0  0  0  0  0  0
    0.1250    1.9450   -1.6350 C   0  0  0  0  0  0  0  0  0  0  0  0
    1.3670    1.2020   -1.3090 C   0  0  0  0  0  0  0  0  0  0  0  0
    2.0680    1.4180   -0.1840 N   0  0  0  0  0  0  0  0  0  0  0  0
    3.1950    0.7490    0.1130 C   0  0  0  0  0  0  0  0  0  0  0  0
    4.0720    0.7630    1.1410 N   0  0  0  0  0  0  0  0  0  0  0  0
    5.0560   -0.1370    0.9330 C   0  0  0  0  0  0  0  0  0  0  0  0
    4.8150   -0.7480   -0.2520 N   0  0  0  0  0  0  0  0  0  0  0  0
    3.6780   -0.2110   -0.7600 C   0  0  0  0  0  0  0  0  0  0  0  0
    2.9350   -0.4100   -1.9080 C   0  0  0  0  0  0  0  0  0  0  0  0
    3.3830   -1.2960   -2.7110 O   0  0  0  0  0  0  0  0  0  0  0  0
    1.8100    0.2700   -2.1860 N   0  0  0  0  0  0  0  0  0  0  0  0
    5.8330   -1.7130   -0.5200 C   0  0  0  0  0  0  0  0  0  0  0  0
    5.7380   -2.6910   -1.3070 O   0  0  0  0  0  0  0  0  0  0  0  0
    6.9880   -1.3010    0.3190 C   0  0  0  0  0  0  0  0  0  0  0  0
    6.2990   -0.6970    1.5270 C   0  0  0  0  0  0  0  0  0  0  0  0
   -3.1510    1.0600    1.3110 C   0  0  0  0  0  0  0  0  0  0  0  0
   -4.4190    0.3800    1.0050 C   0  0  1  0  0  0  0  0  0  0  0  0
   -5.2820    1.2420    0.0680 C   0  0  0  0  0  0  0  0  0  0  0  0
  1  2  1  0
  2  3  2  0
  2 24  1  0
  3  4  1  0
  4  5  1  0
  5  6  1  0
  5 23  1  0
  6  7  1  0
  7  8  1  0
  8  9  1  0
  9 10  2  0
  9 18  1  0
 10 11  1  0
 11 12  1  0
 11 15  2  0
 12 13  2  0
 13 14  1  0
 13 22  1  0
 14 15  1  0
 14 19  1  0
 15 16  1  0
 16 17  2  0
 16 18  1  0
 19 20  2  0
 19 21  1  0
 21 22  1  0
 23 24  1  0
 24 25  1  6
M  END
