
     RDKit          3D

  6  6  0  0  0  0  0  0  0  0999 V2000
    2.0500   -0.0990   -0.0680 N   0  0  0  0  0  0  0  0  0  0  0  0
    0.6310   -0.1940   -0.0370 C   0  0  0  0  0  0  0  0  0  0  0  0
   -0.1500   -1.2750   -0.1250 N   0  0  0  0  0  0  0  0  0  0  0  0
   -1.4470   -0.9200   -0.0510 C   0  0  0  0  0  0  0  0  0  0  0  0
   -1.4810    0.4320    0.0880 C   0  0  0  0  0  0  0  0  0  0  0  0
   -0.1960    0.8510    0.0930 N   0  0  0  0  0  0  0  0  0  0  0  0
  1  2  1  0
  2  3  2  0
  2  6  1  0
  3  4  1  0
  4  5  2  0
  5  6  1  0
M  END
