
     RDKit          3D

 16 16  0  0  0  0  0  0  0  0999 V2000
   -2.7910   -0.4140    0.1020 C   0  0  0  0  0  0  0  0  0  0  0  0
   -1.5050    0.0400   -0.5810 C   0  0  2  0  0  0  0  0  0  0  0  0
   -1.8500    0.5410   -1.8690 O   0  0  0  0  0  0  0  0  0  0  0  0
   -0.6250   -1.0860   -0.7810 C   0  0  0  0  0  0  0  0  0  0  0  0
   -1.1080   -2.2850   -1.4820 N   0  0  0  0  0  0  0  0  0  0  0  0
    0.6200   -1.1060   -0.3630 C   0  0  0  0  0  0  0  0  0  0  0  0
    1.2140    0.0100    0.3390 C   0  0  0  0  0  0  0  0  0  0  0  0
    2.4510    0.0550    0.7830 C   0  0  0  0  0  0  0  0  0  0  0  0
    3.3750   -1.0360    0.6130 C   0  0  0  0  0  0  0  0  0  0  0  0
    4.6230   -0.9680    1.0720 C   0  0  0  0  0  0  0  0  0  0  0  0
    5.5140   -2.0070    0.9140 O   0  0  0  0  0  0  0  0  0  0  0  0
    0.3200    1.1720    0.5500 C   0  0  0  0  0  0  0  0  0  0  0  0
   -0.9240    1.1880    0.1310 C   0  0  0  0  0  0  0  0  0  0  0  0
   -1.7530    2.3710    0.3740 C   0  0  0  0  0  0  0  0  0  0  0  0
   -1.3020    3.3720    0.9750 N   0  0  0  0  0  0  0  0  0  0  0  0
   -3.1090    2.3800   -0.0870 N   0  0  0  0  0  0  0  0  0  0  0  0
  2  1  1  1
  2  3  1  0
  2  4  1  0
  2 13  1  0
  4  5  1  0
  4  6  2  0
  6  7  1  0
  7  8  2  3
  7 12  1  0
  8  9  1  0
  9 10  2  3
 10 11  1  0
 12 13  2  0
 13 14  1  0
 14 15  2  0
 14 16  1  0
M  END
