
     RDKit          3D

 17 17  0  0  0  0  0  0  0  0999 V2000
    1.3460    0.5400   -1.1490 C   0  0  0  0  0  0  0  0  0  0  0  0
    0.6850   -0.0400    0.0800 C   0  0  1  0  0  0  0  0  0  0  0  0
   -0.6810    0.3960    0.3650 C   0  0  1  0  0  0  0  0  0  0  0  0
   -1.0800   -0.3310    1.5360 O   0  0  0  0  0  0  0  0  0  0  0  0
   -0.7570    1.8490    0.8850 C   0  0  0  0  0  0  0  0  0  0  0  0
   -0.2510    2.8740   -0.0520 C   0  0  0  0  0  0  0  0  0  0  0  0
   -0.3750    4.1770    0.5180 O   0  0  0  0  0  0  0  0  0  0  0  0
   -1.7600    0.2620   -0.6270 C   0  0  0  0  0  0  0  0  0  0  0  0
   -2.1270   -1.0950   -1.1240 C   0  0  1  0  0  0  0  0  0  0  0  0
   -2.5360   -1.9010    0.0300 N   0  0  0  0  0  0  0  0  0  0  0  0
   -3.3820   -0.9650   -1.9060 N   0  0  0  0  0  0  0  0  0  0  0  0
   -1.1970   -1.7800   -1.8380 O   0  0  0  0  0  0  0  0  0  0  0  0
    0.9670   -1.5130    0.1170 C   0  0  0  0  0  0  0  0  0  0  0  0
    2.1650   -1.8840    0.9770 C   0  0  0  0  0  0  0  0  0  0  0  0
    3.2990   -0.9700    0.6580 C   0  0  0  0  0  0  0  0  0  0  0  0
    2.9750    0.4060    0.8670 N   0  0  0  0  0  0  0  0  0  0  0  0
    1.5700    0.5120    1.2350 C   0  0  0  0  0  0  0  0  0  0  0  0
  2  1  1  6
  2  3  1  0
  2 13  1  0
  2 17  1  0
  3  4  1  1
  3  5  1  0
  3  8  1  0
  5  6  1  0
  6  7  1  0
  8  9  1  0
  9 10  1  1
  9 11  1  0
  9 12  1  0
 13 14  1  0
 14 15  1  0
 15 16  1  0
 16 17  1  0
M  END
