
     RDKit          3D

 16 16  0  0  0  0  0  0  0  0999 V2000
    4.1340   -1.3280    0.0660 C   0  0  0  0  0  0  0  0  0  0  0  0
    3.7810    0.0380   -0.3620 C   0  0  0  0  0  0  0  0  0  0  0  0
    2.6070    0.6050   -0.3030 C   0  0  0  0  0  0  0  0  0  0  0  0
    2.4970    1.9410   -0.7750 O   0  0  0  0  0  0  0  0  0  0  0  0
    3.6330    2.6290   -1.2420 C   0  0  0  0  0  0  0  0  0  0  0  0
    1.4450   -0.0720    0.2170 C   0  0  0  0  0  0  0  0  0  0  0  0
    1.5170   -1.3920    0.6920 N   0  0  0  0  0  0  0  0  0  0  0  0
    0.2780    0.5910    0.2390 C   0  0  0  0  0  0  0  0  0  0  0  0
   -0.9000   -0.1020    0.7680 C   0  0  2  0  0  0  0  0  0  0  0  0
   -0.8760   -1.4720    0.2990 N   0  0  0  0  0  0  0  0  0  0  0  0
   -2.1860    0.5950    0.4550 C   0  0  2  0  0  0  0  0  0  0  0  0
   -3.3110   -0.1600    1.0430 C   0  0  0  0  0  0  0  0  0  0  0  0
   -4.2840   -0.2140    0.1530 C   0  0  0  0  0  0  0  0  0  0  0  0
   -5.5460   -0.8640    0.3520 N   0  0  0  0  0  0  0  0  0  0  0  0
   -3.8150    0.5110   -1.0510 C   0  0  0  0  0  0  0  0  0  0  0  0
   -2.4510    0.6550   -0.9090 O   0  0  0  0  0  0  0  0  0  0  0  0
  1  2  1  0
  2  3  2  3
  3  4  1  0
  3  6  1  0
  4  5  1  0
  6  7  1  0
  6  8  2  3
  8  9  1  0
  9 10  1  6
  9 11  1  0
 11 12  1  0
 11 16  1  6
 12 13  2  0
 13 14  1  0
 13 15  1  0
 15 16  1  0
M  END
