
     RDKit          3D

 17 17  0  0  0  0  0  0  0  0999 V2000
    4.3230   -0.8610   -0.6000 C   0  0  0  0  0  0  0  0  0  0  0  0
    3.4760    0.2320   -0.0900 C   0  0  0  0  0  0  0  0  0  0  0  0
    2.1720    0.2080   -0.0910 C   0  0  0  0  0  0  0  0  0  0  0  0
    1.3890    1.3400    0.4370 C   0  0  0  0  0  0  0  0  0  0  0  0
    1.9530    2.3750    0.9100 N   0  0  0  0  0  0  0  0  0  0  0  0
   -0.1040    1.2700    0.4160 C   0  0  0  0  0  0  0  0  0  0  0  0
   -0.7090    2.4530    0.9880 N   0  0  0  0  0  0  0  0  0  0  0  0
   -0.7550    0.2490   -0.0530 C   0  0  0  0  0  0  0  0  0  0  0  0
   -2.1950    0.1470   -0.0880 C   0  0  1  0  0  0  0  0  0  0  0  0
   -2.9420    1.3520    0.3310 C   0  0  0  0  0  0  0  0  0  0  0  0
   -2.6180   -0.1500   -1.4210 O   0  0  0  0  0  0  0  0  0  0  0  0
   -2.7510   -1.0150    0.7200 C   0  0  0  0  0  0  0  0  0  0  0  0
   -4.1550   -0.9500    0.5260 O   0  0  0  0  0  0  0  0  0  0  0  0
    0.0730   -0.8520   -0.5660 C   0  0  0  0  0  0  0  0  0  0  0  0
   -0.6180   -1.9520   -1.0700 O   0  0  0  0  0  0  0  0  0  0  0  0
    1.3780   -0.9000   -0.5970 C   0  0  0  0  0  0  0  0  0  0  0  0
    2.0100   -2.0780   -1.1440 N   0  0  0  0  0  0  0  0  0  0  0  0
  1  2  1  0
  2  3  2  3
  3  4  1  0
  3 16  1  0
  4  5  2  0
  4  6  1  0
  6  7  1  0
  6  8  2  0
  8  9  1  0
  8 14  1  0
  9 10  1  1
  9 11  1  0
  9 12  1  0
 12 13  1  0
 14 15  1  0
 14 16  2  0
 16 17  1  0
M  END
