
     RDKit          3D

 17 18  0  0  0  0  0  0  0  0999 V2000
    3.8960   -0.6860    0.8730 C   0  0  0  0  0  0  0  0  0  0  0  0
    3.4210   -0.1060   -0.3500 O   0  0  0  0  0  0  0  0  0  0  0  0
    2.0600    0.0410   -0.5220 C   0  0  0  0  0  0  0  0  0  0  0  0
    1.5030   -1.0330   -1.0660 C   0  0  0  0  0  0  0  0  0  0  0  0
    0.0980   -1.3270   -1.4290 C   0  0  0  0  0  0  0  0  0  0  0  0
   -1.0920   -0.8790   -1.0760 C   0  0  0  0  0  0  0  0  0  0  0  0
   -2.1710   -1.5130   -1.7420 N   0  0  0  0  0  0  0  0  0  0  0  0
   -1.4930    0.1650   -0.1100 C   0  0  0  0  0  0  0  0  0  0  0  0
   -0.9250    1.2160    0.4530 C   0  0  0  0  0  0  0  0  0  0  0  0
    0.4220    1.7880    0.3220 C   0  0  0  0  0  0  0  0  0  0  0  0
    1.6010    1.3390   -0.0590 C   0  0  0  0  0  0  0  0  0  0  0  0
    2.6480    2.3020   -0.0150 N   0  0  0  0  0  0  0  0  0  0  0  0
   -1.8170    1.8450    1.3100 O   0  0  0  0  0  0  0  0  0  0  0  0
   -3.0230    1.1730    1.3060 C   0  0  0  0  0  0  0  0  0  0  0  0
   -4.0300    1.5220    1.9970 O   0  0  0  0  0  0  0  0  0  0  0  0
   -2.8790    0.0410    0.3790 C   0  0  2  0  0  0  0  0  0  0  0  0
   -3.1340   -1.2370    1.0020 N   0  0  0  0  0  0  0  0  0  0  0  0
  1  2  1  0
  2  3  1  0
  3  4  2  0
  3 11  1  0
  4  5  1  0
  5  6  2  0
  6  7  1  0
  6  8  1  0
  8  9  2  0
  8 16  1  0
  9 10  1  0
  9 13  1  0
 10 11  2  0
 11 12  1  0
 13 14  1  0
 14 15  2  0
 14 16  1  0
 16 17  1  1
M  END
