
     RDKit          3D

 27 29  0  0  0  0  0  0  0  0999 V2000
    5.7850    1.9490   -2.8480 C   0  0  0  0  0  0  0  0  0  0  0  0
    4.7820    2.2980   -1.9210 O   0  0  0  0  0  0  0  0  0  0  0  0
    4.1480    1.3340   -1.1790 C   0  0  0  0  0  0  0  0  0  0  0  0
    3.1500    1.6510   -0.2530 C   0  0  0  0  0  0  0  0  0  0  0  0
    2.5150    0.6780    0.4910 C   0  0  0  0  0  0  0  0  0  0  0  0
    2.8840   -0.6380    0.3070 C   0  0  0  0  0  0  0  0  0  0  0  0
    2.2300   -1.6000    1.0690 C   0  0  0  0  0  0  0  0  0  0  0  0
    1.2010   -1.2550    2.0150 C   0  0  0  0  0  0  0  0  0  0  0  0
   -0.0760   -0.9510    1.2540 C   0  0  0  0  0  0  0  0  0  0  0  0
   -0.0980   -1.0260    0.0080 O   0  0  0  0  0  0  0  0  0  0  0  0
   -1.2030   -0.5910    1.9800 N   0  0  0  0  0  0  0  0  0  0  0  0
   -2.4760   -0.2800    1.4400 C   0  0  0  0  0  0  0  0  0  0  0  0
   -3.4410    0.3200    2.2660 C   0  0  0  0  0  0  0  0  0  0  0  0
   -4.6990    0.6380    1.8290 C   0  0  0  0  0  0  0  0  0  0  0  0
   -5.0720    0.3750    0.5320 C   0  0  0  0  0  0  0  0  0  0  0  0
   -6.6740    0.7820   -0.0470 S   0  0  1  0  0  0  0  0  0  0  0  0
   -6.6210    2.3230   -0.7890 N   0  0  0  0  0  0  0  0  0  0  0  0
   -7.2290   -0.2400   -0.9820 O   0  0  0  0  0  0  0  0  0  0  0  0
   -7.5610    0.9020    1.1870 O   0  0  0  0  0  0  0  0  0  0  0  0
   -4.1350   -0.2120   -0.2860 C   0  0  0  0  0  0  0  0  0  0  0  0
   -2.8460   -0.5440    0.1470 C   0  0  0  0  0  0  0  0  0  0  0  0
    2.5990   -2.9080    0.8840 C   0  0  0  0  0  0  0  0  0  0  0  0
    3.5840   -3.1920   -0.0340 C   0  0  0  0  0  0  0  0  0  0  0  0
    3.9600   -4.3880   -0.2400 O   0  0  0  0  0  0  0  0  0  0  0  0
    4.1910   -2.2510   -0.7480 O   0  0  0  0  0  0  0  0  0  0  0  0
    3.8690   -0.9910   -0.6030 C   0  0  0  0  0  0  0  0  0  0  0  0
    4.4950    0.0100   -1.3420 C   0  0  0  0  0  0  0  0  0  0  0  0
  1  2  1  0
  2  3  1  0
  3  4  2  0
  3 27  1  0
  4  5  1  0
  5  6  2  0
  6  7  1  0
  6 26  1  0
  7  8  1  0
  7 22  2  0
  8  9  1  0
  9 10  2  0
  9 11  1  0
 11 12  1  0
 12 13  2  0
 12 21  1  0
 13 14  1  0
 14 15  2  0
 15 16  1  0
 15 20  1  0
 16 17  1  6
 16 18  2  0
 16 19  2  0
 20 21  2  0
 22 23  1  0
 23 24  2  0
 23 25  1  0
 25 26  1  0
 26 27  2  0
M  END
