
     RDKit          3D

 14 16  0  0  0  0  0  0  0  0999 V2000
   -3.4600   -0.5220    0.8120 C   0  0  0  0  0  0  0  0  0  0  0  0
   -2.4710   -1.1550    1.4250 C   0  0  0  0  0  0  0  0  0  0  0  0
   -1.0770   -1.1290    1.1110 N   0  0  0  0  0  0  0  0  0  0  0  0
   -0.3440   -0.2810    0.2230 C   0  0  0  0  0  0  0  0  0  0  0  0
    1.0280   -0.1920    0.1500 C   0  0  0  0  0  0  0  0  0  0  0  0
    2.0410   -0.8230    0.8370 C   0  0  0  0  0  0  0  0  0  0  0  0
    3.3670   -0.5510    0.5700 C   0  0  0  0  0  0  0  0  0  0  0  0
    3.7000    0.3840   -0.4170 C   0  0  0  0  0  0  0  0  0  0  0  0
    2.6900    1.0180   -1.1060 C   0  0  0  0  0  0  0  0  0  0  0  0
    1.3600    0.7290   -0.8210 C   0  0  0  0  0  0  0  0  0  0  0  0
    0.1590    1.1830   -1.3230 C   0  0  0  0  0  0  0  0  0  0  0  0
   -0.8750    0.5660   -0.6840 N   0  0  0  0  0  0  0  0  0  0  0  0
   -2.2510    0.8140   -0.9700 C   0  0  0  0  0  0  0  0  0  0  0  0
   -3.3320    0.3650   -0.3530 C   0  0  0  0  0  0  0  0  0  0  0  0
  1  2  2  0
  1 14  1  0
  2  3  1  0
  3  4  1  0
  4  5  2  0
  4 12  1  0
  5  6  1  0
  5 10  1  0
  6  7  2  0
  7  8  1  0
  8  9  2  0
  9 10  1  0
 10 11  2  0
 11 12  1  0
 12 13  1  0
 13 14  2  0
M  END
