
     RDKit          3D

 14 16  0  0  0  0  0  0  0  0999 V2000
    4.1040   -1.0360   -0.1710 C   0  0  0  0  0  0  0  0  0  0  0  0
    3.2300   -0.0850    0.0060 C   0  0  0  0  0  0  0  0  0  0  0  0
    1.8190   -0.3890   -0.0230 C   0  0  0  0  0  0  0  0  0  0  0  0
    1.1780   -1.5820   -0.2170 C   0  0  0  0  0  0  0  0  0  0  0  0
   -0.1720   -1.4100   -0.1650 N   0  0  0  0  0  0  0  0  0  0  0  0
   -0.3570   -0.1140    0.0600 C   0  0  0  0  0  0  0  0  0  0  0  0
    0.8090    0.5570    0.1550 C   0  0  0  0  0  0  0  0  0  0  0  0
    0.8520    2.0200    0.3920 C   0  0  0  0  0  0  0  0  0  0  0  0
   -0.4750    2.5330    0.7750 C   0  0  0  0  0  0  0  0  0  0  0  0
   -1.6330    1.9500   -0.0110 C   0  0  0  0  0  0  0  0  0  0  0  0
   -1.7260    0.4780    0.1850 C   0  0  1  0  0  0  0  0  0  0  0  0
   -2.5100   -0.2360   -0.7950 N   0  0  0  0  0  0  0  0  0  0  0  0
   -2.5850   -1.5990   -0.3010 C   0  0  0  0  0  0  0  0  0  0  0  0
   -1.2790   -2.3210   -0.3090 C   0  0  0  0  0  0  0  0  0  0  0  0
  1  2  2  0
  2  3  1  0
  3  4  2  0
  3  7  1  0
  4  5  1  0
  5  6  1  0
  5 14  1  0
  6  7  2  0
  6 11  1  0
  7  8  1  0
  8  9  1  0
  9 10  1  0
 11 10  1  6
 11 12  1  0
 12 13  1  0
 13 14  1  0
M  END
