
     RDKit          3D

 14 16  0  0  0  0  0  0  0  0999 V2000
   -3.1380   -0.8520    0.1200 C   0  0  0  0  0  0  0  0  0  0  0  0
   -2.1370   -0.0050    0.1030 C   0  0  0  0  0  0  0  0  0  0  0  0
   -2.2650    1.4710    0.1620 C   0  0  0  0  0  0  0  0  0  0  0  0
   -1.0610    2.0020    0.1230 C   0  0  0  0  0  0  0  0  0  0  0  0
   -0.0200    0.9870    0.0370 C   0  0  0  0  0  0  0  0  0  0  0  0
    1.3680    1.0500   -0.0280 C   0  0  0  0  0  0  0  0  0  0  0  0
    1.9960    2.3930   -0.0100 C   0  0  0  0  0  0  0  0  0  0  0  0
    2.0750   -0.1250   -0.1040 C   0  0  0  0  0  0  0  0  0  0  0  0
    1.4550   -1.3520   -0.1180 C   0  0  0  0  0  0  0  0  0  0  0  0
    1.9190   -2.6490   -0.1870 C   0  0  0  0  0  0  0  0  0  0  0  0
    0.8330   -3.4220   -0.1630 N   0  0  0  0  0  0  0  0  0  0  0  0
   -0.2750   -2.6670   -0.0820 N   0  0  0  0  0  0  0  0  0  0  0  0
    0.0600   -1.3750   -0.0520 C   0  0  0  0  0  0  0  0  0  0  0  0
   -0.7000   -0.2270    0.0260 C   0  0  0  0  0  0  0  0  0  0  0  0
  1  2  2  0
  2  3  1  0
  2 14  1  0
  3  4  2  0
  4  5  1  0
  5  6  2  0
  5 14  1  0
  6  7  1  0
  6  8  1  0
  8  9  2  0
  9 10  1  0
  9 13  1  0
 10 11  2  0
 11 12  1  0
 12 13  1  0
 13 14  2  0
M  END
