
     RDKit          3D

 14 15  0  0  0  0  0  0  0  0999 V2000
    3.4890   -1.2590    0.2800 C   0  0  0  0  0  0  0  0  0  0  0  0
    2.2850   -1.2690   -0.5090 N   0  0  0  0  0  0  0  0  0  0  0  0
    1.4280   -0.1030   -0.5270 C   0  0  0  0  0  0  0  0  0  0  0  0
    1.8710    1.0570   -1.2950 C   0  0  0  0  0  0  0  0  0  0  0  0
    0.2870   -0.1810    0.1010 C   0  0  0  0  0  0  0  0  0  0  0  0
    0.0230   -1.5180    0.7640 C   0  0  0  0  0  0  0  0  0  0  0  0
   -1.4440   -1.5720    1.0740 C   0  0  0  0  0  0  0  0  0  0  0  0
   -2.2400   -1.4480   -0.1750 C   0  0  0  0  0  0  0  0  0  0  0  0
   -2.9700   -0.1200   -0.2900 C   0  0  0  0  0  0  0  0  0  0  0  0
   -2.0370    1.0140   -0.0480 C   0  0  0  0  0  0  0  0  0  0  0  0
   -2.4270    2.2310    0.0540 N   0  0  0  0  0  0  0  0  0  0  0  0
   -1.2970    3.0960    0.2860 C   0  0  0  0  0  0  0  0  0  0  0  0
   -0.1060    2.2000    0.3360 C   0  0  0  0  0  0  0  0  0  0  0  0
   -0.5780    0.9800    0.1270 C   0  0  0  0  0  0  0  0  0  0  0  0
  1  2  1  0
  2  3  1  0
  3  4  1  0
  3  5  2  3
  5  6  1  0
  5 14  1  0
  6  7  1  0
  7  8  1  0
  8  9  1  0
  9 10  1  0
 10 11  2  0
 10 14  1  0
 11 12  1  0
 12 13  1  0
 13 14  2  0
M  END
