
     RDKit          3D

 14 15  0  0  0  0  0  0  0  0999 V2000
   -5.0270    0.6250   -0.5650 C   0  0  0  0  0  0  0  0  0  0  0  0
   -3.6320    0.6310   -1.0230 C   0  0  0  0  0  0  0  0  0  0  0  0
   -2.6480    0.3270   -0.1370 C   0  0  0  0  0  0  0  0  0  0  0  0
   -3.0340    0.0040    1.2500 C   0  0  0  0  0  0  0  0  0  0  0  0
   -1.3230    0.3540   -0.6540 C   0  0  0  0  0  0  0  0  0  0  0  0
   -0.1530    0.1250   -0.1160 C   0  0  0  0  0  0  0  0  0  0  0  0
    1.0390    0.2420   -0.9490 N   0  0  0  0  0  0  0  0  0  0  0  0
    2.2280    0.0480   -0.5520 C   0  0  0  0  0  0  0  0  0  0  0  0
    3.5310    0.1290   -1.2760 C   0  0  0  0  0  0  0  0  0  0  0  0
    4.4280   -0.7280   -0.4480 C   0  0  0  0  0  0  0  0  0  0  0  0
    3.9950   -0.4850    0.9950 C   0  0  0  0  0  0  0  0  0  0  0  0
    2.5170   -0.3240    0.8230 C   0  0  0  0  0  0  0  0  0  0  0  0
    1.4840   -0.4470    1.6280 C   0  0  0  0  0  0  0  0  0  0  0  0
    0.1200   -0.2360    1.2200 N   0  0  0  0  0  0  0  0  0  0  0  0
  1  2  1  0
  2  3  2  3
  3  4  1  0
  3  5  1  0
  5  6  2  3
  6  7  1  0
  6 14  1  0
  7  8  2  0
  8  9  1  0
  8 12  1  0
  9 10  1  0
 10 11  1  0
 11 12  1  0
 12 13  2  0
 13 14  1  0
M  END
