
     RDKit          3D

 14 15  0  0  0  0  0  0  0  0999 V2000
    5.4480    0.2620    0.3320 C   0  0  0  0  0  0  0  0  0  0  0  0
    4.4700    1.3660    0.2830 C   0  0  0  0  0  0  0  0  0  0  0  0
    3.1820    1.0890    0.2040 C   0  0  0  0  0  0  0  0  0  0  0  0
    2.7640   -0.3000    0.1670 C   0  0  0  0  0  0  0  0  0  0  0  0
    1.5070   -0.6780    0.0880 C   0  0  0  0  0  0  0  0  0  0  0  0
    0.3630    0.2040    0.0280 C   0  0  0  0  0  0  0  0  0  0  0  0
   -0.8480   -0.3200   -0.0490 C   0  0  0  0  0  0  0  0  0  0  0  0
   -1.2800   -1.7380   -0.0880 C   0  0  0  0  0  0  0  0  0  0  0  0
   -2.5860   -1.6580    0.7140 C   0  0  0  0  0  0  0  0  0  0  0  0
   -3.1700   -0.4570    0.1490 N   0  0  0  0  0  0  0  0  0  0  0  0
   -4.4250    0.1680   -0.2480 C   0  0  0  0  0  0  0  0  0  0  0  0
   -4.0150    1.6370   -0.2250 C   0  0  0  0  0  0  0  0  0  0  0  0
   -2.5750    1.6330   -0.3300 N   0  0  0  0  0  0  0  0  0  0  0  0
   -2.1120    0.4520   -0.1180 C   0  0  0  0  0  0  0  0  0  0  0  0
  1  2  1  0
  2  3  2  3
  3  4  1  0
  4  5  2  3
  5  6  1  0
  6  7  2  3
  7  8  1  0
  7 14  1  0
  8  9  1  0
  9 10  1  0
 10 11  1  0
 10 14  1  0
 11 12  1  0
 12 13  1  0
 13 14  2  0
M  END
