
     RDKit          3D

 20 22  0  0  0  0  0  0  0  0999 V2000
   -5.4420    0.2160   -0.2540 N   0  0  0  0  0  0  0  0  0  0  0  0
   -4.0310    0.3510   -0.1430 C   0  0  0  0  0  0  0  0  0  0  0  0
   -3.4180    1.5330    0.2410 C   0  0  0  0  0  0  0  0  0  0  0  0
   -2.0800    1.5800    0.3220 N   0  0  0  0  0  0  0  0  0  0  0  0
   -1.2740    0.5400    0.0520 C   0  0  0  0  0  0  0  0  0  0  0  0
    0.1890    0.6480    0.1580 C   0  0  0  0  0  0  0  0  0  0  0  0
    0.7970    1.8230    0.5390 C   0  0  0  0  0  0  0  0  0  0  0  0
    2.1590    1.9870    0.6560 C   0  0  0  0  0  0  0  0  0  0  0  0
    2.9620    0.8770    0.3660 C   0  0  0  0  0  0  0  0  0  0  0  0
    4.3390    0.9370    0.4530 C   0  0  0  0  0  0  0  0  0  0  0  0
    5.1690    2.5560    0.9780 Br  0  0  0  0  0  0  0  0  0  0  0  0
    5.1260   -0.1660    0.1630 C   0  0  0  0  0  0  0  0  0  0  0  0
    4.5340   -1.3500   -0.2190 C   0  0  0  0  0  0  0  0  0  0  0  0
    5.6170   -2.8700   -0.6180 Br  0  0  0  0  0  0  0  0  0  0  0  0
    3.1630   -1.3760   -0.2960 C   0  0  0  0  0  0  0  0  0  0  0  0
    2.3430   -0.3020   -0.0170 C   0  0  0  0  0  0  0  0  0  0  0  0
    0.9910   -0.3950   -0.1120 N   0  0  0  0  0  0  0  0  0  0  0  0
   -1.8510   -0.6130   -0.3210 N   0  0  0  0  0  0  0  0  0  0  0  0
   -3.1920   -0.7120   -0.4180 C   0  0  0  0  0  0  0  0  0  0  0  0
   -3.8090   -1.9420   -0.8160 N   0  0  0  0  0  0  0  0  0  0  0  0
  1  2  1  0
  2  3  2  0
  2 19  1  0
  3  4  1  0
  4  5  2  0
  5  6  1  0
  5 18  1  0
  6  7  2  0
  6 17  1  0
  7  8  1  0
  8  9  2  0
  9 10  1  0
  9 16  1  0
 10 11  1  0
 10 12  2  0
 12 13  1  0
 13 14  1  0
 13 15  2  0
 15 16  1  0
 16 17  2  0
 18 19  2  0
 19 20  1  0
M  END
