
     RDKit          3D

 13 13  0  0  0  0  0  0  0  0999 V2000
   -3.6840   -0.1220    0.4890 N   0  0  0  0  0  0  0  0  0  0  0  0
   -3.2880    0.1690   -0.8410 C   0  0  0  0  0  0  0  0  0  0  0  0
   -4.2060    0.3550   -1.6980 O   0  0  0  0  0  0  0  0  0  0  0  0
   -1.8500    0.2470   -1.1940 C   0  0  0  0  0  0  0  0  0  0  0  0
   -1.0650   -0.0070   -0.0300 N   0  0  0  0  0  0  0  0  0  0  0  0
    0.3510    0.0090   -0.1000 C   0  0  0  0  0  0  0  0  0  0  0  0
    0.9860    0.2420   -1.1660 O   0  0  0  0  0  0  0  0  0  0  0  0
    1.1020   -0.2390    1.0400 O   0  0  0  0  0  0  0  0  0  0  0  0
    2.5120   -0.2280    0.9950 C   0  0  0  0  0  0  0  0  0  0  0  0
    3.1610   -0.0050   -0.0280 N   0  0  0  0  0  0  0  0  0  0  0  0
    4.5070    0.0160   -0.1170 N   0  0  0  0  0  0  0  0  0  0  0  0
    5.3330   -0.0670    1.4450 S   0  0  0  0  0  0  0  0  0  0  0  0
    3.4770   -0.5490    2.4690 S   0  0  0  0  0  0  0  0  0  0  0  0
  1  2  1  0
  2  3  2  0
  2  4  1  0
  4  5  1  0
  5  6  1  0
  6  7  2  0
  6  8  1  0
  8  9  1  0
  9 10  2  0
  9 13  1  0
 10 11  1  0
 11 12  1  0
 12 13  1  0
M  END
