
     RDKit          3D

 12 12  0  0  0  0  0  0  0  0999 V2000
   -4.4040   -0.0380   -0.1110 N   0  0  0  0  0  0  0  0  0  0  0  0
   -3.3800    0.4980    0.5480 O   0  0  0  0  0  0  0  0  0  0  0  0
   -2.1340    0.0460    0.1240 C   0  0  0  0  0  0  0  0  0  0  0  0
   -0.8900    0.8930    1.1410 S   0  0  0  0  0  0  0  0  0  0  0  0
    0.7660    0.3660    0.6600 C   0  0  0  0  0  0  0  0  0  0  0  0
    1.3470   -0.7080    1.2530 N   0  0  0  0  0  0  0  0  0  0  0  0
    2.5620   -1.0630    0.8730 N   0  0  0  0  0  0  0  0  0  0  0  0
    3.2230   -0.3770   -0.0880 C   0  0  0  0  0  0  0  0  0  0  0  0
    4.7390   -0.8780   -0.5130 S   0  0  0  0  0  0  0  0  0  0  0  0
    2.6820    0.6910   -0.7000 N   0  0  0  0  0  0  0  0  0  0  0  0
    1.4390    1.0640   -0.3190 C   0  0  0  0  0  0  0  0  0  0  0  0
    0.9070    2.0610   -0.8750 O   0  0  0  0  0  0  0  0  0  0  0  0
  1  2  1  0
  2  3  1  0
  3  4  1  0
  4  5  1  0
  5  6  2  0
  5 11  1  0
  6  7  1  0
  7  8  1  0
  8  9  2  0
  8 10  1  0
 10 11  1  0
 11 12  2  0
M  END
