
     RDKit          3D

 12 12  0  0  0  0  0  0  0  0999 V2000
   -2.1140    0.8170   -2.3610 O   0  0  0  0  0  0  0  0  0  0  0  0
   -1.7340    0.4820   -1.2080 C   0  0  0  0  0  0  0  0  0  0  0  0
   -0.7430   -0.4100   -1.0030 N   0  0  0  0  0  0  0  0  0  0  0  0
   -0.3210   -0.7830    0.2220 C   0  0  0  0  0  0  0  0  0  0  0  0
    0.9890   -1.9650    0.4640 S   0  0  0  0  0  0  0  0  0  0  0  0
    2.6170   -1.1870    0.5490 C   0  0  0  0  0  0  0  0  0  0  0  0
    3.1260   -0.4310   -0.9990 S   0  0  0  0  0  0  0  0  0  0  0  0
    2.1030    0.8860   -1.3590 O   0  0  0  0  0  0  0  0  0  0  0  0
   -0.9330   -0.2230    1.2810 N   0  0  0  0  0  0  0  0  0  0  0  0
   -1.9220    0.6680    1.1040 C   0  0  0  0  0  0  0  0  0  0  0  0
   -2.4800    1.1780    2.1040 O   0  0  0  0  0  0  0  0  0  0  0  0
   -2.3200    1.0180   -0.1250 N   0  0  0  0  0  0  0  0  0  0  0  0
  1  2  2  0
  2  3  1  0
  2 12  1  0
  3  4  2  0
  4  5  1  0
  4  9  1  0
  5  6  1  0
  6  7  1  0
  7  8  1  0
  9 10  1  0
 10 11  2  0
 10 12  1  0
M  END
