
     RDKit          3D

 13 13  0  0  0  0  0  0  0  0999 V2000
   -3.9060    0.2060    0.2220 N   0  0  0  0  0  0  0  0  0  0  0  0
   -2.6850   -0.3570   -0.2030 C   0  0  0  0  0  0  0  0  0  0  0  0
   -2.7230   -1.6710   -1.1480 S   0  0  0  0  0  0  0  0  0  0  0  0
   -1.4290    0.2410    0.2100 C   0  0  0  0  0  0  0  0  0  0  0  0
   -0.2630   -0.4460   -0.3050 N   0  0  0  0  0  0  0  0  0  0  0  0
    1.0680    0.0160    0.0150 C   0  0  0  0  0  0  0  0  0  0  0  0
    1.2340    1.2550    0.2950 N   0  0  0  0  0  0  0  0  0  0  0  0
    2.9150    1.4490    0.6200 S   0  0  2  0  0  0  0  0  0  0  0  0
    3.1560    1.8620    2.0460 O   0  0  0  0  0  0  0  0  0  0  0  0
    3.5840    2.3580   -0.3570 O   0  0  0  0  0  0  0  0  0  0  0  0
    3.3380   -0.1990    0.3590 N   0  0  0  0  0  0  0  0  0  0  0  0
    2.2570   -0.7980    0.0530 C   0  0  0  0  0  0  0  0  0  0  0  0
    2.3300   -2.1940   -0.2170 O   0  0  0  0  0  0  0  0  0  0  0  0
  1  2  1  0
  2  3  2  0
  2  4  1  0
  4  5  1  0
  5  6  1  0
  6  7  2  0
  6 12  1  0
  8  7  1  6
  8  9  2  0
  8 10  2  0
  8 11  1  0
 11 12  2  0
 12 13  1  0
M  END
