
     RDKit          3D

 13 13  0  0  0  0  0  0  0  0999 V2000
    4.4650   -0.1090   -0.1520 C   0  0  0  0  0  0  0  0  0  0  0  0
    3.0440    0.3190   -0.2260 C   0  0  0  0  0  0  0  0  0  0  0  0
    2.7510    1.4050   -0.8330 O   0  0  0  0  0  0  0  0  0  0  0  0
    2.0190   -0.4330    0.3480 N   0  0  0  0  0  0  0  0  0  0  0  0
    0.6740    0.0510    0.2310 C   0  0  0  0  0  0  0  0  0  0  0  0
    0.0680    0.9580   -0.2300 N   0  0  0  0  0  0  0  0  0  0  0  0
   -1.2110    1.1210   -0.1660 N   0  0  0  0  0  0  0  0  0  0  0  0
   -1.9650    0.3270    0.4000 C   0  0  0  0  0  0  0  0  0  0  0  0
   -3.6610    0.1950    0.6930 S   0  0  1  0  0  0  0  0  0  0  0  0
   -4.3950   -0.6600   -0.5890 N   0  0  0  0  0  0  0  0  0  0  0  0
   -3.9660   -0.5650    1.9740 O   0  0  0  0  0  0  0  0  0  0  0  0
   -4.2160    1.5760    0.8870 O   0  0  0  0  0  0  0  0  0  0  0  0
   -0.7310   -0.9340    0.9920 S   0  0  0  0  0  0  0  0  0  0  0  0
  1  2  1  0
  2  3  2  0
  2  4  1  0
  4  5  1  0
  5  6  2  0
  5 13  1  0
  6  7  1  0
  7  8  2  0
  8  9  1  0
  8 13  1  0
  9 10  1  6
  9 11  2  0
  9 12  2  0
M  END
