
     RDKit          3D

 13 13  0  0  0  0  0  0  0  0999 V2000
    2.1250   -2.0870    0.2290 O   0  0  0  0  0  0  0  0  0  0  0  0
    2.3910   -0.9680   -0.1650 C   0  0  0  0  0  0  0  0  0  0  0  0
    4.1080   -0.5420   -0.5760 S   0  0  0  0  0  0  0  0  0  0  0  0
    1.4330    0.0480   -0.3300 N   0  0  0  0  0  0  0  0  0  0  0  0
    0.0820    0.0700   -0.1310 N   0  0  0  0  0  0  0  0  0  0  0  0
   -0.5290    1.2920   -0.2510 C   0  0  0  0  0  0  0  0  0  0  0  0
    0.1180    2.3490   -0.5110 O   0  0  0  0  0  0  0  0  0  0  0  0
   -1.8490    1.3640   -0.0870 N   0  0  0  0  0  0  0  0  0  0  0  0
   -2.6280    0.3050    0.1910 C   0  0  0  0  0  0  0  0  0  0  0  0
   -3.8780    0.4510    0.3340 O   0  0  0  0  0  0  0  0  0  0  0  0
   -2.0500   -0.8910    0.3100 N   0  0  0  0  0  0  0  0  0  0  0  0
   -0.6770   -0.9820    0.1410 C   0  0  0  0  0  0  0  0  0  0  0  0
   -0.1340   -2.5190    0.2790 S   0  0  0  0  0  0  0  0  0  0  0  0
  1  2  2  0
  2  3  1  0
  2  4  1  0
  4  5  1  0
  5  6  1  0
  5 12  1  0
  6  7  2  0
  6  8  1  0
  8  9  1  0
  9 10  2  0
  9 11  1  0
 11 12  1  0
 12 13  2  0
M  END
