
     RDKit          3D

 12 12  0  0  0  0  0  0  0  0999 V2000
   -3.5950   -0.1130    0.6260 C   0  0  0  0  0  0  0  0  0  0  0  0
   -2.6350   -1.1000    0.3200 O   0  0  0  0  0  0  0  0  0  0  0  0
   -1.6070   -0.7690   -0.5430 C   0  0  0  0  0  0  0  0  0  0  0  0
   -1.5760    0.3870   -1.0120 O   0  0  0  0  0  0  0  0  0  0  0  0
   -0.5640   -1.7560   -0.9080 C   0  0  0  0  0  0  0  0  0  0  0  0
    0.6330   -1.0320   -2.0370 S   0  0  0  0  0  0  0  0  0  0  0  0
    1.5350    0.2480   -1.1860 C   0  0  0  0  0  0  0  0  0  0  0  0
    2.4870    1.0220   -1.6170 N   0  0  0  0  0  0  0  0  0  0  0  0
    2.9140    1.8880   -0.6160 N   0  0  0  0  0  0  0  0  0  0  0  0
    2.5310    1.2770    0.6010 N   0  0  0  0  0  0  0  0  0  0  0  0
    3.4500    0.3200    0.9210 O   0  0  0  0  0  0  0  0  0  0  0  0
    1.3410    0.6380    0.1630 N   0  0  0  0  0  0  0  0  0  0  0  0
  1  2  1  0
  2  3  1  0
  3  4  2  0
  3  5  1  0
  5  6  1  0
  6  7  1  0
  7  8  2  0
  7 12  1  0
  8  9  1  0
  9 10  1  0
 10 11  1  0
 10 12  1  0
M  END
