
     RDKit          3D

 26 29  0  0  0  0  0  0  0  0999 V2000
    6.3700    2.5170    0.0270 C   0  0  0  0  0  0  0  0  0  0  0  0
    5.5860    1.2360    0.1430 C   0  0  0  0  0  0  0  0  0  0  0  0
    4.2860    1.2050    0.5420 C   0  0  0  0  0  0  0  0  0  0  0  0
    3.5960    0.0350    0.6410 C   0  0  0  0  0  0  0  0  0  0  0  0
    4.2550   -1.1470    0.3190 C   0  0  0  0  0  0  0  0  0  0  0  0
    3.5670   -2.4620    0.3990 C   0  0  0  0  0  0  0  0  0  0  0  0
    3.0600   -2.7630   -0.8270 O   0  0  0  0  0  0  0  0  0  0  0  0
    2.1620   -1.9180   -1.3880 C   0  0  0  0  0  0  0  0  0  0  0  0
    0.9250   -1.8300   -0.5740 C   0  0  0  0  0  0  0  0  0  0  0  0
    0.8130   -2.5300    0.4480 O   0  0  0  0  0  0  0  0  0  0  0  0
   -0.1310   -0.9700   -0.9270 N   0  0  0  0  0  0  0  0  0  0  0  0
   -1.3560   -0.7790   -0.2550 C   0  0  0  0  0  0  0  0  0  0  0  0
   -1.7190   -1.3250    0.9510 C   0  0  0  0  0  0  0  0  0  0  0  0
   -2.9400   -1.1040    1.5490 C   0  0  0  0  0  0  0  0  0  0  0  0
   -3.8760   -0.2700    0.8940 C   0  0  0  0  0  0  0  0  0  0  0  0
   -3.5580    0.2950   -0.3060 C   0  0  0  0  0  0  0  0  0  0  0  0
   -2.3120    0.0330   -0.8580 C   0  0  0  0  0  0  0  0  0  0  0  0
   -4.5030    1.1590   -1.0050 C   0  0  0  0  0  0  0  0  0  0  0  0
   -4.4460    1.8120   -2.1460 O   0  0  0  0  0  0  0  0  0  0  0  0
   -5.5770    2.4660   -2.3450 C   0  0  0  0  0  0  0  0  0  0  0  0
   -6.4320    2.2310   -1.2680 C   0  0  0  0  0  0  0  0  0  0  0  0
   -5.7260    1.3950   -0.4280 C   0  0  0  0  0  0  0  0  0  0  0  0
   -6.1410    0.8270    0.8560 C   0  0  0  0  0  0  0  0  0  0  0  0
   -5.1800   -0.0400    1.5460 C   0  0  0  0  0  0  0  0  0  0  0  0
    5.5700   -1.1260   -0.0860 C   0  0  0  0  0  0  0  0  0  0  0  0
    6.2450    0.0520   -0.1790 C   0  0  0  0  0  0  0  0  0  0  0  0
  1  2  1  0
  2  3  2  0
  2 26  1  0
  3  4  1  0
  4  5  2  0
  5  6  1  0
  5 25  1  0
  6  7  1  0
  7  8  1  0
  8  9  1  0
  9 10  2  0
  9 11  1  0
 11 12  1  0
 12 13  2  0
 12 17  1  0
 13 14  1  0
 14 15  2  0
 15 16  1  0
 15 24  1  0
 16 17  2  0
 16 18  1  0
 18 19  1  0
 18 22  2  0
 19 20  1  0
 20 21  2  0
 21 22  1  0
 22 23  1  0
 23 24  1  0
 25 26  2  0
M  END
