
     RDKit          3D

 26 28  0  0  0  0  0  0  0  0999 V2000
    1.3340    0.5690    5.0080 C   0  0  0  0  0  0  0  0  0  0  0  0
    0.2520    0.4340    4.1310 O   0  0  0  0  0  0  0  0  0  0  0  0
    0.5220    0.3400    2.7510 C   0  0  0  0  0  0  0  0  0  0  0  0
    1.8190    0.3830    2.2840 C   0  0  0  0  0  0  0  0  0  0  0  0
    2.0580    0.2870    0.9050 C   0  0  0  0  0  0  0  0  0  0  0  0
    3.4020    0.3380    0.4630 N   0  0  0  0  0  0  0  0  0  0  0  0
    3.8540    0.4110   -0.8920 C   0  0  2  0  0  0  0  0  0  0  0  0
    3.3860    1.6980   -1.5580 C   0  0  0  0  0  0  0  0  0  0  0  0
    3.4390   -0.7460   -1.7600 C   0  0  0  0  0  0  0  0  0  0  0  0
    0.9620    0.1550    0.1080 C   0  0  0  0  0  0  0  0  0  0  0  0
   -0.3620    0.1070    0.5230 C   0  0  0  0  0  0  0  0  0  0  0  0
   -1.4640   -0.2320   -0.3340 C   0  0  0  0  0  0  0  0  0  0  0  0
   -2.5920    0.3550   -0.4590 C   0  0  0  0  0  0  0  0  0  0  0  0
   -3.1760    1.5170    0.1330 C   0  0  0  0  0  0  0  0  0  0  0  0
   -4.4710    1.8390   -0.1640 C   0  0  0  0  0  0  0  0  0  0  0  0
   -4.8480    3.0370    0.5200 C   0  0  0  0  0  0  0  0  0  0  0  0
   -3.8670    3.4890    1.2180 C   0  0  0  0  0  0  0  0  0  0  0  0
   -2.7340    2.5520    1.0140 C   0  0  0  0  0  0  0  0  0  0  0  0
   -1.6290    2.7070    1.5380 O   0  0  0  0  0  0  0  0  0  0  0  0
   -1.2190   -1.4760   -1.1610 C   0  0  0  0  0  0  0  0  0  0  0  0
   -0.1080   -2.2520   -1.0810 C   0  0  0  0  0  0  0  0  0  0  0  0
   -0.3260   -3.2730   -2.0220 C   0  0  0  0  0  0  0  0  0  0  0  0
   -1.5590   -3.0380   -2.6030 C   0  0  0  0  0  0  0  0  0  0  0  0
   -2.2080   -3.8800   -3.6700 C   0  0  0  0  0  0  0  0  0  0  0  0
   -2.0410   -1.9580   -2.0520 O   0  0  0  0  0  0  0  0  0  0  0  0
   -0.5470    0.2070    1.9090 C   0  0  0  0  0  0  0  0  0  0  0  0
  1  2  1  0
  2  3  1  0
  3  4  2  0
  3 26  1  0
  4  5  1  0
  5  6  1  0
  5 10  2  0
  6  7  1  0
  7  8  1  6
  7  9  1  0
 10 11  1  0
 11 12  1  0
 11 26  2  0
 12 13  2  3
 12 20  1  0
 13 14  1  0
 14 15  2  0
 14 18  1  0
 15 16  1  0
 16 17  2  0
 17 18  1  0
 18 19  2  0
 20 21  2  0
 20 25  1  0
 21 22  1  0
 22 23  2  0
 23 24  1  0
 23 25  1  0
M  END
