
     RDKit          3D

 26 29  0  0  0  0  0  0  0  0999 V2000
    1.3490   -1.2180    1.4570 O   0  0  0  0  0  0  0  0  0  0  0  0
    2.0880   -0.8580    0.5790 C   0  0  0  0  0  0  0  0  0  0  0  0
    1.5780   -0.5440   -0.7360 O   0  0  0  0  0  0  0  0  0  0  0  0
    0.1330   -0.5860   -0.9810 C   0  0  0  0  0  0  0  0  0  0  0  0
   -0.4980    0.7220   -0.8010 C   0  0  0  0  0  0  0  0  0  0  0  0
   -0.1030    1.8140   -1.5500 C   0  0  0  0  0  0  0  0  0  0  0  0
   -0.5660    3.0500   -1.1590 C   0  0  0  0  0  0  0  0  0  0  0  0
   -1.3740    3.2480   -0.0610 C   0  0  0  0  0  0  0  0  0  0  0  0
   -1.7670    2.1390    0.6720 C   0  0  0  0  0  0  0  0  0  0  0  0
   -1.3550    0.9080    0.2770 C   0  0  0  0  0  0  0  0  0  0  0  0
   -2.0000   -0.3890    0.6320 C   0  0  0  0  0  0  0  0  0  0  0  0
   -3.1000   -0.8540    0.0930 O   0  0  0  0  0  0  0  0  0  0  0  0
   -4.0270   -0.4590   -0.7390 C   0  0  2  0  0  0  0  0  0  0  0  0
   -4.8260    0.6320    0.1290 C   0  0  0  0  0  0  0  0  0  0  0  0
   -5.9400   -0.1030    0.7850 C   0  0  0  0  0  0  0  0  0  0  0  0
   -6.3910   -0.9990   -0.3400 C   0  0  0  0  0  0  0  0  0  0  0  0
   -5.0930   -1.4600   -0.9620 C   0  0  0  0  0  0  0  0  0  0  0  0
    3.5310   -0.6870    0.7540 C   0  0  0  0  0  0  0  0  0  0  0  0
    4.2090   -0.5300    1.9350 C   0  0  0  0  0  0  0  0  0  0  0  0
    5.5950   -0.4970    2.0580 C   0  0  0  0  0  0  0  0  0  0  0  0
    6.3820   -0.6420    0.9250 C   0  0  0  0  0  0  0  0  0  0  0  0
    7.6990   -0.5970    0.6350 N   0  0  0  0  0  0  0  0  0  0  0  0
    7.8960   -0.7750   -0.6810 C   0  0  0  0  0  0  0  0  0  0  0  0
    6.6820   -0.8860   -1.2480 C   0  0  0  0  0  0  0  0  0  0  0  0
    5.7300   -0.8580   -0.2880 C   0  0  0  0  0  0  0  0  0  0  0  0
    4.3700   -0.8790   -0.3210 C   0  0  0  0  0  0  0  0  0  0  0  0
  1  2  2  0
  2  3  1  0
  2 18  1  0
  3  4  1  0
  4  5  1  0
  5  6  2  0
  5 10  1  0
  6  7  1  0
  7  8  2  0
  8  9  1  0
  9 10  2  0
 10 11  1  0
 11 12  1  0
 13 12  1  1
 13 14  1  0
 13 17  1  0
 14 15  1  0
 15 16  1  0
 16 17  1  0
 18 19  2  0
 18 26  1  0
 19 20  1  0
 20 21  2  0
 21 22  1  0
 21 25  1  0
 22 23  1  0
 23 24  2  0
 24 25  1  0
 25 26  2  0
M  END
