
     RDKit          3D

 26 28  0  0  0  0  0  0  0  0999 V2000
   -4.8900   -2.9370   -1.9540 C   0  0  0  0  0  0  0  0  0  0  0  0
   -5.0310   -1.7850   -1.2370 C   0  0  0  0  0  0  0  0  0  0  0  0
   -6.3760   -1.5030   -0.7110 C   0  0  0  0  0  0  0  0  0  0  0  0
   -3.8750   -0.9550   -1.0580 C   0  0  0  0  0  0  0  0  0  0  0  0
   -3.6510    0.1670   -0.4570 C   0  0  0  0  0  0  0  0  0  0  0  0
   -2.2560    0.7150   -0.5070 C   0  0  0  0  0  0  0  0  0  0  0  0
   -1.9550    1.8510    0.0820 C   0  0  0  0  0  0  0  0  0  0  0  0
   -0.5740    2.4140    0.0440 C   0  0  0  0  0  0  0  0  0  0  0  0
   -0.0890    2.5380    1.4660 C   0  0  0  0  0  0  0  0  0  0  0  0
   -0.0910    1.1650    2.0920 C   0  0  0  0  0  0  0  0  0  0  0  0
    0.8300    0.2780    1.3140 C   0  0  0  0  0  0  0  0  0  0  0  0
    2.1650    0.7770    1.3070 O   0  0  0  0  0  0  0  0  0  0  0  0
    3.1430    0.0630    0.6250 C   0  0  0  0  0  0  0  0  0  0  0  0
    2.8410   -1.1070   -0.0360 C   0  0  0  0  0  0  0  0  0  0  0  0
    3.8570   -1.7840   -0.7040 C   0  0  0  0  0  0  0  0  0  0  0  0
    3.5850   -2.9770   -1.3870 O   0  0  0  0  0  0  0  0  0  0  0  0
    4.6680   -3.6060   -2.0410 C   0  0  0  0  0  0  0  0  0  0  0  0
    5.1270   -1.2450   -0.6700 C   0  0  0  0  0  0  0  0  0  0  0  0
    5.4470   -0.0750   -0.0130 C   0  0  0  0  0  0  0  0  0  0  0  0
    6.5600    0.6210    0.1570 O   0  0  0  0  0  0  0  0  0  0  0  0
    6.3230    1.6810    0.8780 C   0  0  0  0  0  0  0  0  0  0  0  0
    4.9800    1.7200    1.2240 C   0  0  0  0  0  0  0  0  0  0  0  0
    4.4370    0.5910    0.6470 C   0  0  0  0  0  0  0  0  0  0  0  0
   -2.9760    2.6030    0.7990 C   0  0  0  0  0  0  0  0  0  0  0  0
   -4.2220    2.1690    0.8760 C   0  0  0  0  0  0  0  0  0  0  0  0
   -4.6070    0.9200    0.2440 N   0  0  0  0  0  0  0  0  0  0  0  0
  1  2  2  0
  2  3  1  0
  2  4  1  0
  4  5  2  3
  5  6  1  0
  5 26  1  0
  6  7  2  0
  7  8  1  0
  7 24  1  0
  8  9  1  0
  9 10  1  0
 10 11  1  0
 11 12  1  0
 12 13  1  0
 13 14  2  0
 13 23  1  0
 14 15  1  0
 15 16  1  0
 15 18  2  0
 16 17  1  0
 18 19  1  0
 19 20  1  0
 19 23  2  0
 20 21  1  0
 21 22  2  0
 22 23  1  0
 24 25  2  0
 25 26  1  0
M  END
