
     RDKit          3D

 17 18  0  0  0  0  0  0  0  0999 V2000
    1.5640   -1.2360    1.6520 C   0  0  0  0  0  0  0  0  0  0  0  0
    0.9030   -0.4040    0.5440 C   0  0  1  0  0  0  0  0  0  0  0  0
    1.9140   -0.2100   -0.5680 C   0  0  0  0  0  0  0  0  0  0  0  0
    3.1500    0.5100   -0.0820 C   0  0  0  0  0  0  0  0  0  0  0  0
    4.0010    0.6260   -1.2000 O   0  0  0  0  0  0  0  0  0  0  0  0
   -0.2220   -1.2400   -0.0080 C   0  0  0  0  0  0  0  0  0  0  0  0
   -1.5790   -0.6820    0.3190 C   0  0  2  0  0  0  0  0  0  0  0  0
   -1.9600   -1.0290    1.6010 O   0  0  0  0  0  0  0  0  0  0  0  0
   -2.5750   -1.1960   -0.6050 N   0  0  0  0  0  0  0  0  0  0  0  0
   -2.3090   -0.4840   -1.7780 N   0  0  0  0  0  0  0  0  0  0  0  0
   -1.9890    0.8570   -1.3930 C   0  0  0  0  0  0  0  0  0  0  0  0
   -1.9710    1.8980   -2.1050 O   0  0  0  0  0  0  0  0  0  0  0  0
   -1.6660    0.8050    0.0630 C   0  0  1  0  0  0  0  0  0  0  0  0
   -2.7490    1.2980    0.7620 O   0  0  0  0  0  0  0  0  0  0  0  0
   -0.3760    1.5190    0.3700 C   0  0  1  0  0  0  0  0  0  0  0  0
   -0.7130    2.6430    1.1540 O   0  0  0  0  0  0  0  0  0  0  0  0
    0.5010    0.7690    1.1120 O   0  0  0  0  0  0  0  0  0  0  0  0
  2  1  1  1
  2  3  1  0
  2  6  1  0
  2 17  1  0
  3  4  1  0
  4  5  1  0
  6  7  1  0
  7  8  1  1
  7  9  1  0
  7 13  1  0
  9 10  1  0
 10 11  1  0
 11 12  2  0
 11 13  1  0
 13 14  1  1
 13 15  1  0
 15 16  1  1
 15 17  1  0
M  END
