
     RDKit          3D

 26 29  0  0  0  0  0  0  0  0999 V2000
   -0.5560    4.8900   -0.2540 C   0  0  0  0  0  0  0  0  0  0  0  0
   -1.1180    3.5370   -0.5240 C   0  0  0  0  0  0  0  0  0  0  0  0
   -2.2910    3.4190   -1.2460 C   0  0  0  0  0  0  0  0  0  0  0  0
   -2.7780    2.1580   -1.4750 C   0  0  0  0  0  0  0  0  0  0  0  0
   -2.1240    1.0190   -1.0030 C   0  0  0  0  0  0  0  0  0  0  0  0
   -0.9610    1.1120   -0.2840 C   0  0  0  0  0  0  0  0  0  0  0  0
   -0.2320    0.0220    0.3120 C   0  0  0  0  0  0  0  0  0  0  0  0
   -0.6620   -1.1720    0.5070 C   0  0  0  0  0  0  0  0  0  0  0  0
   -1.9260   -1.8160    0.2400 C   0  0  0  0  0  0  0  0  0  0  0  0
   -1.9350   -2.9520   -0.5550 C   0  0  0  0  0  0  0  0  0  0  0  0
   -3.0740   -3.6760   -0.8030 C   0  0  0  0  0  0  0  0  0  0  0  0
   -4.2730   -3.2820   -0.2530 C   0  0  0  0  0  0  0  0  0  0  0  0
   -5.4380   -4.0170   -0.5020 O   0  0  0  0  0  0  0  0  0  0  0  0
   -4.2700   -2.1580    0.5340 C   0  0  0  0  0  0  0  0  0  0  0  0
   -3.1410   -1.4320    0.7860 C   0  0  0  0  0  0  0  0  0  0  0  0
    1.1200    0.2920    0.7250 N   0  0  0  0  0  0  0  0  0  0  0  0
    2.1220   -0.3570    0.3040 C   0  0  0  0  0  0  0  0  0  0  0  0
    2.1360   -1.4860   -0.6600 C   0  0  0  0  0  0  0  0  0  0  0  0
    3.4400   -1.3610   -1.2180 O   0  0  0  0  0  0  0  0  0  0  0  0
    4.3180   -0.7750   -0.3080 C   0  0  0  0  0  0  0  0  0  0  0  0
    5.6300   -0.7080   -0.1880 C   0  0  0  0  0  0  0  0  0  0  0  0
    6.2390   -0.0330    0.8530 O   0  0  0  0  0  0  0  0  0  0  0  0
    5.5740    0.6390    1.8770 C   0  0  0  0  0  0  0  0  0  0  0  0
    4.1100    0.5220    1.6800 C   0  0  0  0  0  0  0  0  0  0  0  0
    3.5100   -0.1040    0.7090 C   0  0  0  0  0  0  0  0  0  0  0  0
   -0.4760    2.4190   -0.0600 C   0  0  0  0  0  0  0  0  0  0  0  0
  1  2  1  0
  2  3  2  0
  2 26  1  0
  3  4  1  0
  4  5  2  0
  5  6  1  0
  6  7  1  0
  6 26  2  0
  7  8  2  3
  7 16  1  0
  8  9  1  0
  9 10  2  0
  9 15  1  0
 10 11  1  0
 11 12  2  0
 12 13  1  0
 12 14  1  0
 14 15  2  0
 16 17  2  3
 17 18  1  0
 17 25  1  0
 18 19  1  0
 19 20  1  0
 20 21  2  0
 20 25  1  0
 21 22  1  0
 22 23  1  0
 23 24  1  0
 24 25  2  0
M  END
