
     RDKit          3D

 22 23  0  0  0  0  0  0  0  0999 V2000
   -6.8370    1.0040   -1.0340 N   0  0  0  0  0  0  0  0  0  0  0  0
   -6.0940   -0.4540   -0.5200 S   0  0  2  0  0  0  0  0  0  0  0  0
   -6.2730   -1.4770   -1.6110 O   0  0  0  0  0  0  0  0  0  0  0  0
   -6.8360   -0.9520    0.6950 O   0  0  0  0  0  0  0  0  0  0  0  0
   -4.4260   -0.2370   -0.1030 C   0  0  0  0  0  0  0  0  0  0  0  0
   -4.1000    0.0860    1.1920 C   0  0  0  0  0  0  0  0  0  0  0  0
   -2.8150    0.2710    1.5900 C   0  0  0  0  0  0  0  0  0  0  0  0
   -1.7540    0.1400    0.6930 C   0  0  0  0  0  0  0  0  0  0  0  0
   -0.4580    0.3540    1.1980 N   0  0  0  0  0  0  0  0  0  0  0  0
    0.7390    0.2040    0.4720 C   0  0  0  0  0  0  0  0  0  0  0  0
    0.8520   -0.1650   -0.8100 N   0  0  0  0  0  0  0  0  0  0  0  0
    2.0120   -0.2930   -1.4550 C   0  0  0  0  0  0  0  0  0  0  0  0
    2.0960   -0.7820   -3.1390 Cl  0  0  0  0  0  0  0  0  0  0  0  0
    3.1360   -0.0300   -0.7600 N   0  0  0  0  0  0  0  0  0  0  0  0
    3.1260    0.3450    0.5200 C   0  0  0  0  0  0  0  0  0  0  0  0
    4.3340    0.6140    1.2210 N   0  0  0  0  0  0  0  0  0  0  0  0
    5.6020    0.4790    0.5650 C   0  0  0  0  0  0  0  0  0  0  0  0
    5.8280   -0.9730    0.2320 C   0  0  0  0  0  0  0  0  0  0  0  0
    7.0710   -1.0570   -0.4020 O   0  0  0  0  0  0  0  0  0  0  0  0
    1.9300    0.4570    1.1190 N   0  0  0  0  0  0  0  0  0  0  0  0
   -2.0770   -0.1830   -0.6000 C   0  0  0  0  0  0  0  0  0  0  0  0
   -3.4020   -0.3710   -0.9990 C   0  0  0  0  0  0  0  0  0  0  0  0
  2  1  1  6
  2  3  2  0
  2  4  2  0
  2  5  1  0
  5  6  2  0
  5 22  1  0
  6  7  1  0
  7  8  2  0
  8  9  1  0
  8 21  1  0
  9 10  1  0
 10 11  2  0
 10 20  1  0
 11 12  1  0
 12 13  1  0
 12 14  2  0
 14 15  1  0
 15 16  1  0
 15 20  2  0
 16 17  1  0
 17 18  1  0
 18 19  1  0
 21 22  2  0
M  END
