
     RDKit          3D

  8  8  0  0  0  0  0  0  0  0999 V2000
    2.3420    0.5670    0.0530 C   0  0  0  0  0  0  0  0  0  0  0  0
    2.0860   -0.9200    0.1890 C   0  0  0  0  0  0  0  0  0  0  0  0
    1.0290   -1.2450   -0.6970 O   0  0  0  0  0  0  0  0  0  0  0  0
   -0.1670   -0.6250   -0.5090 C   0  0  0  0  0  0  0  0  0  0  0  0
   -0.5530   -0.0240    0.5170 N   0  0  0  0  0  0  0  0  0  0  0  0
   -1.8200    0.5690    0.5590 C   0  0  0  0  0  0  0  0  0  0  0  0
   -2.7730   -0.0470   -0.4410 C   0  0  0  0  0  0  0  0  0  0  0  0
   -1.4940   -0.5170   -1.6920 S   0  0  0  0  0  0  0  0  0  0  0  0
  1  2  1  0
  2  3  1  0
  3  4  1  0
  4  5  2  0
  4  8  1  0
  5  6  1  0
  6  7  1  0
  7  8  1  0
M  END
