
     RDKit          3D

 24 25  0  0  0  0  0  0  0  0999 V2000
    8.5560   -0.0310   -0.0610 C   0  0  0  0  0  0  0  0  0  0  0  0
    7.2950   -0.4370    0.4460 O   0  0  0  0  0  0  0  0  0  0  0  0
    6.0970   -0.0210   -0.1030 C   0  0  0  0  0  0  0  0  0  0  0  0
    6.1260    0.7490   -1.0920 O   0  0  0  0  0  0  0  0  0  0  0  0
    4.7920   -0.4500    0.4330 C   0  0  0  0  0  0  0  0  0  0  0  0
    3.6790    0.0940   -0.2800 N   0  0  0  0  0  0  0  0  0  0  0  0
    2.3540   -0.2300    0.1210 C   0  0  0  0  0  0  0  0  0  0  0  0
    2.1450   -1.0530    1.1750 N   0  0  0  0  0  0  0  0  0  0  0  0
    0.8810   -1.3580    1.5520 C   0  0  0  0  0  0  0  0  0  0  0  0
    0.5550   -2.4110    2.9000 Cl  0  0  0  0  0  0  0  0  0  0  0  0
   -0.1470   -0.8360    0.8690 N   0  0  0  0  0  0  0  0  0  0  0  0
   -0.0000   -0.0230   -0.1740 C   0  0  0  0  0  0  0  0  0  0  0  0
   -1.0280    0.5520   -0.9260 N   0  0  0  0  0  0  0  0  0  0  0  0
   -2.3960    0.3640   -0.6860 C   0  0  0  0  0  0  0  0  0  0  0  0
   -2.9050   -0.2280    0.4200 C   0  0  0  0  0  0  0  0  0  0  0  0
   -4.2840   -0.4020    0.6010 C   0  0  0  0  0  0  0  0  0  0  0  0
   -5.1700    0.0300   -0.3520 C   0  0  0  0  0  0  0  0  0  0  0  0
   -6.9070   -0.1810   -0.1420 S   0  0  1  0  0  0  0  0  0  0  0  0
   -7.5240    1.1940    0.6530 N   0  0  0  0  0  0  0  0  0  0  0  0
   -7.5630   -0.3320   -1.4900 O   0  0  0  0  0  0  0  0  0  0  0  0
   -7.1540   -1.3830    0.7280 O   0  0  0  0  0  0  0  0  0  0  0  0
   -4.6500    0.6330   -1.4790 C   0  0  0  0  0  0  0  0  0  0  0  0
   -3.3070    0.8070   -1.6660 C   0  0  0  0  0  0  0  0  0  0  0  0
    1.2890    0.2630   -0.5260 N   0  0  0  0  0  0  0  0  0  0  0  0
  1  2  1  0
  2  3  1  0
  3  4  2  0
  3  5  1  0
  5  6  1  0
  6  7  1  0
  7  8  2  0
  7 24  1  0
  8  9  1  0
  9 10  1  0
  9 11  2  0
 11 12  1  0
 12 13  1  0
 12 24  2  0
 13 14  1  0
 14 15  2  0
 14 23  1  0
 15 16  1  0
 16 17  2  0
 17 18  1  0
 17 22  1  0
 18 19  1  1
 18 20  2  0
 18 21  2  0
 22 23  2  0
M  END
