
     RDKit          3D

  8  8  0  0  0  0  0  0  0  0999 V2000
    2.3880    0.3720   -0.2850 C   0  0  0  0  0  0  0  0  0  0  0  0
    1.4010   -0.1320    0.7130 C   0  0  0  0  0  0  0  0  0  0  0  0
    2.0310   -0.7110    2.1190 S   0  0  0  0  0  0  0  0  0  0  0  0
   -0.0260   -0.1210    0.4820 C   0  0  0  0  0  0  0  0  0  0  0  0
   -0.6320    0.3140   -0.5920 C   0  0  0  0  0  0  0  0  0  0  0  0
   -2.1240    0.1520   -0.4440 C   0  0  0  0  0  0  0  0  0  0  0  0
   -2.2290   -0.5840    0.8010 N   0  0  0  0  0  0  0  0  0  0  0  0
   -0.9750   -0.5710    1.3620 O   0  0  0  0  0  0  0  0  0  0  0  0
  1  2  1  0
  2  3  2  0
  2  4  1  0
  4  5  2  0
  4  8  1  0
  5  6  1  0
  6  7  1  0
  7  8  1  0
M  END
