
     RDKit          3D

  8  8  0  0  0  0  0  0  0  0999 V2000
   -2.2340    0.1590   -0.1490 C   0  0  0  0  0  0  0  0  0  0  0  0
   -1.6020   -1.2020   -0.1550 C   0  0  0  0  0  0  0  0  0  0  0  0
   -0.3250   -1.1760   -0.8010 O   0  0  0  0  0  0  0  0  0  0  0  0
    0.6880   -0.3390   -0.2710 C   0  0  0  0  0  0  0  0  0  0  0  0
    0.6490    0.1120    0.8790 N   0  0  0  0  0  0  0  0  0  0  0  0
    1.6630    0.9420    1.3880 C   0  0  0  0  0  0  0  0  0  0  0  0
    2.9670    0.7420    0.1320 S   0  0  0  0  0  0  0  0  0  0  0  0
    1.8390    0.0120   -1.1250 C   0  0  0  0  0  0  0  0  0  0  0  0
  1  2  1  0
  2  3  1  0
  3  4  1  0
  4  5  2  0
  4  8  1  0
  5  6  1  0
  6  7  1  0
  7  8  1  0
M  END
