
     RDKit          3D

  7  7  0  0  0  0  0  0  0  0999 V2000
    2.7110   -0.1490    0.0920 C   0  0  0  0  0  0  0  0  0  0  0  0
    1.6430   -0.7350    0.8020 O   0  0  0  0  0  0  0  0  0  0  0  0
    0.3280   -0.4220    0.4890 C   0  0  0  0  0  0  0  0  0  0  0  0
   -0.0950    0.6610    0.0510 N   0  0  0  0  0  0  0  0  0  0  0  0
   -1.4450    0.8610   -0.2290 C   0  0  0  0  0  0  0  0  0  0  0  0
   -2.2100   -0.4210   -0.2770 C   0  0  0  0  0  0  0  0  0  0  0  0
   -1.0780   -1.5190    0.6460 S   0  0  0  0  0  0  0  0  0  0  0  0
  1  2  1  0
  2  3  1  0
  3  4  2  0
  3  7  1  0
  4  5  1  0
  5  6  1  0
  6  7  1  0
M  END
