
     RDKit          3D

 14 14  0  0  0  0  0  0  0  0999 V2000
   -0.8690   -2.0330    0.4000 N   0  0  0  0  0  0  0  0  0  0  0  0
   -0.9860   -0.7010   -0.1850 C   0  0  1  0  0  0  0  0  0  0  0  0
   -1.9400    0.0630    0.6610 C   0  0  2  0  0  0  0  0  0  0  0  0
   -3.1650   -0.6470    0.6230 O   0  0  0  0  0  0  0  0  0  0  0  0
   -2.2450    1.4530    0.2170 C   0  0  0  0  0  0  0  0  0  0  0  0
   -2.7660    1.5170   -1.0670 O   0  0  0  0  0  0  0  0  0  0  0  0
    0.3670   -0.0590   -0.2950 C   0  0  2  0  0  0  0  0  0  0  0  0
    0.2960    1.1980   -0.8460 O   0  0  0  0  0  0  0  0  0  0  0  0
    1.2860   -0.8930   -1.1580 C   0  0  0  0  0  0  0  0  0  0  0  0
    2.6220   -0.1760   -1.2000 C   0  0  0  0  0  0  0  0  0  0  0  0
    2.5810    1.0470   -0.5520 O   0  0  0  0  0  0  0  0  0  0  0  0
    2.2660    0.9760    0.7790 C   0  0  1  0  0  0  0  0  0  0  0  0
    1.8320    2.2640    1.1680 O   0  0  0  0  0  0  0  0  0  0  0  0
    1.0610    0.0630    1.0440 C   0  0  0  0  0  0  0  0  0  0  0  0
  2  1  1  1
  2  3  1  0
  2  7  1  0
  3  4  1  6
  3  5  1  0
  5  6  1  0
  7  8  1  6
  7  9  1  0
  7 14  1  0
  9 10  1  0
 10 11  1  0
 11 12  1  0
 12 13  1  6
 12 14  1  0
M  CHG  1   1   1
M  END
