
     RDKit          3D

 14 14  0  0  0  0  0  0  0  0999 V2000
   -2.4410   -0.3320   -1.1910 N   0  0  0  0  0  0  0  0  0  0  0  0
   -1.3080   -0.3850   -0.3300 C   0  0  2  0  0  0  0  0  0  0  0  0
   -1.6070   -0.1000    1.1130 C   0  0  1  0  0  0  0  0  0  0  0  0
   -2.3100   -1.2170    1.8210 C   0  0  0  0  0  0  0  0  0  0  0  0
   -2.6030   -0.7610    3.1160 O   0  0  0  0  0  0  0  0  0  0  0  0
   -0.4450    0.2990    1.6940 O   0  0  0  0  0  0  0  0  0  0  0  0
    0.5330    0.4770    0.6420 C   0  0  1  0  0  0  0  0  0  0  0  0
    1.0660   -0.7530    0.3730 O   0  0  0  0  0  0  0  0  0  0  0  0
    2.3670   -1.0080    0.5370 C   0  0  0  0  0  0  0  0  0  0  0  0
    3.3450   -0.1990   -0.2660 C   0  0  0  0  0  0  0  0  0  0  0  0
    3.2450    1.1330    0.0200 O   0  0  0  0  0  0  0  0  0  0  0  0
   -0.3720    0.8270   -0.5520 C   0  0  1  0  0  0  0  0  0  0  0  0
    0.3080    0.7800   -1.8580 C   0  0  0  0  0  0  0  0  0  0  0  0
    1.1150    1.9050   -1.9920 O   0  0  0  0  0  0  0  0  0  0  0  0
  2  1  1  6
  2  3  1  0
  2 12  1  0
  3  4  1  1
  3  6  1  0
  4  5  1  0
  6  7  1  0
  7  8  1  6
  7 12  1  0
  8  9  1  0
  9 10  1  0
 10 11  1  0
 12 13  1  6
 13 14  1  0
M  CHG  1   1   1
M  END
