
     RDKit          3D

 14 14  0  0  0  0  0  0  0  0999 V2000
    1.8610   -2.2670    0.5870 C   0  0  0  0  0  0  0  0  0  0  0  0
    0.6470   -1.8140    0.5130 C   0  0  0  0  0  0  0  0  0  0  0  0
   -0.4150   -2.7350    0.5920 O   0  0  0  0  0  0  0  0  0  0  0  0
    0.2320   -0.4030    0.3520 C   0  0  2  0  0  0  0  0  0  0  0  0
    1.3510    0.5670    0.3180 C   0  0  1  0  0  0  0  0  0  0  0  0
    2.0680    0.3860    1.5440 O   0  0  0  0  0  0  0  0  0  0  0  0
    2.3020    0.3700   -0.6630 O   0  0  0  0  0  0  0  0  0  0  0  0
    2.5210    1.5700   -1.3200 C   0  0  0  0  0  0  0  0  0  0  0  0
   -0.5490   -0.0950    1.4910 O   0  0  0  0  0  0  0  0  0  0  0  0
   -1.3030    1.0180    1.1740 C   0  0  0  0  0  0  0  0  0  0  0  0
   -1.7660    0.7520   -0.2340 C   0  0  2  0  0  0  0  0  0  0  0  0
   -3.1040    0.1920   -0.1640 N   0  0  0  0  0  0  0  0  0  0  0  0
   -0.7880   -0.2750   -0.7320 C   0  0  1  0  0  0  0  0  0  0  0  0
   -0.2920    0.0250   -1.9800 O   0  0  0  0  0  0  0  0  0  0  0  0
  1  2  2  0
  2  3  1  0
  4  2  1  1
  4  5  1  0
  4  9  1  0
  4 13  1  0
  5  6  1  1
  5  7  1  0
  7  8  1  0
  9 10  1  0
 10 11  1  0
 11 12  1  1
 11 13  1  0
 13 14  1  6
M  CHG  1  12   1
M  END
