
     RDKit          3D

 14 14  0  0  0  0  0  0  0  0999 V2000
   -0.8820    2.2130   -1.5780 C   0  0  0  0  0  0  0  0  0  0  0  0
   -0.4330    1.6270   -0.4820 O   0  0  0  0  0  0  0  0  0  0  0  0
   -0.3630    0.3350   -0.2370 C   0  0  2  0  0  0  0  0  0  0  0  0
   -1.3510   -0.2930    0.7030 C   0  0  2  0  0  0  0  0  0  0  0  0
   -2.7300   -0.1300    0.1670 N   0  0  0  0  0  0  0  0  0  0  0  0
   -1.4390    0.2930    2.0730 C   0  0  0  0  0  0  0  0  0  0  0  0
   -0.3030    0.2790    2.8260 O   0  0  0  0  0  0  0  0  0  0  0  0
    0.9200   -0.4000   -0.1850 C   0  0  2  0  0  0  0  0  0  0  0  0
    2.0410    0.1330    0.6030 C   0  0  0  0  0  0  0  0  0  0  0  0
    2.2890    1.4890    0.4060 O   0  0  0  0  0  0  0  0  0  0  0  0
    1.4930   -0.6060   -1.6220 C   0  0  0  0  0  0  0  0  0  0  0  0
    2.4620   -1.5740   -1.3330 O   0  0  0  0  0  0  0  0  0  0  0  0
    1.9090   -2.3790   -0.3450 C   0  0  0  0  0  0  0  0  0  0  0  0
    0.7640   -1.7560    0.1110 O   0  0  0  0  0  0  0  0  0  0  0  0
  1  2  1  0
  3  2  1  1
  3  4  1  0
  3  8  1  0
  4  5  1  6
  4  6  1  0
  6  7  1  0
  8  9  1  1
  8 11  1  0
  8 14  1  0
  9 10  1  0
 11 12  1  0
 12 13  1  0
 13 14  1  0
M  CHG  1   5   1
M  END
