
     RDKit          3D

 14 14  0  0  0  0  0  0  0  0999 V2000
    4.7540    0.4440    0.1530 O   0  0  0  0  0  0  0  0  0  0  0  0
    3.5030    0.2260   -0.4530 C   0  0  2  0  0  0  0  0  0  0  0  0
    2.9010    1.4760   -0.6480 O   0  0  0  0  0  0  0  0  0  0  0  0
    2.7110   -0.6300    0.5100 C   0  0  0  0  0  0  0  0  0  0  0  0
    1.3880   -0.9400    0.0180 N   0  0  0  0  0  0  0  0  0  0  0  0
    0.4370    0.0610    0.4200 C   0  0  0  0  0  0  0  0  0  0  0  0
   -0.7810    0.0890   -0.4890 C   0  0  1  0  0  0  0  0  0  0  0  0
   -0.2860    0.3770   -1.7840 O   0  0  0  0  0  0  0  0  0  0  0  0
   -1.4350   -1.2480   -0.5550 C   0  0  0  0  0  0  0  0  0  0  0  0
   -2.9000   -1.2070   -0.1800 C   0  0  0  0  0  0  0  0  0  0  0  0
   -2.9860   -0.4850    1.0100 O   0  0  0  0  0  0  0  0  0  0  0  0
   -2.8480    0.8470    0.7220 C   0  0  2  0  0  0  0  0  0  0  0  0
   -4.0420    1.2540    0.0830 O   0  0  0  0  0  0  0  0  0  0  0  0
   -1.6670    1.2110   -0.0950 C   0  0  0  0  0  0  0  0  0  0  0  0
  2  1  1  1
  2  3  1  0
  2  4  1  0
  4  5  1  0
  5  6  1  0
  6  7  1  0
  7  8  1  6
  7  9  1  0
  7 14  1  0
  9 10  1  0
 10 11  1  0
 11 12  1  0
 12 13  1  6
 12 14  1  0
M  CHG  1   5   1
M  END
