
     RDKit          3D

 14 14  0  0  0  0  0  0  0  0999 V2000
   -1.4120   -1.9720    0.8540 N   0  0  0  0  0  0  0  0  0  0  0  0
   -1.5380   -0.5520    0.8180 C   0  0  2  0  0  0  0  0  0  0  0  0
   -2.7190   -0.2480   -0.1030 C   0  0  2  0  0  0  0  0  0  0  0  0
   -2.7670   -1.1980   -1.1260 O   0  0  0  0  0  0  0  0  0  0  0  0
   -2.6260    1.1310   -0.6910 C   0  0  0  0  0  0  0  0  0  0  0  0
   -1.2880    1.4250   -1.3010 C   0  0  0  0  0  0  0  0  0  0  0  0
   -0.4450    0.3470   -1.0400 O   0  0  0  0  0  0  0  0  0  0  0  0
   -0.3730    0.2120    0.3440 C   0  0  2  0  0  0  0  0  0  0  0  0
    0.9710   -0.2890    0.7470 C   0  0  0  0  0  0  0  0  0  0  0  0
    2.0080    0.6650    0.1370 C   0  0  2  0  0  0  0  0  0  0  0  0
    1.8590    0.6490   -1.2580 O   0  0  0  0  0  0  0  0  0  0  0  0
    3.3710    0.1930    0.5530 C   0  0  2  0  0  0  0  0  0  0  0  0
    4.3410    1.0310   -0.0050 O   0  0  0  0  0  0  0  0  0  0  0  0
    3.5810   -1.1090    0.1100 O   0  0  0  0  0  0  0  0  0  0  0  0
  2  1  1  6
  2  3  1  0
  2  8  1  0
  3  4  1  6
  3  5  1  0
  5  6  1  0
  6  7  1  0
  7  8  1  0
  8  9  1  6
  9 10  1  0
 10 11  1  6
 10 12  1  0
 12 13  1  6
 12 14  1  0
M  CHG  1   1   1
M  END
