
     RDKit          3D

 14 14  0  0  0  0  0  0  0  0999 V2000
   -3.1480    1.2760   -0.5880 N   0  0  0  0  0  0  0  0  0  0  0  0
   -1.7800    0.9250   -0.9100 C   0  0  0  0  0  0  0  0  0  0  0  0
   -1.2650    0.0110    0.1850 C   0  0  1  0  0  0  0  0  0  0  0  0
   -1.3340    0.7290    1.4080 O   0  0  0  0  0  0  0  0  0  0  0  0
   -2.1900   -1.1690    0.2570 C   0  0  0  0  0  0  0  0  0  0  0  0
   -2.1690   -1.9310   -0.8870 O   0  0  0  0  0  0  0  0  0  0  0  0
    0.1290   -0.4340   -0.0350 C   0  0  2  0  0  0  0  0  0  0  0  0
    0.6030   -1.2630    1.1370 C   0  0  0  0  0  0  0  0  0  0  0  0
    1.8930   -1.9320    0.6290 C   0  0  0  0  0  0  0  0  0  0  0  0
    2.6720   -1.0130   -0.0170 O   0  0  0  0  0  0  0  0  0  0  0  0
    2.3310    0.2950    0.1770 C   0  0  1  0  0  0  0  0  0  0  0  0
    3.2760    1.1340   -0.6950 C   0  0  0  0  0  0  0  0  0  0  0  0
    3.0220    2.4810   -0.5780 O   0  0  0  0  0  0  0  0  0  0  0  0
    1.0390    0.6220   -0.1290 O   0  0  0  0  0  0  0  0  0  0  0  0
  1  2  1  0
  2  3  1  0
  3  4  1  1
  3  5  1  0
  3  7  1  0
  5  6  1  0
  7  8  1  1
  7 14  1  0
  8  9  1  0
  9 10  1  0
 10 11  1  0
 11 12  1  6
 11 14  1  0
 12 13  1  0
M  CHG  1   1   1
M  END
