
     RDKit          3D

 12 12  0  0  0  0  0  0  0  0999 V2000
    3.3320   -0.0290   -1.0050 C   0  0  0  0  0  0  0  0  0  0  0  0
    1.9900    0.1620   -0.6760 O   0  0  0  0  0  0  0  0  0  0  0  0
    1.1860   -0.7630   -0.0400 C   0  0  0  0  0  0  0  0  0  0  0  0
    1.6810   -1.8720    0.2770 O   0  0  0  0  0  0  0  0  0  0  0  0
   -0.2090   -0.4890    0.2700 C   0  0  0  0  0  0  0  0  0  0  0  0
   -1.0210   -1.4030    0.9040 C   0  0  0  0  0  0  0  0  0  0  0  0
   -2.3480   -1.1320    1.1950 C   0  0  0  0  0  0  0  0  0  0  0  0
   -2.9050    0.0830    0.8520 C   0  0  0  0  0  0  0  0  0  0  0  0
   -4.5850    0.4710    1.2010 Cl  0  0  0  0  0  0  0  0  0  0  0  0
   -2.1080    1.0090    0.2180 C   0  0  0  0  0  0  0  0  0  0  0  0
   -0.7690    0.7240   -0.0710 C   0  0  0  0  0  0  0  0  0  0  0  0
    0.0600    1.6790   -0.7270 N   0  0  0  0  0  0  0  0  0  0  0  0
  1  2  1  0
  2  3  1  0
  3  4  2  0
  3  5  1  0
  5  6  2  0
  5 11  1  0
  6  7  1  0
  7  8  2  0
  8  9  1  0
  8 10  1  0
 10 11  2  0
 11 12  1  0
M  END
