
     RDKit          3D

 23 24  0  0  0  0  0  0  0  0999 V2000
    4.5020    2.7930    0.8050 C   0  0  0  0  0  0  0  0  0  0  0  0
    3.5910    1.6820    0.3820 C   0  0  0  0  0  0  0  0  0  0  0  0
    2.5100    1.5740    0.9820 O   0  0  0  0  0  0  0  0  0  0  0  0
    3.9200    0.7860   -0.6470 N   0  0  0  0  0  0  0  0  0  0  0  0
    3.1600   -0.2910   -1.1470 C   0  0  0  0  0  0  0  0  0  0  0  0
    3.9020   -1.1320   -2.3700 S   0  0  0  0  0  0  0  0  0  0  0  0
    1.8600   -0.6600   -0.7850 N   0  0  0  0  0  0  0  0  0  0  0  0
    1.0770   -1.7550   -1.2280 C   0  0  0  0  0  0  0  0  0  0  0  0
    1.6090   -2.8520   -1.8310 C   0  0  0  0  0  0  0  0  0  0  0  0
    0.8430   -3.9700   -2.2010 C   0  0  0  0  0  0  0  0  0  0  0  0
   -0.4790   -3.9480   -1.9410 C   0  0  0  0  0  0  0  0  0  0  0  0
   -1.0320   -2.8490   -1.3320 C   0  0  0  0  0  0  0  0  0  0  0  0
   -0.3290   -1.7350   -0.9540 C   0  0  0  0  0  0  0  0  0  0  0  0
   -0.8170   -0.6480   -0.3630 O   0  0  0  0  0  0  0  0  0  0  0  0
   -1.8840   -0.0760    0.1670 C   0  0  0  0  0  0  0  0  0  0  0  0
   -3.1180   -0.6500    0.3740 C   0  0  0  0  0  0  0  0  0  0  0  0
   -4.1490    0.0620    0.9340 C   0  0  0  0  0  0  0  0  0  0  0  0
   -4.0170    1.3740    1.3170 C   0  0  0  0  0  0  0  0  0  0  0  0
   -5.1140    2.1230    1.9100 C   0  0  0  0  0  0  0  0  0  0  0  0
   -4.9700    3.3100    2.2490 O   0  0  0  0  0  0  0  0  0  0  0  0
   -2.7850    1.9360    1.1070 C   0  0  0  0  0  0  0  0  0  0  0  0
   -1.7270    1.2790    0.5570 C   0  0  0  0  0  0  0  0  0  0  0  0
   -0.4920    1.9610    0.3670 N   0  0  0  0  0  0  0  0  0  0  0  0
  1  2  1  0
  2  3  2  0
  2  4  1  0
  4  5  1  0
  5  6  2  0
  5  7  1  0
  7  8  1  0
  8  9  2  0
  8 13  1  0
  9 10  1  0
 10 11  2  0
 11 12  1  0
 12 13  2  0
 13 14  1  0
 14 15  1  0
 15 16  2  0
 15 22  1  0
 16 17  1  0
 17 18  2  0
 18 19  1  0
 18 21  1  0
 19 20  2  0
 21 22  2  0
 22 23  1  0
M  END
