
     RDKit          3D

 23 24  0  0  0  0  0  0  0  0999 V2000
   -6.3890   -1.2060    1.5340 C   0  0  0  0  0  0  0  0  0  0  0  0
   -5.2630   -0.7090    0.6540 C   0  0  0  0  0  0  0  0  0  0  0  0
   -5.6630   -0.1360   -0.6300 C   0  0  0  0  0  0  0  0  0  0  0  0
   -4.0530   -0.8200    1.0830 C   0  0  0  0  0  0  0  0  0  0  0  0
   -3.9180   -1.5940    2.7550 S   0  0  0  0  0  0  0  0  0  0  0  0
   -2.7900   -0.4540    0.5070 C   0  0  0  0  0  0  0  0  0  0  0  0
   -1.7600   -0.7200    1.2390 O   0  0  0  0  0  0  0  0  0  0  0  0
   -2.4940    0.1410   -0.7120 N   0  0  0  0  0  0  0  0  0  0  0  0
   -1.2410    0.4890   -1.2660 C   0  0  0  0  0  0  0  0  0  0  0  0
   -1.1980    1.3200   -2.3960 C   0  0  0  0  0  0  0  0  0  0  0  0
   -0.0290    1.6900   -2.9970 C   0  0  0  0  0  0  0  0  0  0  0  0
    1.1650    1.2580   -2.5140 C   0  0  0  0  0  0  0  0  0  0  0  0
    2.4180    1.6310   -3.1260 N   0  0  0  0  0  0  0  0  0  0  0  0
    1.1970    0.4240   -1.3870 C   0  0  0  0  0  0  0  0  0  0  0  0
    2.4750   -0.0070   -0.9120 N   0  0  0  0  0  0  0  0  0  0  0  0
    2.7450   -0.8300    0.1870 C   0  0  0  0  0  0  0  0  0  0  0  0
    1.8280   -1.2840    0.8870 O   0  0  0  0  0  0  0  0  0  0  0  0
    4.1580   -1.2050    0.5720 C   0  0  2  0  0  0  0  0  0  0  0  0
    4.4710   -0.6790    1.9340 C   0  0  0  0  0  0  0  0  0  0  0  0
    5.6650    0.2420    1.7010 C   0  0  0  0  0  0  0  0  0  0  0  0
    5.4960    0.5620    0.2320 C   0  0  0  0  0  0  0  0  0  0  0  0
    5.0440   -0.6150   -0.3090 O   0  0  0  0  0  0  0  0  0  0  0  0
   -0.0060    0.0780   -0.8160 C   0  0  0  0  0  0  0  0  0  0  0  0
  1  2  1  0
  2  3  1  0
  2  4  2  3
  4  5  1  0
  4  6  1  0
  6  7  2  0
  6  8  1  0
  8  9  1  0
  9 10  2  0
  9 23  1  0
 10 11  1  0
 11 12  2  0
 12 13  1  0
 12 14  1  0
 14 15  1  0
 14 23  2  0
 15 16  1  0
 16 17  2  0
 18 16  1  6
 18 19  1  0
 18 22  1  0
 19 20  1  0
 20 21  1  0
 21 22  1  0
M  END
