
     RDKit          3D

 23 24  0  0  0  0  0  0  0  0999 V2000
   -6.6790    2.8610    0.1870 C   0  0  0  0  0  0  0  0  0  0  0  0
   -7.2110    1.5100    0.1380 N   0  0  0  0  0  0  0  0  0  0  0  0
   -6.3140    0.4490   -0.0890 C   0  0  0  0  0  0  0  0  0  0  0  0
   -6.4800   -0.9080   -0.1910 C   0  0  0  0  0  0  0  0  0  0  0  0
   -5.3920   -1.6620   -0.4170 C   0  0  0  0  0  0  0  0  0  0  0  0
   -4.1920   -1.0800   -0.5340 C   0  0  0  0  0  0  0  0  0  0  0  0
   -2.8410   -1.6310   -0.7770 C   0  0  2  0  0  0  0  0  0  0  0  0
   -2.7150   -2.7490    0.0670 O   0  0  0  0  0  0  0  0  0  0  0  0
   -1.7680   -0.6640   -0.3720 C   0  0  0  0  0  0  0  0  0  0  0  0
   -0.4850   -1.3060   -0.5380 N   0  0  0  0  0  0  0  0  0  0  0  0
    0.7520   -0.6270   -0.2280 C   0  0  0  0  0  0  0  0  0  0  0  0
    0.6350    0.5220    0.1820 O   0  0  0  0  0  0  0  0  0  0  0  0
    1.9950   -1.2480   -0.3880 N   0  0  0  0  0  0  0  0  0  0  0  0
    3.2500   -0.6680   -0.1130 C   0  0  0  0  0  0  0  0  0  0  0  0
    3.4350    0.6070    0.3570 C   0  0  0  0  0  0  0  0  0  0  0  0
    4.7080    1.1130    0.6070 C   0  0  0  0  0  0  0  0  0  0  0  0
    4.8010    2.5030    1.1150 C   0  0  0  0  0  0  0  0  0  0  0  0
    5.8430    0.3760    0.3990 C   0  0  0  0  0  0  0  0  0  0  0  0
    7.1980    0.9290    0.6690 C   0  0  0  0  0  0  0  0  0  0  0  0
    5.6820   -0.8960   -0.0700 C   0  0  0  0  0  0  0  0  0  0  0  0
    4.4040   -1.4240   -0.3280 C   0  0  0  0  0  0  0  0  0  0  0  0
    4.3300   -2.7090   -0.7970 O   0  0  0  0  0  0  0  0  0  0  0  0
   -4.5390    0.6120   -0.3280 S   0  0  0  0  0  0  0  0  0  0  0  0
  1  2  1  0
  2  3  1  0
  3  4  2  0
  3 23  1  0
  4  5  1  0
  5  6  2  0
  6  7  1  0
  6 23  1  0
  7  8  1  1
  7  9  1  0
  9 10  1  0
 10 11  1  0
 11 12  2  0
 11 13  1  0
 13 14  1  0
 14 15  2  0
 14 21  1  0
 15 16  1  0
 16 17  1  0
 16 18  2  0
 18 19  1  0
 18 20  1  0
 20 21  2  0
 21 22  1  0
M  END
