
     RDKit          3D

 23 24  0  0  0  0  0  0  0  0999 V2000
   -4.4830   -0.4030    2.8710 C   0  0  0  0  0  0  0  0  0  0  0  0
   -3.2250   -0.6950    2.3440 O   0  0  0  0  0  0  0  0  0  0  0  0
   -2.8650   -0.4160    1.0230 C   0  0  0  0  0  0  0  0  0  0  0  0
   -3.7320    0.1750    0.1310 C   0  0  0  0  0  0  0  0  0  0  0  0
   -3.3580    0.4460   -1.1840 C   0  0  0  0  0  0  0  0  0  0  0  0
   -4.0030    1.0140   -2.2660 C   0  0  0  0  0  0  0  0  0  0  0  0
   -3.1310    1.0300   -3.3350 C   0  0  0  0  0  0  0  0  0  0  0  0
   -1.9650    0.4860   -2.9430 N   0  0  0  0  0  0  0  0  0  0  0  0
   -2.0950    0.1300   -1.6380 C   0  0  0  0  0  0  0  0  0  0  0  0
   -1.2130   -0.4620   -0.7580 C   0  0  0  0  0  0  0  0  0  0  0  0
   -1.6010   -0.7300    0.5600 C   0  0  0  0  0  0  0  0  0  0  0  0
   -0.6930   -1.3390    1.4420 N   0  0  0  0  0  0  0  0  0  0  0  0
    0.6940   -1.6650    1.0310 C   0  0  0  0  0  0  0  0  0  0  0  0
    1.4360   -0.4470    0.7240 C   0  0  0  0  0  0  0  0  0  0  0  0
    0.8220    0.6680    0.9520 O   0  0  0  0  0  0  0  0  0  0  0  0
    2.7600   -0.3590    0.2020 C   0  0  0  0  0  0  0  0  0  0  0  0
    3.5710   -1.5060   -0.1280 C   0  0  0  0  0  0  0  0  0  0  0  0
    3.1660   -2.8930    0.0020 C   0  0  0  0  0  0  0  0  0  0  0  0
    4.7520   -1.2400   -0.5780 O   0  0  0  0  0  0  0  0  0  0  0  0
    3.3040    0.8830   -0.0010 C   0  0  0  0  0  0  0  0  0  0  0  0
    4.6130    0.9460   -0.5170 N   0  0  0  0  0  0  0  0  0  0  0  0
    2.3250    2.3000    0.3970 S   0  0  0  0  0  0  0  0  0  0  0  0
    3.2210    3.8120    0.0550 C   0  0  0  0  0  0  0  0  0  0  0  0
  1  2  1  0
  2  3  1  0
  3  4  2  0
  3 11  1  0
  4  5  1  0
  5  6  1  0
  5  9  2  0
  6  7  2  0
  7  8  1  0
  8  9  1  0
  9 10  1  0
 10 11  2  0
 11 12  1  0
 12 13  1  0
 13 14  1  0
 14 15  2  0
 14 16  1  0
 16 17  1  0
 16 20  2  3
 17 18  1  0
 17 19  2  0
 20 21  1  0
 20 22  1  0
 22 23  1  0
M  END
