
     RDKit          3D

 23 24  0  0  0  0  0  0  0  0999 V2000
    6.9520   -2.2460    0.7430 C   0  0  0  0  0  0  0  0  0  0  0  0
    6.3670   -1.1390    0.2750 C   0  0  0  0  0  0  0  0  0  0  0  0
    5.7590   -0.1950    1.2200 C   0  0  0  0  0  0  0  0  0  0  0  0
    4.3760   -0.0540    0.9440 O   0  0  0  0  0  0  0  0  0  0  0  0
    3.8950    0.4070   -0.2630 C   0  0  0  0  0  0  0  0  0  0  0  0
    4.8050    0.6980   -1.1180 O   0  0  0  0  0  0  0  0  0  0  0  0
    2.4870    0.5660   -0.5880 C   0  0  0  0  0  0  0  0  0  0  0  0
    1.5600    0.2650    0.2920 C   0  0  0  0  0  0  0  0  0  0  0  0
    1.9120   -0.2390    1.6290 C   0  0  0  0  0  0  0  0  0  0  0  0
    0.1960    0.4410   -0.0810 N   0  0  0  0  0  0  0  0  0  0  0  0
   -0.2560    1.6600   -0.6150 C   0  0  0  0  0  0  0  0  0  0  0  0
    0.8240    2.9120   -0.7930 S   0  0  0  0  0  0  0  0  0  0  0  0
   -1.5780    1.9130   -1.0210 N   0  0  0  0  0  0  0  0  0  0  0  0
   -2.5960    0.9360   -0.9610 C   0  0  0  0  0  0  0  0  0  0  0  0
   -2.4070   -0.3490   -1.4090 C   0  0  0  0  0  0  0  0  0  0  0  0
   -3.4130   -1.2850   -1.3040 C   0  0  0  0  0  0  0  0  0  0  0  0
   -4.6480   -0.9390   -0.7380 C   0  0  0  0  0  0  0  0  0  0  0  0
   -4.8670    0.3340   -0.2840 C   0  0  0  0  0  0  0  0  0  0  0  0
   -3.8260    1.2620   -0.4040 C   0  0  0  0  0  0  0  0  0  0  0  0
   -6.2340    0.4150    0.2530 C   0  0  0  0  0  0  0  0  0  0  0  0
   -6.7930   -0.9340    0.0700 C   0  0  0  0  0  0  0  0  0  0  0  0
   -7.9410   -1.3620    0.3780 O   0  0  0  0  0  0  0  0  0  0  0  0
   -5.7930   -1.7300   -0.5380 N   0  0  0  0  0  0  0  0  0  0  0  0
  1  2  2  0
  2  3  1  0
  3  4  1  0
  4  5  1  0
  5  6  2  0
  5  7  1  0
  7  8  2  3
  8  9  1  0
  8 10  1  0
 10 11  1  0
 11 12  2  0
 11 13  1  0
 13 14  1  0
 14 15  2  0
 14 19  1  0
 15 16  1  0
 16 17  2  0
 17 18  1  0
 17 23  1  0
 18 19  2  0
 18 20  1  0
 20 21  1  0
 21 22  2  0
 21 23  1  0
M  END
