
     RDKit          3D

 26 29  0  0  0  0  0  0  0  0999 V2000
    6.6140   -1.7340   -0.2230 C   0  0  0  0  0  0  0  0  0  0  0  0
    5.2820   -1.1500   -0.2770 C   0  0  0  0  0  0  0  0  0  0  0  0
    4.1870   -2.0150   -0.3110 C   0  0  0  0  0  0  0  0  0  0  0  0
    2.9030   -1.5170   -0.3890 C   0  0  0  0  0  0  0  0  0  0  0  0
    1.8470   -2.3740   -0.4200 C   0  0  0  0  0  0  0  0  0  0  0  0
    0.5580   -1.8880   -0.4980 C   0  0  0  0  0  0  0  0  0  0  0  0
    0.3210   -0.5360   -0.5450 C   0  0  0  0  0  0  0  0  0  0  0  0
   -1.0450   -0.0600   -0.6260 C   0  0  0  0  0  0  0  0  0  0  0  0
   -1.4610    1.2500   -0.6810 C   0  0  0  0  0  0  0  0  0  0  0  0
   -2.8410    1.2100   -0.7500 C   0  0  0  0  0  0  0  0  0  0  0  0
   -3.2060   -0.1200   -0.7350 C   0  0  0  0  0  0  0  0  0  0  0  0
   -2.1080   -0.8120   -0.6620 O   0  0  0  0  0  0  0  0  0  0  0  0
   -4.5960   -0.6980   -0.7920 C   0  0  0  0  0  0  0  0  0  0  0  0
   -5.3170   -0.3040    0.4520 C   0  0  1  0  0  0  0  0  0  0  0  0
   -6.8060   -0.4190    0.2590 C   0  0  0  0  0  0  0  0  0  0  0  0
   -4.8650   -1.2420    1.5790 C   0  0  0  0  0  0  0  0  0  0  0  0
   -4.9220    1.0930    0.9020 C   0  0  0  0  0  0  0  0  0  0  0  0
   -5.0640    2.0960   -0.2110 C   0  0  0  0  0  0  0  0  0  0  0  0
   -3.7160    2.4010   -0.8250 C   0  0  0  0  0  0  0  0  0  0  0  0
    1.3770    0.3490   -0.5140 C   0  0  0  0  0  0  0  0  0  0  0  0
    2.6810   -0.1560   -0.4340 C   0  0  0  0  0  0  0  0  0  0  0  0
    3.7600    0.6940   -0.4010 C   0  0  0  0  0  0  0  0  0  0  0  0
    5.0640    0.1830   -0.3210 C   0  0  0  0  0  0  0  0  0  0  0  0
    6.1480    1.1570   -0.2590 C   0  0  0  0  0  0  0  0  0  0  0  0
    6.5670    1.3590    1.1750 C   0  0  0  0  0  0  0  0  0  0  0  0
    7.0150    0.2060    1.7900 O   0  0  0  0  0  0  0  0  0  0  0  0
  1  2  1  0
  2  3  2  0
  2 23  1  0
  3  4  1  0
  4  5  2  0
  4 21  1  0
  5  6  1  0
  6  7  2  0
  7  8  1  0
  7 20  1  0
  8  9  2  0
  8 12  1  0
  9 10  1  0
 10 11  2  0
 10 19  1  0
 11 12  1  0
 11 13  1  0
 13 14  1  0
 14 15  1  6
 14 16  1  0
 14 17  1  0
 17 18  1  0
 18 19  1  0
 20 21  2  0
 21 22  1  0
 22 23  2  0
 23 24  1  0
 24 25  1  0
 25 26  1  0
M  END
