
     RDKit          3D

 26 28  0  0  0  0  0  0  0  0999 V2000
    3.6930    3.4350    0.2950 C   0  0  0  0  0  0  0  0  0  0  0  0
    2.5600    2.5100   -0.0410 C   0  0  0  0  0  0  0  0  0  0  0  0
    1.3190    3.0210   -0.3870 C   0  0  0  0  0  0  0  0  0  0  0  0
    0.2560    2.1890   -0.7010 C   0  0  0  0  0  0  0  0  0  0  0  0
    0.3870    0.8190   -0.6820 C   0  0  0  0  0  0  0  0  0  0  0  0
   -0.6960   -0.1100   -0.9640 C   0  0  0  0  0  0  0  0  0  0  0  0
   -1.8610   -0.0860   -0.4010 C   0  0  0  0  0  0  0  0  0  0  0  0
   -2.3830    0.8400    0.6290 C   0  0  0  0  0  0  0  0  0  0  0  0
   -3.8080    0.9740    0.1170 C   0  0  2  0  0  0  0  0  0  0  0  0
   -4.6950    1.6990    1.0710 C   0  0  0  0  0  0  0  0  0  0  0  0
   -4.1750   -0.4540   -0.1190 C   0  0  2  0  0  0  0  0  0  0  0  0
   -5.4040   -0.5480   -0.9930 C   0  0  0  0  0  0  0  0  0  0  0  0
   -4.5070   -1.1670    1.1750 C   0  0  0  0  0  0  0  0  0  0  0  0
   -2.9650   -1.0640   -0.7330 C   0  0  2  0  0  0  0  0  0  0  0  0
   -2.6290   -2.4210   -0.1340 C   0  0  0  0  0  0  0  0  0  0  0  0
   -3.0830   -1.2700   -2.2270 C   0  0  0  0  0  0  0  0  0  0  0  0
    1.6400    0.3140   -0.3340 C   0  0  0  0  0  0  0  0  0  0  0  0
    2.7080    1.1490   -0.0180 C   0  0  0  0  0  0  0  0  0  0  0  0
    3.9960    0.5660    0.3520 C   0  0  0  0  0  0  0  0  0  0  0  0
    4.9700    1.2830    0.6800 O   0  0  0  0  0  0  0  0  0  0  0  0
    4.1600   -0.8030    0.3470 O   0  0  0  0  0  0  0  0  0  0  0  0
    5.4160   -1.3090    0.7160 C   0  0  0  0  0  0  0  0  0  0  0  0
    6.3850   -1.5120   -0.1530 C   0  0  0  0  0  0  0  0  0  0  0  0
    7.5400   -2.0420    0.5870 C   0  0  0  0  0  0  0  0  0  0  0  0
    7.0650   -2.1020    1.9810 C   0  0  0  0  0  0  0  0  0  0  0  0
    5.8350   -1.6790    2.0700 C   0  0  0  0  0  0  0  0  0  0  0  0
  1  2  1  0
  2  3  2  0
  2 18  1  0
  3  4  1  0
  4  5  2  0
  5  6  1  0
  5 17  1  0
  6  7  2  3
  7  8  1  0
  7 14  1  0
  8  9  1  0
  9 10  1  1
  9 11  1  0
 11 12  1  6
 11 13  1  0
 11 14  1  0
 14 15  1  1
 14 16  1  0
 17 18  2  0
 18 19  1  0
 19 20  2  0
 19 21  1  0
 21 22  1  0
 22 23  2  0
 22 26  1  0
 23 24  1  0
 24 25  1  0
 25 26  2  0
M  END
