
     RDKit          3D

 21 22  0  0  0  0  0  0  0  0999 V2000
    6.7390   -0.0420   -0.6530 C   0  0  0  0  0  0  0  0  0  0  0  0
    5.3800    0.2350   -0.1680 N   0  0  0  0  0  0  0  0  0  0  0  0
    4.2650    0.2390   -1.0470 C   0  0  0  0  0  0  0  0  0  0  0  0
    4.4840   -0.0030   -2.2570 O   0  0  0  0  0  0  0  0  0  0  0  0
    2.8820    0.5130   -0.5980 C   0  0  1  0  0  0  0  0  0  0  0  0
    2.0040    0.4360   -1.7480 N   0  0  0  0  0  0  0  0  0  0  0  0
    2.4700   -0.5760    0.3590 C   0  0  0  0  0  0  0  0  0  0  0  0
    1.1120   -0.4210    0.8790 C   0  0  0  0  0  0  0  0  0  0  0  0
    0.8110    0.2770    2.0280 C   0  0  0  0  0  0  0  0  0  0  0  0
   -0.4640    0.4120    2.4990 C   0  0  0  0  0  0  0  0  0  0  0  0
   -1.5300   -0.1670    1.8160 C   0  0  0  0  0  0  0  0  0  0  0  0
   -2.8240   -0.0380    2.2860 O   0  0  0  0  0  0  0  0  0  0  0  0
   -3.9580   -0.5700    1.6740 C   0  0  0  0  0  0  0  0  0  0  0  0
   -4.2340   -0.0820    0.3180 C   0  0  0  0  0  0  0  0  0  0  0  0
   -5.1640   -0.7770   -0.4360 C   0  0  0  0  0  0  0  0  0  0  0  0
   -5.4910   -0.3790   -1.7280 C   0  0  0  0  0  0  0  0  0  0  0  0
   -4.8820    0.7300   -2.2750 C   0  0  0  0  0  0  0  0  0  0  0  0
   -3.9600    1.4210   -1.5320 C   0  0  0  0  0  0  0  0  0  0  0  0
   -3.6450    1.0230   -0.2650 C   0  0  0  0  0  0  0  0  0  0  0  0
   -1.2700   -0.8690    0.6700 C   0  0  0  0  0  0  0  0  0  0  0  0
    0.0490   -0.9910    0.2100 C   0  0  0  0  0  0  0  0  0  0  0  0
  1  2  1  0
  2  3  1  0
  3  4  2  0
  3  5  1  0
  5  6  1  6
  5  7  1  0
  7  8  1  0
  8  9  2  0
  8 21  1  0
  9 10  1  0
 10 11  2  0
 11 12  1  0
 11 20  1  0
 12 13  1  0
 13 14  1  0
 14 15  2  0
 14 19  1  0
 15 16  1  0
 16 17  2  0
 17 18  1  0
 18 19  2  0
 20 21  2  0
M  CHG  1   6   1
M  END
