
     RDKit          3D

 26 29  0  0  0  0  0  0  0  0999 V2000
   -5.9760   -0.6300    0.3910 C   0  0  0  0  0  0  0  0  0  0  0  0
   -4.8960    0.1130    0.4970 C   0  0  0  0  0  0  0  0  0  0  0  0
   -4.7200    0.9850    1.7060 C   0  0  0  0  0  0  0  0  0  0  0  0
   -3.3950    0.6860    2.3780 C   0  0  0  0  0  0  0  0  0  0  0  0
   -2.2290    1.3420    1.7320 C   0  0  0  0  0  0  0  0  0  0  0  0
   -1.7450    0.4570    0.6100 C   0  0  0  0  0  0  0  0  0  0  0  0
   -0.3960    0.2240    0.6180 C   0  0  0  0  0  0  0  0  0  0  0  0
    0.2830   -0.5690   -0.3250 C   0  0  0  0  0  0  0  0  0  0  0  0
    1.7460   -0.6230   -0.2360 C   0  0  0  0  0  0  0  0  0  0  0  0
    2.3580    0.4080    0.3070 C   0  0  0  0  0  0  0  0  0  0  0  0
    3.7520    0.6570    0.5320 C   0  0  0  0  0  0  0  0  0  0  0  0
    4.0970    1.8110    1.1340 C   0  0  0  0  0  0  0  0  0  0  0  0
    5.5480    2.0960    1.3810 C   0  0  0  0  0  0  0  0  0  0  0  0
    6.3830    1.7390    0.1710 C   0  0  0  0  0  0  0  0  0  0  0  0
    5.9750    0.4070   -0.4160 C   0  0  0  0  0  0  0  0  0  0  0  0
    4.8390   -0.1260    0.2130 O   0  0  0  0  0  0  0  0  0  0  0  0
    2.5170   -1.8110   -0.6130 C   0  0  2  0  0  0  0  0  0  0  0  0
    3.6590   -2.1280    0.1730 O   0  0  0  0  0  0  0  0  0  0  0  0
    2.5260   -2.4050   -1.9740 C   0  0  0  0  0  0  0  0  0  0  0  0
    1.8110   -3.1370   -0.9430 C   0  0  0  0  0  0  0  0  0  0  0  0
   -0.4950   -1.1210   -1.2920 C   0  0  0  0  0  0  0  0  0  0  0  0
   -1.8790   -0.9060   -1.3320 C   0  0  0  0  0  0  0  0  0  0  0  0
   -2.4860   -0.1280   -0.3930 C   0  0  0  0  0  0  0  0  0  0  0  0
   -3.9540   -0.0050   -0.6050 C   0  0  0  0  0  0  0  0  0  0  0  0
   -4.3340    0.0340   -1.8390 C   0  0  0  0  0  0  0  0  0  0  0  0
   -5.7310    0.2030   -2.2730 C   0  0  0  0  0  0  0  0  0  0  0  0
  1  2  2  0
  2  3  1  0
  2 24  1  0
  3  4  1  0
  4  5  1  0
  5  6  1  0
  6  7  2  0
  6 23  1  0
  7  8  1  0
  8  9  1  0
  8 21  2  0
  9 10  2  3
  9 17  1  0
 10 11  1  0
 11 12  2  0
 11 16  1  0
 12 13  1  0
 13 14  1  0
 14 15  1  0
 15 16  1  0
 17 18  1  1
 17 19  1  0
 17 20  1  0
 19 20  1  0
 21 22  1  0
 22 23  2  0
 23 24  1  0
 24 25  2  3
 25 26  1  0
M  END
