
     RDKit          3D

 26 28  0  0  0  0  0  0  0  0999 V2000
    7.2930   -1.0140   -0.2410 C   0  0  0  0  0  0  0  0  0  0  0  0
    6.4020   -0.6930    0.9280 C   0  0  0  0  0  0  0  0  0  0  0  0
    5.0920   -0.1470    0.4960 C   0  0  0  0  0  0  0  0  0  0  0  0
    3.9530   -0.7740    0.4890 O   0  0  0  0  0  0  0  0  0  0  0  0
    2.9710   -0.0180    0.0550 C   0  0  0  0  0  0  0  0  0  0  0  0
    1.5820   -0.3910   -0.0930 C   0  0  0  0  0  0  0  0  0  0  0  0
    0.5620    0.0900    0.5040 C   0  0  0  0  0  0  0  0  0  0  0  0
    0.6810    1.2150    1.4920 C   0  0  0  0  0  0  0  0  0  0  0  0
    0.1150    2.4760    0.8480 C   0  0  0  0  0  0  0  0  0  0  0  0
   -1.0440    2.3110   -0.0320 C   0  0  0  0  0  0  0  0  0  0  0  0
   -2.2130    1.5000    0.4720 C   0  0  0  0  0  0  0  0  0  0  0  0
   -1.9810    0.0790    0.1550 C   0  0  0  0  0  0  0  0  0  0  0  0
   -3.0850   -0.6210   -0.2560 C   0  0  0  0  0  0  0  0  0  0  0  0
   -4.4060   -0.0290   -0.0890 C   0  0  2  0  0  0  0  0  0  0  0  0
   -5.0650   -1.0810    0.7660 O   0  0  0  0  0  0  0  0  0  0  0  0
   -5.3630    0.0010   -1.2140 C   0  0  1  0  0  0  0  0  0  0  0  0
   -5.8060   -1.2360   -1.9230 C   0  0  0  0  0  0  0  0  0  0  0  0
   -6.6890    0.5880   -0.6430 C   0  0  0  0  0  0  0  0  0  0  0  0
   -2.9230   -1.9470   -0.5970 C   0  0  0  0  0  0  0  0  0  0  0  0
   -1.6960   -2.5570   -0.5200 C   0  0  0  0  0  0  0  0  0  0  0  0
   -0.5340   -1.8660   -0.0930 C   0  0  0  0  0  0  0  0  0  0  0  0
    0.7210   -2.5580    0.1410 C   0  0  0  0  0  0  0  0  0  0  0  0
   -0.7440   -0.5590    0.2180 C   0  0  0  0  0  0  0  0  0  0  0  0
    3.5510    1.2140   -0.2460 C   0  0  0  0  0  0  0  0  0  0  0  0
    4.8910    1.1580    0.0250 C   0  0  0  0  0  0  0  0  0  0  0  0
    5.9360    2.1600   -0.1400 C   0  0  0  0  0  0  0  0  0  0  0  0
  1  2  1  0
  2  3  1  0
  3  4  1  0
  3 25  2  0
  4  5  1  0
  5  6  1  0
  5 24  2  0
  6  7  2  3
  7  8  1  0
  7 23  1  0
  8  9  1  0
  9 10  1  0
 10 11  1  0
 11 12  1  0
 12 13  2  0
 12 23  1  0
 13 14  1  0
 13 19  1  0
 14 15  1  1
 14 16  1  0
 16 17  1  1
 16 18  1  0
 19 20  2  0
 20 21  1  0
 21 22  1  0
 21 23  2  0
 24 25  1  0
 25 26  1  0
M  END
