
     RDKit          3D

 25 26  0  0  0  0  0  0  0  0999 V2000
   -0.6320   -2.4190   -0.3950 C   0  0  0  0  0  0  0  0  0  0  0  0
   -1.7320   -1.4480   -0.1960 C   0  0  0  0  0  0  0  0  0  0  0  0
   -1.6200   -0.1900    0.0810 C   0  0  0  0  0  0  0  0  0  0  0  0
   -0.4610    0.6520    0.2790 C   0  0  0  0  0  0  0  0  0  0  0  0
   -0.6070    1.9610    0.5600 C   0  0  0  0  0  0  0  0  0  0  0  0
   -2.0170    2.4670    0.6610 C   0  0  0  0  0  0  0  0  0  0  0  0
    0.4720    2.9080    0.6980 C   0  0  0  0  0  0  0  0  0  0  0  0
    0.1640    4.3320    1.0240 C   0  0  1  0  0  0  0  0  0  0  0  0
   -0.4230    4.5200    2.3930 C   0  0  0  0  0  0  0  0  0  0  0  0
    1.2040    5.2000    0.8220 O   0  0  0  0  0  0  0  0  0  0  0  0
    1.7290    2.4680    0.5230 C   0  0  0  0  0  0  0  0  0  0  0  0
    2.8330    3.4240    0.6760 C   0  0  0  0  0  0  0  0  0  0  0  0
    1.9830    1.1060    0.1170 C   0  0  0  0  0  0  0  0  0  0  0  0
    3.1230    0.6940   -0.3940 C   0  0  0  0  0  0  0  0  0  0  0  0
    3.3360   -0.7030   -0.7900 C   0  0  0  0  0  0  0  0  0  0  0  0
    4.0740   -1.0670   -1.8940 C   0  0  0  0  0  0  0  0  0  0  0  0
    4.0580   -2.4680   -1.9570 C   0  0  0  0  0  0  0  0  0  0  0  0
    3.3000   -2.8520   -0.8700 C   0  0  0  0  0  0  0  0  0  0  0  0
    2.9860   -4.2710   -0.4990 C   0  0  0  0  0  0  0  0  0  0  0  0
    2.8980   -1.7850   -0.2170 O   0  0  0  0  0  0  0  0  0  0  0  0
    0.8940    0.1030    0.2480 C   0  0  0  0  0  0  0  0  0  0  0  0
   -3.1080   -2.0440   -0.3450 C   0  0  1  0  0  0  0  0  0  0  0  0
   -3.2910   -3.1280    0.6800 C   0  0  0  0  0  0  0  0  0  0  0  0
   -4.1980   -1.0330   -0.2510 C   0  0  0  0  0  0  0  0  0  0  0  0
   -3.2210   -2.7160   -1.7180 C   0  0  0  0  0  0  0  0  0  0  0  0
  1  2  1  0
  2  3  2  3
  2 22  1  0
  3  4  1  0
  4  5  2  0
  4 21  1  0
  5  6  1  0
  5  7  1  0
  7  8  1  0
  7 11  2  0
  8  9  1  1
  8 10  1  0
 11 12  1  0
 11 13  1  0
 13 14  2  3
 13 21  1  0
 14 15  1  0
 15 16  2  0
 15 20  1  0
 16 17  1  0
 17 18  2  0
 18 19  1  0
 18 20  1  0
 22 23  1  1
 22 24  1  0
 22 25  1  0
M  END
