
     RDKit          3D

 26 28  0  0  0  0  0  0  0  0999 V2000
    6.0230    0.8780   -1.2670 C   0  0  0  0  0  0  0  0  0  0  0  0
    4.7370    0.4800   -0.6130 C   0  0  0  0  0  0  0  0  0  0  0  0
    3.7520   -0.1780   -1.3180 C   0  0  0  0  0  0  0  0  0  0  0  0
    2.5380   -0.5650   -0.7410 C   0  0  0  0  0  0  0  0  0  0  0  0
    1.5210   -1.2750   -1.5620 C   0  0  0  0  0  0  0  0  0  0  0  0
    2.3030   -0.2840    0.5870 C   0  0  0  0  0  0  0  0  0  0  0  0
    1.0150   -0.6840    1.1980 C   0  0  0  0  0  0  0  0  0  0  0  0
    1.0570   -1.4490    2.1980 O   0  0  0  0  0  0  0  0  0  0  0  0
   -0.2460   -0.2340    0.6900 C   0  0  0  0  0  0  0  0  0  0  0  0
   -0.3700    1.0850    0.3070 C   0  0  0  0  0  0  0  0  0  0  0  0
   -1.5780    1.5930   -0.1520 C   0  0  0  0  0  0  0  0  0  0  0  0
   -1.7010    3.0010   -0.5580 C   0  0  2  0  0  0  0  0  0  0  0  0
   -2.4810    3.8130    0.4790 C   0  0  0  0  0  0  0  0  0  0  0  0
   -2.4010    3.0810   -1.7720 O   0  0  0  0  0  0  0  0  0  0  0  0
   -2.6740    0.7570   -0.2230 C   0  0  0  0  0  0  0  0  0  0  0  0
   -2.5470   -0.5470    0.1560 C   0  0  0  0  0  0  0  0  0  0  0  0
   -3.6300   -1.3900    0.0770 C   0  0  0  0  0  0  0  0  0  0  0  0
   -4.9040   -0.8260   -0.4040 C   0  0  0  0  0  0  0  0  0  0  0  0
   -3.5950   -2.7240    0.4260 C   0  0  0  0  0  0  0  0  0  0  0  0
   -4.7490   -3.6400    0.3450 C   0  0  0  0  0  0  0  0  0  0  0  0
   -2.3940   -3.2150    0.8760 C   0  0  0  0  0  0  0  0  0  0  0  0
   -1.2990   -2.4030    0.9670 C   0  0  0  0  0  0  0  0  0  0  0  0
   -1.3340   -1.0480    0.6140 C   0  0  0  0  0  0  0  0  0  0  0  0
    3.2860    0.3740    1.2940 C   0  0  0  0  0  0  0  0  0  0  0  0
    4.4850    0.7530    0.7130 C   0  0  0  0  0  0  0  0  0  0  0  0
    5.5250    1.4620    1.4930 C   0  0  0  0  0  0  0  0  0  0  0  0
  1  2  1  0
  2  3  2  0
  2 25  1  0
  3  4  1  0
  4  5  1  0
  4  6  2  0
  6  7  1  0
  6 24  1  0
  7  8  2  0
  7  9  1  0
  9 10  2  0
  9 23  1  0
 10 11  1  0
 11 12  1  0
 11 15  2  0
 12 13  1  1
 12 14  1  0
 15 16  1  0
 16 17  2  0
 16 23  1  0
 17 18  1  0
 17 19  1  0
 19 20  1  0
 19 21  2  0
 21 22  1  0
 22 23  2  0
 24 25  2  0
 25 26  1  0
M  END
