
     RDKit          3D

 26 28  0  0  0  0  0  0  0  0999 V2000
    8.3860    1.4810   -0.8920 C   0  0  0  0  0  0  0  0  0  0  0  0
    7.0070    1.9010   -1.2620 C   0  0  0  0  0  0  0  0  0  0  0  0
    5.9760    1.2750   -0.7300 C   0  0  0  0  0  0  0  0  0  0  0  0
    4.6110    1.6480   -1.0590 C   0  0  0  0  0  0  0  0  0  0  0  0
    4.4450    2.5960   -1.8770 O   0  0  0  0  0  0  0  0  0  0  0  0
    3.4780    0.9430   -0.4600 C   0  0  0  0  0  0  0  0  0  0  0  0
    2.2700    1.2880   -0.7650 C   0  0  0  0  0  0  0  0  0  0  0  0
    0.9990    0.7830   -0.3380 C   0  0  0  0  0  0  0  0  0  0  0  0
   -0.1660    1.3600   -0.8430 C   0  0  0  0  0  0  0  0  0  0  0  0
   -1.4240    0.8860   -0.4430 C   0  0  0  0  0  0  0  0  0  0  0  0
   -1.5030   -0.1500    0.4490 C   0  0  0  0  0  0  0  0  0  0  0  0
   -0.3450   -0.7260    0.9530 C   0  0  0  0  0  0  0  0  0  0  0  0
    0.8970   -0.2550    0.5550 C   0  0  0  0  0  0  0  0  0  0  0  0
    2.0270   -0.8470    1.0720 O   0  0  0  0  0  0  0  0  0  0  0  0
    1.8920   -1.9120    1.9870 C   0  0  0  0  0  0  0  0  0  0  0  0
    3.2530   -2.4180    2.4320 C   0  0  0  0  0  0  0  0  0  0  0  0
   -2.6910   -0.8200    1.0250 C   0  0  0  0  0  0  0  0  0  0  0  0
   -3.8190   -0.9920    0.0520 C   0  0  1  0  0  0  0  0  0  0  0  0
   -3.1970   -1.4510   -1.2680 C   0  0  0  0  0  0  0  0  0  0  0  0
   -4.8070   -2.0280    0.4580 C   0  0  0  0  0  0  0  0  0  0  0  0
   -4.4390    0.3410   -0.0930 C   0  0  0  0  0  0  0  0  0  0  0  0
   -5.6680    0.6030    0.2570 C   0  0  0  0  0  0  0  0  0  0  0  0
   -5.9280    2.0420   -0.0380 C   0  0  0  0  0  0  0  0  0  0  0  0
   -4.6650    2.5460   -0.6010 C   0  0  0  0  0  0  0  0  0  0  0  0
   -3.8080    1.5390   -0.6260 C   0  0  0  0  0  0  0  0  0  0  0  0
   -2.4520    1.6800   -1.1390 C   0  0  0  0  0  0  0  0  0  0  0  0
  1  2  1  0
  2  3  2  3
  3  4  1  0
  4  5  2  0
  4  6  1  0
  6  7  2  3
  7  8  1  0
  8  9  2  0
  8 13  1  0
  9 10  1  0
 10 11  2  0
 10 26  1  0
 11 12  1  0
 11 17  1  0
 12 13  2  0
 13 14  1  0
 14 15  1  0
 15 16  1  0
 17 18  1  0
 18 19  1  6
 18 20  1  0
 18 21  1  0
 21 22  2  0
 21 25  1  0
 22 23  1  0
 23 24  1  0
 24 25  2  0
 25 26  1  0
M  END
