
     RDKit          3D

 26 28  0  0  0  0  0  0  0  0999 V2000
    6.3090    0.8730    1.5190 C   0  0  0  0  0  0  0  0  0  0  0  0
    5.4060    0.1770    0.5960 C   0  0  0  0  0  0  0  0  0  0  0  0
    5.7910   -0.0960   -0.6960 C   0  0  0  0  0  0  0  0  0  0  0  0
    4.9040   -0.7490   -1.5120 C   0  0  0  0  0  0  0  0  0  0  0  0
    3.6430   -1.1250   -1.0390 C   0  0  0  0  0  0  0  0  0  0  0  0
    2.7950   -1.8770   -1.9910 C   0  0  0  0  0  0  0  0  0  0  0  0
    3.2310   -0.8690    0.2290 C   0  0  0  0  0  0  0  0  0  0  0  0
    1.9090   -1.1910    0.7660 C   0  0  0  0  0  0  0  0  0  0  0  0
    0.8220   -0.1770    0.5380 C   0  0  2  0  0  0  0  0  0  0  0  0
    0.5700    0.0620   -0.9010 C   0  0  0  0  0  0  0  0  0  0  0  0
    1.3960    1.1510    1.0560 C   0  0  0  0  0  0  0  0  0  0  0  0
   -0.3530   -0.6190    1.3560 C   0  0  0  0  0  0  0  0  0  0  0  0
   -1.5620    0.1650    1.3260 C   0  0  0  0  0  0  0  0  0  0  0  0
   -1.7230    1.1890    2.2760 C   0  0  0  0  0  0  0  0  0  0  0  0
   -2.8210    1.9930    2.2310 C   0  0  0  0  0  0  0  0  0  0  0  0
   -3.8040    1.8520    1.2820 C   0  0  0  0  0  0  0  0  0  0  0  0
   -5.0060    2.7060    1.2000 C   0  0  0  0  0  0  0  0  0  0  0  0
   -3.6420    0.8500    0.3580 C   0  0  0  0  0  0  0  0  0  0  0  0
   -2.5240    0.0080    0.3820 C   0  0  0  0  0  0  0  0  0  0  0  0
   -2.3830   -1.1170   -0.5780 C   0  0  1  0  0  0  0  0  0  0  0  0
   -3.4950   -1.9620   -0.2510 O   0  0  0  0  0  0  0  0  0  0  0  0
   -2.6690   -0.5630   -1.9330 C   0  0  0  0  0  0  0  0  0  0  0  0
   -4.0950   -0.8270   -2.3170 C   0  0  0  0  0  0  0  0  0  0  0  0
   -5.1290   -0.2210   -1.4410 C   0  0  0  0  0  0  0  0  0  0  0  0
   -4.6840    0.7830   -0.5650 O   0  0  0  0  0  0  0  0  0  0  0  0
    4.1630   -0.1990    1.0420 C   0  0  0  0  0  0  0  0  0  0  0  0
  1  2  1  0
  2  3  2  0
  2 26  1  0
  3  4  1  0
  4  5  2  0
  5  6  1  0
  5  7  1  0
  7  8  1  0
  7 26  2  0
  8  9  1  0
  9 10  1  6
  9 11  1  0
  9 12  1  0
 12 13  1  0
 13 14  2  0
 13 19  1  0
 14 15  1  0
 15 16  2  0
 16 17  1  0
 16 18  1  0
 18 19  2  0
 18 25  1  0
 19 20  1  0
 20 21  1  1
 20 22  1  0
 22 23  1  0
 23 24  1  0
 24 25  1  0
M  END
