
     RDKit          3D

 26 28  0  0  0  0  0  0  0  0999 V2000
    5.7450   -3.0100    0.0530 C   0  0  0  0  0  0  0  0  0  0  0  0
    4.7800   -2.1310    0.0310 C   0  0  0  0  0  0  0  0  0  0  0  0
    3.4160   -2.3770   -0.3220 C   0  0  0  0  0  0  0  0  0  0  0  0
    2.7080   -1.2320   -0.2290 C   0  0  0  0  0  0  0  0  0  0  0  0
    1.2940   -1.1700   -0.5280 C   0  0  0  0  0  0  0  0  0  0  0  0
    0.7290   -2.2660   -0.8980 O   0  0  0  0  0  0  0  0  0  0  0  0
    0.4030   -0.0070   -0.4680 C   0  0  0  0  0  0  0  0  0  0  0  0
   -1.0160   -0.4570   -0.8270 C   0  0  1  0  0  0  0  0  0  0  0  0
   -1.0790   -1.0280   -2.0760 O   0  0  0  0  0  0  0  0  0  0  0  0
   -1.5140   -1.3090    0.3080 C   0  0  0  0  0  0  0  0  0  0  0  0
   -2.9630   -1.6340    0.0060 C   0  0  0  0  0  0  0  0  0  0  0  0
   -3.8360   -0.4050    0.3600 C   0  0  1  0  0  0  0  0  0  0  0  0
   -5.1920   -0.7760   -0.2070 C   0  0  0  0  0  0  0  0  0  0  0  0
   -3.8590   -0.3230    1.8380 C   0  0  0  0  0  0  0  0  0  0  0  0
   -3.2080    0.7500   -0.3300 C   0  0  0  0  0  0  0  0  0  0  0  0
   -3.9350    1.9170   -0.4550 C   0  0  0  0  0  0  0  0  0  0  0  0
   -5.2870    2.0040    0.1450 C   0  0  0  0  0  0  0  0  0  0  0  0
   -3.4200    3.0370   -1.1270 C   0  0  0  0  0  0  0  0  0  0  0  0
   -2.1840    2.9860   -1.6700 C   0  0  0  0  0  0  0  0  0  0  0  0
   -1.4380    1.8430   -1.5620 C   0  0  0  0  0  0  0  0  0  0  0  0
   -1.9470    0.7300   -0.8930 C   0  0  0  0  0  0  0  0  0  0  0  0
    3.6520   -0.2060    0.2010 C   0  0  0  0  0  0  0  0  0  0  0  0
    3.3140    1.2340    0.4530 C   0  0  0  0  0  0  0  0  0  0  0  0
    4.8740   -0.6760    0.3660 C   0  0  0  0  0  0  0  0  0  0  0  0
    6.1560   -0.0840    0.7470 C   0  0  0  0  0  0  0  0  0  0  0  0
    6.2740    1.3580    0.9710 C   0  0  0  0  0  0  0  0  0  0  0  0
  1  2  2  0
  2  3  1  0
  2 24  1  0
  3  4  2  0
  4  5  1  0
  4 22  1  0
  5  6  2  0
  5  7  1  0
  7  8  1  0
  8  9  1  6
  8 10  1  0
  8 21  1  0
 10 11  1  0
 11 12  1  0
 12 13  1  6
 12 14  1  0
 12 15  1  0
 15 16  2  0
 15 21  1  0
 16 17  1  0
 16 18  1  0
 18 19  2  0
 19 20  1  0
 20 21  2  0
 22 23  1  0
 22 24  2  0
 24 25  1  0
 25 26  1  0
M  END
