
     RDKit          3D

 15 15  0  0  0  0  0  0  0  0999 V2000
    3.7810    0.2370    0.3540 C   0  0  0  0  0  0  0  0  0  0  0  0
    2.8250   -0.7200   -0.3230 C   0  0  2  0  0  0  0  0  0  0  0  0
    3.5410   -1.9280   -0.4880 O   0  0  0  0  0  0  0  0  0  0  0  0
    2.4110   -0.2890   -1.5670 O   0  0  0  0  0  0  0  0  0  0  0  0
    1.8970    0.9940   -1.4690 C   0  0  0  0  0  0  0  0  0  0  0  0
    0.8340    1.1410   -0.4290 C   0  0  0  0  0  0  0  0  0  0  0  0
    0.4020   -0.1990    0.1290 C   0  0  2  0  0  0  0  0  0  0  0  0
   -0.6460    0.0440    1.5650 S   0  0  0  0  0  0  0  0  0  0  0  0
   -2.2060    0.8310    1.1080 C   0  0  0  0  0  0  0  0  0  0  0  0
   -3.0560   -0.0600    0.2480 C   0  0  2  0  0  0  0  0  0  0  0  0
   -2.4630   -0.4220   -0.9350 O   0  0  0  0  0  0  0  0  0  0  0  0
   -4.3600    0.6370   -0.0570 C   0  0  0  0  0  0  0  0  0  0  0  0
   -4.9490    0.9980    1.1670 O   0  0  0  0  0  0  0  0  0  0  0  0
    1.6220   -1.0260    0.5070 C   0  0  1  0  0  0  0  0  0  0  0  0
    1.2510   -2.3710    0.2720 O   0  0  0  0  0  0  0  0  0  0  0  0
  2  1  1  1
  2  3  1  0
  2  4  1  0
  2 14  1  0
  4  5  1  0
  5  6  1  0
  6  7  1  0
  7  8  1  1
  7 14  1  0
  8  9  1  0
  9 10  1  0
 10 11  1  6
 10 12  1  0
 12 13  1  0
 14 15  1  6
M  END
