
     RDKit          3D

 15 15  0  0  0  0  0  0  0  0999 V2000
    3.5210   -1.1410   -1.0220 O   0  0  0  0  0  0  0  0  0  0  0  0
    3.5760    0.2120   -0.7170 C   0  0  0  0  0  0  0  0  0  0  0  0
    3.1620    0.4070    0.7450 C   0  0  1  0  0  0  0  0  0  0  0  0
    3.2270    1.7560    1.0140 O   0  0  0  0  0  0  0  0  0  0  0  0
    1.7850   -0.1740    0.9820 C   0  0  0  0  0  0  0  0  0  0  0  0
    0.8250    0.4360    0.1810 O   0  0  0  0  0  0  0  0  0  0  0  0
   -0.4220   -0.0880    0.3930 C   0  0  2  0  0  0  0  0  0  0  0  0
   -1.0060   -0.7490   -0.8550 C   0  0  0  0  0  0  0  0  0  0  0  0
   -2.2450   -1.4950   -0.4260 C   0  0  2  0  0  0  0  0  0  0  0  0
   -2.4150   -2.6440   -1.2190 O   0  0  0  0  0  0  0  0  0  0  0  0
   -3.4910   -0.6770   -0.5370 C   0  0  0  0  0  0  0  0  0  0  0  0
   -3.1880    0.9840   -1.1660 S   0  0  0  0  0  0  0  0  0  0  0  0
   -1.8410    1.8040   -0.2970 C   0  0  0  0  0  0  0  0  0  0  0  0
   -1.4410    0.9050    0.8710 C   0  0  2  0  0  0  0  0  0  0  0  0
   -1.0130    1.6540    1.9570 O   0  0  0  0  0  0  0  0  0  0  0  0
  1  2  1  0
  2  3  1  0
  3  4  1  6
  3  5  1  0
  5  6  1  0
  7  6  1  6
  7  8  1  0
  7 14  1  0
  8  9  1  0
  9 10  1  6
  9 11  1  0
 11 12  1  0
 12 13  1  0
 13 14  1  0
 14 15  1  1
M  END
