
     RDKit          3D

 15 16  0  0  0  0  0  0  0  0999 V2000
    4.4590   -0.4010   -0.4720 O   0  0  0  0  0  0  0  0  0  0  0  0
    3.6140   -1.5140   -0.4070 C   0  0  0  0  0  0  0  0  0  0  0  0
    2.3760   -1.1920    0.1210 O   0  0  0  0  0  0  0  0  0  0  0  0
    1.6980   -0.2440   -0.6050 C   0  0  2  0  0  0  0  0  0  0  0  0
    1.4120    1.0020    0.2240 C   0  0  0  0  0  0  0  0  0  0  0  0
    0.0840    1.5410   -0.1860 C   0  0  0  0  0  0  0  0  0  0  0  0
   -1.0690    0.8340    0.5050 C   0  0  1  0  0  0  0  0  0  0  0  0
   -1.1050    0.9540    1.8700 O   0  0  0  0  0  0  0  0  0  0  0  0
   -2.3590    1.1740   -0.2240 C   0  0  2  0  0  0  0  0  0  0  0  0
   -3.2550    1.7620    0.6370 O   0  0  0  0  0  0  0  0  0  0  0  0
   -2.5450   -0.2930   -0.4840 C   0  0  0  0  0  0  0  0  0  0  0  0
   -1.1790   -0.5800    0.0490 C   0  0  2  0  0  0  0  0  0  0  0  0
   -1.2300   -1.6220    1.1410 C   0  0  0  0  0  0  0  0  0  0  0  0
   -2.3520   -1.3680    1.9480 O   0  0  0  0  0  0  0  0  0  0  0  0
    0.1000   -0.9130   -1.1670 S   0  0  0  0  0  0  0  0  0  0  0  0
  1  2  1  0
  2  3  1  0
  4  3  1  1
  4  5  1  0
  4 15  1  0
  5  6  1  0
  6  7  1  0
  7  8  1  1
  7  9  1  0
  7 12  1  0
  9 10  1  1
  9 11  1  0
 11 12  1  0
 12 13  1  1
 12 15  1  0
 13 14  1  0
M  END
