
     RDKit          3D

 15 15  0  0  0  0  0  0  0  0999 V2000
    2.7800    1.0010    1.1010 C   0  0  0  0  0  0  0  0  0  0  0  0
    1.4330    1.0000    0.8950 O   0  0  0  0  0  0  0  0  0  0  0  0
    0.9330   -0.0130    0.0850 C   0  0  1  0  0  0  0  0  0  0  0  0
    1.6540    0.1530   -1.2450 C   0  0  0  0  0  0  0  0  0  0  0  0
    1.1940   -1.3340    0.7130 C   0  0  0  0  0  0  0  0  0  0  0  0
   -0.2900   -2.1030    1.4510 S   0  0  0  0  0  0  0  0  0  0  0  0
   -1.7140   -1.8530    0.3980 C   0  0  2  0  0  0  0  0  0  0  0  0
   -1.9600   -3.0720   -0.2760 O   0  0  0  0  0  0  0  0  0  0  0  0
   -1.3940   -0.7660   -0.5880 C   0  0  2  0  0  0  0  0  0  0  0  0
   -0.8720   -1.3540   -1.7110 O   0  0  0  0  0  0  0  0  0  0  0  0
   -0.5440    0.3210   -0.0630 C   0  0  2  0  0  0  0  0  0  0  0  0
   -0.5950    1.4600   -1.0980 C   0  0  0  0  0  0  0  0  0  0  0  0
   -1.9630    1.7610   -1.2250 O   0  0  0  0  0  0  0  0  0  0  0  0
   -1.0140    0.9220    1.2200 C   0  0  0  0  0  0  0  0  0  0  0  0
   -2.3480    1.2740    1.2250 O   0  0  0  0  0  0  0  0  0  0  0  0
  1  2  1  0
  2  3  1  0
  3  4  1  6
  3  5  1  0
  3 11  1  0
  5  6  1  0
  6  7  1  0
  7  8  1  6
  7  9  1  0
  9 10  1  6
  9 11  1  0
 11 12  1  6
 11 14  1  0
 12 13  1  0
 14 15  1  0
M  END
