
     RDKit          3D

 15 15  0  0  0  0  0  0  0  0999 V2000
    0.6650   -0.3870   -1.6530 C   0  0  0  0  0  0  0  0  0  0  0  0
    0.2750   -0.4630   -0.2030 C   0  0  1  0  0  0  0  0  0  0  0  0
   -1.1920   -0.5130    0.0330 C   0  0  2  0  0  0  0  0  0  0  0  0
   -1.9080   -1.6890   -0.5910 C   0  0  0  0  0  0  0  0  0  0  0  0
   -3.2440   -1.5770   -0.1160 O   0  0  0  0  0  0  0  0  0  0  0  0
   -1.8310    0.6830   -0.3800 O   0  0  0  0  0  0  0  0  0  0  0  0
   -2.4800    1.3170    0.6720 C   0  0  0  0  0  0  0  0  0  0  0  0
   -3.0790    2.4870    0.1620 O   0  0  0  0  0  0  0  0  0  0  0  0
    0.9030   -1.7160    0.3620 C   0  0  0  0  0  0  0  0  0  0  0  0
    2.6620   -1.6280   -0.1690 S   0  0  0  0  0  0  0  0  0  0  0  0
    3.2110   -0.0130    0.3680 C   0  0  0  0  0  0  0  0  0  0  0  0
    2.2330    1.0950    0.1200 C   0  0  1  0  0  0  0  0  0  0  0  0
    2.4010    1.5570   -1.1840 O   0  0  0  0  0  0  0  0  0  0  0  0
    0.8170    0.7720    0.4710 C   0  0  2  0  0  0  0  0  0  0  0  0
    0.7010    0.7060    1.8580 O   0  0  0  0  0  0  0  0  0  0  0  0
  2  1  1  6
  2  3  1  0
  2  9  1  0
  2 14  1  0
  3  4  1  6
  3  6  1  0
  4  5  1  0
  6  7  1  0
  7  8  1  0
  9 10  1  0
 10 11  1  0
 11 12  1  0
 12 13  1  6
 12 14  1  0
 14 15  1  1
M  END
