
     RDKit          3D

 15 15  0  0  0  0  0  0  0  0999 V2000
    1.8090   -1.4000   -1.0060 C   0  0  0  0  0  0  0  0  0  0  0  0
    1.4800   -0.4750    0.1320 C   0  0  1  0  0  0  0  0  0  0  0  0
    2.0680   -0.9850    1.2760 O   0  0  0  0  0  0  0  0  0  0  0  0
    2.0770    0.8880   -0.2280 C   0  0  0  0  0  0  0  0  0  0  0  0
    3.8840    0.7420   -0.4380 S   0  0  0  0  0  0  0  0  0  0  0  0
    4.4720    2.3040   -0.8370 O   0  0  0  0  0  0  0  0  0  0  0  0
    0.0190   -0.2860    0.3570 C   0  0  1  0  0  0  0  0  0  0  0  0
   -0.1490    0.6510    1.5420 C   0  0  0  0  0  0  0  0  0  0  0  0
   -0.5930    0.2640   -0.9020 C   0  0  0  0  0  0  0  0  0  0  0  0
   -2.0780    0.0680   -0.9810 C   0  0  2  0  0  0  0  0  0  0  0  0
   -2.6780    1.2290   -1.5080 O   0  0  0  0  0  0  0  0  0  0  0  0
   -2.6780   -0.2640    0.3730 C   0  0  1  0  0  0  0  0  0  0  0  0
   -4.0050   -0.6790    0.1070 O   0  0  0  0  0  0  0  0  0  0  0  0
   -1.9200   -1.3830    0.9960 C   0  0  0  0  0  0  0  0  0  0  0  0
   -0.6050   -1.4750    0.6670 O   0  0  0  0  0  0  0  0  0  0  0  0
  2  1  1  6
  2  3  1  0
  2  4  1  0
  2  7  1  0
  4  5  1  0
  5  6  1  0
  7  8  1  1
  7  9  1  0
  7 15  1  0
  9 10  1  0
 10 11  1  1
 10 12  1  0
 12 13  1  6
 12 14  1  0
 14 15  1  0
M  END
