
     RDKit          3D

 15 15  0  0  0  0  0  0  0  0999 V2000
    3.5740    1.3860   -0.3450 C   0  0  0  0  0  0  0  0  0  0  0  0
    3.0820    0.4390    0.7150 C   0  0  2  0  0  0  0  0  0  0  0  0
    3.3810   -0.9990    0.3610 C   0  0  0  0  0  0  0  0  0  0  0  0
    1.3620    0.7140    1.1630 S   0  0  0  0  0  0  0  0  0  0  0  0
    0.2290    0.3390   -0.2220 C   0  0  2  0  0  0  0  0  0  0  0  0
   -0.7190    1.3200   -0.1940 O   0  0  0  0  0  0  0  0  0  0  0  0
   -1.9620    1.0060   -0.6660 C   0  0  2  0  0  0  0  0  0  0  0  0
   -2.9020    2.1310   -0.2450 C   0  0  0  0  0  0  0  0  0  0  0  0
   -4.2280    1.7990   -0.5070 O   0  0  0  0  0  0  0  0  0  0  0  0
   -2.5200   -0.2490   -0.0040 C   0  0  2  0  0  0  0  0  0  0  0  0
   -2.3210   -0.1640    1.3670 O   0  0  0  0  0  0  0  0  0  0  0  0
   -1.6140   -1.3620   -0.5160 C   0  0  2  0  0  0  0  0  0  0  0  0
   -2.0060   -2.5990   -0.0350 O   0  0  0  0  0  0  0  0  0  0  0  0
   -0.2390   -1.0570   -0.0220 C   0  0  1  0  0  0  0  0  0  0  0  0
    0.6320   -1.9510   -0.6670 O   0  0  0  0  0  0  0  0  0  0  0  0
  2  1  1  6
  2  3  1  0
  2  4  1  0
  5  4  1  1
  5  6  1  0
  5 14  1  0
  6  7  1  0
  7  8  1  1
  7 10  1  0
  8  9  1  0
 10 11  1  1
 10 12  1  0
 12 13  1  1
 12 14  1  0
 14 15  1  6
M  END
