
     RDKit          3D

 18 20  0  0  0  0  0  0  0  0999 V2000
    4.7770   -1.7580   -0.6650 N   0  0  0  0  0  0  0  0  0  0  0  0
    3.9130   -0.6500   -0.4460 C   0  0  0  0  0  0  0  0  0  0  0  0
    4.4470    0.5440   -0.2680 C   0  0  0  0  0  0  0  0  0  0  0  0
    3.6270    1.7800   -0.0300 C   0  0  0  0  0  0  0  0  0  0  0  0
    2.2150    1.5290   -0.3560 N   0  0  0  0  0  0  0  0  0  0  0  0
    1.8580    0.3170    0.3670 C   0  0  1  0  0  0  0  0  0  0  0  0
    0.3820    0.2140    0.5730 C   0  0  1  0  0  0  0  0  0  0  0  0
   -0.0640    1.4190    1.3710 C   0  0  0  0  0  0  0  0  0  0  0  0
   -1.5390    1.4490    1.6200 C   0  0  0  0  0  0  0  0  0  0  0  0
   -2.2390    1.3040    0.2770 C   0  0  0  0  0  0  0  0  0  0  0  0
   -1.8740   -0.0290   -0.3060 C   0  0  2  0  0  0  0  0  0  0  0  0
   -2.7480   -0.3150   -1.4940 C   0  0  0  0  0  0  0  0  0  0  0  0
   -4.1680   -0.4090   -1.0200 C   0  0  0  0  0  0  0  0  0  0  0  0
   -4.2910   -1.1460    0.2960 C   0  0  0  0  0  0  0  0  0  0  0  0
   -2.9900   -1.8850    0.5130 C   0  0  0  0  0  0  0  0  0  0  0  0
   -1.9590   -0.9960    0.6850 O   0  0  0  0  0  0  0  0  0  0  0  0
   -0.3990    0.0500   -0.7040 C   0  0  0  0  0  0  0  0  0  0  0  0
    2.4260   -0.8430   -0.4190 C   0  0  0  0  0  0  0  0  0  0  0  0
  1  2  1  0
  2  3  2  0
  2 18  1  0
  3  4  1  0
  4  5  1  0
  5  6  1  0
  6  7  1  0
  6 18  1  6
  7  8  1  6
  7 17  1  0
  8  9  1  0
  9 10  1  0
 11 10  1  1
 11 12  1  0
 11 16  1  0
 11 17  1  0
 12 13  1  0
 13 14  1  0
 14 15  1  0
 15 16  1  0
M  CHG  1   1   1
M  END
