
     RDKit          3D

 18 20  0  0  0  0  0  0  0  0999 V2000
   -2.5090   -2.0830   -0.5340 N   0  0  0  0  0  0  0  0  0  0  0  0
   -2.8170   -0.6860   -0.3790 C   0  0  1  0  0  0  0  0  0  0  0  0
   -3.8770   -0.4270    0.6520 C   0  0  0  0  0  0  0  0  0  0  0  0
   -4.2850    1.0140    0.6270 C   0  0  0  0  0  0  0  0  0  0  0  0
   -3.2700    1.9520    0.0710 C   0  0  0  0  0  0  0  0  0  0  0  0
   -1.8630    1.4590    0.2170 C   0  0  0  0  0  0  0  0  0  0  0  0
   -0.8840    2.2840    0.5520 N   0  0  0  0  0  0  0  0  0  0  0  0
    0.3730    1.7790    0.6690 C   0  0  0  0  0  0  0  0  0  0  0  0
    1.2370    2.6280    0.9880 O   0  0  0  0  0  0  0  0  0  0  0  0
    0.6820    0.4490    0.4550 C   0  0  0  0  0  0  0  0  0  0  0  0
    2.0260   -0.0700    0.5910 C   0  0  0  0  0  0  0  0  0  0  0  0
    2.3160   -1.3650    0.3530 C   0  0  0  0  0  0  0  0  0  0  0  0
    3.7320   -1.8160    0.5180 C   0  0  0  0  0  0  0  0  0  0  0  0
    4.7090   -0.9030   -0.1420 C   0  0  0  0  0  0  0  0  0  0  0  0
    4.1960    0.5180   -0.1970 C   0  0  0  0  0  0  0  0  0  0  0  0
    3.2320    0.6840    0.9930 C   0  0  0  0  0  0  0  0  0  0  0  0
   -0.3660   -0.4130    0.1000 C   0  0  0  0  0  0  0  0  0  0  0  0
   -1.6320    0.1240   -0.0110 C   0  0  0  0  0  0  0  0  0  0  0  0
  2  1  1  1
  2  3  1  0
  2 18  1  0
  3  4  1  0
  4  5  1  0
  5  6  1  0
  6  7  1  0
  6 18  2  0
  7  8  1  0
  8  9  2  0
  8 10  1  0
 10 11  1  0
 10 17  2  0
 11 12  2  0
 11 16  1  0
 12 13  1  0
 13 14  1  0
 14 15  1  0
 15 16  1  0
 17 18  1  0
M  CHG  1   1   1
M  END
