
     RDKit          3D

 18 20  0  0  0  0  0  0  0  0999 V2000
    3.2480    2.1260   -1.1760 C   0  0  0  0  0  0  0  0  0  0  0  0
    3.6040    0.6800   -0.9900 C   0  0  0  0  0  0  0  0  0  0  0  0
    2.6530    0.0040   -0.0080 C   0  0  1  0  0  0  0  0  0  0  0  0
    1.2530    0.1140   -0.5730 C   0  0  0  0  0  0  0  0  0  0  0  0
    0.3480   -0.4510    0.5070 C   0  0  2  0  0  0  0  0  0  0  0  0
    0.6510   -1.9060    0.5130 C   0  0  0  0  0  0  0  0  0  0  0  0
   -0.2740   -2.8270    0.3950 C   0  0  0  0  0  0  0  0  0  0  0  0
   -1.6260   -2.4580    0.2510 N   0  0  0  0  0  0  0  0  0  0  0  0
   -1.9980   -1.0870    0.2310 C   0  0  0  0  0  0  0  0  0  0  0  0
   -1.0650   -0.1680    0.3510 C   0  0  0  0  0  0  0  0  0  0  0  0
   -1.5650    1.2530    0.3140 C   0  0  1  0  0  0  0  0  0  0  0  0
   -2.0430    1.6240   -1.0660 C   0  0  0  0  0  0  0  0  0  0  0  0
   -2.6920    1.3140    1.3140 C   0  0  0  0  0  0  0  0  0  0  0  0
   -3.8500    0.4380    0.9300 C   0  0  0  0  0  0  0  0  0  0  0  0
   -3.4460   -0.7340    0.0740 C   0  0  0  0  0  0  0  0  0  0  0  0
    2.0620   -2.2380    0.6320 C   0  0  0  0  0  0  0  0  0  0  0  0
    2.3880   -3.3760    1.0260 O   0  0  0  0  0  0  0  0  0  0  0  0
    3.0810   -1.3100    0.3140 N   0  0  0  0  0  0  0  0  0  0  0  0
  1  2  1  0
  3  2  1  6
  3  4  1  0
  3 18  1  0
  5  4  1  6
  5  6  1  0
  5 10  1  0
  6  7  2  0
  6 16  1  0
  7  8  1  0
  8  9  1  0
  9 10  2  0
  9 15  1  0
 10 11  1  0
 11 12  1  6
 11 13  1  0
 13 14  1  0
 14 15  1  0
 16 17  2  0
 16 18  1  0
M  CHG  1  18   1
M  END
