
     RDKit          3D

 12 12  0  0  0  0  0  0  0  0999 V2000
   -2.3950    1.0110   -0.1300 C   0  0  0  0  0  0  0  0  0  0  0  0
   -1.1650    0.3900    0.4680 C   0  0  2  0  0  0  0  0  0  0  0  0
   -1.1270    0.4520    1.8360 O   0  0  0  0  0  0  0  0  0  0  0  0
    0.0590    1.0470   -0.1760 C   0  0  0  0  0  0  0  0  0  0  0  0
    0.9900   -0.1140   -0.3120 C   0  0  1  0  0  0  0  0  0  0  0  0
    1.1350   -0.5430   -1.6300 O   0  0  0  0  0  0  0  0  0  0  0  0
    2.3460    0.1560    0.2970 C   0  0  1  0  0  0  0  0  0  0  0  0
    2.1650    0.5850    1.6180 O   0  0  0  0  0  0  0  0  0  0  0  0
    3.1230   -0.9890    0.3310 O   0  0  0  0  0  0  0  0  0  0  0  0
    0.4110   -1.1890    0.3850 O   0  0  0  0  0  0  0  0  0  0  0  0
   -0.9490   -1.0390    0.0230 C   0  0  1  0  0  0  0  0  0  0  0  0
   -1.7610   -1.9400    0.6550 O   0  0  0  0  0  0  0  0  0  0  0  0
  2  1  1  6
  2  3  1  0
  2  4  1  0
  2 11  1  0
  4  5  1  0
  5  6  1  6
  5  7  1  0
  5 10  1  0
  7  8  1  1
  7  9  1  0
 10 11  1  0
 11 12  1  1
M  END
