
     RDKit          3D

 12 12  0  0  0  0  0  0  0  0999 V2000
   -2.1330   -0.8490    0.3240 C   0  0  0  0  0  0  0  0  0  0  0  0
   -0.9300   -0.0690   -0.0950 C   0  0  2  0  0  0  0  0  0  0  0  0
   -1.2750    1.2450   -0.6800 C   0  0  0  0  0  0  0  0  0  0  0  0
   -2.0090    2.0110   -0.0070 O   0  0  0  0  0  0  0  0  0  0  0  0
   -0.7910    1.6000   -1.9380 O   0  0  0  0  0  0  0  0  0  0  0  0
   -0.1170   -0.8160   -0.9380 O   0  0  0  0  0  0  0  0  0  0  0  0
    1.1530   -0.2600   -0.8820 C   0  0  2  0  0  0  0  0  0  0  0  0
    2.0900   -1.2950   -0.9490 O   0  0  0  0  0  0  0  0  0  0  0  0
    1.2980    0.4170    0.4500 C   0  0  2  0  0  0  0  0  0  0  0  0
    2.3510   -0.0390    1.2030 O   0  0  0  0  0  0  0  0  0  0  0  0
   -0.0180    0.0980    1.1190 C   0  0  2  0  0  0  0  0  0  0  0  0
    0.0900   -1.1130    1.7760 O   0  0  0  0  0  0  0  0  0  0  0  0
  2  1  1  1
  2  3  1  0
  2  6  1  0
  2 11  1  0
  3  4  2  0
  3  5  1  0
  6  7  1  0
  7  8  1  1
  7  9  1  0
  9 10  1  1
  9 11  1  0
 11 12  1  6
M  END
