
     RDKit          3D

 11 11  0  0  0  0  0  0  0  0999 V2000
    2.7770   -0.8000    1.0280 C   0  0  0  0  0  0  0  0  0  0  0  0
    1.3860   -0.7190    1.0710 O   0  0  0  0  0  0  0  0  0  0  0  0
    0.9740    0.1050    0.0520 C   0  0  1  0  0  0  0  0  0  0  0  0
    0.0520   -0.6810   -0.8410 C   0  0  0  0  0  0  0  0  0  0  0  0
   -1.2620   -0.5230   -0.7850 C   0  0  0  0  0  0  0  0  0  0  0  0
   -2.0640   -1.2910   -1.6520 O   0  0  0  0  0  0  0  0  0  0  0  0
   -1.9120    0.4270    0.1500 C   0  0  1  0  0  0  0  0  0  0  0  0
   -3.0760   -0.1320    0.6820 O   0  0  0  0  0  0  0  0  0  0  0  0
   -1.0100    0.7420    1.1510 O   0  0  0  0  0  0  0  0  0  0  0  0
    0.1330    1.2790    0.5630 C   0  0  2  0  0  0  0  0  0  0  0  0
   -0.2750    1.9630   -0.5760 O   0  0  0  0  0  0  0  0  0  0  0  0
  1  2  1  0
  3  2  1  1
  3  4  1  0
  3 10  1  0
  4  5  2  0
  5  6  1  0
  5  7  1  0
  7  8  1  1
  7  9  1  0
  9 10  1  0
 10 11  1  6
M  END
