
     RDKit          3D

 25 28  0  0  0  0  0  0  0  0999 V2000
    2.6800   -2.8170   -0.8330 C   0  0  0  0  0  0  0  0  0  0  0  0
    2.0430   -1.4880   -0.5370 C   0  0  0  0  0  0  0  0  0  0  0  0
    2.6780   -0.3290   -0.5820 C   0  0  0  0  0  0  0  0  0  0  0  0
    1.7500    0.7430   -0.2380 C   0  0  0  0  0  0  0  0  0  0  0  0
    2.0520    1.9830    0.0800 C   0  0  0  0  0  0  0  0  0  0  0  0
    3.4070    2.5840    0.1650 C   0  0  0  0  0  0  0  0  0  0  0  0
    4.2670    1.7110    1.0160 C   0  0  0  0  0  0  0  0  0  0  0  0
    5.2160    0.8500    0.2210 C   0  0  0  0  0  0  0  0  0  0  0  0
    4.3860   -0.1310   -0.9930 S   0  0  2  0  0  0  0  0  0  0  0  0
    4.5330    0.5570   -2.3210 O   0  0  0  0  0  0  0  0  0  0  0  0
    5.0530   -1.4650   -1.0890 O   0  0  0  0  0  0  0  0  0  0  0  0
    0.4040    0.1390   -0.3270 C   0  0  2  0  0  0  0  0  0  0  0  0
   -0.5210    0.6770    0.7090 C   0  0  0  0  0  0  0  0  0  0  0  0
   -1.8290    0.0930    0.6270 N   0  0  0  0  0  0  0  0  0  0  0  0
   -2.1840   -1.0270    1.3010 C   0  0  0  0  0  0  0  0  0  0  0  0
   -3.4550   -1.5540    1.1930 C   0  0  0  0  0  0  0  0  0  0  0  0
   -4.4040   -0.9480    0.3900 C   0  0  0  0  0  0  0  0  0  0  0  0
   -5.6870   -1.4520    0.2610 C   0  0  0  0  0  0  0  0  0  0  0  0
   -6.6070   -0.8190   -0.5500 C   0  0  0  0  0  0  0  0  0  0  0  0
   -6.2710    0.3220   -1.2460 C   0  0  0  0  0  0  0  0  0  0  0  0
   -4.9870    0.8040   -1.1000 C   0  0  0  0  0  0  0  0  0  0  0  0
   -4.0520    0.1800   -0.2900 C   0  0  0  0  0  0  0  0  0  0  0  0
   -2.7660    0.6680   -0.1480 C   0  0  0  0  0  0  0  0  0  0  0  0
   -2.4850    1.7150   -0.7980 O   0  0  0  0  0  0  0  0  0  0  0  0
    0.6870   -1.2690   -0.1700 N   0  0  0  0  0  0  0  0  0  0  0  0
  1  2  1  0
  2  3  2  0
  2 25  1  0
  3  4  1  0
  3  9  1  0
  4  5  2  0
  4 12  1  0
  5  6  1  0
  6  7  1  0
  7  8  1  0
  9  8  1  1
  9 10  2  0
  9 11  2  0
 12 13  1  1
 12 25  1  0
 13 14  1  0
 14 15  1  0
 14 23  1  0
 15 16  2  0
 16 17  1  0
 17 18  2  0
 17 22  1  0
 18 19  1  0
 19 20  2  0
 20 21  1  0
 21 22  2  0
 22 23  1  0
 23 24  2  0
M  END
