
     RDKit          3D

 20 21  0  0  0  0  0  0  0  0999 V2000
    1.3880   -2.4510    1.4340 N   0  0  0  0  0  0  0  0  0  0  0  0
    0.9500   -1.2610    0.7090 C   0  0  0  0  0  0  0  0  0  0  0  0
    1.8700   -0.3730    0.3950 C   0  0  0  0  0  0  0  0  0  0  0  0
    3.2880   -0.5310    0.7310 N   0  0  0  0  0  0  0  0  0  0  0  0
    3.9860    0.5720    0.2010 C   0  0  0  0  0  0  0  0  0  0  0  0
    5.2480    0.7560    0.3070 O   0  0  0  0  0  0  0  0  0  0  0  0
    3.0140    1.3760   -0.4360 C   0  0  0  0  0  0  0  0  0  0  0  0
    1.7510    0.8570   -0.3420 C   0  0  0  0  0  0  0  0  0  0  0  0
    0.5590    1.4750   -0.8780 N   0  0  0  0  0  0  0  0  0  0  0  0
   -0.5060    2.2130   -0.3430 C   0  0  0  0  0  0  0  0  0  0  0  0
   -0.7350    3.4370   -0.8860 O   0  0  0  0  0  0  0  0  0  0  0  0
   -1.4540    1.9360    0.7130 C   0  0  0  0  0  0  0  0  0  0  0  0
   -1.1900    2.5740    1.8290 O   0  0  0  0  0  0  0  0  0  0  0  0
   -2.5940    1.1220    0.7620 N   0  0  0  0  0  0  0  0  0  0  0  0
   -3.3680    0.6000   -0.2720 N   0  0  0  0  0  0  0  0  0  0  0  0
   -2.8820   -0.1440   -1.3860 C   0  0  0  0  0  0  0  0  0  0  0  0
   -3.2860    0.2290   -2.5420 O   0  0  0  0  0  0  0  0  0  0  0  0
   -1.9570   -1.2980   -1.2960 C   0  0  0  0  0  0  0  0  0  0  0  0
   -0.7410   -0.8220   -0.8740 O   0  0  0  0  0  0  0  0  0  0  0  0
   -0.4830   -1.2810    0.4010 C   0  0  0  0  0  0  0  0  0  0  0  0
  1  2  1  0
  2  3  2  0
  2 20  1  0
  3  4  1  0
  3  8  1  0
  4  5  1  0
  5  6  2  0
  5  7  1  0
  7  8  2  0
  8  9  1  0
  9 10  1  0
 10 11  2  0
 10 12  1  0
 12 13  2  0
 12 14  1  0
 14 15  1  0
 15 16  1  0
 16 17  2  0
 16 18  1  0
 18 19  1  0
 19 20  1  0
M  END
