
     RDKit          3D

 19 20  0  0  0  0  0  0  0  0999 V2000
    4.7870   -0.1160    1.8830 N   0  0  0  0  0  0  0  0  0  0  0  0
    3.5670   -0.7650    1.6400 C   0  0  0  0  0  0  0  0  0  0  0  0
    3.0940   -1.5550    2.4820 O   0  0  0  0  0  0  0  0  0  0  0  0
    2.8730   -0.4700    0.3510 C   0  0  1  0  0  0  0  0  0  0  0  0
    1.6310   -1.1790    0.1880 C   0  0  0  0  0  0  0  0  0  0  0  0
    0.6070   -0.3100   -0.0580 C   0  0  0  0  0  0  0  0  0  0  0  0
   -0.7450   -0.7670   -0.2600 C   0  0  0  0  0  0  0  0  0  0  0  0
   -1.8700   -0.1890   -0.5020 C   0  0  0  0  0  0  0  0  0  0  0  0
   -3.0640   -1.1120   -0.6400 C   0  0  0  0  0  0  0  0  0  0  0  0
   -2.8890   -2.3570   -0.5130 O   0  0  0  0  0  0  0  0  0  0  0  0
   -4.3340   -0.5890   -0.9030 N   0  0  0  0  0  0  0  0  0  0  0  0
   -4.5760    0.7970   -1.0520 C   0  0  0  0  0  0  0  0  0  0  0  0
   -5.7490    1.1850   -1.2880 O   0  0  0  0  0  0  0  0  0  0  0  0
   -3.5130    1.7180   -0.9370 N   0  0  0  0  0  0  0  0  0  0  0  0
   -2.1920    1.1880   -0.6650 C   0  0  0  0  0  0  0  0  0  0  0  0
   -1.3270    2.0630   -0.5810 O   0  0  0  0  0  0  0  0  0  0  0  0
    1.1420    0.9830   -0.0640 N   0  0  0  0  0  0  0  0  0  0  0  0
    2.5700    0.9370    0.1890 C   0  0  0  0  0  0  0  0  0  0  0  0
    3.3330    1.9320    0.2460 O   0  0  0  0  0  0  0  0  0  0  0  0
  1  2  1  0
  2  3  2  0
  4  2  1  1
  4  5  1  0
  4 18  1  0
  5  6  2  0
  6  7  1  0
  6 17  1  0
  7  8  2  3
  8  9  1  0
  8 15  1  0
  9 10  2  0
  9 11  1  0
 11 12  1  0
 12 13  2  0
 12 14  1  0
 14 15  1  0
 15 16  2  0
 17 18  1  0
 18 19  2  0
M  END
