
     RDKit          3D

 20 21  0  0  0  0  0  0  0  0999 V2000
   -2.3110   -2.5520    1.0160 C   0  0  0  0  0  0  0  0  0  0  0  0
   -1.1360   -1.7930    0.4920 C   0  0  1  0  0  0  0  0  0  0  0  0
   -0.7800   -2.3590   -0.7410 O   0  0  0  0  0  0  0  0  0  0  0  0
   -1.3680   -0.3440    0.3920 C   0  0  0  0  0  0  0  0  0  0  0  0
   -2.5660    0.1560    0.7240 N   0  0  0  0  0  0  0  0  0  0  0  0
   -2.8100    1.4930    0.6410 C   0  0  0  0  0  0  0  0  0  0  0  0
   -3.9770    1.9520    0.9670 N   0  0  0  0  0  0  0  0  0  0  0  0
   -1.8230    2.3000    0.2180 N   0  0  0  0  0  0  0  0  0  0  0  0
   -0.6010    1.8570   -0.1290 C   0  0  0  0  0  0  0  0  0  0  0  0
    0.2970    2.6810   -0.5240 O   0  0  0  0  0  0  0  0  0  0  0  0
   -0.3540    0.5090   -0.0450 C   0  0  0  0  0  0  0  0  0  0  0  0
    0.8220   -0.0560   -0.3620 O   0  0  0  0  0  0  0  0  0  0  0  0
    2.0330    0.3780   -0.8070 C   0  0  1  0  0  0  0  0  0  0  0  0
    2.1050    1.0950   -2.0920 C   0  0  0  0  0  0  0  0  0  0  0  0
    2.7910    1.0110    0.3150 C   0  0  0  0  0  0  0  0  0  0  0  0
    3.1330    2.1880    0.5270 O   0  0  0  0  0  0  0  0  0  0  0  0
    3.0870   -0.0930    1.2000 N   0  0  0  0  0  0  0  0  0  0  0  0
    3.1510   -1.2500    0.3820 N   0  0  0  0  0  0  0  0  0  0  0  0
    2.9010   -0.8630   -0.9620 C   0  0  0  0  0  0  0  0  0  0  0  0
    3.2920   -1.4020   -2.0200 O   0  0  0  0  0  0  0  0  0  0  0  0
  2  1  1  6
  2  3  1  0
  2  4  1  0
  4  5  1  0
  4 11  2  0
  5  6  1  0
  6  7  2  0
  6  8  1  0
  8  9  1  0
  9 10  2  0
  9 11  1  0
 11 12  1  0
 12 13  1  0
 13 14  1  6
 13 15  1  0
 13 19  1  0
 15 16  2  0
 15 17  1  0
 17 18  1  0
 18 19  1  0
 19 20  2  0
M  END
