
     RDKit          3D

 38 42  0  0  0  0  0  0  0  0999 V2000
    4.3130    5.4360    1.2710 C   0  0  0  0  0  0  0  0  0  0  0  0
    3.5360    4.3830    1.3470 C   0  0  0  0  0  0  0  0  0  0  0  0
    3.9740    3.0870    0.8530 C   0  0  0  0  0  0  0  0  0  0  0  0
    3.1300    2.0340    0.9570 C   0  0  0  0  0  0  0  0  0  0  0  0
    3.5680    0.7350    0.4630 C   0  0  0  0  0  0  0  0  0  0  0  0
    2.9040   -0.3780    0.4750 C   0  0  0  0  0  0  0  0  0  0  0  0
    1.5330   -0.3840    1.0620 C   0  0  0  0  0  0  0  0  0  0  0  0
    0.5120   -0.7820    0.1130 N   0  0  0  0  0  0  0  0  0  0  0  0
    0.2970    0.1540   -0.9250 C   0  0  0  0  0  0  0  0  0  0  0  0
   -0.6450    1.2360   -0.3710 C   0  0  0  0  0  0  0  0  0  0  0  0
   -1.9670    0.5440   -0.2850 C   0  0  0  0  0  0  0  0  0  0  0  0
   -1.9430   -0.7520    0.2600 C   0  0  0  0  0  0  0  0  0  0  0  0
   -3.1170   -1.4520    0.3230 N   0  0  0  0  0  0  0  0  0  0  0  0
   -3.0740   -2.7620    0.8550 C   0  0  0  0  0  0  0  0  0  0  0  0
   -3.1780   -2.8280    2.3580 C   0  0  0  0  0  0  0  0  0  0  0  0
   -4.3980   -2.2640    2.9690 C   0  0  0  0  0  0  0  0  0  0  0  0
   -4.3100   -2.4220    4.4960 C   0  0  0  0  0  0  0  0  0  0  0  0
   -4.2640   -0.9070   -0.1250 C   0  0  0  0  0  0  0  0  0  0  0  0
   -5.4640   -1.6180   -0.0650 C   0  0  0  0  0  0  0  0  0  0  0  0
   -6.6560   -1.0800   -0.5220 C   0  0  0  0  0  0  0  0  0  0  0  0
   -6.6390    0.1890   -1.0440 C   0  0  0  0  0  0  0  0  0  0  0  0
   -5.4590    0.9180   -1.1160 C   0  0  0  0  0  0  0  0  0  0  0  0
   -4.2770    0.3580   -0.6520 C   0  0  0  0  0  0  0  0  0  0  0  0
   -3.0940    1.1560   -0.7550 C   0  0  0  0  0  0  0  0  0  0  0  0
   -3.2170    2.2940   -1.2040 N   0  0  0  0  0  0  0  0  0  0  0  0
   -2.5060    3.4310   -1.4710 C   0  0  0  0  0  0  0  0  0  0  0  0
   -3.4440    4.6440   -1.7920 C   0  0  0  0  0  0  0  0  0  0  0  0
   -0.6840   -1.2340    0.7760 C   0  0  0  0  0  0  0  0  0  0  0  0
    3.4160   -1.6010   -0.1410 C   0  0  0  0  0  0  0  0  0  0  0  0
    2.8340   -2.8110    0.2760 C   0  0  0  0  0  0  0  0  0  0  0  0
    3.1620   -4.0290   -0.2150 C   0  0  0  0  0  0  0  0  0  0  0  0
    4.1310   -4.1070   -1.1900 C   0  0  0  0  0  0  0  0  0  0  0  0
    4.7240   -2.9590   -1.6290 C   0  0  0  0  0  0  0  0  0  0  0  0
    4.3610   -1.6850   -1.0990 C   0  0  0  0  0  0  0  0  0  0  0  0
    4.9800   -0.5730   -1.7440 N   0  0  0  0  0  0  0  0  0  0  0  0
    4.6360    0.5070   -2.6240 C   0  0  0  0  0  0  0  0  0  0  0  0
    6.0220    0.3640   -3.2320 C   0  0  0  0  0  0  0  0  0  0  0  0
    6.3760   -0.1100   -1.8140 C   0  0  0  0  0  0  0  0  0  0  0  0
  1  2  2  0
  2  3  1  0
  3  4  2  3
  4  5  1  0
  5  6  2  3
  6  7  1  0
  6 29  1  0
  7  8  1  0
  8  9  1  0
  8 28  1  0
  9 10  1  0
 10 11  1  0
 11 12  2  0
 11 24  1  0
 12 13  1  0
 12 28  1  0
 13 14  1  0
 13 18  1  0
 14 15  1  0
 15 16  1  0
 16 17  1  0
 18 19  2  0
 18 23  1  0
 19 20  1  0
 20 21  2  0
 21 22  1  0
 22 23  2  0
 23 24  1  0
 24 25  2  3
 25 26  1  0
 26 27  1  0
 29 30  2  0
 29 34  1  0
 30 31  1  0
 31 32  2  0
 32 33  1  0
 33 34  2  0
 34 35  1  0
 35 36  1  0
 35 38  1  0
 36 37  1  0
 37 38  1  0
M  END
