
     RDKit          3D

 44 48  0  0  0  0  0  0  0  0999 V2000
   -5.3850   -3.2660    0.3950 C   0  0  0  0  0  0  0  0  0  0  0  0
   -4.3520   -2.6140    1.3150 C   0  0  2  0  0  0  0  0  0  0  0  0
   -5.0610   -2.2550    2.5680 C   0  0  0  0  0  0  0  0  0  0  0  0
   -3.6340   -1.5070    0.6030 C   0  0  0  0  0  0  0  0  0  0  0  0
   -2.6610   -0.8270    1.3290 N   0  0  0  0  0  0  0  0  0  0  0  0
   -1.2970   -1.0650    1.0010 C   0  0  0  0  0  0  0  0  0  0  0  0
   -0.9160   -1.0530   -0.4300 C   0  0  1  0  0  0  0  0  0  0  0  0
   -1.2660    0.1860   -1.0030 O   0  0  0  0  0  0  0  0  0  0  0  0
    0.5850   -1.1430   -0.6370 C   0  0  2  0  0  0  0  0  0  0  0  0
    1.2060   -2.4370   -0.2830 C   0  0  0  0  0  0  0  0  0  0  0  0
    0.7490   -3.6160   -0.9990 C   0  0  0  0  0  0  0  0  0  0  0  0
   -0.2670   -4.3970   -0.5070 C   0  0  0  0  0  0  0  0  0  0  0  0
   -0.7260   -5.5230   -1.1630 C   0  0  0  0  0  0  0  0  0  0  0  0
   -0.1470   -5.8720   -2.3480 C   0  0  0  0  0  0  0  0  0  0  0  0
    0.8850   -5.1150   -2.8910 C   0  0  0  0  0  0  0  0  0  0  0  0
    1.3140   -3.9910   -2.1950 C   0  0  0  0  0  0  0  0  0  0  0  0
    1.3060   -0.0570   -0.0010 N   0  0  0  0  0  0  0  0  0  0  0  0
    1.9270    0.9800   -0.7510 C   0  0  0  0  0  0  0  0  0  0  0  0
    1.8150    0.9120   -2.0160 O   0  0  0  0  0  0  0  0  0  0  0  0
    2.6820    2.1140   -0.1730 C   0  0  2  0  0  0  0  0  0  0  0  0
    4.1110    2.1210   -0.6340 C   0  0  0  0  0  0  0  0  0  0  0  0
    4.8990    2.0480    0.5870 N   0  0  0  0  0  0  0  0  0  0  0  0
    6.3100    2.3230    0.7070 C   0  0  0  0  0  0  0  0  0  0  0  0
    6.9340    2.5220    1.9160 C   0  0  0  0  0  0  0  0  0  0  0  0
    8.3080    2.7860    1.9840 C   0  0  0  0  0  0  0  0  0  0  0  0
    9.0700    2.8520    0.8390 C   0  0  0  0  0  0  0  0  0  0  0  0
    8.4340    2.6510   -0.3670 C   0  0  0  0  0  0  0  0  0  0  0  0
    7.0710    2.3890   -0.4370 C   0  0  0  0  0  0  0  0  0  0  0  0
    6.4480    2.1890   -1.6720 O   0  0  0  0  0  0  0  0  0  0  0  0
    4.0050    1.6550    1.6160 C   0  0  0  0  0  0  0  0  0  0  0  0
    4.3800    1.1140    2.7110 O   0  0  0  0  0  0  0  0  0  0  0  0
    2.7100    1.9550    1.2290 O   0  0  0  0  0  0  0  0  0  0  0  0
   -3.0190    0.7040    1.9270 S   0  0  1  0  0  0  0  0  0  0  0  0
   -4.1120    0.6430    2.9440 O   0  0  0  0  0  0  0  0  0  0  0  0
   -1.7860    1.1770    2.7070 O   0  0  0  0  0  0  0  0  0  0  0  0
   -3.3860    1.9260    0.7520 C   0  0  0  0  0  0  0  0  0  0  0  0
   -2.4530    2.8310    0.2990 C   0  0  0  0  0  0  0  0  0  0  0  0
   -2.7600    3.8000   -0.6450 C   0  0  0  0  0  0  0  0  0  0  0  0
   -4.0410    3.8680   -1.1520 C   0  0  0  0  0  0  0  0  0  0  0  0
   -4.9760    2.9860   -0.7190 C   0  0  0  0  0  0  0  0  0  0  0  0
   -4.6510    2.0210    0.2260 C   0  0  0  0  0  0  0  0  0  0  0  0
   -6.1610    3.2850   -1.3910 O   0  0  0  0  0  0  0  0  0  0  0  0
   -6.0530    4.6080   -1.9390 C   0  0  0  0  0  0  0  0  0  0  0  0
   -4.6340    4.7260   -2.0990 O   0  0  0  0  0  0  0  0  0  0  0  0
  2  1  1  6
  2  3  1  0
  2  4  1  0
  4  5  1  0
  5  6  1  0
 33  5  1  6
  6  7  1  0
  7  8  1  1
  7  9  1  0
  9 10  1  1
  9 17  1  0
 10 11  1  0
 11 12  2  0
 11 16  1  0
 12 13  1  0
 13 14  2  0
 14 15  1  0
 15 16  2  0
 17 18  1  0
 18 19  2  0
 20 18  1  6
 20 21  1  0
 20 32  1  0
 21 22  1  0
 22 23  1  0
 22 30  1  0
 23 24  2  0
 23 28  1  0
 24 25  1  0
 25 26  2  0
 26 27  1  0
 27 28  2  0
 28 29  1  0
 30 31  2  0
 30 32  1  0
 33 34  2  0
 33 35  2  0
 33 36  1  0
 36 37  2  0
 36 41  1  0
 37 38  1  0
 38 39  2  0
 39 40  1  0
 39 44  1  0
 40 41  2  0
 40 42  1  0
 42 43  1  0
 43 44  1  0
M  END
