
     RDKit          3D

 38 42  0  0  0  0  0  0  0  0999 V2000
   -8.7110   -0.2510   -1.2620 C   0  0  0  0  0  0  0  0  0  0  0  0
   -7.5140    0.0290   -0.8170 C   0  0  0  0  0  0  0  0  0  0  0  0
   -6.3700   -0.8520   -1.2240 C   0  0  0  0  0  0  0  0  0  0  0  0
   -5.0860   -0.0190   -1.2550 C   0  0  0  0  0  0  0  0  0  0  0  0
   -4.8890    0.5880    0.0950 C   0  0  1  0  0  0  0  0  0  0  0  0
   -3.6730    1.5010    0.1220 C   0  0  0  0  0  0  0  0  0  0  0  0
   -2.3930    0.8370   -0.2120 C   0  0  0  0  0  0  0  0  0  0  0  0
   -1.9780   -0.2360    0.6440 N   0  0  0  0  0  0  0  0  0  0  0  0
   -1.6220    0.2190    1.9530 C   0  0  0  0  0  0  0  0  0  0  0  0
   -0.8660   -0.8920    0.0030 C   0  0  0  0  0  0  0  0  0  0  0  0
   -0.2380   -2.0000    0.7780 C   0  0  0  0  0  0  0  0  0  0  0  0
    0.9350   -2.6210    0.1540 C   0  0  0  0  0  0  0  0  0  0  0  0
    0.8450   -3.9010   -0.2340 C   0  0  0  0  0  0  0  0  0  0  0  0
   -0.2940   -4.7260   -0.0970 C   0  0  0  0  0  0  0  0  0  0  0  0
   -0.2300   -6.0100   -0.5400 C   0  0  0  0  0  0  0  0  0  0  0  0
   -1.4000   -6.9060   -0.4150 C   0  0  0  0  0  0  0  0  0  0  0  0
    2.2220   -2.0120   -0.1020 C   0  0  0  0  0  0  0  0  0  0  0  0
    2.7600   -0.8730    0.1190 C   0  0  0  0  0  0  0  0  0  0  0  0
    2.0990    0.2630    0.7950 C   0  0  0  0  0  0  0  0  0  0  0  0
    3.1420    1.1140    1.5480 C   0  0  0  0  0  0  0  0  0  0  0  0
    4.1740    1.6060    0.5720 C   0  0  0  0  0  0  0  0  0  0  0  0
    4.8110    0.4830   -0.1610 C   0  0  0  0  0  0  0  0  0  0  0  0
    4.1490   -0.6790   -0.3610 C   0  0  0  0  0  0  0  0  0  0  0  0
    5.0530   -1.4820   -1.0610 C   0  0  0  0  0  0  0  0  0  0  0  0
    6.1780   -0.7780   -1.2390 N   0  0  0  0  0  0  0  0  0  0  0  0
    6.0730    0.4170   -0.7100 N   0  0  0  0  0  0  0  0  0  0  0  0
    7.0120    1.4910   -0.6680 C   0  0  0  0  0  0  0  0  0  0  0  0
    7.6870    1.8730    0.4720 C   0  0  0  0  0  0  0  0  0  0  0  0
    8.5840    2.9300    0.4470 C   0  0  0  0  0  0  0  0  0  0  0  0
    8.8370    3.6380   -0.7080 C   0  0  0  0  0  0  0  0  0  0  0  0
    9.8000    4.7800   -0.7450 C   0  0  0  0  0  0  0  0  0  0  0  0
    8.1710    3.2520   -1.8120 N   0  0  0  0  0  0  0  0  0  0  0  0
    7.2960    2.2300   -1.8170 C   0  0  0  0  0  0  0  0  0  0  0  0
   -6.0390    1.4330    0.4840 C   0  0  0  0  0  0  0  0  0  0  0  0
   -7.2510    1.1700    0.0600 C   0  0  0  0  0  0  0  0  0  0  0  0
   -8.2190    2.1800    0.6050 C   0  0  0  0  0  0  0  0  0  0  0  0
   -7.3500    3.0620    1.4130 C   0  0  0  0  0  0  0  0  0  0  0  0
   -6.1120    2.6300    1.3390 C   0  0  0  0  0  0  0  0  0  0  0  0
  1  2  2  0
  2  3  1  0
  2 35  1  0
  3  4  1  0
  4  5  1  0
  5  6  1  6
  5 34  1  0
  6  7  1  0
  7  8  1  0
  8  9  1  0
  8 10  1  0
 10 11  1  0
 11 12  1  0
 12 13  2  3
 12 17  1  0
 13 14  1  0
 14 15  2  3
 15 16  1  0
 17 18  2  3
 18 19  1  0
 18 23  1  0
 19 20  1  0
 20 21  1  0
 21 22  1  0
 22 23  2  0
 22 26  1  0
 23 24  1  0
 24 25  2  0
 25 26  1  0
 26 27  1  0
 27 28  2  0
 27 33  1  0
 28 29  1  0
 29 30  2  0
 30 31  1  0
 30 32  1  0
 32 33  2  0
 34 35  2  0
 34 38  1  0
 35 36  1  0
 36 37  1  0
 37 38  2  0
M  END
