
     RDKit          3D

 38 42  0  0  0  0  0  0  0  0999 V2000
    0.9530    6.6510    1.9690 C   0  0  0  0  0  0  0  0  0  0  0  0
    0.6650    6.3360    0.6890 C   0  0  0  0  0  0  0  0  0  0  0  0
   -0.5910    5.6010    0.3860 C   0  0  0  0  0  0  0  0  0  0  0  0
   -0.3380    4.3540   -0.2480 N   0  0  0  0  0  0  0  0  0  0  0  0
    0.1590    4.6240   -1.6000 C   0  0  0  0  0  0  0  0  0  0  0  0
    0.6530    3.5260    0.4410 C   0  0  0  0  0  0  0  0  0  0  0  0
    0.7050    2.2590   -0.3810 C   0  0  0  0  0  0  0  0  0  0  0  0
    1.6230    1.8390   -1.1550 N   0  0  0  0  0  0  0  0  0  0  0  0
    1.2610    0.6150   -1.7220 C   0  0  1  0  0  0  0  0  0  0  0  0
    2.2010   -0.4970   -1.6540 C   0  0  0  0  0  0  0  0  0  0  0  0
    2.2710   -1.3260   -2.7800 C   0  0  0  0  0  0  0  0  0  0  0  0
    3.1210   -2.3980   -2.8710 C   0  0  0  0  0  0  0  0  0  0  0  0
    3.9570   -2.6950   -1.8190 C   0  0  0  0  0  0  0  0  0  0  0  0
    3.9170   -1.8850   -0.6700 C   0  0  0  0  0  0  0  0  0  0  0  0
    4.8240   -2.2390    0.4070 C   0  0  0  0  0  0  0  0  0  0  0  0
    5.1690   -3.5600    0.6380 C   0  0  0  0  0  0  0  0  0  0  0  0
    6.0610   -3.9030    1.6540 C   0  0  0  0  0  0  0  0  0  0  0  0
    6.6260   -2.9310    2.4610 C   0  0  0  0  0  0  0  0  0  0  0  0
    6.2800   -1.6190    2.2300 C   0  0  0  0  0  0  0  0  0  0  0  0
    5.3850   -1.2790    1.2100 C   0  0  0  0  0  0  0  0  0  0  0  0
    3.0430   -0.8220   -0.6310 C   0  0  0  0  0  0  0  0  0  0  0  0
   -0.1030    0.3020   -1.1420 C   0  0  0  0  0  0  0  0  0  0  0  0
   -0.8420   -0.9330   -1.4350 C   0  0  0  0  0  0  0  0  0  0  0  0
   -2.0360   -1.1550   -0.6500 N   0  0  0  0  0  0  0  0  0  0  0  0
   -1.7880   -1.5350    0.6500 C   0  0  0  0  0  0  0  0  0  0  0  0
   -2.8130   -1.5930    1.6710 C   0  0  0  0  0  0  0  0  0  0  0  0
   -3.1090   -2.6690    2.4200 C   0  0  0  0  0  0  0  0  0  0  0  0
   -4.1930   -2.3270    3.3260 C   0  0  0  0  0  0  0  0  0  0  0  0
   -4.1590   -0.9920    3.3120 C   0  0  0  0  0  0  0  0  0  0  0  0
   -3.7570   -0.5520    2.1280 C   0  0  0  0  0  0  0  0  0  0  0  0
   -3.0080   -1.6670   -1.4960 C   0  0  0  0  0  0  0  0  0  0  0  0
   -4.2970   -2.1580   -1.0920 C   0  0  0  0  0  0  0  0  0  0  0  0
   -5.4600   -1.5780   -1.4380 C   0  0  0  0  0  0  0  0  0  0  0  0
   -6.5750   -2.3360   -0.8660 C   0  0  0  0  0  0  0  0  0  0  0  0
   -5.9340   -3.4320   -0.1850 N   0  0  0  0  0  0  0  0  0  0  0  0
   -4.6570   -3.3160   -0.3160 C   0  0  0  0  0  0  0  0  0  0  0  0
   -0.4160    1.2940   -0.3520 C   0  0  0  0  0  0  0  0  0  0  0  0
   -1.6810    1.5290    0.4430 C   0  0  0  0  0  0  0  0  0  0  0  0
  1  2  2  0
  2  3  1  0
  3  4  1  0
  4  5  1  0
  4  6  1  0
  6  7  1  0
  7  8  2  0
  7 37  1  0
  8  9  1  0
  9 10  1  1
  9 22  1  0
 10 11  2  0
 10 21  1  0
 11 12  1  0
 12 13  2  0
 13 14  1  0
 14 15  1  0
 14 21  2  0
 15 16  2  0
 15 20  1  0
 16 17  1  0
 17 18  2  0
 18 19  1  0
 19 20  2  0
 22 23  1  0
 22 37  2  0
 23 24  1  0
 24 25  1  0
 24 31  1  0
 25 26  1  0
 26 27  2  0
 26 30  1  0
 27 28  1  0
 28 29  2  0
 29 30  2  0
 31 32  1  0
 32 33  2  0
 32 36  1  0
 33 34  1  0
 34 35  1  0
 35 36  2  0
 37 38  1  0
M  END
