
     RDKit          3D

 38 42  0  0  0  0  0  0  0  0999 V2000
    8.0120    2.5920    1.1140 C   0  0  0  0  0  0  0  0  0  0  0  0
    8.6480    1.4290    0.4230 C   0  0  0  0  0  0  0  0  0  0  0  0
    9.6650    1.4770   -0.3700 N   0  0  0  0  0  0  0  0  0  0  0  0
   10.0070    0.1770   -0.8500 C   0  0  0  0  0  0  0  0  0  0  0  0
    9.0160   -0.7070   -0.2110 C   0  0  0  0  0  0  0  0  0  0  0  0
    8.2200    0.0520    0.5400 C   0  0  0  0  0  0  0  0  0  0  0  0
    7.1080   -0.5450    1.3270 C   0  0  0  0  0  0  0  0  0  0  0  0
    5.7770   -0.0080    0.8760 C   0  0  0  0  0  0  0  0  0  0  0  0
    5.1580    1.0280    1.5520 C   0  0  0  0  0  0  0  0  0  0  0  0
    3.9440    1.5080    1.1180 C   0  0  0  0  0  0  0  0  0  0  0  0
    3.2860    0.9890    0.0030 C   0  0  0  0  0  0  0  0  0  0  0  0
    1.9790    1.5510   -0.4230 C   0  0  0  0  0  0  0  0  0  0  0  0
    0.7930    0.9100    0.1960 C   0  0  0  0  0  0  0  0  0  0  0  0
    0.6190   -0.4970   -0.0790 N   0  0  0  0  0  0  0  0  0  0  0  0
   -0.5270   -1.0150    0.6580 C   0  0  0  0  0  0  0  0  0  0  0  0
   -1.7950   -0.3430    0.3610 C   0  0  0  0  0  0  0  0  0  0  0  0
   -2.1590    0.7910    1.0610 C   0  0  0  0  0  0  0  0  0  0  0  0
   -3.3380    1.4150    0.7890 C   0  0  0  0  0  0  0  0  0  0  0  0
   -4.1790    0.9350   -0.1790 C   0  0  0  0  0  0  0  0  0  0  0  0
   -5.4670    1.5910   -0.5040 C   0  0  0  0  0  0  0  0  0  0  0  0
   -6.6150    1.0110    0.0800 N   0  0  0  0  0  0  0  0  0  0  0  0
   -6.6900    0.9310    1.4870 C   0  0  0  0  0  0  0  0  0  0  0  0
   -7.9980    1.5610    1.9040 C   0  0  0  0  0  0  0  0  0  0  0  0
   -9.2030    1.3100    1.4080 C   0  0  0  0  0  0  0  0  0  0  0  0
   -9.5670    0.3690    0.3430 C   0  0  0  0  0  0  0  0  0  0  0  0
   -8.7260    0.4750   -0.8940 C   0  0  0  0  0  0  0  0  0  0  0  0
   -7.3030    0.0130   -0.6610 C   0  0  0  0  0  0  0  0  0  0  0  0
   -3.8310   -0.2000   -0.8910 C   0  0  0  0  0  0  0  0  0  0  0  0
   -2.6500   -0.8150   -0.6090 C   0  0  0  0  0  0  0  0  0  0  0  0
    0.4790   -0.7910   -1.4760 C   0  0  0  0  0  0  0  0  0  0  0  0
    0.4550   -2.2560   -1.6610 C   0  0  0  0  0  0  0  0  0  0  0  0
   -0.2440   -2.8650   -2.6710 C   0  0  0  0  0  0  0  0  0  0  0  0
   -0.1990   -4.2350   -2.7850 C   0  0  0  0  0  0  0  0  0  0  0  0
    0.5260   -5.0100   -1.9180 C   0  0  0  0  0  0  0  0  0  0  0  0
    1.2130   -4.4210   -0.9270 N   0  0  0  0  0  0  0  0  0  0  0  0
    1.1710   -3.0870   -0.8130 C   0  0  0  0  0  0  0  0  0  0  0  0
    3.9380   -0.0420   -0.6400 C   0  0  0  0  0  0  0  0  0  0  0  0
    5.1520   -0.5390   -0.2270 C   0  0  0  0  0  0  0  0  0  0  0  0
  1  2  1  0
  2  3  2  0
  2  6  1  0
  3  4  1  0
  4  5  1  0
  5  6  2  0
  6  7  1  0
  7  8  1  0
  8  9  2  0
  8 38  1  0
  9 10  1  0
 10 11  2  0
 11 12  1  0
 11 37  1  0
 12 13  1  0
 13 14  1  0
 14 15  1  0
 14 30  1  0
 15 16  1  0
 16 17  2  0
 16 29  1  0
 17 18  1  0
 18 19  2  0
 19 20  1  0
 19 28  1  0
 20 21  1  0
 21 22  1  0
 21 27  1  0
 22 23  1  0
 23 24  2  0
 24 25  1  0
 25 26  1  0
 26 27  1  0
 28 29  2  0
 30 31  1  0
 31 32  2  0
 31 36  1  0
 32 33  1  0
 33 34  2  0
 34 35  1  0
 35 36  2  0
 37 38  2  0
M  END
