
     RDKit          3D

 38 42  0  0  0  0  0  0  0  0999 V2000
   -8.3060   -1.8040    1.5410 C   0  0  0  0  0  0  0  0  0  0  0  0
   -7.1950   -1.6390    0.5700 C   0  0  0  0  0  0  0  0  0  0  0  0
   -7.5080   -1.6590   -0.7710 C   0  0  0  0  0  0  0  0  0  0  0  0
   -6.5160   -1.5120   -1.7100 C   0  0  0  0  0  0  0  0  0  0  0  0
   -5.1910   -1.3420   -1.2860 C   0  0  0  0  0  0  0  0  0  0  0  0
   -4.8490   -1.3170    0.0410 C   0  0  0  0  0  0  0  0  0  0  0  0
   -3.4660   -1.1490    0.5190 C   0  0  0  0  0  0  0  0  0  0  0  0
   -3.1530    0.0410    1.2060 N   0  0  0  0  0  0  0  0  0  0  0  0
   -1.7830   -0.0140    1.6940 C   0  0  0  0  0  0  0  0  0  0  0  0
   -1.1890    1.2390    1.3650 N   0  0  0  0  0  0  0  0  0  0  0  0
   -0.3430    1.1260    0.2270 C   0  0  0  0  0  0  0  0  0  0  0  0
    0.9000    0.3460    0.5610 C   0  0  0  0  0  0  0  0  0  0  0  0
    1.8090    0.1810   -0.6050 C   0  0  0  0  0  0  0  0  0  0  0  0
    3.0020   -0.5950   -0.1310 N   0  0  0  0  0  0  0  0  0  0  0  0
    3.8640    0.0950    0.7600 C   0  0  0  0  0  0  0  0  0  0  0  0
    5.2130   -0.3810    1.1110 C   0  0  0  0  0  0  0  0  0  0  0  0
    6.2210   -0.4320    0.0960 N   0  0  0  0  0  0  0  0  0  0  0  0
    6.2050   -1.4870   -0.8860 C   0  0  0  0  0  0  0  0  0  0  0  0
    7.2210    0.6000    0.0090 C   0  0  0  0  0  0  0  0  0  0  0  0
    8.2070    0.5300   -0.9230 C   0  0  0  0  0  0  0  0  0  0  0  0
    9.1560    1.5740   -0.9910 C   0  0  0  0  0  0  0  0  0  0  0  0
    9.1150    2.6560   -0.1470 C   0  0  0  0  0  0  0  0  0  0  0  0
    8.1070    2.6980    0.7820 C   0  0  0  0  0  0  0  0  0  0  0  0
    7.1570    1.6690    0.8620 C   0  0  0  0  0  0  0  0  0  0  0  0
    3.0280   -1.9180   -0.5860 C   0  0  0  0  0  0  0  0  0  0  0  0
    3.0780   -3.0090    0.2660 C   0  0  0  0  0  0  0  0  0  0  0  0
    3.0630   -4.2670   -0.2740 C   0  0  0  0  0  0  0  0  0  0  0  0
    3.0000   -4.4920   -1.6230 C   0  0  0  0  0  0  0  0  0  0  0  0
    2.9520   -3.4160   -2.4610 C   0  0  0  0  0  0  0  0  0  0  0  0
    2.9660   -2.1470   -1.9400 C   0  0  0  0  0  0  0  0  0  0  0  0
   -2.2910    2.1660    1.2270 C   0  0  0  0  0  0  0  0  0  0  0  0
   -3.4220    1.2920    0.6380 C   0  0  2  0  0  0  0  0  0  0  0  0
   -4.6960    1.9490    1.1860 C   0  0  0  0  0  0  0  0  0  0  0  0
   -4.6510    3.4230    0.7810 C   0  0  0  0  0  0  0  0  0  0  0  0
   -4.7750    3.4940   -0.7160 C   0  0  0  0  0  0  0  0  0  0  0  0
   -4.6550    2.1080   -1.3590 C   0  0  0  0  0  0  0  0  0  0  0  0
   -3.3660    1.4580   -0.8320 C   0  0  0  0  0  0  0  0  0  0  0  0
   -5.8880   -1.4710    0.9670 C   0  0  0  0  0  0  0  0  0  0  0  0
  1  2  1  0
  2  3  2  0
  2 38  1  0
  3  4  1  0
  4  5  2  0
  5  6  1  0
  6  7  1  0
  6 38  2  0
  7  8  1  0
  8  9  1  0
  8 32  1  0
  9 10  1  0
 10 11  1  0
 10 31  1  0
 11 12  1  0
 12 13  1  0
 13 14  1  0
 14 15  1  0
 14 25  1  0
 15 16  1  0
 16 17  1  0
 17 18  1  0
 17 19  1  0
 19 20  2  0
 19 24  1  0
 20 21  1  0
 21 22  2  0
 22 23  1  0
 23 24  2  0
 25 26  2  0
 25 30  1  0
 26 27  1  0
 27 28  2  0
 28 29  1  0
 29 30  2  0
 32 31  1  1
 32 33  1  0
 32 37  1  0
 33 34  1  0
 34 35  1  0
 35 36  1  0
 36 37  1  0
M  END
