
     RDKit          3D

 30 33  0  0  0  0  0  0  0  0999 V2000
   -4.0150   -2.2530    0.5040 C   0  0  0  0  0  0  0  0  0  0  0  0
   -4.0980   -0.8430    1.0260 C   0  0  0  0  0  0  0  0  0  0  0  0
   -4.0790    0.1660   -0.0110 N   0  0  2  0  0  0  0  0  0  0  0  0
   -3.4800    1.3560    0.5260 C   0  0  0  0  0  0  0  0  0  0  0  0
   -1.9550    1.2670    0.5310 C   0  0  0  0  0  0  0  0  0  0  0  0
   -1.1930    0.2450    0.1910 C   0  0  0  0  0  0  0  0  0  0  0  0
    0.1410    0.3140    0.2450 C   0  0  0  0  0  0  0  0  0  0  0  0
    1.2010   -0.5960   -0.0500 N   0  0  0  0  0  0  0  0  0  0  0  0
    2.5330   -0.1100    0.1500 C   0  0  0  0  0  0  0  0  0  0  0  0
    2.7870    1.1330    0.5910 N   0  0  0  0  0  0  0  0  0  0  0  0
    4.0300    1.5770    0.7750 C   0  0  0  0  0  0  0  0  0  0  0  0
    4.3430    2.9290    1.2550 C   0  0  0  0  0  0  0  0  0  0  0  0
    5.0790    0.7140    0.4960 C   0  0  0  0  0  0  0  0  0  0  0  0
    4.9000   -0.5530    0.0480 N   0  0  0  0  0  0  0  0  0  0  0  0
    5.7410   -1.5360   -0.2770 C   0  0  0  0  0  0  0  0  0  0  0  0
    7.1940   -1.6020   -0.2680 C   0  0  0  0  0  0  0  0  0  0  0  0
    7.9140   -2.7330   -0.6480 C   0  0  0  0  0  0  0  0  0  0  0  0
    9.2050   -2.4300   -0.5130 N   0  0  0  0  0  0  0  0  0  0  0  0
    9.3450   -1.1990   -0.0790 N   0  0  0  0  0  0  0  0  0  0  0  0
    8.1030   -0.6620    0.0820 C   0  0  0  0  0  0  0  0  0  0  0  0
    4.9080   -2.5980   -0.6680 C   0  0  0  0  0  0  0  0  0  0  0  0
    3.6440   -2.2120   -0.5610 N   0  0  0  0  0  0  0  0  0  0  0  0
    3.6030   -0.9400   -0.1160 C   0  0  0  0  0  0  0  0  0  0  0  0
    0.3770    2.0160    0.8450 S   0  0  0  0  0  0  0  0  0  0  0  0
   -1.2890    2.4310    0.9530 N   0  0  0  0  0  0  0  0  0  0  0  0
   -5.3970    0.4160   -0.5560 C   0  0  1  0  0  0  0  0  0  0  0  0
   -5.2190    1.3720   -1.7360 C   0  0  0  0  0  0  0  0  0  0  0  0
   -6.0750   -0.8060   -1.0770 C   0  0  0  0  0  0  0  0  0  0  0  0
   -6.3100    1.0970    0.4170 C   0  0  0  0  0  0  0  0  0  0  0  0
   -5.8480    2.3390    0.8480 O   0  0  0  0  0  0  0  0  0  0  0  0
  1  2  1  0
  3  2  1  1
  3  4  1  0
  3 26  1  0
  4  5  1  0
  5  6  1  0
  5 25  2  0
  6  7  2  0
  7  8  1  0
  7 24  1  0
  8  9  1  0
  9 10  2  0
  9 23  1  0
 10 11  1  0
 11 12  1  0
 11 13  2  0
 13 14  1  0
 14 15  1  0
 14 23  1  0
 15 16  1  0
 15 21  2  0
 16 17  1  0
 16 20  2  0
 17 18  2  0
 18 19  1  0
 19 20  1  0
 21 22  1  0
 22 23  2  0
 24 25  1  0
 26 27  1  6
 26 28  1  0
 26 29  1  0
 29 30  1  0
M  CHG  1   3   1
M  END
