
     RDKit          3D

 29 33  0  0  0  0  0  0  0  0999 V2000
    8.2880   -2.5170    0.5720 N   0  0  0  0  0  0  0  0  0  0  0  0
    7.4300   -2.1970   -0.2670 C   0  0  0  0  0  0  0  0  0  0  0  0
    6.4200   -1.8400   -1.2250 C   0  0  0  0  0  0  0  0  0  0  0  0
    5.2240   -1.2910   -0.5920 N   0  0  0  0  0  0  0  0  0  0  0  0
    4.0010   -1.8200   -0.5730 C   0  0  0  0  0  0  0  0  0  0  0  0
    3.1080   -0.8700   -0.0030 C   0  0  0  0  0  0  0  0  0  0  0  0
    1.6380   -1.1010    0.1940 C   0  0  0  0  0  0  0  0  0  0  0  0
    0.6790   -0.8200    0.4390 N   0  0  0  0  0  0  0  0  0  0  0  0
   -0.5260   -0.7500    0.6680 C   0  0  0  0  0  0  0  0  0  0  0  0
   -1.8710   -0.7840    0.9420 C   0  0  0  0  0  0  0  0  0  0  0  0
   -1.9610    0.7320    0.3040 O   0  0  0  0  0  0  0  0  0  0  0  0
   -3.1780   -0.8080    1.2040 C   0  0  0  0  0  0  0  0  0  0  0  0
   -4.0800    0.0020    0.5980 C   0  0  0  0  0  0  0  0  0  0  0  0
   -3.4510    1.1250   -0.6000 Cl  0  0  0  0  0  0  0  0  0  0  0  0
   -5.4620    0.0500    0.9620 C   0  0  0  0  0  0  0  0  0  0  0  0
   -6.3000    0.7950    0.1700 C   0  0  0  0  0  0  0  0  0  0  0  0
   -5.9200    1.5620   -1.0380 C   0  0  0  0  0  0  0  0  0  0  0  0
   -7.2300    1.8630   -1.7300 C   0  0  0  0  0  0  0  0  0  0  0  0
   -8.2070    1.4240   -0.8920 C   0  0  0  0  0  0  0  0  0  0  0  0
   -7.6970    0.8220    0.2410 N   0  0  0  0  0  0  0  0  0  0  0  0
   -0.6010   -2.4570    0.1980 C   0  0  0  0  0  0  0  0  0  0  0  0
    0.9610   -2.8590   -0.1910 S   0  0  0  0  0  0  0  0  0  0  0  0
    3.8340    0.1630    0.2950 C   0  0  0  0  0  0  0  0  0  0  0  0
    3.4600    1.3790    0.9550 C   0  0  0  0  0  0  0  0  0  0  0  0
    4.4900    2.2340    1.1820 C   0  0  0  0  0  0  0  0  0  0  0  0
    4.0380    3.7810    2.0420 Cl  0  0  0  0  0  0  0  0  0  0  0  0
    5.7850    2.1040    0.8800 C   0  0  0  0  0  0  0  0  0  0  0  0
    6.1490    0.8340    0.1920 C   0  0  0  0  0  0  0  0  0  0  0  0
    5.1240   -0.0130   -0.0270 C   0  0  0  0  0  0  0  0  0  0  0  0
  1  2  3  0
  2  3  1  0
  3  4  1  0
  4  5  1  0
  4 29  1  0
  5  6  2  0
  6  7  1  0
  6 23  1  0
  7  8  2  0
  7 22  1  0
  8  9  1  0
  9 10  1  0
  9 21  2  0
 10 11  2  0
 10 12  1  0
 12 13  2  0
 13 14  1  0
 13 15  1  0
 15 16  2  3
 16 17  1  0
 16 20  1  0
 17 18  1  0
 18 19  2  0
 19 20  1  0
 21 22  1  0
 23 24  2  0
 23 29  1  0
 24 25  1  0
 25 26  1  0
 25 27  2  0
 27 28  1  0
 28 29  2  0
 14 11  1  0
M  END
