
     RDKit          3D

 29 32  0  0  0  0  0  0  0  0999 V2000
   -8.7380    0.4280    0.2730 C   0  0  0  0  0  0  0  0  0  0  0  0
   -7.2980    0.1640    0.1150 C   0  0  0  0  0  0  0  0  0  0  0  0
   -6.5550   -0.4370    1.1070 C   0  0  0  0  0  0  0  0  0  0  0  0
   -5.2310   -0.7530    0.9700 C   0  0  0  0  0  0  0  0  0  0  0  0
   -4.3110   -1.3290    2.3760 Cl  0  0  0  0  0  0  0  0  0  0  0  0
   -4.6520   -0.4670   -0.2340 C   0  0  0  0  0  0  0  0  0  0  0  0
   -3.3600   -0.8790   -0.5330 N   0  0  0  0  0  0  0  0  0  0  0  0
   -2.6890   -0.2460   -1.6490 C   0  0  0  0  0  0  0  0  0  0  0  0
   -1.2310   -0.4830   -1.6420 C   0  0  0  0  0  0  0  0  0  0  0  0
   -0.7280   -0.5020   -0.2240 C   0  0  0  0  0  0  0  0  0  0  0  0
    0.3480    0.0400    0.3380 C   0  0  0  0  0  0  0  0  0  0  0  0
    1.1720    1.1200   -0.2750 C   0  0  0  0  0  0  0  0  0  0  0  0
    2.4750    0.6370   -0.3040 N   0  0  0  0  0  0  0  0  0  0  0  0
    3.0800    0.3110    0.9320 C   0  0  2  0  0  0  0  0  0  0  0  0
    3.0730    1.6270    1.7540 C   0  0  0  0  0  0  0  0  0  0  0  0
    4.5400    0.0880    0.5120 C   0  0  0  0  0  0  0  0  0  0  0  0
    5.1550   -0.2150   -0.3250 N   0  0  0  0  0  0  0  0  0  0  0  0
    6.4460   -0.3100   -0.5420 C   0  0  0  0  0  0  0  0  0  0  0  0
    7.1110   -0.6360   -1.8410 C   0  0  0  0  0  0  0  0  0  0  0  0
    7.1650    0.0640    0.5480 C   0  0  0  0  0  0  0  0  0  0  0  0
    8.6210    0.2260    0.7970 C   0  0  0  0  0  0  0  0  0  0  0  0
    5.8870    0.5210    1.7970 S   0  0  0  0  0  0  0  0  0  0  0  0
    0.3740   -0.4370    1.6180 N   0  0  0  0  0  0  0  0  0  0  0  0
   -0.6880   -1.2210    1.7620 O   0  0  0  0  0  0  0  0  0  0  0  0
   -1.3880   -1.3010    0.6940 C   0  0  0  0  0  0  0  0  0  0  0  0
   -2.6040   -1.9240    0.1460 C   0  0  0  0  0  0  0  0  0  0  0  0
   -5.4190    0.1570   -1.2530 C   0  0  0  0  0  0  0  0  0  0  0  0
   -6.7210    0.4830   -1.0930 C   0  0  0  0  0  0  0  0  0  0  0  0
   -7.6110    1.4220   -2.3120 Cl  0  0  0  0  0  0  0  0  0  0  0  0
  1  2  1  0
  2  3  2  0
  2 28  1  0
  3  4  1  0
  4  5  1  0
  4  6  2  0
  6  7  1  0
  6 27  1  0
  7  8  1  0
  7 26  1  0
  8  9  1  0
  9 10  1  0
 10 11  1  0
 10 25  2  0
 11 12  1  0
 11 23  2  0
 12 13  1  0
 13 14  1  0
 14 15  1  1
 14 16  1  0
 16 17  2  0
 16 22  1  0
 17 18  1  0
 18 19  1  0
 18 20  2  0
 20 21  1  0
 20 22  1  0
 23 24  1  0
 24 25  1  0
 25 26  1  0
 27 28  2  0
 28 29  1  0
M  END
