
     RDKit          3D

 29 32  0  0  0  0  0  0  0  0999 V2000
    6.6270    2.7340    0.2960 C   0  0  0  0  0  0  0  0  0  0  0  0
    6.1360    1.3880    0.6680 C   0  0  0  0  0  0  0  0  0  0  0  0
    6.9970    0.5490    1.3630 C   0  0  0  0  0  0  0  0  0  0  0  0
    6.5420   -0.7000    1.7070 C   0  0  0  0  0  0  0  0  0  0  0  0
    5.2500   -1.0940    1.3580 C   0  0  0  0  0  0  0  0  0  0  0  0
    4.8060   -2.4800    1.6950 C   0  0  0  0  0  0  0  0  0  0  0  0
    4.3930   -0.2750    0.6740 C   0  0  0  0  0  0  0  0  0  0  0  0
    3.0140   -0.5450    0.3180 C   0  0  0  0  0  0  0  0  0  0  0  0
    2.5750    0.0450   -0.7390 O   0  0  0  0  0  0  0  0  0  0  0  0
    2.1160   -1.3700    1.0030 N   0  0  0  0  0  0  0  0  0  0  0  0
    0.7680   -1.5540    0.5380 C   0  0  0  0  0  0  0  0  0  0  0  0
   -0.2580   -2.1170    0.7890 N   0  0  0  0  0  0  0  0  0  0  0  0
   -1.3560   -2.0920    0.1580 N   0  0  0  0  0  0  0  0  0  0  0  0
   -1.4600   -1.4040   -0.8850 C   0  0  0  0  0  0  0  0  0  0  0  0
   -2.5990   -1.1240   -1.9140 C   0  0  0  0  0  0  0  0  0  0  0  0
   -3.2900   -0.0100   -1.3400 N   0  0  0  0  0  0  0  0  0  0  0  0
   -2.6640    1.1860   -0.8070 C   0  0  0  0  0  0  0  0  0  0  0  0
   -3.5490    2.0330    0.0320 C   0  0  0  0  0  0  0  0  0  0  0  0
   -4.6290    1.2940    0.7910 C   0  0  0  0  0  0  0  0  0  0  0  0
   -5.4070    0.5720   -0.2500 C   0  0  0  0  0  0  0  0  0  0  0  0
   -6.7700    0.5440   -0.1760 C   0  0  0  0  0  0  0  0  0  0  0  0
   -7.4900   -0.1190   -1.1610 C   0  0  0  0  0  0  0  0  0  0  0  0
   -9.2330   -0.1370   -1.0370 Cl  0  0  0  0  0  0  0  0  0  0  0  0
   -6.8120   -0.7400   -2.2020 C   0  0  0  0  0  0  0  0  0  0  0  0
   -5.4440   -0.7000   -2.2570 C   0  0  0  0  0  0  0  0  0  0  0  0
   -4.6200   -1.4660   -3.5830 Cl  0  0  0  0  0  0  0  0  0  0  0  0
   -4.7150   -0.0550   -1.3000 C   0  0  0  0  0  0  0  0  0  0  0  0
    0.1880   -0.6800   -1.0300 S   0  0  0  0  0  0  0  0  0  0  0  0
    4.8690    1.0060    0.3250 C   0  0  0  0  0  0  0  0  0  0  0  0
  1  2  1  0
  2  3  2  0
  2 29  1  0
  3  4  1  0
  4  5  2  0
  5  6  1  0
  5  7  1  0
  7  8  1  0
  7 29  2  0
  8  9  2  0
  8 10  1  0
 10 11  1  0
 11 12  2  0
 11 28  1  0
 12 13  1  0
 13 14  2  0
 14 15  1  0
 14 28  1  0
 15 16  1  0
 16 17  1  0
 16 27  1  0
 17 18  1  0
 18 19  1  0
 19 20  1  0
 20 21  2  0
 20 27  1  0
 21 22  1  0
 22 23  1  0
 22 24  2  0
 24 25  1  0
 25 26  1  0
 25 27  2  0
M  END
