
     RDKit          3D

 29 32  0  0  0  0  0  0  0  0999 V2000
    7.2040    0.1820   -0.4500 C   0  0  0  0  0  0  0  0  0  0  0  0
    6.3370   -0.7280   -0.6920 C   0  0  0  0  0  0  0  0  0  0  0  0
    6.7710   -2.1870   -0.8350 C   0  0  0  0  0  0  0  0  0  0  0  0
    5.8650   -2.5000   -2.0270 C   0  0  0  0  0  0  0  0  0  0  0  0
    4.6260   -1.7600   -1.6470 C   0  0  0  0  0  0  0  0  0  0  0  0
    3.0580   -2.2280   -2.2010 Cl  0  0  0  0  0  0  0  0  0  0  0  0
    4.9070   -0.7080   -0.8490 C   0  0  0  0  0  0  0  0  0  0  0  0
    3.9120    0.0790   -0.1890 C   0  0  0  0  0  0  0  0  0  0  0  0
    3.7730    1.0870    0.5370 C   0  0  0  0  0  0  0  0  0  0  0  0
    4.7660    2.0280    1.0660 C   0  0  0  0  0  0  0  0  0  0  0  0
    5.5810    3.1700    0.0390 Cl  0  0  0  0  0  0  0  0  0  0  0  0
    4.9790    2.0600    2.3690 C   0  0  0  0  0  0  0  0  0  0  0  0
    3.8670    1.9540    3.0670 C   0  0  0  0  0  0  0  0  0  0  0  0
    2.5410    1.9740    2.4820 C   0  0  0  0  0  0  0  0  0  0  0  0
    2.4500    1.3820    1.1620 N   0  0  0  0  0  0  0  0  0  0  0  0
    1.2560    1.0490    0.5220 C   0  0  0  0  0  0  0  0  0  0  0  0
    1.1370    0.6250   -0.6560 O   0  0  0  0  0  0  0  0  0  0  0  0
    0.0040    1.1730    1.2100 N   0  0  0  0  0  0  0  0  0  0  0  0
   -1.2180    0.7900    0.4930 C   0  0  0  0  0  0  0  0  0  0  0  0
   -1.6180    0.4120   -0.5020 N   0  0  0  0  0  0  0  0  0  0  0  0
   -2.8710    0.1470   -0.7680 N   0  0  0  0  0  0  0  0  0  0  0  0
   -3.7740    0.2560   -0.0310 C   0  0  0  0  0  0  0  0  0  0  0  0
   -5.2360    0.0820    0.0780 C   0  0  2  0  0  0  0  0  0  0  0  0
   -5.5350   -1.3930   -0.0970 C   0  0  0  0  0  0  0  0  0  0  0  0
   -6.9900   -1.7160    0.0240 C   0  0  0  0  0  0  0  0  0  0  0  0
   -7.8880   -0.5270   -0.1640 C   0  0  0  0  0  0  0  0  0  0  0  0
   -7.3610    0.4190   -1.2200 C   0  0  0  0  0  0  0  0  0  0  0  0
   -5.9950    0.9360   -0.9050 C   0  0  0  0  0  0  0  0  0  0  0  0
   -2.8040    0.8900    1.5060 S   0  0  0  0  0  0  0  0  0  0  0  0
  1  2  2  0
  2  3  1  0
  2  7  1  0
  3  4  1  0
  4  5  1  0
  5  6  1  0
  5  7  2  0
  7  8  1  0
  8  9  2  3
  9 10  1  0
  9 15  1  0
 10 11  1  0
 10 12  2  0
 12 13  2  0
 13 14  1  0
 14 15  1  0
 15 16  1  0
 16 17  2  0
 16 18  1  0
 18 19  1  0
 19 20  2  0
 19 29  1  0
 20 21  1  0
 21 22  2  0
 23 22  1  6
 22 29  1  0
 23 24  1  0
 23 28  1  0
 24 25  1  0
 25 26  1  0
 26 27  1  0
 27 28  1  0
M  END
