
     RDKit          3D

 29 31  0  0  0  0  0  0  0  0999 V2000
    7.3640    1.3160   -0.7220 C   0  0  0  0  0  0  0  0  0  0  0  0
    6.9250    0.1010   -0.4410 C   0  0  0  0  0  0  0  0  0  0  0  0
    7.8450   -0.9670   -0.0890 C   0  0  0  0  0  0  0  0  0  0  0  0
    7.4470   -2.1190    0.1790 O   0  0  0  0  0  0  0  0  0  0  0  0
    9.1690   -0.6950   -0.0530 F   0  0  0  0  0  0  0  0  0  0  0  0
    5.5190   -0.1770   -0.4830 N   0  0  0  0  0  0  0  0  0  0  0  0
    5.0500   -1.0420   -1.5150 C   0  0  0  0  0  0  0  0  0  0  0  0
    3.5590   -1.0030   -1.7360 C   0  0  0  0  0  0  0  0  0  0  0  0
    2.8410   -0.7370   -0.4970 N   0  0  0  0  0  0  0  0  0  0  0  0
    1.4290   -0.6620   -0.5660 C   0  0  0  0  0  0  0  0  0  0  0  0
    0.7870   -0.8110   -1.6420 O   0  0  0  0  0  0  0  0  0  0  0  0
    0.6140   -0.3950    0.6650 C   0  0  2  0  0  0  0  0  0  0  0  0
    0.8230   -1.5190    1.6510 C   0  0  0  0  0  0  0  0  0  0  0  0
   -0.7660   -0.3360    0.3600 O   0  0  0  0  0  0  0  0  0  0  0  0
   -1.5010    0.7830    0.6660 C   0  0  0  0  0  0  0  0  0  0  0  0
   -0.9280    1.7490    1.2200 O   0  0  0  0  0  0  0  0  0  0  0  0
   -2.9420    0.8670    0.3570 C   0  0  0  0  0  0  0  0  0  0  0  0
   -3.7680    1.8990    0.6050 N   0  0  0  0  0  0  0  0  0  0  0  0
   -5.0040    1.6130    0.1850 C   0  0  0  0  0  0  0  0  0  0  0  0
   -4.9630    0.3250   -0.3610 C   0  0  0  0  0  0  0  0  0  0  0  0
   -3.6810   -0.1260   -0.2480 C   0  0  0  0  0  0  0  0  0  0  0  0
   -3.2370   -1.4650   -0.7190 C   0  0  0  0  0  0  0  0  0  0  0  0
   -6.2470   -0.1890   -0.8900 C   0  0  0  0  0  0  0  0  0  0  0  0
   -7.2760   -0.0350    0.2090 C   0  0  0  0  0  0  0  0  0  0  0  0
   -7.3610    1.3470    0.7640 C   0  0  0  0  0  0  0  0  0  0  0  0
   -6.3290    2.2800    0.1560 C   0  0  0  0  0  0  0  0  0  0  0  0
    3.5100   -0.5500    0.7580 C   0  0  0  0  0  0  0  0  0  0  0  0
    4.6580    0.4140    0.4930 C   0  0  2  0  0  0  0  0  0  0  0  0
    4.1330    1.6420    0.0600 O   0  0  0  0  0  0  0  0  0  0  0  0
  1  2  2  0
  2  3  1  0
  2  6  1  0
  3  4  2  0
  3  5  1  0
  6  7  1  0
  6 28  1  0
  7  8  1  0
  8  9  1  0
  9 10  1  0
  9 27  1  0
 10 11  2  0
 10 12  1  0
 12 13  1  1
 12 14  1  0
 14 15  1  0
 15 16  2  0
 15 17  1  0
 17 18  1  0
 17 21  2  0
 18 19  1  0
 19 20  2  0
 19 26  1  0
 20 21  1  0
 20 23  1  0
 21 22  1  0
 23 24  1  0
 24 25  1  0
 25 26  1  0
 27 28  1  0
 28 29  1  6
M  END
