
     RDKit          3D

 26 26  0  0  0  0  0  0  0  0999 V2000
   -1.8030    1.8160    0.2940 C   0  0  0  0  0  0  0  0  0  0  0  0
   -3.1310    1.3130    0.6480 C   0  0  2  0  0  0  0  0  0  0  0  0
   -3.3710    0.0870   -0.0680 O   0  0  0  0  0  0  0  0  0  0  0  0
   -4.2640    2.2760    0.2320 C   0  0  0  0  0  0  0  0  0  0  0  0
   -4.3260    2.5180   -1.2330 C   0  0  0  0  0  0  0  0  0  0  0  0
   -5.4090    3.3930   -1.5460 O   0  0  0  0  0  0  0  0  0  0  0  0
   -3.3830    1.0070    2.0750 C   0  0  0  0  0  0  0  0  0  0  0  0
   -2.6240   -0.0310    2.6460 N   0  0  0  0  0  0  0  0  0  0  0  0
   -1.2510   -0.1190    2.9160 C   0  0  0  0  0  0  0  0  0  0  0  0
   -0.4780    0.8080    2.6770 O   0  0  0  0  0  0  0  0  0  0  0  0
   -0.6820   -1.3690    3.5150 C   0  0  0  0  0  0  0  0  0  0  0  0
    0.8020   -1.2440    3.7330 C   0  0  0  0  0  0  0  0  0  0  0  0
    1.5330   -0.9980    2.5250 N   0  0  0  0  0  0  0  0  0  0  0  0
    1.5350   -1.8730    1.4080 C   0  0  0  0  0  0  0  0  0  0  0  0
    0.8450   -2.9340    1.4940 O   0  0  0  0  0  0  0  0  0  0  0  0
    2.3030   -1.5910    0.1730 C   0  0  0  0  0  0  0  0  0  0  0  0
    3.0330   -0.5130    0.0360 C   0  0  0  0  0  0  0  0  0  0  0  0
    3.6510   -0.5350   -1.2770 C   0  0  0  0  0  0  0  0  0  0  0  0
    3.2450   -1.6480   -1.8580 C   0  0  0  0  0  0  0  0  0  0  0  0
    3.6690   -2.0390   -3.2420 C   0  0  0  0  0  0  0  0  0  0  0  0
    4.5270   -1.0130   -3.9030 C   0  0  0  0  0  0  0  0  0  0  0  0
    3.8670    0.2870   -4.0910 C   0  0  0  0  0  0  0  0  0  0  0  0
    4.5060    1.2230   -4.5330 O   0  0  0  0  0  0  0  0  0  0  0  0
    2.1650    0.5650   -3.7050 S   0  0  0  0  0  0  0  0  0  0  0  0
    1.2800    0.4550   -4.9150 O   0  0  0  0  0  0  0  0  0  0  0  0
    2.3890   -2.3560   -0.9870 N   0  0  0  0  0  0  0  0  0  0  0  0
  2  1  1  1
  2  3  1  0
  2  4  1  0
  2  7  1  0
  4  5  1  0
  5  6  1  0
  7  8  1  0
  8  9  1  0
  9 10  2  0
  9 11  1  0
 11 12  1  0
 12 13  1  0
 13 14  1  0
 14 15  2  0
 14 16  1  0
 16 17  2  0
 16 26  1  0
 17 18  1  0
 18 19  2  0
 19 20  1  0
 19 26  1  0
 20 21  1  0
 21 22  1  0
 22 23  2  0
 22 24  1  0
 24 25  2  0
M  CHG  1  26   1
M  END
