
     RDKit          3D

 26 25  0  0  0  0  0  0  0  0999 V2000
   -1.1150   -5.2040    0.8460 C   0  0  0  0  0  0  0  0  0  0  0  0
   -0.4130   -4.0060    0.5410 O   0  0  0  0  0  0  0  0  0  0  0  0
   -1.0440   -2.8150    0.2640 C   0  0  0  0  0  0  0  0  0  0  0  0
   -2.3220   -2.8620    0.3020 O   0  0  0  0  0  0  0  0  0  0  0  0
   -0.3420   -1.5750   -0.0500 C   0  0  0  0  0  0  0  0  0  0  0  0
   -1.0690   -0.5000   -0.2820 C   0  0  0  0  0  0  0  0  0  0  0  0
   -2.5060   -0.6020   -0.2150 N   0  0  0  0  0  0  0  0  0  0  0  0
   -3.2910   -0.2300    0.9170 C   0  0  0  0  0  0  0  0  0  0  0  0
   -4.7540   -0.4950    0.6010 C   0  0  0  0  0  0  0  0  0  0  0  0
   -5.5650   -0.1460    1.6780 O   0  0  0  0  0  0  0  0  0  0  0  0
   -0.3660    1.0750   -0.6750 S   0  0  0  0  0  0  0  0  0  0  0  0
   -1.5770    2.3250   -1.0300 C   0  0  0  0  0  0  0  0  0  0  0  0
   -2.3250    2.0270   -2.3050 C   0  0  0  0  0  0  0  0  0  0  0  0
   -3.3070    3.0720   -2.5700 N   0  0  0  0  0  0  0  0  0  0  0  0
    1.1290   -1.5820   -0.0850 C   0  0  1  0  0  0  0  0  0  0  0  0
    1.6420   -2.6040   -1.0970 C   0  0  0  0  0  0  0  0  0  0  0  0
    1.0930   -2.2300   -2.4570 C   0  0  0  0  0  0  0  0  0  0  0  0
    1.5190   -3.1330   -3.4370 O   0  0  0  0  0  0  0  0  0  0  0  0
    1.7440   -0.3160   -0.4030 N   0  0  0  0  0  0  0  0  0  0  0  0
    2.4260    0.4210    0.6050 C   0  0  0  0  0  0  0  0  0  0  0  0
    2.4860   -0.0360    1.7620 O   0  0  0  0  0  0  0  0  0  0  0  0
    3.0380    1.6430    0.3640 O   0  0  0  0  0  0  0  0  0  0  0  0
    3.7090    2.3500    1.3960 C   0  0  2  0  0  0  0  0  0  0  0  0
    2.7700    2.6880    2.5340 C   0  0  0  0  0  0  0  0  0  0  0  0
    4.3070    3.6200    0.7950 C   0  0  0  0  0  0  0  0  0  0  0  0
    4.8540    1.5510    1.9820 C   0  0  0  0  0  0  0  0  0  0  0  0
  1  2  1  0
  2  3  1  0
  3  4  2  0
  3  5  1  0
  5  6  2  3
  5 15  1  0
  6  7  1  0
  6 11  1  0
  7  8  1  0
  8  9  1  0
  9 10  1  0
 11 12  1  0
 12 13  1  0
 13 14  1  0
 15 16  1  6
 15 19  1  0
 16 17  1  0
 17 18  1  0
 19 20  1  0
 20 21  2  0
 20 22  1  0
 22 23  1  0
 23 24  1  1
 23 25  1  0
 23 26  1  0
M  CHG  1  14   1
M  END
