
     RDKit          3D

 26 26  0  0  0  0  0  0  0  0999 V2000
   -5.6230    1.8170    0.2160 N   0  0  0  0  0  0  0  0  0  0  0  0
   -5.2390    0.4290   -0.0650 C   0  0  2  0  0  0  0  0  0  0  0  0
   -5.6490   -0.4600    1.0740 C   0  0  0  0  0  0  0  0  0  0  0  0
   -5.0600   -0.0360    2.2600 O   0  0  0  0  0  0  0  0  0  0  0  0
   -3.7450    0.3720   -0.2450 C   0  0  1  0  0  0  0  0  0  0  0  0
   -3.4520    1.3530   -1.4270 C   0  0  0  0  0  0  0  0  0  0  0  0
   -2.0890    1.3730   -1.6990 O   0  0  0  0  0  0  0  0  0  0  0  0
   -3.0970    0.7550    0.8550 O   0  0  0  0  0  0  0  0  0  0  0  0
   -2.0290    0.1230    1.3740 C   0  0  0  0  0  0  0  0  0  0  0  0
   -2.1080   -1.3200    1.7100 C   0  0  0  0  0  0  0  0  0  0  0  0
   -2.3410   -2.2120    0.7880 O   0  0  0  0  0  0  0  0  0  0  0  0
   -1.6310   -2.7320   -0.1750 C   0  0  0  0  0  0  0  0  0  0  0  0
   -0.9990   -2.0090   -1.2990 C   0  0  0  0  0  0  0  0  0  0  0  0
   -0.0680   -1.0460   -1.0720 O   0  0  0  0  0  0  0  0  0  0  0  0
    1.1470   -1.0030   -0.4880 C   0  0  0  0  0  0  0  0  0  0  0  0
    1.7740    0.2500   -0.4710 C   0  0  0  0  0  0  0  0  0  0  0  0
    3.0020    0.4820    0.0750 C   0  0  0  0  0  0  0  0  0  0  0  0
    3.6960   -0.5520    0.6520 C   0  0  0  0  0  0  0  0  0  0  0  0
    4.9810   -0.4010    1.2280 N   0  0  0  0  0  0  0  0  0  0  0  0
    5.7590    0.7800    1.0310 C   0  0  0  0  0  0  0  0  0  0  0  0
    6.2400    0.9760   -0.3820 C   0  0  0  0  0  0  0  0  0  0  0  0
    7.0190    2.2150   -0.4810 N   0  0  0  0  0  0  0  0  0  0  0  0
    7.5630    2.4170   -2.1280 S   0  0  0  0  0  0  0  0  0  0  0  0
    9.0630    2.6650   -2.1950 O   0  0  0  0  0  0  0  0  0  0  0  0
    3.1070   -1.8170    0.6570 C   0  0  0  0  0  0  0  0  0  0  0  0
    1.8520   -2.0190    0.0900 C   0  0  0  0  0  0  0  0  0  0  0  0
  2  1  1  1
  2  3  1  0
  2  5  1  0
  3  4  1  0
  5  6  1  6
  5  8  1  0
  6  7  1  0
  8  9  1  0
  9 10  1  0
 10 11  1  0
 11 12  1  0
 12 13  1  0
 13 14  1  0
 14 15  1  0
 15 16  2  0
 15 26  1  0
 16 17  1  0
 17 18  2  0
 18 19  1  0
 18 25  1  0
 19 20  1  0
 20 21  1  0
 21 22  1  0
 22 23  1  0
 23 24  2  0
 25 26  2  0
M  CHG  1   1   1
M  END
