
     RDKit          3D

 26 26  0  0  0  0  0  0  0  0999 V2000
   -3.7430    4.9220   -0.0020 C   0  0  0  0  0  0  0  0  0  0  0  0
   -4.6060    3.8120    0.5500 C   0  0  0  0  0  0  0  0  0  0  0  0
   -4.1300    2.5040    0.1610 N   0  0  0  0  0  0  0  0  0  0  0  0
   -2.8440    2.0750    0.5220 C   0  0  0  0  0  0  0  0  0  0  0  0
   -2.1080    2.8500    1.1940 O   0  0  0  0  0  0  0  0  0  0  0  0
   -2.2940    0.7440    0.1540 C   0  0  2  0  0  0  0  0  0  0  0  0
   -3.1660   -0.3820    0.6600 C   0  0  0  0  0  0  0  0  0  0  0  0
   -2.6480   -1.5730    0.2180 O   0  0  0  0  0  0  0  0  0  0  0  0
   -3.3730   -2.6790    0.6260 C   0  0  1  0  0  0  0  0  0  0  0  0
   -3.7350   -3.4720   -0.6120 C   0  0  0  0  0  0  0  0  0  0  0  0
   -4.3330   -4.6540   -0.1710 O   0  0  0  0  0  0  0  0  0  0  0  0
   -3.1280   -5.2110    0.9540 S   0  0  0  0  0  0  0  0  0  0  0  0
   -2.3830   -3.5850    1.3730 C   0  0  0  0  0  0  0  0  0  0  0  0
   -0.9820    0.5790    0.6470 O   0  0  0  0  0  0  0  0  0  0  0  0
    0.0860    0.4100   -0.2590 C   0  0  0  0  0  0  0  0  0  0  0  0
   -0.1450    0.4100   -1.4860 O   0  0  0  0  0  0  0  0  0  0  0  0
    1.4110    0.2430    0.2010 N   0  0  0  0  0  0  0  0  0  0  0  0
    2.5620    0.0550   -0.6410 C   0  0  2  0  0  0  0  0  0  0  0  0
    2.6910    1.2070   -1.6430 C   0  0  0  0  0  0  0  0  0  0  0  0
    3.8890    1.0470   -2.5480 C   0  0  0  0  0  0  0  0  0  0  0  0
    2.6730   -1.2890   -1.2480 C   0  0  0  0  0  0  0  0  0  0  0  0
    1.6420   -1.7430   -2.1090 N   0  0  0  0  0  0  0  0  0  0  0  0
    3.7970    0.2700    0.2690 C   0  0  0  0  0  0  0  0  0  0  0  0
    3.8780   -0.6810    1.4020 C   0  0  0  0  0  0  0  0  0  0  0  0
    5.1370   -0.3850    2.2440 C   0  0  0  0  0  0  0  0  0  0  0  0
    5.2110   -1.2720    3.2990 O   0  0  0  0  0  0  0  0  0  0  0  0
  1  2  1  0
  2  3  1  0
  3  4  1  0
  4  5  2  0
  4  6  1  0
  6  7  1  1
  6 14  1  0
  7  8  1  0
  9  8  1  6
  9 10  1  0
  9 13  1  0
 10 11  1  0
 11 12  1  0
 12 13  1  0
 14 15  1  0
 15 16  2  0
 15 17  1  0
 17 18  1  0
 18 19  1  6
 18 21  1  0
 18 23  1  0
 19 20  1  0
 21 22  1  0
 23 24  1  0
 24 25  1  0
 25 26  1  0
M  CHG  1  22   1
M  END
