
     RDKit          3D

 26 26  0  0  0  0  0  0  0  0999 V2000
   -6.6400    0.5990   -0.1480 N   0  0  0  0  0  0  0  0  0  0  0  0
   -5.4620   -0.1120    0.3740 C   0  0  1  0  0  0  0  0  0  0  0  0
   -5.2210    0.4300    1.7570 C   0  0  0  0  0  0  0  0  0  0  0  0
   -4.9800    1.7800    1.7820 O   0  0  0  0  0  0  0  0  0  0  0  0
   -5.8540   -1.5740    0.4260 C   0  0  0  0  0  0  0  0  0  0  0  0
   -4.9270   -2.5070    1.6420 S   0  0  0  0  0  0  0  0  0  0  0  0
   -3.1680   -2.4020    1.3250 C   0  0  0  0  0  0  0  0  0  0  0  0
   -2.8580   -1.8420   -0.0670 C   0  0  1  0  0  0  0  0  0  0  0  0
   -3.5250   -2.5130   -1.0620 O   0  0  0  0  0  0  0  0  0  0  0  0
   -3.0050   -0.3510   -0.1160 C   0  0  1  0  0  0  0  0  0  0  0  0
   -2.0300    0.1500   -1.0690 N   0  0  0  0  0  0  0  0  0  0  0  0
   -0.9460    0.9890   -0.6760 C   0  0  0  0  0  0  0  0  0  0  0  0
   -0.8680    1.2780    0.5370 O   0  0  0  0  0  0  0  0  0  0  0  0
   -0.0340    1.4390   -1.6620 N   0  0  0  0  0  0  0  0  0  0  0  0
    1.0640    2.2820   -1.2930 C   0  0  0  0  0  0  0  0  0  0  0  0
    1.9990    1.6510   -0.2950 C   0  0  0  0  0  0  0  0  0  0  0  0
    2.5860    0.3870   -0.8590 C   0  0  0  0  0  0  0  0  0  0  0  0
    3.3080    0.6090   -2.0240 O   0  0  0  0  0  0  0  0  0  0  0  0
    4.3640    1.4670   -1.8560 C   0  0  0  0  0  0  0  0  0  0  0  0
    5.3690    0.9360   -0.8260 C   0  0  0  0  0  0  0  0  0  0  0  0
    5.8840   -0.2550   -1.1880 O   0  0  0  0  0  0  0  0  0  0  0  0
    6.7910   -0.9230   -0.4690 C   0  0  0  0  0  0  0  0  0  0  0  0
    6.4670   -1.4960    0.8490 C   0  0  0  0  0  0  0  0  0  0  0  0
    6.0180   -0.6350    1.9550 C   0  0  0  0  0  0  0  0  0  0  0  0
    6.8740    0.3970    2.2940 O   0  0  0  0  0  0  0  0  0  0  0  0
   -4.3520    0.1110   -0.5760 C   0  0  0  0  0  0  0  0  0  0  0  0
  2  1  1  6
  2  3  1  0
  2  5  1  0
  2 26  1  0
  3  4  1  0
  5  6  1  0
  6  7  1  0
  7  8  1  0
  8  9  1  6
  8 10  1  0
 10 11  1  6
 10 26  1  0
 11 12  1  0
 12 13  2  0
 12 14  1  0
 14 15  1  0
 15 16  1  0
 16 17  1  0
 17 18  1  0
 18 19  1  0
 19 20  1  0
 20 21  1  0
 21 22  1  0
 22 23  1  0
 23 24  1  0
 24 25  1  0
M  CHG  1   1   1
M  END
