
     RDKit          3D

 26 25  0  0  0  0  0  0  0  0999 V2000
   -5.0590   -2.7140    1.1850 C   0  0  0  0  0  0  0  0  0  0  0  0
   -5.5860   -1.5350    1.1910 C   0  0  0  0  0  0  0  0  0  0  0  0
   -4.8960   -0.2370    1.0160 C   0  0  0  0  0  0  0  0  0  0  0  0
   -5.6510    0.8190    1.0500 C   0  0  0  0  0  0  0  0  0  0  0  0
   -5.3090    2.2310    0.9160 C   0  0  0  0  0  0  0  0  0  0  0  0
   -3.4490   -0.2710    0.8590 C   0  0  2  0  0  0  0  0  0  0  0  0
   -3.2110   -1.3470   -0.0780 O   0  0  0  0  0  0  0  0  0  0  0  0
   -2.7300   -0.6850    2.1250 C   0  0  0  0  0  0  0  0  0  0  0  0
   -2.8710    0.3480    3.1520 N   0  0  0  0  0  0  0  0  0  0  0  0
   -2.8090    0.9040    0.1950 C   0  0  0  0  0  0  0  0  0  0  0  0
   -1.3840    0.6250   -0.0740 N   0  0  0  0  0  0  0  0  0  0  0  0
   -0.5860    1.6110   -0.7000 C   0  0  0  0  0  0  0  0  0  0  0  0
   -1.0970    2.7320   -1.0280 O   0  0  0  0  0  0  0  0  0  0  0  0
    0.8220    1.3230   -0.9590 C   0  0  0  0  0  0  0  0  0  0  0  0
    1.2810    0.2260   -0.6190 O   0  0  0  0  0  0  0  0  0  0  0  0
    1.6200    2.2830   -1.5820 N   0  0  0  0  0  0  0  0  0  0  0  0
    3.0020    2.1410   -1.9010 C   0  0  0  0  0  0  0  0  0  0  0  0
    3.3860    1.0550   -2.8380 C   0  0  0  0  0  0  0  0  0  0  0  0
    3.1360   -0.6200   -2.4360 S   0  0  0  0  0  0  0  0  0  0  0  0
    4.1580   -1.4500   -1.2670 C   0  0  2  0  0  0  0  0  0  0  0  0
    4.0890   -1.0930    0.1660 C   0  0  0  0  0  0  0  0  0  0  0  0
    4.3940    0.1740    0.5390 O   0  0  0  0  0  0  0  0  0  0  0  0
    5.6150   -1.4910   -1.7320 C   0  0  0  0  0  0  0  0  0  0  0  0
    5.9550   -0.9610   -2.8160 O   0  0  0  0  0  0  0  0  0  0  0  0
    6.5770   -2.1140   -0.9570 O   0  0  0  0  0  0  0  0  0  0  0  0
    7.9390   -2.1870   -1.3280 C   0  0  0  0  0  0  0  0  0  0  0  0
  1  2  2  0
  2  3  1  0
  3  4  2  3
  3  6  1  0
  4  5  1  0
  6  7  1  6
  6  8  1  0
  6 10  1  0
  8  9  1  0
 10 11  1  0
 11 12  1  0
 12 13  2  0
 12 14  1  0
 14 15  2  0
 14 16  1  0
 16 17  1  0
 17 18  1  0
 18 19  1  0
 19 20  1  0
 20 21  1  1
 20 23  1  0
 21 22  1  0
 23 24  2  0
 23 25  1  0
 25 26  1  0
M  CHG  1   9   1
M  END
