
     RDKit          3D

 28 30  0  0  0  0  0  0  0  0999 V2000
   -2.8990    3.3980    1.6630 C   0  0  0  0  0  0  0  0  0  0  0  0
   -3.9710    2.8440    1.2210 C   0  0  0  0  0  0  0  0  0  0  0  0
   -4.2180    1.5890    0.5530 C   0  0  0  0  0  0  0  0  0  0  0  0
   -5.5250    1.3600    0.2910 C   0  0  0  0  0  0  0  0  0  0  0  0
   -6.2420    0.2490   -0.3510 C   0  0  0  0  0  0  0  0  0  0  0  0
   -5.9540   -1.0420   -0.4720 C   0  0  0  0  0  0  0  0  0  0  0  0
   -4.8590   -1.9060   -0.0490 C   0  0  0  0  0  0  0  0  0  0  0  0
   -3.5480   -1.7130    0.1580 C   0  0  0  0  0  0  0  0  0  0  0  0
   -2.8130   -2.9120    0.5920 C   0  0  0  0  0  0  0  0  0  0  0  0
   -2.0400   -2.5720    2.1830 Cl  0  0  0  0  0  0  0  0  0  0  0  0
   -2.6490   -0.5310    0.0520 C   0  0  0  0  0  0  0  0  0  0  0  0
   -1.3660   -0.7240   -0.2710 C   0  0  0  0  0  0  0  0  0  0  0  0
   -0.5440    0.3230   -0.4130 C   0  0  0  0  0  0  0  0  0  0  0  0
    0.8670    0.4350   -0.7380 N   0  0  0  0  0  0  0  0  0  0  0  0
    1.6740   -0.6850   -0.9680 C   0  0  0  0  0  0  0  0  0  0  0  0
    1.2170   -1.8390   -0.9050 O   0  0  0  0  0  0  0  0  0  0  0  0
    3.1090   -0.5010   -1.2960 C   0  0  0  0  0  0  0  0  0  0  0  0
    4.0360   -0.5060    0.2710 S   0  0  0  0  0  0  0  0  0  0  0  0
    5.7550   -0.2850   -0.1280 C   0  0  0  0  0  0  0  0  0  0  0  0
    6.5410   -1.3450   -0.3620 N   0  0  0  0  0  0  0  0  0  0  0  0
    7.8530   -1.2120   -0.6690 C   0  0  0  0  0  0  0  0  0  0  0  0
    8.6160   -2.1690   -0.8920 O   0  0  0  0  0  0  0  0  0  0  0  0
    8.3400    0.0350   -0.7300 N   0  0  0  0  0  0  0  0  0  0  0  0
    7.5710    1.1140   -0.5000 C   0  0  0  0  0  0  0  0  0  0  0  0
    8.0420    2.2810   -0.5620 O   0  0  0  0  0  0  0  0  0  0  0  0
    6.2500    0.9580   -0.1930 N   0  0  0  0  0  0  0  0  0  0  0  0
   -1.5580    1.7250   -0.0890 S   0  0  0  0  0  0  0  0  0  0  0  0
   -3.0450    0.7890    0.2240 C   0  0  0  0  0  0  0  0  0  0  0  0
  1  2  2  0
  2  3  1  0
  3  4  2  0
  3 28  1  0
  4  5  1  0
  5  6  2  0
  6  7  1  0
  7  8  2  0
  8  9  1  0
  8 11  1  0
  9 10  1  0
 11 12  1  0
 11 28  2  0
 12 13  2  0
 13 14  1  0
 13 27  1  0
 14 15  1  0
 15 16  2  0
 15 17  1  0
 17 18  1  0
 18 19  1  0
 19 20  2  0
 19 26  1  0
 20 21  1  0
 21 22  2  0
 21 23  1  0
 23 24  1  0
 24 25  2  0
 24 26  1  0
 27 28  1  0
M  END
