
     RDKit          3D

 28 31  0  0  0  0  0  0  0  0999 V2000
    1.4400   -3.7370   -0.3480 C   0  0  0  0  0  0  0  0  0  0  0  0
    0.5930   -2.5310   -0.1580 C   0  0  0  0  0  0  0  0  0  0  0  0
   -0.7470   -2.3350   -0.2900 N   0  0  0  0  0  0  0  0  0  0  0  0
   -1.0320   -1.1270    0.0730 C   0  0  0  0  0  0  0  0  0  0  0  0
    0.0330   -0.4380    0.4520 C   0  0  0  0  0  0  0  0  0  0  0  0
    1.2070   -1.3060    0.3350 C   0  0  0  0  0  0  0  0  0  0  0  0
    2.7040   -0.7310    0.3090 S   0  0  1  0  0  0  0  0  0  0  0  0
    2.7220   -0.3590   -1.4540 O   0  0  0  0  0  0  0  0  0  0  0  0
    2.3780    0.9790    0.5260 O   0  0  0  0  0  0  0  0  0  0  0  0
    4.2010   -0.6210    0.4250 N   0  0  0  0  0  0  0  0  0  0  0  0
    5.3540   -0.6610    1.1880 C   0  0  0  0  0  0  0  0  0  0  0  0
    6.2810    0.2790    0.3190 C   0  0  0  0  0  0  0  0  0  0  0  0
    6.9420    1.2430    0.7170 N   0  0  0  0  0  0  0  0  0  0  0  0
    7.2760    2.2280    0.0180 C   0  0  0  0  0  0  0  0  0  0  0  0
    6.9390    2.3570   -1.3380 C   0  0  0  0  0  0  0  0  0  0  0  0
    6.0470    0.6680   -1.3610 S   0  0  0  0  0  0  0  0  0  0  0  0
   -0.2900    0.9160    0.8200 C   0  0  0  0  0  0  0  0  0  0  0  0
    0.4960    1.7420    1.2590 O   0  0  0  0  0  0  0  0  0  0  0  0
   -1.7040    1.0220    0.6060 C   0  0  0  0  0  0  0  0  0  0  0  0
   -2.2390   -0.1560    0.1490 C   0  0  0  0  0  0  0  0  0  0  0  0
   -3.5600   -0.2780   -0.2270 C   0  0  0  0  0  0  0  0  0  0  0  0
   -4.2420    0.8760   -0.1450 C   0  0  0  0  0  0  0  0  0  0  0  0
   -5.6600    0.8300   -0.7560 C   0  0  2  0  0  0  0  0  0  0  0  0
   -6.5110    1.9330   -0.2430 C   0  0  0  0  0  0  0  0  0  0  0  0
   -6.2240   -0.5180   -0.3950 C   0  0  0  0  0  0  0  0  0  0  0  0
   -3.7790    2.0360    0.2810 N   0  0  0  0  0  0  0  0  0  0  0  0
   -2.4610    2.1850    0.7070 C   0  0  0  0  0  0  0  0  0  0  0  0
   -1.7860    3.6400    1.2840 Cl  0  0  0  0  0  0  0  0  0  0  0  0
  1  2  1  0
  2  3  1  0
  2  6  2  0
  3  4  1  0
  4  5  2  0
  4 20  1  0
  5  6  1  0
  5 17  1  0
  6  7  1  0
  7  8  2  0
  7  9  2  0
  7 10  1  0
 10 11  1  0
 11 12  1  0
 12 13  2  0
 12 16  1  0
 13 14  1  0
 14 15  2  0
 15 16  1  0
 17 18  2  0
 17 19  1  0
 19 20  2  0
 19 27  1  0
 20 21  1  0
 21 22  2  0
 22 23  1  0
 22 26  1  0
 23 24  1  1
 23 25  1  0
 26 27  2  0
 27 28  1  0
M  END
