
     RDKit          3D

 28 31  0  0  0  0  0  0  0  0999 V2000
    9.5790   -0.3330   -0.1150 C   0  0  0  0  0  0  0  0  0  0  0  0
    8.3860    0.3950   -0.4300 O   0  0  0  0  0  0  0  0  0  0  0  0
    7.1430   -0.1300   -0.1420 C   0  0  0  0  0  0  0  0  0  0  0  0
    7.0820   -1.2560    0.3990 O   0  0  0  0  0  0  0  0  0  0  0  0
    5.9140    0.5760   -0.4460 C   0  0  0  0  0  0  0  0  0  0  0  0
    5.5470    1.5920   -0.9230 N   0  0  0  0  0  0  0  0  0  0  0  0
    4.3120    1.9620   -1.0650 N   0  0  0  0  0  0  0  0  0  0  0  0
    3.3710    1.3230   -0.7320 C   0  0  0  0  0  0  0  0  0  0  0  0
    1.9180    1.3550   -0.7050 N   0  0  0  0  0  0  0  0  0  0  0  0
    1.1720    0.2660   -0.1620 C   0  0  0  0  0  0  0  0  0  0  0  0
    1.7780   -0.7010    0.2840 O   0  0  0  0  0  0  0  0  0  0  0  0
   -0.2460    0.2910   -0.1340 N   0  0  0  0  0  0  0  0  0  0  0  0
   -1.1010   -0.7020    0.3670 C   0  0  0  0  0  0  0  0  0  0  0  0
   -0.6030   -1.8580    0.9070 C   0  0  0  0  0  0  0  0  0  0  0  0
   -1.4500   -2.8600    1.4120 C   0  0  0  0  0  0  0  0  0  0  0  0
   -2.7960   -2.6360    1.3420 C   0  0  0  0  0  0  0  0  0  0  0  0
   -3.3460   -1.4880    0.8080 C   0  0  0  0  0  0  0  0  0  0  0  0
   -4.7130   -1.3150    0.7630 C   0  0  0  0  0  0  0  0  0  0  0  0
   -5.2710   -0.1710    0.2310 C   0  0  0  0  0  0  0  0  0  0  0  0
   -4.4690    0.8270   -0.2700 C   0  0  0  0  0  0  0  0  0  0  0  0
   -3.0830    0.6050   -0.2040 C   0  0  0  0  0  0  0  0  0  0  0  0
   -2.4920   -0.5180    0.3180 C   0  0  0  0  0  0  0  0  0  0  0  0
   -4.8760    1.9420   -0.7930 C   0  0  0  0  0  0  0  0  0  0  0  0
   -6.2160    2.4790   -1.0130 C   0  0  0  0  0  0  0  0  0  0  0  0
   -7.4560    1.3390   -0.4310 S   0  0  0  0  0  0  0  0  0  0  0  0
   -6.6020   -0.0780    0.2240 C   0  0  0  0  0  0  0  0  0  0  0  0
   -7.5510   -1.3740    0.8730 Cl  0  0  0  0  0  0  0  0  0  0  0  0
    4.2530   -0.1940   -0.0300 S   0  0  0  0  0  0  0  0  0  0  0  0
  1  2  1  0
  2  3  1  0
  3  4  2  0
  3  5  1  0
  5  6  2  0
  5 28  1  0
  6  7  1  0
  7  8  2  0
  8  9  1  0
  8 28  1  0
  9 10  1  0
 10 11  2  0
 10 12  1  0
 12 13  1  0
 13 14  2  0
 13 22  1  0
 14 15  1  0
 15 16  2  0
 16 17  1  0
 17 18  2  0
 17 22  1  0
 18 19  1  0
 19 20  1  0
 19 26  2  0
 20 21  1  0
 20 23  2  0
 21 22  2  0
 23 24  1  0
 24 25  1  0
 25 26  1  0
 26 27  1  0
M  END
