
     RDKit          3D

 28 30  0  0  0  0  0  0  0  0999 V2000
    5.9740    2.6100   -0.2850 C   0  0  0  0  0  0  0  0  0  0  0  0
    4.7960    2.9460    0.5630 C   0  0  0  0  0  0  0  0  0  0  0  0
    3.6890    2.1990    0.4730 C   0  0  0  0  0  0  0  0  0  0  0  0
    3.6150    1.0670   -0.4350 C   0  0  0  0  0  0  0  0  0  0  0  0
    2.5250    0.3580   -0.4990 C   0  0  0  0  0  0  0  0  0  0  0  0
    1.0920    0.6970    0.4780 S   0  0  2  0  0  0  0  0  0  0  0  0
    0.5490    2.0350    0.2110 O   0  0  0  0  0  0  0  0  0  0  0  0
    1.6050    0.6410    1.9190 O   0  0  0  0  0  0  0  0  0  0  0  0
    0.0100   -0.6160    0.2490 N   0  0  0  0  0  0  0  0  0  0  0  0
   -0.4690   -0.8920   -0.9580 C   0  0  0  0  0  0  0  0  0  0  0  0
   -0.2040    0.1980   -2.3280 S   0  0  0  0  0  0  0  0  0  0  0  0
   -1.6670    1.2040   -2.5910 C   0  0  0  0  0  0  0  0  0  0  0  0
   -2.0160    2.1670   -1.5550 C   0  0  0  0  0  0  0  0  0  0  0  0
   -1.6540    3.4970   -1.5440 C   0  0  0  0  0  0  0  0  0  0  0  0
   -2.1730    4.0600   -0.4030 C   0  0  0  0  0  0  0  0  0  0  0  0
   -2.8580    3.0670    0.2870 C   0  0  0  0  0  0  0  0  0  0  0  0
   -3.6840    3.3100    1.7970 Cl  0  0  0  0  0  0  0  0  0  0  0  0
   -2.7330    1.9490   -0.4470 N   0  0  0  0  0  0  0  0  0  0  0  0
   -1.2550   -2.0060   -1.1000 N   0  0  0  0  0  0  0  0  0  0  0  0
   -1.5470   -2.8080   -0.0630 C   0  0  0  0  0  0  0  0  0  0  0  0
   -2.3540   -3.9360   -0.2490 C   0  0  0  0  0  0  0  0  0  0  0  0
   -2.6630   -4.7640    0.8020 C   0  0  0  0  0  0  0  0  0  0  0  0
   -3.4850   -5.9190    0.6370 N   0  0  0  0  0  0  0  0  0  0  0  0
   -2.1340   -4.4170    2.0310 C   0  0  0  0  0  0  0  0  0  0  0  0
   -1.3420   -3.3240    2.2510 C   0  0  0  0  0  0  0  0  0  0  0  0
   -1.0400   -2.4980    1.1800 C   0  0  0  0  0  0  0  0  0  0  0  0
   -0.2520   -1.3860    1.3320 C   0  0  0  0  0  0  0  0  0  0  0  0
    0.1940   -1.1340    2.4790 O   0  0  0  0  0  0  0  0  0  0  0  0
  1  2  1  0
  2  3  2  3
  3  4  1  0
  4  5  2  3
  5  6  1  0
  6  7  2  0
  6  8  2  0
  6  9  1  1
  9 10  1  0
  9 27  1  0
 10 11  1  0
 10 19  2  0
 11 12  1  0
 12 13  1  0
 13 14  2  0
 13 18  1  0
 14 15  1  0
 15 16  2  0
 16 17  1  0
 16 18  1  0
 19 20  1  0
 20 21  2  0
 20 26  1  0
 21 22  1  0
 22 23  1  0
 22 24  2  0
 24 25  1  0
 25 26  2  0
 26 27  1  0
 27 28  2  0
M  END
