
     RDKit          3D

 28 30  0  0  0  0  0  0  0  0999 V2000
   -0.5900   -6.0870   -3.9380 C   0  0  0  0  0  0  0  0  0  0  0  0
   -0.8740   -5.4780   -2.9780 C   0  0  0  0  0  0  0  0  0  0  0  0
   -1.8000   -4.4880   -2.4970 N   0  0  0  0  0  0  0  0  0  0  0  0
   -1.2400   -3.2050   -2.0610 C   0  0  0  0  0  0  0  0  0  0  0  0
    0.3660   -2.5900   -2.4560 S   0  0  0  0  0  0  0  0  0  0  0  0
    0.2440   -1.1330   -1.3000 C   0  0  0  0  0  0  0  0  0  0  0  0
    1.3090   -0.2030   -1.2580 C   0  0  0  0  0  0  0  0  0  0  0  0
    2.0350    0.3900   -1.8760 O   0  0  0  0  0  0  0  0  0  0  0  0
    1.6130    0.0100    0.4870 N   0  0  0  0  0  0  0  0  0  0  0  0
    2.5070    1.1970    0.3700 C   0  0  0  0  0  0  0  0  0  0  0  0
    2.6310    1.9400   -0.5310 O   0  0  0  0  0  0  0  0  0  0  0  0
    3.2870    1.3040    1.6500 N   0  0  0  0  0  0  0  0  0  0  0  0
    4.2330    2.3780    1.7530 C   0  0  0  0  0  0  0  0  0  0  0  0
    5.2990    2.3100    0.6520 C   0  0  0  0  0  0  0  0  0  0  0  0
   -1.0160   -1.2730   -0.7820 C   0  0  0  0  0  0  0  0  0  0  0  0
   -1.6290   -0.0710   -0.1020 C   0  0  0  0  0  0  0  0  0  0  0  0
   -2.9000   -0.0330    0.1200 C   0  0  0  0  0  0  0  0  0  0  0  0
   -3.5700    0.9990    0.7460 O   0  0  0  0  0  0  0  0  0  0  0  0
   -3.0290    2.1310    1.2270 C   0  0  0  0  0  0  0  0  0  0  0  0
   -3.6590    3.1420    1.8490 C   0  0  0  0  0  0  0  0  0  0  0  0
   -2.7030    4.2010    2.2220 C   0  0  0  0  0  0  0  0  0  0  0  0
   -1.4150    3.6610    1.7440 C   0  0  0  0  0  0  0  0  0  0  0  0
    0.1780    4.4190    1.9130 Cl  0  0  0  0  0  0  0  0  0  0  0  0
   -1.6320    2.4910    1.1790 C   0  0  0  0  0  0  0  0  0  0  0  0
   -0.6310    1.3060    0.3120 S   0  0  0  0  0  0  0  0  0  0  0  0
   -1.7970   -2.3250   -1.1300 C   0  0  0  0  0  0  0  0  0  0  0  0
   -2.9870   -2.7500   -0.4240 C   0  0  0  0  0  0  0  0  0  0  0  0
   -4.0040   -3.1310    0.1770 N   0  0  0  0  0  0  0  0  0  0  0  0
  1  2  2  0
  2  3  1  0
  3  4  1  0
  4  5  1  0
  4 26  2  0
  5  6  1  0
  6  7  1  0
  6 15  2  0
  7  8  2  0
  7  9  1  0
  9 10  1  0
 10 11  2  0
 10 12  1  0
 12 13  1  0
 13 14  1  0
 15 16  1  0
 15 26  1  0
 16 17  2  0
 16 25  1  0
 17 18  1  0
 18 19  1  0
 19 20  2  0
 19 24  1  0
 20 21  1  0
 21 22  1  0
 22 23  1  0
 22 24  2  0
 24 25  1  0
 26 27  1  0
 27 28  3  0
M  END
