
     RDKit          3D

 28 31  0  0  0  0  0  0  0  0999 V2000
    8.0970   -2.6350   -1.2350 C   0  0  0  0  0  0  0  0  0  0  0  0
    7.1780   -1.5930   -0.7140 C   0  0  0  0  0  0  0  0  0  0  0  0
    7.7380   -0.4880   -0.1010 C   0  0  0  0  0  0  0  0  0  0  0  0
    6.8970    0.4860    0.3870 C   0  0  0  0  0  0  0  0  0  0  0  0
    7.5670    1.9190    1.1810 Cl  0  0  0  0  0  0  0  0  0  0  0  0
    5.5480    0.4090    0.2910 C   0  0  0  0  0  0  0  0  0  0  0  0
    4.9550   -0.6780   -0.3140 C   0  0  0  0  0  0  0  0  0  0  0  0
    5.8150   -1.6710   -0.8110 C   0  0  0  0  0  0  0  0  0  0  0  0
    3.5520   -0.8150   -0.4440 N   0  0  0  0  0  0  0  0  0  0  0  0
    2.5880    0.0970    0.0050 C   0  0  0  0  0  0  0  0  0  0  0  0
    1.1200   -0.1420   -0.1820 C   0  0  0  0  0  0  0  0  0  0  0  0
    0.2930    0.9610    0.3760 C   0  0  0  0  0  0  0  0  0  0  0  0
   -1.1410    0.6380    0.1450 C   0  0  0  0  0  0  0  0  0  0  0  0
   -1.4440   -0.4390   -0.4440 O   0  0  0  0  0  0  0  0  0  0  0  0
   -2.1850    1.4780    0.5530 N   0  0  0  0  0  0  0  0  0  0  0  0
   -3.5940    1.1620    0.3270 C   0  0  0  0  0  0  0  0  0  0  0  0
   -4.6630    1.6130    0.5250 N   0  0  0  0  0  0  0  0  0  0  0  0
   -5.8300    1.1300    0.2200 C   0  0  0  0  0  0  0  0  0  0  0  0
   -5.7910   -0.1060   -0.4420 C   0  0  0  0  0  0  0  0  0  0  0  0
   -4.0090   -0.4100   -0.5330 S   0  0  0  0  0  0  0  0  0  0  0  0
   -6.9770   -0.8410   -0.8810 C   0  0  0  0  0  0  0  0  0  0  0  0
   -8.1180   -0.7500    0.1070 C   0  0  0  0  0  0  0  0  0  0  0  0
   -7.9560    0.3980    1.0630 C   0  0  0  0  0  0  0  0  0  0  0  0
   -7.2670    1.5990    0.4150 C   0  0  0  0  0  0  0  0  0  0  0  0
    2.8840    1.1960    0.6050 N   0  0  0  0  0  0  0  0  0  0  0  0
    4.4980    1.6820    0.9300 S   0  0  2  0  0  0  0  0  0  0  0  0
    4.7760    2.9210    0.1290 O   0  0  0  0  0  0  0  0  0  0  0  0
    4.7530    1.8870    2.3950 O   0  0  0  0  0  0  0  0  0  0  0  0
  1  2  1  0
  2  3  2  0
  2  8  1  0
  3  4  1  0
  4  5  1  0
  4  6  2  0
  6  7  1  0
  6 26  1  0
  7  8  2  0
  7  9  1  0
  9 10  1  0
 10 11  1  0
 10 25  2  0
 11 12  1  0
 12 13  1  0
 13 14  2  0
 13 15  1  0
 15 16  1  0
 16 17  2  0
 16 20  1  0
 17 18  1  0
 18 19  2  0
 18 24  1  0
 19 20  1  0
 19 21  1  0
 21 22  1  0
 22 23  1  0
 23 24  1  0
 26 25  1  1
 26 27  2  0
 26 28  2  0
M  END
