
     RDKit          3D

 28 30  0  0  0  0  0  0  0  0999 V2000
   -8.0890   -0.1720   -0.9960 C   0  0  0  0  0  0  0  0  0  0  0  0
   -6.7890   -0.1210   -0.2600 C   0  0  0  0  0  0  0  0  0  0  0  0
   -5.9950    0.9610   -0.3260 N   0  0  0  0  0  0  0  0  0  0  0  0
   -4.8170    1.0420    0.3230 C   0  0  0  0  0  0  0  0  0  0  0  0
   -3.9530    2.2660    0.2300 C   0  0  0  0  0  0  0  0  0  0  0  0
   -4.5420    3.2200   -0.5830 O   0  0  0  0  0  0  0  0  0  0  0  0
   -4.3720   -0.0100    1.0990 C   0  0  0  0  0  0  0  0  0  0  0  0
   -3.1190    0.0780    1.7880 N   0  0  0  0  0  0  0  0  0  0  0  0
   -1.9050   -0.3400    1.2180 C   0  0  0  0  0  0  0  0  0  0  0  0
   -1.7540   -1.2280    0.3400 N   0  0  0  0  0  0  0  0  0  0  0  0
   -0.4930   -1.5300   -0.1250 C   0  0  0  0  0  0  0  0  0  0  0  0
   -0.2690   -2.4230   -1.0170 O   0  0  0  0  0  0  0  0  0  0  0  0
    0.5950   -0.7660    0.4640 C   0  0  0  0  0  0  0  0  0  0  0  0
    1.8770   -0.7680    0.2850 C   0  0  0  0  0  0  0  0  0  0  0  0
    2.5740   -1.8700   -0.8780 Cl  0  0  0  0  0  0  0  0  0  0  0  0
    2.7510    0.1370    1.0550 C   0  0  0  0  0  0  0  0  0  0  0  0
    3.4850    1.0980    0.1970 C   0  0  0  0  0  0  0  0  0  0  0  0
    4.3910    0.4190   -0.8220 C   0  0  0  0  0  0  0  0  0  0  0  0
    3.9590    0.3960   -2.1400 C   0  0  0  0  0  0  0  0  0  0  0  0
    5.2700   -0.4680   -3.0600 S   0  0  0  0  0  0  0  0  0  0  0  0
    6.3030   -0.7230   -1.5360 C   0  0  0  0  0  0  0  0  0  0  0  0
    7.6180   -1.4180   -1.5710 C   0  0  0  0  0  0  0  0  0  0  0  0
    5.5780   -0.1530   -0.5440 C   0  0  0  0  0  0  0  0  0  0  0  0
    6.1680   -0.1940    0.8780 C   0  0  0  0  0  0  0  0  0  0  0  0
   -0.2820    0.2980    1.6140 S   0  0  0  0  0  0  0  0  0  0  0  0
   -5.1860   -1.1210    1.1680 C   0  0  0  0  0  0  0  0  0  0  0  0
   -4.7970   -2.0890    1.8700 O   0  0  0  0  0  0  0  0  0  0  0  0
   -6.3690   -1.1530    0.4910 N   0  0  0  0  0  0  0  0  0  0  0  0
  1  2  1  0
  2  3  2  0
  2 28  1  0
  3  4  1  0
  4  5  1  0
  4  7  2  0
  5  6  1  0
  7  8  1  0
  7 26  1  0
  8  9  1  0
  9 10  2  0
  9 25  1  0
 10 11  1  0
 11 12  2  0
 11 13  1  0
 13 14  2  3
 13 25  1  0
 14 15  1  0
 14 16  1  0
 16 17  1  0
 17 18  1  0
 18 19  2  0
 18 23  1  0
 19 20  1  0
 20 21  1  0
 21 22  1  0
 21 23  2  0
 23 24  1  0
 26 27  2  0
 26 28  1  0
M  END
