
     RDKit          3D

 19 20  0  0  0  0  0  0  0  0999 V2000
    6.8230    0.9670    0.2180 N   0  0  0  0  0  0  0  0  0  0  0  0
    6.1490   -0.6130    0.2550 S   0  0  1  0  0  0  0  0  0  0  0  0
    6.8730   -1.4870   -0.7070 O   0  0  0  0  0  0  0  0  0  0  0  0
    6.3510   -1.1770    1.6400 O   0  0  0  0  0  0  0  0  0  0  0  0
    4.4510   -0.5340   -0.1520 C   0  0  0  0  0  0  0  0  0  0  0  0
    3.9820   -0.6370   -1.4370 C   0  0  0  0  0  0  0  0  0  0  0  0
    2.6280   -0.5660   -1.6800 C   0  0  0  0  0  0  0  0  0  0  0  0
    1.6910   -0.3900   -0.6650 C   0  0  0  0  0  0  0  0  0  0  0  0
    0.3440   -0.3310   -1.0100 N   0  0  0  0  0  0  0  0  0  0  0  0
   -0.7420   -0.1360   -0.1330 C   0  0  0  0  0  0  0  0  0  0  0  0
   -0.5600    0.0050    1.0780 O   0  0  0  0  0  0  0  0  0  0  0  0
   -2.0980   -0.0930   -0.5920 N   0  0  0  0  0  0  0  0  0  0  0  0
   -3.2240    0.1070    0.2970 C   0  0  1  0  0  0  0  0  0  0  0  0
   -3.8990    1.3970   -0.1420 C   0  0  0  0  0  0  0  0  0  0  0  0
   -5.3460    1.2710    0.2810 C   0  0  0  0  0  0  0  0  0  0  0  0
   -5.6180   -0.1900    0.0330 C   0  0  0  0  0  0  0  0  0  0  0  0
   -4.3110   -0.9130    0.0740 C   0  0  0  0  0  0  0  0  0  0  0  0
    2.1800   -0.2900    0.5960 C   0  0  0  0  0  0  0  0  0  0  0  0
    3.5490   -0.3600    0.8710 C   0  0  0  0  0  0  0  0  0  0  0  0
  2  1  1  1
  2  3  2  0
  2  4  2  0
  2  5  1  0
  5  6  2  0
  5 19  1  0
  6  7  1  0
  7  8  2  0
  8  9  1  0
  8 18  1  0
  9 10  1  0
 10 11  2  0
 10 12  1  0
 13 12  1  6
 13 14  1  0
 13 17  1  0
 14 15  1  0
 15 16  1  0
 16 17  1  0
 18 19  2  0
M  END
