
     RDKit          3D

 24 25  0  0  0  0  0  0  0  0999 V2000
    5.6410    0.9760    0.6770 C   0  0  0  0  0  0  0  0  0  0  0  0
    4.5620    1.5700   -0.1080 C   0  0  0  0  0  0  0  0  0  0  0  0
    3.3470    1.3860   -0.2880 C   0  0  0  0  0  0  0  0  0  0  0  0
    2.2970    0.4730    0.1790 C   0  0  0  0  0  0  0  0  0  0  0  0
    1.1290    0.7420   -0.3620 C   0  0  0  0  0  0  0  0  0  0  0  0
   -0.1210    0.1100   -0.1820 C   0  0  0  0  0  0  0  0  0  0  0  0
   -1.2900    0.4900   -0.8120 C   0  0  0  0  0  0  0  0  0  0  0  0
   -1.2380    1.5960   -1.7060 C   0  0  0  0  0  0  0  0  0  0  0  0
   -1.9250    2.3210   -2.4850 C   0  0  0  0  0  0  0  0  0  0  0  0
   -1.0090    3.4400   -3.1630 C   0  0  0  0  0  0  0  0  0  0  0  0
   -3.2380    2.4540   -2.9340 C   0  0  0  0  0  0  0  0  0  0  0  0
   -4.3950    1.7390   -2.6340 N   0  0  0  0  0  0  0  0  0  0  0  0
   -3.5010    3.4260   -3.8140 O   0  0  0  0  0  0  0  0  0  0  0  0
   -2.4620   -0.2950   -0.4940 C   0  0  0  0  0  0  0  0  0  0  0  0
   -3.6030   -0.1200   -0.9500 O   0  0  0  0  0  0  0  0  0  0  0  0
   -2.4180   -1.4110    0.4250 N   0  0  0  0  0  0  0  0  0  0  0  0
   -3.6230   -2.1630    0.7070 C   0  0  2  0  0  0  0  0  0  0  0  0
   -3.8350   -2.8360    1.9950 C   0  0  0  0  0  0  0  0  0  0  0  0
   -3.5280   -3.6780    0.7540 C   0  0  0  0  0  0  0  0  0  0  0  0
    2.5480   -0.5960    1.1320 C   0  0  0  0  0  0  0  0  0  0  0  0
    3.7360   -0.7890    1.6170 N   0  0  0  0  0  0  0  0  0  0  0  0
    3.8120   -1.8500    2.5160 C   0  0  0  0  0  0  0  0  0  0  0  0
    2.4450   -2.3680    2.5670 C   0  0  0  0  0  0  0  0  0  0  0  0
    1.7160   -1.6000    1.7320 C   0  0  0  0  0  0  0  0  0  0  0  0
  1  2  1  0
  2  3  2  3
  3  4  1  0
  4  5  2  3
  4 20  1  0
  5  6  1  0
  6  7  2  3
  7  8  1  0
  7 14  1  0
  8  9  2  3
  9 10  1  0
  9 11  1  0
 11 12  1  0
 11 13  2  0
 14 15  2  0
 14 16  1  0
 17 16  1  1
 17 18  1  0
 17 19  1  0
 18 19  1  0
 20 21  2  0
 20 24  1  0
 21 22  1  0
 22 23  1  0
 23 24  2  0
M  END
