
     RDKit          3D

 24 26  0  0  0  0  0  0  0  0999 V2000
   -5.8380   -0.9170   -0.1990 C   0  0  0  0  0  0  0  0  0  0  0  0
   -4.9180   -0.1730   -1.1750 C   0  0  1  0  0  0  0  0  0  0  0  0
   -5.4300    1.2370   -1.2490 C   0  0  0  0  0  0  0  0  0  0  0  0
   -3.5480   -0.2670   -0.5890 C   0  0  0  0  0  0  0  0  0  0  0  0
   -2.9790    0.8560   -0.2240 C   0  0  0  0  0  0  0  0  0  0  0  0
   -1.6140    1.0780    0.3930 C   0  0  2  0  0  0  0  0  0  0  0  0
   -0.5490    0.5220   -0.4780 C   0  0  0  0  0  0  0  0  0  0  0  0
    0.8200    0.7110    0.0510 C   0  0  0  0  0  0  0  0  0  0  0  0
    0.9260    1.3520    1.1160 O   0  0  0  0  0  0  0  0  0  0  0  0
    1.9700    0.2220   -0.5630 N   0  0  0  0  0  0  0  0  0  0  0  0
    3.3130    0.3470   -0.1480 C   0  0  0  0  0  0  0  0  0  0  0  0
    3.7360    1.1460    0.8880 C   0  0  0  0  0  0  0  0  0  0  0  0
    5.0850    1.2060    1.2540 C   0  0  0  0  0  0  0  0  0  0  0  0
    6.0490    0.4750    0.6010 C   0  0  0  0  0  0  0  0  0  0  0  0
    7.3760    0.3680    0.7650 N   0  0  0  0  0  0  0  0  0  0  0  0
    7.8750   -0.5020   -0.1540 C   0  0  0  0  0  0  0  0  0  0  0  0
    6.8020   -0.9320   -0.8970 C   0  0  0  0  0  0  0  0  0  0  0  0
    5.6430   -0.3320   -0.4420 C   0  0  0  0  0  0  0  0  0  0  0  0
    4.3170   -0.3800   -0.7880 C   0  0  0  0  0  0  0  0  0  0  0  0
   -1.5930    0.3090    1.7210 C   0  0  0  0  0  0  0  0  0  0  0  0
   -1.3710   -1.1090    1.4380 C   0  0  0  0  0  0  0  0  0  0  0  0
   -0.4250   -1.6710    2.0390 O   0  0  0  0  0  0  0  0  0  0  0  0
   -2.1230   -1.9110    0.5490 N   0  0  0  0  0  0  0  0  0  0  0  0
   -3.0340   -1.6550   -0.5130 C   0  0  0  0  0  0  0  0  0  0  0  0
  2  1  1  1
  2  3  1  0
  2  4  1  0
  4  5  2  0
  4 24  1  0
  5  6  1  0
  6  7  1  6
  6 20  1  0
  7  8  1  0
  8  9  2  0
  8 10  1  0
 10 11  1  0
 11 12  2  0
 11 19  1  0
 12 13  1  0
 13 14  2  0
 14 15  1  0
 14 18  1  0
 15 16  1  0
 16 17  2  0
 17 18  1  0
 18 19  2  0
 20 21  1  0
 21 22  2  0
 21 23  1  0
 23 24  1  0
M  END
