
     RDKit          3D

 24 26  0  0  0  0  0  0  0  0999 V2000
   -4.7540    0.1480   -1.5340 C   0  0  0  0  0  0  0  0  0  0  0  0
   -4.4550    0.9680   -0.2930 C   0  0  0  0  0  0  0  0  0  0  0  0
   -3.3560    0.7280    0.3410 C   0  0  0  0  0  0  0  0  0  0  0  0
   -2.3490   -0.2560    0.0070 C   0  0  1  0  0  0  0  0  0  0  0  0
   -2.5440   -1.3940   -0.8690 C   0  0  0  0  0  0  0  0  0  0  0  0
   -1.6220   -2.5290   -0.3290 C   0  0  0  0  0  0  0  0  0  0  0  0
   -0.2440   -2.0490   -0.0540 C   0  0  0  0  0  0  0  0  0  0  0  0
    0.0010   -0.6500   -0.1360 N   0  0  0  0  0  0  0  0  0  0  0  0
    1.3830   -0.2360   -0.0280 C   0  0  0  0  0  0  0  0  0  0  0  0
    1.6870    1.1020   -0.1410 C   0  0  0  0  0  0  0  0  0  0  0  0
    2.9920    1.5220   -0.0400 C   0  0  0  0  0  0  0  0  0  0  0  0
    4.0370    0.6210    0.1770 C   0  0  0  0  0  0  0  0  0  0  0  0
    5.3330    1.0520    0.2770 O   0  0  0  0  0  0  0  0  0  0  0  0
    6.4700    0.2600    0.4770 C   0  0  0  0  0  0  0  0  0  0  0  0
    6.7120   -0.7020   -0.6090 C   0  0  0  0  0  0  0  0  0  0  0  0
    7.7900   -1.6410   -0.5630 N   0  0  0  0  0  0  0  0  0  0  0  0
    5.9900   -0.7510   -1.6310 O   0  0  0  0  0  0  0  0  0  0  0  0
    3.7140   -0.7060    0.2870 C   0  0  0  0  0  0  0  0  0  0  0  0
    2.3970   -1.1540    0.1880 C   0  0  0  0  0  0  0  0  0  0  0  0
   -0.9910    0.3740   -0.3140 C   0  0  0  0  0  0  0  0  0  0  0  0
   -3.0900    1.5360    1.5270 N   0  0  0  0  0  0  0  0  0  0  0  0
   -4.0200    2.5090    1.9120 C   0  0  0  0  0  0  0  0  0  0  0  0
   -5.1330    2.7400    1.2590 C   0  0  0  0  0  0  0  0  0  0  0  0
   -5.4960    1.9960    0.0730 C   0  0  0  0  0  0  0  0  0  0  0  0
  1  2  1  0
  2  3  2  0
  2 24  1  0
  4  3  1  6
  3 21  1  0
  4  5  1  0
  4 20  1  0
  5  6  1  0
  6  7  1  0
  7  8  1  0
  8  9  1  0
  8 20  1  0
  9 10  2  0
  9 19  1  0
 10 11  1  0
 11 12  2  0
 12 13  1  0
 12 18  1  0
 13 14  1  0
 14 15  1  0
 15 16  1  0
 15 17  2  0
 18 19  2  0
 21 22  1  0
 22 23  2  0
 23 24  1  0
M  END
