
     RDKit          3D

 24 26  0  0  0  0  0  0  0  0999 V2000
    0.0640    1.0600   -1.6930 C   0  0  0  0  0  0  0  0  0  0  0  0
    0.0940    0.5370   -0.2740 C   0  0  2  0  0  0  0  0  0  0  0  0
    0.3320   -0.9460   -0.2040 C   0  0  0  0  0  0  0  0  0  0  0  0
    1.6100   -1.3960   -0.8100 C   0  0  0  0  0  0  0  0  0  0  0  0
    2.8100   -0.8490   -0.1230 C   0  0  0  0  0  0  0  0  0  0  0  0
    2.6410   -0.2220    0.9230 O   0  0  0  0  0  0  0  0  0  0  0  0
    4.0990   -1.0540   -0.6700 N   0  0  0  0  0  0  0  0  0  0  0  0
    5.2850   -0.5830   -0.1120 C   0  0  0  0  0  0  0  0  0  0  0  0
    6.4940   -1.0430   -0.6360 C   0  0  0  0  0  0  0  0  0  0  0  0
    7.6940   -0.6130   -0.1460 C   0  0  0  0  0  0  0  0  0  0  0  0
    7.7350    0.2700    0.8620 N   0  0  0  0  0  0  0  0  0  0  0  0
    6.6210    0.7460    1.4040 C   0  0  0  0  0  0  0  0  0  0  0  0
    6.6730    1.5790    2.3530 O   0  0  0  0  0  0  0  0  0  0  0  0
    5.3830    0.3160    0.9130 C   0  0  0  0  0  0  0  0  0  0  0  0
   -1.0680    0.9070    0.4780 N   0  0  0  0  0  0  0  0  0  0  0  0
   -2.3970    0.5990    0.1270 C   0  0  0  0  0  0  0  0  0  0  0  0
   -2.8020    0.0010   -1.0390 C   0  0  0  0  0  0  0  0  0  0  0  0
   -4.1240   -0.2750   -1.3070 C   0  0  0  0  0  0  0  0  0  0  0  0
   -5.1160    0.0570   -0.3700 C   0  0  0  0  0  0  0  0  0  0  0  0
   -4.7430    0.6520    0.7960 C   0  0  0  0  0  0  0  0  0  0  0  0
   -3.4130    0.9190    1.0430 C   0  0  0  0  0  0  0  0  0  0  0  0
   -5.9770    0.9050    1.6240 C   0  0  0  0  0  0  0  0  0  0  0  0
   -6.9820   -0.0350    1.0130 C   0  0  0  0  0  0  0  0  0  0  0  0
   -6.5800   -0.1430   -0.4420 C   0  0  0  0  0  0  0  0  0  0  0  0
  2  1  1  6
  2  3  1  0
  2 15  1  0
  3  4  1  0
  4  5  1  0
  5  6  2  0
  5  7  1  0
  7  8  1  0
  8  9  1  0
  8 14  2  0
  9 10  2  0
 10 11  1  0
 11 12  1  0
 12 13  2  0
 12 14  1  0
 15 16  1  0
 16 17  2  0
 16 21  1  0
 17 18  1  0
 18 19  2  0
 19 20  1  0
 19 24  1  0
 20 21  2  0
 20 22  1  0
 22 23  1  0
 23 24  1  0
M  END
