
     RDKit          3D

 24 25  0  0  0  0  0  0  0  0999 V2000
    5.9990    0.4930    1.4690 C   0  0  0  0  0  0  0  0  0  0  0  0
    5.9890    0.7690    0.0220 C   0  0  0  0  0  0  0  0  0  0  0  0
    5.0560    0.5690   -0.8370 C   0  0  0  0  0  0  0  0  0  0  0  0
    3.7410    0.0260   -0.7060 C   0  0  0  0  0  0  0  0  0  0  0  0
    3.0090   -0.0190   -1.8420 C   0  0  0  0  0  0  0  0  0  0  0  0
    1.6480   -0.5020   -2.0800 C   0  0  0  0  0  0  0  0  0  0  0  0
    1.2880   -0.8840   -3.4720 C   0  0  0  0  0  0  0  0  0  0  0  0
    0.7090   -0.6260   -1.1470 C   0  0  0  0  0  0  0  0  0  0  0  0
    0.7710   -0.3260    0.2910 C   0  0  0  0  0  0  0  0  0  0  0  0
   -0.4840   -0.1640    0.8970 C   0  0  0  0  0  0  0  0  0  0  0  0
   -1.6190    0.0240    0.0580 C   0  0  0  0  0  0  0  0  0  0  0  0
   -1.4540    0.1790   -1.2040 O   0  0  0  0  0  0  0  0  0  0  0  0
   -3.0560    0.0710    0.4240 C   0  0  0  0  0  0  0  0  0  0  0  0
   -3.9280    0.3490   -0.8180 C   0  0  1  0  0  0  0  0  0  0  0  0
   -3.7680   -0.7010   -1.8620 C   0  0  0  0  0  0  0  0  0  0  0  0
   -5.3830    0.4120   -0.4080 C   0  0  0  0  0  0  0  0  0  0  0  0
   -6.2550    0.6680   -1.5090 N   0  0  0  0  0  0  0  0  0  0  0  0
   -0.5170   -0.0330    2.2710 C   0  0  0  0  0  0  0  0  0  0  0  0
   -1.7630    0.1450    2.9950 C   0  0  0  0  0  0  0  0  0  0  0  0
    0.6570   -0.0630    2.9540 N   0  0  0  0  0  0  0  0  0  0  0  0
    1.8590   -0.2100    2.3870 C   0  0  0  0  0  0  0  0  0  0  0  0
    2.9190   -0.2320    3.0400 O   0  0  0  0  0  0  0  0  0  0  0  0
    1.9380   -0.3440    1.0260 C   0  0  0  0  0  0  0  0  0  0  0  0
    3.2910   -0.4340    0.5530 N   0  0  0  0  0  0  0  0  0  0  0  0
  1  2  1  0
  2  3  2  3
  3  4  1  0
  4  5  2  0
  4 24  1  0
  5  6  1  0
  6  7  1  0
  6  8  2  0
  8  9  1  0
  9 10  1  0
  9 23  2  0
 10 11  1  0
 10 18  2  0
 11 12  2  0
 11 13  1  0
 13 14  1  0
 14 15  1  6
 14 16  1  0
 16 17  1  0
 18 19  1  0
 18 20  1  0
 20 21  1  0
 21 22  2  0
 21 23  1  0
 23 24  1  0
M  END
