
     RDKit          3D

 28 31  0  0  0  0  0  0  0  0999 V2000
    0.9190    3.6480    0.2570 C   0  0  0  0  0  0  0  0  0  0  0  0
   -0.0520    2.5760    0.2520 N   0  0  0  0  0  0  0  0  0  0  0  0
    0.2930    1.3030   -0.2720 C   0  0  0  0  0  0  0  0  0  0  0  0
    1.4980    1.1260   -0.7450 N   0  0  0  0  0  0  0  0  0  0  0  0
    1.9300   -0.0700   -1.2740 N   0  0  0  0  0  0  0  0  0  0  0  0
    3.1550   -0.4540   -1.1490 C   0  0  0  0  0  0  0  0  0  0  0  0
    3.5730   -1.6440   -1.6790 C   0  0  0  0  0  0  0  0  0  0  0  0
    4.8910   -2.0020   -1.5140 C   0  0  0  0  0  0  0  0  0  0  0  0
    5.7650   -1.2340   -0.8610 N   0  0  0  0  0  0  0  0  0  0  0  0
    7.1210   -1.6450   -0.7150 C   0  0  0  0  0  0  0  0  0  0  0  0
    7.5070   -2.7300   -1.1970 O   0  0  0  0  0  0  0  0  0  0  0  0
    5.3730   -0.0580   -0.3320 C   0  0  0  0  0  0  0  0  0  0  0  0
    4.0660    0.3330   -0.4760 C   0  0  0  0  0  0  0  0  0  0  0  0
   -0.6680    0.2590   -0.2720 N   0  0  0  0  0  0  0  0  0  0  0  0
   -1.8680    0.3420    0.1680 C   0  0  0  0  0  0  0  0  0  0  0  0
   -2.7890   -0.7400    0.1420 N   0  0  0  0  0  0  0  0  0  0  0  0
   -2.7880   -1.6700    1.2490 C   0  0  0  0  0  0  0  0  0  0  0  0
   -4.1280   -2.2730    1.5100 C   0  0  0  0  0  0  0  0  0  0  0  0
   -4.8490   -2.5900    0.3890 O   0  0  0  0  0  0  0  0  0  0  0  0
   -4.1230   -2.4740   -0.7960 C   0  0  0  0  0  0  0  0  0  0  0  0
   -3.7410   -0.9910   -0.9160 C   0  0  0  0  0  0  0  0  0  0  0  0
   -2.2700    1.6170    0.7130 N   0  0  0  0  0  0  0  0  0  0  0  0
   -3.5160    2.0190    1.2710 C   0  0  0  0  0  0  0  0  0  0  0  0
   -4.5770    1.3620    1.4290 O   0  0  0  0  0  0  0  0  0  0  0  0
   -3.3070    3.4290    1.6470 C   0  0  0  0  0  0  0  0  0  0  0  0
   -4.2010    4.1370    2.1810 O   0  0  0  0  0  0  0  0  0  0  0  0
   -1.9740    3.7520    1.2890 N   0  0  0  0  0  0  0  0  0  0  0  0
   -1.3720    2.7360    0.7580 C   0  0  0  0  0  0  0  0  0  0  0  0
  1  2  1  0
  2  3  1  0
  2 28  1  0
  3  4  2  3
  3 14  1  0
  4  5  1  0
  5  6  2  3
  6  7  1  0
  6 13  1  0
  7  8  2  0
  8  9  1  0
  9 10  1  0
  9 12  1  0
 10 11  2  0
 12 13  2  0
 14 15  2  0
 15 16  1  0
 15 22  1  0
 16 17  1  0
 16 21  1  0
 17 18  1  0
 18 19  1  0
 19 20  1  0
 20 21  1  0
 22 23  1  0
 22 28  1  0
 23 24  2  0
 23 25  1  0
 25 26  2  0
 25 27  1  0
 27 28  2  0
M  END
