
     RDKit          3D

 28 31  0  0  0  0  0  0  0  0999 V2000
    2.4030   -1.7630   -1.4320 C   0  0  0  0  0  0  0  0  0  0  0  0
    2.4610   -0.5770   -0.4910 C   0  0  2  0  0  0  0  0  0  0  0  0
    3.0980   -0.8270    0.7540 N   0  0  0  0  0  0  0  0  0  0  0  0
    4.4780   -0.5710    0.8870 C   0  0  2  0  0  0  0  0  0  0  0  0
    4.8500    0.8680    1.1800 C   0  0  0  0  0  0  0  0  0  0  0  0
    5.1430    1.5100   -0.1660 C   0  0  0  0  0  0  0  0  0  0  0  0
    5.5420    0.3840   -1.0600 C   0  0  0  0  0  0  0  0  0  0  0  0
    5.3810   -0.8840   -0.2450 C   0  0  0  0  0  0  0  0  0  0  0  0
    1.0340   -0.1870   -0.2190 C   0  0  0  0  0  0  0  0  0  0  0  0
    0.6790    1.1420   -0.1610 C   0  0  0  0  0  0  0  0  0  0  0  0
   -0.6250    1.4540    0.0660 C   0  0  0  0  0  0  0  0  0  0  0  0
   -0.9180    2.6910    0.1150 O   0  0  0  0  0  0  0  0  0  0  0  0
   -1.6410    0.5020    0.2460 C   0  0  0  0  0  0  0  0  0  0  0  0
   -3.0290    0.9380    0.2490 C   0  0  1  0  0  0  0  0  0  0  0  0
   -3.7230    1.0760    1.5710 C   0  0  0  0  0  0  0  0  0  0  0  0
   -4.0960    2.5580    1.5710 C   0  0  0  0  0  0  0  0  0  0  0  0
   -4.3820    3.2190    2.5960 O   0  0  0  0  0  0  0  0  0  0  0  0
   -4.0640    3.0360    0.2430 N   0  0  0  0  0  0  0  0  0  0  0  0
   -4.5690    4.2880   -0.2330 C   0  0  0  0  0  0  0  0  0  0  0  0
   -3.4330    2.0580   -0.6470 C   0  0  0  0  0  0  0  0  0  0  0  0
   -1.2280   -0.8360    0.1800 C   0  0  0  0  0  0  0  0  0  0  0  0
   -2.2170   -1.9210    0.1540 C   0  0  0  0  0  0  0  0  0  0  0  0
   -3.2820   -2.0780    0.9740 C   0  0  0  0  0  0  0  0  0  0  0  0
   -4.2300   -3.0320    0.7190 C   0  0  0  0  0  0  0  0  0  0  0  0
   -4.1440   -3.8750   -0.3800 C   0  0  0  0  0  0  0  0  0  0  0  0
   -3.0580   -3.7310   -1.2340 C   0  0  0  0  0  0  0  0  0  0  0  0
   -2.1210   -2.7730   -0.9640 C   0  0  0  0  0  0  0  0  0  0  0  0
    0.0870   -1.1120   -0.0490 N   0  0  0  0  0  0  0  0  0  0  0  0
  2  1  1  6
  2  3  1  0
  2  9  1  0
  4  3  1  6
  4  5  1  0
  4  8  1  0
  5  6  1  0
  6  7  1  0
  7  8  1  0
  9 10  2  0
  9 28  1  0
 10 11  1  0
 11 12  2  0
 11 13  1  0
 14 13  1  1
 13 21  2  0
 14 15  1  0
 14 20  1  0
 15 16  1  0
 16 17  2  0
 16 18  1  0
 18 19  1  0
 18 20  1  0
 21 22  1  0
 21 28  1  0
 22 23  2  0
 22 27  1  0
 23 24  1  0
 24 25  2  0
 25 26  1  0
 26 27  2  0
M  CHG  1   3   1
M  END
