
     RDKit          3D

 28 31  0  0  0  0  0  0  0  0999 V2000
   -2.2090   -3.0310    2.5330 C   0  0  0  0  0  0  0  0  0  0  0  0
   -2.4590   -1.8000    1.7360 C   0  0  0  0  0  0  0  0  0  0  0  0
   -3.3640   -0.8950    2.1210 C   0  0  0  0  0  0  0  0  0  0  0  0
   -3.7250    0.2760    1.4400 C   0  0  0  0  0  0  0  0  0  0  0  0
   -4.6980    1.1540    2.1000 C   0  0  0  0  0  0  0  0  0  0  0  0
   -3.0570    0.4630    0.2600 C   0  0  0  0  0  0  0  0  0  0  0  0
   -3.4760    1.5400   -0.5660 C   0  0  0  0  0  0  0  0  0  0  0  0
   -2.9340    1.6790   -1.8240 C   0  0  0  0  0  0  0  0  0  0  0  0
   -1.9860    0.7830   -2.2850 C   0  0  0  0  0  0  0  0  0  0  0  0
   -1.5890   -0.2510   -1.4690 C   0  0  0  0  0  0  0  0  0  0  0  0
   -2.0930   -0.4440   -0.2000 C   0  0  0  0  0  0  0  0  0  0  0  0
   -1.7550   -1.5860    0.5080 C   0  0  0  0  0  0  0  0  0  0  0  0
   -0.8360   -2.6320    0.1770 C   0  0  2  0  0  0  0  0  0  0  0  0
    0.2870   -2.7850    1.3200 C   0  0  0  0  0  0  0  0  0  0  0  0
    0.1590   -2.2080   -0.8670 N   0  0  0  0  0  0  0  0  0  0  0  0
    1.1920   -1.4150   -0.4680 C   0  0  0  0  0  0  0  0  0  0  0  0
    1.6490   -0.8960    0.4730 O   0  0  0  0  0  0  0  0  0  0  0  0
    2.2660   -1.0300   -1.9480 N   0  0  0  0  0  0  0  0  0  0  0  0
    3.6190   -0.5540   -1.1600 C   0  0  0  0  0  0  0  0  0  0  0  0
    3.6510   -0.5230    0.0070 O   0  0  0  0  0  0  0  0  0  0  0  0
    4.6310   -0.2460   -2.0650 N   0  0  0  0  0  0  0  0  0  0  0  0
    5.9380    0.2100   -1.6880 C   0  0  0  0  0  0  0  0  0  0  0  0
    5.9820    1.5500   -1.0560 C   0  0  1  0  0  0  0  0  0  0  0  0
    5.3310    2.0320    0.1500 C   0  0  0  0  0  0  0  0  0  0  0  0
    6.8470    1.7750    0.1590 C   0  0  0  0  0  0  0  0  0  0  0  0
   -3.4490    2.7420   -2.4700 C   0  0  0  0  0  0  0  0  0  0  0  0
   -4.4060    3.3590   -1.5690 C   0  0  0  0  0  0  0  0  0  0  0  0
   -4.3570    2.4540   -0.3430 C   0  0  0  0  0  0  0  0  0  0  0  0
  1  2  1  0
  2  3  2  0
  2 12  1  0
  3  4  1  0
  4  5  1  0
  4  6  2  0
  6  7  1  0
  6 11  1  0
  7  8  1  0
  7 28  2  0
  8  9  1  0
  8 26  2  0
  9 10  2  0
 10 11  1  0
 11 12  2  0
 12 13  1  0
 13 14  1  1
 13 15  1  0
 15 16  1  0
 16 17  2  0
 16 18  1  0
 18 19  1  0
 19 20  2  0
 19 21  1  0
 21 22  1  0
 23 22  1  1
 23 24  1  0
 23 25  1  0
 24 25  1  0
 26 27  1  0
 27 28  1  0
M  END
