
     RDKit          3D

 23 25  0  0  0  0  0  0  0  0999 V2000
   -4.5690   -2.1170   -2.1430 N   0  0  0  0  0  0  0  0  0  0  0  0
   -3.7500   -1.2790   -1.3480 C   0  0  0  0  0  0  0  0  0  0  0  0
   -2.3930   -1.4000   -1.2620 C   0  0  0  0  0  0  0  0  0  0  0  0
   -1.5760   -0.5660   -0.4720 C   0  0  0  0  0  0  0  0  0  0  0  0
   -0.1800   -0.7950   -0.4570 N   0  0  0  0  0  0  0  0  0  0  0  0
    0.7930    0.0060    0.1290 C   0  0  0  0  0  0  0  0  0  0  0  0
    0.4540    1.0610    0.7200 O   0  0  0  0  0  0  0  0  0  0  0  0
    2.2320   -0.3420    0.0840 C   0  0  0  0  0  0  0  0  0  0  0  0
    3.1070    0.4470    0.6510 C   0  0  0  0  0  0  0  0  0  0  0  0
    4.5370    0.1850    0.6560 C   0  0  0  0  0  0  0  0  0  0  0  0
    5.3530    1.0290    1.2500 C   0  0  0  0  0  0  0  0  0  0  0  0
    6.7960    0.7900    1.2690 C   0  0  0  0  0  0  0  0  0  0  0  0
    7.2610   -0.2920    0.6770 C   0  0  0  0  0  0  0  0  0  0  0  0
    6.4030   -1.2710   -0.0020 C   0  0  0  0  0  0  0  0  0  0  0  0
    5.0270   -0.9350    0.0440 O   0  0  0  0  0  0  0  0  0  0  0  0
   -2.2490    0.4020    0.2240 C   0  0  0  0  0  0  0  0  0  0  0  0
   -3.6230    0.5800    0.1820 C   0  0  0  0  0  0  0  0  0  0  0  0
   -4.2030    1.5910    0.9260 C   0  0  0  0  0  0  0  0  0  0  0  0
   -5.5720    1.7400    0.8600 C   0  0  0  0  0  0  0  0  0  0  0  0
   -6.3350    0.8960    0.0690 C   0  0  0  0  0  0  0  0  0  0  0  0
   -7.6830    1.0210   -0.0130 F   0  0  0  0  0  0  0  0  0  0  0  0
   -5.7160   -0.1010   -0.6580 C   0  0  0  0  0  0  0  0  0  0  0  0
   -4.3530   -0.2730   -0.6120 C   0  0  0  0  0  0  0  0  0  0  0  0
  1  2  1  0
  2  3  2  0
  2 23  1  0
  3  4  1  0
  4  5  1  0
  4 16  2  0
  5  6  1  0
  6  7  2  0
  6  8  1  0
  8  9  2  3
  9 10  1  0
 10 11  2  0
 10 15  1  0
 11 12  1  0
 12 13  2  0
 13 14  1  0
 14 15  1  0
 16 17  1  0
 17 18  2  0
 17 23  1  0
 18 19  1  0
 19 20  2  0
 20 21  1  0
 20 22  1  0
 22 23  2  0
M  END
