
     RDKit          3D

 25 26  0  0  0  0  0  0  0  0999 V2000
    6.3170   -0.2590   -0.9260 N   0  0  0  0  0  0  0  0  0  0  0  0
    5.5950   -0.9220    0.4920 S   0  0  2  0  0  0  0  0  0  0  0  0
    6.3050   -0.3140    1.6750 O   0  0  0  0  0  0  0  0  0  0  0  0
    5.7130   -2.4220    0.4870 O   0  0  0  0  0  0  0  0  0  0  0  0
    3.9130   -0.4180    0.5160 C   0  0  0  0  0  0  0  0  0  0  0  0
    2.9150   -1.1470   -0.0620 C   0  0  0  0  0  0  0  0  0  0  0  0
    1.5830   -0.7020   -0.0160 C   0  0  0  0  0  0  0  0  0  0  0  0
    1.2560    0.4690    0.6070 C   0  0  0  0  0  0  0  0  0  0  0  0
   -0.0430    1.0070    0.7110 N   0  0  0  0  0  0  0  0  0  0  0  0
   -1.2220    0.4480    0.2020 C   0  0  0  0  0  0  0  0  0  0  0  0
   -1.1840   -0.6400   -0.4180 O   0  0  0  0  0  0  0  0  0  0  0  0
   -2.4960    1.1170    0.3860 N   0  0  0  0  0  0  0  0  0  0  0  0
   -3.6740    0.5480   -0.1280 C   0  0  0  0  0  0  0  0  0  0  0  0
   -4.4180   -0.3180    0.6320 C   0  0  0  0  0  0  0  0  0  0  0  0
   -4.0500   -0.6550    1.8940 F   0  0  0  0  0  0  0  0  0  0  0  0
   -5.5820   -0.8630    0.0840 C   0  0  0  0  0  0  0  0  0  0  0  0
   -6.2990   -1.7180    0.8600 F   0  0  0  0  0  0  0  0  0  0  0  0
   -5.9900   -0.5500   -1.1860 C   0  0  0  0  0  0  0  0  0  0  0  0
   -7.1310   -1.1120   -1.6610 F   0  0  0  0  0  0  0  0  0  0  0  0
   -5.2510    0.3100   -1.9400 C   0  0  0  0  0  0  0  0  0  0  0  0
   -5.6440    0.6230   -3.1890 F   0  0  0  0  0  0  0  0  0  0  0  0
   -4.0900    0.8550   -1.3980 C   0  0  0  0  0  0  0  0  0  0  0  0
   -3.4000    1.7070   -2.2070 F   0  0  0  0  0  0  0  0  0  0  0  0
    2.3070    1.1650    1.1730 C   0  0  0  0  0  0  0  0  0  0  0  0
    3.6100    0.7600    1.1460 C   0  0  0  0  0  0  0  0  0  0  0  0
  2  1  1  6
  2  3  2  0
  2  4  2  0
  2  5  1  0
  5  6  2  0
  5 25  1  0
  6  7  1  0
  7  8  2  0
  8  9  1  0
  8 24  1  0
  9 10  1  0
 10 11  2  0
 10 12  1  0
 12 13  1  0
 13 14  2  0
 13 22  1  0
 14 15  1  0
 14 16  1  0
 16 17  1  0
 16 18  2  0
 18 19  1  0
 18 20  1  0
 20 21  1  0
 20 22  2  0
 22 23  1  0
 24 25  2  0
M  END
