
     RDKit          3D

 22 24  0  0  0  0  0  0  0  0999 V2000
   -5.5860   -3.0380   -0.1800 C   0  0  0  0  0  0  0  0  0  0  0  0
   -4.5780   -1.9460   -0.2290 C   0  0  0  0  0  0  0  0  0  0  0  0
   -4.9940   -0.7530    0.2000 C   0  0  0  0  0  0  0  0  0  0  0  0
   -4.2610    0.4830    0.2750 C   0  0  0  0  0  0  0  0  0  0  0  0
   -3.0070    0.7850   -0.0490 C   0  0  0  0  0  0  0  0  0  0  0  0
   -2.6480    2.1850    0.1850 C   0  0  0  0  0  0  0  0  0  0  0  0
   -1.2570    2.5320   -0.1720 C   0  0  0  0  0  0  0  0  0  0  0  0
   -0.3890    1.6710   -0.6630 C   0  0  0  0  0  0  0  0  0  0  0  0
    1.0070    2.0860   -1.0040 C   0  0  0  0  0  0  0  0  0  0  0  0
    1.9270    1.3020   -0.2140 N   0  0  0  0  0  0  0  0  0  0  0  0
    3.3410    1.4620   -0.3080 C   0  0  0  0  0  0  0  0  0  0  0  0
    3.8120    2.3260   -1.1180 O   0  0  0  0  0  0  0  0  0  0  0  0
    4.2080    0.6220    0.5330 C   0  0  1  0  0  0  0  0  0  0  0  0
    4.0440   -0.8480    0.2470 C   0  0  0  0  0  0  0  0  0  0  0  0
    5.4500   -1.3830    0.3120 C   0  0  0  0  0  0  0  0  0  0  0  0
    6.2570   -0.2390   -0.1600 C   0  0  0  0  0  0  0  0  0  0  0  0
    7.3200   -0.2980   -0.8310 O   0  0  0  0  0  0  0  0  0  0  0  0
    5.5990    0.9330    0.2930 N   0  0  0  0  0  0  0  0  0  0  0  0
   -0.8160    0.2970   -0.8690 C   0  0  0  0  0  0  0  0  0  0  0  0
   -2.0210   -0.1340   -0.5930 C   0  0  0  0  0  0  0  0  0  0  0  0
   -2.2100   -1.5720   -0.8910 C   0  0  0  0  0  0  0  0  0  0  0  0
   -3.2740   -2.3430   -0.7440 C   0  0  0  0  0  0  0  0  0  0  0  0
  1  2  1  0
  2  3  2  0
  2 22  1  0
  3  4  1  0
  4  5  2  0
  5  6  1  0
  5 20  1  0
  6  7  1  0
  7  8  2  0
  8  9  1  0
  8 19  1  0
  9 10  1  0
 10 11  1  0
 11 12  2  0
 13 11  1  6
 13 14  1  0
 13 18  1  0
 14 15  1  0
 15 16  1  0
 16 17  2  0
 16 18  1  0
 19 20  2  0
 20 21  1  0
 21 22  2  0
M  END
