
     RDKit          3D

 28 31  0  0  0  0  0  0  0  0999 V2000
   -4.4950   -2.2290    0.0470 C   0  0  0  0  0  0  0  0  0  0  0  0
   -3.4690   -1.4880    0.3480 C   0  0  0  0  0  0  0  0  0  0  0  0
   -2.9820   -0.4710   -0.5590 C   0  0  0  0  0  0  0  0  0  0  0  0
   -1.9230    0.3010   -0.2350 C   0  0  0  0  0  0  0  0  0  0  0  0
   -1.3360    1.3660   -1.0620 C   0  0  0  0  0  0  0  0  0  0  0  0
   -1.9860    2.0230   -2.0250 C   0  0  0  0  0  0  0  0  0  0  0  0
   -3.3430    1.9540   -2.5600 C   0  0  0  0  0  0  0  0  0  0  0  0
   -4.2160    1.0310   -1.8690 N   0  0  0  0  0  0  0  0  0  0  0  0
   -3.6870   -0.3260   -1.8510 C   0  0  0  0  0  0  0  0  0  0  0  0
   -1.2640    0.1260    1.0120 N   0  0  0  0  0  0  0  0  0  0  0  0
   -0.1090    0.9180    1.3330 C   0  0  0  0  0  0  0  0  0  0  0  0
    1.1230    0.4930    0.5660 C   0  0  0  0  0  0  0  0  0  0  0  0
    1.0780   -0.4680   -0.2140 O   0  0  0  0  0  0  0  0  0  0  0  0
    2.3390    1.1960    0.7340 N   0  0  0  0  0  0  0  0  0  0  0  0
    3.5770    0.9330    0.1060 C   0  0  0  0  0  0  0  0  0  0  0  0
    3.8320   -0.2230   -0.5800 C   0  0  0  0  0  0  0  0  0  0  0  0
    5.0810   -0.3750   -1.1780 C   0  0  0  0  0  0  0  0  0  0  0  0
    5.4140   -1.6160   -1.9390 C   0  0  0  0  0  0  0  0  0  0  0  0
    6.0470    0.5910   -1.1000 C   0  0  0  0  0  0  0  0  0  0  0  0
    5.7660    1.7450   -0.4040 C   0  0  0  0  0  0  0  0  0  0  0  0
    6.7690    2.7110   -0.3400 O   0  0  0  0  0  0  0  0  0  0  0  0
    4.5540    1.9290    0.1950 C   0  0  0  0  0  0  0  0  0  0  0  0
   -1.6690   -0.8470    1.9700 C   0  0  0  0  0  0  0  0  0  0  0  0
   -1.0380   -1.0340    3.1820 C   0  0  0  0  0  0  0  0  0  0  0  0
   -1.4950   -1.9980    4.0410 C   0  0  0  0  0  0  0  0  0  0  0  0
   -2.5710   -2.8050    3.7490 C   0  0  0  0  0  0  0  0  0  0  0  0
   -3.2060   -2.6110    2.5170 C   0  0  0  0  0  0  0  0  0  0  0  0
   -2.7620   -1.6500    1.6450 C   0  0  0  0  0  0  0  0  0  0  0  0
  1  2  2  0
  2  3  1  0
  2 28  1  0
  3  4  2  0
  3  9  1  0
  4  5  1  0
  4 10  1  0
  5  6  2  0
  6  7  1  0
  7  8  1  0
  8  9  1  0
 10 11  1  0
 10 23  1  0
 11 12  1  0
 12 13  2  0
 12 14  1  0
 14 15  1  0
 15 16  2  0
 15 22  1  0
 16 17  1  0
 17 18  1  0
 17 19  2  0
 19 20  1  0
 20 21  1  0
 20 22  2  0
 23 24  2  0
 23 28  1  0
 24 25  1  0
 25 26  2  0
 26 27  1  0
 27 28  2  0
M  CHG  1   8   1
M  END
