
     RDKit          3D

 10 10  0  0  0  0  0  0  0  0999 V2000
    0.4130    2.0260    1.1280 C   0  0  0  0  0  0  0  0  0  0  0  0
   -0.5580    1.1980    0.8440 C   0  0  0  0  0  0  0  0  0  0  0  0
   -1.9250    1.3940    1.1230 O   0  0  0  0  0  0  0  0  0  0  0  0
   -2.5200    0.1320    1.0310 C   0  0  0  0  0  0  0  0  0  0  0  0
   -1.5980   -0.7430    0.3800 N   0  0  0  0  0  0  0  0  0  0  0  0
   -2.0930   -1.3800   -0.7940 C   0  0  0  0  0  0  0  0  0  0  0  0
   -0.4060   -0.0520    0.2020 N   0  0  0  0  0  0  0  0  0  0  0  0
    0.9990   -0.7110   -0.6880 P   0  0  0  0  0  0  0  0  0  0  0  0
    2.2450    0.4480   -0.9050 O   0  0  0  0  0  0  0  0  0  0  0  0
    3.4940    0.0090   -0.5040 C   0  0  0  0  0  0  0  0  0  0  0  0
  1  2  2  0
  2  3  1  0
  2  7  1  0
  3  4  1  0
  4  5  1  0
  5  6  1  0
  5  7  1  0
  7  8  1  0
  8  9  1  0
  9 10  1  0
M  END
