
     RDKit          3D

 24 26  0  0  0  0  0  0  0  0999 V2000
   -1.9690   -1.2350   -2.0270 N   0  0  0  0  0  0  0  0  0  0  0  0
   -2.0140   -0.5460   -0.7550 C   0  0  0  0  0  0  0  0  0  0  0  0
   -3.1780   -0.1430   -0.3460 C   0  0  0  0  0  0  0  0  0  0  0  0
   -4.5310   -0.2460   -0.9400 C   0  0  0  0  0  0  0  0  0  0  0  0
   -5.0950    1.0760   -0.5680 C   0  0  0  0  0  0  0  0  0  0  0  0
   -6.1040    1.6170   -1.0410 O   0  0  0  0  0  0  0  0  0  0  0  0
   -4.2890    1.6220    0.4230 O   0  0  0  0  0  0  0  0  0  0  0  0
   -3.4690    0.5810    0.9230 C   0  0  2  0  0  0  0  0  0  0  0  0
   -1.9180    1.1190    1.7260 P   0  0  0  0  0  0  0  0  0  0  0  0
   -2.0970    0.9060    3.4600 O   0  0  0  0  0  0  0  0  0  0  0  0
   -0.7230   -0.0160    1.2200 O   0  0  0  0  0  0  0  0  0  0  0  0
   -0.7870   -0.3510   -0.0560 N   0  0  0  0  0  0  0  0  0  0  0  0
    0.4380   -0.5130   -0.7490 C   0  0  0  0  0  0  0  0  0  0  0  0
    0.4450   -0.8330   -1.9700 O   0  0  0  0  0  0  0  0  0  0  0  0
    1.7720   -0.3280   -0.1180 C   0  0  2  0  0  0  0  0  0  0  0  0
    2.5120   -1.6660   -0.2150 C   0  0  0  0  0  0  0  0  0  0  0  0
    3.7400   -1.6420    0.4260 O   0  0  0  0  0  0  0  0  0  0  0  0
    1.5230    0.0130    1.1970 O   0  0  0  0  0  0  0  0  0  0  0  0
    2.9890    0.7810    1.6930 P   0  0  0  0  0  0  0  0  0  0  0  0
    3.9700   -0.2740    2.6280 O   0  0  0  0  0  0  0  0  0  0  0  0
    3.6870    1.0080    0.0460 N   0  0  0  0  0  0  0  0  0  0  0  0
    5.3340    1.5430   -0.3850 P   0  0  0  0  0  0  0  0  0  0  0  0
    2.5960    0.6570   -0.7900 C   0  0  0  0  0  0  0  0  0  0  0  0
    2.4210    1.1610   -1.9380 O   0  0  0  0  0  0  0  0  0  0  0  0
  1  2  1  0
  2  3  2  0
  2 12  1  0
  3  4  1  0
  3  8  1  0
  4  5  1  0
  5  6  2  0
  5  7  1  0
  8  7  1  6
  8  9  1  0
  9 10  1  0
  9 11  1  0
 11 12  1  0
 12 13  1  0
 13 14  2  0
 13 15  1  0
 15 16  1  1
 15 18  1  0
 15 23  1  0
 16 17  1  0
 18 19  1  0
 19 20  1  0
 19 21  1  0
 21 22  1  0
 21 23  1  0
 23 24  2  0
M  END
