
     RDKit          3D

 16 16  0  0  0  0  0  0  0  0999 V2000
   -3.3210    2.1960   -1.3480 O   0  0  0  0  0  0  0  0  0  0  0  0
   -3.2530    0.9130   -0.8000 C   0  0  0  0  0  0  0  0  0  0  0  0
   -1.8250    0.4190   -1.0640 C   0  0  1  0  0  0  0  0  0  0  0  0
   -1.6410    0.4150   -2.4460 O   0  0  0  0  0  0  0  0  0  0  0  0
   -0.9740    1.2580   -0.4080 O   0  0  0  0  0  0  0  0  0  0  0  0
   -0.3060    0.5790    0.5710 C   0  0  2  0  0  0  0  0  0  0  0  0
    1.1210    0.4030    0.1370 C   0  0  0  0  0  0  0  0  0  0  0  0
    1.8750   -0.2790    1.0770 O   0  0  0  0  0  0  0  0  0  0  0  0
    3.4110   -0.3460    0.3690 P   0  0  0  0  0  0  0  0  0  0  0  0
    3.1790   -0.3070   -1.3640 O   0  0  0  0  0  0  0  0  0  0  0  0
    4.3470    0.9830    0.8880 O   0  0  0  0  0  0  0  0  0  0  0  0
    4.1880   -1.8490    0.7970 O   0  0  0  0  0  0  0  0  0  0  0  0
   -1.0080   -0.7320    0.8100 C   0  0  1  0  0  0  0  0  0  0  0  0
   -2.0460   -0.5000    1.6980 O   0  0  0  0  0  0  0  0  0  0  0  0
   -1.6410   -0.9730   -0.5580 C   0  0  2  0  0  0  0  0  0  0  0  0
   -0.7000   -1.6780   -1.3240 O   0  0  0  0  0  0  0  0  0  0  0  0
  1  2  1  0
  2  3  1  0
  3  4  1  6
  3  5  1  0
  3 15  1  0
  5  6  1  0
  6  7  1  6
  6 13  1  0
  7  8  1  0
  8  9  1  0
  9 10  1  0
  9 11  1  0
  9 12  1  0
 13 14  1  1
 13 15  1  0
 15 16  1  6
M  END
