
     RDKit          3D

 10 10  0  0  0  0  0  0  0  0999 V2000
    1.1860    1.6630   -0.1510 C   0  0  0  0  0  0  0  0  0  0  0  0
    0.7410    0.4370    0.0280 C   0  0  0  0  0  0  0  0  0  0  0  0
    1.5500   -0.6200   -0.3220 O   0  0  0  0  0  0  0  0  0  0  0  0
    2.9510   -0.6290   -0.1740 C   0  0  0  0  0  0  0  0  0  0  0  0
   -0.6030    0.2140    0.5940 C   0  0  1  0  0  0  0  0  0  0  0  0
   -0.6490   -0.5300    1.8300 N   0  0  0  0  0  0  0  0  0  0  0  0
   -1.5060    1.2270    0.3510 O   0  0  0  0  0  0  0  0  0  0  0  0
   -1.7220    0.0370   -0.3270 C   0  0  2  0  0  0  0  0  0  0  0  0
   -2.9500   -0.6340    0.0630 N   0  0  0  0  0  0  0  0  0  0  0  0
   -1.4380   -0.0580   -1.6740 O   0  0  0  0  0  0  0  0  0  0  0  0
  1  2  2  0
  2  3  1  0
  2  5  1  0
  3  4  1  0
  5  6  1  1
  5  7  1  0
  5  8  1  0
  7  8  1  0
  8  9  1  1
  8 10  1  0
M  END
