
     RDKit          3D

 10  9  0  0  0  0  0  0  0  0999 V2000
   -1.4870    0.5930    1.3150 C   0  0  0  0  0  0  0  0  0  0  0  0
   -0.0870    0.3000    0.8800 C   0  0  0  0  0  0  0  0  0  0  0  0
    0.8580    0.3940    1.7930 C   0  0  0  0  0  0  0  0  0  0  0  0
    0.6040    0.7450    3.1070 O   0  0  0  0  0  0  0  0  0  0  0  0
    0.2140   -0.0600   -0.4460 N   0  0  0  0  0  0  0  0  0  0  0  0
    0.4230   -1.2720   -0.8300 C   0  0  0  0  0  0  0  0  0  0  0  0
    0.7260   -1.5520   -2.2110 C   0  0  0  0  0  0  0  0  0  0  0  0
    0.8120   -0.6610   -3.1380 N   0  0  0  0  0  0  0  0  0  0  0  0
    0.5260    1.0590   -2.6420 P   0  0  0  0  0  0  0  0  0  0  0  0
    0.2100    2.1010   -3.7740 O   0  0  0  0  0  0  0  0  0  0  0  0
  1  2  1  0
  2  3  2  3
  2  5  1  0
  3  4  1  0
  5  6  2  3
  6  7  1  0
  7  8  2  3
  8  9  1  0
  9 10  2  0
M  END
