
     RDKit          3D

 24 25  0  0  0  0  0  0  0  0999 V2000
    4.3350   -1.5930    0.6270 C   0  0  0  0  0  0  0  0  0  0  0  0
    2.9470   -1.1940    0.1840 C   0  0  0  0  0  0  0  0  0  0  0  0
    2.8400   -1.1250   -1.2610 N   0  0  0  0  0  0  0  0  0  0  0  0
    1.4500   -0.7300   -1.5400 C   0  0  1  0  0  0  0  0  0  0  0  0
    0.5460   -1.6360   -1.0430 O   0  0  0  0  0  0  0  0  0  0  0  0
   -0.3190   -0.9640   -0.1950 C   0  0  2  0  0  0  0  0  0  0  0  0
   -2.0920   -1.3160   -0.5620 P   0  0  0  0  0  0  0  0  0  0  0  0
   -3.0020   -1.5290    0.9400 N   0  0  0  0  0  0  0  0  0  0  0  0
   -4.0060   -2.5540    0.8810 C   0  0  0  0  0  0  0  0  0  0  0  0
   -3.9410   -3.4120   -0.3350 C   0  0  0  0  0  0  0  0  0  0  0  0
   -2.6600   -3.7060   -0.7620 O   0  0  0  0  0  0  0  0  0  0  0  0
   -2.2430   -2.7340   -1.5750 O   0  0  0  0  0  0  0  0  0  0  0  0
    0.0160    0.4250   -0.3370 N   0  0  0  0  0  0  0  0  0  0  0  0
   -0.7190    1.5890    0.0010 C   0  0  0  0  0  0  0  0  0  0  0  0
   -1.8160    1.8580   -0.6800 C   0  0  0  0  0  0  0  0  0  0  0  0
   -2.5580    2.9750   -0.3850 O   0  0  0  0  0  0  0  0  0  0  0  0
   -2.5400    4.1240   -1.2250 C   0  0  0  0  0  0  0  0  0  0  0  0
   -0.1590    2.6840    1.3450 P   0  0  0  0  0  0  0  0  0  0  0  0
   -1.4490    3.3650    2.2410 O   0  0  0  0  0  0  0  0  0  0  0  0
    0.9750    3.8690    0.7810 O   0  0  0  0  0  0  0  0  0  0  0  0
    1.2480    0.4710   -0.8940 O   0  0  0  0  0  0  0  0  0  0  0  0
    3.8500    0.2900   -1.7760 P   0  0  0  0  0  0  0  0  0  0  0  0
    5.3520   -0.2140   -2.4480 O   0  0  0  0  0  0  0  0  0  0  0  0
    4.1170    1.3640   -0.4430 O   0  0  0  0  0  0  0  0  0  0  0  0
  1  2  1  0
  2  3  1  0
  4  3  1  1
  3 22  1  0
  4  5  1  0
  4 21  1  0
  5  6  1  0
  6  7  1  6
  6 13  1  0
  7  8  1  0
  7 12  1  0
  8  9  1  0
  9 10  1  0
 10 11  1  0
 11 12  1  0
 13 14  1  0
 13 21  1  0
 14 15  2  3
 14 18  1  0
 15 16  1  0
 16 17  1  0
 18 19  1  0
 18 20  1  0
 22 23  1  0
 22 24  1  0
M  END
