
     RDKit          3D

 22 23  0  0  0  0  0  0  0  0999 V2000
   -3.6290   -0.5990    2.0760 C   0  0  0  0  0  0  0  0  0  0  0  0
   -2.2070   -0.6120    2.1960 N   0  0  0  0  0  0  0  0  0  0  0  0
   -1.6200    0.6630    2.4880 C   0  0  0  0  0  0  0  0  0  0  0  0
   -0.3000    0.4930    2.0080 O   0  0  0  0  0  0  0  0  0  0  0  0
   -0.5590   -0.0910    0.8310 N   0  0  0  0  0  0  0  0  0  0  0  0
   -0.0960    0.1150   -0.4800 C   0  0  0  0  0  0  0  0  0  0  0  0
    1.1330    0.3640   -0.7600 C   0  0  0  0  0  0  0  0  0  0  0  0
    1.4200    0.5580   -2.2490 C   0  0  0  0  0  0  0  0  0  0  0  0
    2.3800   -0.4690   -2.5840 N   0  0  0  0  0  0  0  0  0  0  0  0
    2.2990    0.4830    0.1090 C   0  0  1  0  0  0  0  0  0  0  0  0
    2.1170    0.1750    1.4260 O   0  0  0  0  0  0  0  0  0  0  0  0
    3.3490   -0.2880   -0.4830 O   0  0  0  0  0  0  0  0  0  0  0  0
    4.6090   -0.3620    0.1390 C   0  0  0  0  0  0  0  0  0  0  0  0
    5.7290    0.2100   -0.4140 O   0  0  0  0  0  0  0  0  0  0  0  0
    4.7060   -1.1710    1.5780 P   0  0  0  0  0  0  0  0  0  0  0  0
   -1.1190    0.0170   -1.4650 O   0  0  0  0  0  0  0  0  0  0  0  0
   -2.3910   -0.2770   -0.8610 C   0  0  1  0  0  0  0  0  0  0  0  0
   -3.3740   -0.5190   -1.8140 O   0  0  0  0  0  0  0  0  0  0  0  0
   -4.4980    0.2630   -1.9830 C   0  0  0  0  0  0  0  0  0  0  0  0
   -4.6140    1.2610   -1.2030 O   0  0  0  0  0  0  0  0  0  0  0  0
   -2.2770   -1.3290    0.0090 O   0  0  0  0  0  0  0  0  0  0  0  0
   -1.5260   -1.0850    1.1040 N   0  0  0  0  0  0  0  0  0  0  0  0
  1  2  1  0
  2  3  1  0
  2 22  1  0
  3  4  1  0
  4  5  1  0
  5  6  1  0
  5 22  1  0
  6  7  2  3
  6 16  1  0
  7  8  1  0
  7 10  1  0
  8  9  1  0
 10 11  1  1
 10 12  1  0
 12 13  1  0
 13 14  1  0
 13 15  2  0
 16 17  1  0
 17 18  1  6
 17 21  1  0
 18 19  1  0
 19 20  2  0
 21 22  1  0
M  END
