
     RDKit          3D

 21 23  0  0  0  0  0  0  0  0999 V2000
    4.4790    0.3740   -1.3280 O   0  0  0  0  0  0  0  0  0  0  0  0
    4.4340   -0.8250   -1.0870 C   0  0  0  0  0  0  0  0  0  0  0  0
    5.5980   -1.6130   -1.3860 O   0  0  0  0  0  0  0  0  0  0  0  0
    3.3080   -1.4400   -0.5390 N   0  0  0  0  0  0  0  0  0  0  0  0
    2.0720   -0.9800   -0.1500 C   0  0  0  0  0  0  0  0  0  0  0  0
    1.5750    0.1900   -0.1810 C   0  0  0  0  0  0  0  0  0  0  0  0
    2.4540    1.1170   -0.6930 O   0  0  0  0  0  0  0  0  0  0  0  0
    2.2640    2.4200   -1.0520 N   0  0  0  0  0  0  0  0  0  0  0  0
    1.2060    3.2490   -0.5480 C   0  0  0  0  0  0  0  0  0  0  0  0
    1.0720    4.3120   -1.1950 O   0  0  0  0  0  0  0  0  0  0  0  0
    0.2650    3.0800    0.5710 C   0  0  0  0  0  0  0  0  0  0  0  0
    0.4000    1.7280    1.2390 C   0  0  0  0  0  0  0  0  0  0  0  0
    0.1850    0.5970    0.2770 C   0  0  2  0  0  0  0  0  0  0  0  0
   -0.5690   -0.4920    0.7590 N   0  0  1  0  0  0  0  0  0  0  0  0
   -1.9740   -0.2140    0.7960 C   0  0  1  0  0  0  0  0  0  0  0  0
   -2.5230    0.2820   -0.5150 C   0  0  0  0  0  0  0  0  0  0  0  0
   -3.9460   -0.2880   -0.6020 C   0  0  0  0  0  0  0  0  0  0  0  0
   -3.7070   -1.6860   -0.0350 C   0  0  0  0  0  0  0  0  0  0  0  0
   -2.8340   -1.3670    1.1610 C   0  0  0  0  0  0  0  0  0  0  0  0
   -0.2380   -1.6460   -0.0530 C   0  0  0  0  0  0  0  0  0  0  0  0
    1.1410   -2.0640    0.4170 C   0  0  0  0  0  0  0  0  0  0  0  0
  1  2  2  0
  2  3  1  0
  2  4  1  0
  4  5  1  0
  5  6  2  0
  5 21  1  0
  6  7  1  0
  6 13  1  0
  7  8  1  0
  8  9  1  0
  9 10  2  0
  9 11  1  0
 11 12  1  0
 13 12  1  1
 13 14  1  0
 14 15  1  0
 14 20  1  6
 15 16  1  6
 15 19  1  0
 16 17  1  0
 17 18  1  0
 18 19  1  0
 20 21  1  0
M  CHG  1  14   1
M  END
