
     RDKit          3D

 21 23  0  0  0  0  0  0  0  0999 V2000
   -0.4130   -1.2000    0.9420 O   0  0  0  0  0  0  0  0  0  0  0  0
    0.2370   -0.7690   -0.0360 C   0  0  0  0  0  0  0  0  0  0  0  0
   -0.4620   -0.5150   -1.2300 N   0  0  0  0  0  0  0  0  0  0  0  0
   -1.8230   -0.6450   -1.5360 C   0  0  0  0  0  0  0  0  0  0  0  0
   -2.8370    0.2340   -0.8760 C   0  0  2  0  0  0  0  0  0  0  0  0
   -2.9400    0.1920    0.5930 C   0  0  0  0  0  0  0  0  0  0  0  0
   -4.1980    0.9740    1.0290 C   0  0  0  0  0  0  0  0  0  0  0  0
   -5.3770    0.2570    0.4150 C   0  0  0  0  0  0  0  0  0  0  0  0
   -5.2510    0.5180   -1.0790 C   0  0  0  0  0  0  0  0  0  0  0  0
   -4.0760   -0.0610   -1.5990 N   0  0  0  0  0  0  0  0  0  0  0  0
    1.6510   -0.5650    0.1330 N   0  0  0  0  0  0  0  0  0  0  0  0
    2.5610   -0.0910   -0.8560 C   0  0  0  0  0  0  0  0  0  0  0  0
    2.4740   -0.1160   -2.1020 O   0  0  0  0  0  0  0  0  0  0  0  0
    3.6900    0.4660   -0.0760 C   0  0  2  0  0  0  0  0  0  0  0  0
    4.9880    0.5050   -0.7920 C   0  0  0  0  0  0  0  0  0  0  0  0
    6.0110    0.3930    0.1740 O   0  0  0  0  0  0  0  0  0  0  0  0
    5.6230    0.9160    1.4040 C   0  0  0  0  0  0  0  0  0  0  0  0
    4.6230   -0.0140    2.1090 C   0  0  0  0  0  0  0  0  0  0  0  0
    3.8020   -0.6270    1.0020 C   0  0  1  0  0  0  0  0  0  0  0  0
    2.3820   -0.8110    1.3410 C   0  0  0  0  0  0  0  0  0  0  0  0
    1.8400   -1.1180    2.4310 O   0  0  0  0  0  0  0  0  0  0  0  0
  1  2  2  0
  2  3  1  0
  2 11  1  0
  3  4  1  0
  5  4  1  6
  5  6  1  0
  5 10  1  0
  6  7  1  0
  7  8  1  0
  8  9  1  0
  9 10  1  0
 11 12  1  0
 11 20  1  0
 12 13  2  0
 12 14  1  0
 14 15  1  6
 14 19  1  0
 15 16  1  0
 16 17  1  0
 17 18  1  0
 19 18  1  1
 19 20  1  0
 20 21  2  0
M  CHG  1  10   1
M  END
