
     RDKit          3D

 21 23  0  0  0  0  0  0  0  0999 V2000
   -4.4420   -0.1700    3.0370 O   0  0  0  0  0  0  0  0  0  0  0  0
   -3.9480    0.2860    1.9650 C   0  0  0  0  0  0  0  0  0  0  0  0
   -2.5970   -0.0960    1.4740 C   0  0  0  0  0  0  0  0  0  0  0  0
   -2.5750   -0.4710    0.0970 N   0  0  2  0  0  0  0  0  0  0  0  0
   -1.3780    0.0300   -0.6000 C   0  0  2  0  0  0  0  0  0  0  0  0
   -1.2210   -0.7760   -1.8380 C   0  0  0  0  0  0  0  0  0  0  0  0
    0.0960   -1.5010   -1.9410 C   0  0  0  0  0  0  0  0  0  0  0  0
    1.0950   -0.6460   -1.5660 O   0  0  0  0  0  0  0  0  0  0  0  0
    1.0700   -0.4110   -0.2010 C   0  0  1  0  0  0  0  0  0  0  0  0
    1.6160   -1.6190    0.5730 C   0  0  0  0  0  0  0  0  0  0  0  0
    3.0450   -1.6290    0.1200 C   0  0  0  0  0  0  0  0  0  0  0  0
    3.3960   -0.2170    0.1760 N   0  0  0  0  0  0  0  0  0  0  0  0
    4.6950    0.3150    0.2890 C   0  0  0  0  0  0  0  0  0  0  0  0
    5.6930   -0.4670    0.3520 O   0  0  0  0  0  0  0  0  0  0  0  0
    4.9400    1.7680    0.3370 C   0  0  0  0  0  0  0  0  0  0  0  0
    6.2970    2.0470    0.4490 O   0  0  0  0  0  0  0  0  0  0  0  0
    2.1740    0.5900    0.0950 C   0  0  0  0  0  0  0  0  0  0  0  0
   -0.2330    0.0490    0.3280 C   0  0  0  0  0  0  0  0  0  0  0  0
   -3.7590   -0.0820   -0.6280 C   0  0  0  0  0  0  0  0  0  0  0  0
   -4.2290    1.3220   -0.2350 C   0  0  0  0  0  0  0  0  0  0  0  0
   -4.6740    1.2140    1.1460 N   0  0  0  0  0  0  0  0  0  0  0  0
  1  2  2  0
  2  3  1  0
  2 21  1  0
  4  3  1  1
  4  5  1  0
  4 19  1  0
  5  6  1  6
  5 18  1  0
  6  7  1  0
  7  8  1  0
  8  9  1  0
  9 10  1  1
  9 17  1  0
  9 18  1  0
 10 11  1  0
 11 12  1  0
 12 13  1  0
 12 17  1  0
 13 14  2  0
 13 15  1  0
 15 16  1  0
 19 20  1  0
 20 21  1  0
M  CHG  1   4   1
M  END
