
     RDKit          3D

 10 10  0  0  0  0  0  0  0  0999 V2000
    0.5700   -2.0200    3.7480 O   0  0  0  0  0  0  0  0  0  0  0  0
    1.4950   -1.7640    2.7060 C   0  0  0  0  0  0  0  0  0  0  0  0
    0.9930   -1.0980    1.6640 C   0  0  0  0  0  0  0  0  0  0  0  0
    0.4840   -0.3910    0.5690 C   0  0  0  0  0  0  0  0  0  0  0  0
   -0.0210    0.2700   -0.4870 C   0  0  0  0  0  0  0  0  0  0  0  0
    0.7250    1.2300   -1.0590 C   0  0  0  0  0  0  0  0  0  0  0  0
    0.1600    2.1330   -2.4270 S   0  0  0  0  0  0  0  0  0  0  0  0
   -1.5320    1.6880   -2.8160 C   0  0  0  0  0  0  0  0  0  0  0  0
   -1.9400    0.6240   -1.9560 N   0  0  0  0  0  0  0  0  0  0  0  0
   -1.3760    0.0500   -1.0400 C   0  0  0  0  0  0  0  0  0  0  0  0
  1  2  1  0
  2  3  1  0
  3  4  3  0
  4  5  1  0
  5  6  2  0
  5 10  1  0
  6  7  1  0
  7  8  1  0
  8  9  1  0
  9 10  2  0
M  END
