
     RDKit          3D

 21 23  0  0  0  0  0  0  0  0999 V2000
   -1.3750    3.2660    0.7970 O   0  0  0  0  0  0  0  0  0  0  0  0
   -0.4330    2.4570    0.8760 C   0  0  0  0  0  0  0  0  0  0  0  0
    0.7110    2.6450    1.6920 N   0  0  0  0  0  0  0  0  0  0  0  0
    1.5100    1.4810    2.0040 C   0  0  0  0  0  0  0  0  0  0  0  0
    1.8050    0.8040    0.6860 C   0  0  1  0  0  0  0  0  0  0  0  0
    2.6560   -0.2410    0.8710 O   0  0  0  0  0  0  0  0  0  0  0  0
    3.8300   -0.2540    0.2320 C   0  0  1  0  0  0  0  0  0  0  0  0
    5.0750   -0.2990    1.0710 C   0  0  0  0  0  0  0  0  0  0  0  0
    6.0710   -0.7040   -0.0060 C   0  0  0  0  0  0  0  0  0  0  0  0
    5.3890   -1.7750   -0.6020 O   0  0  0  0  0  0  0  0  0  0  0  0
    4.0670   -1.4080   -0.7020 C   0  0  0  0  0  0  0  0  0  0  0  0
    0.4990    0.3380    0.1390 C   0  0  0  0  0  0  0  0  0  0  0  0
    0.4040   -0.8680   -0.2370 O   0  0  0  0  0  0  0  0  0  0  0  0
   -0.5640    1.2790    0.0700 N   0  0  0  0  0  0  0  0  0  0  0  0
   -1.6620    1.0550   -0.7630 C   0  0  0  0  0  0  0  0  0  0  0  0
   -2.8880    0.4070   -0.3180 C   0  0  2  0  0  0  0  0  0  0  0  0
   -2.6410   -0.9860    0.1850 C   0  0  0  0  0  0  0  0  0  0  0  0
   -3.9370   -1.6300    0.6880 C   0  0  0  0  0  0  0  0  0  0  0  0
   -5.0180   -1.3790   -0.3100 C   0  0  0  0  0  0  0  0  0  0  0  0
   -4.3530   -1.0180   -1.6180 C   0  0  0  0  0  0  0  0  0  0  0  0
   -3.7740    0.2760   -1.4880 N   0  0  0  0  0  0  0  0  0  0  0  0
  1  2  2  0
  2  3  1  0
  2 14  1  0
  3  4  1  0
  4  5  1  0
  5  6  1  1
  5 12  1  0
  7  6  1  1
  7  8  1  0
  7 11  1  0
  8  9  1  0
  9 10  1  0
 10 11  1  0
 12 13  2  0
 12 14  1  0
 14 15  1  0
 16 15  1  6
 16 17  1  0
 16 21  1  0
 17 18  1  0
 18 19  1  0
 19 20  1  0
 20 21  1  0
M  CHG  1  21   1
M  END
