
     RDKit          3D

 21 22  0  0  0  0  0  0  0  0999 V2000
    3.8660   -0.6970    0.9060 C   0  0  0  0  0  0  0  0  0  0  0  0
    3.3780   -0.8410   -0.5180 C   0  0  0  0  0  0  0  0  0  0  0  0
    2.2890    0.0060   -0.8620 N   0  0  2  0  0  0  0  0  0  0  0  0
    2.1850    1.1850   -0.0330 C   0  0  0  0  0  0  0  0  0  0  0  0
    1.3780    2.2530   -0.6840 C   0  0  0  0  0  0  0  0  0  0  0  0
    0.5860    2.8960    0.2290 O   0  0  0  0  0  0  0  0  0  0  0  0
   -0.2300    2.1220    1.0000 C   0  0  0  0  0  0  0  0  0  0  0  0
   -1.7060    2.4290    0.8370 C   0  0  0  0  0  0  0  0  0  0  0  0
   -2.1810    2.3620   -0.4640 O   0  0  0  0  0  0  0  0  0  0  0  0
   -3.0700    1.3590   -0.9940 C   0  0  0  0  0  0  0  0  0  0  0  0
   -4.0810    1.9380   -1.5720 O   0  0  0  0  0  0  0  0  0  0  0  0
   -2.6820   -0.0470   -0.7880 C   0  0  0  0  0  0  0  0  0  0  0  0
   -2.8950   -0.7000    0.3570 C   0  0  0  0  0  0  0  0  0  0  0  0
   -4.0320   -1.0590    1.2730 C   0  0  0  0  0  0  0  0  0  0  0  0
   -1.6330   -1.2660    0.8840 N   0  0  0  0  0  0  0  0  0  0  0  0
   -0.7430   -2.0710    0.0360 C   0  0  2  0  0  0  0  0  0  0  0  0
    0.6640   -1.6410    0.0290 C   0  0  0  0  0  0  0  0  0  0  0  0
    1.0670   -0.7110   -1.0600 C   0  0  0  0  0  0  0  0  0  0  0  0
   -1.4360   -2.1040   -1.2850 C   0  0  0  0  0  0  0  0  0  0  0  0
   -1.6380   -3.0940   -1.9760 O   0  0  0  0  0  0  0  0  0  0  0  0
   -1.8890   -0.7860   -1.7320 N   0  0  0  0  0  0  0  0  0  0  0  0
  1  2  1  0
  3  2  1  1
  3  4  1  0
  3 18  1  0
  4  5  1  0
  5  6  1  0
  6  7  1  0
  7  8  1  0
  8  9  1  0
  9 10  1  0
 10 11  2  0
 10 12  1  0
 12 13  2  0
 12 21  1  0
 13 14  1  0
 13 15  1  0
 15 16  1  0
 16 17  1  6
 16 19  1  0
 17 18  1  0
 19 20  2  0
 19 21  1  0
M  CHG  1   3   1
M  END
