
     RDKit          3D

 23 24  0  0  0  0  0  0  0  0999 V2000
    6.3900    1.8260    1.2440 N   0  0  0  0  0  0  0  0  0  0  0  0
    5.9590    1.3860   -0.3810 S   0  0  1  0  0  0  0  0  0  0  0  0
    5.8950    2.5730   -1.2810 O   0  0  0  0  0  0  0  0  0  0  0  0
    7.0030    0.4020   -0.8490 O   0  0  0  0  0  0  0  0  0  0  0  0
    4.3700    0.6590   -0.3380 C   0  0  0  0  0  0  0  0  0  0  0  0
    3.2230    1.4010   -0.4750 C   0  0  0  0  0  0  0  0  0  0  0  0
    1.9510    0.8080   -0.4380 C   0  0  0  0  0  0  0  0  0  0  0  0
    1.7920   -0.5460   -0.2630 C   0  0  0  0  0  0  0  0  0  0  0  0
    0.5850   -1.2440   -0.2030 N   0  0  0  0  0  0  0  0  0  0  0  0
   -0.7240   -0.6790   -0.2100 C   0  0  0  0  0  0  0  0  0  0  0  0
   -0.8610    0.5460   -0.2740 O   0  0  0  0  0  0  0  0  0  0  0  0
   -1.8630   -1.5070   -0.1460 N   0  0  0  0  0  0  0  0  0  0  0  0
   -3.2180   -1.0990   -0.1430 C   0  0  0  0  0  0  0  0  0  0  0  0
   -4.2320   -2.0730   -0.1390 C   0  0  0  0  0  0  0  0  0  0  0  0
   -5.5590   -1.7400   -0.1330 C   0  0  0  0  0  0  0  0  0  0  0  0
   -5.9900   -0.4390   -0.1290 C   0  0  0  0  0  0  0  0  0  0  0  0
   -5.0250    0.5400   -0.1320 C   0  0  0  0  0  0  0  0  0  0  0  0
   -5.4200    1.8950   -0.1280 N   0  0  0  0  0  0  0  0  0  0  0  0
   -6.6140    2.1880   -0.1220 O   0  0  0  0  0  0  0  0  0  0  0  0
   -4.4730    2.8710   -0.1320 O   0  0  0  0  0  0  0  0  0  0  0  0
   -3.6620    0.1970   -0.1390 C   0  0  0  0  0  0  0  0  0  0  0  0
    2.9860   -1.2630   -0.1280 C   0  0  0  0  0  0  0  0  0  0  0  0
    4.2250   -0.6920   -0.1630 C   0  0  0  0  0  0  0  0  0  0  0  0
  2  1  1  1
  2  3  2  0
  2  4  2  0
  2  5  1  0
  5  6  2  0
  5 23  1  0
  6  7  1  0
  7  8  2  0
  8  9  1  0
  8 22  1  0
  9 10  1  0
 10 11  2  0
 10 12  1  0
 12 13  1  0
 13 14  2  0
 13 21  1  0
 14 15  1  0
 15 16  2  0
 16 17  1  0
 17 18  1  0
 17 21  2  0
 18 19  2  0
 18 20  1  0
 22 23  2  0
M  CHG  2  18   1  20  -1
M  END
