
     RDKit          3D

 21 23  0  0  0  0  0  0  0  0999 V2000
    6.9080   -0.5470    0.4830 C   0  0  0  0  0  0  0  0  0  0  0  0
    5.7440   -0.5090   -0.3530 O   0  0  0  0  0  0  0  0  0  0  0  0
    4.4740   -0.5840    0.2270 C   0  0  0  0  0  0  0  0  0  0  0  0
    4.4330   -0.6820    1.4710 O   0  0  0  0  0  0  0  0  0  0  0  0
    3.2950   -0.5490   -0.5600 N   0  0  0  0  0  0  0  0  0  0  0  0
    3.3240   -0.4350   -2.0040 C   0  0  0  0  0  0  0  0  0  0  0  0
    2.5070    0.7540   -2.3800 C   0  0  0  0  0  0  0  0  0  0  0  0
    2.8070    1.3840   -3.4430 O   0  0  0  0  0  0  0  0  0  0  0  0
    1.4500    1.1150   -1.5400 N   0  0  0  0  0  0  0  0  0  0  0  0
    0.9500    0.1920   -0.5570 C   0  0  2  0  0  0  0  0  0  0  0  0
   -0.0610   -0.7050   -1.2850 C   0  0  0  0  0  0  0  0  0  0  0  0
   -1.3580   -0.0610   -0.8340 C   0  0  0  0  0  0  0  0  0  0  0  0
   -1.0630    0.1350    0.5850 N   0  0  2  0  0  0  0  0  0  0  0  0
   -2.1270    0.7380    1.3010 C   0  0  0  0  0  0  0  0  0  0  0  0
   -3.4920    0.4500    0.7670 C   0  0  2  0  0  0  0  0  0  0  0  0
   -4.5930    0.9540    1.6780 C   0  0  0  0  0  0  0  0  0  0  0  0
   -5.7790    0.2560    1.0400 C   0  0  0  0  0  0  0  0  0  0  0  0
   -5.1450   -0.9300    0.3890 C   0  0  0  0  0  0  0  0  0  0  0  0
   -3.7890   -0.9240    0.7660 O   0  0  0  0  0  0  0  0  0  0  0  0
    0.1390    0.9110    0.5180 C   0  0  0  0  0  0  0  0  0  0  0  0
    2.0230   -0.6300    0.1000 C   0  0  0  0  0  0  0  0  0  0  0  0
  1  2  1  0
  2  3  1  0
  3  4  2  0
  3  5  1  0
  5  6  1  0
  5 21  1  0
  6  7  1  0
  7  8  2  0
  7  9  1  0
  9 10  1  0
 10 11  1  6
 10 20  1  0
 10 21  1  0
 11 12  1  0
 12 13  1  0
 13 14  1  6
 13 20  1  0
 15 14  1  1
 15 16  1  0
 15 19  1  0
 16 17  1  0
 17 18  1  0
 18 19  1  0
M  CHG  1  13   1
M  END
