
     RDKit          3D

 31 33  0  0  0  0  0  0  0  0999 V2000
   -4.3400   -0.6230    3.4110 C   0  0  0  0  0  0  0  0  0  0  0  0
   -3.6110   -1.2140    2.2640 C   0  0  0  0  0  0  0  0  0  0  0  0
   -4.0850   -0.9530    0.8920 C   0  0  2  0  0  0  0  0  0  0  0  0
   -5.4940   -1.5050    0.7390 C   0  0  0  0  0  0  0  0  0  0  0  0
   -6.4920   -0.9660    1.5810 N   0  0  0  0  0  0  0  0  0  0  0  0
   -3.2700   -1.8550   -0.0530 C   0  0  0  0  0  0  0  0  0  0  0  0
   -3.7610   -1.7210   -1.4390 C   0  0  0  0  0  0  0  0  0  0  0  0
   -4.3730   -0.4600   -1.8740 C   0  0  0  0  0  0  0  0  0  0  0  0
   -4.8180    0.4390   -0.8610 N   0  0  0  0  0  0  0  0  0  0  0  0
   -3.9500    0.4140    0.3450 C   0  0  2  0  0  0  0  0  0  0  0  0
   -2.6600    0.8930   -0.1720 C   0  0  0  0  0  0  0  0  0  0  0  0
   -1.4750    0.9690    0.7010 C   0  0  0  0  0  0  0  0  0  0  0  0
   -0.3660    1.5270   -0.1530 N   0  0  0  0  0  0  0  0  0  0  0  0
    0.3970    0.5880   -0.9180 C   0  0  0  0  0  0  0  0  0  0  0  0
   -0.1680    2.9060   -0.2160 C   0  0  0  0  0  0  0  0  0  0  0  0
   -1.0780    3.5950    0.4430 O   0  0  0  0  0  0  0  0  0  0  0  0
    0.8570    3.6930   -0.8810 C   0  0  0  0  0  0  0  0  0  0  0  0
    1.9320    3.0060   -1.5040 N   0  0  0  0  0  0  0  0  0  0  0  0
    2.8740    2.2500   -0.7090 C   0  0  0  0  0  0  0  0  0  0  0  0
    2.7560    2.1970    0.5320 O   0  0  0  0  0  0  0  0  0  0  0  0
    3.9280    1.5700   -1.3360 N   0  0  0  0  0  0  0  0  0  0  0  0
    4.9250    0.7840   -0.7140 C   0  0  0  0  0  0  0  0  0  0  0  0
    4.9030    0.4070    0.5970 C   0  0  0  0  0  0  0  0  0  0  0  0
    5.9430   -0.3670    1.1510 C   0  0  0  0  0  0  0  0  0  0  0  0
    7.0200   -0.7770    0.4070 C   0  0  0  0  0  0  0  0  0  0  0  0
    7.0500   -0.4030   -0.9160 C   0  0  0  0  0  0  0  0  0  0  0  0
    6.0370    0.3510   -1.4520 C   0  0  0  0  0  0  0  0  0  0  0  0
    8.1460   -0.8250   -1.6560 O   0  0  0  0  0  0  0  0  0  0  0  0
    8.9870   -1.8850   -1.2660 C   0  0  0  0  0  0  0  0  0  0  0  0
    9.1370   -2.0160    0.2200 C   0  0  0  0  0  0  0  0  0  0  0  0
    8.0420   -1.5340    0.9380 O   0  0  0  0  0  0  0  0  0  0  0  0
  1  2  1  0
  3  2  1  1
  3  4  1  0
  3  6  1  0
  3 10  1  0
  4  5  1  0
  6  7  1  0
  7  8  1  0
  8  9  1  0
  9 10  1  0
 10 11  1  6
 11 12  1  0
 12 13  1  0
 13 14  1  0
 13 15  1  0
 15 16  2  0
 15 17  1  0
 17 18  1  0
 18 19  1  0
 19 20  2  0
 19 21  1  0
 21 22  1  0
 22 23  2  0
 22 27  1  0
 23 24  1  0
 24 25  2  0
 25 26  1  0
 25 31  1  0
 26 27  2  0
 26 28  1  0
 28 29  1  0
 29 30  1  0
 30 31  1  0
M  CHG  2   5   1   9   1
M  END
