
     RDKit          3D

 31 34  0  0  0  0  0  0  0  0999 V2000
   -2.0970   -2.5500    0.8750 C   0  0  0  0  0  0  0  0  0  0  0  0
   -3.3080   -1.9560    0.2890 C   0  0  0  0  0  0  0  0  0  0  0  0
   -4.4210   -2.6490   -0.1680 C   0  0  0  0  0  0  0  0  0  0  0  0
   -4.6380   -4.1050   -0.1750 C   0  0  0  0  0  0  0  0  0  0  0  0
   -3.7900   -4.9040    0.2550 O   0  0  0  0  0  0  0  0  0  0  0  0
   -5.2820   -1.7180   -0.6130 N   0  0  0  0  0  0  0  0  0  0  0  0
   -4.7560   -0.4870   -0.4540 C   0  0  0  0  0  0  0  0  0  0  0  0
   -5.2540    0.7680   -0.7540 C   0  0  0  0  0  0  0  0  0  0  0  0
   -4.5240    1.8760   -0.4940 C   0  0  0  0  0  0  0  0  0  0  0  0
   -3.2740    1.7630    0.0750 C   0  0  0  0  0  0  0  0  0  0  0  0
   -2.7350    0.5190    0.3930 C   0  0  0  0  0  0  0  0  0  0  0  0
   -1.4690    0.4080    0.9680 O   0  0  0  0  0  0  0  0  0  0  0  0
   -0.3830    0.3000    0.0840 C   0  0  0  0  0  0  0  0  0  0  0  0
    0.9130    0.1860    0.7930 C   0  0  0  0  0  0  0  0  0  0  0  0
    1.0010    0.1880    2.0310 O   0  0  0  0  0  0  0  0  0  0  0  0
    2.1180    0.0690    0.0300 N   0  0  0  0  0  0  0  0  0  0  0  0
    3.4010   -0.0430    0.6680 C   0  0  0  0  0  0  0  0  0  0  0  0
    4.5300   -0.1530   -0.2610 C   0  0  0  0  0  0  0  0  0  0  0  0
    4.4820   -0.1590   -1.6270 C   0  0  0  0  0  0  0  0  0  0  0  0
    5.6360   -0.2700   -2.4120 C   0  0  0  0  0  0  0  0  0  0  0  0
    6.8750   -0.3790   -1.8420 C   0  0  0  0  0  0  0  0  0  0  0  0
    6.9370   -0.3750   -0.4770 C   0  0  0  0  0  0  0  0  0  0  0  0
    5.8090   -0.2660    0.3020 C   0  0  0  0  0  0  0  0  0  0  0  0
    5.9160   -0.2650    1.7750 C   0  0  0  0  0  0  0  0  0  0  0  0
    5.5170   -1.5120    2.2740 F   0  0  0  0  0  0  0  0  0  0  0  0
   -3.4990   -0.5920    0.1180 C   0  0  0  0  0  0  0  0  0  0  0  0
   -2.4590    2.8560    0.3730 O   0  0  0  0  0  0  0  0  0  0  0  0
   -2.7980    4.1710    0.1380 C   0  0  0  0  0  0  0  0  0  0  0  0
   -1.9280    5.0310   -0.2330 O   0  0  0  0  0  0  0  0  0  0  0  0
   -4.2200    4.5880    0.3270 C   0  0  0  0  0  0  0  0  0  0  0  0
   -5.1430    3.5340   -0.8660 S   0  0  0  0  0  0  0  0  0  0  0  0
  1  2  1  0
  2  3  2  0
  2 26  1  0
  3  4  1  0
  3  6  1  0
  4  5  2  0
  6  7  1  0
  7  8  2  0
  7 26  1  0
  8  9  1  0
  9 10  2  0
  9 31  1  0
 10 11  1  0
 10 27  1  0
 11 12  1  0
 11 26  2  0
 12 13  1  0
 13 14  1  0
 14 15  2  0
 14 16  1  0
 16 17  1  0
 17 18  1  0
 18 19  2  0
 18 23  1  0
 19 20  1  0
 20 21  2  0
 21 22  1  0
 22 23  2  0
 23 24  1  0
 24 25  1  0
 27 28  1  0
 28 29  2  0
 28 30  1  0
 30 31  1  0
M  END
