
     RDKit          3D

 31 34  0  0  0  0  0  0  0  0999 V2000
    0.9610   -3.5010   -3.2410 C   0  0  0  0  0  0  0  0  0  0  0  0
   -0.0100   -3.3770   -2.2190 O   0  0  0  0  0  0  0  0  0  0  0  0
    0.1960   -2.4240   -1.2310 C   0  0  0  0  0  0  0  0  0  0  0  0
    1.3060   -1.6110   -1.2250 C   0  0  0  0  0  0  0  0  0  0  0  0
    1.5560   -0.6510   -0.2670 C   0  0  0  0  0  0  0  0  0  0  0  0
    2.6640    0.1750   -0.2420 O   0  0  0  0  0  0  0  0  0  0  0  0
    3.7220    0.2290   -1.1260 C   0  0  2  0  0  0  0  0  0  0  0  0
    5.0590   -0.0950   -0.4920 C   0  0  0  0  0  0  0  0  0  0  0  0
    5.3570    0.8430    0.6420 C   0  0  0  0  0  0  0  0  0  0  0  0
    4.9290    2.2540    0.3730 C   0  0  0  0  0  0  0  0  0  0  0  0
    4.6430    2.5690   -1.0420 C   0  0  0  0  0  0  0  0  0  0  0  0
    3.8870    1.5590   -1.8100 C   0  0  0  0  0  0  0  0  0  0  0  0
    0.6350   -0.4740    0.7760 C   0  0  0  0  0  0  0  0  0  0  0  0
    0.8750    0.4880    1.7470 O   0  0  0  0  0  0  0  0  0  0  0  0
   -0.0420    0.6780    2.8060 C   0  0  0  0  0  0  0  0  0  0  0  0
   -0.4720   -1.2890    0.7640 C   0  0  0  0  0  0  0  0  0  0  0  0
   -0.7260   -2.2490   -0.1910 C   0  0  0  0  0  0  0  0  0  0  0  0
   -1.8810   -3.1500   -0.2150 C   0  0  0  0  0  0  0  0  0  0  0  0
   -3.1110   -2.9300    1.0430 S   0  0  0  0  0  0  0  0  0  0  0  0
   -4.0670   -1.4470    0.8190 C   0  0  0  0  0  0  0  0  0  0  0  0
   -3.7390   -0.2860    1.3970 N   0  0  0  0  0  0  0  0  0  0  0  0
   -4.4450    0.8290    1.2520 C   0  0  0  0  0  0  0  0  0  0  0  0
   -5.5910    0.8380    0.4690 C   0  0  0  0  0  0  0  0  0  0  0  0
   -5.9400   -0.3530   -0.1310 C   0  0  0  0  0  0  0  0  0  0  0  0
   -6.9820   -0.3710   -0.8510 O   0  0  0  0  0  0  0  0  0  0  0  0
   -5.1820   -1.4420    0.0560 N   0  0  0  0  0  0  0  0  0  0  0  0
   -6.2830    1.9430    0.3310 C   0  0  0  0  0  0  0  0  0  0  0  0
   -5.9070    3.1140    0.9460 O   0  0  0  0  0  0  0  0  0  0  0  0
   -4.7760    3.2040    1.7490 C   0  0  1  0  0  0  0  0  0  0  0  0
   -5.1700    3.6350    3.0030 F   0  0  0  0  0  0  0  0  0  0  0  0
   -4.0450    1.9310    1.8630 C   0  0  0  0  0  0  0  0  0  0  0  0
  1  2  1  0
  2  3  1  0
  3  4  2  0
  3 17  1  0
  4  5  1  0
  5  6  1  0
  5 13  2  0
  7  6  1  1
  7  8  1  0
  7 12  1  0
  8  9  1  0
  9 10  1  0
 10 11  1  0
 11 12  1  0
 13 14  1  0
 13 16  1  0
 14 15  1  0
 16 17  2  0
 17 18  1  0
 18 19  1  0
 19 20  1  0
 20 21  2  0
 20 26  1  0
 21 22  1  0
 22 23  1  0
 22 31  2  0
 23 24  1  0
 23 27  2  0
 24 25  2  0
 24 26  1  0
 27 28  1  0
 28 29  1  0
 29 30  1  1
 29 31  1  0
M  END
