
     RDKit          3D

 31 33  0  0  0  0  0  0  0  0999 V2000
   -3.9560    5.5050   -1.0520 C   0  0  0  0  0  0  0  0  0  0  0  0
   -3.7740    4.8030    0.2660 C   0  0  0  0  0  0  0  0  0  0  0  0
   -2.8080    3.6900    0.1900 C   0  0  0  0  0  0  0  0  0  0  0  0
   -3.2110    2.3590    0.1570 C   0  0  0  0  0  0  0  0  0  0  0  0
   -2.2250    1.3870    0.0850 C   0  0  0  0  0  0  0  0  0  0  0  0
   -0.8760    1.6800    0.0440 C   0  0  0  0  0  0  0  0  0  0  0  0
   -0.4850    2.9810    0.0760 C   0  0  0  0  0  0  0  0  0  0  0  0
   -1.4610    3.9850    0.1490 C   0  0  0  0  0  0  0  0  0  0  0  0
   -1.0450    5.3340    0.1820 N   0  0  0  0  0  0  0  0  0  0  0  0
    0.0810    0.5800   -0.0220 N   0  0  0  0  0  0  0  0  0  0  0  0
    1.2940    0.7220    0.6880 C   0  0  0  0  0  0  0  0  0  0  0  0
    1.3950    1.7430    1.4940 O   0  0  0  0  0  0  0  0  0  0  0  0
    2.4900   -0.1490    0.6420 C   0  0  1  0  0  0  0  0  0  0  0  0
    2.5960   -0.9480    1.9440 C   0  0  0  0  0  0  0  0  0  0  0  0
    2.6980   -0.9440   -0.5020 N   0  0  0  0  0  0  0  0  0  0  0  0
    4.0960   -0.9760   -0.9430 C   0  0  2  0  0  0  0  0  0  0  0  0
    4.7980   -2.0930   -0.2410 C   0  0  0  0  0  0  0  0  0  0  0  0
    6.3080   -1.8400   -0.3440 C   0  0  0  0  0  0  0  0  0  0  0  0
    6.5560   -0.5870    0.4070 C   0  0  0  0  0  0  0  0  0  0  0  0
    7.5560   -0.4980    1.1580 O   0  0  0  0  0  0  0  0  0  0  0  0
    5.6580    0.4570    0.2490 O   0  0  0  0  0  0  0  0  0  0  0  0
    4.7880    0.3370   -0.8890 C   0  0  0  0  0  0  0  0  0  0  0  0
   -0.3220   -0.5730   -0.7830 C   0  0  0  0  0  0  0  0  0  0  0  0
   -1.7660   -0.8740   -0.7600 C   0  0  1  0  0  0  0  0  0  0  0  0
   -2.0660   -2.3350   -0.4920 C   0  0  1  0  0  0  0  0  0  0  0  0
   -1.5800   -2.8640    0.7990 C   0  0  0  0  0  0  0  0  0  0  0  0
   -2.1300   -2.1920    1.9700 N   0  0  0  0  0  0  0  0  0  0  0  0
   -3.5290   -2.6130   -0.6720 C   0  0  0  0  0  0  0  0  0  0  0  0
   -3.8780   -4.0690   -0.4150 C   0  0  0  0  0  0  0  0  0  0  0  0
   -3.1910   -4.9300   -1.2670 O   0  0  0  0  0  0  0  0  0  0  0  0
   -2.5470    0.0040    0.0540 N   0  0  0  0  0  0  0  0  0  0  0  0
  1  2  1  0
  2  3  1  0
  3  4  2  0
  3  8  1  0
  4  5  1  0
  5  6  2  0
  5 31  1  0
  6  7  1  0
  6 10  1  0
  7  8  2  0
  8  9  1  0
 10 11  1  0
 10 23  1  0
 11 12  2  0
 11 13  1  0
 13 14  1  1
 13 15  1  0
 16 15  1  1
 16 17  1  0
 16 22  1  0
 17 18  1  0
 18 19  1  0
 19 20  2  0
 19 21  1  0
 21 22  1  0
 24 23  1  1
 24 25  1  0
 24 31  1  0
 25 26  1  1
 25 28  1  0
 26 27  1  0
 28 29  1  0
 29 30  1  0
M  CHG  2  15   1  27   1
M  END
