
     RDKit          3D

 31 34  0  0  0  0  0  0  0  0999 V2000
    7.6550   -1.5080    0.1450 C   0  0  0  0  0  0  0  0  0  0  0  0
    7.8680   -0.5810   -0.9840 C   0  0  0  0  0  0  0  0  0  0  0  0
    8.9450   -0.6730   -1.6330 O   0  0  0  0  0  0  0  0  0  0  0  0
    6.9130    0.4310   -1.3950 C   0  0  0  0  0  0  0  0  0  0  0  0
    5.7810    0.5830   -0.7730 C   0  0  0  0  0  0  0  0  0  0  0  0
    4.6720    1.5360   -1.0150 C   0  0  0  0  0  0  0  0  0  0  0  0
    3.3890    0.9170   -0.7000 C   0  0  0  0  0  0  0  0  0  0  0  0
    2.1110    1.2330   -1.1890 C   0  0  0  0  0  0  0  0  0  0  0  0
    0.9960    0.5710   -0.7900 C   0  0  0  0  0  0  0  0  0  0  0  0
   -0.3500    0.9390   -1.3350 C   0  0  0  0  0  0  0  0  0  0  0  0
   -0.2310    1.9770   -2.2350 F   0  0  0  0  0  0  0  0  0  0  0  0
    1.0340   -0.4720    0.1360 C   0  0  0  0  0  0  0  0  0  0  0  0
   -0.1430   -1.1300    0.5240 N   0  0  0  0  0  0  0  0  0  0  0  0
   -0.2420   -2.1780    1.4250 C   0  0  0  0  0  0  0  0  0  0  0  0
    0.7750   -2.6460    1.9830 O   0  0  0  0  0  0  0  0  0  0  0  0
   -1.5570   -2.8210    1.7890 C   0  0  0  0  0  0  0  0  0  0  0  0
   -2.6900   -2.2140    1.1760 N   0  0  0  0  0  0  0  0  0  0  0  0
   -3.1150   -0.8830    1.3970 C   0  0  0  0  0  0  0  0  0  0  0  0
   -2.4270   -0.1830    2.2210 O   0  0  0  0  0  0  0  0  0  0  0  0
   -4.2570   -0.2360    0.7790 C   0  0  0  0  0  0  0  0  0  0  0  0
   -5.0830   -0.9300   -0.0630 C   0  0  0  0  0  0  0  0  0  0  0  0
   -6.1910   -0.3530   -0.6840 C   0  0  0  0  0  0  0  0  0  0  0  0
   -6.4750    0.9800   -0.4440 C   0  0  0  0  0  0  0  0  0  0  0  0
   -5.6480    1.6750    0.3990 C   0  0  0  0  0  0  0  0  0  0  0  0
   -4.5510    1.1030    1.0130 C   0  0  0  0  0  0  0  0  0  0  0  0
   -6.1640    2.9800    0.4600 O   0  0  0  0  0  0  0  0  0  0  0  0
   -7.5400    2.9020    0.0430 C   0  0  0  0  0  0  0  0  0  0  0  0
   -7.4620    1.8380   -0.8820 O   0  0  0  0  0  0  0  0  0  0  0  0
    2.2830   -0.7940    0.6240 C   0  0  0  0  0  0  0  0  0  0  0  0
    3.4100   -0.1040    0.2020 C   0  0  0  0  0  0  0  0  0  0  0  0
    5.1250   -0.3330    0.6510 S   0  0  0  0  0  0  0  0  0  0  0  0
  1  2  1  0
  2  3  2  0
  2  4  1  0
  4  5  2  3
  5  6  1  0
  5 31  1  0
  6  7  1  0
  7  8  2  0
  7 30  1  0
  8  9  1  0
  9 10  1  0
  9 12  2  0
 10 11  1  0
 12 13  1  0
 12 29  1  0
 13 14  1  0
 14 15  2  0
 14 16  1  0
 16 17  1  0
 17 18  1  0
 18 19  2  0
 18 20  1  0
 20 21  2  0
 20 25  1  0
 21 22  1  0
 22 23  2  0
 23 24  1  0
 23 28  1  0
 24 25  2  0
 24 26  1  0
 26 27  1  0
 27 28  1  0
 29 30  2  0
 30 31  1  0
M  END
