
     RDKit          3D

 31 34  0  0  0  0  0  0  0  0999 V2000
   -9.1330   -1.0970   -2.2150 C   0  0  0  0  0  0  0  0  0  0  0  0
   -7.6740   -0.9490   -1.9110 C   0  0  0  0  0  0  0  0  0  0  0  0
   -6.6930   -1.6500   -2.5610 C   0  0  0  0  0  0  0  0  0  0  0  0
   -5.4970   -1.2190   -1.9810 C   0  0  0  0  0  0  0  0  0  0  0  0
   -5.8260   -0.2920   -1.0250 C   0  0  0  0  0  0  0  0  0  0  0  0
   -4.8930    0.4350   -0.1570 C   0  0  0  0  0  0  0  0  0  0  0  0
   -3.5170    0.1840   -0.2870 C   0  0  0  0  0  0  0  0  0  0  0  0
   -2.6200    0.8260    0.4870 C   0  0  0  0  0  0  0  0  0  0  0  0
   -1.2170    0.6770    0.4590 N   0  0  0  0  0  0  0  0  0  0  0  0
   -0.4710   -0.1200   -0.4360 C   0  0  0  0  0  0  0  0  0  0  0  0
   -1.0420   -0.7850   -1.3180 O   0  0  0  0  0  0  0  0  0  0  0  0
    0.9870   -0.2010   -0.3730 C   0  0  0  0  0  0  0  0  0  0  0  0
    1.8660    0.4190    0.4870 C   0  0  0  0  0  0  0  0  0  0  0  0
    3.1760    0.1610    0.3180 C   0  0  0  0  0  0  0  0  0  0  0  0
    3.5530   -0.6690   -0.6600 C   0  0  0  0  0  0  0  0  0  0  0  0
    4.9210   -1.1090   -1.0460 C   0  0  0  0  0  0  0  0  0  0  0  0
    4.9800   -1.8980   -2.0070 O   0  0  0  0  0  0  0  0  0  0  0  0
    6.0690   -0.6650   -0.3710 N   0  0  0  0  0  0  0  0  0  0  0  0
    7.4070   -1.0800   -0.7310 C   0  0  2  0  0  0  0  0  0  0  0  0
    8.1220   -1.7790    0.3980 C   0  0  0  0  0  0  0  0  0  0  0  0
    9.5390   -1.3620    0.1980 C   0  0  0  0  0  0  0  0  0  0  0  0
    9.5850   -0.2770   -0.6280 O   0  0  0  0  0  0  0  0  0  0  0  0
    8.3240    0.0630   -1.0280 C   0  0  0  0  0  0  0  0  0  0  0  0
    2.0570   -1.1330   -1.3980 S   0  0  0  0  0  0  0  0  0  0  0  0
   -3.1120    1.7450    1.4190 C   0  0  0  0  0  0  0  0  0  0  0  0
   -4.4490    2.0020    1.5610 C   0  0  0  0  0  0  0  0  0  0  0  0
   -4.9660    2.9040    2.4710 O   0  0  0  0  0  0  0  0  0  0  0  0
   -4.0730    3.6060    3.3070 C   0  0  0  0  0  0  0  0  0  0  0  0
   -3.1820    4.3700    2.6120 F   0  0  0  0  0  0  0  0  0  0  0  0
   -5.3510    1.3360    0.7600 C   0  0  0  0  0  0  0  0  0  0  0  0
   -7.1120   -0.1720   -1.0260 O   0  0  0  0  0  0  0  0  0  0  0  0
  1  2  1  0
  2  3  2  0
  2 31  1  0
  3  4  1  0
  4  5  2  0
  5  6  1  0
  5 31  1  0
  6  7  2  0
  6 30  1  0
  7  8  1  0
  8  9  1  0
  8 25  2  0
  9 10  1  0
 10 11  2  0
 10 12  1  0
 12 13  2  0
 12 24  1  0
 13 14  1  0
 14 15  2  0
 15 16  1  0
 15 24  1  0
 16 17  2  0
 16 18  1  0
 19 18  1  1
 19 20  1  0
 19 23  1  0
 20 21  1  0
 21 22  1  0
 22 23  1  0
 25 26  1  0
 26 27  1  0
 26 30  2  0
 27 28  1  0
 28 29  1  0
M  END
