
     RDKit          3D

 21 22  0  0  0  0  0  0  0  0999 V2000
    7.2750   -0.3190    1.0660 C   0  0  0  0  0  0  0  0  0  0  0  0
    6.0140    0.0130    0.3560 C   0  0  0  0  0  0  0  0  0  0  0  0
    5.0810    0.9650    0.6610 N   0  0  0  0  0  0  0  0  0  0  0  0
    4.1050    0.9220   -0.2380 C   0  0  0  0  0  0  0  0  0  0  0  0
    2.8480    1.6950   -0.4120 C   0  0  0  0  0  0  0  0  0  0  0  0
    1.7610    0.9220    0.2730 C   0  0  0  0  0  0  0  0  0  0  0  0
    1.7790    0.9210    1.5440 O   0  0  0  0  0  0  0  0  0  0  0  0
    0.7700    0.2310   -0.4050 N   0  0  0  0  0  0  0  0  0  0  0  0
   -0.3030   -0.5100    0.2860 C   0  0  0  0  0  0  0  0  0  0  0  0
   -0.2110   -0.4110    1.5390 O   0  0  0  0  0  0  0  0  0  0  0  0
   -1.4790   -1.3850   -0.6110 S   0  0  0  0  0  0  0  0  0  0  0  0
   -3.0560   -1.8180   -0.0920 C   0  0  0  0  0  0  0  0  0  0  0  0
   -4.1220   -0.7520   -0.2330 C   0  0  0  0  0  0  0  0  0  0  0  0
   -5.0460   -1.0280   -1.1420 C   0  0  0  0  0  0  0  0  0  0  0  0
   -6.2280   -0.2860   -1.5860 C   0  0  0  0  0  0  0  0  0  0  0  0
   -6.4690    1.2100   -0.6320 S   0  0  0  0  0  0  0  0  0  0  0  0
   -5.1300    1.3490    0.5010 C   0  0  0  0  0  0  0  0  0  0  0  0
   -4.1730    0.4350    0.5830 C   0  0  0  0  0  0  0  0  0  0  0  0
   -2.9670    0.6990    1.8170 Cl  0  0  0  0  0  0  0  0  0  0  0  0
    4.4630   -0.0830   -1.1050 N   0  0  0  0  0  0  0  0  0  0  0  0
    5.5820   -0.5850   -0.7200 O   0  0  0  0  0  0  0  0  0  0  0  0
  1  2  1  0
  2  3  2  0
  2 21  1  0
  3  4  1  0
  4  5  1  0
  4 20  2  0
  5  6  1  0
  6  7  2  0
  6  8  1  0
  8  9  1  0
  9 10  2  0
  9 11  1  0
 11 12  1  0
 12 13  1  0
 13 14  2  0
 13 18  1  0
 14 15  1  0
 15 16  1  0
 16 17  1  0
 17 18  2  0
 18 19  1  0
 20 21  1  0
M  END
