
     RDKit          3D

 21 22  0  0  0  0  0  0  0  0999 V2000
    3.0430   -1.2300    0.9490 O   0  0  0  0  0  0  0  0  0  0  0  0
    3.6690   -0.2380    0.5290 C   0  0  0  0  0  0  0  0  0  0  0  0
    5.0270    0.0220    0.7670 N   0  0  0  0  0  0  0  0  0  0  0  0
    5.7500   -0.9110    1.5820 C   0  0  0  0  0  0  0  0  0  0  0  0
    7.1760   -0.3450    1.6580 C   0  0  0  0  0  0  0  0  0  0  0  0
    7.1580    1.2950    2.3850 Cl  0  0  0  0  0  0  0  0  0  0  0  0
    2.9010    0.6490   -0.2200 N   0  0  0  0  0  0  0  0  0  0  0  0
    1.5690    0.2770   -0.5280 C   0  0  0  0  0  0  0  0  0  0  0  0
    0.8180    1.1510   -0.7820 N   0  0  0  0  0  0  0  0  0  0  0  0
   -0.4920    0.9590   -1.0800 C   0  0  0  0  0  0  0  0  0  0  0  0
   -1.2260    1.9350   -1.3270 O   0  0  0  0  0  0  0  0  0  0  0  0
   -0.9600   -0.4140   -1.0820 C   0  0  0  0  0  0  0  0  0  0  0  0
   -2.1220   -0.9800   -1.1100 C   0  0  0  0  0  0  0  0  0  0  0  0
   -3.4270   -0.3470   -1.1560 C   0  0  0  0  0  0  0  0  0  0  0  0
   -3.8880    0.6640   -1.9520 C   0  0  0  0  0  0  0  0  0  0  0  0
   -5.2070    0.9020   -1.5950 C   0  0  0  0  0  0  0  0  0  0  0  0
   -5.5040    0.0170   -0.5840 C   0  0  0  0  0  0  0  0  0  0  0  0
   -6.8320   -0.0990    0.1270 C   0  0  0  0  0  0  0  0  0  0  0  0
   -6.8580    0.9910    1.5550 S   0  0  0  0  0  0  0  0  0  0  0  0
   -4.4330   -0.6900   -0.3640 O   0  0  0  0  0  0  0  0  0  0  0  0
    0.6590   -1.2260   -1.0380 S   0  0  0  0  0  0  0  0  0  0  0  0
  1  2  2  0
  2  3  1  0
  2  7  1  0
  3  4  1  0
  4  5  1  0
  5  6  1  0
  7  8  1  0
  8  9  2  0
  8 21  1  0
  9 10  1  0
 10 11  2  0
 10 12  1  0
 12 13  2  3
 12 21  1  0
 13 14  1  0
 14 15  2  0
 14 20  1  0
 15 16  1  0
 16 17  2  0
 17 18  1  0
 17 20  1  0
 18 19  1  0
M  END
