
     RDKit          3D

 21 22  0  0  0  0  0  0  0  0999 V2000
   -5.4310    0.7140   -1.2320 C   0  0  0  0  0  0  0  0  0  0  0  0
   -4.7760    0.4910    0.0960 C   0  0  0  0  0  0  0  0  0  0  0  0
   -3.3460    0.1330    0.0070 C   0  0  0  0  0  0  0  0  0  0  0  0
   -2.9210   -1.1210   -0.3550 C   0  0  0  0  0  0  0  0  0  0  0  0
   -3.9160   -2.2030   -0.6770 C   0  0  0  0  0  0  0  0  0  0  0  0
   -1.5990   -1.3740   -0.4170 N   0  0  0  0  0  0  0  0  0  0  0  0
   -0.7000   -0.4400   -0.1370 C   0  0  0  0  0  0  0  0  0  0  0  0
    1.0350   -0.8410   -0.2400 S   0  0  0  0  0  0  0  0  0  0  0  0
    1.9870    0.6390    0.2000 C   0  0  0  0  0  0  0  0  0  0  0  0
    3.4670    0.3380    0.1220 C   0  0  0  0  0  0  0  0  0  0  0  0
    3.8500   -0.8610   -0.2280 C   0  0  0  0  0  0  0  0  0  0  0  0
    5.5260   -1.3400   -0.3570 S   0  0  1  0  0  0  0  0  0  0  0  0
    5.8050   -2.4740    0.6030 O   0  0  0  0  0  0  0  0  0  0  0  0
    5.8290   -1.8010   -1.7460 O   0  0  0  0  0  0  0  0  0  0  0  0
    6.4320    0.0560    0.0650 N   0  0  0  0  0  0  0  0  0  0  0  0
    5.7440    1.2380    0.4070 C   0  0  0  0  0  0  0  0  0  0  0  0
    6.7550    2.6360    0.8280 Cl  0  0  0  0  0  0  0  0  0  0  0  0
    4.4410    1.3610    0.4330 C   0  0  0  0  0  0  0  0  0  0  0  0
   -1.1110    0.7920    0.2190 N   0  0  0  0  0  0  0  0  0  0  0  0
   -2.4090    1.1290    0.3060 C   0  0  0  0  0  0  0  0  0  0  0  0
   -2.7830    2.2890    0.6410 O   0  0  0  0  0  0  0  0  0  0  0  0
  1  2  1  0
  2  3  1  0
  3  4  2  0
  3 20  1  0
  4  5  1  0
  4  6  1  0
  6  7  2  0
  7  8  1  0
  7 19  1  0
  8  9  1  0
  9 10  1  0
 10 11  2  0
 10 18  1  0
 11 12  1  0
 12 13  2  0
 12 14  2  0
 12 15  1  1
 15 16  1  0
 16 17  1  0
 16 18  2  0
 19 20  1  0
 20 21  2  0
M  END
