
     RDKit          3D

 21 22  0  0  0  0  0  0  0  0999 V2000
    2.5540    1.1770    4.4100 C   0  0  0  0  0  0  0  0  0  0  0  0
    2.0800    1.4470    2.9720 C   0  0  0  0  0  0  0  0  0  0  0  0
    0.5760    0.8070    2.2920 S   0  0  0  0  0  0  0  0  0  0  0  0
    0.8310    1.6890    0.7080 C   0  0  0  0  0  0  0  0  0  0  0  0
   -0.1390    1.6920   -0.3110 N   0  0  0  0  0  0  0  0  0  0  0  0
   -0.4220    0.6880   -1.5780 S   0  0  2  0  0  0  0  0  0  0  0  0
    0.8430    0.0590   -2.1330 O   0  0  0  0  0  0  0  0  0  0  0  0
   -1.0240    1.4260   -2.7760 O   0  0  0  0  0  0  0  0  0  0  0  0
   -1.6190   -0.5650   -1.2330 N   0  0  0  0  0  0  0  0  0  0  0  0
   -1.4240   -1.6390   -2.2130 C   0  0  1  0  0  0  0  0  0  0  0  0
   -1.2580   -2.9250   -1.3740 C   0  0  0  0  0  0  0  0  0  0  0  0
   -2.6510   -3.1580   -0.7660 C   0  0  0  0  0  0  0  0  0  0  0  0
   -3.3280   -1.9010   -0.7970 O   0  0  0  0  0  0  0  0  0  0  0  0
   -3.8600   -1.7940   -2.1250 C   0  0  0  0  0  0  0  0  0  0  0  0
   -2.6690   -1.9430   -3.0410 C   0  0  0  0  0  0  0  0  0  0  0  0
    1.9950    2.3520    0.8310 C   0  0  0  0  0  0  0  0  0  0  0  0
    2.5700    3.0710   -0.3050 C   0  0  0  0  0  0  0  0  0  0  0  0
    3.0930    3.7100   -1.2940 N   0  0  0  0  0  0  0  0  0  0  0  0
    2.6420    2.2000    2.1010 C   0  0  0  0  0  0  0  0  0  0  0  0
    3.9860    2.9170    2.2900 C   0  0  0  0  0  0  0  0  0  0  0  0
    5.2880    1.8830    1.7720 Cl  0  0  0  0  0  0  0  0  0  0  0  0
  1  2  1  0
  2  3  1  0
  2 19  2  0
  3  4  1  0
  4  5  1  0
  4 16  2  0
  6  5  1  1
  6  7  2  0
  6  8  2  0
  6  9  1  0
 10  9  1  1
 10 11  1  0
 10 15  1  0
 11 12  1  0
 12 13  1  0
 13 14  1  0
 14 15  1  0
 16 17  1  0
 16 19  1  0
 17 18  3  0
 19 20  1  0
 20 21  1  0
M  END
