
     RDKit          3D

 24 25  0  0  0  0  0  0  0  0999 V2000
   -4.5650    0.5220   -1.3500 O   0  0  0  0  0  0  0  0  0  0  0  0
   -3.8260    1.4000   -0.8430 C   0  0  0  0  0  0  0  0  0  0  0  0
   -2.7860    0.9820    0.1090 C   0  0  0  0  0  0  0  0  0  0  0  0
   -2.7690   -0.4180    0.3240 N   0  0  0  0  0  0  0  0  0  0  0  0
   -3.0600   -0.8960    1.6020 C   0  0  0  0  0  0  0  0  0  0  0  0
   -4.3050   -1.7510    1.7090 C   0  0  0  0  0  0  0  0  0  0  0  0
   -4.1350   -2.8590    0.8810 O   0  0  0  0  0  0  0  0  0  0  0  0
   -1.8030   -1.3340   -0.6900 S   0  0  2  0  0  0  0  0  0  0  0  0
   -2.1870   -1.0770   -2.1330 O   0  0  0  0  0  0  0  0  0  0  0  0
   -1.8790   -2.7920   -0.4630 O   0  0  0  0  0  0  0  0  0  0  0  0
   -0.1200   -0.8540   -0.5120 C   0  0  0  0  0  0  0  0  0  0  0  0
    0.6570   -1.4970    0.4280 C   0  0  0  0  0  0  0  0  0  0  0  0
    1.9920   -1.1240    0.5770 C   0  0  0  0  0  0  0  0  0  0  0  0
    2.5620   -0.1290   -0.1890 C   0  0  0  0  0  0  0  0  0  0  0  0
    3.9590    0.2550   -0.0260 C   0  0  0  0  0  0  0  0  0  0  0  0
    4.8650   -0.7160    0.3500 C   0  0  0  0  0  0  0  0  0  0  0  0
    6.2200   -0.4120    0.5220 C   0  0  0  0  0  0  0  0  0  0  0  0
    6.6590    0.8810    0.3120 C   0  0  0  0  0  0  0  0  0  0  0  0
    5.7590    1.8430   -0.0620 C   0  0  0  0  0  0  0  0  0  0  0  0
    4.4230    1.5280   -0.2280 C   0  0  0  0  0  0  0  0  0  0  0  0
    1.7750    0.5060   -1.1250 C   0  0  0  0  0  0  0  0  0  0  0  0
    0.4500    0.1400   -1.2770 C   0  0  0  0  0  0  0  0  0  0  0  0
   -4.0310    2.7460   -1.2110 N   0  0  0  0  0  0  0  0  0  0  0  0
   -4.9750    3.1700   -2.0810 O   0  0  0  0  0  0  0  0  0  0  0  0
  1  2  2  0
  2  3  1  0
  2 23  1  0
  3  4  1  0
  4  5  1  0
  8  4  1  1
  5  6  1  0
  6  7  1  0
  8  9  2  0
  8 10  2  0
  8 11  1  0
 11 12  2  0
 11 22  1  0
 12 13  1  0
 13 14  2  0
 14 15  1  0
 14 21  1  0
 15 16  2  0
 15 20  1  0
 16 17  1  0
 17 18  2  0
 18 19  1  0
 19 20  2  0
 21 22  2  0
 23 24  1  0
M  END
