
     RDKit          3D

 21 21  0  0  0  0  0  0  0  0999 V2000
   -5.8340    2.0450    0.5820 C   0  0  0  0  0  0  0  0  0  0  0  0
   -4.6770    1.9620    0.0280 C   0  0  0  0  0  0  0  0  0  0  0  0
   -3.9090    3.4140   -0.6540 S   0  0  0  0  0  0  0  0  0  0  0  0
   -2.3380    2.8710   -1.2810 C   0  0  0  0  0  0  0  0  0  0  0  0
   -1.9820    1.6180   -1.1820 C   0  0  0  0  0  0  0  0  0  0  0  0
   -0.7210    1.2900   -1.7060 N   0  0  0  0  0  0  0  0  0  0  0  0
    0.3220    0.8020   -0.7430 C   0  0  0  0  0  0  0  0  0  0  0  0
    0.0000    0.7490    0.3940 O   0  0  0  0  0  0  0  0  0  0  0  0
    1.4600    0.5340   -1.5430 N   0  0  0  0  0  0  0  0  0  0  0  0
    2.4690    0.0980   -0.2210 C   0  0  0  0  0  0  0  0  0  0  0  0
    1.9980    0.1540    0.8270 O   0  0  0  0  0  0  0  0  0  0  0  0
    3.7760   -0.2710   -0.7340 C   0  0  0  0  0  0  0  0  0  0  0  0
    4.6520   -0.6260    0.3590 N   0  0  0  0  0  0  0  0  0  0  0  0
    4.3460   -1.6900    1.2480 C   0  0  0  0  0  0  0  0  0  0  0  0
    5.2390   -2.0650    2.3780 C   0  0  0  0  0  0  0  0  0  0  0  0
    3.2790   -2.3350    1.0670 O   0  0  0  0  0  0  0  0  0  0  0  0
   -2.7760    0.5340   -0.5720 C   0  0  0  0  0  0  0  0  0  0  0  0
   -2.0120   -1.0680   -0.6060 S   0  0  0  0  0  0  0  0  0  0  0  0
   -2.8060   -2.3360    0.3290 C   0  0  0  0  0  0  0  0  0  0  0  0
   -3.9560    0.6970   -0.0470 C   0  0  0  0  0  0  0  0  0  0  0  0
   -4.8580   -0.6680    0.6500 Cl  0  0  0  0  0  0  0  0  0  0  0  0
  1  2  2  0
  2  3  1  0
  2 20  1  0
  3  4  1  0
  4  5  2  0
  5  6  1  0
  5 17  1  0
  6  7  1  0
  7  8  2  0
  7  9  1  0
  9 10  1  0
 10 11  2  0
 10 12  1  0
 12 13  1  0
 13 14  1  0
 14 15  1  0
 14 16  2  0
 17 18  1  0
 17 20  2  0
 18 19  1  0
 20 21  1  0
M  END
