
     RDKit          3D

 21 22  0  0  0  0  0  0  0  0999 V2000
    6.3720    0.1290    1.4680 C   0  0  0  0  0  0  0  0  0  0  0  0
    6.5420    1.2970    0.5850 C   0  0  0  0  0  0  0  0  0  0  0  0
    7.9950    2.0160    0.4980 S   0  0  0  0  0  0  0  0  0  0  0  0
    5.4690    1.7790   -0.1670 N   0  0  0  0  0  0  0  0  0  0  0  0
    4.2290    1.1440   -0.0760 C   0  0  0  0  0  0  0  0  0  0  0  0
    3.7410    0.1410    0.5670 N   0  0  0  0  0  0  0  0  0  0  0  0
    2.5970   -0.2960    0.5320 N   0  0  0  0  0  0  0  0  0  0  0  0
    1.6950    0.4240   -0.3540 C   0  0  0  0  0  0  0  0  0  0  0  0
    0.2990    0.0620   -0.5350 C   0  0  0  0  0  0  0  0  0  0  0  0
   -0.4540    0.7200   -1.3200 O   0  0  0  0  0  0  0  0  0  0  0  0
   -0.2960   -0.9960    0.1150 O   0  0  0  0  0  0  0  0  0  0  0  0
   -1.6530   -1.3050   -0.0960 C   0  0  0  0  0  0  0  0  0  0  0  0
   -2.5650   -0.2240    0.2600 C   0  0  0  0  0  0  0  0  0  0  0  0
   -2.1350    0.8600    0.7060 O   0  0  0  0  0  0  0  0  0  0  0  0
   -4.0140   -0.4110    0.0900 C   0  0  0  0  0  0  0  0  0  0  0  0
   -4.6350   -1.4880   -0.3670 C   0  0  0  0  0  0  0  0  0  0  0  0
   -6.1060   -1.3120   -0.3980 C   0  0  0  0  0  0  0  0  0  0  0  0
   -6.2580    0.0630    0.1220 C   0  0  0  0  0  0  0  0  0  0  0  0
   -5.0650    0.5600    0.3940 C   0  0  0  0  0  0  0  0  0  0  0  0
   -4.7280    2.1730    1.0380 Cl  0  0  0  0  0  0  0  0  0  0  0  0
    2.7350    1.6190   -0.9640 S   0  0  0  0  0  0  0  0  0  0  0  0
  1  2  1  0
  2  3  2  0
  2  4  1  0
  4  5  1  0
  5  6  2  0
  5 21  1  0
  6  7  1  0
  7  8  2  0
  8  9  1  0
  8 21  1  0
  9 10  2  0
  9 11  1  0
 11 12  1  0
 12 13  1  0
 13 14  2  0
 13 15  1  0
 15 16  2  0
 15 19  1  0
 16 17  1  0
 17 18  1  0
 18 19  2  0
 19 20  1  0
M  END
