
     RDKit          3D

 21 23  0  0  0  0  0  0  0  0999 V2000
    6.0470   -0.2150    1.4890 C   0  0  0  0  0  0  0  0  0  0  0  0
    4.6450    0.2410    1.2560 C   0  0  0  0  0  0  0  0  0  0  0  0
    3.8620   -0.2740    0.3500 C   0  0  0  0  0  0  0  0  0  0  0  0
    2.5100    0.1960    0.1550 C   0  0  0  0  0  0  0  0  0  0  0  0
    1.6370   -0.2370   -0.7160 C   0  0  0  0  0  0  0  0  0  0  0  0
    0.3050    0.3510   -0.7810 N   0  0  0  0  0  0  0  0  0  0  0  0
    0.1830    1.4870   -1.6520 C   0  0  0  0  0  0  0  0  0  0  0  0
   -1.0020    2.3560   -1.3560 C   0  0  0  0  0  0  0  0  0  0  0  0
   -1.7570    1.9330   -0.1210 C   0  0  0  0  0  0  0  0  0  0  0  0
   -2.0540    0.4380   -0.3040 C   0  0  2  0  0  0  0  0  0  0  0  0
   -3.1370   -0.0010    0.5770 C   0  0  0  0  0  0  0  0  0  0  0  0
   -3.7210    0.8260    1.4570 N   0  0  0  0  0  0  0  0  0  0  0  0
   -4.7210    0.3930    2.2630 C   0  0  0  0  0  0  0  0  0  0  0  0
   -5.1650   -0.9030    2.2030 C   0  0  0  0  0  0  0  0  0  0  0  0
   -4.5880   -1.7370    1.3270 N   0  0  0  0  0  0  0  0  0  0  0  0
   -3.5910   -1.3000    0.5260 C   0  0  0  0  0  0  0  0  0  0  0  0
   -3.0130   -2.2110   -0.3820 N   0  0  0  0  0  0  0  0  0  0  0  0
   -0.7240   -0.2460    0.0070 C   0  0  0  0  0  0  0  0  0  0  0  0
    1.9340   -1.3080   -1.6510 C   0  0  0  0  0  0  0  0  0  0  0  0
    3.0700   -1.9670   -1.7520 C   0  0  0  0  0  0  0  0  0  0  0  0
    4.4490   -1.5890   -0.6840 S   0  0  0  0  0  0  0  0  0  0  0  0
  1  2  1  0
  2  3  2  3
  3  4  1  0
  3 21  1  0
  4  5  2  0
  5  6  1  0
  5 19  1  0
  6  7  1  0
  6 18  1  0
  7  8  1  0
  8  9  1  0
  9 10  1  0
 10 11  1  1
 10 18  1  0
 11 12  2  0
 11 16  1  0
 12 13  1  0
 13 14  2  0
 14 15  1  0
 15 16  2  0
 16 17  1  0
 19 20  2  0
 20 21  1  0
M  END
