
     RDKit          3D

 30 34  0  0  0  0  0  0  0  0999 V2000
    6.1470    2.3250    1.4230 C   0  0  0  0  0  0  0  0  0  0  0  0
    5.4450    1.1670    0.9090 N   0  0  0  0  0  0  0  0  0  0  0  0
    4.0330    1.1090    0.8280 C   0  0  0  0  0  0  0  0  0  0  0  0
    3.3910    2.1120    1.2220 O   0  0  0  0  0  0  0  0  0  0  0  0
    3.3000   -0.0540    0.3110 C   0  0  0  0  0  0  0  0  0  0  0  0
    3.9450   -1.1840   -0.1440 C   0  0  0  0  0  0  0  0  0  0  0  0
    3.2400   -2.2770   -0.6300 C   0  0  0  0  0  0  0  0  0  0  0  0
    1.8580   -2.2690   -0.6740 C   0  0  0  0  0  0  0  0  0  0  0  0
    1.2040   -1.1420   -0.2200 C   0  0  0  0  0  0  0  0  0  0  0  0
    1.9220   -0.0600    0.2620 C   0  0  0  0  0  0  0  0  0  0  0  0
   -0.2600   -0.9610   -0.1780 C   0  0  1  0  0  0  0  0  0  0  0  0
   -0.7430   -2.0300    0.8210 C   0  0  0  0  0  0  0  0  0  0  0  0
   -0.7020    0.3260    0.1870 N   0  0  0  0  0  0  0  0  0  0  0  0
   -1.4940    0.9000   -0.8220 C   0  0  2  0  0  0  0  0  0  0  0  0
   -1.0580    2.3210   -1.1270 C   0  0  0  0  0  0  0  0  0  0  0  0
   -1.7710    3.0920   -0.0330 C   0  0  0  0  0  0  0  0  0  0  0  0
   -3.1480    2.5120   -0.0630 C   0  0  0  0  0  0  0  0  0  0  0  0
   -2.9440    1.0840   -0.5330 C   0  0  2  0  0  0  0  0  0  0  0  0
   -3.5230    0.2140    0.4190 N   0  0  0  0  0  0  0  0  0  0  0  0
   -4.3380   -0.8320    0.1900 C   0  0  0  0  0  0  0  0  0  0  0  0
   -4.6600   -1.3920    1.4030 C   0  0  0  0  0  0  0  0  0  0  0  0
   -4.0190   -0.6600    2.3680 C   0  0  0  0  0  0  0  0  0  0  0  0
   -3.3410    0.3040    1.7370 N   0  0  0  0  0  0  0  0  0  0  0  0
   -1.3600    0.0070   -1.9790 C   0  0  0  0  0  0  0  0  0  0  0  0
   -1.6580    0.2010   -3.1920 O   0  0  0  0  0  0  0  0  0  0  0  0
   -0.8010   -1.2060   -1.4900 N   0  0  0  0  0  0  0  0  0  0  0  0
   -0.7990   -2.4340   -2.2030 N   0  0  0  0  0  0  0  0  0  0  0  0
    0.1290   -3.4920   -1.9980 C   0  0  0  0  0  0  0  0  0  0  0  0
   -0.1230   -4.5480   -2.5890 O   0  0  0  0  0  0  0  0  0  0  0  0
    1.2960   -3.4590   -1.1970 O   0  0  0  0  0  0  0  0  0  0  0  0
  1  2  1  0
  2  3  1  0
  3  4  2  0
  3  5  1  0
  5  6  2  0
  5 10  1  0
  6  7  1  0
  7  8  2  0
  8  9  1  0
  8 30  1  0
  9 10  2  0
  9 11  1  0
 11 12  1  1
 11 13  1  0
 11 26  1  0
 13 14  1  0
 14 15  1  6
 14 18  1  0
 14 24  1  0
 15 16  1  0
 16 17  1  0
 17 18  1  0
 18 19  1  1
 19 20  1  0
 19 23  1  0
 20 21  2  0
 21 22  1  0
 22 23  2  0
 24 25  2  0
 24 26  1  0
 26 27  1  0
 27 28  1  0
 28 29  2  0
 28 30  1  0
M  END
