
     RDKit          3D

 29 31  0  0  0  0  0  0  0  0999 V2000
   -6.7980   -0.7590   -0.3850 C   0  0  0  0  0  0  0  0  0  0  0  0
   -5.4580   -0.2780   -0.2500 N   0  0  2  0  0  0  0  0  0  0  0  0
   -4.5890   -1.1740    0.4870 C   0  0  0  0  0  0  0  0  0  0  0  0
   -3.5620   -0.4120    1.2960 C   0  0  0  0  0  0  0  0  0  0  0  0
   -3.0220    0.7120    0.5460 N   0  0  1  0  0  0  0  0  0  0  0  0
   -2.0870    0.2220   -0.4250 C   0  0  0  0  0  0  0  0  0  0  0  0
   -1.4210    1.2810   -1.2560 C   0  0  0  0  0  0  0  0  0  0  0  0
   -0.6500    2.2350   -0.4090 C   0  0  0  0  0  0  0  0  0  0  0  0
    0.3570    1.7580    0.3650 O   0  0  0  0  0  0  0  0  0  0  0  0
    1.5430    1.1340    0.1460 C   0  0  0  0  0  0  0  0  0  0  0  0
    2.0710    0.8150   -1.0770 C   0  0  0  0  0  0  0  0  0  0  0  0
    3.2840    0.1810   -1.2370 C   0  0  0  0  0  0  0  0  0  0  0  0
    4.0610   -0.1800   -0.1290 C   0  0  0  0  0  0  0  0  0  0  0  0
    5.3400   -0.8510   -0.3240 C   0  0  0  0  0  0  0  0  0  0  0  0
    6.1480   -1.2300    0.7150 C   0  0  0  0  0  0  0  0  0  0  0  0
    7.3640   -1.8700    0.5110 C   0  0  0  0  0  0  0  0  0  0  0  0
    7.7410   -2.1160   -0.7880 C   0  0  0  0  0  0  0  0  0  0  0  0
    6.9170   -1.7290   -1.8410 C   0  0  0  0  0  0  0  0  0  0  0  0
    7.3540   -2.0080   -3.1820 C   0  0  0  0  0  0  0  0  0  0  0  0
    7.6900   -2.2460   -4.2640 N   0  0  0  0  0  0  0  0  0  0  0  0
    5.7520   -1.1130   -1.5750 N   0  0  0  0  0  0  0  0  0  0  0  0
    3.5340    0.1390    1.0970 C   0  0  0  0  0  0  0  0  0  0  0  0
    2.3230    0.7720    1.2550 C   0  0  0  0  0  0  0  0  0  0  0  0
    1.7890    1.0990    2.6010 C   0  0  1  0  0  0  0  0  0  0  0  0
    0.5730    0.4890    2.8390 F   0  0  0  0  0  0  0  0  0  0  0  0
    2.6950    0.7370    3.5780 F   0  0  0  0  0  0  0  0  0  0  0  0
    1.6730    2.4910    2.6860 F   0  0  0  0  0  0  0  0  0  0  0  0
   -4.0110    1.5960    0.0440 C   0  0  0  0  0  0  0  0  0  0  0  0
   -5.3790    1.0300    0.3670 C   0  0  0  0  0  0  0  0  0  0  0  0
  2  1  1  1
  2  3  1  0
  2 29  1  0
  3  4  1  0
  4  5  1  0
  5  6  1  6
  5 28  1  0
  6  7  1  0
  7  8  1  0
  8  9  1  0
  9 10  1  0
 10 11  2  0
 10 23  1  0
 11 12  1  0
 12 13  2  0
 13 14  1  0
 13 22  1  0
 14 15  2  0
 14 21  1  0
 15 16  1  0
 16 17  2  0
 17 18  1  0
 18 19  1  0
 18 21  2  0
 19 20  3  0
 22 23  2  0
 23 24  1  0
 24 25  1  1
 24 26  1  0
 24 27  1  0
 28 29  1  0
M  CHG  2   2   1   5   1
M  END
