
     RDKit          3D

 30 33  0  0  0  0  0  0  0  0999 V2000
   -7.1330   -0.1630    0.3180 C   0  0  0  0  0  0  0  0  0  0  0  0
   -6.0440    0.1230   -0.6610 C   0  0  0  0  0  0  0  0  0  0  0  0
   -6.1230   -0.1430   -2.0080 C   0  0  0  0  0  0  0  0  0  0  0  0
   -4.9520    0.2400   -2.6210 C   0  0  0  0  0  0  0  0  0  0  0  0
   -4.1360    0.7550   -1.6070 C   0  0  0  0  0  0  0  0  0  0  0  0
   -2.8340    1.3430   -1.7650 C   0  0  0  0  0  0  0  0  0  0  0  0
   -1.6450    1.0770   -1.3340 C   0  0  0  0  0  0  0  0  0  0  0  0
   -0.4450    1.9200   -1.6740 C   0  0  0  0  0  0  0  0  0  0  0  0
   -0.5130    2.9260   -2.4040 O   0  0  0  0  0  0  0  0  0  0  0  0
    0.6270    1.3230   -1.0200 N   0  0  0  0  0  0  0  0  0  0  0  0
    0.3090    0.2750   -0.3460 C   0  0  0  0  0  0  0  0  0  0  0  0
    0.8250   -0.7770    0.5130 C   0  0  0  0  0  0  0  0  0  0  0  0
    2.1930   -0.9540    0.9480 C   0  0  0  0  0  0  0  0  0  0  0  0
    3.2500   -0.3010    0.7170 C   0  0  0  0  0  0  0  0  0  0  0  0
    3.6110    0.8420   -0.0210 C   0  0  0  0  0  0  0  0  0  0  0  0
    4.8720    1.3250   -0.0770 C   0  0  0  0  0  0  0  0  0  0  0  0
    5.2040    2.7710   -1.0440 Cl  0  0  0  0  0  0  0  0  0  0  0  0
    5.9700    0.7140    0.6470 C   0  0  2  0  0  0  0  0  0  0  0  0
    6.9980    1.8120    1.0640 C   0  0  0  0  0  0  0  0  0  0  0  0
    8.0610    0.7500    0.8280 C   0  0  0  0  0  0  0  0  0  0  0  0
    7.1100    0.1880   -0.2380 C   0  0  0  0  0  0  0  0  0  0  0  0
   -0.2220   -1.6070    0.8680 C   0  0  0  0  0  0  0  0  0  0  0  0
   -0.0180   -2.7220    1.7050 N   0  0  0  0  0  0  0  0  0  0  0  0
   -0.9520   -3.6340    2.1910 C   0  0  0  0  0  0  0  0  0  0  0  0
   -2.1570   -3.6390    2.0060 O   0  0  0  0  0  0  0  0  0  0  0  0
   -1.3810   -1.0970    0.2380 N   0  0  0  0  0  0  0  0  0  0  0  0
   -2.6870   -1.7390    0.1560 C   0  0  0  0  0  0  0  0  0  0  0  0
   -1.1100    0.0610   -0.5050 N   0  0  0  0  0  0  0  0  0  0  0  0
   -4.8380    0.6630   -0.4470 N   0  0  0  0  0  0  0  0  0  0  0  0
   -4.3310    1.1210    0.8300 C   0  0  0  0  0  0  0  0  0  0  0  0
  1  2  1  0
  2  3  2  0
  2 29  1  0
  3  4  1  0
  4  5  2  0
  5  6  1  0
  5 29  1  0
  6  7  2  3
  7  8  1  0
  7 28  1  0
  8  9  2  0
  8 10  1  0
 10 11  2  0
 11 12  1  0
 11 28  1  0
 12 13  1  0
 12 22  2  0
 13 14  2  3
 14 15  1  0
 15 16  2  3
 16 17  1  0
 18 16  1  6
 18 19  1  0
 18 21  1  0
 19 20  1  0
 20 21  1  0
 22 23  1  0
 22 26  1  0
 23 24  1  0
 24 25  2  0
 26 27  1  0
 26 28  1  0
 29 30  1  0
M  END
