
     RDKit          3D

 29 32  0  0  0  0  0  0  0  0999 V2000
    0.3460    2.7870    0.0690 O   0  0  0  0  0  0  0  0  0  0  0  0
   -0.7590    2.0630   -0.0620 C   0  0  0  0  0  0  0  0  0  0  0  0
   -1.8820    2.8970   -0.0430 N   0  0  0  0  0  0  0  0  0  0  0  0
   -1.8800    4.3090    0.0790 C   0  0  0  0  0  0  0  0  0  0  0  0
   -0.8490    5.1670    0.1980 C   0  0  0  0  0  0  0  0  0  0  0  0
   -1.3280    6.4620    0.2890 C   0  0  0  0  0  0  0  0  0  0  0  0
   -2.6560    6.3650    0.2210 N   0  0  0  0  0  0  0  0  0  0  0  0
   -3.0010    5.1040    0.0970 N   0  0  0  0  0  0  0  0  0  0  0  0
   -0.6140    0.6550   -0.1830 C   0  0  0  0  0  0  0  0  0  0  0  0
    0.7230    0.2690   -0.0570 C   0  0  0  0  0  0  0  0  0  0  0  0
    1.2800   -0.8490   -0.1000 O   0  0  0  0  0  0  0  0  0  0  0  0
    1.8390   -2.0180   -0.1390 C   0  0  2  0  0  0  0  0  0  0  0  0
    1.7560   -2.8300    1.1580 C   0  0  0  0  0  0  0  0  0  0  0  0
    2.4730   -2.0860    2.2560 C   0  0  0  0  0  0  0  0  0  0  0  0
    3.9220   -2.0380    1.8450 C   0  0  0  0  0  0  0  0  0  0  0  0
    4.8230   -2.1680    2.7180 O   0  0  0  0  0  0  0  0  0  0  0  0
    4.2220   -1.8460    0.4810 N   0  0  0  0  0  0  0  0  0  0  0  0
    5.4960   -1.4390   -0.1220 C   0  0  0  0  0  0  0  0  0  0  0  0
    5.1250   -0.7650   -1.4260 C   0  0  0  0  0  0  0  0  0  0  0  0
    3.6140   -0.8390   -1.4920 C   0  0  0  0  0  0  0  0  0  0  0  0
    3.3140   -2.0180   -0.6040 C   0  0  2  0  0  0  0  0  0  0  0  0
   -1.5030   -0.3970   -0.3620 C   0  0  0  0  0  0  0  0  0  0  0  0
   -0.8640   -1.5890   -0.2590 O   0  0  0  0  0  0  0  0  0  0  0  0
   -2.8650   -0.6540   -0.6220 N   0  0  0  0  0  0  0  0  0  0  0  0
   -3.9180    0.2190   -0.9470 C   0  0  0  0  0  0  0  0  0  0  0  0
   -5.0540   -0.4140   -1.6460 C   0  0  0  0  0  0  0  0  0  0  0  0
   -5.4750   -1.6110   -1.2890 C   0  0  0  0  0  0  0  0  0  0  0  0
   -4.6890   -2.2140   -0.1450 C   0  0  0  0  0  0  0  0  0  0  0  0
   -3.2250   -2.1010   -0.4870 C   0  0  0  0  0  0  0  0  0  0  0  0
  1  2  2  0
  2  3  1  0
  2  9  1  0
  3  4  1  0
  4  5  1  0
  4  8  2  0
  5  6  2  0
  6  7  1  0
  7  8  1  0
  9 10  2  3
  9 22  1  0
 10 11  1  0
 12 11  1  1
 12 13  1  0
 12 21  1  0
 13 14  1  0
 14 15  1  0
 15 16  2  0
 15 17  1  0
 17 18  1  0
 17 21  1  0
 18 19  1  0
 19 20  1  0
 21 20  1  6
 22 23  2  0
 22 24  1  0
 24 25  1  0
 24 29  1  0
 25 26  1  0
 26 27  2  0
 27 28  1  0
 28 29  1  0
M  END
