
     RDKit          3D

 30 33  0  0  0  0  0  0  0  0999 V2000
   -0.1550   -3.0720    1.6570 C   0  0  0  0  0  0  0  0  0  0  0  0
   -1.2480   -2.1290    1.2910 C   0  0  0  0  0  0  0  0  0  0  0  0
   -2.4060   -2.1650    1.8620 N   0  0  0  0  0  0  0  0  0  0  0  0
   -3.4670   -1.2740    1.5290 C   0  0  0  0  0  0  0  0  0  0  0  0
   -4.6190   -1.3330    2.1120 N   0  0  0  0  0  0  0  0  0  0  0  0
   -5.6700   -0.4730    1.8020 N   0  0  0  0  0  0  0  0  0  0  0  0
   -5.5230    0.4180    0.9130 C   0  0  0  0  0  0  0  0  0  0  0  0
   -6.4020    1.4940    0.3210 C   0  0  0  0  0  0  0  0  0  0  0  0
   -5.9750    1.5100   -1.1500 C   0  0  0  0  0  0  0  0  0  0  0  0
   -4.7480    0.5930   -1.2410 C   0  0  0  0  0  0  0  0  0  0  0  0
   -4.2430    0.6250    0.1570 C   0  0  2  0  0  0  0  0  0  0  0  0
   -3.2320   -0.2950    0.5150 N   0  0  0  0  0  0  0  0  0  0  0  0
   -1.9500   -0.2870   -0.0880 C   0  0  0  0  0  0  0  0  0  0  0  0
   -0.9730   -1.1470    0.2550 C   0  0  0  0  0  0  0  0  0  0  0  0
    0.3210   -1.0690   -0.4180 C   0  0  0  0  0  0  0  0  0  0  0  0
    1.2570   -1.8450   -0.1340 O   0  0  0  0  0  0  0  0  0  0  0  0
    0.5330   -0.1160   -1.3980 O   0  0  0  0  0  0  0  0  0  0  0  0
    1.7720   -0.0510   -2.0290 C   0  0  1  0  0  0  0  0  0  0  0  0
    2.1780   -1.3100   -2.7390 C   0  0  0  0  0  0  0  0  0  0  0  0
    1.6810    1.0510   -3.1040 C   0  0  0  0  0  0  0  0  0  0  0  0
    2.8650    0.3980   -1.1280 C   0  0  0  0  0  0  0  0  0  0  0  0
    4.0630    0.4780   -1.5470 O   0  0  0  0  0  0  0  0  0  0  0  0
    2.6790    0.7660    0.2320 N   0  0  0  0  0  0  0  0  0  0  0  0
    3.7720    1.1910    1.0560 C   0  0  0  0  0  0  0  0  0  0  0  0
    3.9140    2.3570    1.6720 C   0  0  0  0  0  0  0  0  0  0  0  0
    5.1820    2.3110    2.3820 C   0  0  0  0  0  0  0  0  0  0  0  0
    5.6890    3.2230    3.0910 O   0  0  0  0  0  0  0  0  0  0  0  0
    5.7750    1.0220    2.1320 C   0  0  0  0  0  0  0  0  0  0  0  0
    4.9390    0.3690    1.3520 C   0  0  0  0  0  0  0  0  0  0  0  0
    5.1570   -0.9580    0.8690 N   0  0  0  0  0  0  0  0  0  0  0  0
  1  2  1  0
  2  3  2  0
  2 14  1  0
  3  4  1  0
  4  5  2  0
  4 12  1  0
  5  6  1  0
  6  7  2  0
  7  8  1  0
  7 11  1  0
  8  9  1  0
  9 10  1  0
 11 10  1  6
 11 12  1  0
 12 13  1  0
 13 14  2  0
 14 15  1  0
 15 16  2  0
 15 17  1  0
 17 18  1  0
 18 19  1  6
 18 20  1  0
 18 21  1  0
 21 22  2  0
 21 23  1  0
 23 24  1  0
 24 25  2  0
 24 29  1  0
 25 26  1  0
 26 27  2  0
 26 28  1  0
 28 29  2  0
 29 30  1  0
M  CHG  1  30   1
M  END
