
     RDKit          3D

 30 33  0  0  0  0  0  0  0  0999 V2000
    8.6160   -0.9490    2.1380 C   0  0  0  0  0  0  0  0  0  0  0  0
    7.3390   -0.3450    1.7710 N   0  0  0  0  0  0  0  0  0  0  0  0
    6.7030    0.6220    2.4470 N   0  0  0  0  0  0  0  0  0  0  0  0
    5.5550    0.9350    1.8200 C   0  0  0  0  0  0  0  0  0  0  0  0
    5.4580    0.1570    0.7270 N   0  0  0  0  0  0  0  0  0  0  0  0
    4.3940    0.1670   -0.2150 C   0  0  0  0  0  0  0  0  0  0  0  0
    3.4760   -0.8520   -0.3480 C   0  0  0  0  0  0  0  0  0  0  0  0
    2.4540   -0.8210   -1.2680 C   0  0  0  0  0  0  0  0  0  0  0  0
    2.2920    0.2640   -2.1280 C   0  0  0  0  0  0  0  0  0  0  0  0
    1.2290    0.3260   -3.0790 C   0  0  0  0  0  0  0  0  0  0  0  0
   -0.0540    0.3020   -2.7390 C   0  0  0  0  0  0  0  0  0  0  0  0
   -1.1330    0.3810   -4.1590 Cl  0  0  0  0  0  0  0  0  0  0  0  0
   -0.5170    0.3380   -1.3830 C   0  0  0  0  0  0  0  0  0  0  0  0
    0.3710    0.4590   -0.4430 O   0  0  0  0  0  0  0  0  0  0  0  0
   -1.8680    0.2570   -0.9150 C   0  0  0  0  0  0  0  0  0  0  0  0
   -2.9310    0.0420   -1.7470 C   0  0  0  0  0  0  0  0  0  0  0  0
   -4.2400   -0.0040   -1.2350 C   0  0  0  0  0  0  0  0  0  0  0  0
   -4.4740    0.1640    0.1050 C   0  0  0  0  0  0  0  0  0  0  0  0
   -5.8520    0.1120    0.6170 C   0  0  0  0  0  0  0  0  0  0  0  0
   -6.1390    0.2610    1.8620 N   0  0  0  0  0  0  0  0  0  0  0  0
   -7.5630    0.1620    2.0750 C   0  0  2  0  0  0  0  0  0  0  0  0
   -7.8360   -1.0080    2.8970 N   0  0  0  0  0  0  0  0  0  0  0  0
   -8.0630   -0.0800    0.6800 C   0  0  0  0  0  0  0  0  0  0  0  0
   -7.0520   -0.1070   -0.1660 C   0  0  0  0  0  0  0  0  0  0  0  0
   -3.4080    0.3790    0.9390 C   0  0  0  0  0  0  0  0  0  0  0  0
   -2.1360    0.4260    0.4550 C   0  0  0  0  0  0  0  0  0  0  0  0
    3.2280    1.3030   -1.9940 C   0  0  0  0  0  0  0  0  0  0  0  0
    4.2380    1.2410   -1.0640 C   0  0  0  0  0  0  0  0  0  0  0  0
    6.5550   -0.6170    0.7150 C   0  0  0  0  0  0  0  0  0  0  0  0
    6.8390   -1.4840   -0.1490 O   0  0  0  0  0  0  0  0  0  0  0  0
  1  2  1  0
  2  3  1  0
  2 29  1  0
  3  4  2  0
  4  5  1  0
  5  6  1  0
  5 29  1  0
  6  7  2  0
  6 28  1  0
  7  8  1  0
  8  9  2  0
  9 10  1  0
  9 27  1  0
 10 11  2  3
 11 12  1  0
 11 13  1  0
 13 14  2  0
 13 15  1  0
 15 16  2  0
 15 26  1  0
 16 17  1  0
 17 18  2  0
 18 19  1  0
 18 25  1  0
 19 20  2  0
 19 24  1  0
 20 21  1  0
 21 22  1  1
 21 23  1  0
 23 24  2  0
 25 26  2  0
 27 28  2  0
 29 30  2  0
M  END
