
     RDKit          3D

 17 17  0  0  0  0  0  0  0  0999 V2000
   -1.2220    1.5030    1.2980 C   0  0  0  0  0  0  0  0  0  0  0  0
   -1.0360    0.2600    0.4550 C   0  0  2  0  0  0  0  0  0  0  0  0
   -2.3570   -0.3500    0.1890 C   0  0  2  0  0  0  0  0  0  0  0  0
   -2.3110   -1.6780   -0.5190 C   0  0  0  0  0  0  0  0  0  0  0  0
   -3.2500    0.5180   -0.5770 N   0  0  0  0  0  0  0  0  0  0  0  0
   -2.9910   -0.5730    1.4100 O   0  0  0  0  0  0  0  0  0  0  0  0
   -0.2660   -0.6290    1.1850 O   0  0  0  0  0  0  0  0  0  0  0  0
    0.6600   -1.3250    0.4540 C   0  0  0  0  0  0  0  0  0  0  0  0
    1.8110   -0.4290   -0.0430 C   0  0  1  0  0  0  0  0  0  0  0  0
    2.8750   -0.4350    1.0180 C   0  0  0  0  0  0  0  0  0  0  0  0
    2.3370    0.0670    2.2210 O   0  0  0  0  0  0  0  0  0  0  0  0
    2.3660   -0.9900   -1.3210 C   0  0  0  0  0  0  0  0  0  0  0  0
    3.4070   -0.2330   -1.8310 O   0  0  0  0  0  0  0  0  0  0  0  0
    1.1760    0.9320   -0.2330 C   0  0  1  0  0  0  0  0  0  0  0  0
    1.8640    1.7850   -1.0450 O   0  0  0  0  0  0  0  0  0  0  0  0
   -0.2440    0.6530   -0.7590 C   0  0  2  0  0  0  0  0  0  0  0  0
   -0.6720    1.8670   -1.3120 O   0  0  0  0  0  0  0  0  0  0  0  0
  2  1  1  1
  2  3  1  0
  2  7  1  0
  2 16  1  0
  3  4  1  6
  3  5  1  0
  3  6  1  0
  7  8  1  0
  8  9  1  0
  9 10  1  1
  9 12  1  0
  9 14  1  0
 10 11  1  0
 12 13  1  0
 14 15  1  6
 14 16  1  0
 16 17  1  1
M  CHG  1   5   1
M  END
