
     RDKit          3D

 18 19  0  0  0  0  0  0  0  0999 V2000
   -0.2900   -1.0410   -1.7910 C   0  0  0  0  0  0  0  0  0  0  0  0
    0.4040   -0.3870   -0.5980 C   0  0  2  0  0  0  0  0  0  0  0  0
   -0.5120    0.3300    0.3020 C   0  0  1  0  0  0  0  0  0  0  0  0
    0.0430    0.9260    1.5590 C   0  0  0  0  0  0  0  0  0  0  0  0
    1.0440    1.9260    1.4500 N   0  0  0  0  0  0  0  0  0  0  0  0
   -1.3490    1.4020   -0.3530 C   0  0  2  0  0  0  0  0  0  0  0  0
   -1.4720    2.4760    0.5290 O   0  0  0  0  0  0  0  0  0  0  0  0
   -2.7350    0.9030   -0.5750 C   0  0  0  0  0  0  0  0  0  0  0  0
   -3.3100    0.6520    0.6790 O   0  0  0  0  0  0  0  0  0  0  0  0
   -2.5210    0.0720    1.5190 O   0  0  0  0  0  0  0  0  0  0  0  0
   -1.5620   -0.6710    0.8330 C   0  0  2  0  0  0  0  0  0  0  0  0
   -0.8860   -1.5350    1.6860 O   0  0  0  0  0  0  0  0  0  0  0  0
   -0.9730   -2.7820    1.2490 O   0  0  0  0  0  0  0  0  0  0  0  0
    1.5890    0.2980   -1.1520 C   0  0  0  0  0  0  0  0  0  0  0  0
    2.7790   -0.6530   -0.9480 C   0  0  1  0  0  0  0  0  0  0  0  0
    3.5210   -0.2550    0.1390 O   0  0  0  0  0  0  0  0  0  0  0  0
    2.0440   -1.9180   -0.5770 C   0  0  0  0  0  0  0  0  0  0  0  0
    0.9560   -1.4630    0.1020 O   0  0  0  0  0  0  0  0  0  0  0  0
  2  1  1  6
  2  3  1  0
  2 14  1  0
  2 18  1  0
  3  4  1  1
  3  6  1  0
  3 11  1  0
  4  5  1  0
  6  7  1  1
  6  8  1  0
  8  9  1  0
  9 10  1  0
 10 11  1  0
 11 12  1  1
 12 13  1  0
 14 15  1  0
 15 16  1  1
 15 17  1  0
 17 18  1  0
M  CHG  1   5   1
M  END
