
     RDKit          3D

 17 18  0  0  0  0  0  0  0  0999 V2000
    2.7930    0.8350    1.1140 N   0  0  0  0  0  0  0  0  0  0  0  0
    1.4240    1.0650    0.6370 C   0  0  1  0  0  0  0  0  0  0  0  0
    1.5530    1.8930   -0.4740 O   0  0  0  0  0  0  0  0  0  0  0  0
    0.3040    2.1320   -1.0040 C   0  0  0  0  0  0  0  0  0  0  0  0
   -0.2360    0.8240   -1.5900 C   0  0  0  0  0  0  0  0  0  0  0  0
   -0.4690   -0.1640   -0.4550 C   0  0  2  0  0  0  0  0  0  0  0  0
   -0.6600   -1.4140   -1.0940 O   0  0  0  0  0  0  0  0  0  0  0  0
   -1.6170    0.1780    0.3230 C   0  0  2  0  0  0  0  0  0  0  0  0
   -2.0410   -0.6350    1.4940 C   0  0  0  0  0  0  0  0  0  0  0  0
   -1.1190   -0.7330    2.5230 O   0  0  0  0  0  0  0  0  0  0  0  0
   -2.8560    0.3540   -0.5350 C   0  0  0  0  0  0  0  0  0  0  0  0
   -3.1610   -0.8110   -1.2570 O   0  0  0  0  0  0  0  0  0  0  0  0
    0.8920   -0.2630    0.1680 C   0  0  2  0  0  0  0  0  0  0  0  0
    1.2040   -1.3950    1.0360 C   0  0  0  0  0  0  0  0  0  0  0  0
    2.4350   -1.8890    0.5170 O   0  0  0  0  0  0  0  0  0  0  0  0
    2.1420   -1.8250   -0.8430 C   0  0  0  0  0  0  0  0  0  0  0  0
    1.7200   -0.5310   -0.9660 O   0  0  0  0  0  0  0  0  0  0  0  0
  2  1  1  6
  2  3  1  0
  2 13  1  0
  3  4  1  0
  4  5  1  0
  5  6  1  0
  6  7  1  6
  6  8  1  0
  6 13  1  0
  8  9  1  1
  8 11  1  0
  9 10  1  0
 11 12  1  0
 13 14  1  1
 13 17  1  0
 14 15  1  0
 15 16  1  0
 16 17  1  0
M  CHG  1   1   1
M  END
