
     RDKit          3D

 17 18  0  0  0  0  0  0  0  0999 V2000
   -3.0370    0.5620   -0.2590 C   0  0  0  0  0  0  0  0  0  0  0  0
   -1.9370   -0.4690   -0.2650 C   0  0  2  0  0  0  0  0  0  0  0  0
   -1.8980   -1.2020   -1.4310 O   0  0  0  0  0  0  0  0  0  0  0  0
   -1.6620   -1.2450    0.9750 C   0  0  1  0  0  0  0  0  0  0  0  0
   -1.4280   -2.5900    0.8540 O   0  0  0  0  0  0  0  0  0  0  0  0
   -0.6620   -0.2080    0.5280 C   0  0  2  0  0  0  0  0  0  0  0  0
   -0.7740    1.0760    1.3410 C   0  0  0  0  0  0  0  0  0  0  0  0
   -1.0750    2.1290    0.4750 O   0  0  0  0  0  0  0  0  0  0  0  0
   -1.6300    3.1470    1.0770 O   0  0  0  0  0  0  0  0  0  0  0  0
    0.6400   -0.7140    0.0530 C   0  0  1  0  0  0  0  0  0  0  0  0
    1.3430   -1.6640    0.9970 C   0  0  0  0  0  0  0  0  0  0  0  0
    0.3440   -1.4820   -1.0980 O   0  0  0  0  0  0  0  0  0  0  0  0
    0.8130   -0.7690   -2.1830 C   0  0  0  0  0  0  0  0  0  0  0  0
    1.0400    0.5450   -1.7390 O   0  0  0  0  0  0  0  0  0  0  0  0
    1.6280    0.1930   -0.5130 C   0  0  1  0  0  0  0  0  0  0  0  0
    2.2240    1.3130    0.1910 C   0  0  0  0  0  0  0  0  0  0  0  0
    2.9580    0.9320    1.3670 N   0  0  0  0  0  0  0  0  0  0  0  0
  2  1  1  1
  2  3  1  0
  2  4  1  0
  2  6  1  0
  4  5  1  6
  4  6  1  0
  6  7  1  1
  6 10  1  0
  7  8  1  0
  8  9  1  0
 10 11  1  1
 10 12  1  0
 10 15  1  0
 12 13  1  0
 13 14  1  0
 14 15  1  0
 15 16  1  1
 16 17  1  0
M  CHG  1  17   1
M  END
