
     RDKit          3D

 17 18  0  0  0  0  0  0  0  0999 V2000
   -3.3510    0.2180   -0.2710 C   0  0  0  0  0  0  0  0  0  0  0  0
   -1.8710    0.2470   -0.5560 C   0  0  1  0  0  0  0  0  0  0  0  0
   -1.5430   -0.7350   -1.5000 O   0  0  0  0  0  0  0  0  0  0  0  0
   -1.5210    1.6190   -1.0490 C   0  0  0  0  0  0  0  0  0  0  0  0
   -0.6010    2.1690   -0.1890 O   0  0  0  0  0  0  0  0  0  0  0  0
   -0.6810    1.4830    1.0130 C   0  0  0  0  0  0  0  0  0  0  0  0
   -1.0190    0.0740    0.6550 C   0  0  1  0  0  0  0  0  0  0  0  0
   -1.7980   -0.5070    1.8400 C   0  0  0  0  0  0  0  0  0  0  0  0
    0.1640   -0.8180    0.4510 C   0  0  1  0  0  0  0  0  0  0  0  0
   -0.3400   -2.0810    0.0710 O   0  0  0  0  0  0  0  0  0  0  0  0
    0.7920   -2.6090   -0.5670 C   0  0  0  0  0  0  0  0  0  0  0  0
    1.1630   -1.5980   -1.4190 O   0  0  0  0  0  0  0  0  0  0  0  0
    1.0700   -0.4400   -0.6490 C   0  0  2  0  0  0  0  0  0  0  0  0
    2.4620   -0.0460   -0.2060 C   0  0  1  0  0  0  0  0  0  0  0  0
    3.0730   -1.0390    0.5550 O   0  0  0  0  0  0  0  0  0  0  0  0
    3.2560    0.2140   -1.3020 O   0  0  0  0  0  0  0  0  0  0  0  0
    3.7430    1.4920   -1.2770 N   0  0  0  0  0  0  0  0  0  0  0  0
  2  1  1  1
  2  3  1  0
  2  4  1  0
  2  7  1  0
  4  5  1  0
  5  6  1  0
  6  7  1  0
  7  8  1  1
  7  9  1  0
  9 10  1  6
  9 13  1  0
 10 11  1  0
 11 12  1  0
 13 12  1  6
 13 14  1  0
 14 15  1  6
 14 16  1  0
 16 17  1  0
M  CHG  1  17   1
M  END
