
     RDKit          3D

 17 18  0  0  0  0  0  0  0  0999 V2000
    2.7440   -1.5250   -0.8570 N   0  0  0  0  0  0  0  0  0  0  0  0
    2.2110   -0.2010   -0.8990 C   0  0  2  0  0  0  0  0  0  0  0  0
    3.1550    0.8070   -0.2870 C   0  0  2  0  0  0  0  0  0  0  0  0
    4.3390    0.9340   -0.9960 O   0  0  0  0  0  0  0  0  0  0  0  0
    3.4360    0.3990    1.1260 C   0  0  0  0  0  0  0  0  0  0  0  0
    2.4900   -0.4780    1.6260 O   0  0  0  0  0  0  0  0  0  0  0  0
    1.1840   -0.0870    1.3750 C   0  0  0  0  0  0  0  0  0  0  0  0
    0.8910   -0.0720   -0.1340 C   0  0  1  0  0  0  0  0  0  0  0  0
    0.3070    1.1430   -0.4020 O   0  0  0  0  0  0  0  0  0  0  0  0
   -0.9320    1.1850   -0.9250 C   0  0  0  0  0  0  0  0  0  0  0  0
   -1.9620    0.6200    0.0030 C   0  0  2  0  0  0  0  0  0  0  0  0
   -1.7700   -0.6920    0.3280 O   0  0  0  0  0  0  0  0  0  0  0  0
   -2.6600   -1.0010    1.3770 C   0  0  0  0  0  0  0  0  0  0  0  0
   -4.0540   -0.8260    0.8370 C   0  0  0  0  0  0  0  0  0  0  0  0
   -4.2970    0.4290    0.3330 O   0  0  0  0  0  0  0  0  0  0  0  0
   -3.3500    0.8860   -0.5570 C   0  0  2  0  0  0  0  0  0  0  0  0
   -3.4800    0.3530   -1.8290 O   0  0  0  0  0  0  0  0  0  0  0  0
  2  1  1  1
  2  3  1  0
  2  8  1  0
  3  4  1  6
  3  5  1  0
  5  6  1  0
  6  7  1  0
  7  8  1  0
  8  9  1  6
  9 10  1  0
 11 10  1  6
 11 12  1  0
 11 16  1  0
 12 13  1  0
 13 14  1  0
 14 15  1  0
 15 16  1  0
 16 17  1  6
M  CHG  1   1   1
M  END
