
     RDKit          3D

 17 18  0  0  0  0  0  0  0  0999 V2000
    4.8260   -0.8160    1.3140 O   0  0  0  0  0  0  0  0  0  0  0  0
    4.2700   -0.6920    0.0290 C   0  0  1  0  0  0  0  0  0  0  0  0
    3.8190   -1.8970   -0.4520 O   0  0  0  0  0  0  0  0  0  0  0  0
    3.1370    0.3510    0.0790 C   0  0  0  0  0  0  0  0  0  0  0  0
    2.1670   -0.0240    0.9460 O   0  0  0  0  0  0  0  0  0  0  0  0
    1.1080    0.7670    1.1810 C   0  0  0  0  0  0  0  0  0  0  0  0
    0.2540    1.0720   -0.0230 C   0  0  2  0  0  0  0  0  0  0  0  0
    1.0400    1.7570   -0.9440 O   0  0  0  0  0  0  0  0  0  0  0  0
   -0.7980    2.0370    0.4360 C   0  0  0  0  0  0  0  0  0  0  0  0
   -2.0850    1.7720   -0.0190 O   0  0  0  0  0  0  0  0  0  0  0  0
   -2.3680    0.4840    0.4050 C   0  0  1  0  0  0  0  0  0  0  0  0
   -3.7720    0.0350    0.2430 C   0  0  0  0  0  0  0  0  0  0  0  0
   -3.6670   -1.4020    0.0790 N   0  0  0  0  0  0  0  0  0  0  0  0
   -2.2830   -1.7150   -0.2520 C   0  0  0  0  0  0  0  0  0  0  0  0
   -1.7040   -0.4080   -0.6600 C   0  0  2  0  0  0  0  0  0  0  0  0
   -0.2500   -0.2360   -0.5510 C   0  0  1  0  0  0  0  0  0  0  0  0
    0.2730   -0.3860   -1.8600 O   0  0  0  0  0  0  0  0  0  0  0  0
  2  1  1  1
  2  3  1  0
  2  4  1  0
  4  5  1  0
  5  6  1  0
  6  7  1  0
  7  8  1  6
  7  9  1  0
  7 16  1  0
  9 10  1  0
 10 11  1  0
 11 12  1  6
 11 15  1  0
 12 13  1  0
 13 14  1  0
 15 14  1  1
 15 16  1  0
 16 17  1  6
M  CHG  1  13   1
M  END
