
     RDKit          3D

 13 14  0  0  0  0  0  0  0  0999 V2000
   -2.6340    0.9700    0.3340 C   0  0  0  0  0  0  0  0  0  0  0  0
   -2.5430   -0.4790    0.6470 C   0  0  0  0  0  0  0  0  0  0  0  0
   -1.3610   -1.1600    0.2640 N   0  0  0  0  0  0  0  0  0  0  0  0
   -1.1190   -1.3600   -1.1260 C   0  0  0  0  0  0  0  0  0  0  0  0
    0.3380   -1.1440   -1.3020 N   0  0  0  0  0  0  0  0  0  0  0  0
    0.4850   -0.0050   -0.4200 C   0  0  2  0  0  0  0  0  0  0  0  0
    1.7810    0.5070   -0.2460 N   0  0  0  0  0  0  0  0  0  0  0  0
    2.2470    1.6560   -0.7710 C   0  0  0  0  0  0  0  0  0  0  0  0
    3.5150    1.8410   -0.3950 N   0  0  0  0  0  0  0  0  0  0  0  0
    3.8740    0.8190    0.3710 N   0  0  0  0  0  0  0  0  0  0  0  0
    2.8020    0.0010    0.4580 C   0  0  0  0  0  0  0  0  0  0  0  0
    2.8330   -1.0600    1.1210 O   0  0  0  0  0  0  0  0  0  0  0  0
   -0.1530   -0.5680    0.8310 C   0  0  0  0  0  0  0  0  0  0  0  0
  1  2  1  0
  2  3  1  0
  3  4  1  0
  3 13  1  0
  4  5  1  0
  5  6  1  0
  6  7  1  1
  6 13  1  0
  7  8  1  0
  7 11  1  0
  8  9  2  0
  9 10  1  0
 10 11  1  0
 11 12  2  0
M  END
