
     RDKit          3D

 21 22  0  0  0  0  0  0  0  0999 V2000
   -6.3100    1.1670    1.0010 N   0  0  0  0  0  0  0  0  0  0  0  0
   -5.7720    0.1340   -0.2830 S   0  0  1  0  0  0  0  0  0  0  0  0
   -6.5530   -1.1570   -0.2910 O   0  0  0  0  0  0  0  0  0  0  0  0
   -5.9290    0.8800   -1.5770 O   0  0  0  0  0  0  0  0  0  0  0  0
   -4.0670   -0.2230   -0.0920 C   0  0  0  0  0  0  0  0  0  0  0  0
   -3.1340    0.5780   -0.6610 C   0  0  0  0  0  0  0  0  0  0  0  0
   -1.7640    0.2950   -0.5100 C   0  0  0  0  0  0  0  0  0  0  0  0
   -1.2950   -0.7760    0.2000 C   0  0  0  0  0  0  0  0  0  0  0  0
    0.0530   -1.1090    0.3980 N   0  0  0  0  0  0  0  0  0  0  0  0
    1.1800   -0.3550    0.0240 C   0  0  0  0  0  0  0  0  0  0  0  0
    1.0150    0.7230   -0.5380 O   0  0  0  0  0  0  0  0  0  0  0  0
    2.5100   -0.8020    0.2770 N   0  0  0  0  0  0  0  0  0  0  0  0
    3.6910   -0.1140   -0.0570 C   0  0  0  0  0  0  0  0  0  0  0  0
    4.8750   -0.8620    0.0770 C   0  0  0  0  0  0  0  0  0  0  0  0
    6.0970   -0.3430   -0.1930 C   0  0  0  0  0  0  0  0  0  0  0  0
    6.1560    0.9720   -0.6150 C   0  0  0  0  0  0  0  0  0  0  0  0
    7.4020    1.4680   -0.8800 F   0  0  0  0  0  0  0  0  0  0  0  0
    5.0170    1.7150   -0.7510 C   0  0  0  0  0  0  0  0  0  0  0  0
    3.7610    1.1950   -0.4770 C   0  0  0  0  0  0  0  0  0  0  0  0
   -2.2970   -1.5790    0.7730 C   0  0  0  0  0  0  0  0  0  0  0  0
   -3.6370   -1.3170    0.6360 C   0  0  0  0  0  0  0  0  0  0  0  0
  2  1  1  1
  2  3  2  0
  2  4  2  0
  2  5  1  0
  5  6  2  0
  5 21  1  0
  6  7  1  0
  7  8  2  0
  8  9  1  0
  8 20  1  0
  9 10  1  0
 10 11  2  0
 10 12  1  0
 12 13  1  0
 13 14  2  0
 13 19  1  0
 14 15  1  0
 15 16  2  0
 16 17  1  0
 16 18  1  0
 18 19  2  0
 20 21  2  0
M  END
