
     RDKit          3D

 12 13  0  0  0  0  0  0  0  0999 V2000
   -3.6550    0.4260   -0.0760 O   0  0  0  0  0  0  0  0  0  0  0  0
   -2.4000    0.7890    0.4060 C   0  0  0  0  0  0  0  0  0  0  0  0
   -1.3260   -0.0530   -0.1840 C   0  0  0  0  0  0  0  0  0  0  0  0
   -1.4160   -1.0590   -1.0720 N   0  0  0  0  0  0  0  0  0  0  0  0
   -0.2170   -1.5460   -1.3370 N   0  0  0  0  0  0  0  0  0  0  0  0
    0.7080   -0.8790   -0.6330 C   0  0  0  0  0  0  0  0  0  0  0  0
    0.0160    0.0770    0.1070 C   0  0  0  0  0  0  0  0  0  0  0  0
    0.6020    1.0200    1.0060 N   0  0  0  0  0  0  0  0  0  0  0  0
    1.8330    1.3560    1.2140 C   0  0  0  0  0  0  0  0  0  0  0  0
    2.9870    0.8250    0.5460 N   0  0  0  0  0  0  0  0  0  0  0  0
    3.1130   -0.2040   -0.2350 C   0  0  0  0  0  0  0  0  0  0  0  0
    2.1090   -1.1200   -0.6570 N   0  0  0  0  0  0  0  0  0  0  0  0
  1  2  1  0
  2  3  1  0
  3  4  1  0
  3  7  2  0
  4  5  1  0
  5  6  2  0
  6  7  1  0
  6 12  1  0
  7  8  1  0
  8  9  2  0
  9 10  1  0
 10 11  2  0
 11 12  1  0
M  END
