
     RDKit          3D

 13 14  0  0  0  0  0  0  0  0999 V2000
    0.6730    0.8470   -1.6630 O   0  0  0  0  0  0  0  0  0  0  0  0
    0.3270    0.2980   -0.5820 C   0  0  0  0  0  0  0  0  0  0  0  0
    1.2970   -0.1890    0.3410 N   0  0  0  0  0  0  0  0  0  0  0  0
    2.6900   -0.0530    0.0370 C   0  0  0  0  0  0  0  0  0  0  0  0
    3.2040    0.5030   -1.0630 N   0  0  0  0  0  0  0  0  0  0  0  0
    4.5150    0.4320   -0.9590 N   0  0  0  0  0  0  0  0  0  0  0  0
    4.8160   -0.1550    0.1760 N   0  0  0  0  0  0  0  0  0  0  0  0
    3.7020   -0.4650    0.8110 N   0  0  0  0  0  0  0  0  0  0  0  0
   -1.1170    0.1730   -0.2990 C   0  0  0  0  0  0  0  0  0  0  0  0
   -1.6200   -0.3770    0.7880 C   0  0  0  0  0  0  0  0  0  0  0  0
   -3.0880   -0.3100    0.6980 C   0  0  0  0  0  0  0  0  0  0  0  0
   -3.3400    0.3570   -0.5950 C   0  0  0  0  0  0  0  0  0  0  0  0
   -2.1880    0.6360   -1.1710 C   0  0  0  0  0  0  0  0  0  0  0  0
  1  2  2  0
  2  3  1  0
  2  9  1  0
  3  4  1  0
  4  5  2  0
  4  8  1  0
  5  6  1  0
  6  7  2  0
  7  8  1  0
  9 10  2  0
  9 13  1  0
 10 11  1  0
 11 12  1  0
 12 13  2  0
M  END
