
     RDKit          3D

 13 14  0  0  0  0  0  0  0  0999 V2000
    4.4500    1.4070    0.2330 O   0  0  0  0  0  0  0  0  0  0  0  0
    3.6380    0.4250    0.2600 C   0  0  0  0  0  0  0  0  0  0  0  0
    4.0200   -0.8200    0.5500 N   0  0  0  0  0  0  0  0  0  0  0  0
    2.9260   -1.5570    0.4820 N   0  0  0  0  0  0  0  0  0  0  0  0
    1.8600   -0.7720    0.1490 C   0  0  0  0  0  0  0  0  0  0  0  0
    0.4590   -1.2450   -0.0250 C   0  0  0  0  0  0  0  0  0  0  0  0
   -0.4510   -0.1890   -0.2750 N   0  0  0  0  0  0  0  0  0  0  0  0
   -0.5680    0.8070    0.7230 C   0  0  0  0  0  0  0  0  0  0  0  0
   -1.8630    0.7860    1.4900 C   0  0  0  0  0  0  0  0  0  0  0  0
   -3.0150    0.5780    0.6420 N   0  0  0  0  0  0  0  0  0  0  0  0
   -2.6550    0.5690   -0.7660 C   0  0  0  0  0  0  0  0  0  0  0  0
   -1.6530   -0.5520   -0.9470 C   0  0  0  0  0  0  0  0  0  0  0  0
    2.3170    0.4840    0.0090 N   0  0  0  0  0  0  0  0  0  0  0  0
  1  2  2  0
  2  3  1  0
  2 13  1  0
  3  4  1  0
  4  5  2  0
  5  6  1  0
  5 13  1  0
  6  7  1  0
  7  8  1  0
  7 12  1  0
  8  9  1  0
  9 10  1  0
 10 11  1  0
 11 12  1  0
M  END
