
     RDKit          3D

 13 14  0  0  0  0  0  0  0  0999 V2000
   -0.4430   -0.5150   -1.7610 O   0  0  0  0  0  0  0  0  0  0  0  0
    0.0780   -0.1960   -0.6520 C   0  0  0  0  0  0  0  0  0  0  0  0
   -0.7270    0.1340    0.4620 N   0  0  0  0  0  0  0  0  0  0  0  0
   -2.1420    0.1220    0.3880 C   0  0  0  0  0  0  0  0  0  0  0  0
   -2.9100   -0.1880   -0.6980 N   0  0  0  0  0  0  0  0  0  0  0  0
   -4.2120   -0.0860   -0.3790 C   0  0  0  0  0  0  0  0  0  0  0  0
   -4.2370    0.2890    0.9120 N   0  0  0  0  0  0  0  0  0  0  0  0
   -3.0030    0.4150    1.3730 N   0  0  0  0  0  0  0  0  0  0  0  0
    1.5530   -0.1710   -0.5300 C   0  0  0  0  0  0  0  0  0  0  0  0
    2.1930    0.1470    0.5770 C   0  0  0  0  0  0  0  0  0  0  0  0
    3.6420    0.0500    0.2790 C   0  0  0  0  0  0  0  0  0  0  0  0
    3.6830   -0.3480   -1.0880 N   0  0  0  0  0  0  0  0  0  0  0  0
    2.5040   -0.4850   -1.5860 C   0  0  0  0  0  0  0  0  0  0  0  0
  1  2  2  0
  2  3  1  0
  2  9  1  0
  3  4  1  0
  4  5  2  0
  4  8  1  0
  5  6  1  0
  6  7  2  0
  7  8  1  0
  9 10  2  0
  9 13  1  0
 10 11  1  0
 11 12  1  0
 12 13  2  0
M  END
