
     RDKit          3D

 13 14  0  0  0  0  0  0  0  0999 V2000
    3.6920    0.8850    0.3240 C   0  0  0  0  0  0  0  0  0  0  0  0
    3.1600    0.1700    1.3910 O   0  0  0  0  0  0  0  0  0  0  0  0
    2.4280   -0.9310    0.9780 C   0  0  0  0  0  0  0  0  0  0  0  0
    1.2840   -0.5660    0.1160 C   0  0  0  0  0  0  0  0  0  0  0  0
    1.1890   -0.4330   -1.2060 N   0  0  0  0  0  0  0  0  0  0  0  0
   -0.0460   -0.0880   -1.5330 N   0  0  0  0  0  0  0  0  0  0  0  0
   -0.7870    0.0120   -0.4250 C   0  0  0  0  0  0  0  0  0  0  0  0
   -2.1990    0.3660   -0.3020 C   0  0  0  0  0  0  0  0  0  0  0  0
   -3.0790    0.6760   -1.3150 C   0  0  0  0  0  0  0  0  0  0  0  0
   -4.2910    0.9430   -0.7560 N   0  0  0  0  0  0  0  0  0  0  0  0
   -4.2090    0.8130    0.5660 N   0  0  0  0  0  0  0  0  0  0  0  0
   -2.9400    0.4620    0.8570 C   0  0  0  0  0  0  0  0  0  0  0  0
    0.0490   -0.2870    0.5920 N   0  0  0  0  0  0  0  0  0  0  0  0
  1  2  1  0
  2  3  1  0
  3  4  1  0
  4  5  2  0
  4 13  1  0
  5  6  1  0
  6  7  1  0
  7  8  1  0
  7 13  2  0
  8  9  1  0
  8 12  2  0
  9 10  2  0
 10 11  1  0
 11 12  1  0
M  END
