
     RDKit          3D

 13 14  0  0  0  0  0  0  0  0999 V2000
    4.6680    0.5820   -0.1430 C   0  0  0  0  0  0  0  0  0  0  0  0
    3.3880    0.3870   -0.5360 N   0  0  0  0  0  0  0  0  0  0  0  0
    2.8610   -0.6280    0.1940 C   0  0  0  0  0  0  0  0  0  0  0  0
    1.5500   -1.1690    0.1190 N   0  0  0  0  0  0  0  0  0  0  0  0
    0.5820   -0.7100   -0.7560 N   0  0  0  0  0  0  0  0  0  0  0  0
   -0.6410   -0.4910   -0.4700 C   0  0  0  0  0  0  0  0  0  0  0  0
   -1.2660   -0.6860    0.8620 C   0  0  0  0  0  0  0  0  0  0  0  0
   -1.8800    0.6370    1.2640 C   0  0  0  0  0  0  0  0  0  0  0  0
   -2.4840    1.3420    0.1780 N   0  0  0  0  0  0  0  0  0  0  0  0
   -2.8170    0.4540   -0.9190 C   0  0  0  0  0  0  0  0  0  0  0  0
   -1.5200    0.0030   -1.5620 C   0  0  0  0  0  0  0  0  0  0  0  0
    3.8610   -1.0090    1.0090 N   0  0  0  0  0  0  0  0  0  0  0  0
    4.9050   -0.2840    0.7890 O   0  0  0  0  0  0  0  0  0  0  0  0
  1  2  2  0
  1 13  1  0
  2  3  1  0
  3  4  1  0
  3 12  2  0
  4  5  1  0
  5  6  2  3
  6  7  1  0
  6 11  1  0
  7  8  1  0
  8  9  1  0
  9 10  1  0
 10 11  1  0
 12 13  1  0
M  END
