
     RDKit          3D

 22 22  0  0  0  0  0  0  0  0999 V2000
   -2.0630    3.3040   -1.8360 C   0  0  0  0  0  0  0  0  0  0  0  0
   -2.7390    2.5110   -0.8020 C   0  0  0  0  0  0  0  0  0  0  0  0
   -2.4710    1.2580   -0.5230 C   0  0  0  0  0  0  0  0  0  0  0  0
   -1.3830    0.6000   -1.3330 C   0  0  0  0  0  0  0  0  0  0  0  0
   -0.0720    1.1240   -0.9310 C   0  0  1  0  0  0  0  0  0  0  0  0
   -0.2920    1.9330    0.2320 O   0  0  0  0  0  0  0  0  0  0  0  0
    1.0550    0.2090   -0.7200 C   0  0  0  0  0  0  0  0  0  0  0  0
    1.9760    0.7040    0.2570 O   0  0  0  0  0  0  0  0  0  0  0  0
    3.0820   -0.0280    0.6950 C   0  0  0  0  0  0  0  0  0  0  0  0
    3.8830    0.7280    1.6970 C   0  0  0  0  0  0  0  0  0  0  0  0
    3.0490    1.0760    2.9170 C   0  0  0  0  0  0  0  0  0  0  0  0
    2.5930   -0.0840    3.5120 O   0  0  0  0  0  0  0  0  0  0  0  0
    1.3710   -0.9330   -1.2370 C   0  0  0  0  0  0  0  0  0  0  0  0
    0.7070   -1.7740   -2.2620 C   0  0  2  0  0  0  0  0  0  0  0  0
    0.0760   -1.0990   -3.2780 O   0  0  0  0  0  0  0  0  0  0  0  0
   -0.1250   -2.8690   -1.6260 C   0  0  0  0  0  0  0  0  0  0  0  0
   -0.1500   -2.7800   -0.1300 C   0  0  0  0  0  0  0  0  0  0  0  0
   -1.5580   -2.6880    0.4540 C   0  0  0  0  0  0  0  0  0  0  0  0
   -1.8600   -1.4240    0.8820 O   0  0  0  0  0  0  0  0  0  0  0  0
   -2.8900   -0.6020    1.0810 C   0  0  0  0  0  0  0  0  0  0  0  0
   -3.2000    0.5520    0.5110 C   0  0  0  0  0  0  0  0  0  0  0  0
   -4.3860    1.2240    0.9280 O   0  0  0  0  0  0  0  0  0  0  0  0
  1  2  1  0
  2  3  2  3
  3  4  1  0
  3 21  1  0
  4  5  1  0
  5  6  1  1
  5  7  1  0
  7  8  1  0
  7 13  2  0
  8  9  1  0
  9 10  1  0
 10 11  1  0
 11 12  1  0
 13 14  1  0
 14 15  1  1
 14 16  1  0
 16 17  1  0
 17 18  1  0
 18 19  1  0
 19 20  1  0
 20 21  2  0
 21 22  1  0
M  END
