
     RDKit          3D

 22 23  0  0  0  0  0  0  0  0999 V2000
   -0.9190   -0.0400    1.8220 C   0  0  0  0  0  0  0  0  0  0  0  0
   -1.3740    0.0120    0.3980 C   0  0  2  0  0  0  0  0  0  0  0  0
   -0.4780   -0.7550   -0.5440 C   0  0  2  0  0  0  0  0  0  0  0  0
   -1.0490   -0.6010   -1.8280 O   0  0  0  0  0  0  0  0  0  0  0  0
   -0.6010   -2.2180   -0.2070 C   0  0  0  0  0  0  0  0  0  0  0  0
    0.7360   -2.9250   -0.3270 C   0  0  0  0  0  0  0  0  0  0  0  0
    1.6110   -2.3300    0.5290 O   0  0  0  0  0  0  0  0  0  0  0  0
    1.9810   -1.0760    0.0080 C   0  0  2  0  0  0  0  0  0  0  0  0
    3.1340   -1.4590   -0.9430 C   0  0  0  0  0  0  0  0  0  0  0  0
    4.1380   -2.0650   -0.1500 O   0  0  0  0  0  0  0  0  0  0  0  0
    2.6300   -0.3100    1.1470 C   0  0  0  0  0  0  0  0  0  0  0  0
    2.9200    0.9640    0.9640 O   0  0  0  0  0  0  0  0  0  0  0  0
    3.6970    1.4740   -0.0130 C   0  0  0  0  0  0  0  0  0  0  0  0
    3.8950    2.9640    0.1830 C   0  0  0  0  0  0  0  0  0  0  0  0
    3.3760    3.4860    1.1190 O   0  0  0  0  0  0  0  0  0  0  0  0
    0.9280   -0.2680   -0.6020 C   0  0  0  0  0  0  0  0  0  0  0  0
   -1.4820    1.4720    0.0080 C   0  0  0  0  0  0  0  0  0  0  0  0
   -2.7310    2.0670    0.6540 C   0  0  0  0  0  0  0  0  0  0  0  0
   -3.9850    1.5480   -0.0200 C   0  0  1  0  0  0  0  0  0  0  0  0
   -4.4990    2.4330   -0.9370 O   0  0  0  0  0  0  0  0  0  0  0  0
   -3.6230    0.2410   -0.6890 C   0  0  0  0  0  0  0  0  0  0  0  0
   -2.7730   -0.5690    0.2600 C   0  0  0  0  0  0  0  0  0  0  0  0
  2  1  1  1
  2  3  1  0
  2 17  1  0
  2 22  1  0
  3  4  1  6
  3  5  1  0
  3 16  1  0
  5  6  1  0
  6  7  1  0
  7  8  1  0
  8  9  1  6
  8 11  1  0
  8 16  1  0
  9 10  1  0
 11 12  1  0
 12 13  1  0
 13 14  1  0
 14 15  2  0
 17 18  1  0
 18 19  1  0
 19 20  1  6
 19 21  1  0
 21 22  1  0
M  END
