
     RDKit          3D

 20 21  0  0  0  0  0  0  0  0999 V2000
   -5.9320   -0.1860    0.8750 C   0  0  0  0  0  0  0  0  0  0  0  0
   -4.6860    0.3850    0.4640 O   0  0  0  0  0  0  0  0  0  0  0  0
   -3.5230   -0.3370    0.3810 C   0  0  0  0  0  0  0  0  0  0  0  0
   -3.5200   -1.5600    0.6750 O   0  0  0  0  0  0  0  0  0  0  0  0
   -2.2190    0.2520   -0.0470 C   0  0  1  0  0  0  0  0  0  0  0  0
   -2.4720    1.6590   -0.3290 N   0  0  0  0  0  0  0  0  0  0  0  0
   -1.2970    0.1030    1.1210 C   0  0  0  0  0  0  0  0  0  0  0  0
    0.0060    0.1710    0.8710 C   0  0  0  0  0  0  0  0  0  0  0  0
    0.3990    0.3890   -0.5480 C   0  0  1  0  0  0  0  0  0  0  0  0
    1.8250    0.4540   -0.7280 N   0  0  0  0  0  0  0  0  0  0  0  0
    2.6690   -0.6350   -0.3740 C   0  0  0  0  0  0  0  0  0  0  0  0
    2.3140   -1.8840   -0.5560 N   0  0  0  0  0  0  0  0  0  0  0  0
    3.3180   -2.7520   -0.1280 N   0  0  0  0  0  0  0  0  0  0  0  0
    4.4010   -1.9750    0.3670 C   0  0  0  0  0  0  0  0  0  0  0  0
    5.4950   -2.3870    0.8430 O   0  0  0  0  0  0  0  0  0  0  0  0
    3.9940   -0.5850    0.2140 C   0  0  0  0  0  0  0  0  0  0  0  0
    4.6740    0.4870    0.5470 C   0  0  0  0  0  0  0  0  0  0  0  0
    4.2980    1.8250    0.4230 N   0  0  0  0  0  0  0  0  0  0  0  0
   -0.2940   -0.5830   -1.4390 C   0  0  0  0  0  0  0  0  0  0  0  0
   -1.7650   -0.5030   -1.2540 C   0  0  0  0  0  0  0  0  0  0  0  0
  1  2  1  0
  2  3  1  0
  3  4  2  0
  3  5  1  0
  5  6  1  6
  5  7  1  0
  5 20  1  0
  7  8  2  0
  8  9  1  0
  9 10  1  1
  9 19  1  0
 10 11  1  0
 11 12  2  0
 11 16  1  0
 12 13  1  0
 13 14  1  0
 14 15  2  0
 14 16  1  0
 16 17  2  3
 17 18  1  0
 19 20  1  0
M  CHG  2   6   1  18   1
M  END
