
     RDKit          3D

 20 21  0  0  0  0  0  0  0  0999 V2000
   -4.4140   -1.5400   -2.1330 N   0  0  0  0  0  0  0  0  0  0  0  0
   -4.4560   -0.5630   -1.0600 C   0  0  0  0  0  0  0  0  0  0  0  0
   -5.0750   -0.7790    0.0690 C   0  0  0  0  0  0  0  0  0  0  0  0
   -5.1100    0.1930    1.1050 N   0  0  0  0  0  0  0  0  0  0  0  0
   -4.4450    1.4190    0.8780 C   0  0  0  0  0  0  0  0  0  0  0  0
   -4.7750    2.4850    1.4230 O   0  0  0  0  0  0  0  0  0  0  0  0
   -3.2830    1.3770   -0.0850 C   0  0  1  0  0  0  0  0  0  0  0  0
   -2.1690    0.6340    0.5670 C   0  0  0  0  0  0  0  0  0  0  0  0
   -0.9590    0.5240   -0.2280 C   0  0  0  0  0  0  0  0  0  0  0  0
   -0.6530    0.7620   -1.3160 O   0  0  0  0  0  0  0  0  0  0  0  0
    0.3440   -0.1180    0.7310 N   0  0  0  0  0  0  0  0  0  0  0  0
    1.3310   -0.0420   -0.2450 C   0  0  0  0  0  0  0  0  0  0  0  0
    1.4040    0.1860   -1.4140 O   0  0  0  0  0  0  0  0  0  0  0  0
    2.6680   -0.3370    0.4060 N   0  0  0  0  0  0  0  0  0  0  0  0
    3.8210   -0.3930   -0.4080 C   0  0  1  0  0  0  0  0  0  0  0  0
    4.5560    0.9570   -0.2720 C   0  0  0  0  0  0  0  0  0  0  0  0
    5.3970    0.6740    0.9430 C   0  0  0  0  0  0  0  0  0  0  0  0
    5.8970   -0.6470    0.7020 N   0  0  0  0  0  0  0  0  0  0  0  0
    4.7700   -1.3870    0.1800 C   0  0  0  0  0  0  0  0  0  0  0  0
   -3.7260    0.7060   -1.3760 C   0  0  0  0  0  0  0  0  0  0  0  0
  1  2  1  0
  2  3  2  0
  2 20  1  0
  3  4  1  0
  4  5  1  0
  5  6  2  0
  5  7  1  0
  7  8  1  1
  7 20  1  0
  8  9  1  0
  9 10  2  0
  9 11  1  0
 11 12  1  0
 12 13  2  0
 12 14  1  0
 15 14  1  1
 15 16  1  0
 15 19  1  0
 16 17  1  0
 17 18  1  0
 18 19  1  0
M  CHG  2   1   1  18   1
M  END
