
     RDKit          3D

 20 21  0  0  0  0  0  0  0  0999 V2000
   -4.2850   -1.1730   -2.8480 C   0  0  0  0  0  0  0  0  0  0  0  0
   -3.3140   -0.6080   -2.1900 C   0  0  0  0  0  0  0  0  0  0  0  0
   -3.2750   -0.3360   -0.7660 C   0  0  0  0  0  0  0  0  0  0  0  0
   -4.3840   -0.5240   -0.0400 N   0  0  0  0  0  0  0  0  0  0  0  0
   -4.4440   -0.3030    1.2600 N   0  0  0  0  0  0  0  0  0  0  0  0
   -3.3680    0.1290    1.9040 C   0  0  0  0  0  0  0  0  0  0  0  0
   -2.1810    0.3420    1.1880 C   0  0  0  0  0  0  0  0  0  0  0  0
   -1.1200    0.7890    1.9180 O   0  0  0  0  0  0  0  0  0  0  0  0
   -2.0910    0.1200   -0.1480 C   0  0  0  0  0  0  0  0  0  0  0  0
   -0.9210    0.3190   -0.9530 C   0  0  1  0  0  0  0  0  0  0  0  0
   -1.1010    1.4210   -1.8580 O   0  0  0  0  0  0  0  0  0  0  0  0
    0.4160    0.5040   -0.3600 C   0  0  1  0  0  0  0  0  0  0  0  0
    0.6590    1.6260    0.3780 O   0  0  0  0  0  0  0  0  0  0  0  0
    1.0670   -0.7060    0.2250 C   0  0  0  0  0  0  0  0  0  0  0  0
    2.5130   -0.4260    0.2510 N   0  0  0  0  0  0  0  0  0  0  0  0
    3.4340   -0.2850   -0.8390 C   0  0  0  0  0  0  0  0  0  0  0  0
    4.4000    0.7600   -0.2670 C   0  0  0  0  0  0  0  0  0  0  0  0
    4.3600    0.4330    1.1440 N   0  0  0  0  0  0  0  0  0  0  0  0
    3.2910   -0.2380    1.4360 C   0  0  0  0  0  0  0  0  0  0  0  0
    2.9830   -0.6960    2.7520 N   0  0  0  0  0  0  0  0  0  0  0  0
  1  2  2  0
  2  3  1  0
  3  4  2  0
  3  9  1  0
  4  5  1  0
  5  6  2  0
  6  7  1  0
  7  8  1  0
  7  9  2  0
  9 10  1  0
 10 11  1  1
 10 12  1  0
 12 13  1  1
 12 14  1  0
 14 15  1  0
 15 16  1  0
 15 19  1  0
 16 17  1  0
 17 18  1  0
 18 19  2  0
 19 20  1  0
M  CHG  2   4   1  18   1
M  END
