
     RDKit          3D

 22 23  0  0  0  0  0  0  0  0999 V2000
   -4.7950    0.8130   -2.6940 O   0  0  0  0  0  0  0  0  0  0  0  0
   -4.7750    1.2960   -1.5340 C   0  0  0  0  0  0  0  0  0  0  0  0
   -5.5970    2.3780   -1.2840 O   0  0  0  0  0  0  0  0  0  0  0  0
   -3.9300    0.7630   -0.4670 C   0  0  2  0  0  0  0  0  0  0  0  0
   -4.1370    1.5190    0.7030 O   0  0  0  0  0  0  0  0  0  0  0  0
   -2.5170    0.8060   -0.8820 C   0  0  0  0  0  0  0  0  0  0  0  0
   -1.6370    0.0540   -0.2640 C   0  0  0  0  0  0  0  0  0  0  0  0
   -0.2500    0.1470   -0.7280 C   0  0  0  0  0  0  0  0  0  0  0  0
    0.6620   -0.5940   -0.1240 C   0  0  0  0  0  0  0  0  0  0  0  0
    2.0850   -0.4860   -0.6150 C   0  0  0  0  0  0  0  0  0  0  0  0
    2.8760   -0.0440    0.4690 O   0  0  0  0  0  0  0  0  0  0  0  0
    4.2300    0.1320    0.2650 C   0  0  0  0  0  0  0  0  0  0  0  0
    4.7940   -0.1160   -0.9650 C   0  0  0  0  0  0  0  0  0  0  0  0
    6.1450    0.0550   -1.1860 C   0  0  0  0  0  0  0  0  0  0  0  0
    6.9140    0.4800   -0.1490 C   0  0  0  0  0  0  0  0  0  0  0  0
    6.3580    0.7350    1.1000 C   0  0  0  0  0  0  0  0  0  0  0  0
    4.9930    0.5630    1.3270 C   0  0  0  0  0  0  0  0  0  0  0  0
   -1.9830   -0.8720    0.8610 C   0  0  1  0  0  0  0  0  0  0  0  0
   -1.3350   -0.4880    2.0490 O   0  0  0  0  0  0  0  0  0  0  0  0
   -3.4440   -1.0750    1.0610 C   0  0  2  0  0  0  0  0  0  0  0  0
   -3.6640   -2.4360    1.3620 O   0  0  0  0  0  0  0  0  0  0  0  0
   -4.2680   -0.6810   -0.1430 C   0  0  0  0  0  0  0  0  0  0  0  0
  1  2  2  0
  2  3  1  0
  2  4  1  0
  4  5  1  1
  4  6  1  0
  4 22  1  0
  6  7  2  0
  7  8  1  0
  7 18  1  0
  8  9  2  3
  9 10  1  0
 10 11  1  0
 11 12  1  0
 12 13  2  0
 12 17  1  0
 13 14  1  0
 14 15  2  0
 15 16  1  0
 16 17  2  0
 18 19  1  1
 18 20  1  0
 20 21  1  6
 20 22  1  0
M  END
