
     RDKit          3D

 20 22  0  0  0  0  0  0  0  0999 V2000
   -4.3660    1.3180   -0.4180 C   0  0  0  0  0  0  0  0  0  0  0  0
   -3.4100    0.3420    0.2310 C   0  0  1  0  0  0  0  0  0  0  0  0
   -4.0180   -0.3520    1.3810 C   0  0  0  0  0  0  0  0  0  0  0  0
   -5.2370   -1.0790    1.2920 N   0  0  0  0  0  0  0  0  0  0  0  0
   -3.4290   -0.3010    2.5070 O   0  0  0  0  0  0  0  0  0  0  0  0
   -3.0480   -0.7170   -0.8030 C   0  0  0  0  0  0  0  0  0  0  0  0
   -1.5580   -0.7950   -0.6020 C   0  0  0  0  0  0  0  0  0  0  0  0
   -1.2870    0.6980   -0.3690 C   0  0  2  0  0  0  0  0  0  0  0  0
    0.0860    0.8690    0.0980 C   0  0  0  0  0  0  0  0  0  0  0  0
    0.3010    1.4180    1.2660 N   0  0  0  0  0  0  0  0  0  0  0  0
    1.6630    1.5760    1.7050 C   0  0  0  0  0  0  0  0  0  0  0  0
    1.9100    2.4490    2.5930 O   0  0  0  0  0  0  0  0  0  0  0  0
    2.7330    0.8190    1.2070 N   0  0  0  0  0  0  0  0  0  0  0  0
    2.5060    0.1980   -0.0570 C   0  0  2  0  0  0  0  0  0  0  0  0
    2.6500   -1.3260    0.0640 C   0  0  0  0  0  0  0  0  0  0  0  0
    4.1530   -1.4660    0.1050 C   0  0  0  0  0  0  0  0  0  0  0  0
    4.7170   -0.2740   -0.4540 N   0  0  0  0  0  0  0  0  0  0  0  0
    3.6290    0.5040   -1.0180 C   0  0  0  0  0  0  0  0  0  0  0  0
    1.2070    0.4760   -0.6360 N   0  0  0  0  0  0  0  0  0  0  0  0
   -2.2370    0.9640    0.5950 O   0  0  0  0  0  0  0  0  0  0  0  0
  2  1  1  6
  2  3  1  0
  2  6  1  0
  2 20  1  0
  3  4  1  0
  3  5  2  0
  6  7  1  0
  7  8  1  0
  8  9  1  1
  8 20  1  0
  9 10  2  0
  9 19  1  0
 10 11  1  0
 11 12  2  0
 11 13  1  0
 13 14  1  0
 14 15  1  1
 14 18  1  0
 14 19  1  0
 15 16  1  0
 16 17  1  0
 17 18  1  0
M  CHG  2  13   1  17   1
M  END
