
     RDKit          3D

 20 21  0  0  0  0  0  0  0  0999 V2000
   -4.4630    2.3110   -0.4380 C   0  0  0  0  0  0  0  0  0  0  0  0
   -3.0590    2.2530   -0.1200 N   0  0  0  0  0  0  0  0  0  0  0  0
   -2.5020    0.9270   -0.4490 C   0  0  1  0  0  0  0  0  0  0  0  0
   -1.0340    0.9630   -0.5520 C   0  0  0  0  0  0  0  0  0  0  0  0
   -0.2320    0.1930    0.4050 C   0  0  2  0  0  0  0  0  0  0  0  0
    0.9040   -0.4070   -0.2700 N   0  0  0  0  0  0  0  0  0  0  0  0
    2.2640   -0.0590    0.0430 C   0  0  0  0  0  0  0  0  0  0  0  0
    2.3950    0.7980    0.9400 O   0  0  0  0  0  0  0  0  0  0  0  0
    3.3580   -0.6320   -0.6020 N   0  0  0  0  0  0  0  0  0  0  0  0
    4.6890   -0.2650   -0.2680 C   0  0  0  0  0  0  0  0  0  0  0  0
    5.1610    0.6080    0.6330 N   0  0  0  0  0  0  0  0  0  0  0  0
    6.4980    0.6560    0.6320 C   0  0  0  0  0  0  0  0  0  0  0  0
    6.9000   -0.2380   -0.3240 C   0  0  0  0  0  0  0  0  0  0  0  0
    5.8110   -0.7890   -0.8620 N   0  0  0  0  0  0  0  0  0  0  0  0
   -0.9030   -0.8700    1.1950 C   0  0  0  0  0  0  0  0  0  0  0  0
   -2.2790   -1.2560    0.7820 C   0  0  2  0  0  0  0  0  0  0  0  0
   -2.8760   -1.9030    1.8940 O   0  0  0  0  0  0  0  0  0  0  0  0
   -2.3380   -2.2710   -0.3280 C   0  0  0  0  0  0  0  0  0  0  0  0
   -1.8110   -1.8630   -1.5230 O   0  0  0  0  0  0  0  0  0  0  0  0
   -3.0750   -0.0270    0.5380 C   0  0  0  0  0  0  0  0  0  0  0  0
  1  2  1  0
  3  2  1  1
  3  4  1  0
  3 20  1  0
  4  5  1  0
  5  6  1  6
  5 15  1  0
  6  7  1  0
  7  8  2  0
  7  9  1  0
  9 10  1  0
 10 11  1  0
 10 14  2  0
 11 12  1  0
 12 13  2  0
 13 14  1  0
 15 16  1  0
 16 17  1  1
 16 18  1  0
 16 20  1  0
 18 19  1  0
M  CHG  2   2   1  14   1
M  END
