
     RDKit          3D

 20 21  0  0  0  0  0  0  0  0999 V2000
   -3.5940    2.4630   -1.2530 C   0  0  0  0  0  0  0  0  0  0  0  0
   -2.7290    1.5560   -0.4020 C   0  0  0  0  0  0  0  0  0  0  0  0
   -2.9740    0.2200   -0.6440 O   0  0  0  0  0  0  0  0  0  0  0  0
   -2.1840   -0.6110    0.1410 C   0  0  1  0  0  0  0  0  0  0  0  0
   -2.3910   -0.4110    1.6020 C   0  0  0  0  0  0  0  0  0  0  0  0
   -2.5600   -2.0590   -0.1720 C   0  0  0  0  0  0  0  0  0  0  0  0
   -1.6590   -3.0130    0.5700 C   0  0  0  0  0  0  0  0  0  0  0  0
   -0.4680   -2.4650    0.9510 O   0  0  0  0  0  0  0  0  0  0  0  0
    0.1130   -1.6130    0.0550 C   0  0  2  0  0  0  0  0  0  0  0  0
    1.3510   -1.0560    0.7120 C   0  0  0  0  0  0  0  0  0  0  0  0
    1.6760   -1.3890    1.8730 O   0  0  0  0  0  0  0  0  0  0  0  0
    2.1790   -0.1350    0.0170 N   0  0  0  0  0  0  0  0  0  0  0  0
    3.3580    0.4370    0.5570 C   0  0  0  0  0  0  0  0  0  0  0  0
    3.9510    0.2940    1.7190 C   0  0  0  0  0  0  0  0  0  0  0  0
    5.1290    1.0970    1.7800 N   0  0  0  0  0  0  0  0  0  0  0  0
    5.1940    1.7370    0.5520 N   0  0  0  0  0  0  0  0  0  0  0  0
    4.2000    1.3890   -0.1820 C   0  0  0  0  0  0  0  0  0  0  0  0
    4.0050    1.8940   -1.5090 N   0  0  0  0  0  0  0  0  0  0  0  0
   -0.7520   -0.4310   -0.3080 C   0  0  1  0  0  0  0  0  0  0  0  0
   -0.7790   -0.3330   -1.7550 N   0  0  0  0  0  0  0  0  0  0  0  0
  1  2  1  0
  2  3  1  0
  3  4  1  0
  4  5  1  1
  4  6  1  0
  4 19  1  0
  6  7  1  0
  7  8  1  0
  8  9  1  0
  9 10  1  1
  9 19  1  0
 10 11  2  0
 10 12  1  0
 12 13  1  0
 13 14  2  0
 13 17  1  0
 14 15  1  0
 15 16  1  0
 16 17  2  0
 17 18  1  0
 19 20  1  6
M  CHG  2  15   1  20   1
M  END
