
     RDKit          3D

 12 12  0  0  0  0  0  0  0  0999 V2000
   -2.8380    1.3720    0.1160 O   0  0  0  0  0  0  0  0  0  0  0  0
   -2.5390    0.0970   -0.3140 C   0  0  0  0  0  0  0  0  0  0  0  0
   -1.5170   -0.6000    0.5180 C   0  0  1  0  0  0  0  0  0  0  0  0
   -1.2980   -1.8700   -0.0070 O   0  0  0  0  0  0  0  0  0  0  0  0
   -0.2680    0.1050    0.7930 C   0  0  0  0  0  0  0  0  0  0  0  0
    0.6040    0.5310   -0.3060 C   0  0  2  0  0  0  0  0  0  0  0  0
    0.0600    1.3990   -1.2230 O   0  0  0  0  0  0  0  0  0  0  0  0
    1.2380   -0.5990   -1.0880 C   0  0  0  0  0  0  0  0  0  0  0  0
    2.4190   -0.9320   -0.2030 C   0  0  0  0  0  0  0  0  0  0  0  0
    2.8840    0.3110    0.1520 O   0  0  0  0  0  0  0  0  0  0  0  0
    1.8420    1.1860    0.2790 C   0  0  2  0  0  0  0  0  0  0  0  0
    1.6710    1.4540    1.6430 O   0  0  0  0  0  0  0  0  0  0  0  0
  1  2  1  0
  2  3  1  0
  3  4  1  6
  3  5  1  0
  5  6  1  0
  6  7  1  6
  6  8  1  0
  6 11  1  0
  8  9  1  0
  9 10  1  0
 10 11  1  0
 11 12  1  1
M  END
