
     RDKit          3D

 12 12  0  0  0  0  0  0  0  0999 V2000
   -0.7800    1.1490    1.9670 O   0  0  0  0  0  0  0  0  0  0  0  0
   -1.5660    0.6140    0.9280 C   0  0  0  0  0  0  0  0  0  0  0  0
   -0.5710   -0.0460   -0.0260 C   0  0  1  0  0  0  0  0  0  0  0  0
   -1.3860   -0.6330   -1.1580 C   0  0  0  0  0  0  0  0  0  0  0  0
   -2.1280    0.3020   -1.8600 O   0  0  0  0  0  0  0  0  0  0  0  0
    0.3590    1.0110   -0.4950 C   0  0  0  0  0  0  0  0  0  0  0  0
    1.8090    0.6650   -0.5000 C   0  0  1  0  0  0  0  0  0  0  0  0
    2.5330    1.8720   -0.5200 O   0  0  0  0  0  0  0  0  0  0  0  0
    2.1760   -0.0320    0.6370 O   0  0  0  0  0  0  0  0  0  0  0  0
    1.5520   -1.2770    0.5540 C   0  0  0  0  0  0  0  0  0  0  0  0
    0.0740   -1.1650    0.7390 C   0  0  2  0  0  0  0  0  0  0  0  0
   -0.4830   -2.3990    0.3380 O   0  0  0  0  0  0  0  0  0  0  0  0
  1  2  1  0
  3  2  1  1
  3  4  1  0
  3  6  1  0
  3 11  1  0
  4  5  1  0
  6  7  1  0
  7  8  1  1
  7  9  1  0
  9 10  1  0
 10 11  1  0
 11 12  1  6
M  END
