
     RDKit          3D

 11 11  0  0  0  0  0  0  0  0999 V2000
    2.6320    0.7020    1.0400 O   0  0  0  0  0  0  0  0  0  0  0  0
    1.8400   -0.4310    0.8220 C   0  0  0  0  0  0  0  0  0  0  0  0
    0.8430   -0.1660   -0.3160 C   0  0  1  0  0  0  0  0  0  0  0  0
    1.6640    0.1260   -1.4330 O   0  0  0  0  0  0  0  0  0  0  0  0
    0.0680   -1.3750   -0.6260 C   0  0  0  0  0  0  0  0  0  0  0  0
   -1.3690   -1.3760   -0.2610 C   0  0  0  0  0  0  0  0  0  0  0  0
   -1.9960   -0.0080   -0.4900 C   0  0  0  0  0  0  0  0  0  0  0  0
   -1.2770    0.8810    0.5390 C   0  0  1  0  0  0  0  0  0  0  0  0
   -1.2780    0.2090    1.7680 O   0  0  0  0  0  0  0  0  0  0  0  0
    0.1040    1.0680    0.0150 C   0  0  2  0  0  0  0  0  0  0  0  0
   -0.0040    1.8990   -1.1260 O   0  0  0  0  0  0  0  0  0  0  0  0
  1  2  1  0
  2  3  1  0
  3  4  1  6
  3  5  1  0
  3 10  1  0
  5  6  1  0
  6  7  1  0
  7  8  1  0
  8  9  1  1
  8 10  1  0
 10 11  1  6
M  END
