
     RDKit          3D

 12 12  0  0  0  0  0  0  0  0999 V2000
   -0.7710   -0.7640    2.5640 O   0  0  0  0  0  0  0  0  0  0  0  0
   -1.3530    0.0220    1.5960 C   0  0  0  0  0  0  0  0  0  0  0  0
   -1.1820   -0.4820    0.2080 C   0  0  1  0  0  0  0  0  0  0  0  0
   -1.7460   -1.7450    0.0800 O   0  0  0  0  0  0  0  0  0  0  0  0
   -1.9670    0.4370   -0.7230 C   0  0  0  0  0  0  0  0  0  0  0  0
   -1.1320    0.3260   -1.9880 C   0  0  0  0  0  0  0  0  0  0  0  0
    0.1820    0.1740   -1.5680 O   0  0  0  0  0  0  0  0  0  0  0  0
    0.1740   -0.4480   -0.3450 C   0  0  1  0  0  0  0  0  0  0  0  0
    1.2210    0.2000    0.5240 C   0  0  0  0  0  0  0  0  0  0  0  0
    2.5290    0.1050   -0.2730 C   0  0  2  0  0  0  0  0  0  0  0  0
    2.7710   -1.2370   -0.4830 O   0  0  0  0  0  0  0  0  0  0  0  0
    3.5580    0.7700    0.3510 O   0  0  0  0  0  0  0  0  0  0  0  0
  1  2  1  0
  2  3  1  0
  3  4  1  1
  3  5  1  0
  3  8  1  0
  5  6  1  0
  6  7  1  0
  7  8  1  0
  8  9  1  1
  9 10  1  0
 10 11  1  1
 10 12  1  0
M  END
