
     RDKit          3D

 12 12  0  0  0  0  0  0  0  0999 V2000
    2.9980    1.5750   -0.2110 O   0  0  0  0  0  0  0  0  0  0  0  0
    1.6030    1.4670    0.0060 C   0  0  0  0  0  0  0  0  0  0  0  0
    1.2260    0.0320    0.2900 C   0  0  2  0  0  0  0  0  0  0  0  0
    1.5490   -0.8160   -0.7600 O   0  0  0  0  0  0  0  0  0  0  0  0
   -0.1220   -0.1640    0.8740 C   0  0  2  0  0  0  0  0  0  0  0  0
   -0.2840    0.7660    1.9000 O   0  0  0  0  0  0  0  0  0  0  0  0
   -0.1060   -1.5910    1.4690 C   0  0  0  0  0  0  0  0  0  0  0  0
   -0.2130   -2.3440    0.3000 O   0  0  0  0  0  0  0  0  0  0  0  0
   -1.1930   -1.7480   -0.4740 C   0  0  0  0  0  0  0  0  0  0  0  0
   -1.2710   -0.3020   -0.0330 C   0  0  2  0  0  0  0  0  0  0  0  0
   -1.4390    0.6550   -1.1370 C   0  0  0  0  0  0  0  0  0  0  0  0
   -1.5620    1.9550   -0.6590 O   0  0  0  0  0  0  0  0  0  0  0  0
  1  2  1  0
  2  3  1  0
  3  4  1  6
  3  5  1  0
  5  6  1  1
  5  7  1  0
  5 10  1  0
  7  8  1  0
  8  9  1  0
  9 10  1  0
 10 11  1  6
 11 12  1  0
M  END
