
     RDKit          3D

 12 12  0  0  0  0  0  0  0  0999 V2000
    0.2620    2.4620   -0.5390 O   0  0  0  0  0  0  0  0  0  0  0  0
    0.4900    1.4420   -1.4630 C   0  0  0  0  0  0  0  0  0  0  0  0
    0.3670    0.1310   -0.6980 C   0  0  1  0  0  0  0  0  0  0  0  0
    1.3910    0.1250    0.3860 C   0  0  2  0  0  0  0  0  0  0  0  0
    1.9660   -1.2400    0.6680 C   0  0  0  0  0  0  0  0  0  0  0  0
    2.6850   -1.7700   -0.3700 O   0  0  0  0  0  0  0  0  0  0  0  0
    0.6920    0.5140    1.5470 O   0  0  0  0  0  0  0  0  0  0  0  0
   -0.5640   -0.0770    1.4510 C   0  0  0  0  0  0  0  0  0  0  0  0
   -0.9500    0.1630    0.0260 C   0  0  1  0  0  0  0  0  0  0  0  0
   -1.5700    1.4100   -0.0430 O   0  0  0  0  0  0  0  0  0  0  0  0
   -1.9140   -0.8840   -0.4920 C   0  0  0  0  0  0  0  0  0  0  0  0
   -3.0520   -0.8550    0.3120 O   0  0  0  0  0  0  0  0  0  0  0  0
  1  2  1  0
  3  2  1  6
  3  4  1  0
  3  9  1  0
  4  5  1  1
  4  7  1  0
  5  6  1  0
  7  8  1  0
  8  9  1  0
  9 10  1  1
  9 11  1  0
 11 12  1  0
M  END
