
     RDKit          3D

 12 12  0  0  0  0  0  0  0  0999 V2000
    2.1710    0.8010   -0.8870 O   0  0  0  0  0  0  0  0  0  0  0  0
    2.4030   -0.5090   -1.2600 C   0  0  0  0  0  0  0  0  0  0  0  0
    2.0160   -1.4480   -0.1480 C   0  0  0  0  0  0  0  0  0  0  0  0
    0.7400   -1.3510    0.1650 O   0  0  0  0  0  0  0  0  0  0  0  0
    0.0740   -0.3260    0.6490 C   0  0  2  0  0  0  0  0  0  0  0  0
   -0.6520   -0.5250    1.9570 C   0  0  0  0  0  0  0  0  0  0  0  0
   -1.8100   -1.1720    1.5310 O   0  0  0  0  0  0  0  0  0  0  0  0
   -2.2500   -0.5990    0.3710 C   0  0  0  0  0  0  0  0  0  0  0  0
   -1.0820    0.1750   -0.2200 C   0  0  2  0  0  0  0  0  0  0  0  0
   -0.8810   -0.0930   -1.5480 O   0  0  0  0  0  0  0  0  0  0  0  0
   -1.3870    1.6350    0.0220 C   0  0  0  0  0  0  0  0  0  0  0  0
   -0.3730    2.4580   -0.3970 O   0  0  0  0  0  0  0  0  0  0  0  0
  1  2  1  0
  2  3  1  0
  3  4  1  0
  5  4  1  6
  5  6  1  0
  5  9  1  0
  6  7  1  0
  7  8  1  0
  8  9  1  0
  9 10  1  6
  9 11  1  0
 11 12  1  0
M  END
