
     RDKit          3D

 21 21  0  0  0  0  0  0  0  0999 V2000
    1.8080   -2.2050   -0.2110 C   0  0  0  0  0  0  0  0  0  0  0  0
    2.5290   -1.1380    0.0140 C   0  0  0  0  0  0  0  0  0  0  0  0
    3.5870   -0.6550    0.9380 C   0  0  0  0  0  0  0  0  0  0  0  0
    4.0200    0.2070   -0.2570 C   0  0  2  0  0  0  0  0  0  0  0  0
    4.5510    1.4270    0.0660 O   0  0  0  0  0  0  0  0  0  0  0  0
    6.0750    1.6030   -0.7430 P   0  0  0  0  0  0  0  0  0  0  0  0
    2.5910    0.1690   -0.6360 C   0  0  0  0  0  0  0  0  0  0  0  0
    1.4630    1.0760   -1.4150 P   0  0  0  0  0  0  0  0  0  0  0  0
   -0.2350    0.5320   -1.6110 N   0  0  0  0  0  0  0  0  0  0  0  0
   -0.6130   -0.1650   -0.5150 O   0  0  0  0  0  0  0  0  0  0  0  0
   -1.8610   -0.7380   -0.7940 C   0  0  1  0  0  0  0  0  0  0  0  0
   -1.7980   -2.1240   -0.7080 O   0  0  0  0  0  0  0  0  0  0  0  0
   -2.1630   -2.6370   -1.8590 O   0  0  0  0  0  0  0  0  0  0  0  0
   -2.8020   -0.1850    0.1940 C   0  0  0  0  0  0  0  0  0  0  0  0
   -3.6050   -1.1940    1.2290 P   0  0  0  0  0  0  0  0  0  0  0  0
   -3.3100   -2.9430    1.1220 N   0  0  0  0  0  0  0  0  0  0  0  0
   -4.1520   -3.7260    0.8580 O   0  0  0  0  0  0  0  0  0  0  0  0
   -3.0170    1.2170    0.2550 N   0  0  0  0  0  0  0  0  0  0  0  0
   -3.4750    1.9050   -0.8150 O   0  0  0  0  0  0  0  0  0  0  0  0
   -2.7460    1.8400    1.4230 O   0  0  0  0  0  0  0  0  0  0  0  0
   -3.7490    2.7260    1.7490 C   0  0  0  0  0  0  0  0  0  0  0  0
  1  2  2  0
  2  3  1  0
  2  7  1  0
  3  4  1  0
  4  5  1  1
  4  7  1  0
  5  6  1  0
  7  8  2  3
  8  9  1  0
  9 10  1  0
 11 10  1  1
 11 12  1  0
 11 14  1  0
 12 13  1  0
 14 15  2  3
 14 18  1  0
 15 16  1  0
 16 17  2  0
 18 19  1  0
 18 20  1  0
 20 21  1  0
M  END
