
     RDKit          3D

 18 18  0  0  0  0  0  0  0  0999 V2000
    1.4490   -0.0670    0.7810 O   0  0  0  0  0  0  0  0  0  0  0  0
    0.9180   -0.1240   -0.3380 C   0  0  0  0  0  0  0  0  0  0  0  0
    1.5470    0.3800   -1.4350 O   0  0  0  0  0  0  0  0  0  0  0  0
    2.7770    0.9860   -1.5200 C   0  0  0  0  0  0  0  0  0  0  0  0
    3.9000    0.0780   -1.1640 C   0  0  0  0  0  0  0  0  0  0  0  0
    3.8530   -0.4270    0.1190 O   0  0  0  0  0  0  0  0  0  0  0  0
    4.8950   -1.2030    0.2920 O   0  0  0  0  0  0  0  0  0  0  0  0
    5.5770   -0.7310    1.3040 O   0  0  0  0  0  0  0  0  0  0  0  0
   -0.4260   -0.7400   -0.5520 C   0  0  1  0  0  0  0  0  0  0  0  0
   -0.8870   -1.1860    0.6740 O   0  0  0  0  0  0  0  0  0  0  0  0
   -2.2880   -1.3250    0.6110 C   0  0  0  0  0  0  0  0  0  0  0  0
   -2.8550    0.0790    0.7450 C   0  0  2  0  0  0  0  0  0  0  0  0
   -2.3820    0.6500    1.9250 O   0  0  0  0  0  0  0  0  0  0  0  0
   -4.3640    0.0580    0.6990 C   0  0  0  0  0  0  0  0  0  0  0  0
   -4.8200    1.3650    0.7810 O   0  0  0  0  0  0  0  0  0  0  0  0
   -2.2770    0.8650   -0.3770 C   0  0  0  0  0  0  0  0  0  0  0  0
   -2.6110    2.0530   -0.6240 O   0  0  0  0  0  0  0  0  0  0  0  0
   -1.3250    0.1900   -1.1520 O   0  0  0  0  0  0  0  0  0  0  0  0
  1  2  2  0
  2  3  1  0
  9  2  1  1
  3  4  1  0
  4  5  1  0
  5  6  1  0
  6  7  1  0
  7  8  1  0
  9 10  1  0
  9 18  1  0
 10 11  1  0
 11 12  1  0
 12 13  1  1
 12 14  1  0
 12 16  1  0
 14 15  1  0
 16 17  2  0
 16 18  1  0
M  END
