
     RDKit          3D

 21 21  0  0  0  0  0  0  0  0999 V2000
    5.5720   -0.3190    1.4160 C   0  0  0  0  0  0  0  0  0  0  0  0
    4.6350   -1.1440    0.5610 C   0  0  1  0  0  0  0  0  0  0  0  0
    3.2610   -0.6270    0.2630 C   0  0  2  0  0  0  0  0  0  0  0  0
    2.2310   -1.5690    0.2550 O   0  0  0  0  0  0  0  0  0  0  0  0
    1.1570   -1.1490    0.8800 O   0  0  0  0  0  0  0  0  0  0  0  0
    0.9610    0.1290    0.7610 O   0  0  0  0  0  0  0  0  0  0  0  0
   -0.5770    0.5140    0.0540 P   0  0  0  0  0  0  0  0  0  0  0  0
   -0.4420    2.0000   -0.8320 O   0  0  0  0  0  0  0  0  0  0  0  0
   -1.3390    3.2050    0.0410 P   0  0  0  0  0  0  0  0  0  0  0  0
   -0.9090    4.9150   -0.4690 C   0  0  0  0  0  0  0  0  0  0  0  0
   -1.2840    2.8860    1.7370 N   0  0  0  0  0  0  0  0  0  0  0  0
   -1.1370   -0.8360   -0.9730 N   0  0  0  0  0  0  0  0  0  0  0  0
   -0.9560   -0.5210   -2.3540 C   0  0  0  0  0  0  0  0  0  0  0  0
   -2.4450   -1.2210   -0.6820 N   0  0  0  0  0  0  0  0  0  0  0  0
   -3.4090   -0.2520   -1.1100 C   0  0  0  0  0  0  0  0  0  0  0  0
   -2.5800   -1.6360    0.5730 O   0  0  0  0  0  0  0  0  0  0  0  0
   -3.5720   -2.5760    0.7080 C   0  0  0  0  0  0  0  0  0  0  0  0
   -3.7390   -3.0520    2.0980 C   0  0  0  0  0  0  0  0  0  0  0  0
   -4.5690   -3.8850    2.4140 O   0  0  0  0  0  0  0  0  0  0  0  0
    4.3720   -0.4220   -1.1400 P   0  0  0  0  0  0  0  0  0  0  0  0
    4.4470   -1.5740   -2.4240 O   0  0  0  0  0  0  0  0  0  0  0  0
  2  1  1  1
  2  3  1  0
  2 20  1  0
  3  4  1  6
  3 20  1  0
  4  5  1  0
  5  6  1  0
  6  7  1  0
  7  8  1  0
  7 12  1  0
  8  9  1  0
  9 10  1  0
  9 11  1  0
 12 13  1  0
 12 14  1  0
 14 15  1  0
 14 16  1  0
 16 17  1  0
 17 18  1  0
 18 19  2  0
 20 21  1  0
M  END
