
     RDKit          3D

 28 30  0  0  0  0  0  0  0  0999 V2000
    3.1090   -2.6540    1.0000 C   0  0  0  0  0  0  0  0  0  0  0  0
    1.7820   -1.6310    0.5440 P   0  0  0  0  0  0  0  0  0  0  0  0
    0.7770   -2.4480    1.4950 O   0  0  0  0  0  0  0  0  0  0  0  0
    0.6880   -2.3550   -0.6440 O   0  0  0  0  0  0  0  0  0  0  0  0
    1.4010   -0.1190    1.1240 C   0  0  2  0  0  0  0  0  0  0  0  0
   -0.0170    0.2400    0.6850 C   0  0  0  0  0  0  0  0  0  0  0  0
   -0.1470    1.3220    0.0530 O   0  0  0  0  0  0  0  0  0  0  0  0
   -1.1540   -0.5150    0.9260 N   0  0  0  0  0  0  0  0  0  0  0  0
   -2.4710   -0.1100    0.4730 C   0  0  0  0  0  0  0  0  0  0  0  0
   -3.1820   -0.8380   -0.3400 C   0  0  0  0  0  0  0  0  0  0  0  0
   -4.5090   -0.4700   -0.8220 C   0  0  0  0  0  0  0  0  0  0  0  0
   -5.1840   -1.3290   -1.6940 C   0  0  0  0  0  0  0  0  0  0  0  0
   -6.4400   -1.0270   -2.1770 C   0  0  0  0  0  0  0  0  0  0  0  0
   -7.0910    0.1360   -1.8220 C   0  0  0  0  0  0  0  0  0  0  0  0
   -8.3200    0.4270   -2.2970 F   0  0  0  0  0  0  0  0  0  0  0  0
   -6.4320    0.9840   -0.9640 C   0  0  0  0  0  0  0  0  0  0  0  0
   -7.0390    2.1370   -0.5910 F   0  0  0  0  0  0  0  0  0  0  0  0
   -5.1590    0.6870   -0.4690 C   0  0  0  0  0  0  0  0  0  0  0  0
    2.1700    1.1780    0.9630 C   0  0  0  0  0  0  0  0  0  0  0  0
    1.4810    2.3120    1.5060 C   0  0  0  0  0  0  0  0  0  0  0  0
    2.5670    3.6970    1.2040 S   0  0  0  0  0  0  0  0  0  0  0  0
    3.8330    2.7260    0.4010 C   0  0  0  0  0  0  0  0  0  0  0  0
    5.0340    3.1730   -0.1190 C   0  0  0  0  0  0  0  0  0  0  0  0
    5.8970    2.2990   -0.7010 C   0  0  0  0  0  0  0  0  0  0  0  0
    5.4850    0.9900   -0.7230 C   0  0  0  0  0  0  0  0  0  0  0  0
    6.6110   -0.1490   -1.4810 Cl  0  0  0  0  0  0  0  0  0  0  0  0
    4.2970    0.5590   -0.2060 C   0  0  0  0  0  0  0  0  0  0  0  0
    3.3670    1.4430    0.4110 C   0  0  0  0  0  0  0  0  0  0  0  0
  1  2  1  0
  2  3  1  0
  2  4  1  0
  5  2  1  6
  5  6  1  0
  5 19  1  0
  6  7  2  0
  6  8  1  0
  8  9  1  0
  9 10  2  3
 10 11  1  0
 11 12  2  0
 11 18  1  0
 12 13  1  0
 13 14  2  0
 14 15  1  0
 14 16  1  0
 16 17  1  0
 16 18  2  0
 19 20  2  0
 19 28  1  0
 20 21  1  0
 21 22  1  0
 22 23  2  0
 22 28  1  0
 23 24  1  0
 24 25  2  0
 25 26  1  0
 25 27  1  0
 27 28  2  0
M  END
