
     RDKit          3D

 21 21  0  0  0  0  0  0  0  0999 V2000
   -4.8960    3.4960    1.0030 C   0  0  0  0  0  0  0  0  0  0  0  0
   -3.7620    2.6910    1.1350 O   0  0  0  0  0  0  0  0  0  0  0  0
   -3.8620    1.6350    0.3460 O   0  0  0  0  0  0  0  0  0  0  0  0
   -2.9590    0.3540    1.0790 P   0  0  0  0  0  0  0  0  0  0  0  0
   -3.6100   -0.1180    2.5760 F   0  0  0  0  0  0  0  0  0  0  0  0
   -2.7950   -1.3380   -0.3240 P   0  0  0  0  0  0  0  0  0  0  0  0
   -3.2260   -2.7810    0.5380 O   0  0  0  0  0  0  0  0  0  0  0  0
   -3.9920   -3.6410   -0.2400 C   0  0  0  0  0  0  0  0  0  0  0  0
   -1.1190   -1.4840   -0.7590 O   0  0  0  0  0  0  0  0  0  0  0  0
   -0.4950   -2.2180    0.2490 C   0  0  0  0  0  0  0  0  0  0  0  0
    0.8730   -2.3350   -0.1090 O   0  0  0  0  0  0  0  0  0  0  0  0
    1.5720   -1.1070   -0.2500 C   0  0  0  0  0  0  0  0  0  0  0  0
    1.3930   -0.4130   -1.3390 C   0  0  0  0  0  0  0  0  0  0  0  0
    2.0050    0.8560   -1.6810 C   0  0  0  0  0  0  0  0  0  0  0  0
    1.6830    1.4530   -2.9100 O   0  0  0  0  0  0  0  0  0  0  0  0
    2.8340    1.5110   -0.9540 N   0  0  0  0  0  0  0  0  0  0  0  0
    3.2820    0.7980    0.6260 P   0  0  0  0  0  0  0  0  0  0  0  0
    5.1000    0.5220    0.6060 C   0  0  0  0  0  0  0  0  0  0  0  0
    5.9540    1.7250    0.4090 C   0  0  0  0  0  0  0  0  0  0  0  0
    5.6260   -0.6120    0.7480 N   0  0  0  0  0  0  0  0  0  0  0  0
    2.4090   -0.7090    0.7730 O   0  0  0  0  0  0  0  0  0  0  0  0
  1  2  1  0
  2  3  1  0
  3  4  1  0
  4  5  1  0
  4  6  1  0
  6  7  1  0
  6  9  1  0
  7  8  1  0
  9 10  1  0
 10 11  1  0
 11 12  1  0
 12 13  2  0
 12 21  1  0
 13 14  1  0
 14 15  1  0
 14 16  2  0
 16 17  1  0
 17 18  1  0
 17 21  1  0
 18 19  1  0
 18 20  2  0
M  END
