
     RDKit          3D

 21 22  0  0  0  0  0  0  0  0999 V2000
    4.4100   -2.0190   -1.4520 N   0  0  0  0  0  0  0  0  0  0  0  0
    3.6800   -0.9570   -0.7770 C   0  0  1  0  0  0  0  0  0  0  0  0
    3.0320    0.3280   -1.9800 P   0  0  0  0  0  0  0  0  0  0  0  0
    1.9100    0.1310   -0.5800 C   0  0  2  0  0  0  0  0  0  0  0  0
    1.9840    1.0210    0.5070 N   0  0  0  0  0  0  0  0  0  0  0  0
    3.1780    1.3140    1.1680 C   0  0  0  0  0  0  0  0  0  0  0  0
    2.8490    2.3160    2.1460 O   0  0  0  0  0  0  0  0  0  0  0  0
    2.3040   -1.3040   -0.3840 C   0  0  0  0  0  0  0  0  0  0  0  0
    1.0450   -1.5340   -0.0730 C   0  0  0  0  0  0  0  0  0  0  0  0
    0.3140   -2.5090    0.5970 O   0  0  0  0  0  0  0  0  0  0  0  0
    0.5770   -0.3380   -0.7340 N   0  0  0  0  0  0  0  0  0  0  0  0
   -0.5430    0.1700   -1.2640 O   0  0  0  0  0  0  0  0  0  0  0  0
   -1.6730   -0.1640   -0.5210 C   0  0  0  0  0  0  0  0  0  0  0  0
   -1.5860    0.3200    0.7860 O   0  0  0  0  0  0  0  0  0  0  0  0
   -2.6860    0.0060    1.5420 C   0  0  0  0  0  0  0  0  0  0  0  0
   -4.2760    0.6630    0.9030 P   0  0  0  0  0  0  0  0  0  0  0  0
   -4.0680    1.9410   -0.2620 O   0  0  0  0  0  0  0  0  0  0  0  0
   -5.0150    2.1810   -1.2470 C   0  0  0  0  0  0  0  0  0  0  0  0
   -6.0440    1.4780   -1.3170 O   0  0  0  0  0  0  0  0  0  0  0  0
   -5.4620   -1.0120    0.1050 P   0  0  0  0  0  0  0  0  0  0  0  0
   -6.4710   -1.8070    0.9790 O   0  0  0  0  0  0  0  0  0  0  0  0
  2  1  1  6
  2  3  1  0
  2  8  1  0
  3  4  1  0
  4  5  1  1
  4  8  1  0
  4 11  1  0
  5  6  1  0
  6  7  1  0
  8  9  2  0
  9 10  1  0
  9 11  1  0
 11 12  1  0
 12 13  1  0
 13 14  1  0
 14 15  1  0
 15 16  1  0
 16 17  1  0
 16 20  1  0
 17 18  1  0
 18 19  2  0
 20 21  2  0
M  END
