
     RDKit          3D

 21 22  0  0  0  0  0  0  0  0999 V2000
   -5.0240   -1.0100    1.7490 C   0  0  0  0  0  0  0  0  0  0  0  0
   -5.0640    0.0200    0.9470 C   0  0  0  0  0  0  0  0  0  0  0  0
   -6.0280    1.1140    1.2220 C   0  0  0  0  0  0  0  0  0  0  0  0
   -5.9840    2.2270    0.5460 C   0  0  0  0  0  0  0  0  0  0  0  0
   -5.4070    2.2630   -0.6260 C   0  0  0  0  0  0  0  0  0  0  0  0
   -4.4170    1.2570   -0.9850 C   0  0  0  0  0  0  0  0  0  0  0  0
   -4.2500    0.1740   -0.2260 C   0  0  0  0  0  0  0  0  0  0  0  0
   -3.2340   -0.8160   -0.6410 C   0  0  0  0  0  0  0  0  0  0  0  0
   -2.1310   -0.9740    0.0880 N   0  0  0  0  0  0  0  0  0  0  0  0
   -1.0810   -1.1240    0.7820 C   0  0  0  0  0  0  0  0  0  0  0  0
   -1.1430   -1.8030    1.9820 O   0  0  0  0  0  0  0  0  0  0  0  0
    0.2070   -0.7770    0.7450 N   0  0  0  0  0  0  0  0  0  0  0  0
    1.4430   -0.4540    0.7290 C   0  0  0  0  0  0  0  0  0  0  0  0
    2.0810   -0.8120    1.7430 O   0  0  0  0  0  0  0  0  0  0  0  0
    2.1020    0.3120   -0.4470 N   0  0  0  0  0  0  0  0  0  0  0  0
    3.8270    0.3980    0.2370 C   0  0  0  0  0  0  0  0  0  0  0  0
    3.8410    0.2520    1.3340 O   0  0  0  0  0  0  0  0  0  0  0  0
    4.6140    0.6150   -0.8330 N   0  0  0  0  0  0  0  0  0  0  0  0
    6.0570    0.7670   -0.7020 C   0  0  1  0  0  0  0  0  0  0  0  0
    6.6860   -0.6810   -0.5890 C   0  0  0  0  0  0  0  0  0  0  0  0
    7.0150    0.2960   -1.6690 C   0  0  0  0  0  0  0  0  0  0  0  0
  1  2  2  0
  2  3  1  0
  2  7  1  0
  3  4  2  0
  4  5  2  0
  5  6  1  0
  6  7  2  0
  7  8  1  0
  8  9  1  0
  9 10  1  0
 10 11  2  0
 10 12  1  0
 12 13  1  0
 13 14  2  0
 13 15  1  0
 15 16  1  0
 16 17  2  0
 16 18  1  0
 19 18  1  6
 19 20  1  0
 19 21  1  0
 20 21  1  0
M  END
