
     RDKit          3D

 26 29  0  0  0  0  0  0  0  0999 V2000
    6.4320    0.0340    1.6860 C   0  0  0  0  0  0  0  0  0  0  0  0
    6.1460   -1.1760    0.8120 C   0  0  0  0  0  0  0  0  0  0  0  0
    5.1130   -0.7940   -0.2070 C   0  0  0  0  0  0  0  0  0  0  0  0
    5.3300   -0.4930   -1.5390 C   0  0  0  0  0  0  0  0  0  0  0  0
    4.1020   -0.1920   -2.0780 C   0  0  0  0  0  0  0  0  0  0  0  0
    3.0930   -0.2870   -1.1430 C   0  0  0  0  0  0  0  0  0  0  0  0
    1.7850   -0.1100   -1.1390 O   0  0  0  0  0  0  0  0  0  0  0  0
    1.0340   -0.2670   -0.0960 C   0  0  0  0  0  0  0  0  0  0  0  0
   -0.4180   -0.0450   -0.1990 C   0  0  0  0  0  0  0  0  0  0  0  0
   -0.8070    0.2690   -1.4250 C   0  0  0  0  0  0  0  0  0  0  0  0
   -2.0670    0.5750   -2.0410 C   0  0  0  0  0  0  0  0  0  0  0  0
   -2.0690    0.6040   -3.3050 O   0  0  0  0  0  0  0  0  0  0  0  0
   -3.4110    0.8750   -1.5700 N   0  0  0  0  0  0  0  0  0  0  0  0
   -4.2190    1.6240   -2.4600 C   0  0  0  0  0  0  0  0  0  0  0  0
   -4.0180    0.5210   -0.3340 C   0  0  0  0  0  0  0  0  0  0  0  0
   -5.3120    0.9570   -0.4480 C   0  0  0  0  0  0  0  0  0  0  0  0
   -6.2330    0.7870    0.5770 C   0  0  0  0  0  0  0  0  0  0  0  0
   -5.8240    0.1680    1.7220 C   0  0  0  0  0  0  0  0  0  0  0  0
   -6.9420   -0.0740    3.0490 Cl  0  0  0  0  0  0  0  0  0  0  0  0
   -4.5260   -0.2700    1.8380 C   0  0  0  0  0  0  0  0  0  0  0  0
   -3.5850   -0.1190    0.8390 C   0  0  0  0  0  0  0  0  0  0  0  0
   -2.3860   -0.7390    1.4190 C   0  0  0  0  0  0  0  0  0  0  0  0
   -1.1350   -0.2000    1.0180 N   0  0  0  0  0  0  0  0  0  0  0  0
    1.5980   -0.6410    1.0980 C   0  0  0  0  0  0  0  0  0  0  0  0
    2.9830   -0.8550    1.2030 C   0  0  0  0  0  0  0  0  0  0  0  0
    3.7730   -0.6860    0.0900 C   0  0  0  0  0  0  0  0  0  0  0  0
  1  2  1  0
  2  3  1  0
  3  4  2  0
  3 26  1  0
  4  5  1  0
  5  6  2  0
  6  7  1  0
  6 26  1  0
  7  8  1  0
  8  9  1  0
  8 24  2  0
  9 10  2  0
  9 23  1  0
 10 11  1  0
 11 12  2  0
 11 13  1  0
 13 14  1  0
 13 15  1  0
 15 16  2  0
 15 21  1  0
 16 17  1  0
 17 18  2  0
 18 19  1  0
 18 20  1  0
 20 21  2  0
 21 22  1  0
 22 23  1  0
 24 25  1  0
 25 26  2  0
M  END
