
     RDKit          3D

 21 22  0  0  0  0  0  0  0  0999 V2000
   -4.1900    1.4030    1.1010 C   0  0  0  0  0  0  0  0  0  0  0  0
   -4.4400    0.3150    0.4410 C   0  0  0  0  0  0  0  0  0  0  0  0
   -5.8330   -0.1650    0.1040 C   0  0  0  0  0  0  0  0  0  0  0  0
   -5.5100   -0.5700   -1.3560 C   0  0  0  0  0  0  0  0  0  0  0  0
   -4.1470   -1.1640   -1.1950 C   0  0  0  0  0  0  0  0  0  0  0  0
   -3.5260   -0.6320   -0.1230 C   0  0  0  0  0  0  0  0  0  0  0  0
   -2.2010   -1.0030    0.2920 C   0  0  0  0  0  0  0  0  0  0  0  0
   -1.5230   -1.8620   -0.4040 O   0  0  0  0  0  0  0  0  0  0  0  0
   -1.4890   -0.5430    1.4180 N   0  0  0  0  0  0  0  0  0  0  0  0
   -0.1910   -0.9790    1.7110 N   0  0  0  0  0  0  0  0  0  0  0  0
    0.9860   -0.2570    1.2690 C   0  0  0  0  0  0  0  0  0  0  0  0
    0.7030    0.7730    0.6130 O   0  0  0  0  0  0  0  0  0  0  0  0
    2.3300   -0.7210    1.5800 C   0  0  0  0  0  0  0  0  0  0  0  0
    3.4160   -0.0210    1.1630 O   0  0  0  0  0  0  0  0  0  0  0  0
    3.9150    0.3690   -0.0230 C   0  0  0  0  0  0  0  0  0  0  0  0
    4.7370   -0.4000   -0.8410 C   0  0  0  0  0  0  0  0  0  0  0  0
    5.1930   -1.7700   -0.5430 C   0  0  0  0  0  0  0  0  0  0  0  0
    5.0340    0.3080   -1.9200 N   0  0  0  0  0  0  0  0  0  0  0  0
    4.4680    1.4960   -1.8790 N   0  0  0  0  0  0  0  0  0  0  0  0
    3.7680    1.5460   -0.7010 C   0  0  0  0  0  0  0  0  0  0  0  0
    2.9900    2.7310   -0.2300 C   0  0  0  0  0  0  0  0  0  0  0  0
  1  2  2  0
  2  3  1  0
  2  6  1  0
  3  4  1  0
  4  5  1  0
  5  6  2  0
  6  7  1  0
  7  8  2  0
  7  9  1  0
  9 10  1  0
 10 11  1  0
 11 12  2  0
 11 13  1  0
 13 14  1  0
 14 15  1  0
 15 16  1  0
 15 20  2  0
 16 17  1  0
 16 18  2  0
 18 19  1  0
 19 20  1  0
 20 21  1  0
M  END
