
     RDKit          3D

 21 22  0  0  0  0  0  0  0  0999 V2000
   -3.6960    3.1560    0.2360 C   0  0  0  0  0  0  0  0  0  0  0  0
   -2.4790    2.7820   -0.4420 N   0  0  0  0  0  0  0  0  0  0  0  0
   -1.6460    1.7400    0.0620 C   0  0  0  0  0  0  0  0  0  0  0  0
   -2.0430    1.1890    1.1110 O   0  0  0  0  0  0  0  0  0  0  0  0
   -0.4340    1.3850   -0.6350 C   0  0  0  0  0  0  0  0  0  0  0  0
    0.0940    2.0290   -1.6870 N   0  0  0  0  0  0  0  0  0  0  0  0
    1.2190    1.4620   -2.0660 C   0  0  0  0  0  0  0  0  0  0  0  0
    1.9780    1.7770   -2.9910 O   0  0  0  0  0  0  0  0  0  0  0  0
    1.4470    0.3960   -1.2300 N   0  0  0  0  0  0  0  0  0  0  0  0
    2.5490   -0.5140   -1.3150 C   0  0  0  0  0  0  0  0  0  0  0  0
    3.8000   -0.1190   -0.6340 C   0  0  0  0  0  0  0  0  0  0  0  0
    3.7580    0.0540    0.8420 C   0  0  0  0  0  0  0  0  0  0  0  0
    3.4270   -1.1630    1.5500 N   0  0  0  0  0  0  0  0  0  0  0  0
    0.4370    0.3420   -0.3520 C   0  0  0  0  0  0  0  0  0  0  0  0
    0.1630   -0.6440    0.6860 C   0  0  0  0  0  0  0  0  0  0  0  0
   -0.9310   -1.3950    0.5540 C   0  0  0  0  0  0  0  0  0  0  0  0
   -1.2690   -2.4050    1.5640 C   0  0  0  0  0  0  0  0  0  0  0  0
   -2.3570   -3.1370    1.4040 C   0  0  0  0  0  0  0  0  0  0  0  0
   -3.2580   -2.9980    0.2610 C   0  0  0  0  0  0  0  0  0  0  0  0
   -2.9310   -2.0780   -0.6400 C   0  0  0  0  0  0  0  0  0  0  0  0
   -1.7980   -1.2860   -0.5130 O   0  0  0  0  0  0  0  0  0  0  0  0
  1  2  1  0
  2  3  1  0
  3  4  2  0
  3  5  1  0
  5  6  1  0
  5 14  2  0
  6  7  1  0
  7  8  2  0
  7  9  1  0
  9 10  1  0
  9 14  1  0
 10 11  1  0
 11 12  1  0
 12 13  1  0
 14 15  1  0
 15 16  2  3
 16 17  1  0
 16 21  1  0
 17 18  2  0
 18 19  1  0
 19 20  2  0
 20 21  1  0
M  END
