
     RDKit          3D

 26 29  0  0  0  0  0  0  0  0999 V2000
   -0.5960   -1.5130    1.2840 O   0  0  0  0  0  0  0  0  0  0  0  0
   -0.9370   -0.4200    0.7790 C   0  0  0  0  0  0  0  0  0  0  0  0
    0.0140    0.4080    0.1580 N   0  0  0  0  0  0  0  0  0  0  0  0
    1.3860    0.1460    0.0190 C   0  0  0  0  0  0  0  0  0  0  0  0
    2.0370   -1.0020    0.3230 C   0  0  0  0  0  0  0  0  0  0  0  0
    3.4010   -1.1400    0.1540 C   0  0  0  0  0  0  0  0  0  0  0  0
    4.1710   -0.1180   -0.3320 C   0  0  0  0  0  0  0  0  0  0  0  0
    5.6110   -0.2190   -0.5270 C   0  0  0  0  0  0  0  0  0  0  0  0
    6.1360   -1.4510   -0.8650 C   0  0  0  0  0  0  0  0  0  0  0  0
    7.4960   -1.5430   -1.0480 C   0  0  0  0  0  0  0  0  0  0  0  0
    8.2850   -0.4720   -0.9020 N   0  0  0  0  0  0  0  0  0  0  0  0
    7.7730    0.7130   -0.5760 C   0  0  0  0  0  0  0  0  0  0  0  0
    6.4290    0.8610   -0.3830 C   0  0  0  0  0  0  0  0  0  0  0  0
    3.5380    1.0750   -0.6550 C   0  0  0  0  0  0  0  0  0  0  0  0
    2.1840    1.1870   -0.4780 C   0  0  0  0  0  0  0  0  0  0  0  0
   -2.3490   -0.0010    0.8400 C   0  0  0  0  0  0  0  0  0  0  0  0
   -2.7680    0.7350    1.9180 C   0  0  0  0  0  0  0  0  0  0  0  0
   -4.0820    1.1530    2.0240 C   0  0  0  0  0  0  0  0  0  0  0  0
   -4.9370    0.8070    1.0230 C   0  0  0  0  0  0  0  0  0  0  0  0
   -4.5010    0.0600   -0.0650 C   0  0  0  0  0  0  0  0  0  0  0  0
   -3.2020   -0.3580   -0.1770 C   0  0  0  0  0  0  0  0  0  0  0  0
   -2.6670   -1.3070   -1.5660 Cl  0  0  0  0  0  0  0  0  0  0  0  0
   -5.5100   -0.2610   -1.0950 C   0  0  0  0  0  0  0  0  0  0  0  0
   -6.8700   -0.5300   -0.5080 C   0  0  0  0  0  0  0  0  0  0  0  0
   -7.0900    0.0290    0.7170 O   0  0  0  0  0  0  0  0  0  0  0  0
   -6.3870    1.1820    0.9900 C   0  0  0  0  0  0  0  0  0  0  0  0
  1  2  2  0
  2  3  1  0
  2 16  1  0
  3  4  1  0
  4  5  2  0
  4 15  1  0
  5  6  1  0
  6  7  2  0
  7  8  1  0
  7 14  1  0
  8  9  2  0
  8 13  1  0
  9 10  1  0
 10 11  2  0
 11 12  1  0
 12 13  2  0
 14 15  2  0
 16 17  2  0
 16 21  1  0
 17 18  1  0
 18 19  2  0
 19 20  1  0
 19 26  1  0
 20 21  2  0
 20 23  1  0
 21 22  1  0
 23 24  1  0
 24 25  1  0
 25 26  1  0
M  END
