
     RDKit          3D

 23 24  0  0  0  0  0  0  0  0999 V2000
    2.2860    1.2680    0.2770 O   0  0  0  0  0  0  0  0  0  0  0  0
    1.9410    0.1120    0.0260 C   0  0  0  0  0  0  0  0  0  0  0  0
    0.4740   -0.1830   -0.0550 C   0  0  0  0  0  0  0  0  0  0  0  0
   -0.2840    1.0730    0.2030 C   0  0  0  0  0  0  0  0  0  0  0  0
   -1.7490    0.8430    0.1360 C   0  0  0  0  0  0  0  0  0  0  0  0
   -2.2420   -0.3460   -0.1230 C   0  0  0  0  0  0  0  0  0  0  0  0
   -3.6760   -0.6940   -0.2150 C   0  0  1  0  0  0  0  0  0  0  0  0
   -3.9370   -1.0200   -1.5440 O   0  0  0  0  0  0  0  0  0  0  0  0
   -3.9480   -1.8580    0.6410 C   0  0  0  0  0  0  0  0  0  0  0  0
   -3.7860   -1.8130    1.8910 O   0  0  0  0  0  0  0  0  0  0  0  0
   -4.3930   -3.0360    0.0700 O   0  0  0  0  0  0  0  0  0  0  0  0
   -4.5710    0.4850    0.1220 C   0  0  0  0  0  0  0  0  0  0  0  0
   -3.9000    1.7130   -0.5070 C   0  0  1  0  0  0  0  0  0  0  0  0
   -4.7580    2.7920   -0.5430 O   0  0  0  0  0  0  0  0  0  0  0  0
   -2.6810    1.9720    0.3660 C   0  0  2  0  0  0  0  0  0  0  0  0
   -2.1120    3.2050    0.1320 O   0  0  0  0  0  0  0  0  0  0  0  0
    2.8760   -0.9070   -0.1800 N   0  0  0  0  0  0  0  0  0  0  0  0
    4.2790   -0.7720   -0.1300 C   0  0  0  0  0  0  0  0  0  0  0  0
    5.0360   -1.8580   -0.5510 C   0  0  0  0  0  0  0  0  0  0  0  0
    6.3990   -1.7930   -0.5180 C   0  0  0  0  0  0  0  0  0  0  0  0
    7.0570   -0.6780   -0.0760 C   0  0  0  0  0  0  0  0  0  0  0  0
    6.3130    0.3820    0.3350 C   0  0  0  0  0  0  0  0  0  0  0  0
    4.9220    0.3410    0.3110 C   0  0  0  0  0  0  0  0  0  0  0  0
  1  2  2  0
  2  3  1  0
  2 17  1  0
  3  4  1  0
  4  5  1  0
  5  6  2  0
  5 15  1  0
  6  7  1  0
  7  8  1  6
  7  9  1  0
  7 12  1  0
  9 10  2  0
  9 11  1  0
 12 13  1  0
 13 14  1  1
 13 15  1  0
 15 16  1  6
 17 18  1  0
 18 19  2  0
 18 23  1  0
 19 20  1  0
 20 21  2  0
 21 22  1  0
 22 23  2  0
M  END
