
     RDKit          3D

 21 22  0  0  0  0  0  0  0  0999 V2000
    7.1420    0.9230   -1.4080 C   0  0  0  0  0  0  0  0  0  0  0  0
    6.5780   -0.1180   -0.4650 C   0  0  0  0  0  0  0  0  0  0  0  0
    5.1370    0.0310   -0.4460 N   0  0  0  0  0  0  0  0  0  0  0  0
    4.3500   -0.8220    0.3610 C   0  0  0  0  0  0  0  0  0  0  0  0
    4.8940   -1.7010    1.0520 O   0  0  0  0  0  0  0  0  0  0  0  0
    2.9040   -0.7170    0.4180 N   0  0  0  0  0  0  0  0  0  0  0  0
    2.1520   -1.6120    1.2560 C   0  0  0  0  0  0  0  0  0  0  0  0
    0.7220   -1.3530    1.1810 C   0  0  0  0  0  0  0  0  0  0  0  0
   -0.0590   -2.0860    1.8840 O   0  0  0  0  0  0  0  0  0  0  0  0
    0.1360   -0.3590    0.3950 N   0  0  0  0  0  0  0  0  0  0  0  0
   -1.3170   -0.2180    0.4230 C   0  0  2  0  0  0  0  0  0  0  0  0
   -1.8910   -0.4420   -0.9560 C   0  0  0  0  0  0  0  0  0  0  0  0
   -3.3790   -0.2170   -0.9000 C   0  0  0  0  0  0  0  0  0  0  0  0
   -4.3350   -0.7470   -1.6370 C   0  0  0  0  0  0  0  0  0  0  0  0
   -5.6250   -0.1990   -1.1860 C   0  0  0  0  0  0  0  0  0  0  0  0
   -5.2910    0.7190   -0.0910 C   0  0  0  0  0  0  0  0  0  0  0  0
   -6.2590    1.5330    0.7070 C   0  0  0  0  0  0  0  0  0  0  0  0
   -3.9760    0.6940    0.0590 C   0  0  0  0  0  0  0  0  0  0  0  0
   -3.1020    1.3860    0.9810 N   0  0  0  0  0  0  0  0  0  0  0  0
   -1.7150    1.1300    0.8900 C   0  0  0  0  0  0  0  0  0  0  0  0
   -0.9180    2.0470    1.2070 O   0  0  0  0  0  0  0  0  0  0  0  0
  1  2  1  0
  2  3  1  0
  3  4  1  0
  4  5  2  0
  4  6  1  0
  6  7  1  0
  7  8  1  0
  8  9  2  0
  8 10  1  0
 11 10  1  6
 11 12  1  0
 11 20  1  0
 12 13  1  0
 13 14  2  0
 13 18  1  0
 14 15  1  0
 15 16  1  0
 16 17  1  0
 16 18  2  0
 18 19  1  0
 19 20  1  0
 20 21  2  0
M  END
