
     RDKit          3D

 11 11  0  0  0  0  0  0  0  0999 V2000
    3.0250    0.8190   -0.6270 O   0  0  0  0  0  0  0  0  0  0  0  0
    2.2370   -0.0060   -0.1180 C   0  0  0  0  0  0  0  0  0  0  0  0
    2.7710   -1.1110    0.5300 O   0  0  0  0  0  0  0  0  0  0  0  0
    0.7840    0.1400   -0.1740 C   0  0  0  0  0  0  0  0  0  0  0  0
   -0.0460   -0.7970    0.4030 C   0  0  0  0  0  0  0  0  0  0  0  0
   -1.4360   -0.6490    0.3440 C   0  0  0  0  0  0  0  0  0  0  0  0
   -2.2940   -1.5770    0.9160 O   0  0  0  0  0  0  0  0  0  0  0  0
   -1.9820    0.4120   -0.2780 N   0  0  0  0  0  0  0  0  0  0  0  0
   -1.1990    1.3640   -0.8620 C   0  0  0  0  0  0  0  0  0  0  0  0
   -1.7500    2.3450   -1.4360 O   0  0  0  0  0  0  0  0  0  0  0  0
    0.1700    1.2060   -0.7970 C   0  0  0  0  0  0  0  0  0  0  0  0
  1  2  2  0
  2  3  1  0
  2  4  1  0
  4  5  1  0
  4 11  2  0
  5  6  2  0
  6  7  1  0
  6  8  1  0
  8  9  1  0
  9 10  2  0
  9 11  1  0
M  END
