
     RDKit          3D

 22 24  0  0  0  0  0  0  0  0999 V2000
    2.4680    4.2110   -0.6800 C   0  0  0  0  0  0  0  0  0  0  0  0
    1.3080    3.5720   -0.6390 C   0  0  0  0  0  0  0  0  0  0  0  0
    0.9040    2.6950    0.4050 C   0  0  0  0  0  0  0  0  0  0  0  0
    0.5740    1.3590    0.3000 N   0  0  0  0  0  0  0  0  0  0  0  0
   -0.7120    1.0030    0.0890 C   0  0  0  0  0  0  0  0  0  0  0  0
   -1.5090    1.9700    0.0080 O   0  0  0  0  0  0  0  0  0  0  0  0
   -1.1680   -0.2620   -0.0330 C   0  0  0  0  0  0  0  0  0  0  0  0
   -2.6010   -0.6090   -0.2650 C   0  0  0  0  0  0  0  0  0  0  0  0
   -2.9070   -1.8900   -0.3660 C   0  0  0  0  0  0  0  0  0  0  0  0
   -4.2770   -2.2890   -0.5910 N   0  0  0  0  0  0  0  0  0  0  0  0
   -5.3480   -1.3600   -0.7140 C   0  0  0  0  0  0  0  0  0  0  0  0
   -4.9170    0.0230   -0.5900 C   0  0  0  0  0  0  0  0  0  0  0  0
   -3.6520    0.3700   -0.3830 C   0  0  0  0  0  0  0  0  0  0  0  0
   -0.2480   -1.2810    0.0650 C   0  0  0  0  0  0  0  0  0  0  0  0
    1.0780   -0.9630    0.2790 C   0  0  0  0  0  0  0  0  0  0  0  0
    2.0410   -1.9660    0.3780 C   0  0  0  0  0  0  0  0  0  0  0  0
    3.3560   -1.6440    0.5850 C   0  0  0  0  0  0  0  0  0  0  0  0
    4.3320   -2.7560    0.6810 C   0  0  0  0  0  0  0  0  0  0  0  0
    4.4760   -3.1880    1.9870 F   0  0  0  0  0  0  0  0  0  0  0  0
    3.7280   -0.3240    0.6950 C   0  0  0  0  0  0  0  0  0  0  0  0
    2.7900    0.6860    0.6010 C   0  0  0  0  0  0  0  0  0  0  0  0
    1.4750    0.3660    0.3950 C   0  0  0  0  0  0  0  0  0  0  0  0
  1  2  2  0
  2  3  1  0
  3  4  1  0
  4  5  1  0
  4 22  1  0
  5  6  2  0
  5  7  1  0
  7  8  1  0
  7 14  2  0
  8  9  2  0
  8 13  1  0
  9 10  1  0
 10 11  1  0
 11 12  1  0
 12 13  2  0
 14 15  1  0
 15 16  2  0
 15 22  1  0
 16 17  1  0
 17 18  1  0
 17 20  2  0
 18 19  1  0
 20 21  1  0
 21 22  2  0
M  END
