
     RDKit          3D

  9  9  0  0  0  0  0  0  0  0999 V2000
    2.3730   -0.6330    0.0820 C   0  0  0  0  0  0  0  0  0  0  0  0
    1.9960    0.8030   -0.0530 C   0  0  0  0  0  0  0  0  0  0  0  0
    0.7700    1.1420    0.5450 O   0  0  0  0  0  0  0  0  0  0  0  0
   -0.4490    0.5570    0.1660 C   0  0  0  0  0  0  0  0  0  0  0  0
   -0.3940   -0.6110   -0.2430 N   0  0  0  0  0  0  0  0  0  0  0  0
   -1.3600   -1.5470   -0.7120 C   0  0  0  0  0  0  0  0  0  0  0  0
   -2.9910   -0.8150   -0.6780 S   0  0  0  0  0  0  0  0  0  0  0  0
   -2.8550    0.8490   -0.0650 C   0  0  0  0  0  0  0  0  0  0  0  0
   -1.6770    1.3190    0.2670 C   0  0  0  0  0  0  0  0  0  0  0  0
  1  2  1  0
  2  3  1  0
  3  4  1  0
  4  5  2  0
  4  9  1  0
  5  6  1  0
  6  7  1  0
  7  8  1  0
  8  9  2  0
M  END
