
     RDKit          3D

  9  9  0  0  0  0  0  0  0  0999 V2000
    2.8820    1.3990    1.7500 N   0  0  0  0  0  0  0  0  0  0  0  0
    1.9940    0.9250    1.1660 C   0  0  0  0  0  0  0  0  0  0  0  0
    0.8890    0.3100    0.4430 C   0  0  0  0  0  0  0  0  0  0  0  0
    0.9720   -0.8900   -0.0560 C   0  0  0  0  0  0  0  0  0  0  0  0
    2.1540   -1.6000    0.1100 O   0  0  0  0  0  0  0  0  0  0  0  0
   -0.3670   -1.6140   -0.9230 S   0  0  0  0  0  0  0  0  0  0  0  0
   -1.7250   -0.4640   -0.9650 C   0  0  0  0  0  0  0  0  0  0  0  0
   -1.4230    0.7770   -0.2910 C   0  0  0  0  0  0  0  0  0  0  0  0
   -0.3150    1.1010    0.3040 C   0  0  0  0  0  0  0  0  0  0  0  0
  1  2  3  0
  2  3  1  0
  3  4  2  0
  3  9  1  0
  4  5  1  0
  4  6  1  0
  6  7  1  0
  7  8  1  0
  8  9  2  0
M  END
