
     RDKit          3D

  9  9  0  0  0  0  0  0  0  0999 V2000
   -1.8590   -3.2640    0.6820 N   0  0  0  0  0  0  0  0  0  0  0  0
   -1.1730   -2.1270    0.4060 C   0  0  0  0  0  0  0  0  0  0  0  0
   -0.4040   -0.8430    0.0680 C   0  0  0  0  0  0  0  0  0  0  0  0
    0.5920   -0.7650    0.9300 C   0  0  0  0  0  0  0  0  0  0  0  0
    1.5730    0.3210    0.9630 C   0  0  0  0  0  0  0  0  0  0  0  0
    0.8380    1.7600    0.2500 S   0  0  0  0  0  0  0  0  0  0  0  0
   -0.5060    1.3500   -0.9240 C   0  0  0  0  0  0  0  0  0  0  0  0
   -0.9750    2.2000   -1.7790 O   0  0  0  0  0  0  0  0  0  0  0  0
   -0.9550    0.0250   -0.8010 C   0  0  0  0  0  0  0  0  0  0  0  0
  1  2  3  0
  2  3  1  0
  3  4  2  0
  3  9  1  0
  4  5  1  0
  5  6  1  0
  6  7  1  0
  7  8  1  0
  7  9  2  0
M  END
