
     RDKit          3D

  8  8  0  0  0  0  0  0  0  0999 V2000
    3.3340    0.8930   -0.6440 N   0  0  0  0  0  0  0  0  0  0  0  0
    2.2160    0.6140   -0.4350 C   0  0  0  0  0  0  0  0  0  0  0  0
    0.8010    0.2860   -0.1800 C   0  0  0  0  0  0  0  0  0  0  0  0
    0.5400   -0.8540    0.3730 C   0  0  0  0  0  0  0  0  0  0  0  0
   -0.7490   -1.4260    0.7320 C   0  0  0  0  0  0  0  0  0  0  0  0
   -2.1110   -0.3470    0.3230 S   0  0  0  0  0  0  0  0  0  0  0  0
   -1.4870    1.1080   -0.4040 C   0  0  0  0  0  0  0  0  0  0  0  0
   -0.2130    1.2620   -0.5670 C   0  0  0  0  0  0  0  0  0  0  0  0
  1  2  3  0
  2  3  1  0
  3  4  2  0
  3  8  1  0
  4  5  1  0
  5  6  1  0
  6  7  1  0
  7  8  2  0
M  END
