
     RDKit          3D

  8  8  0  0  0  0  0  0  0  0999 V2000
   -1.2930   -1.5440    0.2010 C   0  0  0  0  0  0  0  0  0  0  0  0
   -0.1030   -0.6510    0.0090 C   0  0  0  0  0  0  0  0  0  0  0  0
   -0.2150    0.6630    0.0050 C   0  0  0  0  0  0  0  0  0  0  0  0
   -1.5160    1.3260    0.1880 C   0  0  0  0  0  0  0  0  0  0  0  0
    0.9280    1.4060   -0.1780 O   0  0  0  0  0  0  0  0  0  0  0  0
    2.2310    0.9230   -0.3630 C   0  0  0  0  0  0  0  0  0  0  0  0
    2.2650   -0.4980   -0.3450 N   0  0  0  0  0  0  0  0  0  0  0  0
    1.2270   -1.2200   -0.1800 C   0  0  0  0  0  0  0  0  0  0  0  0
  1  2  1  0
  2  3  2  0
  2  8  1  0
  3  4  1  0
  3  5  1  0
  5  6  1  0
  6  7  1  0
  7  8  2  0
M  END
