
     RDKit          3D

  9  9  0  0  0  0  0  0  0  0999 V2000
   -2.1760    1.1530    0.7190 C   0  0  0  0  0  0  0  0  0  0  0  0
   -1.3700    0.0730    1.1380 O   0  0  0  0  0  0  0  0  0  0  0  0
   -0.5510   -0.6400    0.2820 C   0  0  0  0  0  0  0  0  0  0  0  0
   -0.9020   -1.7070   -0.4100 C   0  0  0  0  0  0  0  0  0  0  0  0
    0.2200   -2.1490   -1.1700 N   0  0  0  0  0  0  0  0  0  0  0  0
    1.2340   -1.4130   -0.9810 C   0  0  0  0  0  0  0  0  0  0  0  0
    0.8460   -0.3840   -0.0420 C   0  0  0  0  0  0  0  0  0  0  0  0
    1.6000    0.5910    0.4290 C   0  0  0  0  0  0  0  0  0  0  0  0
    3.2950    0.7300   -0.0980 S   0  0  0  0  0  0  0  0  0  0  0  0
  1  2  1  0
  2  3  1  0
  3  4  2  0
  3  7  1  0
  4  5  1  0
  5  6  2  0
  6  7  1  0
  7  8  2  3
  8  9  1  0
M  END
