
     RDKit          3D

  9  9  0  0  0  0  0  0  0  0999 V2000
    2.5260    0.8640   -0.1360 C   0  0  0  0  0  0  0  0  0  0  0  0
    2.3190   -0.5190   -0.7060 C   0  0  0  0  0  0  0  0  0  0  0  0
    1.1820   -1.4360    0.3640 S   0  0  0  0  0  0  0  0  0  0  0  0
   -0.4480   -0.7420    0.3480 C   0  0  0  0  0  0  0  0  0  0  0  0
   -1.3570   -1.2930    1.0690 N   0  0  0  0  0  0  0  0  0  0  0  0
   -2.7170   -0.8660    1.1740 C   0  0  0  0  0  0  0  0  0  0  0  0
   -2.9540    0.2590    0.3750 O   0  0  0  0  0  0  0  0  0  0  0  0
   -2.0050    0.8760   -0.4090 C   0  0  0  0  0  0  0  0  0  0  0  0
   -0.7670    0.4250   -0.4560 C   0  0  0  0  0  0  0  0  0  0  0  0
  1  2  1  0
  2  3  1  0
  3  4  1  0
  4  5  2  0
  4  9  1  0
  5  6  1  0
  6  7  1  0
  7  8  1  0
  8  9  2  0
M  END
