
     RDKit          3D

 10  9  0  0  0  0  0  0  0  0999 V2000
   -2.2180   -1.9490    0.3060 O   0  0  0  0  0  0  0  0  0  0  0  0
   -2.3710   -0.7290    0.5040 C   0  0  0  0  0  0  0  0  0  0  0  0
   -3.6730   -0.1710    0.4090 O   0  0  0  0  0  0  0  0  0  0  0  0
   -1.2240    0.1450    0.8230 C   0  0  0  0  0  0  0  0  0  0  0  0
   -0.0360   -0.3670    0.0930 N   0  0  0  0  0  0  0  0  0  0  0  0
    0.2380    0.5890   -0.8940 O   0  0  0  0  0  0  0  0  0  0  0  0
    1.4840    0.8690   -1.0200 O   0  0  0  0  0  0  0  0  0  0  0  0
    2.5960    0.1260   -0.8340 C   0  0  0  0  0  0  0  0  0  0  0  0
    2.4380   -1.0880   -0.4430 O   0  0  0  0  0  0  0  0  0  0  0  0
    3.9040    0.6520   -1.0500 O   0  0  0  0  0  0  0  0  0  0  0  0
  1  2  2  0
  2  3  1  0
  2  4  1  0
  4  5  1  0
  5  6  1  0
  6  7  1  0
  7  8  1  0
  8  9  2  0
  8 10  1  0
M  END
