
     RDKit          3D

 10  9  0  0  0  0  0  0  0  0999 V2000
    1.7450    0.8250    1.0500 O   0  0  0  0  0  0  0  0  0  0  0  0
    2.1990    0.4270   -0.0210 C   0  0  0  0  0  0  0  0  0  0  0  0
    3.5860    0.8260   -0.3610 O   0  0  0  0  0  0  0  0  0  0  0  0
    1.5180   -0.3500   -0.9460 O   0  0  0  0  0  0  0  0  0  0  0  0
    0.3260   -0.7240   -0.9510 N   0  0  0  0  0  0  0  0  0  0  0  0
   -0.4300   -1.4290    0.0610 C   0  0  0  0  0  0  0  0  0  0  0  0
   -1.4620   -0.3750    0.5830 C   0  0  0  0  0  0  0  0  0  0  0  0
   -1.6060   -0.1640    1.7900 O   0  0  0  0  0  0  0  0  0  0  0  0
   -2.1300    0.3050   -0.3720 O   0  0  0  0  0  0  0  0  0  0  0  0
   -3.0220    1.3100   -0.2240 O   0  0  0  0  0  0  0  0  0  0  0  0
  1  2  2  0
  2  3  1  0
  2  4  1  0
  4  5  1  0
  5  6  1  0
  6  7  1  0
  7  8  2  0
  7  9  1  0
  9 10  1  0
M  END
