
     RDKit          3D

 10  9  0  0  0  0  0  0  0  0999 V2000
   -1.5680    0.6920   -1.2180 N   0  0  0  0  0  0  0  0  0  0  0  0
   -0.9020    0.1250   -0.0670 C   0  0  1  0  0  0  0  0  0  0  0  0
   -1.6800   -1.0540    0.4630 C   0  0  0  0  0  0  0  0  0  0  0  0
   -1.0770   -1.6310    1.5690 O   0  0  0  0  0  0  0  0  0  0  0  0
    0.4760   -0.1780   -0.4210 C   0  0  0  0  0  0  0  0  0  0  0  0
    0.8740    0.0730   -1.5870 O   0  0  0  0  0  0  0  0  0  0  0  0
    1.4120   -0.7350    0.4400 O   0  0  0  0  0  0  0  0  0  0  0  0
    2.6540   -0.9720    0.0060 O   0  0  0  0  0  0  0  0  0  0  0  0
    3.0880   -0.0030   -0.7770 O   0  0  0  0  0  0  0  0  0  0  0  0
    3.7840    0.8930   -0.1370 O   0  0  0  0  0  0  0  0  0  0  0  0
  2  1  1  6
  2  3  1  0
  2  5  1  0
  3  4  1  0
  5  6  2  0
  5  7  1  0
  7  8  1  0
  8  9  1  0
  9 10  1  0
M  END
