
     RDKit          3D

 10  9  0  0  0  0  0  0  0  0999 V2000
   -3.6710   -0.4320    0.2780 C   0  0  0  0  0  0  0  0  0  0  0  0
   -2.8770   -0.5620   -0.9040 O   0  0  0  0  0  0  0  0  0  0  0  0
   -1.7310   -1.1160   -0.4950 O   0  0  0  0  0  0  0  0  0  0  0  0
   -0.8830   -0.0430   -0.5780 O   0  0  0  0  0  0  0  0  0  0  0  0
    0.3580   -0.2290   -0.0110 C   0  0  0  0  0  0  0  0  0  0  0  0
    0.6900   -1.2730    0.5360 O   0  0  0  0  0  0  0  0  0  0  0  0
    1.2690    0.9690   -0.1510 C   0  0  0  0  0  0  0  0  0  0  0  0
    2.6580    0.5670    0.1900 N   0  0  0  0  0  0  0  0  0  0  0  0
    3.3280    0.6150   -1.0620 O   0  0  0  0  0  0  0  0  0  0  0  0
    3.8090   -0.6270   -1.1760 O   0  0  0  0  0  0  0  0  0  0  0  0
  1  2  1  0
  2  3  1  0
  3  4  1  0
  4  5  1  0
  5  6  2  0
  5  7  1  0
  7  8  1  0
  8  9  1  0
  9 10  1  0
M  END
