
     RDKit          3D

 10  9  0  0  0  0  0  0  0  0999 V2000
   -0.8280   -1.5990    0.1370 N   0  0  0  0  0  0  0  0  0  0  0  0
   -0.6040   -0.4110   -0.7380 C   0  0  1  0  0  0  0  0  0  0  0  0
   -1.2670    0.8210   -0.1130 C   0  0  0  0  0  0  0  0  0  0  0  0
   -2.6300    0.7360   -0.3580 O   0  0  0  0  0  0  0  0  0  0  0  0
   -3.3390    0.6950    0.7450 O   0  0  0  0  0  0  0  0  0  0  0  0
    0.6190   -0.3680   -1.1490 O   0  0  0  0  0  0  0  0  0  0  0  0
    1.4290    0.3120   -0.2310 O   0  0  0  0  0  0  0  0  0  0  0  0
    2.8020    0.1230   -0.4190 C   0  0  0  0  0  0  0  0  0  0  0  0
    3.2300   -0.5540   -1.3230 O   0  0  0  0  0  0  0  0  0  0  0  0
    3.6790    0.7840    0.4410 O   0  0  0  0  0  0  0  0  0  0  0  0
  2  1  1  1
  2  3  1  0
  2  6  1  0
  3  4  1  0
  4  5  1  0
  6  7  1  0
  7  8  1  0
  8  9  2  0
  8 10  1  0
M  END
