
     RDKit          3D

 10  9  0  0  0  0  0  0  0  0999 V2000
   -1.8900    0.9410    0.2380 C   0  0  0  0  0  0  0  0  0  0  0  0
   -1.2540   -0.1730   -0.5250 C   0  0  1  0  0  0  0  0  0  0  0  0
   -1.2340    0.1300   -1.8910 O   0  0  0  0  0  0  0  0  0  0  0  0
    0.0870   -0.4690   -0.0580 N   0  0  0  0  0  0  0  0  0  0  0  0
    0.9270    0.5650   -0.1580 O   0  0  0  0  0  0  0  0  0  0  0  0
    2.5430   -0.0480    0.0060 P   0  0  0  0  0  0  0  0  0  0  0  0
    3.6830    1.2040   -0.3530 O   0  0  0  0  0  0  0  0  0  0  0  0
    2.8060   -0.7110    1.5890 O   0  0  0  0  0  0  0  0  0  0  0  0
   -2.0140   -1.3260   -0.3230 O   0  0  0  0  0  0  0  0  0  0  0  0
   -2.0270   -1.5930    0.9670 O   0  0  0  0  0  0  0  0  0  0  0  0
  2  1  1  1
  2  3  1  0
  2  4  1  0
  2  9  1  0
  4  5  1  0
  5  6  1  0
  6  7  1  0
  6  8  1  0
  9 10  1  0
M  END
