
     RDKit          3D

 10  9  0  0  0  0  0  0  0  0999 V2000
    1.3000    1.1200   -1.5270 O   0  0  0  0  0  0  0  0  0  0  0  0
    1.4680    0.3730   -0.5020 C   0  0  0  0  0  0  0  0  0  0  0  0
    0.3580   -0.2890    0.1900 C   0  0  0  0  0  0  0  0  0  0  0  0
   -0.9260    0.0030   -0.4210 N   0  0  0  0  0  0  0  0  0  0  0  0
   -1.9060   -0.6300    0.2540 O   0  0  0  0  0  0  0  0  0  0  0  0
   -3.2110    0.4560    0.6510 P   0  0  0  0  0  0  0  0  0  0  0  0
   -4.6030   -0.4620    1.1260 O   0  0  0  0  0  0  0  0  0  0  0  0
    2.7530    0.2120   -0.0650 O   0  0  0  0  0  0  0  0  0  0  0  0
    3.8010    0.7980   -0.6660 O   0  0  0  0  0  0  0  0  0  0  0  0
    4.9340    0.2420   -0.3160 O   0  0  0  0  0  0  0  0  0  0  0  0
  1  2  2  0
  2  3  1  0
  2  8  1  0
  3  4  1  0
  4  5  1  0
  5  6  1  0
  6  7  1  0
  8  9  1  0
  9 10  1  0
M  END
