
     RDKit          3D

 10 10  0  0  0  0  0  0  0  0999 V2000
    1.3690    0.4740    1.3020 O   0  0  0  0  0  0  0  0  0  0  0  0
    1.6710    0.0580    0.1590 C   0  0  0  0  0  0  0  0  0  0  0  0
    2.9180    0.4260   -0.3770 O   0  0  0  0  0  0  0  0  0  0  0  0
    0.8080   -0.7640   -0.6050 N   0  0  0  0  0  0  0  0  0  0  0  0
   -0.4830   -1.1910   -0.1510 C   0  0  0  0  0  0  0  0  0  0  0  0
   -1.4700   -0.1230    0.1320 C   0  0  2  0  0  0  0  0  0  0  0  0
   -1.7590    0.6790   -0.9680 O   0  0  0  0  0  0  0  0  0  0  0  0
   -1.3840    1.9010   -0.6380 O   0  0  0  0  0  0  0  0  0  0  0  0
   -1.3220    1.9740    0.6520 O   0  0  0  0  0  0  0  0  0  0  0  0
   -1.1890    0.7580    1.1290 O   0  0  0  0  0  0  0  0  0  0  0  0
  1  2  2  0
  2  3  1  0
  2  4  1  0
  4  5  1  0
  6  5  1  6
  6  7  1  0
  6 10  1  0
  7  8  1  0
  8  9  1  0
  9 10  1  0
M  END
