
     RDKit          3D

 15 14  0  0  0  0  0  0  0  0999 V2000
   -0.2430   -0.9180    1.0850 O   0  0  0  0  0  0  0  0  0  0  0  0
   -0.5230   -0.6800   -0.1110 C   0  0  0  0  0  0  0  0  0  0  0  0
   -1.7890    0.0250   -0.4320 C   0  0  0  0  0  0  0  0  0  0  0  0
   -2.4590    0.3020    0.7110 O   0  0  0  0  0  0  0  0  0  0  0  0
   -3.8660    1.0600    0.6950 P   0  0  0  0  0  0  0  0  0  0  0  0
   -5.1320    0.5840   -0.3130 O   0  0  0  0  0  0  0  0  0  0  0  0
   -4.5160    0.2530    1.8290 O   0  0  0  0  0  0  0  0  0  0  0  0
   -4.1220    2.4670    1.5630 O   0  0  0  0  0  0  0  0  0  0  0  0
    0.3580   -1.0800   -1.1280 N   0  0  0  0  0  0  0  0  0  0  0  0
    0.0420   -0.8400   -2.4140 O   0  0  0  0  0  0  0  0  0  0  0  0
    1.5990   -1.7260   -0.8120 C   0  0  0  0  0  0  0  0  0  0  0  0
    2.7490   -0.7990   -0.6460 C   0  0  0  0  0  0  0  0  0  0  0  0
    2.5290    0.1940    0.4490 C   0  0  0  0  0  0  0  0  0  0  0  0
    3.7470    1.1010    0.5590 C   0  0  0  0  0  0  0  0  0  0  0  0
    4.8780    0.3660    0.8430 O   0  0  0  0  0  0  0  0  0  0  0  0
  1  2  2  0
  2  3  1  0
  2  9  1  0
  3  4  1  0
  4  5  1  0
  5  6  1  0
  5  7  1  0
  5  8  1  0
  9 10  1  0
  9 11  1  0
 11 12  1  0
 12 13  1  0
 13 14  1  0
 14 15  1  0
M  END
