
     RDKit          3D

 10 10  0  0  0  0  0  0  0  0999 V2000
    2.9900    1.2980   -0.2500 O   0  0  0  0  0  0  0  0  0  0  0  0
    2.2300   -0.0650    0.4800 P   0  0  0  0  0  0  0  0  0  0  0  0
    3.2680   -1.4290    0.6250 O   0  0  0  0  0  0  0  0  0  0  0  0
    0.6150   -0.4590   -0.3170 C   0  0  0  0  0  0  0  0  0  0  0  0
   -0.3560    0.4880    0.1670 N   0  0  0  0  0  0  0  0  0  0  0  0
   -1.7130   -0.0050    0.0980 C   0  0  2  0  0  0  0  0  0  0  0  0
   -2.2290    0.1730   -1.1750 O   0  0  0  0  0  0  0  0  0  0  0  0
   -3.1010    1.1490   -0.9890 O   0  0  0  0  0  0  0  0  0  0  0  0
   -3.5730    0.9920    0.2360 O   0  0  0  0  0  0  0  0  0  0  0  0
   -2.4820    0.8070    0.9440 O   0  0  0  0  0  0  0  0  0  0  0  0
  1  2  1  0
  2  3  1  0
  2  4  1  0
  4  5  1  0
  6  5  1  6
  6  7  1  0
  6 10  1  0
  7  8  1  0
  8  9  1  0
  9 10  1  0
M  END
