
     RDKit          3D

 10  9  0  0  0  0  0  0  0  0999 V2000
    3.9660    0.1820    0.1300 N   0  0  0  0  0  0  0  0  0  0  0  0
    2.6930   -0.1700    0.6010 O   0  0  0  0  0  0  0  0  0  0  0  0
    1.6350   -0.0740   -0.3570 C   0  0  0  0  0  0  0  0  0  0  0  0
    1.8450    0.3230   -1.5720 O   0  0  0  0  0  0  0  0  0  0  0  0
    0.4000   -0.4070    0.0410 O   0  0  0  0  0  0  0  0  0  0  0  0
   -0.7710   -0.3890   -0.6480 O   0  0  0  0  0  0  0  0  0  0  0  0
   -1.7280   -0.9170    0.2790 C   0  0  0  0  0  0  0  0  0  0  0  0
   -2.8100    0.0990    0.4170 C   0  0  0  0  0  0  0  0  0  0  0  0
   -3.6200    0.0090    1.3900 O   0  0  0  0  0  0  0  0  0  0  0  0
   -2.8770    1.1060   -0.5350 O   0  0  0  0  0  0  0  0  0  0  0  0
  1  2  1  0
  2  3  1  0
  3  4  2  0
  3  5  1  0
  5  6  1  0
  6  7  1  0
  7  8  1  0
  8  9  2  0
  8 10  1  0
M  END
