
     RDKit          3D

 16 15  0  0  0  0  0  0  0  0999 V2000
    4.5460    2.1520    0.2150 C   0  0  0  0  0  0  0  0  0  0  0  0
    4.6110    0.9940   -0.5450 O   0  0  0  0  0  0  0  0  0  0  0  0
    3.6680    0.0460   -0.1480 C   0  0  2  0  0  0  0  0  0  0  0  0
    4.4620   -1.1780    0.3150 C   0  0  0  0  0  0  0  0  0  0  0  0
    2.9340   -0.3230   -1.2320 O   0  0  0  0  0  0  0  0  0  0  0  0
    1.6670   -0.1330   -1.1690 O   0  0  0  0  0  0  0  0  0  0  0  0
    0.9960   -0.2030    0.4130 P   0  0  0  0  0  0  0  0  0  0  0  0
    0.9310   -1.7890    1.0560 O   0  0  0  0  0  0  0  0  0  0  0  0
   -0.5200    0.5890    0.5130 O   0  0  0  0  0  0  0  0  0  0  0  0
   -1.6880   -0.0410   -0.6020 P   0  0  0  0  0  0  0  0  0  0  0  0
   -1.2910   -1.6010   -1.1810 O   0  0  0  0  0  0  0  0  0  0  0  0
   -3.3440    0.0040    0.2530 C   0  0  2  0  0  0  0  0  0  0  0  0
   -3.4880   -1.1040    1.2430 C   0  0  0  0  0  0  0  0  0  0  0  0
   -4.6760    0.0150   -1.0300 P   0  0  0  0  0  0  0  0  0  0  0  0
   -3.4100    1.3620    0.9650 C   0  0  0  0  0  0  0  0  0  0  0  0
   -3.2900    2.3330   -0.0380 O   0  0  0  0  0  0  0  0  0  0  0  0
  1  2  1  0
  2  3  1  0
  3  4  1  6
  3  5  1  0
  5  6  1  0
  6  7  1  0
  7  8  1  0
  7  9  1  0
  9 10  1  0
 10 11  1  0
 10 12  1  0
 12 13  1  1
 12 14  1  0
 12 15  1  0
 15 16  1  0
M  END
