
     RDKit          3D

 16 17  0  0  0  0  0  0  0  0999 V2000
   -3.7810    0.9070    1.2560 O   0  0  0  0  0  0  0  0  0  0  0  0
   -2.5480    0.8530    1.5020 C   0  0  0  0  0  0  0  0  0  0  0  0
   -1.6130    0.0720    0.7010 C   0  0  0  0  0  0  0  0  0  0  0  0
   -0.2990   -0.0980    0.8120 C   0  0  0  0  0  0  0  0  0  0  0  0
    0.9560    0.1840    1.5110 C   0  0  0  0  0  0  0  0  0  0  0  0
    0.9450    0.5320    2.7200 O   0  0  0  0  0  0  0  0  0  0  0  0
    2.1690    0.0650    0.8250 O   0  0  0  0  0  0  0  0  0  0  0  0
    2.3020    0.4570   -0.8850 P   0  0  0  0  0  0  0  0  0  0  0  0
    3.8160   -0.2250   -1.4390 O   0  0  0  0  0  0  0  0  0  0  0  0
    4.9770   -0.1170   -0.1650 P   0  0  0  0  0  0  0  0  0  0  0  0
    4.5960    0.1960    1.3070 O   0  0  0  0  0  0  0  0  0  0  0  0
    0.8940   -0.2830   -1.8730 C   0  0  0  0  0  0  0  0  0  0  0  0
   -0.1350   -1.2300   -0.6470 P   0  0  0  0  0  0  0  0  0  0  0  0
   -1.8880   -0.7790   -0.5110 C   0  0  1  0  0  0  0  0  0  0  0  0
   -2.6740   -1.8820   -0.1500 O   0  0  0  0  0  0  0  0  0  0  0  0
   -2.3740   -0.0760   -1.5930 O   0  0  0  0  0  0  0  0  0  0  0  0
  1  2  2  0
  2  3  1  0
  3  4  2  0
  3 14  1  0
  4  5  1  0
  4 13  1  0
  5  6  2  0
  5  7  1  0
  7  8  1  0
  8  9  1  0
  8 12  1  0
  9 10  1  0
 10 11  2  0
 12 13  1  0
 13 14  1  0
 14 15  1  1
 14 16  1  0
M  END
