
     RDKit          3D

 23 23  0  0  0  0  0  0  0  0999 V2000
   -3.6050   -3.1270    0.5690 C   0  0  0  0  0  0  0  0  0  0  0  0
   -2.3160   -2.3360    0.6250 C   0  0  0  0  0  0  0  0  0  0  0  0
   -1.7630   -2.0310   -0.5460 O   0  0  0  0  0  0  0  0  0  0  0  0
   -2.2930   -1.2890   -1.4990 C   0  0  0  0  0  0  0  0  0  0  0  0
   -2.5880    0.1320   -1.3980 C   0  0  1  0  0  0  0  0  0  0  0  0
   -3.5350    0.5350   -0.3520 C   0  0  0  0  0  0  0  0  0  0  0  0
   -4.5530   -0.1630    0.0070 O   0  0  0  0  0  0  0  0  0  0  0  0
   -3.2610    1.7760    0.2610 O   0  0  0  0  0  0  0  0  0  0  0  0
   -3.0360    2.8490   -0.6640 C   0  0  0  0  0  0  0  0  0  0  0  0
   -2.0610    2.4520   -1.7250 C   0  0  0  0  0  0  0  0  0  0  0  0
   -1.4310    1.0810   -1.4330 C   0  0  1  0  0  0  0  0  0  0  0  0
   -0.6440    1.2110   -0.2240 C   0  0  0  0  0  0  0  0  0  0  0  0
   -0.9530    0.6940    0.8910 O   0  0  0  0  0  0  0  0  0  0  0  0
    0.5710    1.9570   -0.2190 N   0  0  0  0  0  0  0  0  0  0  0  0
    1.1070    2.6160   -1.3940 C   0  0  0  0  0  0  0  0  0  0  0  0
    1.3600    2.0930    1.0170 C   0  0  0  0  0  0  0  0  0  0  0  0
    2.5390    0.7200    1.0980 P   0  0  0  0  0  0  0  0  0  0  0  0
    2.5700   -0.2280    2.4560 O   0  0  0  0  0  0  0  0  0  0  0  0
    2.0330   -1.4910    2.3870 C   0  0  0  0  0  0  0  0  0  0  0  0
    2.1520   -2.2140    3.7330 C   0  0  0  0  0  0  0  0  0  0  0  0
    3.8100    0.7200    0.0250 O   0  0  0  0  0  0  0  0  0  0  0  0
    4.2370   -0.5250   -0.3520 C   0  0  0  0  0  0  0  0  0  0  0  0
    5.3890   -0.5140   -1.3270 C   0  0  0  0  0  0  0  0  0  0  0  0
  1  2  1  0
  2  3  1  0
  3  4  1  0
  5  4  1  1
  5  6  1  0
  5 11  1  0
  6  7  2  0
  6  8  1  0
  8  9  1  0
  9 10  1  0
 10 11  1  0
 11 12  1  1
 12 13  2  0
 12 14  1  0
 14 15  1  0
 14 16  1  0
 16 17  1  0
 17 18  1  0
 17 21  1  0
 18 19  1  0
 19 20  1  0
 21 22  1  0
 22 23  1  0
M  END
