
     RDKit          3D

 18 17  0  0  0  0  0  0  0  0999 V2000
   -4.3340   -1.3350   -0.7050 C   0  0  0  0  0  0  0  0  0  0  0  0
   -3.3650   -0.6580   -1.4330 O   0  0  0  0  0  0  0  0  0  0  0  0
   -1.8160   -0.7380   -0.6590 P   0  0  0  0  0  0  0  0  0  0  0  0
   -1.8880   -1.6330    0.8080 O   0  0  0  0  0  0  0  0  0  0  0  0
   -1.0860    0.9530   -0.4270 C   0  0  1  0  0  0  0  0  0  0  0  0
   -2.0120    2.0230   -1.0260 C   0  0  0  0  0  0  0  0  0  0  0  0
   -1.0260    1.2210    1.0250 C   0  0  0  0  0  0  0  0  0  0  0  0
   -0.0340    1.5490    1.6360 O   0  0  0  0  0  0  0  0  0  0  0  0
    0.1210    1.1080   -1.0680 O   0  0  0  0  0  0  0  0  0  0  0  0
    1.3480    0.0430   -0.5710 P   0  0  0  0  0  0  0  0  0  0  0  0
    0.8110   -1.2890    0.3600 O   0  0  0  0  0  0  0  0  0  0  0  0
    1.8960   -1.8690    0.9200 O   0  0  0  0  0  0  0  0  0  0  0  0
    2.8310   -2.4500    0.0990 C   0  0  0  0  0  0  0  0  0  0  0  0
    2.6700   -2.4370   -1.1520 O   0  0  0  0  0  0  0  0  0  0  0  0
    3.9570   -3.0550    0.6400 O   0  0  0  0  0  0  0  0  0  0  0  0
    4.8610   -3.6160   -0.1480 O   0  0  0  0  0  0  0  0  0  0  0  0
    3.0680    1.0520    0.3350 P   0  0  0  0  0  0  0  0  0  0  0  0
    3.6050    2.8230   -0.8350 P   0  0  0  0  0  0  0  0  0  0  0  0
  1  2  1  0
  2  3  1  0
  3  4  1  0
  3  5  1  0
  5  6  1  6
  5  7  1  0
  5  9  1  0
  7  8  2  0
  9 10  1  0
 10 11  1  0
 10 17  1  0
 11 12  1  0
 12 13  1  0
 13 14  2  0
 13 15  1  0
 15 16  1  0
 17 18  1  0
M  END
