
     RDKit          3D

 24 25  0  0  0  0  0  0  0  0999 V2000
   -5.5490   -1.0110   -0.6040 N   0  0  0  0  0  0  0  0  0  0  0  0
   -4.1610   -0.8240   -0.4530 C   0  0  0  0  0  0  0  0  0  0  0  0
   -3.2800   -1.8650   -0.6090 C   0  0  0  0  0  0  0  0  0  0  0  0
   -1.8950   -1.6670   -0.4550 C   0  0  0  0  0  0  0  0  0  0  0  0
   -1.4470   -0.4220   -0.1480 C   0  0  0  0  0  0  0  0  0  0  0  0
   -0.0680   -0.1490    0.0000 N   0  0  0  0  0  0  0  0  0  0  0  0
    0.9630   -0.9700   -0.4620 C   0  0  0  0  0  0  0  0  0  0  0  0
    0.7580   -2.0540   -1.0760 O   0  0  0  0  0  0  0  0  0  0  0  0
    2.3800   -0.5990   -0.2480 C   0  0  0  0  0  0  0  0  0  0  0  0
    2.7290    0.4770    0.3630 C   0  0  0  0  0  0  0  0  0  0  0  0
    4.1330    0.8440    0.5630 C   0  0  0  0  0  0  0  0  0  0  0  0
    5.1450    1.0430   -0.2940 C   0  0  0  0  0  0  0  0  0  0  0  0
    6.3640    1.3590    0.1800 C   0  0  0  0  0  0  0  0  0  0  0  0
    6.5380    1.4680    1.5080 C   0  0  0  0  0  0  0  0  0  0  0  0
    7.9040    1.8450    2.5040 Cl  0  0  0  0  0  0  0  0  0  0  0  0
    4.8500    1.0960    2.1460 S   0  0  0  0  0  0  0  0  0  0  0  0
    3.3420   -1.5860   -0.7010 C   0  0  0  0  0  0  0  0  0  0  0  0
    2.9290   -2.6280   -1.3290 O   0  0  0  0  0  0  0  0  0  0  0  0
    4.6910   -1.5240   -0.5190 O   0  0  0  0  0  0  0  0  0  0  0  0
   -2.3590    0.6330    0.0080 C   0  0  0  0  0  0  0  0  0  0  0  0
   -3.7070    0.4420   -0.1410 C   0  0  0  0  0  0  0  0  0  0  0  0
   -4.6560    1.5350    0.0220 C   0  0  0  0  0  0  0  0  0  0  0  0
   -5.3880    1.4840    1.3210 C   0  0  0  0  0  0  0  0  0  0  0  0
   -5.2280    0.6350    2.1640 O   0  0  0  0  0  0  0  0  0  0  0  0
  1  2  1  0
  2  3  2  0
  2 21  1  0
  3  4  1  0
  4  5  2  0
  5  6  1  0
  5 20  1  0
  6  7  1  0
  7  8  2  0
  7  9  1  0
  9 10  2  3
  9 17  1  0
 10 11  1  0
 11 12  2  0
 11 16  1  0
 12 13  1  0
 13 14  2  0
 14 15  1  0
 14 16  1  0
 17 18  2  0
 17 19  1  0
 20 21  2  0
 21 22  1  0
 22 23  1  0
 23 24  2  0
M  END
