
     RDKit          3D

 24 25  0  0  0  0  0  0  0  0999 V2000
    6.3950   -0.5590    2.3980 C   0  0  0  0  0  0  0  0  0  0  0  0
    5.5940   -0.1550    1.2790 O   0  0  0  0  0  0  0  0  0  0  0  0
    4.2140   -0.2310    1.3090 C   0  0  0  0  0  0  0  0  0  0  0  0
    3.6890   -0.6720    2.3640 O   0  0  0  0  0  0  0  0  0  0  0  0
    3.3910    0.1740    0.1860 C   0  0  0  0  0  0  0  0  0  0  0  0
    2.0380    0.1000    0.2130 C   0  0  0  0  0  0  0  0  0  0  0  0
    1.2030    0.4840   -0.8590 C   0  0  0  0  0  0  0  0  0  0  0  0
   -0.2010    0.3790   -0.7080 N   0  0  0  0  0  0  0  0  0  0  0  0
   -1.1010    0.4460   -1.7660 C   0  0  0  0  0  0  0  0  0  0  0  0
   -0.7340    0.6000   -2.9520 O   0  0  0  0  0  0  0  0  0  0  0  0
   -2.5450    0.3280   -1.4640 C   0  0  0  0  0  0  0  0  0  0  0  0
   -3.2010    0.1580   -0.2790 C   0  0  0  0  0  0  0  0  0  0  0  0
   -4.5410    0.0800   -0.2820 C   0  0  0  0  0  0  0  0  0  0  0  0
   -5.2440   -0.0900    0.8730 C   0  0  0  0  0  0  0  0  0  0  0  0
   -4.5260   -0.1940    2.1770 C   0  0  0  0  0  0  0  0  0  0  0  0
   -4.0150   -1.4500    2.4090 O   0  0  0  0  0  0  0  0  0  0  0  0
   -5.2220    0.1730   -1.4670 C   0  0  0  0  0  0  0  0  0  0  0  0
   -6.4330    0.1500   -1.8800 C   0  0  0  0  0  0  0  0  0  0  0  0
   -7.8260   -0.0420   -0.8890 Cl  0  0  0  0  0  0  0  0  0  0  0  0
   -3.8150    0.3860   -2.6350 S   0  0  0  0  0  0  0  0  0  0  0  0
    1.8750    0.9510   -1.9590 C   0  0  0  0  0  0  0  0  0  0  0  0
    3.2460    1.0470   -2.0420 C   0  0  0  0  0  0  0  0  0  0  0  0
    3.9980    0.6570   -0.9660 C   0  0  0  0  0  0  0  0  0  0  0  0
    5.4130    0.7590   -1.0570 N   0  0  0  0  0  0  0  0  0  0  0  0
  1  2  1  0
  2  3  1  0
  3  4  2  0
  3  5  1  0
  5  6  2  0
  5 23  1  0
  6  7  1  0
  7  8  1  0
  7 21  2  0
  8  9  1  0
  9 10  2  0
  9 11  1  0
 11 12  2  0
 11 20  1  0
 12 13  1  0
 13 14  2  3
 13 17  1  0
 14 15  1  0
 15 16  1  0
 17 18  2  3
 17 20  1  0
 18 19  1  0
 21 22  1  0
 22 23  2  0
 23 24  1  0
M  END
