
     RDKit          3D

 24 25  0  0  0  0  0  0  0  0999 V2000
   -1.3740    0.7560   -0.4430 O   0  0  0  0  0  0  0  0  0  0  0  0
   -1.1000   -0.4730   -0.4090 C   0  0  0  0  0  0  0  0  0  0  0  0
    0.2720   -0.8880   -0.1230 C   0  0  0  0  0  0  0  0  0  0  0  0
    1.1670    0.5540    0.5550 S   0  0  0  0  0  0  0  0  0  0  0  0
    2.8950    0.4530    0.3570 C   0  0  0  0  0  0  0  0  0  0  0  0
    3.6840    1.3470    1.0520 C   0  0  0  0  0  0  0  0  0  0  0  0
    5.0810    1.3300    0.9760 C   0  0  0  0  0  0  0  0  0  0  0  0
    5.6910    0.3960    0.1840 C   0  0  0  0  0  0  0  0  0  0  0  0
    7.1510    0.4540   -0.0600 C   0  0  0  0  0  0  0  0  0  0  0  0
    7.8300   -0.1330    1.0490 O   0  0  0  0  0  0  0  0  0  0  0  0
    4.9490   -0.4990   -0.5090 C   0  0  0  0  0  0  0  0  0  0  0  0
    5.5930   -1.4710   -1.2880 O   0  0  0  0  0  0  0  0  0  0  0  0
    3.5560   -0.4690   -0.4200 C   0  0  0  0  0  0  0  0  0  0  0  0
   -2.2020   -1.3440   -0.6740 N   0  0  0  0  0  0  0  0  0  0  0  0
   -3.4860   -0.7520   -0.9790 C   0  0  0  0  0  0  0  0  0  0  0  0
   -3.8840   -0.8470   -2.2710 C   0  0  0  0  0  0  0  0  0  0  0  0
   -5.0890   -0.3200   -2.7240 N   0  0  0  0  0  0  0  0  0  0  0  0
   -5.8010    0.7600   -2.0250 C   0  0  0  0  0  0  0  0  0  0  0  0
   -5.6320    0.5360   -0.5570 C   0  0  0  0  0  0  0  0  0  0  0  0
   -6.5860    0.8490    0.1570 O   0  0  0  0  0  0  0  0  0  0  0  0
   -4.3670   -0.0380   -0.0580 C   0  0  0  0  0  0  0  0  0  0  0  0
   -4.0420   -0.0080    1.1920 C   0  0  0  0  0  0  0  0  0  0  0  0
   -4.8060    0.6570    2.2610 C   0  0  0  0  0  0  0  0  0  0  0  0
   -5.3390   -0.4860    3.5270 Cl  0  0  0  0  0  0  0  0  0  0  0  0
  1  2  2  0
  2  3  1  0
  2 14  1  0
  3  4  1  0
  4  5  1  0
  5  6  2  0
  5 13  1  0
  6  7  1  0
  7  8  2  0
  8  9  1  0
  8 11  1  0
  9 10  1  0
 11 12  1  0
 11 13  2  0
 14 15  1  0
 15 16  2  0
 15 21  1  0
 16 17  1  0
 17 18  1  0
 18 19  1  0
 19 20  2  0
 19 21  1  0
 21 22  2  3
 22 23  1  0
 23 24  1  0
M  END
