
     RDKit          3D

 24 25  0  0  0  0  0  0  0  0999 V2000
   -6.0350    2.2160    0.0480 C   0  0  0  0  0  0  0  0  0  0  0  0
   -5.7640    1.9780   -1.2740 O   0  0  0  0  0  0  0  0  0  0  0  0
   -4.6640    1.1530   -1.4140 C   0  0  0  0  0  0  0  0  0  0  0  0
   -4.8760   -0.1810   -0.7700 C   0  0  1  0  0  0  0  0  0  0  0  0
   -6.0110   -0.8090   -1.3460 O   0  0  0  0  0  0  0  0  0  0  0  0
   -3.7460   -1.1480   -0.9750 C   0  0  0  0  0  0  0  0  0  0  0  0
   -2.4660   -0.6850   -0.4110 C   0  0  0  0  0  0  0  0  0  0  0  0
   -2.3880    0.3710    0.2640 O   0  0  0  0  0  0  0  0  0  0  0  0
   -1.2510   -1.4190   -0.6070 N   0  0  0  0  0  0  0  0  0  0  0  0
   -0.0380   -0.9440   -0.0500 C   0  0  0  0  0  0  0  0  0  0  0  0
    0.0480    0.5310    0.8890 S   0  0  0  0  0  0  0  0  0  0  0  0
    1.7840    0.4640    1.2220 C   0  0  0  0  0  0  0  0  0  0  0  0
    2.1950   -0.7030    0.5840 C   0  0  0  0  0  0  0  0  0  0  0  0
    1.2520   -1.4070   -0.0620 C   0  0  0  0  0  0  0  0  0  0  0  0
    1.5230   -2.6390   -0.8190 C   0  0  0  0  0  0  0  0  0  0  0  0
    2.7570   -3.2820   -1.0210 N   0  0  0  0  0  0  0  0  0  0  0  0
    0.5530   -3.2290   -1.3820 O   0  0  0  0  0  0  0  0  0  0  0  0
    3.6320   -1.1860    0.6640 C   0  0  0  0  0  0  0  0  0  0  0  0
    4.4720   -0.1560   -0.0500 C   0  0  0  0  0  0  0  0  0  0  0  0
    5.2410    0.7110    0.9290 C   0  0  0  0  0  0  0  0  0  0  0  0
    4.7100    2.1120    1.0370 C   0  0  0  0  0  0  0  0  0  0  0  0
    3.5320    2.2360    1.9340 C   0  0  0  0  0  0  0  0  0  0  0  0
    3.6470    3.4720    3.1530 Cl  0  0  0  0  0  0  0  0  0  0  0  0
    2.3600    1.5710    2.0030 C   0  0  0  0  0  0  0  0  0  0  0  0
  1  2  1  0
  2  3  1  0
  3  4  1  0
  4  5  1  6
  4  6  1  0
  6  7  1  0
  7  8  2  0
  7  9  1  0
  9 10  1  0
 10 11  1  0
 10 14  2  0
 11 12  1  0
 12 13  2  0
 12 24  1  0
 13 14  1  0
 13 18  1  0
 14 15  1  0
 15 16  1  0
 15 17  2  0
 18 19  1  0
 19 20  1  0
 20 21  1  0
 21 22  1  0
 22 23  1  0
 22 24  2  0
M  END
