
     RDKit          3D

 24 25  0  0  0  0  0  0  0  0999 V2000
   -7.2170    1.7530    0.5000 N   0  0  0  0  0  0  0  0  0  0  0  0
   -6.6840    0.5810   -0.6460 S   0  0  1  0  0  0  0  0  0  0  0  0
   -7.4820   -0.6810   -0.5610 O   0  0  0  0  0  0  0  0  0  0  0  0
   -6.8300    1.1960   -2.0230 O   0  0  0  0  0  0  0  0  0  0  0  0
   -5.0260    0.1940   -0.3100 C   0  0  0  0  0  0  0  0  0  0  0  0
   -4.6890   -0.8280    0.5490 C   0  0  0  0  0  0  0  0  0  0  0  0
   -3.3820   -1.1580    0.8360 C   0  0  0  0  0  0  0  0  0  0  0  0
   -2.3760   -0.4370    0.2380 C   0  0  0  0  0  0  0  0  0  0  0  0
   -0.9510   -0.7680    0.5250 C   0  0  0  0  0  0  0  0  0  0  0  0
   -0.4070   -1.7850   -0.4310 C   0  0  0  0  0  0  0  0  0  0  0  0
    0.9650   -2.0640   -0.1000 N   0  0  0  0  0  0  0  0  0  0  0  0
    1.9930   -1.1030   -0.1090 C   0  0  0  0  0  0  0  0  0  0  0  0
    1.7350    0.0790   -0.4220 O   0  0  0  0  0  0  0  0  0  0  0  0
    3.3610   -1.4790    0.2460 C   0  0  0  0  0  0  0  0  0  0  0  0
    4.3040   -0.3290    0.1790 C   0  0  0  0  0  0  0  0  0  0  0  0
    4.5680    0.4940    1.2280 C   0  0  0  0  0  0  0  0  0  0  0  0
    5.4600    1.5310    1.0540 C   0  0  0  0  0  0  0  0  0  0  0  0
    6.0920    1.7540   -0.1590 C   0  0  0  0  0  0  0  0  0  0  0  0
    7.0000    2.8090   -0.3350 O   0  0  0  0  0  0  0  0  0  0  0  0
    5.8280    0.9220   -1.2270 C   0  0  0  0  0  0  0  0  0  0  0  0
    6.6240    1.2000   -2.7610 Cl  0  0  0  0  0  0  0  0  0  0  0  0
    4.9310   -0.1060   -1.0220 C   0  0  0  0  0  0  0  0  0  0  0  0
   -2.7160    0.5800   -0.6170 C   0  0  0  0  0  0  0  0  0  0  0  0
   -4.0160    0.9120   -0.9050 C   0  0  0  0  0  0  0  0  0  0  0  0
  2  1  1  1
  2  3  2  0
  2  4  2  0
  2  5  1  0
  5  6  2  0
  5 24  1  0
  6  7  1  0
  7  8  2  0
  8  9  1  0
  8 23  1  0
  9 10  1  0
 10 11  1  0
 11 12  1  0
 12 13  2  0
 12 14  1  0
 14 15  1  0
 15 16  2  0
 15 22  1  0
 16 17  1  0
 17 18  2  0
 18 19  1  0
 18 20  1  0
 20 21  1  0
 20 22  2  0
 23 24  2  0
M  END
