
     RDKit          3D

 24 25  0  0  0  0  0  0  0  0999 V2000
   -4.3200   -3.8870    2.1650 C   0  0  0  0  0  0  0  0  0  0  0  0
   -3.4080   -2.9730    1.6160 O   0  0  0  0  0  0  0  0  0  0  0  0
   -2.2640   -3.4030    1.0070 C   0  0  0  0  0  0  0  0  0  0  0  0
   -2.1190   -4.6890    0.9910 O   0  0  0  0  0  0  0  0  0  0  0  0
   -1.2270   -2.6200    0.3950 C   0  0  0  0  0  0  0  0  0  0  0  0
   -1.1210   -1.3170    0.2720 C   0  0  0  0  0  0  0  0  0  0  0  0
   -2.1050   -0.4060    0.7710 C   0  0  0  0  0  0  0  0  0  0  0  0
   -2.1100    0.8960    0.6720 C   0  0  0  0  0  0  0  0  0  0  0  0
   -3.0830    1.7400    1.1740 O   0  0  0  0  0  0  0  0  0  0  0  0
   -3.2870    2.8780    0.3610 C   0  0  0  0  0  0  0  0  0  0  0  0
   -1.9130    3.5360    0.1630 C   0  0  0  0  0  0  0  0  0  0  0  0
   -0.9540    1.9800   -0.0960 S   0  0  0  0  0  0  0  0  0  0  0  0
    0.0910   -0.8100   -0.4200 C   0  0  0  0  0  0  0  0  0  0  0  0
    0.8980   -0.0500    0.5200 N   0  0  0  0  0  0  0  0  0  0  0  0
    2.1420    0.5220    0.1060 C   0  0  0  0  0  0  0  0  0  0  0  0
    2.9440    1.2480    0.9390 C   0  0  0  0  0  0  0  0  0  0  0  0
    4.1380    1.7820    0.4950 C   0  0  0  0  0  0  0  0  0  0  0  0
    5.0970    2.6990    1.6430 Cl  0  0  0  0  0  0  0  0  0  0  0  0
    4.5240    1.5840   -0.7910 C   0  0  0  0  0  0  0  0  0  0  0  0
    3.7440    0.8630   -1.6470 C   0  0  0  0  0  0  0  0  0  0  0  0
    4.1710    0.6520   -3.0460 C   0  0  0  0  0  0  0  0  0  0  0  0
    3.3120   -0.1160   -3.8730 N   0  0  0  0  0  0  0  0  0  0  0  0
    5.2560    1.1520   -3.4340 O   0  0  0  0  0  0  0  0  0  0  0  0
    2.5540    0.3350   -1.1920 C   0  0  0  0  0  0  0  0  0  0  0  0
  1  2  1  0
  2  3  1  0
  3  4  2  0
  3  5  1  0
  5  6  2  3
  6  7  1  0
  6 13  1  0
  7  8  2  3
  8  9  1  0
  8 12  1  0
  9 10  1  0
 10 11  1  0
 11 12  1  0
 13 14  1  0
 14 15  1  0
 15 16  2  0
 15 24  1  0
 16 17  1  0
 17 18  1  0
 17 19  2  0
 19 20  1  0
 20 21  1  0
 20 24  2  0
 21 22  1  0
 21 23  2  0
M  END
