
     RDKit          3D

 24 25  0  0  0  0  0  0  0  0999 V2000
   -6.7080   -0.4440   -0.4490 C   0  0  0  0  0  0  0  0  0  0  0  0
   -5.2390   -0.4620   -0.6020 C   0  0  0  0  0  0  0  0  0  0  0  0
   -4.6150   -0.7810   -1.7450 N   0  0  0  0  0  0  0  0  0  0  0  0
   -3.2480   -0.8060   -1.8720 C   0  0  0  0  0  0  0  0  0  0  0  0
   -2.7720   -1.0990   -2.9800 O   0  0  0  0  0  0  0  0  0  0  0  0
   -2.4500   -0.4950   -0.8240 C   0  0  0  0  0  0  0  0  0  0  0  0
   -1.0830   -0.2870   -0.8620 N   0  0  0  0  0  0  0  0  0  0  0  0
   -0.0710   -0.8250    0.0180 C   0  0  0  0  0  0  0  0  0  0  0  0
   -0.4840   -1.6640    0.8840 O   0  0  0  0  0  0  0  0  0  0  0  0
    1.2960   -0.3560   -0.1350 C   0  0  0  0  0  0  0  0  0  0  0  0
    1.3050    1.1060   -0.1660 C   0  0  0  0  0  0  0  0  0  0  0  0
    2.4790    1.7290   -0.2330 C   0  0  0  0  0  0  0  0  0  0  0  0
    3.6800    1.0160   -0.2800 C   0  0  0  0  0  0  0  0  0  0  0  0
    5.1250    1.9720   -0.4500 Cl  0  0  0  0  0  0  0  0  0  0  0  0
    3.7140   -0.3420   -0.2560 C   0  0  0  0  0  0  0  0  0  0  0  0
    5.1600   -1.2940   -0.4770 S   0  0  0  0  0  0  0  0  0  0  0  0
    6.6920   -0.4490   -0.6440 C   0  0  0  0  0  0  0  0  0  0  0  0
    7.3940   -0.0120    0.5810 C   0  0  0  0  0  0  0  0  0  0  0  0
    6.7660    0.7070    1.5280 O   0  0  0  0  0  0  0  0  0  0  0  0
    2.4690   -1.0190   -0.1720 C   0  0  0  0  0  0  0  0  0  0  0  0
   -3.0950   -0.1570    0.3800 C   0  0  0  0  0  0  0  0  0  0  0  0
   -4.4630   -0.1430    0.4800 C   0  0  0  0  0  0  0  0  0  0  0  0
   -5.1650    0.1470    1.7570 C   0  0  0  0  0  0  0  0  0  0  0  0
   -5.0110    1.5160    2.0330 O   0  0  0  0  0  0  0  0  0  0  0  0
  1  2  1  0
  2  3  1  0
  2 22  2  0
  3  4  1  0
  4  5  2  0
  4  6  1  0
  6  7  1  0
  6 21  2  0
  7  8  1  0
  8  9  2  0
  8 10  1  0
 10 11  2  0
 10 20  1  0
 11 12  1  0
 12 13  2  0
 13 14  1  0
 13 15  1  0
 15 16  1  0
 15 20  2  0
 16 17  1  0
 17 18  1  0
 18 19  1  0
 21 22  1  0
 22 23  1  0
 23 24  1  0
M  END
