
     RDKit          3D

 24 25  0  0  0  0  0  0  0  0999 V2000
    3.2030    0.7700    2.2960 N   0  0  0  0  0  0  0  0  0  0  0  0
    4.1090    0.7130    1.1870 C   0  0  0  0  0  0  0  0  0  0  0  0
    5.1950    1.5490    1.1400 C   0  0  0  0  0  0  0  0  0  0  0  0
    6.0810    1.5320    0.1080 C   0  0  0  0  0  0  0  0  0  0  0  0
    7.4750    2.6000    0.0430 Cl  0  0  0  0  0  0  0  0  0  0  0  0
    5.8560    0.6290   -0.9190 C   0  0  0  0  0  0  0  0  0  0  0  0
    4.7680   -0.2160   -0.8840 C   0  0  0  0  0  0  0  0  0  0  0  0
    3.8830   -0.1950    0.1510 C   0  0  0  0  0  0  0  0  0  0  0  0
    2.7820   -1.0330    0.2120 O   0  0  0  0  0  0  0  0  0  0  0  0
    2.5880   -1.9480   -0.8670 C   0  0  0  0  0  0  0  0  0  0  0  0
    1.3210   -2.7440   -0.5590 C   0  0  0  0  0  0  0  0  0  0  0  0
    0.1810   -1.8540   -0.4450 N   0  0  0  0  0  0  0  0  0  0  0  0
   -1.1040   -2.3600   -0.1630 C   0  0  0  0  0  0  0  0  0  0  0  0
   -1.3010   -3.5710   -0.0060 O   0  0  0  0  0  0  0  0  0  0  0  0
   -2.2780   -1.4780   -0.0420 C   0  0  0  0  0  0  0  0  0  0  0  0
   -2.3530   -0.1320   -0.1640 C   0  0  0  0  0  0  0  0  0  0  0  0
   -3.5570    0.4740   -0.0100 C   0  0  0  0  0  0  0  0  0  0  0  0
   -3.6290    1.8240   -0.1320 C   0  0  0  0  0  0  0  0  0  0  0  0
   -4.8010    2.6580   -0.0070 C   0  0  0  0  0  0  0  0  0  0  0  0
   -5.2450    2.8990    1.2870 O   0  0  0  0  0  0  0  0  0  0  0  0
   -4.6480   -0.2610    0.2600 C   0  0  0  0  0  0  0  0  0  0  0  0
   -5.9040   -0.1200    0.4760 C   0  0  0  0  0  0  0  0  0  0  0  0
   -6.6930   -1.2740    0.7310 O   0  0  0  0  0  0  0  0  0  0  0  0
   -3.8900   -1.9560    0.2950 S   0  0  0  0  0  0  0  0  0  0  0  0
  1  2  1  0
  2  3  2  0
  2  8  1  0
  3  4  1  0
  4  5  1  0
  4  6  2  0
  6  7  1  0
  7  8  2  0
  8  9  1  0
  9 10  1  0
 10 11  1  0
 11 12  1  0
 12 13  1  0
 13 14  2  0
 13 15  1  0
 15 16  2  0
 15 24  1  0
 16 17  1  0
 17 18  2  3
 17 21  1  0
 18 19  1  0
 19 20  1  0
 21 22  2  3
 21 24  1  0
 22 23  1  0
M  END
