
     RDKit          3D

 16 16  0  0  0  0  0  0  0  0999 V2000
    1.8430   -1.8380   -0.2930 O   0  0  0  0  0  0  0  0  0  0  0  0
    1.3200   -0.7730   -0.6870 C   0  0  0  0  0  0  0  0  0  0  0  0
    2.0070    0.0280   -1.5650 O   0  0  0  0  0  0  0  0  0  0  0  0
    3.2840   -0.2660   -2.0630 C   0  0  0  0  0  0  0  0  0  0  0  0
    4.2860   -0.3420   -0.9400 C   0  0  0  0  0  0  0  0  0  0  0  0
    5.5630   -0.6320   -1.4150 O   0  0  0  0  0  0  0  0  0  0  0  0
   -0.0190   -0.4250   -0.1870 C   0  0  0  0  0  0  0  0  0  0  0  0
   -0.5240    0.7110   -0.6350 C   0  0  0  0  0  0  0  0  0  0  0  0
   -1.8360    1.3070   -0.3070 C   0  0  0  0  0  0  0  0  0  0  0  0
   -1.9160    2.6270   -0.4180 C   0  0  0  0  0  0  0  0  0  0  0  0
   -3.1380    3.2090   -0.1150 O   0  0  0  0  0  0  0  0  0  0  0  0
   -3.0260    0.5600    0.1220 C   0  0  0  0  0  0  0  0  0  0  0  0
   -2.8490   -0.3070    1.3180 C   0  0  0  0  0  0  0  0  0  0  0  0
   -1.4480   -0.5540    1.7480 C   0  0  0  0  0  0  0  0  0  0  0  0
   -0.6520   -1.3850    0.7650 C   0  0  1  0  0  0  0  0  0  0  0  0
   -1.4350   -2.2600    0.0530 O   0  0  0  0  0  0  0  0  0  0  0  0
  1  2  2  0
  2  3  1  0
  2  7  1  0
  3  4  1  0
  4  5  1  0
  5  6  1  0
  7  8  2  0
  7 15  1  0
  8  9  1  0
  9 10  2  3
  9 12  1  0
 10 11  1  0
 12 13  1  0
 13 14  1  0
 14 15  1  0
 15 16  1  6
M  END
