
     RDKit          3D

 19 21  0  0  0  0  0  0  0  0999 V2000
    5.3590    0.3580    0.4130 N   0  0  0  0  0  0  0  0  0  0  0  0
    4.0470    0.5050   -0.1690 C   0  0  0  0  0  0  0  0  0  0  0  0
    3.8360    1.4440   -1.0950 N   0  0  0  0  0  0  0  0  0  0  0  0
    2.6300    1.5940   -1.6450 C   0  0  0  0  0  0  0  0  0  0  0  0
    1.5950    0.7690   -1.2490 C   0  0  0  0  0  0  0  0  0  0  0  0
    1.7340   -0.2200   -0.3020 C   0  0  0  0  0  0  0  0  0  0  0  0
    0.8080   -1.0610    0.1440 O   0  0  0  0  0  0  0  0  0  0  0  0
   -0.4690   -1.4360    0.0630 C   0  0  0  0  0  0  0  0  0  0  0  0
   -1.5570   -0.4730    0.4710 C   0  0  1  0  0  0  0  0  0  0  0  0
   -1.5350    0.6840   -0.3130 O   0  0  0  0  0  0  0  0  0  0  0  0
   -2.6240    1.0380   -1.0840 C   0  0  0  0  0  0  0  0  0  0  0  0
   -2.5270    1.4880   -2.2680 O   0  0  0  0  0  0  0  0  0  0  0  0
   -3.9790    0.8850   -0.4990 C   0  0  2  0  0  0  0  0  0  0  0  0
   -4.1550    0.9180    0.9920 C   0  0  0  0  0  0  0  0  0  0  0  0
   -4.0900   -0.3300    0.2570 N   0  0  2  0  0  0  0  0  0  0  0  0
   -2.9150   -1.0940    0.2870 C   0  0  0  0  0  0  0  0  0  0  0  0
   -2.9720   -2.3010    0.1620 O   0  0  0  0  0  0  0  0  0  0  0  0
    3.0370   -0.3220    0.2370 C   0  0  0  0  0  0  0  0  0  0  0  0
    3.2780   -1.3170    1.2240 N   0  0  0  0  0  0  0  0  0  0  0  0
  1  2  1  0
  2  3  2  0
  2 18  1  0
  3  4  1  0
  4  5  2  0
  5  6  1  0
  6  7  1  0
  6 18  2  0
  7  8  1  0
  9  8  1  6
  9 10  1  0
  9 16  1  0
 10 11  1  0
 11 12  2  0
 11 13  1  0
 13 14  1  1
 13 15  1  0
 15 14  1  1
 15 16  1  0
 16 17  2  0
 18 19  1  0
M  CHG  1  15   1
M  END
