
     RDKit          3D

 16 16  0  0  0  0  0  0  0  0999 V2000
    4.9250    1.2750   -1.0250 O   0  0  0  0  0  0  0  0  0  0  0  0
    4.3430    0.6140    0.0830 C   0  0  0  0  0  0  0  0  0  0  0  0
    3.7450   -0.6290   -0.4580 C   0  0  0  0  0  0  0  0  0  0  0  0
    2.4650   -0.9500   -0.3940 C   0  0  0  0  0  0  0  0  0  0  0  0
    2.1110   -2.1860   -0.9760 O   0  0  0  0  0  0  0  0  0  0  0  0
    1.4630   -0.1060    0.2280 C   0  0  0  0  0  0  0  0  0  0  0  0
    0.1970   -0.4830    0.2600 C   0  0  0  0  0  0  0  0  0  0  0  0
   -0.2860   -1.7660   -0.3210 C   0  0  0  0  0  0  0  0  0  0  0  0
   -1.8100   -1.7400   -0.1190 C   0  0  0  0  0  0  0  0  0  0  0  0
   -2.2900   -0.6340   -0.7860 O   0  0  0  0  0  0  0  0  0  0  0  0
   -2.0670    0.4950   -0.0300 C   0  0  1  0  0  0  0  0  0  0  0  0
   -1.7720    1.7000   -0.9170 C   0  0  0  0  0  0  0  0  0  0  0  0
   -1.5610    2.7840   -0.0960 O   0  0  0  0  0  0  0  0  0  0  0  0
   -3.3220    0.7700    0.7770 C   0  0  0  0  0  0  0  0  0  0  0  0
   -3.6450   -0.2710    1.6190 O   0  0  0  0  0  0  0  0  0  0  0  0
   -0.8550    0.3640    0.8910 C   0  0  0  0  0  0  0  0  0  0  0  0
  1  2  1  0
  2  3  1  0
  3  4  2  3
  4  5  1  0
  4  6  1  0
  6  7  2  3
  7  8  1  0
  7 16  1  0
  8  9  1  0
  9 10  1  0
 10 11  1  0
 11 12  1  6
 11 14  1  0
 11 16  1  0
 12 13  1  0
 14 15  1  0
M  END
