
     RDKit          3D

 16 17  0  0  0  0  0  0  0  0999 V2000
    4.0800    0.3750    1.0910 O   0  0  0  0  0  0  0  0  0  0  0  0
    3.6860   -0.5400    0.1390 C   0  0  0  0  0  0  0  0  0  0  0  0
    2.3550   -0.1070   -0.4470 C   0  0  0  0  0  0  0  0  0  0  0  0
    1.4230   -0.0570    0.6110 O   0  0  0  0  0  0  0  0  0  0  0  0
    0.0980    0.3060    0.4220 C   0  0  0  0  0  0  0  0  0  0  0  0
   -0.2360    1.6500    0.5350 C   0  0  0  0  0  0  0  0  0  0  0  0
    0.7590    2.5820    0.8320 O   0  0  0  0  0  0  0  0  0  0  0  0
   -1.5550    2.0040    0.3460 C   0  0  0  0  0  0  0  0  0  0  0  0
   -1.9590    3.3270    0.4440 O   0  0  0  0  0  0  0  0  0  0  0  0
   -2.4780    0.9930    0.0520 C   0  0  0  0  0  0  0  0  0  0  0  0
   -2.1350   -0.3290   -0.0560 C   0  0  0  0  0  0  0  0  0  0  0  0
   -0.8280   -0.6720    0.1320 C   0  0  0  0  0  0  0  0  0  0  0  0
   -0.3600   -2.0630    0.0360 C   0  0  0  0  0  0  0  0  0  0  0  0
   -1.2850   -2.9670   -0.2440 C   0  0  0  0  0  0  0  0  0  0  0  0
   -2.6130   -2.6400   -0.4380 O   0  0  0  0  0  0  0  0  0  0  0  0
   -3.1560   -1.3580   -0.3700 C   0  0  0  0  0  0  0  0  0  0  0  0
  1  2  1  0
  2  3  1  0
  3  4  1  0
  4  5  1  0
  5  6  2  0
  5 12  1  0
  6  7  1  0
  6  8  1  0
  8  9  1  0
  8 10  2  0
 10 11  1  0
 11 12  2  0
 11 16  1  0
 12 13  1  0
 13 14  2  0
 14 15  1  0
 15 16  1  0
M  END
