
     RDKit          3D

 19 20  0  0  0  0  0  0  0  0999 V2000
    5.1720   -0.8870   -0.1060 N   0  0  0  0  0  0  0  0  0  0  0  0
    4.1370   -0.0300    0.4520 C   0  0  0  0  0  0  0  0  0  0  0  0
    3.9040   -0.2000    1.6600 O   0  0  0  0  0  0  0  0  0  0  0  0
    3.5200    0.9050   -0.4720 C   0  0  0  0  0  0  0  0  0  0  0  0
    2.4180    1.7440    0.0180 C   0  0  0  0  0  0  0  0  0  0  0  0
    1.2510    1.0960    0.5000 N   0  0  0  0  0  0  0  0  0  0  0  0
    0.9310    0.8680    1.7560 C   0  0  0  0  0  0  0  0  0  0  0  0
    1.6520    1.2790    2.6860 O   0  0  0  0  0  0  0  0  0  0  0  0
   -0.1970    0.1840    2.1230 N   0  0  0  0  0  0  0  0  0  0  0  0
   -1.0210   -0.2790    1.2020 C   0  0  0  0  0  0  0  0  0  0  0  0
   -0.7350   -0.0670   -0.1230 C   0  0  0  0  0  0  0  0  0  0  0  0
    0.3910    0.6140   -0.4470 C   0  0  0  0  0  0  0  0  0  0  0  0
    0.6380    0.8000   -1.6810 O   0  0  0  0  0  0  0  0  0  0  0  0
   -1.6370   -0.5730   -1.2180 C   0  0  1  0  0  0  0  0  0  0  0  0
   -1.1280   -1.8010   -1.6920 O   0  0  0  0  0  0  0  0  0  0  0  0
   -3.0550   -0.7100   -0.7890 C   0  0  2  0  0  0  0  0  0  0  0  0
   -3.8750    0.0790   -1.7020 N   0  0  0  0  0  0  0  0  0  0  0  0
   -3.3430   -0.3630    0.6320 C   0  0  0  0  0  0  0  0  0  0  0  0
   -2.2800   -1.0390    1.5050 C   0  0  0  0  0  0  0  0  0  0  0  0
  1  2  1  0
  2  3  2  0
  2  4  1  0
  4  5  1  0
  5  6  1  0
  6  7  1  0
  6 12  1  0
  7  8  2  0
  7  9  1  0
  9 10  1  0
 10 11  2  0
 10 19  1  0
 11 12  1  0
 11 14  1  0
 12 13  2  0
 14 15  1  1
 14 16  1  0
 16 17  1  6
 16 18  1  0
 18 19  1  0
M  CHG  1  17   1
M  END
