
     RDKit          3D

 15 17  0  0  0  0  0  0  0  0999 V2000
   -3.8030   -1.2820   -0.0090 O   0  0  0  0  0  0  0  0  0  0  0  0
   -2.8880   -0.2420   -0.0860 C   0  0  0  0  0  0  0  0  0  0  0  0
   -1.5800   -0.4640   -0.0860 C   0  0  0  0  0  0  0  0  0  0  0  0
   -1.1170   -1.8510   -0.0020 C   0  0  0  0  0  0  0  0  0  0  0  0
    0.3450   -2.0530    0.0030 C   0  0  0  0  0  0  0  0  0  0  0  0
    1.2340   -0.8900   -0.0850 C   0  0  0  0  0  0  0  0  0  0  0  0
    0.8120    0.3390   -0.1640 C   0  0  0  0  0  0  0  0  0  0  0  0
    1.7350    1.3900   -0.2440 O   0  0  0  0  0  0  0  0  0  0  0  0
    3.1160    1.2290   -0.0560 C   0  0  0  0  0  0  0  0  0  0  0  0
    3.5040   -0.1250    0.4600 C   0  0  0  0  0  0  0  0  0  0  0  0
    2.6560   -1.1190   -0.0840 O   0  0  0  0  0  0  0  0  0  0  0  0
   -0.6150    0.6220   -0.1690 C   0  0  0  0  0  0  0  0  0  0  0  0
   -1.0490    1.8630   -0.2460 C   0  0  0  0  0  0  0  0  0  0  0  0
   -2.4830    2.1820   -0.2510 C   0  0  0  0  0  0  0  0  0  0  0  0
   -3.2930    1.0610   -0.1650 O   0  0  0  0  0  0  0  0  0  0  0  0
  1  2  1  0
  2  3  2  0
  2 15  1  0
  3  4  1  0
  3 12  1  0
  4  5  1  0
  5  6  1  0
  6  7  2  0
  6 11  1  0
  7  8  1  0
  7 12  1  0
  8  9  1  0
  9 10  1  0
 10 11  1  0
 12 13  2  0
 13 14  1  0
 14 15  1  0
M  END
