
     RDKit          3D

 24 25  0  0  0  0  0  0  0  0999 V2000
    1.2780    0.0550   -2.6890 C   0  0  0  0  0  0  0  0  0  0  0  0
    1.7850   -0.2720   -1.3710 C   0  0  0  0  0  0  0  0  0  0  0  0
    3.1110    0.1180   -1.1040 C   0  0  0  0  0  0  0  0  0  0  0  0
    3.6760   -0.1690    0.1120 C   0  0  0  0  0  0  0  0  0  0  0  0
    4.9880    0.2100    0.3950 O   0  0  0  0  0  0  0  0  0  0  0  0
    5.8490    0.8840   -0.4700 C   0  0  0  0  0  0  0  0  0  0  0  0
    7.1670    1.0670    0.2120 C   0  0  0  0  0  0  0  0  0  0  0  0
    7.4110    0.7000    1.3770 O   0  0  0  0  0  0  0  0  0  0  0  0
    8.2000    1.6860   -0.5050 O   0  0  0  0  0  0  0  0  0  0  0  0
    2.9590   -0.8430    1.0890 C   0  0  0  0  0  0  0  0  0  0  0  0
    1.6580   -1.2150    0.8020 C   0  0  0  0  0  0  0  0  0  0  0  0
    0.9320   -1.9150    1.8810 C   0  0  0  0  0  0  0  0  0  0  0  0
    1.0530   -0.9350   -0.4320 C   0  0  0  0  0  0  0  0  0  0  0  0
   -0.3340   -1.3070   -0.5930 C   0  0  0  0  0  0  0  0  0  0  0  0
   -1.3030   -0.2580   -0.0850 C   0  0  0  0  0  0  0  0  0  0  0  0
   -0.8220    0.7470    0.7590 C   0  0  0  0  0  0  0  0  0  0  0  0
   -1.6970    1.5860    1.4040 C   0  0  0  0  0  0  0  0  0  0  0  0
   -3.0750    1.4260    1.2120 C   0  0  0  0  0  0  0  0  0  0  0  0
   -3.9420    2.2630    1.8590 O   0  0  0  0  0  0  0  0  0  0  0  0
   -3.5660    0.4390    0.3820 C   0  0  0  0  0  0  0  0  0  0  0  0
   -5.0000    0.0880    0.3090 C   0  0  1  0  0  0  0  0  0  0  0  0
   -5.8480    0.8310   -0.6560 C   0  0  0  0  0  0  0  0  0  0  0  0
   -5.0980   -1.4150   -0.2050 C   0  0  0  0  0  0  0  0  0  0  0  0
   -2.6550   -0.3840   -0.2560 C   0  0  0  0  0  0  0  0  0  0  0  0
  1  2  1  0
  2  3  2  0
  2 13  1  0
  3  4  1  0
  4  5  1  0
  4 10  2  0
  5  6  1  0
  6  7  1  0
  7  8  2  0
  7  9  1  0
 10 11  1  0
 11 12  1  0
 11 13  2  0
 13 14  1  0
 14 15  1  0
 15 16  2  0
 15 24  1  0
 16 17  1  0
 17 18  2  0
 18 19  1  0
 18 20  1  0
 20 21  1  0
 20 24  2  0
 21 22  1  6
 21 23  1  0
M  END
