
     RDKit          3D

 19 20  0  0  0  0  0  0  0  0999 V2000
   -3.6650    0.8470   -0.4330 C   0  0  0  0  0  0  0  0  0  0  0  0
   -3.1560   -0.5590   -0.2180 C   0  0  2  0  0  0  0  0  0  0  0  0
   -2.6550   -0.6240    1.1360 N   0  0  0  0  0  0  0  0  0  0  0  0
   -2.1350   -0.9690   -1.2170 C   0  0  0  0  0  0  0  0  0  0  0  0
   -0.9740   -0.2340   -1.2800 O   0  0  0  0  0  0  0  0  0  0  0  0
   -0.0200   -0.0160   -0.3040 C   0  0  0  0  0  0  0  0  0  0  0  0
    0.3830    1.2060   -0.0120 C   0  0  0  0  0  0  0  0  0  0  0  0
    0.2400    2.6690   -0.3180 C   0  0  0  0  0  0  0  0  0  0  0  0
    1.5320    3.2590    0.2300 C   0  0  0  0  0  0  0  0  0  0  0  0
    1.8310    2.4220    1.3740 N   0  0  0  0  0  0  0  0  0  0  0  0
    1.3760    1.1190    1.0360 C   0  0  0  0  0  0  0  0  0  0  0  0
    1.5520   -0.1110    1.3510 N   0  0  0  0  0  0  0  0  0  0  0  0
    0.7000   -0.9600    0.5500 C   0  0  2  0  0  0  0  0  0  0  0  0
    1.5410   -1.9120   -0.1830 C   0  0  0  0  0  0  0  0  0  0  0  0
    1.0960   -2.7860   -0.9690 O   0  0  0  0  0  0  0  0  0  0  0  0
    2.9480   -1.8660   -0.0150 N   0  0  0  0  0  0  0  0  0  0  0  0
    3.8380   -2.7480   -0.6850 C   0  0  0  0  0  0  0  0  0  0  0  0
    3.3510   -3.5990   -1.4550 O   0  0  0  0  0  0  0  0  0  0  0  0
    5.2210   -2.6600   -0.4820 O   0  0  0  0  0  0  0  0  0  0  0  0
  2  1  1  6
  2  3  1  0
  2  4  1  0
  4  5  1  0
  5  6  1  0
  6  7  2  0
  6 13  1  0
  7  8  1  0
  7 11  1  0
  8  9  1  0
  9 10  1  0
 10 11  1  0
 11 12  2  0
 12 13  1  0
 13 14  1  6
 14 15  2  0
 14 16  1  0
 16 17  1  0
 17 18  2  0
 17 19  1  0
M  CHG  1   3   1
M  END
