
     RDKit          3D

 22 24  0  0  0  0  0  0  0  0999 V2000
   -6.3030    0.6010   -0.3010 C   0  0  0  0  0  0  0  0  0  0  0  0
   -5.0910   -0.2650   -0.6620 C   0  0  0  0  0  0  0  0  0  0  0  0
   -5.3410   -1.5210   -1.1650 C   0  0  0  0  0  0  0  0  0  0  0  0
   -3.6350   -2.1740   -1.4660 S   0  0  0  0  0  0  0  0  0  0  0  0
   -2.7940   -0.6880   -0.8830 C   0  0  0  0  0  0  0  0  0  0  0  0
   -1.3780   -0.5830   -0.8900 C   0  0  0  0  0  0  0  0  0  0  0  0
   -0.7350   -0.0980    0.1250 C   0  0  0  0  0  0  0  0  0  0  0  0
   -1.2410    0.4310    1.4530 C   0  0  0  0  0  0  0  0  0  0  0  0
   -0.1660   -0.0830    2.3360 N   0  0  0  0  0  0  0  0  0  0  0  0
    0.9960    0.0840    1.5260 C   0  0  0  0  0  0  0  0  0  0  0  0
    2.6540    0.2510    2.1620 S   0  0  0  0  0  0  0  0  0  0  0  0
    3.7610    0.6620    0.8200 C   0  0  0  0  0  0  0  0  0  0  0  0
    3.9730    1.9780    0.5510 N   0  0  0  0  0  0  0  0  0  0  0  0
    4.7790    2.3140   -0.4590 C   0  0  0  0  0  0  0  0  0  0  0  0
    4.9790    3.5090   -0.7110 O   0  0  0  0  0  0  0  0  0  0  0  0
    5.3670    1.3610   -1.1920 N   0  0  0  0  0  0  0  0  0  0  0  0
    5.1300    0.0590   -0.8930 C   0  0  0  0  0  0  0  0  0  0  0  0
    5.6900   -0.8180   -1.5930 O   0  0  0  0  0  0  0  0  0  0  0  0
    4.3280   -0.3190    0.1120 N   0  0  0  0  0  0  0  0  0  0  0  0
    4.0820   -1.7230    0.4150 C   0  0  0  0  0  0  0  0  0  0  0  0
    0.6920    0.0780    0.2850 N   0  0  0  0  0  0  0  0  0  0  0  0
   -3.8030    0.1120   -0.5370 C   0  0  0  0  0  0  0  0  0  0  0  0
  1  2  1  0
  2  3  2  0
  2 22  1  0
  3  4  1  0
  4  5  1  0
  5  6  1  0
  5 22  2  0
  6  7  2  3
  7  8  1  0
  7 21  1  0
  8  9  1  0
  9 10  1  0
 10 11  1  0
 10 21  2  0
 11 12  1  0
 12 13  2  0
 12 19  1  0
 13 14  1  0
 14 15  2  0
 14 16  1  0
 16 17  1  0
 17 18  2  0
 17 19  1  0
 19 20  1  0
M  END
