
     RDKit          3D

 12 13  0  0  0  0  0  0  0  0999 V2000
    4.6830    0.5610   -0.4920 C   0  0  0  0  0  0  0  0  0  0  0  0
    3.2510    0.5050   -0.2830 N   0  0  0  0  0  0  0  0  0  0  0  0
    2.6030   -0.5540   -0.6240 C   0  0  0  0  0  0  0  0  0  0  0  0
    1.1610   -0.5750   -0.3980 C   0  0  0  0  0  0  0  0  0  0  0  0
    0.4660   -1.6590   -0.7420 C   0  0  0  0  0  0  0  0  0  0  0  0
   -1.0010   -1.8000   -0.5640 C   0  0  0  0  0  0  0  0  0  0  0  0
   -1.5410   -0.6730    0.2430 C   0  0  2  0  0  0  0  0  0  0  0  0
   -2.9920   -0.3630   -0.0820 C   0  0  0  0  0  0  0  0  0  0  0  0
   -3.1030    1.1420   -0.0830 C   0  0  0  0  0  0  0  0  0  0  0  0
   -1.7280    1.5630    0.3990 C   0  0  0  0  0  0  0  0  0  0  0  0
   -0.8900    0.5600   -0.2040 N   0  0  1  0  0  0  0  0  0  0  0  0
    0.4710    0.6020    0.2100 C   0  0  0  0  0  0  0  0  0  0  0  0
  1  2  1  0
  2  3  2  3
  3  4  1  0
  4  5  2  0
  4 12  1  0
  5  6  1  0
  7  6  1  6
  7  8  1  0
  7 11  1  0
  8  9  1  0
  9 10  1  0
 11 10  1  1
 11 12  1  0
M  CHG  1  11   1
M  END
