
     RDKit          3D

 12 13  0  0  0  0  0  0  0  0999 V2000
    3.6080   -0.6390    0.3190 C   0  0  0  0  0  0  0  0  0  0  0  0
    2.5730    0.2160   -0.3410 C   0  0  0  0  0  0  0  0  0  0  0  0
    1.1810   -0.0460    0.1940 C   0  0  2  0  0  0  0  0  0  0  0  0
    0.7400   -1.4710   -0.0080 C   0  0  0  0  0  0  0  0  0  0  0  0
   -0.5760   -1.6620    0.6530 C   0  0  0  0  0  0  0  0  0  0  0  0
   -1.7600   -1.4320   -0.2310 C   0  0  0  0  0  0  0  0  0  0  0  0
   -1.8810   -0.1290   -0.7750 N   0  0  1  0  0  0  0  0  0  0  0  0
   -2.5190    0.8030    0.1230 C   0  0  0  0  0  0  0  0  0  0  0  0
   -1.7350    2.0500    0.3620 C   0  0  0  0  0  0  0  0  0  0  0  0
   -0.2940    1.7960    0.6600 C   0  0  0  0  0  0  0  0  0  0  0  0
    0.2440    0.9040   -0.3000 N   0  0  0  0  0  0  0  0  0  0  0  0
   -0.6590    0.4370   -1.2870 C   0  0  0  0  0  0  0  0  0  0  0  0
  1  2  1  0
  3  2  1  6
  3  4  1  0
  3 11  1  0
  4  5  1  0
  5  6  1  0
  7  6  1  1
  7  8  1  0
  7 12  1  0
  8  9  1  0
  9 10  1  0
 10 11  1  0
 11 12  1  0
M  CHG  1   7   1
M  END
