
     RDKit          3D

 12 13  0  0  0  0  0  0  0  0999 V2000
   -0.8410   -1.8720    1.1740 C   0  0  0  0  0  0  0  0  0  0  0  0
   -0.9190   -0.4490    0.7980 C   0  0  2  0  0  0  0  0  0  0  0  0
   -2.0030   -0.1910   -0.1330 N   0  0  0  0  0  0  0  0  0  0  0  0
   -2.3230    1.2010   -0.0560 C   0  0  0  0  0  0  0  0  0  0  0  0
   -1.1930    2.1390   -0.0190 C   0  0  0  0  0  0  0  0  0  0  0  0
    0.1550    1.6050    0.2250 C   0  0  0  0  0  0  0  0  0  0  0  0
    0.2460    0.0860    0.0030 C   0  0  1  0  0  0  0  0  0  0  0  0
    1.5100   -0.4250    0.3910 N   0  0  2  0  0  0  0  0  0  0  0  0
    2.5910    0.5520    0.3170 C   0  0  0  0  0  0  0  0  0  0  0  0
    1.9660   -1.5580   -0.3880 C   0  0  0  0  0  0  0  0  0  0  0  0
   -0.0970   -0.1300   -1.4500 C   0  0  0  0  0  0  0  0  0  0  0  0
   -1.5260   -0.6210   -1.4110 C   0  0  0  0  0  0  0  0  0  0  0  0
  2  1  1  6
  2  3  1  0
  2  7  1  0
  3  4  1  0
  3 12  1  0
  4  5  1  0
  5  6  1  0
  7  6  1  6
  7  8  1  0
  7 11  1  0
  8  9  1  6
  8 10  1  0
 11 12  1  0
M  CHG  1   8   1
M  END
