
     RDKit          3D

 28 30  0  0  0  0  0  0  0  0999 V2000
    2.5500   -2.6010    1.1610 C   0  0  0  0  0  0  0  0  0  0  0  0
    2.7260   -1.1920    0.8940 C   0  0  0  0  0  0  0  0  0  0  0  0
    3.9220   -0.8110    0.2700 C   0  0  0  0  0  0  0  0  0  0  0  0
    4.1980    0.5020   -0.0040 C   0  0  0  0  0  0  0  0  0  0  0  0
    5.3800    0.8770   -0.6200 O   0  0  0  0  0  0  0  0  0  0  0  0
    5.6050    2.2420   -0.8750 C   0  0  0  0  0  0  0  0  0  0  0  0
    6.9050    2.4880   -1.5280 C   0  0  0  0  0  0  0  0  0  0  0  0
    7.2600    3.6520   -1.8280 O   0  0  0  0  0  0  0  0  0  0  0  0
    7.7640    1.4450   -1.8230 O   0  0  0  0  0  0  0  0  0  0  0  0
    3.2740    1.4350    0.3480 C   0  0  0  0  0  0  0  0  0  0  0  0
    2.0730    1.0560    0.9740 C   0  0  0  0  0  0  0  0  0  0  0  0
    1.1380    2.1340    1.3310 C   0  0  0  0  0  0  0  0  0  0  0  0
    1.7820   -0.2570    1.2550 C   0  0  0  0  0  0  0  0  0  0  0  0
    0.5490   -0.6680    1.8890 C   0  0  0  0  0  0  0  0  0  0  0  0
   -0.5110   -1.2310    1.0330 C   0  0  0  0  0  0  0  0  0  0  0  0
   -0.7530   -2.5800    0.9340 C   0  0  0  0  0  0  0  0  0  0  0  0
   -1.7510   -3.1210    0.1310 C   0  0  0  0  0  0  0  0  0  0  0  0
   -2.5370   -2.2320   -0.6050 C   0  0  0  0  0  0  0  0  0  0  0  0
   -3.5300   -2.7550   -1.4060 O   0  0  0  0  0  0  0  0  0  0  0  0
   -2.3330   -0.8780   -0.5370 C   0  0  0  0  0  0  0  0  0  0  0  0
   -3.1550    0.0870   -1.2820 C   0  0  0  0  0  0  0  0  0  0  0  0
   -4.4810    0.3100   -0.6500 C   0  0  0  0  0  0  0  0  0  0  0  0
   -5.6360   -0.3290   -0.9630 C   0  0  0  0  0  0  0  0  0  0  0  0
   -6.8050   -0.0130   -0.2590 C   0  0  0  0  0  0  0  0  0  0  0  0
   -6.8380    0.9260    0.7470 C   0  0  0  0  0  0  0  0  0  0  0  0
   -5.6550    1.5710    1.0560 C   0  0  0  0  0  0  0  0  0  0  0  0
   -4.5020    1.2640    0.3670 C   0  0  0  0  0  0  0  0  0  0  0  0
   -1.3260   -0.4120    0.2790 C   0  0  0  0  0  0  0  0  0  0  0  0
  1  2  1  0
  2  3  2  0
  2 13  1  0
  3  4  1  0
  4  5  1  0
  4 10  2  0
  5  6  1  0
  6  7  1  0
  7  8  2  0
  7  9  1  0
 10 11  1  0
 11 12  1  0
 11 13  2  0
 13 14  1  0
 14 15  1  0
 15 16  2  0
 15 28  1  0
 16 17  1  0
 17 18  2  0
 18 19  1  0
 18 20  1  0
 20 21  1  0
 20 28  2  0
 21 22  1  0
 22 23  2  0
 22 27  1  0
 23 24  1  0
 24 25  2  0
 25 26  1  0
 26 27  2  0
M  END
