
     RDKit          3D

 12 13  0  0  0  0  0  0  0  0999 V2000
   -2.3560    1.3840    0.3970 C   0  0  0  0  0  0  0  0  0  0  0  0
   -2.1360   -0.0070    0.6810 N   0  0  1  0  0  0  0  0  0  0  0  0
   -3.4260   -0.6910    0.5850 C   0  0  0  0  0  0  0  0  0  0  0  0
   -1.2090   -0.6540   -0.1710 C   0  0  2  0  0  0  0  0  0  0  0  0
    0.0450   -1.1430    0.5660 C   0  0  0  0  0  0  0  0  0  0  0  0
    1.0630   -1.0720   -0.5360 C   0  0  2  0  0  0  0  0  0  0  0  0
    2.4740   -1.1950   -0.0770 C   0  0  0  0  0  0  0  0  0  0  0  0
    3.2770   -0.0930   -0.7790 C   0  0  0  0  0  0  0  0  0  0  0  0
    2.7640    1.2510   -0.3130 C   0  0  0  0  0  0  0  0  0  0  0  0
    1.2630    1.2920   -0.3370 C   0  0  0  0  0  0  0  0  0  0  0  0
    0.7840    0.2030   -1.1420 N   0  0  0  0  0  0  0  0  0  0  0  0
   -0.6540    0.1750   -1.2750 C   0  0  0  0  0  0  0  0  0  0  0  0
  2  1  1  6
  2  3  1  0
  2  4  1  0
  4  5  1  1
  4 12  1  0
  6  5  1  1
  6  7  1  0
  6 11  1  0
  7  8  1  0
  8  9  1  0
  9 10  1  0
 10 11  1  0
 11 12  1  0
M  CHG  1   2   1
M  END
