
     RDKit          3D

 16 16  0  0  0  0  0  0  0  0999 V2000
    1.9020   -0.8450    1.8530 O   0  0  0  0  0  0  0  0  0  0  0  0
    1.4520   -0.4830    0.7430 C   0  0  0  0  0  0  0  0  0  0  0  0
    2.3390   -0.1210   -0.2480 O   0  0  0  0  0  0  0  0  0  0  0  0
    3.7500   -0.1560   -0.0160 C   0  0  0  0  0  0  0  0  0  0  0  0
    4.4630    0.2910   -1.2740 C   0  0  0  0  0  0  0  0  0  0  0  0
    4.0730    1.5790   -1.5920 O   0  0  0  0  0  0  0  0  0  0  0  0
    0.0190   -0.4550    0.5280 C   0  0  0  0  0  0  0  0  0  0  0  0
   -0.4040   -0.0610   -0.6760 C   0  0  0  0  0  0  0  0  0  0  0  0
   -1.7840    0.0540   -1.1380 C   0  0  0  0  0  0  0  0  0  0  0  0
   -1.9960    0.2280   -2.4170 C   0  0  0  0  0  0  0  0  0  0  0  0
   -3.3000    0.3380   -2.8660 O   0  0  0  0  0  0  0  0  0  0  0  0
   -2.9820   -0.0110   -0.2680 C   0  0  0  0  0  0  0  0  0  0  0  0
   -2.6570    0.7760    0.9690 C   0  0  0  0  0  0  0  0  0  0  0  0
   -1.9230    0.0640    2.0310 C   0  0  0  0  0  0  0  0  0  0  0  0
   -0.8420   -0.8660    1.6500 C   0  0  1  0  0  0  0  0  0  0  0  0
   -1.3120   -2.1570    1.3570 O   0  0  0  0  0  0  0  0  0  0  0  0
  1  2  2  0
  2  3  1  0
  2  7  1  0
  3  4  1  0
  4  5  1  0
  5  6  1  0
  7  8  2  0
  7 15  1  0
  8  9  1  0
  9 10  2  3
  9 12  1  0
 10 11  1  0
 12 13  1  0
 13 14  1  0
 14 15  1  0
 15 16  1  6
M  END
