
     RDKit          3D

 16 16  0  0  0  0  0  0  0  0999 V2000
    5.5880    0.6590   -0.1540 O   0  0  0  0  0  0  0  0  0  0  0  0
    4.6860    0.3560    0.8490 C   0  0  0  0  0  0  0  0  0  0  0  0
    3.6620   -0.5740    0.3130 C   0  0  0  0  0  0  0  0  0  0  0  0
    2.3840   -0.2340    0.3090 C   0  0  0  0  0  0  0  0  0  0  0  0
    2.0100    0.9950    0.8100 O   0  0  0  0  0  0  0  0  0  0  0  0
    1.3710   -1.1360   -0.2140 C   0  0  0  0  0  0  0  0  0  0  0  0
    0.0840   -0.9020   -0.2650 C   0  0  0  0  0  0  0  0  0  0  0  0
   -0.8560   -1.8980   -0.8210 C   0  0  0  0  0  0  0  0  0  0  0  0
   -2.0520   -1.3130   -1.4840 C   0  0  0  0  0  0  0  0  0  0  0  0
   -2.2890    0.0130   -1.2620 O   0  0  0  0  0  0  0  0  0  0  0  0
   -1.9460    0.4700   -0.0170 C   0  0  2  0  0  0  0  0  0  0  0  0
   -2.7640   -0.1350    1.0890 C   0  0  0  0  0  0  0  0  0  0  0  0
   -4.1010    0.2050    0.8290 O   0  0  0  0  0  0  0  0  0  0  0  0
   -2.2550    1.9740    0.0000 C   0  0  0  0  0  0  0  0  0  0  0  0
   -3.5870    2.2290   -0.2360 O   0  0  0  0  0  0  0  0  0  0  0  0
   -0.4490    0.3680    0.2340 C   0  0  0  0  0  0  0  0  0  0  0  0
  1  2  1  0
  2  3  1  0
  3  4  2  3
  4  5  1  0
  4  6  1  0
  6  7  2  3
  7  8  1  0
  7 16  1  0
  8  9  1  0
  9 10  1  0
 10 11  1  0
 11 12  1  1
 11 14  1  0
 11 16  1  0
 12 13  1  0
 14 15  1  0
M  END
