
     RDKit          3D

 19 20  0  0  0  0  0  0  0  0999 V2000
    6.2540   -0.6140    0.8670 C   0  0  0  0  0  0  0  0  0  0  0  0
    4.9550   -0.9900    0.4890 O   0  0  0  0  0  0  0  0  0  0  0  0
    3.9560   -0.0310    0.2790 C   0  0  0  0  0  0  0  0  0  0  0  0
    4.1970    1.1870    0.4240 O   0  0  0  0  0  0  0  0  0  0  0  0
    2.6240   -0.5040   -0.1130 C   0  0  0  0  0  0  0  0  0  0  0  0
    2.2100   -1.7540   -0.3070 N   0  0  0  0  0  0  0  0  0  0  0  0
    0.9150   -1.7390   -0.6570 C   0  0  0  0  0  0  0  0  0  0  0  0
    0.2420   -2.7710   -0.9070 O   0  0  0  0  0  0  0  0  0  0  0  0
    0.4960   -0.4400   -0.6870 N   0  0  0  0  0  0  0  0  0  0  0  0
   -0.8420   -0.0580   -1.0520 C   0  0  0  0  0  0  0  0  0  0  0  0
   -1.7640   -0.0940    0.1090 C   0  0  1  0  0  0  0  0  0  0  0  0
   -1.3420    0.8290    1.2180 C   0  0  0  0  0  0  0  0  0  0  0  0
   -1.8110    2.1560    0.6660 C   0  0  0  0  0  0  0  0  0  0  0  0
   -2.9570    1.8970   -0.0700 O   0  0  0  0  0  0  0  0  0  0  0  0
   -3.1190    0.5490   -0.2250 C   0  0  2  0  0  0  0  0  0  0  0  0
   -4.1250   -0.0330    0.7410 C   0  0  0  0  0  0  0  0  0  0  0  0
   -4.2880   -1.4520    0.5710 N   0  0  0  0  0  0  0  0  0  0  0  0
    1.5470    0.3280   -0.3520 C   0  0  0  0  0  0  0  0  0  0  0  0
    1.6030    1.7490   -0.2640 N   0  0  0  0  0  0  0  0  0  0  0  0
  1  2  1  0
  2  3  1  0
  3  4  2  0
  3  5  1  0
  5  6  1  0
  5 18  2  0
  6  7  1  0
  7  8  2  0
  7  9  1  0
  9 10  1  0
  9 18  1  0
 11 10  1  6
 11 12  1  0
 11 15  1  0
 12 13  1  0
 13 14  1  0
 14 15  1  0
 15 16  1  1
 16 17  1  0
 18 19  1  0
M  CHG  1  17   1
M  END
