
     RDKit          3D

 18 19  0  0  0  0  0  0  0  0999 V2000
   -4.4300    0.8190   -2.6930 C   0  0  0  0  0  0  0  0  0  0  0  0
   -3.6390   -0.1580   -2.0560 O   0  0  0  0  0  0  0  0  0  0  0  0
   -2.7110    0.1830   -1.0560 C   0  0  0  0  0  0  0  0  0  0  0  0
   -2.6530    1.4190   -0.7870 O   0  0  0  0  0  0  0  0  0  0  0  0
   -1.8770   -0.8330   -0.3820 C   0  0  2  0  0  0  0  0  0  0  0  0
   -2.2050   -2.0760   -0.9300 O   0  0  0  0  0  0  0  0  0  0  0  0
   -2.2030   -0.8980    1.0870 C   0  0  0  0  0  0  0  0  0  0  0  0
   -1.3400   -0.0940    1.9150 N   0  0  0  0  0  0  0  0  0  0  0  0
    0.0290   -0.5560    1.9140 C   0  0  0  0  0  0  0  0  0  0  0  0
    0.3950   -1.1770    0.5920 C   0  0  2  0  0  0  0  0  0  0  0  0
    1.7730   -1.1360    0.3110 N   0  0  0  0  0  0  0  0  0  0  0  0
    2.5400   -0.2020   -0.0270 C   0  0  0  0  0  0  0  0  0  0  0  0
    3.9670   -0.3070   -0.2880 C   0  0  0  0  0  0  0  0  0  0  0  0
    4.5020    0.9230   -0.3310 C   0  0  0  0  0  0  0  0  0  0  0  0
    5.8590    1.2790   -0.5590 N   0  0  0  0  0  0  0  0  0  0  0  0
    3.4950    1.8780   -0.1080 O   0  0  0  0  0  0  0  0  0  0  0  0
    2.2180    1.2250   -0.2460 C   0  0  0  0  0  0  0  0  0  0  0  0
   -0.3930   -0.5840   -0.5540 C   0  0  0  0  0  0  0  0  0  0  0  0
  1  2  1  0
  2  3  1  0
  3  4  2  0
  3  5  1  0
  5  6  1  6
  5  7  1  0
  5 18  1  0
  7  8  1  0
  8  9  1  0
  9 10  1  0
 10 11  1  6
 10 18  1  0
 11 12  2  3
 12 13  1  0
 12 17  1  0
 13 14  2  0
 14 15  1  0
 14 16  1  0
 16 17  1  0
M  CHG  1   8   1
M  END
