
     RDKit          3D

 19 21  0  0  0  0  0  0  0  0999 V2000
   -4.9440    0.3410   -1.9980 N   0  0  0  0  0  0  0  0  0  0  0  0
   -3.9900   -0.1680   -1.0920 C   0  0  0  0  0  0  0  0  0  0  0  0
   -4.3480   -1.2450   -0.3370 N   0  0  0  0  0  0  0  0  0  0  0  0
   -3.4450   -1.7430    0.5330 C   0  0  0  0  0  0  0  0  0  0  0  0
   -2.1910   -1.2160    0.6920 C   0  0  0  0  0  0  0  0  0  0  0  0
   -1.8530   -0.1250   -0.0840 C   0  0  0  0  0  0  0  0  0  0  0  0
   -0.5980    0.4550    0.0290 O   0  0  0  0  0  0  0  0  0  0  0  0
    0.3760   -0.0360    0.9290 C   0  0  0  0  0  0  0  0  0  0  0  0
    1.6200    0.8110    0.8060 C   0  0  1  0  0  0  0  0  0  0  0  0
    2.5810    0.2840    1.7310 O   0  0  0  0  0  0  0  0  0  0  0  0
    3.7680   -0.2170    1.2330 C   0  0  0  0  0  0  0  0  0  0  0  0
    4.7890   -0.1700    1.9690 O   0  0  0  0  0  0  0  0  0  0  0  0
    3.9020   -0.8010   -0.1070 C   0  0  2  0  0  0  0  0  0  0  0  0
    4.4490    0.0990   -1.1680 C   0  0  0  0  0  0  0  0  0  0  0  0
    3.0030   -0.2360   -1.0750 N   0  0  2  0  0  0  0  0  0  0  0  0
    2.1720    0.7830   -0.5580 C   0  0  0  0  0  0  0  0  0  0  0  0
    1.9000    1.7140   -1.3270 O   0  0  0  0  0  0  0  0  0  0  0  0
   -2.7430    0.4140   -0.9840 C   0  0  0  0  0  0  0  0  0  0  0  0
   -2.4570    1.5240   -1.8020 N   0  0  0  0  0  0  0  0  0  0  0  0
  1  2  1  0
  2  3  2  0
  2 18  1  0
  3  4  1  0
  4  5  2  0
  5  6  1  0
  6  7  1  0
  6 18  2  0
  7  8  1  0
  9  8  1  6
  9 10  1  0
  9 16  1  0
 10 11  1  0
 11 12  2  0
 11 13  1  0
 13 14  1  6
 13 15  1  0
 15 14  1  6
 15 16  1  0
 16 17  2  0
 18 19  1  0
M  CHG  1  15   1
M  END
