
     RDKit          3D

 19 20  0  0  0  0  0  0  0  0999 V2000
    5.5560   -1.6620   -0.4480 N   0  0  0  0  0  0  0  0  0  0  0  0
    4.7410   -0.5510   -0.1150 C   0  0  0  0  0  0  0  0  0  0  0  0
    5.2810    0.4380    0.4250 O   0  0  0  0  0  0  0  0  0  0  0  0
    3.2830   -0.5440   -0.3920 C   0  0  0  0  0  0  0  0  0  0  0  0
    2.6940    0.7570    0.0680 C   0  0  0  0  0  0  0  0  0  0  0  0
    1.2780    0.8520   -0.1620 N   0  0  0  0  0  0  0  0  0  0  0  0
    0.8680    1.3660   -1.3330 C   0  0  0  0  0  0  0  0  0  0  0  0
    1.6860    1.7590   -2.2200 O   0  0  0  0  0  0  0  0  0  0  0  0
   -0.4620    1.4860   -1.6200 N   0  0  0  0  0  0  0  0  0  0  0  0
   -1.3520    1.0890   -0.7250 C   0  0  0  0  0  0  0  0  0  0  0  0
   -0.9770    0.5490    0.5070 C   0  0  0  0  0  0  0  0  0  0  0  0
    0.3720    0.4490    0.7470 C   0  0  0  0  0  0  0  0  0  0  0  0
    0.7260   -0.0420    1.8650 O   0  0  0  0  0  0  0  0  0  0  0  0
   -2.0470    0.1380    1.4420 C   0  0  1  0  0  0  0  0  0  0  0  0
   -2.5230    1.3290    2.0410 O   0  0  0  0  0  0  0  0  0  0  0  0
   -3.1700   -0.5840    0.7740 C   0  0  2  0  0  0  0  0  0  0  0  0
   -2.9830   -2.0170    0.9350 N   0  0  0  0  0  0  0  0  0  0  0  0
   -3.3240   -0.2530   -0.6700 C   0  0  0  0  0  0  0  0  0  0  0  0
   -2.8440    1.1610   -0.9140 C   0  0  0  0  0  0  0  0  0  0  0  0
  1  2  1  0
  2  3  2  0
  2  4  1  0
  4  5  1  0
  5  6  1  0
  6  7  1  0
  6 12  1  0
  7  8  2  0
  7  9  1  0
  9 10  1  0
 10 11  2  0
 10 19  1  0
 11 12  1  0
 11 14  1  0
 12 13  2  0
 14 15  1  6
 14 16  1  0
 16 17  1  6
 16 18  1  0
 18 19  1  0
M  CHG  1  17   1
M  END
