
     RDKit          3D

 16 17  0  0  0  0  0  0  0  0999 V2000
    4.7330    0.0840   -0.4500 O   0  0  0  0  0  0  0  0  0  0  0  0
    3.5070    0.3790   -1.0520 C   0  0  0  0  0  0  0  0  0  0  0  0
    2.3790    0.2560   -0.0510 C   0  0  0  0  0  0  0  0  0  0  0  0
    1.1860    0.5640   -0.7180 O   0  0  0  0  0  0  0  0  0  0  0  0
   -0.0660    0.5680   -0.1630 C   0  0  0  0  0  0  0  0  0  0  0  0
   -0.5300    1.7410    0.4010 C   0  0  0  0  0  0  0  0  0  0  0  0
    0.2190    2.8970    0.4230 O   0  0  0  0  0  0  0  0  0  0  0  0
   -1.7860    1.7140    0.9490 C   0  0  0  0  0  0  0  0  0  0  0  0
   -2.3510    2.8590    1.5490 O   0  0  0  0  0  0  0  0  0  0  0  0
   -2.5450    0.5520    0.9290 C   0  0  0  0  0  0  0  0  0  0  0  0
   -2.0610   -0.6260    0.3550 C   0  0  0  0  0  0  0  0  0  0  0  0
   -0.8010   -0.6030   -0.1960 C   0  0  0  0  0  0  0  0  0  0  0  0
   -0.2730   -1.8260   -0.8030 C   0  0  0  0  0  0  0  0  0  0  0  0
   -1.0290   -2.9050   -0.7980 C   0  0  0  0  0  0  0  0  0  0  0  0
   -2.2830   -2.9410   -0.2540 O   0  0  0  0  0  0  0  0  0  0  0  0
   -2.8920   -1.8540    0.3480 C   0  0  0  0  0  0  0  0  0  0  0  0
  1  2  1  0
  2  3  1  0
  3  4  1  0
  4  5  1  0
  5  6  2  0
  5 12  1  0
  6  7  1  0
  6  8  1  0
  8  9  1  0
  8 10  2  0
 10 11  1  0
 11 12  2  0
 11 16  1  0
 12 13  1  0
 13 14  2  0
 14 15  1  0
 15 16  1  0
M  END
