
     RDKit          3D

 24 25  0  0  0  0  0  0  0  0999 V2000
    1.9650    3.2350   -0.8380 C   0  0  0  0  0  0  0  0  0  0  0  0
    2.1880    1.8140   -0.4210 C   0  0  0  0  0  0  0  0  0  0  0  0
    3.5240    1.3940   -0.5210 C   0  0  0  0  0  0  0  0  0  0  0  0
    3.8600    0.1180   -0.1790 C   0  0  0  0  0  0  0  0  0  0  0  0
    5.1850   -0.3380   -0.2510 O   0  0  0  0  0  0  0  0  0  0  0  0
    5.4630   -1.6840    0.1260 C   0  0  0  0  0  0  0  0  0  0  0  0
    6.9490   -1.8820    0.0710 C   0  0  0  0  0  0  0  0  0  0  0  0
    7.6590   -0.9300   -0.2920 O   0  0  0  0  0  0  0  0  0  0  0  0
    7.4780   -3.1250    0.4280 O   0  0  0  0  0  0  0  0  0  0  0  0
    2.8840   -0.7410    0.2550 C   0  0  0  0  0  0  0  0  0  0  0  0
    1.5780   -0.3320    0.3550 C   0  0  0  0  0  0  0  0  0  0  0  0
    0.5360   -1.3240    0.7440 C   0  0  0  0  0  0  0  0  0  0  0  0
    1.1920    0.9820    0.0190 C   0  0  0  0  0  0  0  0  0  0  0  0
   -0.1530    1.4540    0.2110 C   0  0  0  0  0  0  0  0  0  0  0  0
   -1.3330    1.0520   -0.4920 C   0  0  0  0  0  0  0  0  0  0  0  0
   -1.7280    1.4320   -1.7340 C   0  0  0  0  0  0  0  0  0  0  0  0
   -2.9710    1.1080   -2.2310 C   0  0  0  0  0  0  0  0  0  0  0  0
   -3.8600    0.3760   -1.4630 C   0  0  0  0  0  0  0  0  0  0  0  0
   -5.1420    0.0210   -1.9120 O   0  0  0  0  0  0  0  0  0  0  0  0
   -3.4770   -0.0260   -0.1960 C   0  0  0  0  0  0  0  0  0  0  0  0
   -4.4710   -0.6730    0.7210 C   0  0  2  0  0  0  0  0  0  0  0  0
   -4.5650   -2.1450    0.6360 C   0  0  0  0  0  0  0  0  0  0  0  0
   -5.6270    0.2030    0.9920 C   0  0  0  0  0  0  0  0  0  0  0  0
   -2.2540    0.3030    0.2660 C   0  0  0  0  0  0  0  0  0  0  0  0
  1  2  1  0
  2  3  2  0
  2 13  1  0
  3  4  1  0
  4  5  1  0
  4 10  2  0
  5  6  1  0
  6  7  1  0
  7  8  2  0
  7  9  1  0
 10 11  1  0
 11 12  1  0
 11 13  2  0
 13 14  1  0
 14 15  1  0
 15 16  2  0
 15 24  1  0
 16 17  1  0
 17 18  2  0
 18 19  1  0
 18 20  1  0
 20 21  1  0
 20 24  2  0
 21 22  1  6
 21 23  1  0
M  END
