
     RDKit          3D

 12 13  0  0  0  0  0  0  0  0999 V2000
    4.6960    0.4950   -0.3260 C   0  0  0  0  0  0  0  0  0  0  0  0
    3.2420    0.4140   -0.3650 N   0  0  0  0  0  0  0  0  0  0  0  0
    2.5930   -0.1210    0.5850 C   0  0  0  0  0  0  0  0  0  0  0  0
    1.1230   -0.1650    0.4720 C   0  0  0  0  0  0  0  0  0  0  0  0
    0.4220   -0.7200    1.4550 C   0  0  0  0  0  0  0  0  0  0  0  0
   -1.0590   -0.8230    1.4540 C   0  0  0  0  0  0  0  0  0  0  0  0
   -1.5370    0.1910    0.4360 C   0  0  2  0  0  0  0  0  0  0  0  0
   -2.9910    0.1260    0.1540 C   0  0  0  0  0  0  0  0  0  0  0  0
   -3.0530   -0.1960   -1.3230 C   0  0  0  0  0  0  0  0  0  0  0  0
   -1.7210    0.3970   -1.7920 C   0  0  0  0  0  0  0  0  0  0  0  0
   -0.8450   -0.1700   -0.8130 N   0  0  1  0  0  0  0  0  0  0  0  0
    0.4480    0.4130   -0.7390 C   0  0  0  0  0  0  0  0  0  0  0  0
  1  2  1  0
  2  3  2  3
  3  4  1  0
  4  5  2  0
  4 12  1  0
  5  6  1  0
  7  6  1  1
  7  8  1  0
  7 11  1  0
  8  9  1  0
  9 10  1  0
 11 10  1  6
 11 12  1  0
M  CHG  1  11   1
M  END
