
     RDKit          3D

 12 13  0  0  0  0  0  0  0  0999 V2000
   -3.4200    0.8840   -0.2330 C   0  0  0  0  0  0  0  0  0  0  0  0
   -2.1570    1.0390    0.5850 C   0  0  0  0  0  0  0  0  0  0  0  0
   -1.0430    0.3600   -0.2300 C   0  0  2  0  0  0  0  0  0  0  0  0
   -1.4410   -1.0530   -0.3930 C   0  0  0  0  0  0  0  0  0  0  0  0
   -0.3720   -2.0420   -0.6030 C   0  0  0  0  0  0  0  0  0  0  0  0
    0.9170   -1.5240   -1.1220 C   0  0  0  0  0  0  0  0  0  0  0  0
    1.7660   -0.9910   -0.0980 N   0  0  1  0  0  0  0  0  0  0  0  0
    2.6830   -0.0680   -0.6680 C   0  0  0  0  0  0  0  0  0  0  0  0
    2.4000    1.3650   -0.4290 C   0  0  0  0  0  0  0  0  0  0  0  0
    0.9600    1.7010   -0.2010 C   0  0  0  0  0  0  0  0  0  0  0  0
    0.1830    0.6570    0.3600 N   0  0  0  0  0  0  0  0  0  0  0  0
    0.9530   -0.3690    0.9340 C   0  0  0  0  0  0  0  0  0  0  0  0
  1  2  1  0
  3  2  1  1
  3  4  1  0
  3 11  1  0
  4  5  1  0
  5  6  1  0
  7  6  1  6
  7  8  1  0
  7 12  1  0
  8  9  1  0
  9 10  1  0
 10 11  1  0
 11 12  1  0
M  CHG  1   7   1
M  END
