
     RDKit          3D

 12 13  0  0  0  0  0  0  0  0999 V2000
   -2.9160    1.9860   -0.1750 C   0  0  0  0  0  0  0  0  0  0  0  0
   -1.7020    1.7100   -0.6000 C   0  0  0  0  0  0  0  0  0  0  0  0
   -1.0000    0.5610    0.0050 C   0  0  0  0  0  0  0  0  0  0  0  0
    0.2040    0.2190   -0.3560 C   0  0  0  0  0  0  0  0  0  0  0  0
    1.3620    0.5160   -1.2400 C   0  0  0  0  0  0  0  0  0  0  0  0
    2.3900   -0.3930   -0.9010 N   0  0  0  0  0  0  0  0  0  0  0  0
    3.6460    0.2030   -0.5400 C   0  0  0  0  0  0  0  0  0  0  0  0
    1.9370   -1.3410    0.0420 C   0  0  0  0  0  0  0  0  0  0  0  0
    0.5640   -0.9370    0.4410 C   0  0  0  0  0  0  0  0  0  0  0  0
   -0.3820   -1.2640    1.2370 N   0  0  0  0  0  0  0  0  0  0  0  0
   -1.4680   -0.3520    1.0420 C   0  0  2  0  0  0  0  0  0  0  0  0
   -2.7610   -1.0400    0.7030 C   0  0  0  0  0  0  0  0  0  0  0  0
  1  2  2  0
  2  3  1  0
  3  4  2  0
  3 11  1  0
  4  5  1  0
  4  9  1  0
  5  6  1  0
  6  7  1  0
  6  8  1  0
  8  9  1  0
  9 10  2  0
 10 11  1  0
 11 12  1  6
M  CHG  1  10   1
M  END
