
     RDKit          3D

 12 13  0  0  0  0  0  0  0  0999 V2000
    2.5190    0.7800    1.4770 C   0  0  0  0  0  0  0  0  0  0  0  0
    1.4080    0.4570    0.5140 C   0  0  0  0  0  0  0  0  0  0  0  0
    0.1520    0.7690    0.8080 C   0  0  0  0  0  0  0  0  0  0  0  0
   -0.9700    0.5050   -0.0440 C   0  0  1  0  0  0  0  0  0  0  0  0
   -0.5690   -0.2380   -1.3030 C   0  0  0  0  0  0  0  0  0  0  0  0
    0.6580   -0.5540   -1.5910 C   0  0  0  0  0  0  0  0  0  0  0  0
    1.7240   -0.2130   -0.6860 N   0  0  0  0  0  0  0  0  0  0  0  0
    3.1030   -0.5360   -0.9700 C   0  0  0  0  0  0  0  0  0  0  0  0
   -1.8850   -0.4680   -1.8730 C   0  0  0  0  0  0  0  0  0  0  0  0
   -2.7620   -0.5420   -0.8780 C   0  0  0  0  0  0  0  0  0  0  0  0
   -2.0210   -0.3630    0.3460 N   0  0  2  0  0  0  0  0  0  0  0  0
   -2.8570    0.1490    1.4010 C   0  0  0  0  0  0  0  0  0  0  0  0
  1  2  1  0
  2  3  2  0
  2  7  1  0
  4  3  1  1
  4  5  1  0
  4 11  1  0
  5  6  2  0
  5  9  1  0
  6  7  1  0
  7  8  1  0
  9 10  2  0
 10 11  1  0
 11 12  1  1
M  CHG  1  11   1
M  END
