
     RDKit          3D

 12 13  0  0  0  0  0  0  0  0999 V2000
    4.4190    0.2580    0.1120 C   0  0  0  0  0  0  0  0  0  0  0  0
    3.0920   -0.3580    0.3590 C   0  0  0  0  0  0  0  0  0  0  0  0
    1.9840    0.2420    0.0090 C   0  0  0  0  0  0  0  0  0  0  0  0
    0.6440   -0.3180    0.2270 C   0  0  0  0  0  0  0  0  0  0  0  0
    0.4300   -1.4590    0.7870 N   0  0  0  0  0  0  0  0  0  0  0  0
   -0.9020   -1.9610    0.9770 C   0  0  0  0  0  0  0  0  0  0  0  0
   -1.8190   -1.6640   -0.1700 C   0  0  0  0  0  0  0  0  0  0  0  0
   -1.7260   -0.2600   -0.6580 C   0  0  1  0  0  0  0  0  0  0  0  0
   -2.8190    0.6460   -0.1460 C   0  0  0  0  0  0  0  0  0  0  0  0
   -2.1440    1.9770    0.1750 C   0  0  0  0  0  0  0  0  0  0  0  0
   -0.7060    1.8420   -0.2770 C   0  0  0  0  0  0  0  0  0  0  0  0
   -0.5040    0.4180   -0.1990 N   0  0  0  0  0  0  0  0  0  0  0  0
  1  2  1  0
  2  3  2  3
  3  4  1  0
  4  5  2  0
  4 12  1  0
  5  6  1  0
  6  7  1  0
  8  7  1  1
  8  9  1  0
  8 12  1  0
  9 10  1  0
 10 11  1  0
 11 12  1  0
M  CHG  1   5   1
M  END
