
     RDKit          3D

 24 25  0  0  0  0  0  0  0  0999 V2000
    7.9710   -0.9520   -0.1800 N   0  0  0  0  0  0  0  0  0  0  0  0
    7.0640   -0.4130    0.5910 C   0  0  0  0  0  0  0  0  0  0  0  0
    6.8890   -1.0220    1.8150 O   0  0  0  0  0  0  0  0  0  0  0  0
    6.2940    0.7510    0.1810 C   0  0  0  0  0  0  0  0  0  0  0  0
    4.9310    0.5400    0.0820 O   0  0  0  0  0  0  0  0  0  0  0  0
    4.1590    0.1900    1.1600 C   0  0  0  0  0  0  0  0  0  0  0  0
    4.6080    0.0360    2.3190 O   0  0  0  0  0  0  0  0  0  0  0  0
    2.7110   -0.0240    0.9710 C   0  0  0  0  0  0  0  0  0  0  0  0
    2.3340    0.1810   -0.3980 O   0  0  0  0  0  0  0  0  0  0  0  0
    0.9820    0.0170   -0.7540 C   0  0  0  0  0  0  0  0  0  0  0  0
    0.5610    0.1990   -2.0510 C   0  0  0  0  0  0  0  0  0  0  0  0
   -0.7830    0.0330   -2.3920 C   0  0  0  0  0  0  0  0  0  0  0  0
   -1.7100   -0.3180   -1.4250 C   0  0  0  0  0  0  0  0  0  0  0  0
   -3.0450   -0.4920   -1.7150 C   0  0  0  0  0  0  0  0  0  0  0  0
   -3.9850   -0.8430   -0.7580 C   0  0  0  0  0  0  0  0  0  0  0  0
   -5.7150   -1.0650   -1.1500 S   0  0  0  0  0  0  0  0  0  0  0  0
   -6.6320    0.5020   -0.9710 C   0  0  0  0  0  0  0  0  0  0  0  0
   -6.6060    0.8510    0.5050 C   0  0  0  0  0  0  0  0  0  0  0  0
   -7.2400   -0.2290    1.1610 O   0  0  0  0  0  0  0  0  0  0  0  0
   -3.5130   -1.0080    0.4950 N   0  0  0  0  0  0  0  0  0  0  0  0
   -2.2210   -0.8490    0.8230 C   0  0  0  0  0  0  0  0  0  0  0  0
   -1.7640   -1.0290    2.1360 O   0  0  0  0  0  0  0  0  0  0  0  0
   -1.2950   -0.5020   -0.1230 C   0  0  0  0  0  0  0  0  0  0  0  0
    0.0510   -0.3320    0.1990 C   0  0  0  0  0  0  0  0  0  0  0  0
  1  2  2  0
  2  3  1  0
  2  4  1  0
  4  5  1  0
  5  6  1  0
  6  7  2  0
  6  8  1  0
  8  9  1  0
  9 10  1  0
 10 11  2  0
 10 24  1  0
 11 12  1  0
 12 13  2  0
 13 14  1  0
 13 23  1  0
 14 15  2  0
 15 16  1  0
 15 20  1  0
 16 17  1  0
 17 18  1  0
 18 19  1  0
 20 21  2  0
 21 22  1  0
 21 23  1  0
 23 24  2  0
M  END
