
     RDKit          3D

 24 24  0  0  0  0  0  0  0  0999 V2000
    7.0240   -0.0770   -2.9080 C   0  0  0  0  0  0  0  0  0  0  0  0
    5.9320    0.2510   -2.3170 O   0  0  0  0  0  0  0  0  0  0  0  0
    4.8260    0.5820   -1.7190 C   0  0  0  0  0  0  0  0  0  0  0  0
    4.6480    1.9100   -1.4380 C   0  0  0  0  0  0  0  0  0  0  0  0
    5.6830    2.9250   -1.8060 C   0  0  0  0  0  0  0  0  0  0  0  0
    6.0920    3.5320   -0.6160 O   0  0  0  0  0  0  0  0  0  0  0  0
    3.7040   -0.3140   -1.2870 C   0  0  0  0  0  0  0  0  0  0  0  0
    3.8310   -1.5930   -1.5410 C   0  0  0  0  0  0  0  0  0  0  0  0
    5.2190   -2.3290   -2.3560 S   0  0  0  0  0  0  0  0  0  0  0  0
    2.5440    0.2310   -0.6900 N   0  0  0  0  0  0  0  0  0  0  0  0
    1.3320   -0.4560   -0.5150 C   0  0  0  0  0  0  0  0  0  0  0  0
    1.1650   -1.6160   -0.8800 O   0  0  0  0  0  0  0  0  0  0  0  0
    0.1850    0.2380    0.1370 C   0  0  0  0  0  0  0  0  0  0  0  0
   -0.9180   -0.6370    0.1400 O   0  0  0  0  0  0  0  0  0  0  0  0
   -2.1370   -0.2340    0.6880 C   0  0  0  0  0  0  0  0  0  0  0  0
   -2.1610    0.9200    1.1630 O   0  0  0  0  0  0  0  0  0  0  0  0
   -3.2710   -1.0550    0.7120 N   0  0  0  0  0  0  0  0  0  0  0  0
   -4.5120   -0.5930    1.2820 C   0  0  1  0  0  0  0  0  0  0  0  0
   -4.9790    0.6190    0.5050 C   0  0  0  0  0  0  0  0  0  0  0  0
   -5.1480    0.2100   -0.8230 O   0  0  0  0  0  0  0  0  0  0  0  0
   -5.5960   -1.6480    1.1770 C   0  0  0  0  0  0  0  0  0  0  0  0
   -6.5920   -1.1890    2.2100 C   0  0  0  0  0  0  0  0  0  0  0  0
   -5.6560   -0.9150    3.3950 C   0  0  0  0  0  0  0  0  0  0  0  0
   -4.4230   -0.3210    2.7440 C   0  0  0  0  0  0  0  0  0  0  0  0
  1  2  1  0
  2  3  1  0
  3  4  2  3
  3  7  1  0
  4  5  1  0
  5  6  1  0
  7  8  2  3
  7 10  1  0
  8  9  1  0
 10 11  1  0
 11 12  2  0
 11 13  1  0
 13 14  1  0
 14 15  1  0
 15 16  2  0
 15 17  1  0
 17 18  1  0
 18 19  1  6
 18 21  1  0
 18 24  1  0
 19 20  1  0
 21 22  1  0
 22 23  1  0
 23 24  1  0
M  END
