
     RDKit          3D

 10  9  0  0  0  0  0  0  0  0999 V2000
    3.2860    1.3320   -0.3530 O   0  0  0  0  0  0  0  0  0  0  0  0
    3.2150    0.0830   -0.5160 C   0  0  0  0  0  0  0  0  0  0  0  0
    4.3860   -0.5980   -0.8410 O   0  0  0  0  0  0  0  0  0  0  0  0
    1.9600   -0.5480   -0.3630 N   0  0  0  0  0  0  0  0  0  0  0  0
    0.7660    0.1480   -0.0320 C   0  0  0  0  0  0  0  0  0  0  0  0
    0.8730    1.4000    0.1260 O   0  0  0  0  0  0  0  0  0  0  0  0
   -0.4640   -0.4830    0.1180 O   0  0  0  0  0  0  0  0  0  0  0  0
   -1.5640    0.3440    0.4490 C   0  0  0  0  0  0  0  0  0  0  0  0
   -2.8430   -0.4420    0.5860 C   0  0  0  0  0  0  0  0  0  0  0  0
   -3.1760   -1.0990   -0.5830 O   0  0  0  0  0  0  0  0  0  0  0  0
  1  2  2  0
  2  3  1  0
  2  4  1  0
  4  5  1  0
  5  6  2  0
  5  7  1  0
  7  8  1  0
  8  9  1  0
  9 10  1  0
M  END
