
     RDKit          3D

 10  9  0  0  0  0  0  0  0  0999 V2000
    4.6710   -0.6480   -0.6670 O   0  0  0  0  0  0  0  0  0  0  0  0
    3.6220   -0.5970   -0.0660 C   0  0  0  0  0  0  0  0  0  0  0  0
    2.3790   -0.2370   -0.7830 C   0  0  0  0  0  0  0  0  0  0  0  0
    1.2950   -0.2430    0.1150 O   0  0  0  0  0  0  0  0  0  0  0  0
    0.0030    0.0520   -0.2510 C   0  0  0  0  0  0  0  0  0  0  0  0
   -0.2410    0.3420   -1.4390 O   0  0  0  0  0  0  0  0  0  0  0  0
   -1.0490    0.0320    0.6890 N   0  0  0  0  0  0  0  0  0  0  0  0
   -2.3790    0.3410    0.2860 C   0  0  2  0  0  0  0  0  0  0  0  0
   -2.8990    1.4510    0.9530 O   0  0  0  0  0  0  0  0  0  0  0  0
   -3.1820   -0.7880    0.4640 O   0  0  0  0  0  0  0  0  0  0  0  0
  1  2  2  0
  2  3  1  0
  3  4  1  0
  4  5  1  0
  5  6  2  0
  5  7  1  0
  7  8  1  0
  8  9  1  1
  8 10  1  0
M  END
