
     RDKit          3D

 10  9  0  0  0  0  0  0  0  0999 V2000
   -0.0900    1.7320    1.1590 O   0  0  0  0  0  0  0  0  0  0  0  0
    0.1610    0.7450    0.4420 C   0  0  0  0  0  0  0  0  0  0  0  0
    1.5030    0.4560    0.0770 N   0  0  0  0  0  0  0  0  0  0  0  0
    2.5580    1.2020    0.4650 O   0  0  0  0  0  0  0  0  0  0  0  0
    3.7240    0.4550    0.2340 C   0  0  0  0  0  0  0  0  0  0  0  0
    3.6620   -0.7250    0.9740 O   0  0  0  0  0  0  0  0  0  0  0  0
   -0.8960   -0.0710    0.0070 O   0  0  0  0  0  0  0  0  0  0  0  0
   -2.2180    0.2690    0.4100 C   0  0  0  0  0  0  0  0  0  0  0  0
   -3.1040   -0.8110   -0.2200 C   0  0  0  0  0  0  0  0  0  0  0  0
   -4.4370   -0.6460    0.0660 O   0  0  0  0  0  0  0  0  0  0  0  0
  1  2  2  0
  2  3  1  0
  2  7  1  0
  3  4  1  0
  4  5  1  0
  5  6  1  0
  7  8  1  0
  8  9  1  0
  9 10  1  0
M  END
