
     RDKit          3D

 10  9  0  0  0  0  0  0  0  0999 V2000
    2.8960    0.0310   -2.0460 O   0  0  0  0  0  0  0  0  0  0  0  0
    3.0230   -0.1240   -0.8050 C   0  0  0  0  0  0  0  0  0  0  0  0
    4.3260   -0.2270   -0.3110 O   0  0  0  0  0  0  0  0  0  0  0  0
    1.8770   -0.1840    0.0010 N   0  0  0  0  0  0  0  0  0  0  0  0
    0.5510   -0.0820   -0.4750 C   0  0  0  0  0  0  0  0  0  0  0  0
    0.3770    0.0740   -1.7100 O   0  0  0  0  0  0  0  0  0  0  0  0
   -0.6390   -0.1520    0.4230 C   0  0  0  0  0  0  0  0  0  0  0  0
   -1.8070   -0.0280   -0.2780 O   0  0  0  0  0  0  0  0  0  0  0  0
   -2.8620   -0.1060    0.6540 C   0  0  0  0  0  0  0  0  0  0  0  0
   -4.0980    0.0060    0.0650 O   0  0  0  0  0  0  0  0  0  0  0  0
  1  2  2  0
  2  3  1  0
  2  4  1  0
  4  5  1  0
  5  6  2  0
  5  7  1  0
  7  8  1  0
  8  9  1  0
  9 10  1  0
M  END
