
     RDKit          3D

 25 26  0  0  0  0  0  0  0  0999 V2000
   -4.8530    0.5910    1.8670 C   0  0  0  0  0  0  0  0  0  0  0  0
   -4.9380   -0.0980    0.5870 C   0  0  0  0  0  0  0  0  0  0  0  0
   -5.7820   -1.2110    0.4170 C   0  0  0  0  0  0  0  0  0  0  0  0
   -5.9410   -1.7720   -0.7970 N   0  0  0  0  0  0  0  0  0  0  0  0
   -5.3150   -1.3070   -1.8990 C   0  0  0  0  0  0  0  0  0  0  0  0
   -5.4760   -1.8580   -3.0090 O   0  0  0  0  0  0  0  0  0  0  0  0
   -4.4780   -0.2110   -1.7700 C   0  0  0  0  0  0  0  0  0  0  0  0
   -4.3000    0.3740   -0.5220 C   0  0  0  0  0  0  0  0  0  0  0  0
   -3.0420    1.6260   -0.5270 S   0  0  1  0  0  0  0  0  0  0  0  0
   -3.1250    2.2960   -1.8450 O   0  0  0  0  0  0  0  0  0  0  0  0
   -3.2540    2.6180    0.5500 O   0  0  0  0  0  0  0  0  0  0  0  0
   -1.5310    0.7720   -0.3320 N   0  0  0  0  0  0  0  0  0  0  0  0
   -1.5110    0.1380    0.9470 C   0  0  0  0  0  0  0  0  0  0  0  0
   -0.3670   -0.7290    1.2430 C   0  0  0  0  0  0  0  0  0  0  0  0
    0.9600   -0.4830    1.2060 O   0  0  0  0  0  0  0  0  0  0  0  0
    1.7120   -0.3260    0.0480 C   0  0  0  0  0  0  0  0  0  0  0  0
    1.1150   -0.4040   -1.0340 O   0  0  0  0  0  0  0  0  0  0  0  0
    3.1520   -0.0940    0.0070 C   0  0  0  0  0  0  0  0  0  0  0  0
    3.9970   -0.0610   -1.0290 C   0  0  0  0  0  0  0  0  0  0  0  0
    5.3110    0.1180   -0.8360 C   0  0  0  0  0  0  0  0  0  0  0  0
    6.3380    0.1540   -1.9440 C   0  0  0  0  0  0  0  0  0  0  0  0
    5.7140    0.2630    0.4770 C   0  0  0  0  0  0  0  0  0  0  0  0
    7.1120    0.3330    0.9910 C   0  0  0  0  0  0  0  0  0  0  0  0
    7.7390    1.3940    0.3930 O   0  0  0  0  0  0  0  0  0  0  0  0
    4.2430    0.1470    1.3820 S   0  0  0  0  0  0  0  0  0  0  0  0
  1  2  1  0
  2  3  2  0
  2  8  1  0
  3  4  1  0
  4  5  1  0
  5  6  2  0
  5  7  1  0
  7  8  2  0
  8  9  1  0
  9 10  2  0
  9 11  2  0
  9 12  1  1
 12 13  1  0
 13 14  1  0
 14 15  1  0
 15 16  1  0
 16 17  2  0
 16 18  1  0
 18 19  2  0
 18 25  1  0
 19 20  1  0
 20 21  1  0
 20 22  2  0
 22 23  1  0
 22 25  1  0
 23 24  1  0
M  END
