
     RDKit          3D

 18 18  0  0  0  0  0  0  0  0999 V2000
   -2.6990   -3.3020    0.6810 C   0  0  0  0  0  0  0  0  0  0  0  0
   -1.4220   -2.0490    0.8680 S   0  0  0  0  0  0  0  0  0  0  0  0
   -2.0680   -0.4750    0.2290 C   0  0  0  0  0  0  0  0  0  0  0  0
   -1.3170    0.6060    0.2540 C   0  0  0  0  0  0  0  0  0  0  0  0
   -0.0220    0.5460    0.7730 O   0  0  0  0  0  0  0  0  0  0  0  0
    1.0590    0.2520   -0.0280 C   0  0  0  0  0  0  0  0  0  0  0  0
    0.8670    0.0370   -1.2360 O   0  0  0  0  0  0  0  0  0  0  0  0
    2.3960    0.1810    0.4600 N   0  0  0  0  0  0  0  0  0  0  0  0
    3.5030   -0.1270   -0.3940 C   0  0  0  0  0  0  0  0  0  0  0  0
    4.7420   -0.1230    0.4120 C   0  0  0  0  0  0  0  0  0  0  0  0
    5.9970   -0.3950   -0.1660 N   0  0  0  0  0  0  0  0  0  0  0  0
    4.6500    0.2030    2.0040 S   0  0  0  0  0  0  0  0  0  0  0  0
   -1.8160    1.8670   -0.2520 C   0  0  0  0  0  0  0  0  0  0  0  0
   -1.0760    3.0450   -0.2540 O   0  0  0  0  0  0  0  0  0  0  0  0
   -3.0420    1.9320   -0.7440 C   0  0  0  0  0  0  0  0  0  0  0  0
   -3.7280    3.4700   -1.3910 S   0  0  0  0  0  0  0  0  0  0  0  0
   -3.8380    0.8260   -0.7810 O   0  0  0  0  0  0  0  0  0  0  0  0
   -3.4390   -0.4190   -0.3190 C   0  0  0  0  0  0  0  0  0  0  0  0
  1  2  1  0
  2  3  1  0
  3  4  2  0
  3 18  1  0
  4  5  1  0
  4 13  1  0
  5  6  1  0
  6  7  2  0
  6  8  1  0
  8  9  1  0
  9 10  1  0
 10 11  1  0
 10 12  2  0
 13 14  1  0
 13 15  2  0
 15 16  1  0
 15 17  1  0
 17 18  1  0
M  END
