
     RDKit          3D

 23 24  0  0  0  0  0  0  0  0999 V2000
   -3.1450    3.3810   -0.1480 C   0  0  0  0  0  0  0  0  0  0  0  0
   -3.6490    2.5210   -1.2950 C   0  0  1  0  0  0  0  0  0  0  0  0
   -4.1740    3.5500   -2.3240 C   0  0  0  0  0  0  0  0  0  0  0  0
   -2.5800    1.7430   -1.9500 C   0  0  0  0  0  0  0  0  0  0  0  0
   -1.8460    0.7690   -0.8860 C   0  0  1  0  0  0  0  0  0  0  0  0
   -2.8800   -0.1310   -0.3780 C   0  0  0  0  0  0  0  0  0  0  0  0
   -2.5720   -1.1050    0.6660 C   0  0  0  0  0  0  0  0  0  0  0  0
   -1.4430   -1.2190    1.2940 C   0  0  0  0  0  0  0  0  0  0  0  0
   -1.1640   -2.2160    2.3400 C   0  0  0  0  0  0  0  0  0  0  0  0
   -2.2550   -3.0350    2.6000 O   0  0  0  0  0  0  0  0  0  0  0  0
   -3.4610   -2.9580    1.9710 C   0  0  0  0  0  0  0  0  0  0  0  0
   -3.6540   -2.0470    1.0370 C   0  0  0  0  0  0  0  0  0  0  0  0
   -0.9190    0.2090   -1.7700 O   0  0  0  0  0  0  0  0  0  0  0  0
    0.2960    0.7790   -1.8690 C   0  0  0  0  0  0  0  0  0  0  0  0
    1.2390    0.6240   -0.7320 C   0  0  0  0  0  0  0  0  0  0  0  0
    1.6760   -0.8300   -0.5130 C   0  0  0  0  0  0  0  0  0  0  0  0
    2.6210   -0.8160    0.6620 C   0  0  1  0  0  0  0  0  0  0  0  0
    1.9590   -0.3190    1.7630 O   0  0  0  0  0  0  0  0  0  0  0  0
    3.2380   -2.1720    0.9120 C   0  0  0  0  0  0  0  0  0  0  0  0
    4.4970   -2.3120    0.0510 C   0  0  0  0  0  0  0  0  0  0  0  0
    5.5650   -1.4780    0.7460 C   0  0  0  0  0  0  0  0  0  0  0  0
    4.9130   -0.1870    1.2150 C   0  0  0  0  0  0  0  0  0  0  0  0
    3.7330    0.1820    0.3320 C   0  0  0  0  0  0  0  0  0  0  0  0
  2  1  1  1
  2  3  1  0
  2  4  1  0
  5  4  1  6
  5  6  1  0
  5 13  1  0
  6  7  1  0
  7  8  2  0
  7 12  1  0
  8  9  1  0
  9 10  1  0
 10 11  1  0
 11 12  2  0
 13 14  1  0
 14 15  1  0
 15 16  1  0
 16 17  1  0
 17 18  1  1
 17 19  1  0
 17 23  1  0
 19 20  1  0
 20 21  1  0
 21 22  1  0
 22 23  1  0
M  END
