
     RDKit          3D

 23 23  0  0  0  0  0  0  0  0999 V2000
    4.1450   -0.6820   -2.5860 C   0  0  0  0  0  0  0  0  0  0  0  0
    3.0350   -0.4280   -1.5340 C   0  0  0  0  0  0  0  0  0  0  0  0
    3.6910   -0.4260   -0.2230 C   0  0  1  0  0  0  0  0  0  0  0  0
    4.7470    0.7210   -0.3570 C   0  0  0  0  0  0  0  0  0  0  0  0
    5.5440    0.9190    0.8800 C   0  0  0  0  0  0  0  0  0  0  0  0
    6.4570    1.9680    0.5690 O   0  0  0  0  0  0  0  0  0  0  0  0
    3.0130   -0.1860    1.0280 C   0  0  0  0  0  0  0  0  0  0  0  0
    1.9090   -0.9600    1.5790 C   0  0  2  0  0  0  0  0  0  0  0  0
    1.5820   -0.3190    2.9750 C   0  0  0  0  0  0  0  0  0  0  0  0
    2.1830   -2.4030    1.8740 C   0  0  0  0  0  0  0  0  0  0  0  0
    0.6420   -0.7920    0.7410 C   0  0  0  0  0  0  0  0  0  0  0  0
    0.2160    0.6540    0.6750 C   0  0  0  0  0  0  0  0  0  0  0  0
   -0.9250    0.8620   -0.0690 O   0  0  0  0  0  0  0  0  0  0  0  0
   -2.0210    0.2370    0.4950 C   0  0  2  0  0  0  0  0  0  0  0  0
   -2.6350   -0.7940   -0.3880 C   0  0  0  0  0  0  0  0  0  0  0  0
   -4.1160   -0.7860   -0.5220 C   0  0  2  0  0  0  0  0  0  0  0  0
   -4.7010   -1.6640    0.5660 C   0  0  0  0  0  0  0  0  0  0  0  0
   -4.5160   -1.4690   -1.8400 C   0  0  0  0  0  0  0  0  0  0  0  0
   -4.7730    0.5340   -0.4740 C   0  0  0  0  0  0  0  0  0  0  0  0
   -3.7950    1.6820   -0.3080 C   0  0  2  0  0  0  0  0  0  0  0  0
   -4.5280    2.9650   -0.0990 C   0  0  0  0  0  0  0  0  0  0  0  0
   -2.9090    1.7340   -1.3830 O   0  0  0  0  0  0  0  0  0  0  0  0
   -2.9770    1.3300    0.9180 C   0  0  0  0  0  0  0  0  0  0  0  0
  1  2  1  0
  3  2  1  6
  3  4  1  0
  3  7  1  0
  4  5  1  0
  5  6  1  0
  7  8  1  0
  8  9  1  1
  8 10  1  0
  8 11  1  0
 11 12  1  0
 12 13  1  0
 14 13  1  6
 14 15  1  0
 14 23  1  0
 15 16  1  0
 16 17  1  1
 16 18  1  0
 16 19  1  0
 19 20  1  0
 20 21  1  1
 20 22  1  0
 20 23  1  0
M  END
