
     RDKit          3D

 18 18  0  0  0  0  0  0  0  0999 V2000
    3.1430    1.9800   -2.1430 C   0  0  0  0  0  0  0  0  0  0  0  0
    3.1340    0.7680   -1.4010 O   0  0  0  0  0  0  0  0  0  0  0  0
    2.5720    0.7120   -0.1350 C   0  0  0  0  0  0  0  0  0  0  0  0
    2.0650    1.7540    0.3560 O   0  0  0  0  0  0  0  0  0  0  0  0
    2.5440   -0.5340    0.6620 C   0  0  0  0  0  0  0  0  0  0  0  0
    1.1910   -1.6430    0.2470 S   0  0  0  0  0  0  0  0  0  0  0  0
   -0.3740   -0.8920    0.6630 C   0  0  0  0  0  0  0  0  0  0  0  0
   -0.4070    0.2920    1.1620 N   0  0  0  0  0  0  0  0  0  0  0  0
   -1.4150    1.1650    1.5940 C   0  0  0  0  0  0  0  0  0  0  0  0
   -1.1330    2.6490    1.5370 C   0  0  0  0  0  0  0  0  0  0  0  0
   -2.6180    0.8340    2.0470 C   0  0  0  0  0  0  0  0  0  0  0  0
   -3.3630   -0.8010    2.2630 S   0  0  0  0  0  0  0  0  0  0  0  0
   -2.7030   -1.8200    0.9220 C   0  0  0  0  0  0  0  0  0  0  0  0
   -1.5140   -1.7790    0.3620 C   0  0  0  0  0  0  0  0  0  0  0  0
   -1.1750   -2.9190   -0.9330 S   0  0  1  0  0  0  0  0  0  0  0  0
   -1.5870   -2.2410   -2.4670 N   0  0  0  0  0  0  0  0  0  0  0  0
    0.2800   -3.2840   -0.9760 O   0  0  0  0  0  0  0  0  0  0  0  0
   -1.9980   -4.1660   -0.7740 O   0  0  0  0  0  0  0  0  0  0  0  0
  1  2  1  0
  2  3  1  0
  3  4  2  0
  3  5  1  0
  5  6  1  0
  6  7  1  0
  7  8  2  0
  7 14  1  0
  8  9  1  0
  9 10  1  0
  9 11  2  0
 11 12  1  0
 12 13  1  0
 13 14  2  0
 14 15  1  0
 15 16  1  6
 15 17  2  0
 15 18  2  0
M  END
