
     RDKit          3D

 23 23  0  0  0  0  0  0  0  0999 V2000
    5.9810   -1.9410    0.2890 C   0  0  0  0  0  0  0  0  0  0  0  0
    4.8220   -1.3600    1.0420 C   0  0  0  0  0  0  0  0  0  0  0  0
    4.0530   -0.3780    0.1250 C   0  0  1  0  0  0  0  0  0  0  0  0
    5.0880    0.6990   -0.2530 C   0  0  0  0  0  0  0  0  0  0  0  0
    3.7590   -1.1470   -1.0910 C   0  0  0  0  0  0  0  0  0  0  0  0
    2.5490   -1.1990   -1.5740 C   0  0  0  0  0  0  0  0  0  0  0  0
    2.3570   -1.9560   -2.7460 O   0  0  0  0  0  0  0  0  0  0  0  0
    1.4600   -0.5140   -0.9280 C   0  0  0  0  0  0  0  0  0  0  0  0
    1.5990    0.2110    0.2020 C   0  0  0  0  0  0  0  0  0  0  0  0
    0.4390    0.8670    0.7750 C   0  0  0  0  0  0  0  0  0  0  0  0
   -0.8920    0.6510    0.0810 C   0  0  0  0  0  0  0  0  0  0  0  0
   -1.4740   -0.6900    0.3460 C   0  0  0  0  0  0  0  0  0  0  0  0
   -2.7970   -0.8600   -0.3850 C   0  0  2  0  0  0  0  0  0  0  0  0
   -2.6520   -0.7390   -1.7470 O   0  0  0  0  0  0  0  0  0  0  0  0
   -3.8610    0.0580    0.1300 C   0  0  0  0  0  0  0  0  0  0  0  0
   -5.1210   -0.1330   -0.3160 O   0  0  0  0  0  0  0  0  0  0  0  0
   -5.3990    0.0160   -1.6410 C   0  0  1  0  0  0  0  0  0  0  0  0
   -5.9070   -1.3310   -2.1820 C   0  0  0  0  0  0  0  0  0  0  0  0
   -6.5290    1.0190   -1.8340 C   0  0  0  0  0  0  0  0  0  0  0  0
    0.4480    1.6240    1.8270 C   0  0  0  0  0  0  0  0  0  0  0  0
    1.5240    2.0430    2.7180 C   0  0  0  0  0  0  0  0  0  0  0  0
   -0.9240    2.1930    2.2240 C   0  0  0  0  0  0  0  0  0  0  0  0
    2.9260    0.2410    0.8410 C   0  0  0  0  0  0  0  0  0  0  0  0
  1  2  1  0
  2  3  1  0
  3  4  1  6
  3  5  1  0
  3 23  1  0
  5  6  2  0
  6  7  1  0
  6  8  1  0
  8  9  2  0
  9 10  1  0
  9 23  1  0
 10 11  1  0
 10 20  2  3
 11 12  1  0
 12 13  1  0
 13 14  1  6
 13 15  1  0
 15 16  1  0
 16 17  1  0
 17 18  1  1
 17 19  1  0
 20 21  1  0
 20 22  1  0
M  END
