
     RDKit          3D

 19 20  0  0  0  0  0  0  0  0999 V2000
   -5.8190    0.5520    1.3010 N   0  0  0  0  0  0  0  0  0  0  0  0
   -5.0380    0.4510    0.1120 C   0  0  0  0  0  0  0  0  0  0  0  0
   -4.7330    1.5080   -0.4880 O   0  0  0  0  0  0  0  0  0  0  0  0
   -4.5840   -0.8560   -0.4250 C   0  0  0  0  0  0  0  0  0  0  0  0
   -3.0040   -1.3890    0.2560 S   0  0  0  0  0  0  0  0  0  0  0  0
   -1.6920   -0.2960   -0.2910 C   0  0  0  0  0  0  0  0  0  0  0  0
   -0.5230   -0.1310   -0.1900 N   0  0  0  0  0  0  0  0  0  0  0  0
    0.2380    0.7810   -0.7150 C   0  0  0  0  0  0  0  0  0  0  0  0
    1.7170    0.8550   -0.4910 C   0  0  0  0  0  0  0  0  0  0  0  0
    2.5170    0.0600    0.2480 C   0  0  0  0  0  0  0  0  0  0  0  0
    3.8240    0.3450    0.2830 C   0  0  0  0  0  0  0  0  0  0  0  0
    5.0020   -0.6120    1.2010 S   0  0  1  0  0  0  0  0  0  0  0  0
    6.0370    0.3340    1.7240 O   0  0  0  0  0  0  0  0  0  0  0  0
    4.3370   -1.2290    2.4040 O   0  0  0  0  0  0  0  0  0  0  0  0
    5.6720   -1.8050    0.2550 O   0  0  0  0  0  0  0  0  0  0  0  0
    4.2560    1.4120   -0.4270 C   0  0  0  0  0  0  0  0  0  0  0  0
    2.7720    2.0620   -1.1870 S   0  0  0  0  0  0  0  0  0  0  0  0
   -0.4710    1.6950   -1.5230 C   0  0  0  0  0  0  0  0  0  0  0  0
   -2.0910    1.1720   -1.4480 S   0  0  0  0  0  0  0  0  0  0  0  0
  1  2  1  0
  2  3  2  0
  2  4  1  0
  4  5  1  0
  5  6  1  0
  6  7  2  0
  6 19  1  0
  7  8  1  0
  8  9  1  0
  8 18  2  0
  9 10  2  0
  9 17  1  0
 10 11  1  0
 11 12  1  0
 11 16  2  0
 12 13  2  0
 12 14  2  0
 12 15  1  6
 16 17  1  0
 18 19  1  0
M  END
