
     RDKit          3D

 23 22  0  0  0  0  0  0  0  0999 V2000
    8.6610    1.1640    1.3530 C   0  0  0  0  0  0  0  0  0  0  0  0
    7.5980    1.9750    0.6770 C   0  0  0  0  0  0  0  0  0  0  0  0
    6.7050    1.1130   -0.2060 C   0  0  0  0  0  0  0  0  0  0  0  0
    6.0200    0.0540    0.5960 C   0  0  0  0  0  0  0  0  0  0  0  0
    5.1490   -0.7690   -0.3400 C   0  0  0  0  0  0  0  0  0  0  0  0
    4.1250    0.0440   -1.0120 C   0  0  0  0  0  0  0  0  0  0  0  0
    2.8210   -0.2480   -0.8330 C   0  0  0  0  0  0  0  0  0  0  0  0
    1.8330    0.5910   -1.5240 C   0  0  0  0  0  0  0  0  0  0  0  0
    0.8910    1.2610   -0.5790 C   0  0  0  0  0  0  0  0  0  0  0  0
    0.0180    0.3110    0.0970 C   0  0  0  0  0  0  0  0  0  0  0  0
   -0.0250   -0.9600   -0.1490 C   0  0  0  0  0  0  0  0  0  0  0  0
   -0.9550   -1.8870    0.5980 C   0  0  0  0  0  0  0  0  0  0  0  0
   -1.8680   -2.5310   -0.4130 C   0  0  0  0  0  0  0  0  0  0  0  0
   -2.6500   -1.4700   -1.1360 C   0  0  0  0  0  0  0  0  0  0  0  0
   -3.4810   -0.7000   -0.1690 C   0  0  0  0  0  0  0  0  0  0  0  0
   -4.2620    0.3510   -0.9310 C   0  0  1  0  0  0  0  0  0  0  0  0
   -5.1010   -0.1980   -1.8840 O   0  0  0  0  0  0  0  0  0  0  0  0
   -4.9610    1.3050   -0.0280 C   0  0  0  0  0  0  0  0  0  0  0  0
   -5.9520    0.7150    0.9120 C   0  0  0  0  0  0  0  0  0  0  0  0
   -7.0920   -0.0160    0.2350 C   0  0  0  0  0  0  0  0  0  0  0  0
   -8.0360   -0.5650    1.2350 C   0  0  0  0  0  0  0  0  0  0  0  0
   -7.8350   -0.3970    2.4550 O   0  0  0  0  0  0  0  0  0  0  0  0
   -9.1420   -1.2660    0.8100 O   0  0  0  0  0  0  0  0  0  0  0  0
  1  2  1  0
  2  3  1  0
  3  4  1  0
  4  5  1  0
  5  6  1  0
  6  7  2  3
  7  8  1  0
  8  9  1  0
  9 10  1  0
 10 11  2  3
 11 12  1  0
 12 13  1  0
 13 14  1  0
 14 15  1  0
 15 16  1  0
 16 17  1  1
 16 18  1  0
 18 19  1  0
 19 20  1  0
 20 21  1  0
 21 22  2  0
 21 23  1  0
M  END
