
     RDKit          3D

 19 20  0  0  0  0  0  0  0  0999 V2000
    0.7720   -1.2660    0.2230 O   0  0  0  0  0  0  0  0  0  0  0  0
    0.4200   -0.7740    1.3010 C   0  0  0  0  0  0  0  0  0  0  0  0
    1.2980   -0.9290    2.5000 C   0  0  0  0  0  0  0  0  0  0  0  0
    2.7880   -1.8720    2.0920 S   0  0  0  0  0  0  0  0  0  0  0  0
    3.8010   -0.9670    0.9630 C   0  0  0  0  0  0  0  0  0  0  0  0
    4.8860   -1.0620    0.3410 N   0  0  0  0  0  0  0  0  0  0  0  0
    5.4250   -0.2560   -0.4390 N   0  0  0  0  0  0  0  0  0  0  0  0
    4.8230    0.9420   -0.7250 C   0  0  0  0  0  0  0  0  0  0  0  0
    5.0790    1.8750   -1.3990 O   0  0  0  0  0  0  0  0  0  0  0  0
    3.3090    0.7320    0.3330 S   0  0  0  0  0  0  0  0  0  0  0  0
   -0.7730   -0.0770    1.4310 N   0  0  0  0  0  0  0  0  0  0  0  0
   -1.6870    0.1300    0.3490 C   0  0  0  0  0  0  0  0  0  0  0  0
   -1.6700   -0.2340   -0.9330 C   0  0  0  0  0  0  0  0  0  0  0  0
   -2.6910    0.1080   -1.7430 C   0  0  0  0  0  0  0  0  0  0  0  0
   -3.7230    0.8280   -1.2000 C   0  0  0  0  0  0  0  0  0  0  0  0
   -4.9590    1.3480   -1.7940 C   0  0  0  0  0  0  0  0  0  0  0  0
   -5.2290    1.1640   -3.0040 O   0  0  0  0  0  0  0  0  0  0  0  0
   -5.8710    2.0610   -1.0320 O   0  0  0  0  0  0  0  0  0  0  0  0
   -3.2170    1.0160    0.4960 S   0  0  0  0  0  0  0  0  0  0  0  0
  1  2  2  0
  2  3  1  0
  2 11  1  0
  3  4  1  0
  4  5  1  0
  5  6  2  0
  5 10  1  0
  6  7  1  0
  7  8  1  0
  8  9  2  0
  8 10  1  0
 11 12  1  0
 12 13  2  0
 12 19  1  0
 13 14  1  0
 14 15  2  0
 15 16  1  0
 15 19  1  0
 16 17  2  0
 16 18  1  0
M  END
