
     RDKit          3D

 23 23  0  0  0  0  0  0  0  0999 V2000
    3.1030   -2.5880   -1.9880 C   0  0  0  0  0  0  0  0  0  0  0  0
    3.0930   -3.0390   -0.5640 C   0  0  1  0  0  0  0  0  0  0  0  0
    4.4830   -2.9390    0.0190 C   0  0  0  0  0  0  0  0  0  0  0  0
    2.0880   -2.2250    0.2820 C   0  0  0  0  0  0  0  0  0  0  0  0
    2.4610   -0.8070    0.2430 C   0  0  0  0  0  0  0  0  0  0  0  0
    1.6740    0.1770    0.9790 C   0  0  0  0  0  0  0  0  0  0  0  0
    0.2930    0.5570    0.6410 C   0  0  2  0  0  0  0  0  0  0  0  0
   -0.2150    1.5530    1.6170 C   0  0  0  0  0  0  0  0  0  0  0  0
    0.6150    2.7880    1.6270 C   0  0  1  0  0  0  0  0  0  0  0  0
    0.7010    3.5220    0.3080 C   0  0  0  0  0  0  0  0  0  0  0  0
    1.5210    4.6560    0.5830 O   0  0  0  0  0  0  0  0  0  0  0  0
    0.0840    3.7930    2.6680 C   0  0  0  0  0  0  0  0  0  0  0  0
    0.1000    3.2750    3.9390 O   0  0  0  0  0  0  0  0  0  0  0  0
   -0.5860   -0.5420    0.2780 C   0  0  0  0  0  0  0  0  0  0  0  0
   -2.0060   -0.2670   -0.0470 C   0  0  1  0  0  0  0  0  0  0  0  0
   -2.4290    0.5850   -1.1210 C   0  0  2  0  0  0  0  0  0  0  0  0
   -1.4870    1.1270   -2.1070 C   0  0  0  0  0  0  0  0  0  0  0  0
   -3.2920    1.7510   -0.6100 C   0  0  0  0  0  0  0  0  0  0  0  0
   -3.4360   -0.2910   -1.8900 C   0  0  0  0  0  0  0  0  0  0  0  0
   -3.8380   -1.2450   -0.9670 O   0  0  0  0  0  0  0  0  0  0  0  0
   -2.6170   -1.6220   -0.4120 C   0  0  2  0  0  0  0  0  0  0  0  0
   -2.8260   -2.4790    0.7990 C   0  0  0  0  0  0  0  0  0  0  0  0
   -1.8150   -2.3730   -1.4070 C   0  0  0  0  0  0  0  0  0  0  0  0
  2  1  1  6
  2  3  1  0
  2  4  1  0
  4  5  1  0
  5  6  1  0
  7  6  1  1
  7  8  1  0
  7 14  1  0
  9  8  1  6
  9 10  1  0
  9 12  1  0
 10 11  1  0
 12 13  1  0
 15 14  1  6
 15 16  1  0
 15 21  1  0
 16 17  1  6
 16 18  1  0
 16 19  1  0
 19 20  1  0
 20 21  1  0
 21 22  1  1
 21 23  1  0
M  END
