
     RDKit          3D

 23 23  0  0  0  0  0  0  0  0999 V2000
    3.7530    1.7200   -0.3550 C   0  0  0  0  0  0  0  0  0  0  0  0
    3.0180    0.4100   -0.0830 C   0  0  2  0  0  0  0  0  0  0  0  0
    3.4370   -0.6690   -1.0320 C   0  0  0  0  0  0  0  0  0  0  0  0
    4.8920   -0.9900   -0.9670 C   0  0  0  0  0  0  0  0  0  0  0  0
    5.2700   -1.4540    0.4030 C   0  0  0  0  0  0  0  0  0  0  0  0
    6.7410   -1.7940    0.5130 C   0  0  0  0  0  0  0  0  0  0  0  0
    7.6250   -0.6300    0.2100 C   0  0  0  0  0  0  0  0  0  0  0  0
    8.9480   -1.0440    0.3380 O   0  0  0  0  0  0  0  0  0  0  0  0
    1.6320    0.6960   -0.1750 O   0  0  0  0  0  0  0  0  0  0  0  0
    0.7690    0.6460    0.8830 C   0  0  0  0  0  0  0  0  0  0  0  0
    1.1750    0.3350    2.0150 O   0  0  0  0  0  0  0  0  0  0  0  0
   -0.7270    0.9760    0.6770 C   0  0  2  0  0  0  0  0  0  0  0  0
   -1.3120    0.8140    2.0470 C   0  0  0  0  0  0  0  0  0  0  0  0
   -1.2280    0.1600   -0.4300 C   0  0  0  0  0  0  0  0  0  0  0  0
   -2.5580    0.1960   -1.0070 C   0  0  1  0  0  0  0  0  0  0  0  0
   -2.5450   -0.8490   -2.1660 C   0  0  0  0  0  0  0  0  0  0  0  0
   -3.8080    0.0250   -0.2260 C   0  0  1  0  0  0  0  0  0  0  0  0
   -3.7860   -1.3140    0.4720 C   0  0  0  0  0  0  0  0  0  0  0  0
   -4.0920    1.1610    0.6570 C   0  0  0  0  0  0  0  0  0  0  0  0
   -5.4160    1.8450    0.4170 C   0  0  0  0  0  0  0  0  0  0  0  0
   -6.5760    0.9740    0.1510 C   0  0  0  0  0  0  0  0  0  0  0  0
   -6.2280   -0.3040   -0.5230 C   0  0  0  0  0  0  0  0  0  0  0  0
   -4.9460   -0.0980   -1.2950 C   0  0  0  0  0  0  0  0  0  0  0  0
  2  1  1  6
  2  3  1  0
  2  9  1  0
  3  4  1  0
  4  5  1  0
  5  6  1  0
  6  7  1  0
  7  8  1  0
  9 10  1  0
 10 11  2  0
 10 12  1  0
 12 13  1  1
 12 14  1  0
 14 15  1  0
 15 16  1  6
 15 17  1  0
 17 18  1  1
 17 19  1  0
 17 23  1  0
 19 20  1  0
 20 21  1  0
 21 22  1  0
 22 23  1  0
M  END
