
     RDKit          3D

 25 27  0  0  0  0  0  0  0  0999 V2000
   -7.2650    0.4560    0.5660 C   0  0  0  0  0  0  0  0  0  0  0  0
   -5.8520    0.4040    0.4930 O   0  0  0  0  0  0  0  0  0  0  0  0
   -5.1770   -0.5490   -0.2520 C   0  0  0  0  0  0  0  0  0  0  0  0
   -5.8590   -1.3720   -0.8640 O   0  0  0  0  0  0  0  0  0  0  0  0
   -3.6810   -0.5870   -0.3170 C   0  0  0  0  0  0  0  0  0  0  0  0
   -3.0510   -1.5900   -1.1000 C   0  0  0  0  0  0  0  0  0  0  0  0
   -3.6810   -2.6140   -1.8660 N   0  0  0  0  0  0  0  0  0  0  0  0
   -1.3730   -1.2540   -0.8870 S   0  0  0  0  0  0  0  0  0  0  0  0
   -1.5160    0.1190    0.1670 C   0  0  0  0  0  0  0  0  0  0  0  0
   -0.4480    0.9410    0.7670 C   0  0  0  0  0  0  0  0  0  0  0  0
    0.8150    0.4440    0.3540 O   0  0  0  0  0  0  0  0  0  0  0  0
    1.9900    1.0330    0.7730 C   0  0  0  0  0  0  0  0  0  0  0  0
    1.8820    2.0270    1.5360 O   0  0  0  0  0  0  0  0  0  0  0  0
    3.3060    0.5500    0.3700 C   0  0  0  0  0  0  0  0  0  0  0  0
    4.4200    1.1790    0.8210 C   0  0  0  0  0  0  0  0  0  0  0  0
    5.7430    0.7720    0.4760 C   0  0  0  0  0  0  0  0  0  0  0  0
    6.9010    1.4380    0.9550 C   0  0  0  0  0  0  0  0  0  0  0  0
    8.2270    0.5080    0.2090 S   0  0  0  0  0  0  0  0  0  0  0  0
    7.1830   -0.6820   -0.6730 C   0  0  0  0  0  0  0  0  0  0  0  0
    5.9090   -0.2620   -0.3190 C   0  0  0  0  0  0  0  0  0  0  0  0
    4.7480   -0.9410   -0.8070 C   0  0  0  0  0  0  0  0  0  0  0  0
    3.4900   -0.5240   -0.4560 C   0  0  0  0  0  0  0  0  0  0  0  0
    2.2620   -1.2330   -0.9660 C   0  0  0  0  0  0  0  0  0  0  0  0
   -2.8620    0.2650    0.3140 C   0  0  0  0  0  0  0  0  0  0  0  0
   -3.4320    1.3890    1.1930 C   0  0  0  0  0  0  0  0  0  0  0  0
  1  2  1  0
  2  3  1  0
  3  4  2  0
  3  5  1  0
  5  6  2  0
  5 24  1  0
  6  7  1  0
  6  8  1  0
  8  9  1  0
  9 10  1  0
  9 24  2  0
 10 11  1  0
 11 12  1  0
 12 13  2  0
 12 14  1  0
 14 15  2  0
 14 22  1  0
 15 16  1  0
 16 17  2  0
 16 20  1  0
 17 18  1  0
 18 19  1  0
 19 20  2  0
 20 21  1  0
 21 22  2  0
 22 23  1  0
 24 25  1  0
M  END
