
     RDKit          3D

 26 28  0  0  0  0  0  0  0  0999 V2000
   -8.3380   -0.4230   -1.1610 C   0  0  0  0  0  0  0  0  0  0  0  0
   -7.0130   -0.6610   -1.5810 O   0  0  0  0  0  0  0  0  0  0  0  0
   -5.9100   -0.4220   -0.7920 C   0  0  0  0  0  0  0  0  0  0  0  0
   -4.6590   -0.6890   -1.2990 C   0  0  0  0  0  0  0  0  0  0  0  0
   -3.4860   -0.4680   -0.5480 C   0  0  0  0  0  0  0  0  0  0  0  0
   -3.5500    0.0240    0.7210 C   0  0  0  0  0  0  0  0  0  0  0  0
   -2.4680    0.2860    1.5640 N   0  0  0  0  0  0  0  0  0  0  0  0
   -1.1130    0.0850    1.2450 C   0  0  0  0  0  0  0  0  0  0  0  0
   -0.7700   -0.3570    0.1500 O   0  0  0  0  0  0  0  0  0  0  0  0
   -0.0290    0.4060    2.2440 C   0  0  0  0  0  0  0  0  0  0  0  0
    1.2560    0.1050    1.6540 C   0  0  0  0  0  0  0  0  0  0  0  0
    2.0370   -1.0170    1.6150 C   0  0  0  0  0  0  0  0  0  0  0  0
    3.2140   -0.9460    0.9600 C   0  0  0  0  0  0  0  0  0  0  0  0
    3.5760    0.1850    0.3850 C   0  0  0  0  0  0  0  0  0  0  0  0
    4.8130    0.4920   -0.3810 C   0  0  0  0  0  0  0  0  0  0  0  0
    5.8160   -0.3100   -0.6470 C   0  0  0  0  0  0  0  0  0  0  0  0
    6.8700    0.1330   -1.3610 C   0  0  0  0  0  0  0  0  0  0  0  0
    8.0720   -0.6990   -1.7220 C   0  0  0  0  0  0  0  0  0  0  0  0
    8.1300   -1.8770   -1.3560 O   0  0  0  0  0  0  0  0  0  0  0  0
    9.1050   -0.1860   -2.4470 O   0  0  0  0  0  0  0  0  0  0  0  0
    6.8230    1.4580   -1.7830 C   0  0  0  0  0  0  0  0  0  0  0  0
    5.2190    1.9830   -1.1020 S   0  0  0  0  0  0  0  0  0  0  0  0
    2.2930    1.2690    0.7060 S   0  0  0  0  0  0  0  0  0  0  0  0
   -4.8360    0.2880    1.2130 C   0  0  0  0  0  0  0  0  0  0  0  0
   -4.9330    0.7830    2.4840 F   0  0  0  0  0  0  0  0  0  0  0  0
   -5.9790    0.0720    0.4790 C   0  0  0  0  0  0  0  0  0  0  0  0
  1  2  1  0
  2  3  1  0
  3  4  2  0
  3 26  1  0
  4  5  1  0
  5  6  2  0
  6  7  1  0
  6 24  1  0
  7  8  1  0
  8  9  2  0
  8 10  1  0
 10 11  1  0
 11 12  2  0
 11 23  1  0
 12 13  1  0
 13 14  2  0
 14 15  1  0
 14 23  1  0
 15 16  2  0
 15 22  1  0
 16 17  1  0
 17 18  1  0
 17 21  2  0
 18 19  2  0
 18 20  1  0
 21 22  1  0
 24 25  1  0
 24 26  2  0
M  END
