
     RDKit          3D

 26 28  0  0  0  0  0  0  0  0999 V2000
   -4.0190   -1.1520   -0.6040 O   0  0  0  0  0  0  0  0  0  0  0  0
   -4.1860    0.0470   -0.1970 C   0  0  0  0  0  0  0  0  0  0  0  0
   -3.1000    0.9070    0.0270 N   0  0  0  0  0  0  0  0  0  0  0  0
   -1.7330    0.5470   -0.1630 C   0  0  0  0  0  0  0  0  0  0  0  0
   -1.2860   -0.7380   -0.2380 C   0  0  0  0  0  0  0  0  0  0  0  0
    0.0590   -1.0210   -0.4510 C   0  0  0  0  0  0  0  0  0  0  0  0
    0.9500    0.0050   -0.5860 C   0  0  0  0  0  0  0  0  0  0  0  0
    2.2960   -0.2630   -0.7980 O   0  0  0  0  0  0  0  0  0  0  0  0
    3.1560   -0.4030    0.2700 C   0  0  0  0  0  0  0  0  0  0  0  0
    2.6940   -0.2830    1.4250 O   0  0  0  0  0  0  0  0  0  0  0  0
    4.5690   -0.6850    0.0240 C   0  0  0  0  0  0  0  0  0  0  0  0
    5.2460   -0.8470   -1.1160 C   0  0  0  0  0  0  0  0  0  0  0  0
    6.5610   -1.1030   -1.0970 C   0  0  0  0  0  0  0  0  0  0  0  0
    7.1730   -1.1900    0.1440 C   0  0  0  0  0  0  0  0  0  0  0  0
    8.5840   -1.4590    0.5200 C   0  0  0  0  0  0  0  0  0  0  0  0
    9.2880   -0.2540    0.5300 O   0  0  0  0  0  0  0  0  0  0  0  0
    5.8040   -0.8940    1.2850 S   0  0  0  0  0  0  0  0  0  0  0  0
    0.4910    1.2970   -0.5080 C   0  0  0  0  0  0  0  0  0  0  0  0
    1.4050    2.2980   -0.6460 F   0  0  0  0  0  0  0  0  0  0  0  0
   -0.8190    1.6040   -0.3010 C   0  0  0  0  0  0  0  0  0  0  0  0
   -5.5730    0.5190    0.0400 C   0  0  0  0  0  0  0  0  0  0  0  0
   -6.5550   -0.3180   -0.1820 C   0  0  0  0  0  0  0  0  0  0  0  0
   -7.9990   -0.1610   -0.0470 C   0  0  0  0  0  0  0  0  0  0  0  0
   -8.4760    1.4670    0.5220 S   0  0  0  0  0  0  0  0  0  0  0  0
   -6.9530    2.3850    0.7390 C   0  0  0  0  0  0  0  0  0  0  0  0
   -5.7600    1.8690    0.4990 C   0  0  0  0  0  0  0  0  0  0  0  0
  1  2  2  0
  2  3  1  0
  2 21  1  0
  3  4  1  0
  4  5  2  0
  4 20  1  0
  5  6  1  0
  6  7  2  0
  7  8  1  0
  7 18  1  0
  8  9  1  0
  9 10  2  0
  9 11  1  0
 11 12  2  0
 11 17  1  0
 12 13  1  0
 13 14  2  0
 14 15  1  0
 14 17  1  0
 15 16  1  0
 18 19  1  0
 18 20  2  0
 21 22  2  0
 21 26  1  0
 22 23  1  0
 23 24  1  0
 24 25  1  0
 25 26  2  0
M  END
