
     RDKit          3D

 26 28  0  0  0  0  0  0  0  0999 V2000
   -3.7320   -3.1010   -0.4680 C   0  0  0  0  0  0  0  0  0  0  0  0
   -3.8000   -1.8220   -1.0370 O   0  0  0  0  0  0  0  0  0  0  0  0
   -3.1650   -0.7150   -0.4900 C   0  0  0  0  0  0  0  0  0  0  0  0
   -2.4200   -0.8300    0.6660 C   0  0  0  0  0  0  0  0  0  0  0  0
   -1.7800    0.2520    1.2300 C   0  0  0  0  0  0  0  0  0  0  0  0
   -1.8710    1.4910    0.6420 C   0  0  0  0  0  0  0  0  0  0  0  0
   -1.0540    2.9350    1.3380 S   0  0  0  0  0  0  0  0  0  0  0  0
   -0.1520    2.4890    2.8360 C   0  0  0  0  0  0  0  0  0  0  0  0
    0.9760    1.5860    2.4350 C   0  0  0  0  0  0  0  0  0  0  0  0
    1.6780    1.1530    3.3720 O   0  0  0  0  0  0  0  0  0  0  0  0
    1.2390    1.2430    1.1070 N   0  0  0  0  0  0  0  0  0  0  0  0
    2.2840    0.3890    0.6440 C   0  0  0  0  0  0  0  0  0  0  0  0
    3.0170   -0.4270    1.4590 C   0  0  0  0  0  0  0  0  0  0  0  0
    4.0230   -1.2010    0.9210 C   0  0  0  0  0  0  0  0  0  0  0  0
    4.7420   -2.0090    1.7580 O   0  0  0  0  0  0  0  0  0  0  0  0
    4.3280   -1.1840   -0.4520 C   0  0  0  0  0  0  0  0  0  0  0  0
    5.3410   -1.9560   -1.0190 C   0  0  0  0  0  0  0  0  0  0  0  0
    5.2640   -1.5280   -2.7390 S   0  0  0  0  0  0  0  0  0  0  0  0
    3.9290   -0.3800   -2.6140 C   0  0  0  0  0  0  0  0  0  0  0  0
    3.3770    0.3160   -3.6230 F   0  0  0  0  0  0  0  0  0  0  0  0
    3.6280   -0.3970   -1.2660 C   0  0  0  0  0  0  0  0  0  0  0  0
    2.6030    0.3900   -0.7090 C   0  0  0  0  0  0  0  0  0  0  0  0
   -2.6110    1.6110   -0.5100 C   0  0  0  0  0  0  0  0  0  0  0  0
   -3.2590    0.5180   -1.0810 C   0  0  0  0  0  0  0  0  0  0  0  0
   -4.0100    0.6240   -2.2430 O   0  0  0  0  0  0  0  0  0  0  0  0
   -4.1290    1.8640   -2.8750 C   0  0  0  0  0  0  0  0  0  0  0  0
  1  2  1  0
  2  3  1  0
  3  4  2  0
  3 24  1  0
  4  5  1  0
  5  6  2  0
  6  7  1  0
  6 23  1  0
  7  8  1  0
  8  9  1  0
  9 10  2  0
  9 11  1  0
 11 12  1  0
 12 13  1  0
 12 22  2  0
 13 14  2  0
 14 15  1  0
 14 16  1  0
 16 17  2  0
 16 21  1  0
 17 18  1  0
 18 19  1  0
 19 20  1  0
 19 21  2  0
 21 22  1  0
 23 24  2  0
 24 25  1  0
 25 26  1  0
M  END
