
     RDKit          3D

 23 25  0  0  0  0  0  0  0  0999 V2000
    7.4700    1.0060   -0.5690 C   0  0  0  0  0  0  0  0  0  0  0  0
    6.3740    2.0270   -0.4510 C   0  0  0  0  0  0  0  0  0  0  0  0
    5.3800    1.7970   -1.5730 C   0  0  0  0  0  0  0  0  0  0  0  0
    4.8280    0.3970   -1.4210 C   0  0  0  0  0  0  0  0  0  0  0  0
    3.8220    0.0780   -2.5040 C   0  0  0  0  0  0  0  0  0  0  0  0
    3.2710   -1.3160   -2.3590 C   0  0  0  0  0  0  0  0  0  0  0  0
    2.5960   -1.4080   -1.0160 C   0  0  0  0  0  0  0  0  0  0  0  0
    1.3090   -1.6960   -0.8990 C   0  0  0  0  0  0  0  0  0  0  0  0
    0.5650   -1.8070    0.3770 C   0  0  1  0  0  0  0  0  0  0  0  0
    1.4280   -1.3220    1.5220 C   0  0  2  0  0  0  0  0  0  0  0  0
    0.7180   -1.0720    2.7050 O   0  0  0  0  0  0  0  0  0  0  0  0
    0.5050    0.2400    2.3730 C   0  0  1  0  0  0  0  0  0  0  0  0
    1.4450    0.1420    1.2780 C   0  0  2  0  0  0  0  0  0  0  0  0
    0.0540    0.4790    0.9640 C   0  0  1  0  0  0  0  0  0  0  0  0
   -0.5430   -0.7610    0.3300 C   0  0  2  0  0  0  0  0  0  0  0  0
   -1.7360   -1.2940    1.0870 C   0  0  0  0  0  0  0  0  0  0  0  0
   -2.8680   -0.3260    1.0880 C   0  0  0  0  0  0  0  0  0  0  0  0
   -4.0250   -0.6920    0.5550 C   0  0  0  0  0  0  0  0  0  0  0  0
   -5.1610    0.2510    0.5450 C   0  0  0  0  0  0  0  0  0  0  0  0
   -6.3340   -0.3350    1.3100 C   0  0  0  0  0  0  0  0  0  0  0  0
   -7.4960    0.6330    1.2980 C   0  0  0  0  0  0  0  0  0  0  0  0
   -7.9540    0.9290   -0.1170 C   0  0  0  0  0  0  0  0  0  0  0  0
   -8.3680   -0.2210   -0.7790 O   0  0  0  0  0  0  0  0  0  0  0  0
  1  2  1  0
  2  3  1  0
  3  4  1  0
  4  5  1  0
  5  6  1  0
  6  7  1  0
  7  8  2  3
  9  8  1  6
  9 10  1  0
  9 15  1  0
 10 11  1  1
 13 10  1  6
 12 11  1  6
 12 13  1  0
 12 14  1  0
 13 14  1  0
 14 15  1  6
 15 16  1  1
 16 17  1  0
 17 18  2  3
 18 19  1  0
 19 20  1  0
 20 21  1  0
 21 22  1  0
 22 23  1  0
M  END
