
     RDKit          3D

 26 28  0  0  0  0  0  0  0  0999 V2000
   -4.2320   -2.1800   -1.8570 O   0  0  0  0  0  0  0  0  0  0  0  0
   -3.5910   -1.8900   -0.5090 S   0  0  1  0  0  0  0  0  0  0  0  0
   -3.9860   -3.0260    0.3890 O   0  0  0  0  0  0  0  0  0  0  0  0
   -1.9280   -1.7610   -0.7540 N   0  0  0  0  0  0  0  0  0  0  0  0
   -1.1320   -1.4740    0.4060 C   0  0  0  0  0  0  0  0  0  0  0  0
    0.3150   -1.3850    0.0850 C   0  0  0  0  0  0  0  0  0  0  0  0
    0.9840   -2.4370   -0.4720 F   0  0  0  0  0  0  0  0  0  0  0  0
    1.0160   -0.2950    0.3180 C   0  0  0  0  0  0  0  0  0  0  0  0
    2.4270   -0.2260   -0.0080 C   0  0  0  0  0  0  0  0  0  0  0  0
    2.9130   -0.6310   -1.2570 C   0  0  0  0  0  0  0  0  0  0  0  0
    4.2250   -0.5930   -1.5840 C   0  0  0  0  0  0  0  0  0  0  0  0
    5.1780   -0.1370   -0.6680 C   0  0  0  0  0  0  0  0  0  0  0  0
    4.7100    0.2600    0.5610 C   0  0  0  0  0  0  0  0  0  0  0  0
    3.3680    0.2190    0.8850 C   0  0  0  0  0  0  0  0  0  0  0  0
    5.6480    0.7200    1.5730 C   0  0  0  0  0  0  0  0  0  0  0  0
    6.9210    0.7330    1.2590 C   0  0  0  0  0  0  0  0  0  0  0  0
    7.4060    0.3340    0.0270 O   0  0  0  0  0  0  0  0  0  0  0  0
    6.6160   -0.0780   -1.0480 C   0  0  0  0  0  0  0  0  0  0  0  0
   -4.3600   -0.4430    0.0860 C   0  0  0  0  0  0  0  0  0  0  0  0
   -4.3320   -0.2070    1.4410 C   0  0  0  0  0  0  0  0  0  0  0  0
   -4.9480    0.9180    1.9250 C   0  0  0  0  0  0  0  0  0  0  0  0
   -5.5870    1.8050    1.0940 C   0  0  0  0  0  0  0  0  0  0  0  0
   -6.4030    3.2810    1.7200 S   0  0  0  0  0  0  0  0  0  0  0  0
   -5.6240    1.5860   -0.2660 C   0  0  0  0  0  0  0  0  0  0  0  0
   -6.2620    2.4760   -1.0880 O   0  0  0  0  0  0  0  0  0  0  0  0
   -5.0030    0.4490   -0.7630 C   0  0  0  0  0  0  0  0  0  0  0  0
  1  2  2  0
  2  3  2  0
  2  4  1  6
  2 19  1  0
  4  5  1  0
  5  6  1  0
  6  7  1  0
  6  8  2  3
  8  9  1  0
  9 10  2  0
  9 14  1  0
 10 11  1  0
 11 12  2  0
 12 13  1  0
 12 18  1  0
 13 14  2  0
 13 15  1  0
 15 16  2  0
 16 17  1  0
 17 18  1  0
 19 20  2  0
 19 26  1  0
 20 21  1  0
 21 22  2  0
 22 23  1  0
 22 24  1  0
 24 25  1  0
 24 26  2  0
M  END
