
     RDKit          3D

 26 28  0  0  0  0  0  0  0  0999 V2000
   -6.5360    0.7890   -0.9960 C   0  0  0  0  0  0  0  0  0  0  0  0
   -5.6020   -0.1160   -0.2190 C   0  0  0  0  0  0  0  0  0  0  0  0
   -4.3250    0.0580   -0.3530 C   0  0  0  0  0  0  0  0  0  0  0  0
   -3.8820    1.0590   -1.2060 O   0  0  0  0  0  0  0  0  0  0  0  0
   -3.3580   -0.8000    0.4040 C   0  0  0  0  0  0  0  0  0  0  0  0
   -2.0390   -0.6270    0.4830 C   0  0  0  0  0  0  0  0  0  0  0  0
   -1.3280   -1.3910    1.3760 C   0  0  0  0  0  0  0  0  0  0  0  0
    0.0670   -1.0320    1.8040 C   0  0  0  0  0  0  0  0  0  0  0  0
    0.4720   -1.3620    2.9560 O   0  0  0  0  0  0  0  0  0  0  0  0
    0.9080   -0.3230    0.9570 N   0  0  0  0  0  0  0  0  0  0  0  0
    1.7590    0.7360    1.4610 C   0  0  0  0  0  0  0  0  0  0  0  0
    1.7260    0.9630    2.6780 O   0  0  0  0  0  0  0  0  0  0  0  0
    2.6020    1.5390    0.5830 C   0  0  0  0  0  0  0  0  0  0  0  0
    2.9180    3.2860    0.8380 S   0  0  0  0  0  0  0  0  0  0  0  0
    4.1770    3.4310   -0.3700 C   0  0  0  0  0  0  0  0  0  0  0  0
    4.2940    2.1490   -0.9030 C   0  0  0  0  0  0  0  0  0  0  0  0
    3.4760    1.2320   -0.3720 C   0  0  0  0  0  0  0  0  0  0  0  0
    3.6690   -0.2620   -0.7660 C   0  0  0  0  0  0  0  0  0  0  0  0
    4.9170   -0.5890   -0.3550 O   0  0  0  0  0  0  0  0  0  0  0  0
    6.0840   -0.0490   -0.5830 C   0  0  0  0  0  0  0  0  0  0  0  0
    7.0810   -0.7870    0.4110 C   0  0  0  0  0  0  0  0  0  0  0  0
    7.0750   -2.1020    0.1150 F   0  0  0  0  0  0  0  0  0  0  0  0
   -2.5440   -2.3760    2.0990 S   0  0  0  0  0  0  0  0  0  0  0  0
   -3.9520   -1.7340    1.1930 C   0  0  0  0  0  0  0  0  0  0  0  0
   -5.3590   -2.0870    1.2940 C   0  0  0  0  0  0  0  0  0  0  0  0
   -6.2760   -1.1300    0.6390 C   0  0  0  0  0  0  0  0  0  0  0  0
  1  2  1  0
  2  3  2  0
  2 26  1  0
  3  4  1  0
  3  5  1  0
  5  6  1  0
  5 24  2  0
  6  7  2  0
  7  8  1  0
  7 23  1  0
  8  9  2  0
  8 10  1  0
 10 11  1  0
 11 12  2  0
 11 13  1  0
 13 14  1  0
 13 17  2  0
 14 15  1  0
 15 16  2  0
 16 17  1  0
 17 18  1  0
 18 19  1  0
 19 20  1  0
 20 21  1  0
 21 22  1  0
 23 24  1  0
 24 25  1  0
 25 26  1  0
M  END
