
     RDKit          3D

 26 28  0  0  0  0  0  0  0  0999 V2000
   -4.6080    3.2310   -1.3190 C   0  0  0  0  0  0  0  0  0  0  0  0
   -4.7780    1.9080   -0.8530 O   0  0  0  0  0  0  0  0  0  0  0  0
   -3.6650    1.0960   -0.4960 C   0  0  0  0  0  0  0  0  0  0  0  0
   -2.5810    1.6860   -0.6450 O   0  0  0  0  0  0  0  0  0  0  0  0
   -3.8740   -0.2530   -0.0220 C   0  0  0  0  0  0  0  0  0  0  0  0
   -2.8590   -1.1020    0.3420 C   0  0  0  0  0  0  0  0  0  0  0  0
   -1.5220   -0.6920    0.2730 N   0  0  0  0  0  0  0  0  0  0  0  0
   -0.3740   -1.4480    0.6120 C   0  0  0  0  0  0  0  0  0  0  0  0
   -0.4610   -2.6080    1.0240 O   0  0  0  0  0  0  0  0  0  0  0  0
    0.9780   -0.8740    0.4840 C   0  0  0  0  0  0  0  0  0  0  0  0
    1.3910    0.3210    0.0780 C   0  0  0  0  0  0  0  0  0  0  0  0
    2.7200    0.5910    0.0590 C   0  0  0  0  0  0  0  0  0  0  0  0
    3.5790   -0.3580    0.4500 C   0  0  0  0  0  0  0  0  0  0  0  0
    5.0190   -0.4870    0.5820 C   0  0  0  0  0  0  0  0  0  0  0  0
    5.8170   -1.9750    1.1560 S   0  0  0  0  0  0  0  0  0  0  0  0
    7.5000   -1.3380    1.0300 C   0  0  0  0  0  0  0  0  0  0  0  0
    7.2940   -0.0660    0.5680 C   0  0  0  0  0  0  0  0  0  0  0  0
    6.0220    0.3490    0.3460 C   0  0  0  0  0  0  0  0  0  0  0  0
    5.7320    1.7650   -0.1710 C   0  0  0  0  0  0  0  0  0  0  0  0
    2.4680   -1.6990    0.8680 S   0  0  0  0  0  0  0  0  0  0  0  0
   -3.2490   -2.3650    0.7740 C   0  0  0  0  0  0  0  0  0  0  0  0
   -4.5590   -2.7870    0.8490 C   0  0  0  0  0  0  0  0  0  0  0  0
   -5.5500   -1.9160    0.4780 C   0  0  0  0  0  0  0  0  0  0  0  0
   -6.8460   -2.3470    0.5570 F   0  0  0  0  0  0  0  0  0  0  0  0
   -5.2220   -0.6600    0.0450 C   0  0  0  0  0  0  0  0  0  0  0  0
   -6.2360    0.1990   -0.3230 O   0  0  0  0  0  0  0  0  0  0  0  0
  1  2  1  0
  2  3  1  0
  3  4  2  0
  3  5  1  0
  5  6  2  0
  5 25  1  0
  6  7  1  0
  6 21  1  0
  7  8  1  0
  8  9  2  0
  8 10  1  0
 10 11  2  0
 10 20  1  0
 11 12  1  0
 12 13  2  0
 13 14  1  0
 13 20  1  0
 14 15  1  0
 14 18  2  0
 15 16  1  0
 16 17  2  0
 17 18  1  0
 18 19  1  0
 21 22  2  0
 22 23  1  0
 23 24  1  0
 23 25  2  0
 25 26  1  0
M  END
