
     RDKit          3D

 30 31  0  0  0  0  0  0  0  0999 V2000
   -5.4880   -2.8640    1.4150 C   0  0  0  0  0  0  0  0  0  0  0  0
   -4.3430   -2.4960    0.4950 C   0  0  0  0  0  0  0  0  0  0  0  0
   -4.3490   -1.0690    0.1260 C   0  0  0  0  0  0  0  0  0  0  0  0
   -4.4520   -0.7420   -1.1540 C   0  0  0  0  0  0  0  0  0  0  0  0
   -4.5560   -1.8010   -2.1640 C   0  0  0  0  0  0  0  0  0  0  0  0
   -4.4500    0.7190   -1.4560 C   0  0  0  0  0  0  0  0  0  0  0  0
   -3.3250    1.4200   -0.7240 C   0  0  0  0  0  0  0  0  0  0  0  0
   -3.1380    0.9650    0.6890 C   0  0  2  0  0  0  0  0  0  0  0  0
   -1.7830    0.3640    0.8280 C   0  0  0  0  0  0  0  0  0  0  0  0
   -0.7620    1.4320    0.4780 C   0  0  0  0  0  0  0  0  0  0  0  0
   -1.2020    2.5510    0.1770 O   0  0  0  0  0  0  0  0  0  0  0  0
    0.6090    1.1390    0.5020 N   0  0  0  0  0  0  0  0  0  0  0  0
    1.6800    1.9980    0.2140 C   0  0  0  0  0  0  0  0  0  0  0  0
    1.4920    3.2770   -0.0470 C   0  0  0  0  0  0  0  0  0  0  0  0
    2.4310    4.3700   -0.3730 C   0  0  0  0  0  0  0  0  0  0  0  0
    3.7270    4.4100   -0.2190 C   0  0  0  0  0  0  0  0  0  0  0  0
    4.3880    5.6730   -0.6520 C   0  0  0  0  0  0  0  0  0  0  0  0
    4.6010    3.4070    0.3030 N   0  0  0  0  0  0  0  0  0  0  0  0
    4.2620    2.0580    0.6180 C   0  0  0  0  0  0  0  0  0  0  0  0
    5.0820    1.4110    1.2970 O   0  0  0  0  0  0  0  0  0  0  0  0
    3.0280    1.3740    0.2070 C   0  0  0  0  0  0  0  0  0  0  0  0
    3.1110    0.1340   -0.1870 C   0  0  0  0  0  0  0  0  0  0  0  0
    4.3000   -0.6560   -0.2740 C   0  0  0  0  0  0  0  0  0  0  0  0
    4.2090   -1.9200   -0.6940 C   0  0  0  0  0  0  0  0  0  0  0  0
    5.3910   -2.6950   -0.7780 N   0  0  0  0  0  0  0  0  0  0  0  0
    5.2890   -3.9700   -0.5850 C   0  0  0  0  0  0  0  0  0  0  0  0
    4.0460   -4.5910   -0.2970 N   0  0  0  0  0  0  0  0  0  0  0  0
    6.4640   -4.7650   -0.6640 N   0  0  0  0  0  0  0  0  0  0  0  0
   -4.2500    0.0580    1.0880 C   0  0  2  0  0  0  0  0  0  0  0  0
   -4.1390   -0.4240    2.5140 C   0  0  0  0  0  0  0  0  0  0  0  0
  1  2  1  0
  2  3  1  0
  3  4  2  0
  3 29  1  0
  4  5  1  0
  4  6  1  0
  6  7  1  0
  7  8  1  0
  8  9  1  6
  8 29  1  0
  9 10  1  0
 10 11  2  0
 10 12  1  0
 12 13  1  0
 13 14  2  0
 13 21  1  0
 14 15  1  0
 15 16  2  0
 16 17  1  0
 16 18  1  0
 18 19  1  0
 19 20  2  0
 19 21  1  0
 21 22  2  3
 22 23  1  0
 23 24  2  3
 24 25  1  0
 25 26  2  3
 26 27  1  0
 26 28  1  0
 29 30  1  1
M  CHG  1  25   1
M  END
