
     RDKit          3D

 29 31  0  0  0  0  0  0  0  0999 V2000
    4.3680    0.4360    1.3980 O   0  0  0  0  0  0  0  0  0  0  0  0
    4.9360   -0.4000    0.6920 C   0  0  0  0  0  0  0  0  0  0  0  0
    4.2660   -1.7330    0.4910 C   0  0  0  0  0  0  0  0  0  0  0  0
    3.2560   -1.6470   -0.5330 N   0  0  0  0  0  0  0  0  0  0  0  0
    3.4130   -1.8130   -1.8570 C   0  0  0  0  0  0  0  0  0  0  0  0
    4.5300   -2.0680   -2.3620 O   0  0  0  0  0  0  0  0  0  0  0  0
    2.2520   -1.6660   -2.4770 O   0  0  0  0  0  0  0  0  0  0  0  0
    1.2980   -1.4040   -1.6130 C   0  0  0  0  0  0  0  0  0  0  0  0
   -0.0510   -1.1710   -1.7230 C   0  0  0  0  0  0  0  0  0  0  0  0
   -0.8470   -0.9130   -0.5870 C   0  0  0  0  0  0  0  0  0  0  0  0
   -2.2310   -0.6620   -0.7760 N   0  0  0  0  0  0  0  0  0  0  0  0
   -3.2280   -0.7890    0.2040 C   0  0  0  0  0  0  0  0  0  0  0  0
   -2.9210   -1.1530    1.3600 O   0  0  0  0  0  0  0  0  0  0  0  0
   -4.6400   -0.4890   -0.1440 C   0  0  0  0  0  0  0  0  0  0  0  0
   -4.8830   -0.0910   -1.2930 O   0  0  0  0  0  0  0  0  0  0  0  0
   -5.6700   -0.6530    0.8010 N   0  0  0  0  0  0  0  0  0  0  0  0
   -7.0490   -0.3960    0.6330 C   0  0  0  0  0  0  0  0  0  0  0  0
   -7.5430    0.9920    0.4680 C   0  0  0  0  0  0  0  0  0  0  0  0
   -7.0310    1.7930   -0.6800 C   0  0  0  0  0  0  0  0  0  0  0  0
   -7.6500    3.0600   -0.6950 F   0  0  0  0  0  0  0  0  0  0  0  0
   -0.2020   -0.9050    0.6300 C   0  0  0  0  0  0  0  0  0  0  0  0
    1.1750   -1.1410    0.7300 C   0  0  0  0  0  0  0  0  0  0  0  0
    1.9230   -1.3890   -0.3720 C   0  0  0  0  0  0  0  0  0  0  0  0
    6.1900   -0.1210    0.0850 N   0  0  0  0  0  0  0  0  0  0  0  0
    6.8040    1.1400    0.2860 C   0  0  0  0  0  0  0  0  0  0  0  0
    7.7880    1.7330   -0.0190 N   0  0  0  0  0  0  0  0  0  0  0  0
    8.1880    2.9200    0.2690 C   0  0  0  0  0  0  0  0  0  0  0  0
    7.3540    3.6990    1.0850 C   0  0  0  0  0  0  0  0  0  0  0  0
    5.9720    2.4600    1.3350 S   0  0  0  0  0  0  0  0  0  0  0  0
  1  2  2  0
  2  3  1  0
  2 24  1  0
  3  4  1  0
  4  5  1  0
  4 23  1  0
  5  6  2  0
  5  7  1  0
  7  8  1  0
  8  9  2  0
  8 23  1  0
  9 10  1  0
 10 11  1  0
 10 21  2  0
 11 12  1  0
 12 13  2  0
 12 14  1  0
 14 15  2  0
 14 16  1  0
 16 17  1  0
 17 18  1  0
 18 19  1  0
 19 20  1  0
 21 22  1  0
 22 23  2  0
 24 25  1  0
 25 26  2  0
 25 29  1  0
 26 27  1  0
 27 28  2  0
 28 29  1  0
M  END
