
     RDKit          3D

 30 32  0  0  0  0  0  0  0  0999 V2000
    4.3620    0.5290   -2.2770 C   0  0  0  0  0  0  0  0  0  0  0  0
    4.7940    0.1850   -0.9000 C   0  0  0  0  0  0  0  0  0  0  0  0
    5.8500   -0.6820   -0.7900 C   0  0  0  0  0  0  0  0  0  0  0  0
    6.2900   -1.0150    0.4820 C   0  0  0  0  0  0  0  0  0  0  0  0
    5.6710   -0.4800    1.5910 C   0  0  0  0  0  0  0  0  0  0  0  0
    4.6070    0.3940    1.4960 C   0  0  0  0  0  0  0  0  0  0  0  0
    4.0280    0.9400    2.7250 C   0  0  0  0  0  0  0  0  0  0  0  0
    4.1660    0.7260    0.2160 C   0  0  0  0  0  0  0  0  0  0  0  0
    3.1140    1.5900    0.1250 O   0  0  0  0  0  0  0  0  0  0  0  0
    1.7800    1.3030   -0.0520 C   0  0  0  0  0  0  0  0  0  0  0  0
    1.2510    1.4250   -1.3380 C   0  0  0  0  0  0  0  0  0  0  0  0
   -0.0600    1.1510   -1.5710 C   0  0  0  0  0  0  0  0  0  0  0  0
   -0.8900    0.7460   -0.5180 C   0  0  0  0  0  0  0  0  0  0  0  0
   -2.2980    0.4550   -0.8160 C   0  0  2  0  0  0  0  0  0  0  0  0
   -3.3400    1.1550   -0.0190 C   0  0  0  0  0  0  0  0  0  0  0  0
   -3.4330    2.6330   -0.0570 C   0  0  0  0  0  0  0  0  0  0  0  0
   -2.2280    3.3190    0.4610 C   0  0  0  0  0  0  0  0  0  0  0  0
   -2.4020    4.7870    0.4530 N   0  0  0  0  0  0  0  0  0  0  0  0
   -2.4720   -0.9790   -0.4750 N   0  0  0  0  0  0  0  0  0  0  0  0
   -3.2640   -1.7170   -1.1280 C   0  0  0  0  0  0  0  0  0  0  0  0
   -3.4720   -3.1150   -0.8400 C   0  0  0  0  0  0  0  0  0  0  0  0
   -4.3250   -3.8100   -1.5810 N   0  0  0  0  0  0  0  0  0  0  0  0
   -4.3890   -5.1240   -1.1550 N   0  0  0  0  0  0  0  0  0  0  0  0
   -3.5220   -5.3150   -0.0600 C   0  0  0  0  0  0  0  0  0  0  0  0
   -3.2710   -6.3230    0.6200 O   0  0  0  0  0  0  0  0  0  0  0  0
   -2.8990   -3.9750    0.1640 C   0  0  0  0  0  0  0  0  0  0  0  0
   -2.0330   -3.7480    1.0990 C   0  0  0  0  0  0  0  0  0  0  0  0
   -1.4220   -2.5110    1.3500 N   0  0  0  0  0  0  0  0  0  0  0  0
   -0.3480    0.6330    0.7450 C   0  0  0  0  0  0  0  0  0  0  0  0
    0.9840    0.9060    1.0020 C   0  0  0  0  0  0  0  0  0  0  0  0
  1  2  1  0
  2  3  2  0
  2  8  1  0
  3  4  1  0
  4  5  2  0
  5  6  1  0
  6  7  1  0
  6  8  2  0
  8  9  1  0
  9 10  1  0
 10 11  2  0
 10 30  1  0
 11 12  1  0
 12 13  2  0
 13 14  1  0
 13 29  1  0
 14 15  1  1
 14 19  1  0
 15 16  1  0
 16 17  1  0
 17 18  1  0
 19 20  2  3
 20 21  1  0
 21 22  2  0
 21 26  1  0
 22 23  1  0
 23 24  1  0
 24 25  2  0
 24 26  1  0
 26 27  2  3
 27 28  1  0
 29 30  2  0
M  CHG  2  18   1  22   1
M  END
