
     RDKit          3D

 30 31  0  0  0  0  0  0  0  0999 V2000
   -5.3290    1.7660   -3.7910 N   0  0  0  0  0  0  0  0  0  0  0  0
   -6.0210    2.0820   -2.2550 S   0  0  1  0  0  0  0  0  0  0  0  0
   -5.8120    3.5270   -1.9230 O   0  0  0  0  0  0  0  0  0  0  0  0
   -7.4870    1.7440   -2.3560 O   0  0  0  0  0  0  0  0  0  0  0  0
   -5.2560    1.0880   -0.9950 C   0  0  0  0  0  0  0  0  0  0  0  0
   -4.3920    1.0360   -0.2230 N   0  0  0  0  0  0  0  0  0  0  0  0
   -4.1420    0.0580    0.5940 N   0  0  0  0  0  0  0  0  0  0  0  0
   -4.7480   -0.9240    0.6800 C   0  0  0  0  0  0  0  0  0  0  0  0
   -4.7980   -2.1630    1.4020 N   0  0  0  0  0  0  0  0  0  0  0  0
   -3.6100   -2.4610    2.6010 S   0  0  2  0  0  0  0  0  0  0  0  0
   -3.9200   -3.7710    3.2700 O   0  0  0  0  0  0  0  0  0  0  0  0
   -3.6820   -1.4150    3.6810 O   0  0  0  0  0  0  0  0  0  0  0  0
   -1.9940   -2.4900    1.9100 C   0  0  0  0  0  0  0  0  0  0  0  0
   -1.4780   -3.6840    1.4530 C   0  0  0  0  0  0  0  0  0  0  0  0
   -0.2020   -3.7540    0.8980 C   0  0  0  0  0  0  0  0  0  0  0  0
    0.5270   -2.5780    0.8230 C   0  0  0  0  0  0  0  0  0  0  0  0
    0.0480   -1.3650    1.2680 C   0  0  0  0  0  0  0  0  0  0  0  0
    0.8330   -0.1370    1.1800 C   0  0  0  0  0  0  0  0  0  0  0  0
    0.3310    0.9350    1.6060 O   0  0  0  0  0  0  0  0  0  0  0  0
    2.0950   -0.0760    0.6570 O   0  0  0  0  0  0  0  0  0  0  0  0
    2.8660    1.0980    0.5630 C   0  0  0  0  0  0  0  0  0  0  0  0
    4.2070    0.8950   -0.0450 C   0  0  0  0  0  0  0  0  0  0  0  0
    4.9200    2.2300   -0.0820 C   0  0  0  0  0  0  0  0  0  0  0  0
    6.3100    2.0810   -0.7010 C   0  0  0  0  0  0  0  0  0  0  0  0
    6.1780    1.5840   -2.0380 O   0  0  0  0  0  0  0  0  0  0  0  0
    7.2580    1.3520   -2.8350 N   0  0  0  0  0  0  0  0  0  0  0  0
    7.7180    0.2090   -2.9390 O   0  0  0  0  0  0  0  0  0  0  0  0
    7.8710    2.3570   -3.5420 O   0  0  0  0  0  0  0  0  0  0  0  0
   -1.2200   -1.3530    1.8080 C   0  0  0  0  0  0  0  0  0  0  0  0
   -6.0680   -0.6140   -0.6400 S   0  0  0  0  0  0  0  0  0  0  0  0
  2  1  1  6
  2  3  2  0
  2  4  2  0
  2  5  1  0
  5  6  2  0
  5 30  1  0
  6  7  1  0
  7  8  2  0
  8  9  1  0
  8 30  1  0
 10  9  1  6
 10 11  2  0
 10 12  2  0
 10 13  1  0
 13 14  2  0
 13 29  1  0
 14 15  1  0
 15 16  2  0
 16 17  1  0
 17 18  1  0
 17 29  2  0
 18 19  2  0
 18 20  1  0
 20 21  1  0
 21 22  1  0
 22 23  1  0
 23 24  1  0
 24 25  1  0
 25 26  1  0
 26 27  2  0
 26 28  1  0
M  CHG  2  26   1  28  -1
M  END
