
     RDKit          3D

 30 32  0  0  0  0  0  0  0  0999 V2000
   -8.2680   -1.3680    0.5080 C   0  0  0  0  0  0  0  0  0  0  0  0
   -6.7670   -1.2210    0.4240 C   0  0  0  0  0  0  0  0  0  0  0  0
   -6.2060   -0.9060    1.7930 C   0  0  0  0  0  0  0  0  0  0  0  0
   -4.7190   -0.7470    1.7810 C   0  0  1  0  0  0  0  0  0  0  0  0
   -4.0070   -1.9970    1.3080 C   0  0  0  0  0  0  0  0  0  0  0  0
   -3.7000   -1.7450   -0.0840 N   0  0  0  0  0  0  0  0  0  0  0  0
   -3.8980   -0.5120   -0.4060 C   0  0  0  0  0  0  0  0  0  0  0  0
   -3.6870    0.1050   -1.7500 C   0  0  0  0  0  0  0  0  0  0  0  0
   -2.7110    1.1730   -1.6340 N   0  0  0  0  0  0  0  0  0  0  0  0
   -2.4710    1.7940   -2.8980 C   0  0  0  0  0  0  0  0  0  0  0  0
   -1.1630    2.5390   -2.6590 C   0  0  0  0  0  0  0  0  0  0  0  0
   -0.4140    1.5640   -1.8430 C   0  0  0  0  0  0  0  0  0  0  0  0
    0.9080    1.5330   -1.6950 C   0  0  0  0  0  0  0  0  0  0  0  0
    1.7260    2.5070   -2.3640 C   0  0  0  0  0  0  0  0  0  0  0  0
    2.9700    2.7290   -2.4180 C   0  0  0  0  0  0  0  0  0  0  0  0
    4.1000    2.0960   -1.8280 C   0  0  0  0  0  0  0  0  0  0  0  0
    5.2890    2.5990   -2.1080 O   0  0  0  0  0  0  0  0  0  0  0  0
    4.1820    0.9930   -0.9710 N   0  0  0  0  0  0  0  0  0  0  0  0
    5.3950    0.4150   -0.4360 C   0  0  0  0  0  0  0  0  0  0  0  0
    6.5600    0.4960   -1.1260 C   0  0  0  0  0  0  0  0  0  0  0  0
    7.6920   -0.0590   -0.5250 C   0  0  0  0  0  0  0  0  0  0  0  0
    7.6060   -0.6640    0.7230 C   0  0  0  0  0  0  0  0  0  0  0  0
    6.4350   -0.7480    1.4190 C   0  0  0  0  0  0  0  0  0  0  0  0
    6.2850   -1.3420    2.7010 N   0  0  0  0  0  0  0  0  0  0  0  0
    7.3400   -1.7930    3.5020 C   0  0  0  0  0  0  0  0  0  0  0  0
    7.0500   -2.3770    4.7720 N   0  0  0  0  0  0  0  0  0  0  0  0
    8.5280   -1.7190    3.1760 O   0  0  0  0  0  0  0  0  0  0  0  0
    5.3150   -0.1900    0.8110 C   0  0  0  0  0  0  0  0  0  0  0  0
   -1.4140    0.6570   -1.2410 C   0  0  0  0  0  0  0  0  0  0  0  0
   -4.3590    0.1870    0.7390 N   0  0  0  0  0  0  0  0  0  0  0  0
  1  2  1  0
  2  3  1  0
  4  3  1  6
  4  5  1  0
  4 30  1  0
  5  6  1  0
  6  7  2  0
  7  8  1  0
  7 30  1  0
  8  9  1  0
  9 10  1  0
  9 29  1  0
 10 11  1  0
 11 12  1  0
 12 13  2  3
 12 29  1  0
 13 14  1  0
 14 15  2  3
 15 16  1  0
 16 17  2  0
 16 18  1  0
 18 19  1  0
 19 20  2  0
 19 28  1  0
 20 21  1  0
 21 22  2  0
 22 23  1  0
 23 24  1  0
 23 28  2  0
 24 25  1  0
 25 26  1  0
 25 27  2  0
M  CHG  1   6   1
M  END
