
     RDKit          3D

 30 32  0  0  0  0  0  0  0  0999 V2000
   -7.3790   -0.7140   -1.4040 C   0  0  0  0  0  0  0  0  0  0  0  0
   -6.0160   -0.5820   -2.0000 C   0  0  0  0  0  0  0  0  0  0  0  0
   -5.1550    0.4040   -1.2880 C   0  0  0  0  0  0  0  0  0  0  0  0
   -4.1490   -0.0810   -0.4420 C   0  0  0  0  0  0  0  0  0  0  0  0
   -3.3210    0.7630    0.2430 C   0  0  0  0  0  0  0  0  0  0  0  0
   -3.4770    2.1360    0.1040 C   0  0  0  0  0  0  0  0  0  0  0  0
   -4.4670    2.6060   -0.7310 C   0  0  0  0  0  0  0  0  0  0  0  0
   -5.2980    1.7530   -1.4210 C   0  0  0  0  0  0  0  0  0  0  0  0
   -6.3040    2.2390   -2.2690 O   0  0  0  0  0  0  0  0  0  0  0  0
   -2.7210    3.1600    0.8780 C   0  0  0  0  0  0  0  0  0  0  0  0
   -2.0540    2.5020    2.1260 C   0  0  0  0  0  0  0  0  0  0  0  0
   -1.3770    1.3280    1.5710 N   0  0  0  0  0  0  0  0  0  0  0  0
    0.0340    1.2680    1.5310 C   0  0  0  0  0  0  0  0  0  0  0  0
    0.6680    2.1320    2.2310 O   0  0  0  0  0  0  0  0  0  0  0  0
    0.8210    0.3640    0.7880 N   0  0  0  0  0  0  0  0  0  0  0  0
    2.2290    0.2630    0.7280 C   0  0  0  0  0  0  0  0  0  0  0  0
    3.0840    1.0180    1.3660 C   0  0  0  0  0  0  0  0  0  0  0  0
    4.5670    0.9130    1.3050 C   0  0  0  0  0  0  0  0  0  0  0  0
    5.0960   -0.1500    0.4290 C   0  0  2  0  0  0  0  0  0  0  0  0
    6.0690    0.3910   -0.5060 N   0  0  0  0  0  0  0  0  0  0  0  0
    5.4470    1.2850   -1.4640 C   0  0  0  0  0  0  0  0  0  0  0  0
    4.0840   -0.9600   -0.2540 C   0  0  0  0  0  0  0  0  0  0  0  0
    4.4900   -2.0220   -1.1210 N   0  0  0  0  0  0  0  0  0  0  0  0
    4.5280   -1.7930   -2.5370 C   0  0  0  0  0  0  0  0  0  0  0  0
    4.8560   -3.3050   -0.5890 C   0  0  0  0  0  0  0  0  0  0  0  0
    2.8000   -0.7790   -0.1240 C   0  0  0  0  0  0  0  0  0  0  0  0
   -2.1730    0.2840    1.0640 C   0  0  0  0  0  0  0  0  0  0  0  0
   -2.0080   -0.9750    1.2670 C   0  0  0  0  0  0  0  0  0  0  0  0
   -0.9520   -1.6700    2.0640 C   0  0  0  0  0  0  0  0  0  0  0  0
   -1.6600   -2.4920    3.0760 N   0  0  0  0  0  0  0  0  0  0  0  0
  1  2  1  0
  2  3  1  0
  3  4  2  0
  3  8  1  0
  4  5  1  0
  5  6  2  0
  5 27  1  0
  6  7  1  0
  6 10  1  0
  7  8  2  0
  8  9  1  0
 10 11  1  0
 11 12  1  0
 12 13  1  0
 12 27  1  0
 13 14  2  0
 13 15  1  0
 15 16  1  0
 16 17  2  0
 16 26  1  0
 17 18  1  0
 18 19  1  0
 19 20  1  6
 19 22  1  0
 20 21  1  0
 22 23  1  0
 22 26  2  0
 23 24  1  0
 23 25  1  0
 27 28  2  3
 28 29  1  0
 29 30  1  0
M  CHG  2  20   1  30   1
M  END
