
     RDKit          3D

 29 30  0  0  0  0  0  0  0  0999 V2000
    6.4090    0.5730    0.3460 C   0  0  0  0  0  0  0  0  0  0  0  0
    6.5100   -0.6920    0.2590 C   0  0  0  0  0  0  0  0  0  0  0  0
    5.5810   -1.7250    0.0070 C   0  0  0  0  0  0  0  0  0  0  0  0
    4.1930   -1.7540   -0.2450 C   0  0  0  0  0  0  0  0  0  0  0  0
    3.2210   -0.9390   -0.3430 C   0  0  0  0  0  0  0  0  0  0  0  0
    3.1110    0.8090   -0.1960 S   0  0  0  0  0  0  0  0  0  0  0  0
    3.0130    1.3600    1.5030 C   0  0  0  0  0  0  0  0  0  0  0  0
    1.7310    1.0460    2.2160 C   0  0  0  0  0  0  0  0  0  0  0  0
    0.5590    1.6540    1.6570 N   0  0  0  0  0  0  0  0  0  0  0  0
    0.2550    2.9050    2.1120 C   0  0  0  0  0  0  0  0  0  0  0  0
    0.9780    3.4820    2.9640 O   0  0  0  0  0  0  0  0  0  0  0  0
   -0.8430    3.4860    1.6110 N   0  0  0  0  0  0  0  0  0  0  0  0
   -1.6110    2.8630    0.7010 C   0  0  0  0  0  0  0  0  0  0  0  0
   -2.6540    3.3970    0.2160 O   0  0  0  0  0  0  0  0  0  0  0  0
   -1.3040    1.6310    0.2590 N   0  0  0  0  0  0  0  0  0  0  0  0
   -2.1210    0.9510   -0.7190 C   0  0  0  0  0  0  0  0  0  0  0  0
   -3.1190    0.1960   -0.0090 N   0  0  0  0  0  0  0  0  0  0  0  0
   -4.0510   -0.5650   -0.7700 C   0  0  0  0  0  0  0  0  0  0  0  0
   -4.8240    0.1360   -1.5940 C   0  0  0  0  0  0  0  0  0  0  0  0
   -5.8520   -0.3540   -2.4840 C   0  0  0  0  0  0  0  0  0  0  0  0
   -6.4710   -1.5130   -2.4000 C   0  0  0  0  0  0  0  0  0  0  0  0
   -6.3850   -2.6600   -1.4730 C   0  0  0  0  0  0  0  0  0  0  0  0
   -5.0960   -2.8600   -0.9310 O   0  0  0  0  0  0  0  0  0  0  0  0
   -4.0780   -2.0100   -0.5850 C   0  0  0  0  0  0  0  0  0  0  0  0
   -3.0320   -2.4850   -0.0460 O   0  0  0  0  0  0  0  0  0  0  0  0
   -0.1880    1.0170    0.7550 C   0  0  0  0  0  0  0  0  0  0  0  0
    0.0550   -0.1150    0.3220 O   0  0  0  0  0  0  0  0  0  0  0  0
    6.2000   -3.0000    0.0070 C   0  0  0  0  0  0  0  0  0  0  0  0
    7.5020   -3.1140    0.2260 F   0  0  0  0  0  0  0  0  0  0  0  0
  1  2  2  0
  2  3  1  0
  3  4  1  0
  3 28  2  3
  4  5  2  3
  5  6  1  0
  6  7  1  0
  7  8  1  0
  8  9  1  0
  9 10  1  0
  9 26  1  0
 10 11  2  0
 10 12  1  0
 12 13  1  0
 13 14  2  0
 13 15  1  0
 15 16  1  0
 15 26  1  0
 16 17  1  0
 17 18  1  0
 18 19  2  0
 18 24  1  0
 19 20  1  0
 20 21  2  0
 21 22  1  0
 22 23  1  0
 23 24  1  0
 24 25  2  0
 26 27  2  0
 28 29  1  0
M  END
