
     RDKit          3D

 12 11  0  0  0  0  0  0  0  0999 V2000
    2.8050    0.1690   -1.6910 C   0  0  0  0  0  0  0  0  0  0  0  0
    3.1370   -0.5230   -0.5660 O   0  0  0  0  0  0  0  0  0  0  0  0
    2.6730   -0.0940    0.6280 C   0  0  0  0  0  0  0  0  0  0  0  0
    1.2150   -0.1210    0.9060 C   0  0  1  0  0  0  0  0  0  0  0  0
    0.9960    0.4210    2.1970 O   0  0  0  0  0  0  0  0  0  0  0  0
    0.4120    0.4250   -0.0340 O   0  0  0  0  0  0  0  0  0  0  0  0
   -0.6310   -0.3830   -0.4550 C   0  0  2  0  0  0  0  0  0  0  0  0
   -0.7490   -0.6350   -1.7780 O   0  0  0  0  0  0  0  0  0  0  0  0
   -1.8930    0.2610    0.1340 C   0  0  1  0  0  0  0  0  0  0  0  0
   -1.9930    1.5340   -0.3580 O   0  0  0  0  0  0  0  0  0  0  0  0
   -3.0930   -0.6000   -0.1970 C   0  0  0  0  0  0  0  0  0  0  0  0
   -4.2220   -0.0110    0.3530 O   0  0  0  0  0  0  0  0  0  0  0  0
  1  2  1  0
  2  3  1  0
  3  4  1  0
  4  5  1  1
  4  6  1  0
  6  7  1  0
  7  8  1  6
  7  9  1  0
  9 10  1  6
  9 11  1  0
 11 12  1  0
M  END
