
     RDKit          3D

 12 12  0  0  0  0  0  0  0  0999 V2000
    3.7800    0.8740   -0.1180 O   0  0  0  0  0  0  0  0  0  0  0  0
    3.1530    0.2050    0.9170 C   0  0  0  0  0  0  0  0  0  0  0  0
    1.7680    0.3170    0.8250 O   0  0  0  0  0  0  0  0  0  0  0  0
    1.3720   -0.2270   -0.3690 C   0  0  0  0  0  0  0  0  0  0  0  0
   -0.1190   -0.1650   -0.5870 C   0  0  1  0  0  0  0  0  0  0  0  0
   -0.4220   -0.7400   -1.8230 O   0  0  0  0  0  0  0  0  0  0  0  0
   -0.8620   -0.9830    0.4560 C   0  0  0  0  0  0  0  0  0  0  0  0
   -2.2680   -0.4250    0.1850 C   0  0  2  0  0  0  0  0  0  0  0  0
   -2.6580   -0.9310   -1.0460 O   0  0  0  0  0  0  0  0  0  0  0  0
   -1.8730    1.0420    0.1010 C   0  0  2  0  0  0  0  0  0  0  0  0
   -2.8270    1.8260   -0.4880 O   0  0  0  0  0  0  0  0  0  0  0  0
   -0.6320    1.0990   -0.4760 O   0  0  0  0  0  0  0  0  0  0  0  0
  1  2  1  0
  2  3  1  0
  3  4  1  0
  4  5  1  0
  5  6  1  6
  5  7  1  0
  5 12  1  0
  7  8  1  0
  8  9  1  6
  8 10  1  0
 10 11  1  6
 10 12  1  0
M  END
