
     RDKit          3D

 13 12  0  0  0  0  0  0  0  0999 V2000
   -2.4490    0.2240   -1.8890 O   0  0  0  0  0  0  0  0  0  0  0  0
   -3.2520   -0.0690   -1.0010 C   0  0  0  0  0  0  0  0  0  0  0  0
   -4.5280    0.5290   -0.9120 O   0  0  0  0  0  0  0  0  0  0  0  0
   -2.9100   -0.9950   -0.0740 O   0  0  0  0  0  0  0  0  0  0  0  0
   -1.7610   -1.7220    0.1200 C   0  0  0  0  0  0  0  0  0  0  0  0
   -0.5370   -1.1170    0.6190 C   0  0  2  0  0  0  0  0  0  0  0  0
   -0.7350   -0.5630    1.8950 O   0  0  0  0  0  0  0  0  0  0  0  0
    0.3250   -0.2040   -0.1450 C   0  0  1  0  0  0  0  0  0  0  0  0
   -0.1300    1.0910   -0.2220 O   0  0  0  0  0  0  0  0  0  0  0  0
    1.7190   -0.2800    0.4920 C   0  0  0  0  0  0  0  0  0  0  0  0
    2.7110    0.3700   -0.1310 O   0  0  0  0  0  0  0  0  0  0  0  0
    2.6950    1.7110   -0.2760 C   0  0  0  0  0  0  0  0  0  0  0  0
    3.8810    2.0680   -0.9640 O   0  0  0  0  0  0  0  0  0  0  0  0
  1  2  2  0
  2  3  1  0
  2  4  1  0
  4  5  1  0
  5  6  1  0
  6  7  1  1
  6  8  1  0
  8  9  1  1
  8 10  1  0
 10 11  1  0
 11 12  1  0
 12 13  1  0
M  END
