
     RDKit          3D

 20 22  0  0  0  0  0  0  0  0999 V2000
    5.1420    0.3190   -0.7330 N   0  0  0  0  0  0  0  0  0  0  0  0
    3.9650   -0.4940   -0.6400 C   0  0  0  0  0  0  0  0  0  0  0  0
    4.0170   -1.8280   -0.8220 N   0  0  0  0  0  0  0  0  0  0  0  0
    2.8860   -2.5350   -0.7220 C   0  0  0  0  0  0  0  0  0  0  0  0
    1.6960   -1.9860   -0.4490 N   0  0  0  0  0  0  0  0  0  0  0  0
    1.5740   -0.6590   -0.2560 C   0  0  0  0  0  0  0  0  0  0  0  0
    2.7410    0.0890   -0.3560 C   0  0  0  0  0  0  0  0  0  0  0  0
    2.3940    1.3690   -0.1310 N   0  0  0  0  0  0  0  0  0  0  0  0
    1.0490    1.4000    0.1010 C   0  0  0  0  0  0  0  0  0  0  0  0
    0.5560    0.1700    0.0250 N   0  0  0  0  0  0  0  0  0  0  0  0
   -0.8070   -0.2270    0.2040 C   0  0  2  0  0  0  0  0  0  0  0  0
   -1.6790    0.1550   -0.9150 C   0  0  0  0  0  0  0  0  0  0  0  0
   -1.3980    0.1960   -2.2480 F   0  0  0  0  0  0  0  0  0  0  0  0
   -2.8700    0.4830   -0.4390 C   0  0  0  0  0  0  0  0  0  0  0  0
   -4.0650    0.9340   -1.2400 C   0  0  0  0  0  0  0  0  0  0  0  0
   -5.1140    0.0560   -1.0400 O   0  0  0  0  0  0  0  0  0  0  0  0
   -2.8820    0.3620    1.0080 C   0  0  0  0  0  0  0  0  0  0  0  0
   -3.8570    0.2220    1.7570 O   0  0  0  0  0  0  0  0  0  0  0  0
   -1.4570    0.4430    1.3930 C   0  0  1  0  0  0  0  0  0  0  0  0
   -1.1860   -0.2200    2.5820 O   0  0  0  0  0  0  0  0  0  0  0  0
  1  2  1  0
  2  3  2  0
  2  7  1  0
  3  4  1  0
  4  5  2  0
  5  6  1  0
  6  7  2  0
  6 10  1  0
  7  8  1  0
  8  9  2  0
  9 10  1  0
 11 10  1  6
 11 12  1  0
 11 19  1  0
 12 13  1  0
 12 14  2  0
 14 15  1  0
 14 17  1  0
 15 16  1  0
 17 18  2  0
 17 19  1  0
 19 20  1  1
M  END
