
     RDKit          3D

 12 11  0  0  0  0  0  0  0  0999 V2000
   -2.1900   -1.5940    0.9120 C   0  0  0  0  0  0  0  0  0  0  0  0
   -1.7010   -0.3500    1.2700 O   0  0  0  0  0  0  0  0  0  0  0  0
   -1.3130    0.4320    0.2140 C   0  0  1  0  0  0  0  0  0  0  0  0
   -2.1370    1.6900    0.0590 C   0  0  0  0  0  0  0  0  0  0  0  0
   -3.4840    1.4220   -0.1490 O   0  0  0  0  0  0  0  0  0  0  0  0
    0.0090    0.8030    0.2330 O   0  0  0  0  0  0  0  0  0  0  0  0
    0.6770    0.3380   -0.8760 C   0  0  1  0  0  0  0  0  0  0  0  0
    1.1370    1.4210   -1.6270 O   0  0  0  0  0  0  0  0  0  0  0  0
    1.8180   -0.5570   -0.4520 C   0  0  2  0  0  0  0  0  0  0  0  0
    1.3330   -1.6280    0.2590 O   0  0  0  0  0  0  0  0  0  0  0  0
    2.8300    0.1730    0.3850 C   0  0  0  0  0  0  0  0  0  0  0  0
    3.8590   -0.7240    0.6850 O   0  0  0  0  0  0  0  0  0  0  0  0
  1  2  1  0
  2  3  1  0
  3  4  1  1
  3  6  1  0
  4  5  1  0
  6  7  1  0
  7  8  1  1
  7  9  1  0
  9 10  1  1
  9 11  1  0
 11 12  1  0
M  END
