
     RDKit          3D

  9  8  0  0  0  0  0  0  0  0999 V2000
    2.4790    0.4560   -0.2750 C   0  0  0  0  0  0  0  0  0  0  0  0
    1.6780   -0.5530    0.2490 O   0  0  0  0  0  0  0  0  0  0  0  0
    0.4900    0.0180    0.6780 C   0  0  2  0  0  0  0  0  0  0  0  0
    0.3370   -0.1660    2.0570 O   0  0  0  0  0  0  0  0  0  0  0  0
   -0.6590   -0.6270   -0.0600 C   0  0  1  0  0  0  0  0  0  0  0  0
   -0.5290   -0.3520   -1.5240 C   0  0  0  0  0  0  0  0  0  0  0  0
   -0.7100   -1.9850    0.1750 O   0  0  0  0  0  0  0  0  0  0  0  0
   -1.9510   -0.0170    0.4360 C   0  0  0  0  0  0  0  0  0  0  0  0
   -1.9520    1.3390    0.2240 O   0  0  0  0  0  0  0  0  0  0  0  0
  1  2  1  0
  2  3  1  0
  3  4  1  1
  3  5  1  0
  5  6  1  6
  5  7  1  0
  5  8  1  0
  8  9  1  0
M  END
