
     RDKit          3D

 11 11  0  0  0  0  0  0  0  0999 V2000
    3.4670   -0.0680    0.2410 C   0  0  0  0  0  0  0  0  0  0  0  0
    1.9730    0.0110    0.0980 C   0  0  0  0  0  0  0  0  0  0  0  0
    1.3710    0.9150   -0.7240 C   0  0  0  0  0  0  0  0  0  0  0  0
   -0.0010    0.9590   -0.8300 C   0  0  0  0  0  0  0  0  0  0  0  0
   -0.8050    0.0980   -0.1150 C   0  0  0  0  0  0  0  0  0  0  0  0
   -2.2600    0.0870   -0.1760 C   0  0  0  0  0  0  0  0  0  0  0  0
   -2.9640   -0.8780    0.6350 N   0  0  0  0  0  0  0  0  0  0  0  0
   -2.9490    0.8890   -0.9140 N   0  0  0  0  0  0  0  0  0  0  0  0
   -0.1580   -0.8190    0.7210 C   0  0  0  0  0  0  0  0  0  0  0  0
    1.2050   -0.8550    0.8200 C   0  0  0  0  0  0  0  0  0  0  0  0
    1.7650   -1.7650    1.6450 F   0  0  0  0  0  0  0  0  0  0  0  0
  1  2  1  0
  2  3  2  0
  2 10  1  0
  3  4  1  0
  4  5  2  0
  5  6  1  0
  5  9  1  0
  6  7  1  0
  6  8  2  0
  9 10  2  0
 10 11  1  0
M  CHG  1   8   1
M  END
