
     RDKit          3D

 18 19  0  0  0  0  0  0  0  0999 V2000
   -2.5050   -2.4740   -0.8500 C   0  0  0  0  0  0  0  0  0  0  0  0
   -3.3500   -1.4630   -0.7560 C   0  0  0  0  0  0  0  0  0  0  0  0
   -4.7500   -1.6360   -0.8830 N   0  0  0  0  0  0  0  0  0  0  0  0
   -5.5990   -0.5020   -0.7700 C   0  0  0  0  0  0  0  0  0  0  0  0
   -5.1350    0.7120   -0.5520 C   0  0  0  0  0  0  0  0  0  0  0  0
   -3.7270    0.8790   -0.4250 N   0  0  0  0  0  0  0  0  0  0  0  0
   -2.8860   -0.0960   -0.5140 C   0  0  0  0  0  0  0  0  0  0  0  0
   -1.4920    0.1680   -0.3740 N   0  0  0  0  0  0  0  0  0  0  0  0
   -1.0290    1.2780    0.4320 C   0  0  0  0  0  0  0  0  0  0  0  0
    0.4610    1.2680    0.3650 C   0  0  0  0  0  0  0  0  0  0  0  0
    1.2860    1.8990   -0.5320 C   0  0  0  0  0  0  0  0  0  0  0  0
    2.5960    1.7370   -0.3850 C   0  0  0  0  0  0  0  0  0  0  0  0
    3.0940    0.9730    0.6200 C   0  0  0  0  0  0  0  0  0  0  0  0
    4.4420    0.5880    1.0700 C   0  0  0  0  0  0  0  0  0  0  0  0
    4.9330   -0.6470    0.4300 C   0  0  0  0  0  0  0  0  0  0  0  0
    6.2150   -1.1700    0.7430 N   0  0  0  0  0  0  0  0  0  0  0  0
    4.2130   -1.2520   -0.4060 O   0  0  0  0  0  0  0  0  0  0  0  0
    1.5300    0.4270    1.4420 S   0  0  0  0  0  0  0  0  0  0  0  0
  1  2  2  0
  2  3  1  0
  2  7  1  0
  3  4  1  0
  4  5  2  0
  5  6  1  0
  6  7  2  0
  7  8  1  0
  8  9  1  0
  9 10  1  0
 10 11  2  0
 10 18  1  0
 11 12  1  0
 12 13  2  0
 13 14  1  0
 13 18  1  0
 14 15  1  0
 15 16  1  0
 15 17  2  0
M  END
