
     RDKit          3D

  9  8  0  0  0  0  0  0  0  0999 V2000
   -0.6400    1.1470    0.7140 C   0  0  0  0  0  0  0  0  0  0  0  0
   -0.9140    0.1060   -0.3290 C   0  0  2  0  0  0  0  0  0  0  0  0
   -2.0250    0.6470   -1.0660 O   0  0  0  0  0  0  0  0  0  0  0  0
   -1.5090   -1.1540    0.2840 C   0  0  0  0  0  0  0  0  0  0  0  0
   -2.5750   -0.7690    1.0890 O   0  0  0  0  0  0  0  0  0  0  0  0
    0.0500   -0.1170   -1.2220 O   0  0  0  0  0  0  0  0  0  0  0  0
    1.2490   -0.6290   -0.9510 C   0  0  0  0  0  0  0  0  0  0  0  0
    2.2080    0.1280   -0.0830 C   0  0  0  0  0  0  0  0  0  0  0  0
    2.5290    1.3830   -0.6570 O   0  0  0  0  0  0  0  0  0  0  0  0
  2  1  1  1
  2  3  1  0
  2  4  1  0
  2  6  1  0
  4  5  1  0
  6  7  1  0
  7  8  1  0
  8  9  1  0
M  END
