
     RDKit          3D

 18 19  0  0  0  0  0  0  0  0999 V2000
   -0.5670   -1.1330    4.4360 C   0  0  0  0  0  0  0  0  0  0  0  0
   -1.7680   -0.4100    3.2880 S   0  0  0  0  0  0  0  0  0  0  0  0
   -0.9560    0.0330    1.7760 C   0  0  0  0  0  0  0  0  0  0  0  0
    0.3310   -0.1840    1.6340 C   0  0  0  0  0  0  0  0  0  0  0  0
    1.0220    0.1670    0.4100 C   0  0  0  0  0  0  0  0  0  0  0  0
    2.3110   -0.0620    0.2980 C   0  0  0  0  0  0  0  0  0  0  0  0
    3.0330    0.2840   -0.9310 C   0  0  0  0  0  0  0  0  0  0  0  0
    2.5140    0.8430   -2.0310 N   0  0  0  0  0  0  0  0  0  0  0  0
    3.4360    1.0220   -2.9540 N   0  0  0  0  0  0  0  0  0  0  0  0
    4.6000    0.5730   -2.4610 C   0  0  0  0  0  0  0  0  0  0  0  0
    4.3700    0.0970   -1.1710 C   0  0  0  0  0  0  0  0  0  0  0  0
    5.3180   -0.4490   -0.3270 O   0  0  0  0  0  0  0  0  0  0  0  0
   -1.6730    0.6210    0.7060 N   0  0  0  0  0  0  0  0  0  0  0  0
   -2.1420   -0.0120   -0.2890 C   0  0  0  0  0  0  0  0  0  0  0  0
   -1.9630   -1.4190   -0.3860 N   0  0  0  0  0  0  0  0  0  0  0  0
   -2.8720    0.6820   -1.3500 C   0  0  1  0  0  0  0  0  0  0  0  0
   -4.3100    0.2040   -1.5420 C   0  0  0  0  0  0  0  0  0  0  0  0
   -3.9960    1.5960   -1.0760 C   0  0  0  0  0  0  0  0  0  0  0  0
  1  2  1  0
  2  3  1  0
  3  4  2  3
  3 13  1  0
  4  5  1  0
  5  6  2  3
  6  7  1  0
  7  8  2  0
  7 11  1  0
  8  9  1  0
  9 10  1  0
 10 11  2  0
 11 12  1  0
 13 14  2  3
 14 15  1  0
 16 14  1  1
 16 17  1  0
 16 18  1  0
 17 18  1  0
M  END
