
     RDKit          3D

  9  8  0  0  0  0  0  0  0  0999 V2000
   -1.5940   -0.5910   -1.2350 C   0  0  0  0  0  0  0  0  0  0  0  0
   -0.9800   -0.4260    0.1380 C   0  0  2  0  0  0  0  0  0  0  0  0
   -1.1780   -1.6040    0.8820 O   0  0  0  0  0  0  0  0  0  0  0  0
   -1.6750    0.6770    0.9040 C   0  0  0  0  0  0  0  0  0  0  0  0
   -1.5670    1.9140    0.2880 O   0  0  0  0  0  0  0  0  0  0  0  0
    0.4790   -0.1710   -0.0500 C   0  0  0  0  0  0  0  0  0  0  0  0
    1.1700   -0.0180    1.1460 O   0  0  0  0  0  0  0  0  0  0  0  0
    2.5110    0.2130    0.8090 C   0  0  0  0  0  0  0  0  0  0  0  0
    3.3090    0.3830    1.9330 O   0  0  0  0  0  0  0  0  0  0  0  0
  2  1  1  6
  2  3  1  0
  2  4  1  0
  2  6  1  0
  4  5  1  0
  6  7  1  0
  7  8  1  0
  8  9  1  0
M  END
