
     RDKit          3D

 14 14  0  0  0  0  0  0  0  0999 V2000
   -1.5040    1.3340    1.7850 C   0  0  0  0  0  0  0  0  0  0  0  0
   -2.1110    0.5960    0.8900 C   0  0  0  0  0  0  0  0  0  0  0  0
   -3.4800    0.8110    0.4560 C   0  0  0  0  0  0  0  0  0  0  0  0
   -4.0710    0.0470   -0.4370 C   0  0  0  0  0  0  0  0  0  0  0  0
   -3.4130   -1.0850   -1.0730 C   0  0  0  0  0  0  0  0  0  0  0  0
   -2.0270   -1.2910   -0.6250 C   0  0  0  0  0  0  0  0  0  0  0  0
   -1.4250   -0.5280    0.2710 C   0  0  0  0  0  0  0  0  0  0  0  0
   -0.0650   -0.8620    0.6060 N   0  0  0  0  0  0  0  0  0  0  0  0
    1.0290   -0.0250    0.3610 C   0  0  0  0  0  0  0  0  0  0  0  0
    0.8500    1.0910   -0.1880 O   0  0  0  0  0  0  0  0  0  0  0  0
    2.4030   -0.4660    0.7560 C   0  0  0  0  0  0  0  0  0  0  0  0
    3.3720    0.6100    0.3820 C   0  0  0  0  0  0  0  0  0  0  0  0
    3.3190    0.8420   -0.9700 O   0  0  0  0  0  0  0  0  0  0  0  0
    3.6460   -0.2710   -1.7100 C   0  0  0  0  0  0  0  0  0  0  0  0
  1  2  2  0
  2  3  1  0
  2  7  1  0
  3  4  2  0
  4  5  1  0
  5  6  1  0
  6  7  2  0
  7  8  1  0
  8  9  1  0
  9 10  2  0
  9 11  1  0
 11 12  1  0
 12 13  1  0
 13 14  1  0
M  END
