
     RDKit          3D

 28 31  0  0  0  0  0  0  0  0999 V2000
   -2.5570   -3.7600    0.5740 C   0  0  0  0  0  0  0  0  0  0  0  0
   -1.7940   -2.4890    0.4180 C   0  0  0  0  0  0  0  0  0  0  0  0
   -0.4890   -2.4710    0.3960 N   0  0  0  0  0  0  0  0  0  0  0  0
    0.1710   -1.3140    0.2560 C   0  0  0  0  0  0  0  0  0  0  0  0
    1.5020   -1.0100    0.2020 N   0  0  0  0  0  0  0  0  0  0  0  0
    1.6600    0.3150    0.0500 C   0  0  0  0  0  0  0  0  0  0  0  0
    2.9380    1.0080   -0.0470 C   0  0  0  0  0  0  0  0  0  0  0  0
    2.9330    2.2500   -0.1870 O   0  0  0  0  0  0  0  0  0  0  0  0
    4.1470    0.3010    0.0140 N   0  0  0  0  0  0  0  0  0  0  0  0
    4.2150   -1.1320    0.1750 C   0  0  0  0  0  0  0  0  0  0  0  0
    5.7040   -1.4730    0.3200 C   0  0  0  0  0  0  0  0  0  0  0  0
    6.3460   -1.0920   -0.8330 O   0  0  0  0  0  0  0  0  0  0  0  0
    6.2780    0.2610   -1.1050 C   0  0  0  0  0  0  0  0  0  0  0  0
    5.4190    1.0090   -0.0860 C   0  0  0  0  0  0  0  0  0  0  0  0
    0.3850    0.8370    0.0100 C   0  0  0  0  0  0  0  0  0  0  0  0
   -0.5030   -0.1710    0.1370 N   0  0  0  0  0  0  0  0  0  0  0  0
   -1.8930   -0.1190    0.1520 C   0  0  0  0  0  0  0  0  0  0  0  0
   -2.5140    1.1710   -0.0220 C   0  0  0  0  0  0  0  0  0  0  0  0
   -2.9420    1.9710    1.0060 C   0  0  0  0  0  0  0  0  0  0  0  0
   -3.4710    3.2300    0.7960 C   0  0  0  0  0  0  0  0  0  0  0  0
   -3.5880    3.7320   -0.4780 C   0  0  0  0  0  0  0  0  0  0  0  0
   -4.2550    5.3300   -0.8050 Cl  0  0  0  0  0  0  0  0  0  0  0  0
   -3.1700    2.9590   -1.5280 C   0  0  0  0  0  0  0  0  0  0  0  0
   -2.6410    1.7010   -1.3200 C   0  0  0  0  0  0  0  0  0  0  0  0
   -2.1010    0.6980   -2.6500 Cl  0  0  0  0  0  0  0  0  0  0  0  0
   -2.5600   -1.2770    0.2940 C   0  0  0  0  0  0  0  0  0  0  0  0
   -4.0110   -1.4310    0.3490 C   0  0  0  0  0  0  0  0  0  0  0  0
   -4.8880   -0.3460    0.2670 N   0  0  0  0  0  0  0  0  0  0  0  0
  1  2  1  0
  2  3  2  0
  2 26  1  0
  3  4  1  0
  4  5  2  0
  4 16  1  0
  5  6  1  0
  6  7  1  0
  6 15  2  0
  7  8  2  0
  7  9  1  0
  9 10  1  0
  9 14  1  0
 10 11  1  0
 11 12  1  0
 12 13  1  0
 13 14  1  0
 15 16  1  0
 16 17  1  0
 17 18  1  0
 17 26  2  0
 18 19  2  0
 18 24  1  0
 19 20  1  0
 20 21  2  0
 21 22  1  0
 21 23  1  0
 23 24  2  0
 24 25  1  0
 26 27  1  0
 27 28  1  0
M  CHG  1  28   1
M  END
