
     RDKit          3D

 14 15  0  0  0  0  0  0  0  0999 V2000
    5.0270    0.3790    0.6630 N   0  0  0  0  0  0  0  0  0  0  0  0
    3.5970    0.2970    0.6520 C   0  0  0  0  0  0  0  0  0  0  0  0
    2.8820    0.4950    1.8180 C   0  0  0  0  0  0  0  0  0  0  0  0
    1.5050    0.4250    1.8510 C   0  0  0  0  0  0  0  0  0  0  0  0
    0.7830    0.1510    0.7040 C   0  0  0  0  0  0  0  0  0  0  0  0
   -0.5940    0.0740    0.7010 O   0  0  0  0  0  0  0  0  0  0  0  0
   -1.2520   -0.2100   -0.5120 C   0  0  0  0  0  0  0  0  0  0  0  0
   -2.7440   -0.2490   -0.2970 C   0  0  0  0  0  0  0  0  0  0  0  0
   -3.7030   -0.4970   -1.2520 C   0  0  0  0  0  0  0  0  0  0  0  0
   -4.9290   -0.4370   -0.6250 C   0  0  0  0  0  0  0  0  0  0  0  0
   -4.6710   -0.1540    0.6990 C   0  0  0  0  0  0  0  0  0  0  0  0
   -3.3860   -0.0560    0.8260 O   0  0  0  0  0  0  0  0  0  0  0  0
    1.4850   -0.0470   -0.4620 C   0  0  0  0  0  0  0  0  0  0  0  0
    2.8780    0.0250   -0.4880 C   0  0  0  0  0  0  0  0  0  0  0  0
  1  2  1  0
  2  3  2  0
  2 14  1  0
  3  4  1  0
  4  5  2  0
  5  6  1  0
  5 13  1  0
  6  7  1  0
  7  8  1  0
  8  9  2  0
  8 12  1  0
  9 10  1  0
 10 11  2  0
 11 12  1  0
 13 14  2  0
M  END
