
     RDKit          3D

 14 15  0  0  0  0  0  0  0  0999 V2000
    3.1260   -0.0920   -0.8700 C   0  0  0  0  0  0  0  0  0  0  0  0
    2.5520    0.0810    0.3110 C   0  0  0  0  0  0  0  0  0  0  0  0
    2.7010    1.3340    1.0650 C   0  0  0  0  0  0  0  0  0  0  0  0
    3.5120    2.2130    0.3140 O   0  0  0  0  0  0  0  0  0  0  0  0
    1.7750   -0.9790    0.8530 N   0  0  0  0  0  0  0  0  0  0  0  0
    0.3520   -1.0430    0.6350 C   0  0  0  0  0  0  0  0  0  0  0  0
   -0.4030   -2.0660    1.1570 C   0  0  0  0  0  0  0  0  0  0  0  0
   -1.7660   -2.0790    0.9170 C   0  0  0  0  0  0  0  0  0  0  0  0
   -2.3720   -1.0940    0.1690 C   0  0  0  0  0  0  0  0  0  0  0  0
   -1.5830   -0.0910   -0.3340 C   0  0  0  0  0  0  0  0  0  0  0  0
   -0.2240   -0.0430   -0.1170 C   0  0  0  0  0  0  0  0  0  0  0  0
   -2.5020    0.8140   -1.0900 C   0  0  0  0  0  0  0  0  0  0  0  0
   -3.8210    0.5490   -0.3990 C   0  0  0  0  0  0  0  0  0  0  0  0
   -3.7130   -0.8730   -0.2180 O   0  0  0  0  0  0  0  0  0  0  0  0
  1  2  2  0
  2  3  1  0
  2  5  1  0
  3  4  1  0
  5  6  1  0
  6  7  2  0
  6 11  1  0
  7  8  1  0
  8  9  2  0
  9 10  1  0
  9 14  1  0
 10 11  2  0
 10 12  1  0
 12 13  1  0
 13 14  1  0
M  END
