
     RDKit          3D

 14 15  0  0  0  0  0  0  0  0999 V2000
   -3.5120    0.9040    0.5970 C   0  0  0  0  0  0  0  0  0  0  0  0
   -2.3700    0.6040    0.0220 C   0  0  0  0  0  0  0  0  0  0  0  0
   -1.4650    1.7540   -0.2680 C   0  0  0  0  0  0  0  0  0  0  0  0
   -0.1710    1.5230    0.2780 O   0  0  0  0  0  0  0  0  0  0  0  0
    0.7180    0.4850    0.0120 C   0  0  0  0  0  0  0  0  0  0  0  0
    2.0430    0.8560    0.0170 C   0  0  0  0  0  0  0  0  0  0  0  0
    3.0920   -0.0090   -0.2210 C   0  0  0  0  0  0  0  0  0  0  0  0
    4.4550    0.4000   -0.2100 N   0  0  0  0  0  0  0  0  0  0  0  0
    2.7510   -1.3300   -0.4790 C   0  0  0  0  0  0  0  0  0  0  0  0
    1.4470   -1.7600   -0.4980 C   0  0  0  0  0  0  0  0  0  0  0  0
    0.4340   -0.8480   -0.2510 C   0  0  0  0  0  0  0  0  0  0  0  0
   -0.8260   -1.4290   -0.3040 O   0  0  0  0  0  0  0  0  0  0  0  0
   -2.0840   -0.7940   -0.2740 C   0  0  0  0  0  0  0  0  0  0  0  0
   -3.1300   -1.5290   -0.5410 C   0  0  0  0  0  0  0  0  0  0  0  0
  1  2  2  0
  2  3  1  0
  2 13  1  0
  3  4  1  0
  4  5  1  0
  5  6  2  0
  5 11  1  0
  6  7  1  0
  7  8  1  0
  7  9  2  0
  9 10  1  0
 10 11  2  0
 11 12  1  0
 12 13  1  0
 13 14  2  0
M  END
