
     RDKit          3D

 14 15  0  0  0  0  0  0  0  0999 V2000
    4.4560    0.7100   -0.4760 C   0  0  0  0  0  0  0  0  0  0  0  0
    3.0280    0.9580   -0.5330 N   0  0  0  0  0  0  0  0  0  0  0  0
    2.2860   -0.2230   -0.1290 C   0  0  0  0  0  0  0  0  0  0  0  0
    0.8250    0.0150   -0.1820 C   0  0  0  0  0  0  0  0  0  0  0  0
    0.2270    1.1320   -0.5410 O   0  0  0  0  0  0  0  0  0  0  0  0
   -1.0760    1.0080   -0.4770 C   0  0  0  0  0  0  0  0  0  0  0  0
   -2.1000    1.8990   -0.7540 C   0  0  0  0  0  0  0  0  0  0  0  0
   -3.4080    1.4860   -0.5940 C   0  0  0  0  0  0  0  0  0  0  0  0
   -3.6550    0.1940   -0.1620 C   0  0  0  0  0  0  0  0  0  0  0  0
   -4.9740   -0.2430    0.0060 O   0  0  0  0  0  0  0  0  0  0  0  0
   -2.6330   -0.6960    0.1140 C   0  0  0  0  0  0  0  0  0  0  0  0
   -1.3370   -0.2760   -0.0470 C   0  0  0  0  0  0  0  0  0  0  0  0
   -0.1330   -0.9210    0.1450 C   0  0  0  0  0  0  0  0  0  0  0  0
    0.0600   -2.3330    0.6090 C   0  0  0  0  0  0  0  0  0  0  0  0
  1  2  1  0
  2  3  1  0
  3  4  1  0
  4  5  1  0
  4 13  2  0
  5  6  1  0
  6  7  2  0
  6 12  1  0
  7  8  1  0
  8  9  2  0
  9 10  1  0
  9 11  1  0
 11 12  2  0
 12 13  1  0
 13 14  1  0
M  END
