
     RDKit          3D

 14 15  0  0  0  0  0  0  0  0999 V2000
    3.4120    1.0050    1.0680 C   0  0  0  0  0  0  0  0  0  0  0  0
    2.7530    0.4840   -0.0710 O   0  0  0  0  0  0  0  0  0  0  0  0
    1.5670   -0.2260    0.1430 C   0  0  0  0  0  0  0  0  0  0  0  0
    1.5690   -1.2580    0.9750 C   0  0  0  0  0  0  0  0  0  0  0  0
    0.3520   -2.0410    1.2390 C   0  0  0  0  0  0  0  0  0  0  0  0
   -0.7980   -1.5690    0.5110 N   0  0  0  0  0  0  0  0  0  0  0  0
   -0.8010   -0.4700   -0.3760 C   0  0  0  0  0  0  0  0  0  0  0  0
   -1.9880   -0.1370   -1.0040 C   0  0  0  0  0  0  0  0  0  0  0  0
   -3.2510   -0.8160   -0.8380 C   0  0  0  0  0  0  0  0  0  0  0  0
   -1.9340    0.9460   -1.8610 C   0  0  0  0  0  0  0  0  0  0  0  0
   -0.7720    1.6660   -2.0900 C   0  0  0  0  0  0  0  0  0  0  0  0
   -0.7530    2.7420   -2.9510 O   0  0  0  0  0  0  0  0  0  0  0  0
    0.3950    1.2860   -1.4310 C   0  0  0  0  0  0  0  0  0  0  0  0
    0.3710    0.2100   -0.5700 C   0  0  0  0  0  0  0  0  0  0  0  0
  1  2  1  0
  2  3  1  0
  3  4  2  0
  3 14  1  0
  4  5  1  0
  5  6  1  0
  6  7  1  0
  7  8  2  0
  7 14  1  0
  8  9  1  0
  8 10  1  0
 10 11  2  0
 11 12  1  0
 11 13  1  0
 13 14  2  0
M  END
