
     RDKit          3D

 14 14  0  0  0  0  0  0  0  0999 V2000
   -1.6910   -2.3030   -0.3370 C   0  0  0  0  0  0  0  0  0  0  0  0
   -0.4640   -1.5340   -0.0680 C   0  0  0  0  0  0  0  0  0  0  0  0
    0.6430   -2.2630    0.2090 C   0  0  0  0  0  0  0  0  0  0  0  0
    1.8710   -1.5390    0.4800 C   0  0  0  0  0  0  0  0  0  0  0  0
    2.9190   -2.1770    0.7410 O   0  0  0  0  0  0  0  0  0  0  0  0
    1.9460   -0.0960    0.4640 C   0  0  0  0  0  0  0  0  0  0  0  0
    3.2120    0.5920    0.7460 C   0  0  0  0  0  0  0  0  0  0  0  0
    3.3160    2.0070    0.7370 N   0  0  0  0  0  0  0  0  0  0  0  0
    4.2670   -0.0460    1.0090 O   0  0  0  0  0  0  0  0  0  0  0  0
    0.8640    0.5890    0.1940 C   0  0  0  0  0  0  0  0  0  0  0  0
   -0.4500   -0.0880   -0.1000 C   0  0  0  0  0  0  0  0  0  0  0  0
   -1.4660    0.6730   -0.3800 C   0  0  0  0  0  0  0  0  0  0  0  0
   -1.2460    2.1820   -0.3570 C   0  0  0  0  0  0  0  0  0  0  0  0
   -2.8140    0.2580   -0.7330 C   0  0  0  0  0  0  0  0  0  0  0  0
  1  2  1  0
  2  3  2  0
  2 11  1  0
  3  4  1  0
  4  5  2  0
  4  6  1  0
  6  7  1  0
  6 10  2  0
  7  8  1  0
  7  9  2  0
 10 11  1  0
 11 12  2  3
 12 13  1  0
 12 14  1  0
M  END
