
     RDKit          3D

 39 44  0  0  0  0  0  0  0  0999 V2000
   -2.9500   -3.5030   -0.9640 C   0  0  0  0  0  0  0  0  0  0  0  0
   -4.1520   -3.5370   -0.1020 C   0  0  2  0  0  0  0  0  0  0  0  0
   -5.4280   -3.0810   -0.7610 C   0  0  0  0  0  0  0  0  0  0  0  0
   -6.3450   -2.9990    0.4640 C   0  0  0  0  0  0  0  0  0  0  0  0
   -5.4120   -3.1140    1.6700 C   0  0  0  0  0  0  0  0  0  0  0  0
   -4.0770   -2.7760    1.1230 N   0  0  0  0  0  0  0  0  0  0  0  0
   -4.0750   -1.3680    0.9820 C   0  0  0  0  0  0  0  0  0  0  0  0
   -2.8520   -0.7250    0.4990 C   0  0  0  0  0  0  0  0  0  0  0  0
   -1.5800   -1.1780    0.6460 C   0  0  0  0  0  0  0  0  0  0  0  0
   -0.4620   -0.4850    0.1590 C   0  0  0  0  0  0  0  0  0  0  0  0
    0.8760   -1.0480    0.3180 C   0  0  0  0  0  0  0  0  0  0  0  0
    1.9920   -0.1630    0.3440 N   0  0  0  0  0  0  0  0  0  0  0  0
    2.6100    0.4750   -0.7630 C   0  0  0  0  0  0  0  0  0  0  0  0
    2.1780    0.2940   -1.9400 O   0  0  0  0  0  0  0  0  0  0  0  0
    3.7520    1.3650   -0.6260 C   0  0  0  0  0  0  0  0  0  0  0  0
    3.7270    2.7220   -0.8980 C   0  0  0  0  0  0  0  0  0  0  0  0
    4.8460    3.5150   -0.6860 C   0  0  0  0  0  0  0  0  0  0  0  0
    6.0190    2.9770   -0.1960 C   0  0  0  0  0  0  0  0  0  0  0  0
    6.0330    1.6530    0.0650 N   0  0  0  0  0  0  0  0  0  0  0  0
    7.2170    1.1630    0.5080 C   0  0  0  0  0  0  0  0  0  0  0  0
    8.2330    1.8760    0.7030 O   0  0  0  0  0  0  0  0  0  0  0  0
    7.3300   -0.1950    0.7640 C   0  0  0  0  0  0  0  0  0  0  0  0
    8.5110   -0.7450    1.2000 C   0  0  0  0  0  0  0  0  0  0  0  0
    8.6310   -2.0860    1.4400 C   0  0  0  0  0  0  0  0  0  0  0  0
    7.5720   -2.9240    1.2520 C   0  0  0  0  0  0  0  0  0  0  0  0
    6.3680   -2.3680    0.8090 C   0  0  0  0  0  0  0  0  0  0  0  0
    6.2570   -1.0290    0.5720 C   0  0  0  0  0  0  0  0  0  0  0  0
    5.0590   -0.4820    0.1170 C   0  0  0  0  0  0  0  0  0  0  0  0
    4.9590    0.8800   -0.1370 C   0  0  0  0  0  0  0  0  0  0  0  0
   -0.6850    0.6980   -0.4880 C   0  0  0  0  0  0  0  0  0  0  0  0
   -1.9770    1.2050   -0.6660 C   0  0  0  0  0  0  0  0  0  0  0  0
   -2.1390    2.4150   -1.3760 N   0  0  0  0  0  0  0  0  0  0  0  0
   -3.4080    3.1560   -1.4290 C   0  0  0  0  0  0  0  0  0  0  0  0
   -3.7630    3.6930   -0.1020 C   0  0  0  0  0  0  0  0  0  0  0  0
   -4.8550    3.3570    0.6520 C   0  0  0  0  0  0  0  0  0  0  0  0
   -4.7960    4.0840    1.8250 C   0  0  0  0  0  0  0  0  0  0  0  0
   -3.7080    4.8460    1.8050 N   0  0  0  0  0  0  0  0  0  0  0  0
   -3.0640    4.6200    0.6310 C   0  0  0  0  0  0  0  0  0  0  0  0
   -3.0190    0.4730   -0.1650 C   0  0  0  0  0  0  0  0  0  0  0  0
  2  1  1  6
  2  3  1  0
  2  6  1  0
  3  4  1  0
  4  5  1  0
  5  6  1  0
  6  7  1  0
  7  8  1  0
  8  9  2  0
  8 39  1  0
  9 10  1  0
 10 11  1  0
 10 30  2  0
 11 12  1  0
 12 13  1  0
 13 14  2  0
 13 15  1  0
 15 16  2  0
 15 29  1  0
 16 17  1  0
 17 18  2  0
 18 19  1  0
 19 20  1  0
 19 29  1  0
 20 21  2  0
 20 22  1  0
 22 23  2  0
 22 27  1  0
 23 24  1  0
 24 25  2  0
 25 26  1  0
 26 27  2  0
 27 28  1  0
 28 29  2  0
 30 31  1  0
 31 32  1  0
 31 39  2  0
 32 33  1  0
 33 34  1  0
 34 35  1  0
 34 38  2  0
 35 36  2  0
 36 37  1  0
 37 38  1  0
M  END
