
     RDKit          3D

 39 43  0  0  0  0  0  0  0  0999 V2000
   -7.3850    4.8220   -2.1030 C   0  0  0  0  0  0  0  0  0  0  0  0
   -6.9090    3.5190   -1.5530 C   0  0  0  0  0  0  0  0  0  0  0  0
   -6.7940    3.3170   -0.1970 C   0  0  0  0  0  0  0  0  0  0  0  0
   -6.3460    2.1070    0.3360 C   0  0  0  0  0  0  0  0  0  0  0  0
   -6.0000    1.0610   -0.4880 C   0  0  0  0  0  0  0  0  0  0  0  0
   -5.5200   -0.1910    0.0280 N   0  0  0  0  0  0  0  0  0  0  0  0
   -6.2100   -1.2070    0.4840 N   0  0  0  0  0  0  0  0  0  0  0  0
   -5.4480   -2.2260    0.8890 C   0  0  0  0  0  0  0  0  0  0  0  0
   -5.9160   -3.5340    1.4710 C   0  0  1  0  0  0  0  0  0  0  0  0
   -6.2360   -3.2840    2.9100 C   0  0  0  0  0  0  0  0  0  0  0  0
   -7.2090   -3.9130    0.7550 C   0  0  0  0  0  0  0  0  0  0  0  0
   -4.9170   -4.6270    1.2360 C   0  0  0  0  0  0  0  0  0  0  0  0
   -4.1520   -1.8150    0.6680 C   0  0  0  0  0  0  0  0  0  0  0  0
   -4.2050   -0.5510    0.1330 C   0  0  0  0  0  0  0  0  0  0  0  0
   -3.1490    0.3030   -0.2620 N   0  0  0  0  0  0  0  0  0  0  0  0
   -1.7590   -0.0330   -0.1820 C   0  0  0  0  0  0  0  0  0  0  0  0
   -1.4460   -1.1350    0.2610 O   0  0  0  0  0  0  0  0  0  0  0  0
   -0.7630    0.8860   -0.6030 N   0  0  0  0  0  0  0  0  0  0  0  0
    0.6320    0.7030   -0.5960 C   0  0  0  0  0  0  0  0  0  0  0  0
    1.2580   -0.4180   -0.1030 C   0  0  0  0  0  0  0  0  0  0  0  0
    2.6360   -0.5780   -0.1050 C   0  0  0  0  0  0  0  0  0  0  0  0
    3.4650    0.3910   -0.6110 C   0  0  0  0  0  0  0  0  0  0  0  0
    4.8270    0.3300   -0.6640 O   0  0  0  0  0  0  0  0  0  0  0  0
    5.6220   -0.7330   -0.2140 C   0  0  0  0  0  0  0  0  0  0  0  0
    7.0460   -0.3670   -0.4880 C   0  0  0  0  0  0  0  0  0  0  0  0
    8.0770   -1.2470   -0.1700 N   0  0  1  0  0  0  0  0  0  0  0  0
    9.3360   -0.7940   -0.8030 C   0  0  0  0  0  0  0  0  0  0  0  0
   10.0320    0.2550   -0.0050 C   0  0  0  0  0  0  0  0  0  0  0  0
   10.3610   -0.2640    1.2330 O   0  0  0  0  0  0  0  0  0  0  0  0
    9.1900   -0.5340    1.9240 C   0  0  0  0  0  0  0  0  0  0  0  0
    8.3690   -1.5710    1.1730 C   0  0  0  0  0  0  0  0  0  0  0  0
    2.8250    1.5350   -1.1130 C   0  0  0  0  0  0  0  0  0  0  0  0
    3.6430    2.5120   -1.6230 C   0  0  0  0  0  0  0  0  0  0  0  0
    3.0810    3.6600   -2.1350 C   0  0  0  0  0  0  0  0  0  0  0  0
    1.7280    3.8480   -2.1470 C   0  0  0  0  0  0  0  0  0  0  0  0
    0.9120    2.8360   -1.6210 C   0  0  0  0  0  0  0  0  0  0  0  0
    1.4620    1.6890   -1.1080 C   0  0  0  0  0  0  0  0  0  0  0  0
   -6.1180    1.2690   -1.8510 C   0  0  0  0  0  0  0  0  0  0  0  0
   -6.5620    2.4680   -2.3810 C   0  0  0  0  0  0  0  0  0  0  0  0
  1  2  1  0
  2  3  2  0
  2 39  1  0
  3  4  1  0
  4  5  2  0
  5  6  1  0
  5 38  1  0
  6  7  1  0
  6 14  1  0
  7  8  2  0
  8  9  1  0
  8 13  1  0
  9 10  1  1
  9 11  1  0
  9 12  1  0
 13 14  2  0
 14 15  1  0
 15 16  1  0
 16 17  2  0
 16 18  1  0
 18 19  1  0
 19 20  2  0
 19 37  1  0
 20 21  1  0
 21 22  2  0
 22 23  1  0
 22 32  1  0
 23 24  1  0
 24 25  1  0
 26 25  1  1
 26 27  1  0
 26 31  1  0
 27 28  1  0
 28 29  1  0
 29 30  1  0
 30 31  1  0
 32 33  2  0
 32 37  1  0
 33 34  1  0
 34 35  2  0
 35 36  1  0
 36 37  2  0
 38 39  2  0
M  CHG  1  26   1
M  END
