
     RDKit          3D

 39 44  0  0  0  0  0  0  0  0999 V2000
   -4.8450   -5.0810   -0.9480 C   0  0  0  0  0  0  0  0  0  0  0  0
   -4.8450   -4.3940   -2.2650 C   0  0  0  0  0  0  0  0  0  0  0  0
   -4.9480   -4.9500   -3.4920 N   0  0  0  0  0  0  0  0  0  0  0  0
   -4.9050   -3.9810   -4.4170 C   0  0  0  0  0  0  0  0  0  0  0  0
   -4.7700   -2.7950   -3.7050 C   0  0  0  0  0  0  0  0  0  0  0  0
   -4.7340   -3.0590   -2.3910 N   0  0  0  0  0  0  0  0  0  0  0  0
   -4.6010   -2.0630   -1.3690 C   0  0  0  0  0  0  0  0  0  0  0  0
   -5.6890   -1.5500   -0.7250 C   0  0  0  0  0  0  0  0  0  0  0  0
   -5.5550   -0.6020    0.2470 C   0  0  0  0  0  0  0  0  0  0  0  0
   -4.2690   -0.1600    0.5750 C   0  0  0  0  0  0  0  0  0  0  0  0
   -3.1500   -0.6450   -0.0410 C   0  0  0  0  0  0  0  0  0  0  0  0
   -1.7960   -0.1720    0.3880 C   0  0  0  0  0  0  0  0  0  0  0  0
   -0.7500   -0.4420   -0.3220 C   0  0  0  0  0  0  0  0  0  0  0  0
    0.6230   -0.1070   -0.0870 C   0  0  0  0  0  0  0  0  0  0  0  0
    0.9910    0.4880    0.9330 O   0  0  0  0  0  0  0  0  0  0  0  0
    1.6550   -0.4500   -1.0400 N   0  0  0  0  0  0  0  0  0  0  0  0
    3.0160   -0.0560   -0.6920 C   0  0  0  0  0  0  0  0  0  0  0  0
    3.9970   -0.4470   -1.7190 C   0  0  0  0  0  0  0  0  0  0  0  0
    3.6770   -1.1010   -2.8560 N   0  0  0  0  0  0  0  0  0  0  0  0
    4.7750   -1.3220   -3.5930 C   0  0  0  0  0  0  0  0  0  0  0  0
    4.8160   -1.9090   -4.7110 O   0  0  0  0  0  0  0  0  0  0  0  0
    5.8030   -0.8030   -2.9140 N   0  0  0  0  0  0  0  0  0  0  0  0
    5.3480   -0.2490   -1.7380 C   0  0  0  0  0  0  0  0  0  0  0  0
    6.2100    0.3980   -0.7640 C   0  0  0  0  0  0  0  0  0  0  0  0
    7.5860    0.4610   -1.0050 C   0  0  0  0  0  0  0  0  0  0  0  0
    8.4760    1.0510   -0.1500 C   0  0  0  0  0  0  0  0  0  0  0  0
    8.0410    1.6260    1.0240 C   0  0  0  0  0  0  0  0  0  0  0  0
    6.6940    1.5810    1.2910 C   0  0  0  0  0  0  0  0  0  0  0  0
    5.7920    0.9730    0.4040 C   0  0  0  0  0  0  0  0  0  0  0  0
   -1.7450    0.7320    1.5220 C   0  0  0  0  0  0  0  0  0  0  0  0
   -2.4110    0.4950    2.7280 C   0  0  0  0  0  0  0  0  0  0  0  0
   -2.4820    1.3950    3.7590 C   0  0  0  0  0  0  0  0  0  0  0  0
   -1.8740    2.6400    3.6600 C   0  0  0  0  0  0  0  0  0  0  0  0
   -1.2150    2.9010    2.4880 C   0  0  0  0  0  0  0  0  0  0  0  0
   -1.1510    1.9700    1.4410 C   0  0  0  0  0  0  0  0  0  0  0  0
   -0.6270    4.2810    2.5420 C   0  0  0  0  0  0  0  0  0  0  0  0
   -1.5260    4.9460    3.5760 C   0  0  0  0  0  0  0  0  0  0  0  0
   -1.7450    3.8060    4.5390 C   0  0  0  0  0  0  0  0  0  0  0  0
   -3.3310   -1.5920   -1.0080 C   0  0  0  0  0  0  0  0  0  0  0  0
  1  2  1  0
  2  3  2  0
  2  6  1  0
  3  4  1  0
  4  5  2  0
  5  6  1  0
  6  7  1  0
  7  8  2  0
  7 39  1  0
  8  9  1  0
  9 10  2  0
 10 11  1  0
 11 12  1  0
 11 39  2  0
 12 13  2  3
 12 30  1  0
 13 14  1  0
 14 15  2  0
 14 16  1  0
 16 17  1  0
 17 18  1  0
 18 19  1  0
 18 23  2  0
 19 20  1  0
 20 21  2  0
 20 22  1  0
 22 23  1  0
 23 24  1  0
 24 25  2  0
 24 29  1  0
 25 26  1  0
 26 27  2  0
 27 28  1  0
 28 29  2  0
 30 31  2  0
 30 35  1  0
 31 32  1  0
 32 33  2  0
 33 34  1  0
 33 38  1  0
 34 35  2  0
 34 36  1  0
 36 37  1  0
 37 38  1  0
M  END
