
     RDKit          3D

 39 44  0  0  0  0  0  0  0  0999 V2000
   -6.0520    4.6400   -0.0290 C   0  0  0  0  0  0  0  0  0  0  0  0
   -6.9320    3.5120   -0.4450 C   0  0  0  0  0  0  0  0  0  0  0  0
   -6.4520    2.2780   -0.5530 C   0  0  0  0  0  0  0  0  0  0  0  0
   -5.0650    1.9360   -0.2930 C   0  0  0  0  0  0  0  0  0  0  0  0
   -4.5450    0.7490   -0.3280 C   0  0  0  0  0  0  0  0  0  0  0  0
   -3.1820    0.5850   -0.0590 C   0  0  0  0  0  0  0  0  0  0  0  0
   -2.3090    1.6250    0.1610 C   0  0  0  0  0  0  0  0  0  0  0  0
   -0.9540    1.4070    0.4660 C   0  0  0  0  0  0  0  0  0  0  0  0
   -0.4610    0.1520    0.5550 C   0  0  0  0  0  0  0  0  0  0  0  0
    0.8630   -0.1910    1.0140 C   0  0  1  0  0  0  0  0  0  0  0  0
    1.3930    1.1420    1.6310 C   0  0  0  0  0  0  0  0  0  0  0  0
    0.8070   -1.1870    2.1340 C   0  0  0  0  0  0  0  0  0  0  0  0
    1.8720   -0.6190   -0.0460 C   0  0  0  0  0  0  0  0  0  0  0  0
    3.0850   -1.1320    0.6640 C   0  0  0  0  0  0  0  0  0  0  0  0
    4.3160   -1.5270    0.0420 C   0  0  0  0  0  0  0  0  0  0  0  0
    5.2690   -0.5320   -0.4480 C   0  0  0  0  0  0  0  0  0  0  0  0
    5.2100    0.0700   -1.6540 C   0  0  0  0  0  0  0  0  0  0  0  0
    4.1800   -0.2030   -2.6860 C   0  0  0  0  0  0  0  0  0  0  0  0
    6.1670    0.9980   -1.9640 N   0  0  0  0  0  0  0  0  0  0  0  0
    7.1590    1.3270   -1.1110 C   0  0  0  0  0  0  0  0  0  0  0  0
    8.2030    2.1840   -1.1470 N   0  0  0  0  0  0  0  0  0  0  0  0
    8.9010    2.1460   -0.0330 N   0  0  0  0  0  0  0  0  0  0  0  0
    8.3180    1.2390    0.7800 C   0  0  0  0  0  0  0  0  0  0  0  0
    8.6680    0.9070    1.9170 O   0  0  0  0  0  0  0  0  0  0  0  0
    7.2200    0.7190    0.1120 C   0  0  0  0  0  0  0  0  0  0  0  0
    6.2900   -0.2240    0.4860 C   0  0  0  0  0  0  0  0  0  0  0  0
    6.3680   -0.8310    1.8410 C   0  0  0  0  0  0  0  0  0  0  0  0
   -1.3780   -0.8910    0.3150 C   0  0  0  0  0  0  0  0  0  0  0  0
   -2.7010   -0.7040    0.0160 C   0  0  0  0  0  0  0  0  0  0  0  0
   -3.5450   -1.7800   -0.1720 C   0  0  0  0  0  0  0  0  0  0  0  0
   -3.0500   -2.9400   -0.0930 O   0  0  0  0  0  0  0  0  0  0  0  0
   -4.8550   -1.6350   -0.4300 N   0  0  0  0  0  0  0  0  0  0  0  0
   -5.8310   -2.5710   -0.6260 C   0  0  0  0  0  0  0  0  0  0  0  0
   -6.9890   -1.8630   -0.8350 C   0  0  0  0  0  0  0  0  0  0  0  0
   -6.6650   -0.5710   -0.7580 N   0  0  0  0  0  0  0  0  0  0  0  0
   -5.3480   -0.3910   -0.5080 C   0  0  0  0  0  0  0  0  0  0  0  0
   -7.9980   -2.7190   -1.0340 C   0  0  0  0  0  0  0  0  0  0  0  0
   -7.4650   -4.1050   -0.9500 C   0  0  0  0  0  0  0  0  0  0  0  0
   -6.0270   -3.8770   -0.6730 C   0  0  0  0  0  0  0  0  0  0  0  0
  1  2  1  0
  2  3  2  3
  3  4  1  0
  4  5  2  3
  5  6  1  0
  5 36  1  0
  6  7  2  0
  6 29  1  0
  7  8  1  0
  8  9  2  0
  9 10  1  0
  9 28  1  0
 10 11  1  1
 10 12  1  0
 10 13  1  0
 13 14  1  0
 14 15  1  0
 15 16  1  0
 16 17  2  0
 16 26  1  0
 17 18  1  0
 17 19  1  0
 19 20  2  0
 20 21  1  0
 20 25  1  0
 21 22  1  0
 22 23  1  0
 23 24  2  0
 23 25  1  0
 25 26  2  0
 26 27  1  0
 28 29  2  0
 29 30  1  0
 30 31  2  0
 30 32  1  0
 32 33  1  0
 32 36  1  0
 33 34  1  0
 33 39  2  0
 34 35  1  0
 34 37  2  0
 35 36  2  0
 37 38  1  0
 38 39  1  0
M  END
