
     RDKit          3D

 39 44  0  0  0  0  0  0  0  0999 V2000
    9.8540   -0.1990   -1.4260 C   0  0  0  0  0  0  0  0  0  0  0  0
    8.3430   -0.0740   -1.4810 C   0  0  0  0  0  0  0  0  0  0  0  0
    7.7520   -0.5720   -0.1590 C   0  0  0  0  0  0  0  0  0  0  0  0
    6.2760   -0.4650   -0.1770 C   0  0  0  0  0  0  0  0  0  0  0  0
    5.5190   -1.5280   -0.6360 C   0  0  0  0  0  0  0  0  0  0  0  0
    4.1590   -1.4300   -0.6530 C   0  0  0  0  0  0  0  0  0  0  0  0
    3.4600   -0.2890   -0.2230 C   0  0  0  0  0  0  0  0  0  0  0  0
    2.0480   -0.3270   -0.3120 N   0  0  0  0  0  0  0  0  0  0  0  0
    1.2070    0.6270    0.2090 C   0  0  0  0  0  0  0  0  0  0  0  0
    1.6730    1.6240    0.8150 O   0  0  0  0  0  0  0  0  0  0  0  0
   -0.3000    0.6200    0.1360 C   0  0  0  0  0  0  0  0  0  0  0  0
   -0.8860   -0.3900   -0.4560 C   0  0  0  0  0  0  0  0  0  0  0  0
   -2.3040   -0.5610   -0.6400 C   0  0  0  0  0  0  0  0  0  0  0  0
   -2.8320    0.5190   -1.4020 C   0  0  0  0  0  0  0  0  0  0  0  0
   -4.0880    0.4180   -1.9100 C   0  0  0  0  0  0  0  0  0  0  0  0
   -4.5850    1.3690   -2.5920 O   0  0  0  0  0  0  0  0  0  0  0  0
   -4.8550   -0.6470   -1.7340 N   0  0  0  0  0  0  0  0  0  0  0  0
   -4.3970   -1.6770   -1.0230 C   0  0  0  0  0  0  0  0  0  0  0  0
   -5.1750   -2.8070   -0.8870 C   0  0  0  0  0  0  0  0  0  0  0  0
   -4.7390   -3.8980   -0.2100 C   0  0  0  0  0  0  0  0  0  0  0  0
   -3.5010   -3.8730    0.3580 C   0  0  0  0  0  0  0  0  0  0  0  0
   -2.8510   -4.7390    1.1520 N   0  0  0  0  0  0  0  0  0  0  0  0
   -1.7300   -4.2230    1.5310 N   0  0  0  0  0  0  0  0  0  0  0  0
   -1.5690   -2.9580    0.9970 C   0  0  0  0  0  0  0  0  0  0  0  0
   -0.4660   -2.1460    1.4840 C   0  0  0  0  0  0  0  0  0  0  0  0
   -2.6740   -2.7430    0.2460 C   0  0  0  0  0  0  0  0  0  0  0  0
   -3.1020   -1.6290   -0.4600 C   0  0  0  0  0  0  0  0  0  0  0  0
   -0.9080    1.7200    0.8640 C   0  0  0  0  0  0  0  0  0  0  0  0
   -2.2670    1.8600    1.1210 N   0  0  0  0  0  0  0  0  0  0  0  0
   -3.1060    1.0370    1.9840 C   0  0  0  0  0  0  0  0  0  0  0  0
   -4.5290    1.2430    1.5510 C   0  0  0  0  0  0  0  0  0  0  0  0
   -4.4710    2.5590    0.9040 C   0  0  0  0  0  0  0  0  0  0  0  0
   -5.4950    3.4150    0.5420 C   0  0  0  0  0  0  0  0  0  0  0  0
   -5.2360    4.6310   -0.0640 C   0  0  0  0  0  0  0  0  0  0  0  0
   -3.9230    4.9840   -0.3060 C   0  0  0  0  0  0  0  0  0  0  0  0
   -2.8980    4.1150    0.0620 C   0  0  0  0  0  0  0  0  0  0  0  0
   -3.1710    2.9070    0.6640 C   0  0  0  0  0  0  0  0  0  0  0  0
    4.2420    0.7330    0.2200 C   0  0  0  0  0  0  0  0  0  0  0  0
    5.6300    0.6610    0.2490 C   0  0  0  0  0  0  0  0  0  0  0  0
  1  2  1  0
  2  3  1  0
  3  4  1  0
  4  5  2  0
  4 39  1  0
  5  6  1  0
  6  7  2  0
  7  8  1  0
  7 38  1  0
  8  9  1  0
  9 10  2  0
  9 11  1  0
 11 12  2  3
 11 28  1  0
 12 13  1  0
 13 14  2  0
 13 27  1  0
 14 15  1  0
 15 16  2  0
 15 17  1  0
 17 18  1  0
 18 19  2  0
 18 27  1  0
 19 20  1  0
 20 21  2  0
 21 22  1  0
 21 26  1  0
 22 23  1  0
 23 24  2  0
 24 25  1  0
 24 26  1  0
 26 27  2  0
 28 29  1  0
 29 30  1  0
 29 37  1  0
 30 31  1  0
 31 32  1  0
 32 33  2  0
 32 37  1  0
 33 34  1  0
 34 35  2  0
 35 36  1  0
 36 37  2  0
 38 39  2  0
M  END
