
     RDKit          3D

 39 44  0  0  0  0  0  0  0  0999 V2000
   -7.1370    2.8090    3.0800 C   0  0  0  0  0  0  0  0  0  0  0  0
   -6.0360    2.5220    2.0740 C   0  0  0  0  0  0  0  0  0  0  0  0
   -6.0800    1.0540    1.7720 C   0  0  0  0  0  0  0  0  0  0  0  0
   -5.0730    0.6360    0.8160 N   0  0  0  0  0  0  0  0  0  0  0  0
   -3.8640    0.2110    1.2020 C   0  0  0  0  0  0  0  0  0  0  0  0
   -3.6230    0.1810    2.4400 O   0  0  0  0  0  0  0  0  0  0  0  0
   -2.8570   -0.1990    0.3150 C   0  0  0  0  0  0  0  0  0  0  0  0
   -1.6180   -0.6300    0.8640 N   0  0  0  0  0  0  0  0  0  0  0  0
   -0.4890   -1.0600    0.1500 C   0  0  0  0  0  0  0  0  0  0  0  0
   -0.5030   -1.0920   -1.0820 O   0  0  0  0  0  0  0  0  0  0  0  0
    0.7040   -1.4710    0.8790 C   0  0  0  0  0  0  0  0  0  0  0  0
    0.8730   -1.5050    2.2320 N   0  0  0  0  0  0  0  0  0  0  0  0
    2.0770   -1.9270    2.5360 N   0  0  0  0  0  0  0  0  0  0  0  0
    2.7790   -2.1990    1.4060 C   0  0  0  0  0  0  0  0  0  0  0  0
    4.1710   -2.7030    1.3140 C   0  0  0  0  0  0  0  0  0  0  0  0
    4.1960   -4.1900    0.9700 C   0  0  0  0  0  0  0  0  0  0  0  0
    1.9130   -1.9110    0.3700 C   0  0  0  0  0  0  0  0  0  0  0  0
    2.2230   -2.0510   -1.0490 C   0  0  0  0  0  0  0  0  0  0  0  0
    1.8170   -3.1160   -1.8020 C   0  0  0  0  0  0  0  0  0  0  0  0
    2.1180   -3.2430   -3.1300 C   0  0  0  0  0  0  0  0  0  0  0  0
    2.8640   -2.2510   -3.7360 C   0  0  0  0  0  0  0  0  0  0  0  0
    3.3030   -1.1560   -3.0390 C   0  0  0  0  0  0  0  0  0  0  0  0
    2.9730   -1.0710   -1.6910 C   0  0  0  0  0  0  0  0  0  0  0  0
    3.4540    0.1060   -0.9970 C   0  0  0  0  0  0  0  0  0  0  0  0
    2.5780    1.0110   -0.4660 C   0  0  0  0  0  0  0  0  0  0  0  0
    3.0670    2.1390    0.1990 C   0  0  0  0  0  0  0  0  0  0  0  0
    4.4370    2.3190    0.3080 C   0  0  0  0  0  0  0  0  0  0  0  0
    5.3210    1.4080   -0.2260 C   0  0  0  0  0  0  0  0  0  0  0  0
    4.7990    0.3090   -0.8740 C   0  0  0  0  0  0  0  0  0  0  0  0
    6.7210    1.8410    0.0310 C   0  0  0  0  0  0  0  0  0  0  0  0
    6.5630    2.8260    1.1430 C   0  0  0  0  0  0  0  0  0  0  0  0
    5.2420    3.3470    0.9170 N   0  0  0  0  0  0  0  0  0  0  0  0
   -3.1230   -0.1640   -1.0260 C   0  0  0  0  0  0  0  0  0  0  0  0
   -4.3840    0.2800   -1.4290 C   0  0  0  0  0  0  0  0  0  0  0  0
   -4.6110    0.3040   -2.7860 C   0  0  0  0  0  0  0  0  0  0  0  0
   -5.8390    0.7360   -3.2740 C   0  0  0  0  0  0  0  0  0  0  0  0
   -6.7830    1.1250   -2.3600 C   0  0  0  0  0  0  0  0  0  0  0  0
   -6.5670    1.1050   -0.9900 C   0  0  0  0  0  0  0  0  0  0  0  0
   -5.3330    0.6710   -0.5030 C   0  0  0  0  0  0  0  0  0  0  0  0
  1  2  1  0
  2  3  1  0
  3  4  1  0
  4  5  1  0
  4 39  1  0
  5  6  2  0
  5  7  1  0
  7  8  1  0
  7 33  2  0
  8  9  1  0
  9 10  2  0
  9 11  1  0
 11 12  1  0
 11 17  2  0
 12 13  1  0
 13 14  2  0
 14 15  1  0
 14 17  1  0
 15 16  1  0
 17 18  1  0
 18 19  2  0
 18 23  1  0
 19 20  1  0
 20 21  2  0
 21 22  1  0
 22 23  2  0
 23 24  1  0
 24 25  2  0
 24 29  1  0
 25 26  1  0
 26 27  2  0
 27 28  1  0
 27 32  1  0
 28 29  2  0
 28 30  1  0
 30 31  1  0
 31 32  1  0
 33 34  1  0
 34 35  2  0
 34 39  1  0
 35 36  1  0
 36 37  2  0
 37 38  1  0
 38 39  2  0
M  END
