
     RDKit          3D

 39 44  0  0  0  0  0  0  0  0999 V2000
   -3.3350    2.8360    3.8520 C   0  0  0  0  0  0  0  0  0  0  0  0
   -3.9160    2.4670    2.5830 N   0  0  0  0  0  0  0  0  0  0  0  0
   -3.2440    1.3890    1.9310 C   0  0  0  0  0  0  0  0  0  0  0  0
   -3.4030    0.0780    2.6380 C   0  0  0  0  0  0  0  0  0  0  0  0
   -2.6730   -1.0330    1.9220 C   0  0  0  0  0  0  0  0  0  0  0  0
   -3.1460   -1.2480    0.5370 C   0  0  0  0  0  0  0  0  0  0  0  0
   -4.3560   -1.5660    0.2740 N   0  0  0  0  0  0  0  0  0  0  0  0
   -4.8560   -1.7830   -1.0350 C   0  0  0  0  0  0  0  0  0  0  0  0
   -6.2850   -2.1430   -1.1910 C   0  0  0  0  0  0  0  0  0  0  0  0
   -6.8810   -2.1330   -2.4300 C   0  0  0  0  0  0  0  0  0  0  0  0
   -8.2060   -2.4620   -2.5980 C   0  0  0  0  0  0  0  0  0  0  0  0
   -8.9720   -2.8140   -1.5100 C   0  0  0  0  0  0  0  0  0  0  0  0
   -8.3970   -2.8320   -0.2570 C   0  0  0  0  0  0  0  0  0  0  0  0
   -7.0480   -2.4940   -0.1030 C   0  0  0  0  0  0  0  0  0  0  0  0
   -6.4430   -2.5090    1.1840 N   0  0  0  0  0  0  0  0  0  0  0  0
   -4.0900   -1.6650   -2.0510 N   0  0  0  0  0  0  0  0  0  0  0  0
   -2.7000   -1.3100   -1.8830 C   0  0  0  0  0  0  0  0  0  0  0  0
   -1.7310   -1.1290   -2.7490 C   0  0  0  0  0  0  0  0  0  0  0  0
   -0.4920   -0.7750   -2.0170 C   0  0  0  0  0  0  0  0  0  0  0  0
    0.6840   -0.6050   -2.5730 C   0  0  0  0  0  0  0  0  0  0  0  0
    1.8620   -0.2580   -1.8380 C   0  0  0  0  0  0  0  0  0  0  0  0
    2.8800   -1.2100   -1.7750 C   0  0  0  0  0  0  0  0  0  0  0  0
    4.0400   -0.9250   -1.1340 C   0  0  0  0  0  0  0  0  0  0  0  0
    4.2350    0.2880   -0.5430 C   0  0  0  0  0  0  0  0  0  0  0  0
    5.4100    0.5640    0.1000 O   0  0  0  0  0  0  0  0  0  0  0  0
    6.4930   -0.3060    0.2240 C   0  0  0  0  0  0  0  0  0  0  0  0
    7.5810    0.4360    1.0150 C   0  0  2  0  0  0  0  0  0  0  0  0
    7.9660    1.6420    0.2050 C   0  0  0  0  0  0  0  0  0  0  0  0
    9.4690    1.6690    0.3230 C   0  0  0  0  0  0  0  0  0  0  0  0
    9.7720    0.1920    0.5240 C   0  0  0  0  0  0  0  0  0  0  0  0
    8.6940   -0.3290    1.1860 O   0  0  0  0  0  0  0  0  0  0  0  0
    3.2500    1.2420   -0.5920 C   0  0  0  0  0  0  0  0  0  0  0  0
    3.4380    2.4940   -0.0150 C   0  0  0  0  0  0  0  0  0  0  0  0
    2.4610    3.4570   -0.0840 C   0  0  0  0  0  0  0  0  0  0  0  0
    1.2860    3.1590   -0.7390 C   0  0  0  0  0  0  0  0  0  0  0  0
    1.0700    1.9370   -1.3150 C   0  0  0  0  0  0  0  0  0  0  0  0
    2.0660    0.9760   -1.2350 C   0  0  0  0  0  0  0  0  0  0  0  0
   -0.8370   -0.7310   -0.6010 C   0  0  0  0  0  0  0  0  0  0  0  0
   -2.2470   -1.1030   -0.5650 N   0  0  0  0  0  0  0  0  0  0  0  0
  1  2  1  0
  2  3  1  0
  3  4  1  0
  4  5  1  0
  5  6  1  0
  6  7  2  0
  6 39  1  0
  7  8  1  0
  8  9  1  0
  8 16  2  0
  9 10  2  0
  9 14  1  0
 10 11  1  0
 11 12  2  0
 12 13  1  0
 13 14  2  0
 14 15  1  0
 16 17  1  0
 17 18  2  0
 17 39  1  0
 18 19  1  0
 19 20  2  3
 19 38  1  0
 20 21  1  0
 21 22  2  0
 21 37  1  0
 22 23  1  0
 23 24  2  0
 24 25  1  0
 24 32  1  0
 25 26  1  0
 27 26  1  6
 27 28  1  0
 27 31  1  0
 28 29  1  0
 29 30  1  0
 30 31  1  0
 32 33  2  0
 32 37  1  0
 33 34  1  0
 34 35  2  0
 35 36  1  0
 36 37  2  0
 38 39  1  0
M  END
