
     RDKit          3D

 39 44  0  0  0  0  0  0  0  0999 V2000
    7.3870   -1.3220   -3.6610 C   0  0  0  0  0  0  0  0  0  0  0  0
    7.0320   -0.5040   -2.4740 C   0  0  0  0  0  0  0  0  0  0  0  0
    5.7520   -0.6040   -1.9580 C   0  0  0  0  0  0  0  0  0  0  0  0
    5.4000    0.1410   -0.8620 C   0  0  0  0  0  0  0  0  0  0  0  0
    4.0980    0.0540   -0.3160 N   0  0  0  0  0  0  0  0  0  0  0  0
    3.8000   -0.7110    0.8840 C   0  0  0  0  0  0  0  0  0  0  0  0
    2.6580    0.0880    1.4820 C   0  0  0  0  0  0  0  0  0  0  0  0
    1.9690    0.7400    0.2940 C   0  0  2  0  0  0  0  0  0  0  0  0
    0.7080    0.1170   -0.0260 N   0  0  0  0  0  0  0  0  0  0  0  0
   -0.3280    0.1600    0.9440 C   0  0  0  0  0  0  0  0  0  0  0  0
   -0.1880    0.8300    2.1460 C   0  0  0  0  0  0  0  0  0  0  0  0
   -1.2400    0.8310    3.0520 C   0  0  0  0  0  0  0  0  0  0  0  0
   -2.4080    0.1760    2.7640 C   0  0  0  0  0  0  0  0  0  0  0  0
   -2.5670   -0.5000    1.5670 C   0  0  0  0  0  0  0  0  0  0  0  0
   -3.7970   -1.1890    1.2760 N   0  0  0  0  0  0  0  0  0  0  0  0
   -4.0930   -2.3050    2.1450 C   0  0  0  0  0  0  0  0  0  0  0  0
   -3.5630   -3.5940    1.6710 C   0  0  0  0  0  0  0  0  0  0  0  0
   -2.3060   -4.0720    2.0180 C   0  0  0  0  0  0  0  0  0  0  0  0
   -2.1190   -5.2550    1.4380 N   0  0  0  0  0  0  0  0  0  0  0  0
   -3.2010   -5.5520    0.7360 N   0  0  0  0  0  0  0  0  0  0  0  0
   -4.1170   -4.5520    0.8540 C   0  0  0  0  0  0  0  0  0  0  0  0
   -4.6180   -0.7740    0.2170 C   0  0  0  0  0  0  0  0  0  0  0  0
   -5.6900   -1.4780    0.0680 O   0  0  0  0  0  0  0  0  0  0  0  0
   -4.3810    0.3480   -0.7060 C   0  0  1  0  0  0  0  0  0  0  0  0
   -5.4770    0.4340   -1.7550 C   0  0  0  0  0  0  0  0  0  0  0  0
   -6.2110    1.7370   -1.6480 C   0  0  0  0  0  0  0  0  0  0  0  0
   -6.6850    2.0680   -0.2590 C   0  0  2  0  0  0  0  0  0  0  0  0
   -7.3800    3.4170   -0.2140 C   0  0  0  0  0  0  0  0  0  0  0  0
   -5.5080    2.1160    0.6540 C   0  0  0  0  0  0  0  0  0  0  0  0
   -4.2400    1.6840   -0.0470 C   0  0  0  0  0  0  0  0  0  0  0  0
   -1.5180   -0.4910    0.6840 C   0  0  0  0  0  0  0  0  0  0  0  0
    2.9320    0.6610   -0.8160 C   0  0  0  0  0  0  0  0  0  0  0  0
    2.7350    1.0640   -1.9830 O   0  0  0  0  0  0  0  0  0  0  0  0
    6.3030    0.9920   -0.2640 C   0  0  0  0  0  0  0  0  0  0  0  0
    7.6010    1.1100   -0.7680 C   0  0  0  0  0  0  0  0  0  0  0  0
    7.9500    0.3590   -1.8700 C   0  0  0  0  0  0  0  0  0  0  0  0
    9.2070    0.5970   -2.2050 C   0  0  0  0  0  0  0  0  0  0  0  0
    9.7680    1.5940   -1.2560 C   0  0  0  0  0  0  0  0  0  0  0  0
    8.6140    1.8550   -0.3580 C   0  0  0  0  0  0  0  0  0  0  0  0
  1  2  1  0
  2  3  2  0
  2 36  1  0
  3  4  1  0
  4  5  1  0
  4 34  2  0
  5  6  1  0
  5 32  1  0
  6  7  1  0
  7  8  1  0
  8  9  1  6
  8 32  1  0
  9 10  1  0
 10 11  2  0
 10 31  1  0
 11 12  1  0
 12 13  2  0
 13 14  1  0
 14 15  1  0
 14 31  2  0
 15 16  1  0
 15 22  1  0
 16 17  1  0
 17 18  1  0
 17 21  2  0
 18 19  2  0
 19 20  1  0
 20 21  1  0
 22 23  2  0
 24 22  1  1
 24 25  1  0
 24 30  1  0
 25 26  1  0
 26 27  1  0
 27 28  1  6
 27 29  1  0
 29 30  1  0
 32 33  2  0
 34 35  1  0
 35 36  1  0
 35 39  2  0
 36 37  2  0
 37 38  1  0
 38 39  1  0
M  END
