
     RDKit          3D

 14 13  0  0  0  0  0  0  0  0999 V2000
    1.2200   -1.1510    0.8980 C   0  0  0  0  0  0  0  0  0  0  0  0
    1.1660   -0.2590   -0.2050 N   0  0  2  0  0  0  0  0  0  0  0  0
    2.3830    0.5740   -0.1370 C   0  0  0  0  0  0  0  0  0  0  0  0
    3.5880   -0.2360    0.2360 C   0  0  0  0  0  0  0  0  0  0  0  0
    4.6690    0.6760    0.2640 O   0  0  0  0  0  0  0  0  0  0  0  0
    0.0840    0.6420   -0.2960 C   0  0  0  0  0  0  0  0  0  0  0  0
   -1.2970    0.1360   -0.0980 C   0  0  2  0  0  0  0  0  0  0  0  0
   -1.6520   -0.9890   -1.0580 C   0  0  0  0  0  0  0  0  0  0  0  0
   -1.5300   -0.6050   -2.4350 N   0  0  0  0  0  0  0  0  0  0  0  0
   -2.2060    1.3280   -0.4240 C   0  0  0  0  0  0  0  0  0  0  0  0
   -3.5370    1.0350   -0.3280 O   0  0  0  0  0  0  0  0  0  0  0  0
   -1.4610   -0.3790    1.1440 O   0  0  0  0  0  0  0  0  0  0  0  0
   -1.3110    0.3920    2.2380 C   0  0  0  0  0  0  0  0  0  0  0  0
   -2.2080    1.4730    2.2820 O   0  0  0  0  0  0  0  0  0  0  0  0
  2  1  1  1
  2  3  1  0
  2  6  1  0
  3  4  1  0
  4  5  1  0
  7  6  1  1
  7  8  1  0
  7 10  1  0
  7 12  1  0
  8  9  1  0
 10 11  1  0
 12 13  1  0
 13 14  1  0
M  CHG  2   2   1   9   1
M  END
