
     RDKit          3D

 12 12  0  0  0  0  0  0  0  0999 V2000
    0.9930   -2.3150   -0.8820 C   0  0  0  0  0  0  0  0  0  0  0  0
    0.8180   -1.0640    0.0870 C   0  0  1  0  0  0  0  0  0  0  0  0
    2.0770   -0.3130   -0.0190 C   0  0  0  0  0  0  0  0  0  0  0  0
    2.3140    0.8940    0.7860 C   0  0  0  0  0  0  0  0  0  0  0  0
    3.7350    1.3920    0.4480 C   0  0  0  0  0  0  0  0  0  0  0  0
    4.6300    0.3770    0.7760 O   0  0  0  0  0  0  0  0  0  0  0  0
   -0.4620   -0.4910   -0.4000 C   0  0  0  0  0  0  0  0  0  0  0  0
   -0.9780    0.7010    0.2730 C   0  0  0  0  0  0  0  0  0  0  0  0
   -2.2290    1.1210   -0.2030 O   0  0  0  0  0  0  0  0  0  0  0  0
   -3.2240    0.2050   -0.0630 C   0  0  2  0  0  0  0  0  0  0  0  0
   -4.4530    0.2060   -0.8840 C   0  0  0  0  0  0  0  0  0  0  0  0
   -4.5410    0.7940    0.4680 C   0  0  0  0  0  0  0  0  0  0  0  0
  2  1  1  6
  2  3  1  0
  2  7  1  0
  3  4  1  0
  4  5  1  0
  5  6  1  0
  7  8  1  0
  8  9  1  0
 10  9  1  6
 10 11  1  0
 10 12  1  0
 11 12  1  0
M  END
