
     RDKit          3D

 12 11  0  0  0  0  0  0  0  0999 V2000
    4.6030    0.5350    1.4510 C   0  0  0  0  0  0  0  0  0  0  0  0
    3.3560    0.1730    0.6510 C   0  0  0  0  0  0  0  0  0  0  0  0
    2.2380    1.1100    0.9870 C   0  0  0  0  0  0  0  0  0  0  0  0
    0.9810    0.7900    0.2130 C   0  0  0  0  0  0  0  0  0  0  0  0
    0.5020   -0.6230    0.5220 C   0  0  0  0  0  0  0  0  0  0  0  0
   -0.7380   -0.9770   -0.2190 C   0  0  1  0  0  0  0  0  0  0  0  0
   -1.1210   -2.3950    0.1620 C   0  0  0  0  0  0  0  0  0  0  0  0
   -2.1420   -2.7970   -0.7010 O   0  0  0  0  0  0  0  0  0  0  0  0
   -1.8110   -0.1840   -0.0870 O   0  0  0  0  0  0  0  0  0  0  0  0
   -2.3670    0.3930   -1.1810 C   0  0  2  0  0  0  0  0  0  0  0  0
   -2.2850    1.8990   -1.0050 C   0  0  0  0  0  0  0  0  0  0  0  0
   -3.8450    0.0660   -1.2640 C   0  0  0  0  0  0  0  0  0  0  0  0
  1  2  1  0
  2  3  1  0
  3  4  1  0
  4  5  1  0
  6  5  1  1
  6  7  1  0
  6  9  1  0
  7  8  1  0
  9 10  1  0
 10 11  1  1
 10 12  1  0
M  END
