
     RDKit          3D

 12 11  0  0  0  0  0  0  0  0999 V2000
   -4.4660    0.8330   -0.8570 C   0  0  0  0  0  0  0  0  0  0  0  0
   -4.2960   -0.6680   -0.8230 C   0  0  0  0  0  0  0  0  0  0  0  0
   -2.8720   -1.0680   -1.1470 C   0  0  0  0  0  0  0  0  0  0  0  0
   -1.9610   -0.4380   -0.1120 C   0  0  0  0  0  0  0  0  0  0  0  0
   -0.5040   -0.8030   -0.3760 C   0  0  0  0  0  0  0  0  0  0  0  0
    0.3490   -0.1430    0.6920 C   0  0  0  0  0  0  0  0  0  0  0  0
    1.8170   -0.4570    0.5010 C   0  0  0  0  0  0  0  0  0  0  0  0
    2.6880    0.1730    1.5300 C   0  0  0  0  0  0  0  0  0  0  0  0
    4.1270   -0.1980    1.2610 C   0  0  0  0  0  0  0  0  0  0  0  0
    4.6190    0.2390   -0.0550 C   0  0  0  0  0  0  0  0  0  0  0  0
    4.3380   -0.4410   -1.0830 O   0  0  0  0  0  0  0  0  0  0  0  0
    5.3900    1.4000   -0.1600 O   0  0  0  0  0  0  0  0  0  0  0  0
  1  2  1  0
  2  3  1  0
  3  4  1  0
  4  5  1  0
  5  6  1  0
  6  7  1  0
  7  8  1  0
  8  9  1  0
  9 10  1  0
 10 11  2  0
 10 12  1  0
M  END
