
     RDKit          3D

 12 11  0  0  0  0  0  0  0  0999 V2000
   -1.3490   -1.7620   -1.7830 C   0  0  0  0  0  0  0  0  0  0  0  0
   -1.1240   -0.6240   -1.1500 C   0  0  0  0  0  0  0  0  0  0  0  0
   -0.4120    0.5100   -1.8000 C   0  0  0  0  0  0  0  0  0  0  0  0
    0.8610    0.8450   -1.1660 C   0  0  0  0  0  0  0  0  0  0  0  0
    1.5070    1.8300   -1.6070 O   0  0  0  0  0  0  0  0  0  0  0  0
    1.4350    0.1600   -0.0990 O   0  0  0  0  0  0  0  0  0  0  0  0
    2.6750    0.5210    0.4840 C   0  0  0  0  0  0  0  0  0  0  0  0
    3.8070    0.4690   -0.4860 C   0  0  0  0  0  0  0  0  0  0  0  0
   -1.5730   -0.4370    0.2200 C   0  0  0  0  0  0  0  0  0  0  0  0
   -2.2740   -1.5550    0.8900 C   0  0  0  0  0  0  0  0  0  0  0  0
   -1.3860    0.6770    0.8980 C   0  0  0  0  0  0  0  0  0  0  0  0
   -1.8460    0.8600    2.2960 C   0  0  0  0  0  0  0  0  0  0  0  0
  1  2  2  0
  2  3  1  0
  2  9  1  0
  3  4  1  0
  4  5  2  0
  4  6  1  0
  6  7  1  0
  7  8  1  0
  9 10  1  0
  9 11  2  3
 11 12  1  0
M  END
