
     RDKit          3D

 12 11  0  0  0  0  0  0  0  0999 V2000
    4.9510    0.7930    0.4610 C   0  0  0  0  0  0  0  0  0  0  0  0
    4.2160   -0.5460    0.3670 C   0  0  0  0  0  0  0  0  0  0  0  0
    2.7760   -0.2160   -0.0820 C   0  0  0  0  0  0  0  0  0  0  0  0
    2.0340   -1.3570   -0.1950 O   0  0  0  0  0  0  0  0  0  0  0  0
    0.7520   -1.2690   -0.6280 C   0  0  0  0  0  0  0  0  0  0  0  0
   -0.1840   -0.4340    0.2000 C   0  0  1  0  0  0  0  0  0  0  0  0
    0.2540    0.8600    0.2130 O   0  0  0  0  0  0  0  0  0  0  0  0
   -1.5710   -0.5970   -0.3630 C   0  0  0  0  0  0  0  0  0  0  0  0
   -2.6220    0.1840    0.3670 C   0  0  1  0  0  0  0  0  0  0  0  0
   -2.4170    1.6520    0.3870 C   0  0  0  0  0  0  0  0  0  0  0  0
   -3.9450   -0.1140   -0.3520 C   0  0  0  0  0  0  0  0  0  0  0  0
   -2.7980   -0.2960    1.7900 C   0  0  0  0  0  0  0  0  0  0  0  0
  1  2  1  0
  2  3  1  0
  3  4  1  0
  4  5  1  0
  5  6  1  0
  6  7  1  6
  6  8  1  0
  8  9  1  0
  9 10  1  1
  9 11  1  0
  9 12  1  0
M  END
