
     RDKit          3D

 12 11  0  0  0  0  0  0  0  0999 V2000
    3.9660    0.3490   -1.0920 C   0  0  0  0  0  0  0  0  0  0  0  0
    3.4220    0.4460    0.0880 C   0  0  0  0  0  0  0  0  0  0  0  0
    2.2640   -0.2930    0.5270 C   0  0  0  0  0  0  0  0  0  0  0  0
    1.8280   -0.1070    1.7820 C   0  0  0  0  0  0  0  0  0  0  0  0
    1.5500   -1.2530   -0.3390 C   0  0  0  0  0  0  0  0  0  0  0  0
    0.7450   -0.6560   -1.4350 C   0  0  0  0  0  0  0  0  0  0  0  0
   -0.2800    0.2050   -0.9650 O   0  0  0  0  0  0  0  0  0  0  0  0
   -1.3080   -0.2200   -0.1230 C   0  0  0  0  0  0  0  0  0  0  0  0
   -1.2880   -1.4280    0.2080 O   0  0  0  0  0  0  0  0  0  0  0  0
   -2.3680    0.6890    0.3590 C   0  0  2  0  0  0  0  0  0  0  0  0
   -3.3050   -0.1060    1.2420 C   0  0  0  0  0  0  0  0  0  0  0  0
   -3.1740    1.2390   -0.7990 C   0  0  0  0  0  0  0  0  0  0  0  0
  1  2  2  0
  2  3  1  0
  3  4  2  0
  3  5  1  0
  5  6  1  0
  6  7  1  0
  7  8  1  0
  8  9  2  0
  8 10  1  0
 10 11  1  1
 10 12  1  0
M  END
