
     RDKit          3D

 12 11  0  0  0  0  0  0  0  0999 V2000
    4.5280    1.0250    0.1970 C   0  0  0  0  0  0  0  0  0  0  0  0
    3.5090   -0.0980    0.3250 C   0  0  2  0  0  0  0  0  0  0  0  0
    3.9170   -1.3130   -0.4440 C   0  0  0  0  0  0  0  0  0  0  0  0
    2.1320    0.4110   -0.1330 C   0  0  0  0  0  0  0  0  0  0  0  0
    1.2770   -0.6450    0.0090 O   0  0  0  0  0  0  0  0  0  0  0  0
   -0.0460   -0.3910   -0.3700 C   0  0  0  0  0  0  0  0  0  0  0  0
   -0.6790    0.6940    0.4140 C   0  0  0  0  0  0  0  0  0  0  0  0
   -2.0780    1.0000    0.0280 C   0  0  0  0  0  0  0  0  0  0  0  0
   -3.1000   -0.0660    0.1540 C   0  0  1  0  0  0  0  0  0  0  0  0
   -4.4290    0.6100   -0.2950 C   0  0  0  0  0  0  0  0  0  0  0  0
   -2.9650   -1.2430   -0.7650 C   0  0  0  0  0  0  0  0  0  0  0  0
   -3.2760   -0.4540    1.4790 O   0  0  0  0  0  0  0  0  0  0  0  0
  2  1  1  6
  2  3  1  0
  2  4  1  0
  4  5  1  0
  5  6  1  0
  6  7  1  0
  7  8  1  0
  8  9  1  0
  9 10  1  6
  9 11  1  0
  9 12  1  0
M  END
