
     RDKit          3D

 19 21  0  0  0  0  0  0  0  0999 V2000
    5.5400    0.0260    0.2040 C   0  0  0  0  0  0  0  0  0  0  0  0
    4.9010    0.3130   -1.1390 C   0  0  0  0  0  0  0  0  0  0  0  0
    3.4880    0.3420   -0.9280 O   0  0  0  0  0  0  0  0  0  0  0  0
    2.8380   -0.7760   -0.4370 C   0  0  0  0  0  0  0  0  0  0  0  0
    3.4930   -1.8170   -0.1780 O   0  0  0  0  0  0  0  0  0  0  0  0
    1.3790   -0.7400   -0.2200 C   0  0  0  0  0  0  0  0  0  0  0  0
    0.7430   -1.8610    0.2690 C   0  0  0  0  0  0  0  0  0  0  0  0
   -0.6290   -1.8450    0.4790 C   0  0  0  0  0  0  0  0  0  0  0  0
   -1.3220   -0.6830    0.1850 C   0  0  0  0  0  0  0  0  0  0  0  0
   -0.7300    0.4600   -0.3050 C   0  0  0  0  0  0  0  0  0  0  0  0
    0.6610    0.3900   -0.5000 C   0  0  0  0  0  0  0  0  0  0  0  0
    1.3170    1.5520   -1.0060 N   0  0  0  0  0  0  0  0  0  0  0  0
   -1.4380    1.7010   -0.6280 C   0  0  0  0  0  0  0  0  0  0  0  0
   -2.8910    1.7390   -0.4030 C   0  0  0  0  0  0  0  0  0  0  0  0
   -3.5510    0.5240    0.1220 C   0  0  0  0  0  0  0  0  0  0  0  0
   -4.8280    0.2580    0.4170 C   0  0  0  0  0  0  0  0  0  0  0  0
   -4.9150   -1.1180    0.9070 C   0  0  0  0  0  0  0  0  0  0  0  0
   -3.5440   -1.6370    0.8680 C   0  0  0  0  0  0  0  0  0  0  0  0
   -2.7750   -0.6590    0.4080 C   0  0  0  0  0  0  0  0  0  0  0  0
  1  2  1  0
  2  3  1  0
  3  4  1  0
  4  5  2  0
  4  6  1  0
  6  7  2  0
  6 11  1  0
  7  8  1  0
  8  9  2  0
  9 10  1  0
  9 19  1  0
 10 11  2  0
 10 13  1  0
 11 12  1  0
 13 14  1  0
 14 15  1  0
 15 16  2  0
 15 19  1  0
 16 17  1  0
 17 18  1  0
 18 19  2  0
M  END
