
     RDKit          3D

 19 21  0  0  0  0  0  0  0  0999 V2000
    6.7280   -0.0030   -0.5430 N   0  0  0  0  0  0  0  0  0  0  0  0
    5.7140   -0.2980    0.3970 C   0  0  0  0  0  0  0  0  0  0  0  0
    6.0490   -0.7190    1.5230 O   0  0  0  0  0  0  0  0  0  0  0  0
    4.2760   -0.1380    0.1260 C   0  0  0  0  0  0  0  0  0  0  0  0
    3.7190    0.2900   -0.9920 C   0  0  0  0  0  0  0  0  0  0  0  0
    2.2770    0.3060   -0.8640 C   0  0  0  0  0  0  0  0  0  0  0  0
    1.9510   -0.1130    0.3370 C   0  0  0  0  0  0  0  0  0  0  0  0
    0.5790   -0.2390    0.8520 C   0  0  0  0  0  0  0  0  0  0  0  0
    0.2240   -0.6730    2.0960 C   0  0  0  0  0  0  0  0  0  0  0  0
   -1.1560   -0.6360    2.1610 C   0  0  0  0  0  0  0  0  0  0  0  0
   -1.5700   -0.1710    0.9220 C   0  0  0  0  0  0  0  0  0  0  0  0
   -2.9750    0.0390    0.5090 C   0  0  0  0  0  0  0  0  0  0  0  0
   -3.9520   -0.2200    1.3450 C   0  0  0  0  0  0  0  0  0  0  0  0
   -5.3200   -0.0190    0.9540 C   0  0  0  0  0  0  0  0  0  0  0  0
   -5.6170    0.4250   -0.2400 C   0  0  0  0  0  0  0  0  0  0  0  0
   -4.6020    0.7460   -1.2520 C   0  0  0  0  0  0  0  0  0  0  0  0
   -3.1850    0.5440   -0.8650 C   0  0  0  0  0  0  0  0  0  0  0  0
   -0.5000    0.0420    0.2030 O   0  0  0  0  0  0  0  0  0  0  0  0
    3.1870   -0.4310    1.0700 C   0  0  0  0  0  0  0  0  0  0  0  0
  1  2  1  0
  2  3  2  0
  2  4  1  0
  4  5  2  0
  4 19  1  0
  5  6  1  0
  6  7  2  0
  7  8  1  0
  7 19  1  0
  8  9  2  0
  8 18  1  0
  9 10  1  0
 10 11  2  0
 11 12  1  0
 11 18  1  0
 12 13  2  0
 12 17  1  0
 13 14  1  0
 14 15  2  0
 15 16  1  0
 16 17  1  0
M  END
