
     RDKit          3D

 19 21  0  0  0  0  0  0  0  0999 V2000
   -2.6800    1.9630    0.1850 C   0  0  0  0  0  0  0  0  0  0  0  0
   -1.6240    0.9460    0.0810 C   0  0  0  0  0  0  0  0  0  0  0  0
   -1.9940   -0.3790   -0.0160 C   0  0  0  0  0  0  0  0  0  0  0  0
   -3.3820   -0.8120   -0.0210 C   0  0  0  0  0  0  0  0  0  0  0  0
   -3.9250   -1.0760    1.0740 O   0  0  0  0  0  0  0  0  0  0  0  0
   -0.9890   -1.3330   -0.1140 C   0  0  0  0  0  0  0  0  0  0  0  0
   -1.3890   -2.7720   -0.2190 C   0  0  0  0  0  0  0  0  0  0  0  0
    0.3340   -0.9490   -0.1120 C   0  0  0  0  0  0  0  0  0  0  0  0
    1.1450   -2.1160   -0.2240 N   0  0  0  0  0  0  0  0  0  0  0  0
    2.5590   -2.2690   -0.0390 C   0  0  0  0  0  0  0  0  0  0  0  0
    3.0090   -3.4180    0.1950 O   0  0  0  0  0  0  0  0  0  0  0  0
    3.5250   -1.1740   -0.1030 C   0  0  0  0  0  0  0  0  0  0  0  0
    3.2900    0.1280   -0.0870 C   0  0  0  0  0  0  0  0  0  0  0  0
    2.0290    0.8660   -0.0030 C   0  0  0  0  0  0  0  0  0  0  0  0
    2.3210    2.2090    0.0990 C   0  0  0  0  0  0  0  0  0  0  0  0
    1.3130    3.1440    0.1950 C   0  0  0  0  0  0  0  0  0  0  0  0
    0.0230    2.6810    0.1850 C   0  0  0  0  0  0  0  0  0  0  0  0
   -0.2760    1.3380    0.0830 C   0  0  0  0  0  0  0  0  0  0  0  0
    0.7170    0.3840   -0.0140 C   0  0  0  0  0  0  0  0  0  0  0  0
  1  2  1  0
  2  3  2  0
  2 18  1  0
  3  4  1  0
  3  6  1  0
  4  5  2  0
  6  7  1  0
  6  8  2  0
  8  9  1  0
  8 19  1  0
  9 10  1  0
 10 11  2  0
 10 12  1  0
 12 13  2  0
 13 14  1  0
 14 15  1  0
 14 19  2  0
 15 16  2  0
 16 17  1  0
 17 18  2  0
 18 19  1  0
M  END
