
     RDKit          3D

 19 21  0  0  0  0  0  0  0  0999 V2000
   -3.9500   -2.3790   -0.2670 C   0  0  0  0  0  0  0  0  0  0  0  0
   -2.9720   -1.5840    0.0770 C   0  0  0  0  0  0  0  0  0  0  0  0
   -1.8240   -1.9300    0.9270 C   0  0  0  0  0  0  0  0  0  0  0  0
   -1.2280   -0.5960    1.3840 C   0  0  0  0  0  0  0  0  0  0  0  0
   -1.4410    0.2270    0.1330 C   0  0  0  0  0  0  0  0  0  0  0  0
   -0.5750    1.0640   -0.3740 C   0  0  0  0  0  0  0  0  0  0  0  0
    0.6840    1.2580    0.2580 N   0  0  0  0  0  0  0  0  0  0  0  0
    1.8190    0.5250   -0.1620 C   0  0  0  0  0  0  0  0  0  0  0  0
    1.7220   -0.3930   -1.1960 C   0  0  0  0  0  0  0  0  0  0  0  0
    2.8440   -1.0920   -1.5830 C   0  0  0  0  0  0  0  0  0  0  0  0
    4.0610   -0.8840   -0.9500 C   0  0  0  0  0  0  0  0  0  0  0  0
    4.1500    0.0380    0.0850 C   0  0  0  0  0  0  0  0  0  0  0  0
    3.0270    0.7300    0.4650 C   0  0  0  0  0  0  0  0  0  0  0  0
    3.4010    1.5670    1.5030 O   0  0  0  0  0  0  0  0  0  0  0  0
    4.7330    1.3600    1.8760 C   0  0  0  0  0  0  0  0  0  0  0  0
    5.1980    0.4640    0.9000 O   0  0  0  0  0  0  0  0  0  0  0  0
   -2.7840   -0.1710   -0.2960 C   0  0  0  0  0  0  0  0  0  0  0  0
   -3.6300    0.6100   -0.8980 C   0  0  0  0  0  0  0  0  0  0  0  0
   -3.3700    2.0230   -1.2400 C   0  0  0  0  0  0  0  0  0  0  0  0
  1  2  2  0
  2  3  1  0
  2 17  1  0
  3  4  1  0
  4  5  1  0
  5  6  2  3
  5 17  1  0
  6  7  1  0
  7  8  1  0
  8  9  2  0
  8 13  1  0
  9 10  1  0
 10 11  2  0
 11 12  1  0
 12 13  2  0
 12 16  1  0
 13 14  1  0
 14 15  1  0
 15 16  1  0
 17 18  2  3
 18 19  1  0
M  END
