
     RDKit          3D

 10  9  0  0  0  0  0  0  0  0999 V2000
   -4.3910    0.1530   -0.2370 C   0  0  0  0  0  0  0  0  0  0  0  0
   -3.0440    0.1850    0.4500 C   0  0  0  0  0  0  0  0  0  0  0  0
   -1.9090    0.0020   -0.5590 C   0  0  0  0  0  0  0  0  0  0  0  0
   -0.6210    0.0530    0.2500 C   0  0  0  0  0  0  0  0  0  0  0  0
    0.5890   -0.1200   -0.6580 C   0  0  0  0  0  0  0  0  0  0  0  0
    1.8170   -0.0570    0.2260 C   0  0  0  0  0  0  0  0  0  0  0  0
    3.0380   -0.2280   -0.6640 C   0  0  0  0  0  0  0  0  0  0  0  0
    4.2260   -0.1640    0.2100 C   0  0  0  0  0  0  0  0  0  0  0  0
    5.3580   -0.2860   -0.3420 O   0  0  0  0  0  0  0  0  0  0  0  0
    4.1680    0.0210    1.5850 O   0  0  0  0  0  0  0  0  0  0  0  0
  1  2  1  0
  2  3  1  0
  3  4  1  0
  4  5  1  0
  5  6  1  0
  6  7  1  0
  7  8  1  0
  8  9  2  0
  8 10  1  0
M  END
