
     RDKit          3D

 19 21  0  0  0  0  0  0  0  0999 V2000
   -4.9580   -0.0630   -0.0780 C   0  0  0  0  0  0  0  0  0  0  0  0
   -3.7180   -0.3600    0.2640 C   0  0  0  0  0  0  0  0  0  0  0  0
   -3.2120   -1.7400    0.0840 C   0  0  0  0  0  0  0  0  0  0  0  0
   -2.0360   -1.7140   -0.8820 C   0  0  0  0  0  0  0  0  0  0  0  0
   -1.4410   -0.3280   -0.9760 C   0  0  0  0  0  0  0  0  0  0  0  0
   -1.3870    0.3060    0.3950 C   0  0  1  0  0  0  0  0  0  0  0  0
   -0.5510    1.4730    0.3690 N   0  0  0  0  0  0  0  0  0  0  0  0
    0.8370    1.3490    0.1560 C   0  0  0  0  0  0  0  0  0  0  0  0
    1.6220    2.4600   -0.1020 C   0  0  0  0  0  0  0  0  0  0  0  0
    2.9750    2.3380   -0.2930 C   0  0  0  0  0  0  0  0  0  0  0  0
    3.5610    1.0830   -0.2260 C   0  0  0  0  0  0  0  0  0  0  0  0
    4.8470    0.9500   -0.4060 O   0  0  0  0  0  0  0  0  0  0  0  0
    5.4640   -0.2100   -0.3560 C   0  0  0  0  0  0  0  0  0  0  0  0
    4.7690   -1.3600   -0.1070 C   0  0  0  0  0  0  0  0  0  0  0  0
    3.4130   -1.2700    0.0890 C   0  0  0  0  0  0  0  0  0  0  0  0
    2.7470   -2.3060    0.3200 O   0  0  0  0  0  0  0  0  0  0  0  0
    2.8120   -0.0350    0.0270 C   0  0  0  0  0  0  0  0  0  0  0  0
    1.4370    0.1190    0.2180 C   0  0  0  0  0  0  0  0  0  0  0  0
   -2.8040    0.6650    0.8310 C   0  0  0  0  0  0  0  0  0  0  0  0
  1  2  2  0
  2  3  1  0
  2 19  1  0
  3  4  1  0
  4  5  1  0
  5  6  1  0
  6  7  1  6
  6 19  1  0
  7  8  1  0
  8  9  2  0
  8 18  1  0
  9 10  1  0
 10 11  2  0
 11 12  1  0
 11 17  1  0
 12 13  1  0
 13 14  2  0
 14 15  1  0
 15 16  2  0
 15 17  1  0
 17 18  2  0
M  END
