
     RDKit          3D

 19 21  0  0  0  0  0  0  0  0999 V2000
    5.2420   -0.5080    0.1830 C   0  0  0  0  0  0  0  0  0  0  0  0
    3.8760   -0.5960    0.0090 C   0  0  0  0  0  0  0  0  0  0  0  0
    3.4580   -1.7950   -0.4840 O   0  0  0  0  0  0  0  0  0  0  0  0
    3.1330    0.5440    0.3610 C   0  0  0  0  0  0  0  0  0  0  0  0
    1.8830    0.8960    0.3630 C   0  0  0  0  0  0  0  0  0  0  0  0
    1.4350    2.1470    0.7870 N   0  0  0  0  0  0  0  0  0  0  0  0
    0.1100    2.2240    0.6800 C   0  0  0  0  0  0  0  0  0  0  0  0
   -0.8420    3.2020    0.9490 C   0  0  0  0  0  0  0  0  0  0  0  0
   -2.1940    2.9260    0.7070 C   0  0  0  0  0  0  0  0  0  0  0  0
   -2.6340    1.7140    0.2070 C   0  0  0  0  0  0  0  0  0  0  0  0
   -1.6650    0.7510   -0.0550 C   0  0  0  0  0  0  0  0  0  0  0  0
   -1.9560   -0.5080   -0.5570 C   0  0  0  0  0  0  0  0  0  0  0  0
   -3.2780   -0.8400   -0.8170 O   0  0  0  0  0  0  0  0  0  0  0  0
   -4.0420   -1.4370    0.2130 C   0  0  0  0  0  0  0  0  0  0  0  0
   -0.8970   -1.3670   -0.7710 C   0  0  0  0  0  0  0  0  0  0  0  0
   -1.1530   -2.7240   -1.3060 C   0  0  0  0  0  0  0  0  0  0  0  0
    0.4300   -1.0110   -0.5010 C   0  0  0  0  0  0  0  0  0  0  0  0
    0.7320    0.2420    0.0000 C   0  0  0  0  0  0  0  0  0  0  0  0
   -0.3610    1.0570    0.1940 C   0  0  0  0  0  0  0  0  0  0  0  0
  1  2  2  0
  2  3  1  0
  2  4  1  0
  4  5  2  3
  5  6  1  0
  5 18  1  0
  6  7  1  0
  7  8  2  0
  7 19  1  0
  8  9  1  0
  9 10  2  0
 10 11  1  0
 11 12  1  0
 11 19  2  0
 12 13  1  0
 12 15  2  0
 13 14  1  0
 15 16  1  0
 15 17  1  0
 17 18  2  0
 18 19  1  0
M  END
