
     RDKit          3D

 24 25  0  0  0  0  0  0  0  0999 V2000
    9.0380    1.6040    0.8110 C   0  0  0  0  0  0  0  0  0  0  0  0
    9.2260    0.0840    0.7750 C   0  0  0  0  0  0  0  0  0  0  0  0
    7.9850   -0.5580    0.7760 O   0  0  0  0  0  0  0  0  0  0  0  0
    7.0590   -0.6120   -0.2440 C   0  0  0  0  0  0  0  0  0  0  0  0
    7.3300   -0.0950   -1.3480 O   0  0  0  0  0  0  0  0  0  0  0  0
    5.7970   -1.2170   -0.0380 N   0  0  0  0  0  0  0  0  0  0  0  0
    4.8090   -1.2340   -1.1350 C   0  0  0  0  0  0  0  0  0  0  0  0
    3.5540   -1.6060   -0.3160 C   0  0  0  0  0  0  0  0  0  0  0  0
    3.5270   -2.5620    0.4700 O   0  0  0  0  0  0  0  0  0  0  0  0
    2.4580   -0.8120   -0.4540 O   0  0  0  0  0  0  0  0  0  0  0  0
    1.2760   -0.8950    0.2800 C   0  0  0  0  0  0  0  0  0  0  0  0
    0.5330    0.4110   -0.1460 C   0  0  0  0  0  0  0  0  0  0  0  0
   -0.7230    0.8640    0.9250 S   0  0  0  0  0  0  0  0  0  0  0  0
   -2.0620   -0.0400    1.4510 C   0  0  0  0  0  0  0  0  0  0  0  0
   -3.0360   -0.5860    0.4860 C   0  0  0  0  0  0  0  0  0  0  0  0
   -3.0050   -1.6580   -0.3460 C   0  0  0  0  0  0  0  0  0  0  0  0
   -4.2660   -1.8870   -0.8210 N   0  0  0  0  0  0  0  0  0  0  0  0
   -5.1220   -0.9900   -0.3200 C   0  0  0  0  0  0  0  0  0  0  0  0
   -4.3840   -0.1770    0.4790 C   0  0  0  0  0  0  0  0  0  0  0  0
   -5.1330    0.9950    0.9810 C   0  0  0  0  0  0  0  0  0  0  0  0
   -6.2460    1.0470   -0.0780 C   0  0  2  0  0  0  0  0  0  0  0  0
   -5.7090    1.5040   -1.3880 C   0  0  0  0  0  0  0  0  0  0  0  0
   -7.3770    1.8580    0.4400 C   0  0  0  0  0  0  0  0  0  0  0  0
   -6.5280   -0.4450   -0.2030 C   0  0  0  0  0  0  0  0  0  0  0  0
  1  2  1  0
  2  3  1  0
  3  4  1  0
  4  5  2  0
  4  6  1  0
  6  7  1  0
  7  8  1  0
  8  9  2  0
  8 10  1  0
 10 11  1  0
 11 12  1  0
 12 13  1  0
 13 14  1  0
 14 15  1  0
 15 16  2  0
 15 19  1  0
 16 17  1  0
 17 18  1  0
 18 19  2  0
 18 24  1  0
 19 20  1  0
 20 21  1  0
 21 22  1  6
 21 23  1  0
 21 24  1  0
M  END
