
     RDKit          3D

 25 26  0  0  0  0  0  0  0  0999 V2000
   -6.9170    1.9990   -0.3310 C   0  0  0  0  0  0  0  0  0  0  0  0
   -5.4310    2.1080   -0.5460 C   0  0  0  0  0  0  0  0  0  0  0  0
   -4.8140    1.0030    0.0390 O   0  0  0  0  0  0  0  0  0  0  0  0
   -3.4660    0.7570    0.0460 C   0  0  0  0  0  0  0  0  0  0  0  0
   -2.5910    1.6270   -0.5530 C   0  0  0  0  0  0  0  0  0  0  0  0
   -1.2110    1.3670   -0.5410 C   0  0  0  0  0  0  0  0  0  0  0  0
   -0.7200    0.2440    0.0680 C   0  0  0  0  0  0  0  0  0  0  0  0
    0.6550   -0.0830    0.0890 N   0  0  0  0  0  0  0  0  0  0  0  0
    1.6050    0.4070   -0.8050 C   0  0  0  0  0  0  0  0  0  0  0  0
    1.2670    1.1970   -1.7250 O   0  0  0  0  0  0  0  0  0  0  0  0
    3.0050   -0.0050   -0.6650 C   0  0  0  0  0  0  0  0  0  0  0  0
    3.9250    0.5130   -1.5880 C   0  0  0  0  0  0  0  0  0  0  0  0
    5.2630    0.1870   -1.5430 C   0  0  0  0  0  0  0  0  0  0  0  0
    5.6680   -0.6750   -0.5470 C   0  0  0  0  0  0  0  0  0  0  0  0
    7.3970   -1.1110   -0.4690 S   0  0  0  0  0  0  0  0  0  0  0  0
    8.2120    0.1130    0.6100 C   0  0  0  0  0  0  0  0  0  0  0  0
    4.7710   -1.1850    0.3590 C   0  0  0  0  0  0  0  0  0  0  0  0
    5.1880   -1.9650    1.2450 O   0  0  0  0  0  0  0  0  0  0  0  0
    3.4660   -0.8320    0.2680 N   0  0  0  0  0  0  0  0  0  0  0  0
   -1.6250   -0.6440    0.6820 C   0  0  0  0  0  0  0  0  0  0  0  0
   -2.9630   -0.3900    0.6690 C   0  0  0  0  0  0  0  0  0  0  0  0
   -3.9030   -1.2230    1.2510 O   0  0  0  0  0  0  0  0  0  0  0  0
   -3.4740   -2.4110    1.8670 C   0  0  0  0  0  0  0  0  0  0  0  0
   -2.8340   -3.3520    0.9070 C   0  0  0  0  0  0  0  0  0  0  0  0
   -2.7640   -3.1170   -0.3060 O   0  0  0  0  0  0  0  0  0  0  0  0
  1  2  1  0
  2  3  1  0
  3  4  1  0
  4  5  2  0
  4 21  1  0
  5  6  1  0
  6  7  2  0
  7  8  1  0
  7 20  1  0
  8  9  1  0
  9 10  2  0
  9 11  1  0
 11 12  2  0
 11 19  1  0
 12 13  1  0
 13 14  2  0
 14 15  1  0
 14 17  1  0
 15 16  1  0
 17 18  2  0
 17 19  1  0
 20 21  2  0
 21 22  1  0
 22 23  1  0
 23 24  1  0
 24 25  2  0
M  END
