
     RDKit          3D

 25 26  0  0  0  0  0  0  0  0999 V2000
    9.3650    1.1770    1.5520 C   0  0  0  0  0  0  0  0  0  0  0  0
    8.1970    0.5660    0.9280 N   0  0  0  0  0  0  0  0  0  0  0  0
    6.8770    1.0070    1.2010 C   0  0  0  0  0  0  0  0  0  0  0  0
    6.6690    1.9450    1.9950 O   0  0  0  0  0  0  0  0  0  0  0  0
    5.7770    0.3270    0.5230 C   0  0  0  0  0  0  0  0  0  0  0  0
    5.8920   -0.7210   -0.3760 C   0  0  0  0  0  0  0  0  0  0  0  0
    4.5980   -1.0180   -0.7380 C   0  0  0  0  0  0  0  0  0  0  0  0
    3.7420   -0.1700   -0.0720 C   0  0  0  0  0  0  0  0  0  0  0  0
    2.2810   -0.1230   -0.1500 C   0  0  0  0  0  0  0  0  0  0  0  0
    1.5310    0.7760    0.5730 C   0  0  0  0  0  0  0  0  0  0  0  0
    0.1360    0.7970    0.4760 C   0  0  0  0  0  0  0  0  0  0  0  0
   -0.5300   -0.0840   -0.3480 C   0  0  0  0  0  0  0  0  0  0  0  0
   -1.9130   -0.0340   -0.4170 O   0  0  0  0  0  0  0  0  0  0  0  0
   -2.6380    0.9090    0.3470 C   0  0  0  0  0  0  0  0  0  0  0  0
   -4.1080    0.7790    0.1120 C   0  0  0  0  0  0  0  0  0  0  0  0
   -4.8620    1.5570    0.7380 O   0  0  0  0  0  0  0  0  0  0  0  0
   -4.6510   -0.1780   -0.7770 N   0  0  0  0  0  0  0  0  0  0  0  0
   -6.0560   -0.3530   -1.0410 C   0  0  0  0  0  0  0  0  0  0  0  0
   -6.7470   -0.7310    0.2460 C   0  0  0  0  0  0  0  0  0  0  0  0
   -8.5270   -0.9740   -0.0030 S   0  0  0  0  0  0  0  0  0  0  0  0
   -9.2720    0.6280   -0.4430 C   0  0  0  0  0  0  0  0  0  0  0  0
    0.2260   -0.9800   -1.0660 C   0  0  0  0  0  0  0  0  0  0  0  0
   -0.4310   -1.8710   -1.8970 O   0  0  0  0  0  0  0  0  0  0  0  0
    1.6030   -1.0040   -0.9740 C   0  0  0  0  0  0  0  0  0  0  0  0
    4.4920    0.6010    0.6570 O   0  0  0  0  0  0  0  0  0  0  0  0
  1  2  1  0
  2  3  1  0
  3  4  2  0
  3  5  1  0
  5  6  2  0
  5 25  1  0
  6  7  1  0
  7  8  2  0
  8  9  1  0
  8 25  1  0
  9 10  2  0
  9 24  1  0
 10 11  1  0
 11 12  2  0
 12 13  1  0
 12 22  1  0
 13 14  1  0
 14 15  1  0
 15 16  2  0
 15 17  1  0
 17 18  1  0
 18 19  1  0
 19 20  1  0
 20 21  1  0
 22 23  1  0
 22 24  2  0
M  END
