
     RDKit          3D

 25 26  0  0  0  0  0  0  0  0999 V2000
   -2.5410    5.9030   -0.8970 C   0  0  0  0  0  0  0  0  0  0  0  0
   -2.7280    4.5170   -1.0790 O   0  0  0  0  0  0  0  0  0  0  0  0
   -1.6720    3.6020   -0.8760 C   0  0  0  0  0  0  0  0  0  0  0  0
   -0.6060    4.1220   -0.5350 O   0  0  0  0  0  0  0  0  0  0  0  0
   -1.8590    2.1950   -1.0600 C   0  0  0  0  0  0  0  0  0  0  0  0
   -1.0920    1.1630   -0.9470 C   0  0  0  0  0  0  0  0  0  0  0  0
   -1.6100   -0.1350   -1.2110 O   0  0  0  0  0  0  0  0  0  0  0  0
   -2.6620   -0.5230   -0.3490 C   0  0  1  0  0  0  0  0  0  0  0  0
   -3.1700   -1.9110   -0.6790 C   0  0  0  0  0  0  0  0  0  0  0  0
   -4.4740   -2.0920    0.0780 C   0  0  0  0  0  0  0  0  0  0  0  0
   -4.5150   -1.2250    1.1540 O   0  0  0  0  0  0  0  0  0  0  0  0
   -3.3300   -1.2480    1.8810 C   0  0  0  0  0  0  0  0  0  0  0  0
   -2.2360   -0.5440    1.1040 C   0  0  0  0  0  0  0  0  0  0  0  0
    0.3090    1.2230   -0.5570 C   0  0  0  0  0  0  0  0  0  0  0  0
    0.8800    2.3170   -0.2980 O   0  0  0  0  0  0  0  0  0  0  0  0
    1.0350    0.0030   -0.4730 N   0  0  0  0  0  0  0  0  0  0  0  0
    2.3890   -0.0940   -0.1120 C   0  0  0  0  0  0  0  0  0  0  0  0
    3.1960    0.9680    0.2100 C   0  0  0  0  0  0  0  0  0  0  0  0
    4.5360    0.7500    0.5560 C   0  0  0  0  0  0  0  0  0  0  0  0
    5.0880   -0.5070    0.5880 C   0  0  0  0  0  0  0  0  0  0  0  0
    6.4580   -0.6650    0.9490 N   0  0  0  0  0  0  0  0  0  0  0  0
    4.2660   -1.5600    0.2640 C   0  0  0  0  0  0  0  0  0  0  0  0
    2.9500   -1.3880   -0.0800 C   0  0  0  0  0  0  0  0  0  0  0  0
    1.9190   -2.7870   -0.4950 S   0  0  0  0  0  0  0  0  0  0  0  0
    2.8740   -4.3210   -0.3780 C   0  0  0  0  0  0  0  0  0  0  0  0
  1  2  1  0
  2  3  1  0
  3  4  2  0
  3  5  1  0
  5  6  2  3
  6  7  1  0
  6 14  1  0
  8  7  1  6
  8  9  1  0
  8 13  1  0
  9 10  1  0
 10 11  1  0
 11 12  1  0
 12 13  1  0
 14 15  2  0
 14 16  1  0
 16 17  1  0
 17 18  2  0
 17 23  1  0
 18 19  1  0
 19 20  2  0
 20 21  1  0
 20 22  1  0
 22 23  2  0
 23 24  1  0
 24 25  1  0
M  END
