
     RDKit          3D

 25 26  0  0  0  0  0  0  0  0999 V2000
    8.2800    0.7700    0.5110 C   0  0  0  0  0  0  0  0  0  0  0  0
    7.0990    1.2110    1.0980 O   0  0  0  0  0  0  0  0  0  0  0  0
    5.9880    0.9050    0.3660 C   0  0  0  0  0  0  0  0  0  0  0  0
    5.7310   -0.5730    0.1770 C   0  0  0  0  0  0  0  0  0  0  0  0
    4.6290   -0.7620   -0.5690 O   0  0  0  0  0  0  0  0  0  0  0  0
    3.3460   -0.6250   -0.7560 C   0  0  0  0  0  0  0  0  0  0  0  0
    2.4800   -0.0080    0.1160 C   0  0  0  0  0  0  0  0  0  0  0  0
    1.1360    0.1240   -0.1510 C   0  0  0  0  0  0  0  0  0  0  0  0
    0.2060    0.6790    0.8740 C   0  0  0  0  0  0  0  0  0  0  0  0
    0.6490    1.5160    1.6730 O   0  0  0  0  0  0  0  0  0  0  0  0
   -1.1630    0.2560    0.9410 N   0  0  0  0  0  0  0  0  0  0  0  0
   -2.0780    0.7740    1.8920 C   0  0  0  0  0  0  0  0  0  0  0  0
   -3.4680    0.4480    1.4580 C   0  0  0  0  0  0  0  0  0  0  0  0
   -3.9920    0.0050    0.2840 C   0  0  0  0  0  0  0  0  0  0  0  0
   -5.3230   -0.2240    0.2280 C   0  0  0  0  0  0  0  0  0  0  0  0
   -5.9890   -0.9360   -0.9390 C   0  0  0  0  0  0  0  0  0  0  0  0
   -6.3200   -0.0300   -1.9520 O   0  0  0  0  0  0  0  0  0  0  0  0
   -6.0550    0.0030    1.3720 C   0  0  0  0  0  0  0  0  0  0  0  0
   -7.5430   -0.1130    1.5270 C   0  0  0  0  0  0  0  0  0  0  0  0
   -4.8790    0.5360    2.5070 S   0  0  0  0  0  0  0  0  0  0  0  0
    0.6540   -0.3730   -1.3190 C   0  0  0  0  0  0  0  0  0  0  0  0
   -0.7190   -0.1950   -1.8580 C   0  0  0  0  0  0  0  0  0  0  0  0
    1.4950   -0.9960   -2.1840 N   0  0  0  0  0  0  0  0  0  0  0  0
    2.7740   -1.1370   -1.9500 C   0  0  0  0  0  0  0  0  0  0  0  0
    3.5500   -1.7440   -2.7890 O   0  0  0  0  0  0  0  0  0  0  0  0
  1  2  1  0
  2  3  1  0
  3  4  1  0
  4  5  1  0
  5  6  1  0
  6  7  2  0
  6 24  1  0
  7  8  1  0
  8  9  1  0
  8 21  2  0
  9 10  2  0
  9 11  1  0
 11 12  1  0
 12 13  1  0
 13 14  2  0
 13 20  1  0
 14 15  1  0
 15 16  1  0
 15 18  2  0
 16 17  1  0
 18 19  1  0
 18 20  1  0
 21 22  1  0
 21 23  1  0
 23 24  1  0
 24 25  2  0
M  END
