
     RDKit          3D

 25 26  0  0  0  0  0  0  0  0999 V2000
    8.1810    0.3120   -0.6690 C   0  0  0  0  0  0  0  0  0  0  0  0
    6.8080    0.1150   -0.4140 O   0  0  0  0  0  0  0  0  0  0  0  0
    5.9340    1.1740   -0.3870 C   0  0  0  0  0  0  0  0  0  0  0  0
    6.3560    2.3300   -0.5900 O   0  0  0  0  0  0  0  0  0  0  0  0
    4.4900    0.9530   -0.1170 C   0  0  0  0  0  0  0  0  0  0  0  0
    3.5910    1.8590   -0.0690 O   0  0  0  0  0  0  0  0  0  0  0  0
    2.3610    1.3480    0.1960 C   0  0  0  0  0  0  0  0  0  0  0  0
    1.2120    2.2050    0.3000 C   0  0  0  0  0  0  0  0  0  0  0  0
   -0.0230    2.0920    0.2900 C   0  0  0  0  0  0  0  0  0  0  0  0
   -1.0470    1.1090    0.1660 C   0  0  0  0  0  0  0  0  0  0  0  0
   -2.2920    1.5300    0.3160 O   0  0  0  0  0  0  0  0  0  0  0  0
   -1.0030   -0.2560   -0.0960 N   0  0  0  0  0  0  0  0  0  0  0  0
   -2.1030   -1.1680   -0.1600 C   0  0  0  0  0  0  0  0  0  0  0  0
   -2.7910   -1.3500    1.1430 C   0  0  0  0  0  0  0  0  0  0  0  0
   -3.4930   -0.2790    1.7450 N   0  0  0  0  0  0  0  0  0  0  0  0
   -4.8270    0.1330    1.2410 C   0  0  0  0  0  0  0  0  0  0  0  0
   -5.4830    1.2370    1.8020 C   0  0  0  0  0  0  0  0  0  0  0  0
   -7.0150    1.2970    0.8630 S   0  0  0  0  0  0  0  0  0  0  0  0
   -6.7050   -0.0910   -0.1750 C   0  0  0  0  0  0  0  0  0  0  0  0
   -7.5540   -0.6520   -1.2280 C   0  0  0  0  0  0  0  0  0  0  0  0
   -5.4470   -0.5130    0.2630 C   0  0  0  0  0  0  0  0  0  0  0  0
    2.5460    0.0060    0.3200 C   0  0  0  0  0  0  0  0  0  0  0  0
    3.9060   -0.2420    0.1180 C   0  0  0  0  0  0  0  0  0  0  0  0
    4.5620   -1.5670    0.1590 C   0  0  0  0  0  0  0  0  0  0  0  0
    3.6110   -2.5420    0.4310 O   0  0  0  0  0  0  0  0  0  0  0  0
  1  2  1  0
  2  3  1  0
  3  4  2  0
  3  5  1  0
  5  6  1  0
  5 23  2  0
  6  7  1  0
  7  8  1  0
  7 22  2  0
  8  9  2  3
  9 10  1  0
 10 11  2  0
 10 12  1  0
 12 13  1  0
 13 14  1  0
 14 15  1  0
 15 16  1  0
 16 17  2  0
 16 21  1  0
 17 18  1  0
 18 19  1  0
 19 20  1  0
 19 21  2  0
 22 23  1  0
 23 24  1  0
 24 25  1  0
M  END
