
     RDKit          3D

 17 18  0  0  0  0  0  0  0  0999 V2000
   -2.7840   -2.0130   -1.6370 O   0  0  0  0  0  0  0  0  0  0  0  0
   -3.2330   -1.0590   -0.8980 C   0  0  0  0  0  0  0  0  0  0  0  0
   -4.5710   -0.8930   -0.7760 O   0  0  0  0  0  0  0  0  0  0  0  0
   -2.2400   -0.2220   -0.2430 C   0  0  0  0  0  0  0  0  0  0  0  0
   -0.8740   -0.4770   -0.4260 C   0  0  0  0  0  0  0  0  0  0  0  0
    0.1260    0.2550    0.1560 C   0  0  0  0  0  0  0  0  0  0  0  0
    1.5340   -0.0070   -0.0340 C   0  0  0  0  0  0  0  0  0  0  0  0
    2.0250   -0.5140   -1.2090 C   0  0  0  0  0  0  0  0  0  0  0  0
    3.3950   -0.7650   -1.3790 C   0  0  0  0  0  0  0  0  0  0  0  0
    4.2310   -0.4790   -0.3120 C   0  0  0  0  0  0  0  0  0  0  0  0
    3.7670    0.0280    0.8700 C   0  0  0  0  0  0  0  0  0  0  0  0
    2.3980    0.2630    0.9990 C   0  0  0  0  0  0  0  0  0  0  0  0
   -0.2900    1.2980    0.9650 C   0  0  0  0  0  0  0  0  0  0  0  0
   -1.6040    1.5910    1.1780 C   0  0  0  0  0  0  0  0  0  0  0  0
   -2.1000    2.9050    2.1970 Cl  0  0  0  0  0  0  0  0  0  0  0  0
   -2.6140    0.8240    0.5690 C   0  0  0  0  0  0  0  0  0  0  0  0
   -3.9230    1.1750    0.8270 O   0  0  0  0  0  0  0  0  0  0  0  0
  1  2  2  0
  2  3  1  0
  2  4  1  0
  4  5  2  0
  4 16  1  0
  5  6  1  0
  6  7  1  0
  6 13  2  0
  7  8  2  0
  7 12  1  0
  8  9  1  0
  9 10  2  0
 10 11  1  0
 11 12  2  0
 13 14  1  0
 14 15  1  0
 14 16  2  0
 16 17  1  0
M  END
