
     RDKit          3D

 25 26  0  0  0  0  0  0  0  0999 V2000
    6.5690   -0.0330    0.1190 C   0  0  0  0  0  0  0  0  0  0  0  0
    5.5510   -1.1050   -0.1910 C   0  0  1  0  0  0  0  0  0  0  0  0
    5.9290   -2.3340    0.5840 C   0  0  0  0  0  0  0  0  0  0  0  0
    4.1690   -0.6610    0.1310 C   0  0  0  0  0  0  0  0  0  0  0  0
    3.5440   -1.3070    0.9520 O   0  0  0  0  0  0  0  0  0  0  0  0
    3.5360    0.5110   -0.4970 C   0  0  0  0  0  0  0  0  0  0  0  0
    2.1500    0.6950    0.0330 C   0  0  0  0  0  0  0  0  0  0  0  0
    1.5470    1.9100   -0.6430 C   0  0  0  0  0  0  0  0  0  0  0  0
    0.1530    2.0870   -0.1030 C   0  0  0  0  0  0  0  0  0  0  0  0
   -0.5890    0.9200   -0.4020 O   0  0  0  0  0  0  0  0  0  0  0  0
   -1.9360    0.7990   -0.0170 C   0  0  0  0  0  0  0  0  0  0  0  0
   -2.5980    1.7980    0.6660 C   0  0  0  0  0  0  0  0  0  0  0  0
   -3.9200    1.6960    1.0520 C   0  0  0  0  0  0  0  0  0  0  0  0
   -4.6270    0.5630    0.7570 C   0  0  0  0  0  0  0  0  0  0  0  0
   -5.9380    0.5930    1.2010 C   0  0  0  0  0  0  0  0  0  0  0  0
   -6.2150    1.5810    1.9640 O   0  0  0  0  0  0  0  0  0  0  0  0
   -6.9460   -0.2610    0.9440 N   0  0  0  0  0  0  0  0  0  0  0  0
   -6.8420   -1.4850    0.3920 C   0  0  0  0  0  0  0  0  0  0  0  0
   -8.1850   -2.3950    0.5200 S   0  0  0  0  0  0  0  0  0  0  0  0
   -5.8220   -2.0890   -0.2480 N   0  0  0  0  0  0  0  0  0  0  0  0
   -4.5380   -1.6630   -0.3080 C   0  0  0  0  0  0  0  0  0  0  0  0
   -3.7020   -2.4680   -0.7770 O   0  0  0  0  0  0  0  0  0  0  0  0
   -3.9830   -0.4490    0.0750 C   0  0  0  0  0  0  0  0  0  0  0  0
   -2.6520   -0.3410   -0.3120 C   0  0  0  0  0  0  0  0  0  0  0  0
   -2.0480   -1.3780   -0.9930 O   0  0  0  0  0  0  0  0  0  0  0  0
  2  1  1  1
  2  3  1  0
  2  4  1  0
  4  5  2  0
  4  6  1  0
  6  7  1  0
  7  8  1  0
  8  9  1  0
  9 10  1  0
 10 11  1  0
 11 12  2  0
 11 24  1  0
 12 13  1  0
 13 14  2  0
 14 15  1  0
 14 23  1  0
 15 16  2  0
 15 17  1  0
 17 18  1  0
 18 19  2  0
 18 20  1  0
 20 21  1  0
 21 22  2  0
 21 23  1  0
 23 24  2  0
 24 25  1  0
M  END
