
     RDKit          3D

 34 37  0  0  0  0  0  0  0  0999 V2000
   -5.4810   -4.2390   -0.4760 C   0  0  0  0  0  0  0  0  0  0  0  0
   -4.5520   -5.3750   -0.3580 C   0  0  0  0  0  0  0  0  0  0  0  0
   -3.2620   -5.1550   -0.2630 C   0  0  0  0  0  0  0  0  0  0  0  0
   -2.7500   -3.7860   -0.2750 C   0  0  0  0  0  0  0  0  0  0  0  0
   -1.4700   -3.5810   -0.1820 C   0  0  0  0  0  0  0  0  0  0  0  0
   -0.4880   -5.0720   -0.0550 Cl  0  0  0  0  0  0  0  0  0  0  0  0
   -0.7390   -2.3360   -0.1090 C   0  0  0  0  0  0  0  0  0  0  0  0
    0.6280   -2.2500   -0.2810 N   0  0  0  0  0  0  0  0  0  0  0  0
    1.0480   -1.0490   -0.1690 N   0  0  0  0  0  0  0  0  0  0  0  0
    2.4110   -0.6210   -0.2950 C   0  0  0  0  0  0  0  0  0  0  0  0
    3.3070   -0.7830    0.7390 C   0  0  0  0  0  0  0  0  0  0  0  0
    4.6140   -0.3660    0.6010 C   0  0  0  0  0  0  0  0  0  0  0  0
    5.0530    0.2190   -0.5630 C   0  0  0  0  0  0  0  0  0  0  0  0
    6.4280    0.6660   -0.7280 C   0  0  0  0  0  0  0  0  0  0  0  0
    6.8240    1.1970   -1.7870 O   0  0  0  0  0  0  0  0  0  0  0  0
    7.3110    0.4990    0.3090 O   0  0  0  0  0  0  0  0  0  0  0  0
    8.6570    0.9110    0.2120 C   0  0  0  0  0  0  0  0  0  0  0  0
    4.1330    0.3680   -1.5800 C   0  0  0  0  0  0  0  0  0  0  0  0
    2.8630   -0.0460   -1.4240 N   0  0  0  0  0  0  0  0  0  0  0  0
   -0.0090   -0.2220    0.0930 C   0  0  0  0  0  0  0  0  0  0  0  0
    0.1720    1.1630    0.2540 N   0  0  0  0  0  0  0  0  0  0  0  0
   -0.6600    2.0660    0.9230 C   0  0  0  0  0  0  0  0  0  0  0  0
   -1.6570    1.7520    1.5780 O   0  0  0  0  0  0  0  0  0  0  0  0
   -0.3340    3.5270    0.8540 C   0  0  2  0  0  0  0  0  0  0  0  0
   -1.5030    4.2470    0.2500 C   0  0  0  0  0  0  0  0  0  0  0  0
   -0.8680    5.2400   -0.7000 C   0  0  0  0  0  0  0  0  0  0  0  0
    0.4770    4.6320   -0.9290 C   0  0  0  0  0  0  0  0  0  0  0  0
    0.7840    3.7940    0.1100 O   0  0  0  0  0  0  0  0  0  0  0  0
   -1.1200   -1.0160    0.1270 C   0  0  0  0  0  0  0  0  0  0  0  0
   -2.5260   -0.6240    0.4470 C   0  0  0  0  0  0  0  0  0  0  0  0
   -3.2360   -1.1320    1.3800 C   0  0  0  0  0  0  0  0  0  0  0  0
   -4.6060   -0.6620    1.5980 C   0  0  0  0  0  0  0  0  0  0  0  0
   -4.6180    0.8290    0.5250 S   0  0  0  0  0  0  0  0  0  0  0  0
   -3.2250    0.2870   -0.5090 C   0  0  0  0  0  0  0  0  0  0  0  0
  1  2  1  0
  2  3  2  3
  3  4  1  0
  4  5  2  3
  5  6  1  0
  5  7  1  0
  7  8  2  0
  7 29  1  0
  8  9  1  0
  9 10  1  0
  9 20  1  0
 10 11  2  0
 10 19  1  0
 11 12  1  0
 12 13  2  0
 13 14  1  0
 13 18  1  0
 14 15  2  0
 14 16  1  0
 16 17  1  0
 18 19  2  0
 20 21  1  0
 20 29  2  0
 21 22  1  0
 22 23  2  0
 24 22  1  6
 24 25  1  0
 24 28  1  0
 25 26  1  0
 26 27  1  0
 27 28  1  0
 29 30  1  0
 30 31  2  0
 30 34  1  0
 31 32  1  0
 32 33  1  0
 33 34  1  0
M  END
