
     RDKit          3D

 34 36  0  0  0  0  0  0  0  0999 V2000
   -0.9720   -2.6760    2.6290 C   0  0  0  0  0  0  0  0  0  0  0  0
   -1.1300   -2.2770    1.2810 O   0  0  0  0  0  0  0  0  0  0  0  0
   -1.6900   -1.0860    0.8970 C   0  0  0  0  0  0  0  0  0  0  0  0
   -3.0330   -0.9460    0.6680 C   0  0  0  0  0  0  0  0  0  0  0  0
   -3.9430   -2.0750    0.8050 C   0  0  0  0  0  0  0  0  0  0  0  0
   -4.0270   -3.0340   -0.3200 C   0  0  1  0  0  0  0  0  0  0  0  0
   -5.0480   -4.1080    0.0960 C   0  0  0  0  0  0  0  0  0  0  0  0
   -4.6110   -2.4220   -1.5800 C   0  0  0  0  0  0  0  0  0  0  0  0
   -2.7840   -3.7630   -0.6870 C   0  0  0  0  0  0  0  0  0  0  0  0
   -3.5020    0.2810    0.2920 N   0  0  0  0  0  0  0  0  0  0  0  0
   -2.7030    1.3510    0.1370 C   0  0  0  0  0  0  0  0  0  0  0  0
   -3.1660    2.4680   -0.2100 O   0  0  0  0  0  0  0  0  0  0  0  0
   -1.3420    1.2010    0.3710 C   0  0  0  0  0  0  0  0  0  0  0  0
   -0.4270    2.3300    0.2160 C   0  0  0  0  0  0  0  0  0  0  0  0
   -0.8740    3.4830   -0.1460 N   0  0  0  0  0  0  0  0  0  0  0  0
   -0.0270    4.6280   -0.3140 C   0  0  0  0  0  0  0  0  0  0  0  0
   -0.3370    5.8800    0.0610 C   0  0  0  0  0  0  0  0  0  0  0  0
    0.7800    6.7930   -0.2730 C   0  0  0  0  0  0  0  0  0  0  0  0
    1.7900    5.9160   -0.8930 C   0  0  0  0  0  0  0  0  0  0  0  0
    3.3680    6.3740   -1.5200 Cl  0  0  0  0  0  0  0  0  0  0  0  0
    1.3000    4.6920   -0.9010 C   0  0  0  0  0  0  0  0  0  0  0  0
    2.0310    3.4950   -1.4550 C   0  0  0  0  0  0  0  0  0  0  0  0
   -0.8040   -0.0080    0.7530 C   0  0  0  0  0  0  0  0  0  0  0  0
    0.6180   -0.1110    0.9760 C   0  0  0  0  0  0  0  0  0  0  0  0
    1.0850    0.0970    2.1120 O   0  0  0  0  0  0  0  0  0  0  0  0
    1.4690   -0.4430   -0.0870 N   0  0  0  0  0  0  0  0  0  0  0  0
    2.6900   -0.6520   -0.0370 C   0  0  0  0  0  0  0  0  0  0  0  0
    3.6110   -0.9730   -0.9590 N   0  0  0  0  0  0  0  0  0  0  0  0
    4.8450   -1.1280   -0.6020 C   0  0  0  0  0  0  0  0  0  0  0  0
    5.2780   -0.9840    0.6640 C   0  0  0  0  0  0  0  0  0  0  0  0
    6.5160   -1.0830    1.3380 C   0  0  0  0  0  0  0  0  0  0  0  0
    7.7360   -1.4260    0.5690 C   0  0  0  0  0  0  0  0  0  0  0  0
    6.5770   -0.8790    2.5820 O   0  0  0  0  0  0  0  0  0  0  0  0
    3.6850   -0.5550    1.5260 S   0  0  0  0  0  0  0  0  0  0  0  0
  1  2  1  0
  2  3  1  0
  3  4  2  0
  3 23  1  0
  4  5  1  0
  4 10  1  0
  5  6  1  0
  6  7  1  1
  6  8  1  0
  6  9  1  0
 10 11  1  0
 11 12  2  0
 11 13  1  0
 13 14  1  0
 13 23  2  0
 14 15  2  3
 15 16  1  0
 16 17  2  0
 16 21  1  0
 17 18  1  0
 18 19  1  0
 19 20  1  0
 19 21  2  0
 21 22  1  0
 23 24  1  0
 24 25  2  0
 24 26  1  0
 26 27  2  3
 27 28  1  0
 27 34  1  0
 28 29  1  0
 29 30  2  0
 30 31  1  0
 30 34  1  0
 31 32  1  0
 31 33  2  0
M  END
