
     RDKit          3D

 34 37  0  0  0  0  0  0  0  0999 V2000
    9.4100   -0.2700    0.8200 C   0  0  0  0  0  0  0  0  0  0  0  0
    8.1390   -0.3260    0.2480 C   0  0  0  0  0  0  0  0  0  0  0  0
    7.3620    0.2310   -0.6100 N   0  0  0  0  0  0  0  0  0  0  0  0
    6.1590    0.1460   -1.1090 C   0  0  0  0  0  0  0  0  0  0  0  0
    5.5960    1.0840   -2.1220 C   0  0  0  0  0  0  0  0  0  0  0  0
    4.4390    1.7370   -1.6410 N   0  0  0  0  0  0  0  0  0  0  0  0
    3.1340    1.2300   -1.7240 C   0  0  0  0  0  0  0  0  0  0  0  0
    3.3000    0.0750   -2.5660 O   0  0  0  0  0  0  0  0  0  0  0  0
    1.8590    1.3450   -1.3790 C   0  0  0  0  0  0  0  0  0  0  0  0
    1.2960    2.4230   -0.5600 C   0  0  0  0  0  0  0  0  0  0  0  0
    0.0970    2.2750   -0.3140 C   0  0  0  0  0  0  0  0  0  0  0  0
    0.2550    2.5950    1.4000 C   0  0  0  0  0  0  0  0  0  0  0  0
   -0.9060    2.4860    1.9910 C   0  0  0  0  0  0  0  0  0  0  0  0
   -1.1850    2.2300    3.4530 C   0  0  0  0  0  0  0  0  0  0  0  0
   -1.4220    2.0250    4.6020 N   0  0  0  0  0  0  0  0  0  0  0  0
   -1.8050    2.2030    0.9990 C   0  0  0  0  0  0  0  0  0  0  0  0
   -3.6040    2.0980    1.4720 S   0  0  0  0  0  0  0  0  0  0  0  0
   -4.6260    1.6440    0.0480 C   0  0  0  0  0  0  0  0  0  0  0  0
   -5.0540    0.2180    0.0340 C   0  0  0  0  0  0  0  0  0  0  0  0
   -4.2850   -0.8210   -0.3630 C   0  0  0  0  0  0  0  0  0  0  0  0
   -4.7210   -2.2370   -0.3910 C   0  0  0  0  0  0  0  0  0  0  0  0
   -6.0020   -2.2600    0.0510 C   0  0  0  0  0  0  0  0  0  0  0  0
   -6.6130   -3.5370    0.0110 C   0  0  0  0  0  0  0  0  0  0  0  0
   -7.8990   -3.7410    0.3970 C   0  0  0  0  0  0  0  0  0  0  0  0
   -8.6900   -2.8180    0.8290 C   0  0  0  0  0  0  0  0  0  0  0  0
  -10.3560   -3.0570    1.3950 Cl  0  0  0  0  0  0  0  0  0  0  0  0
   -8.1390   -1.4930    0.8760 C   0  0  0  0  0  0  0  0  0  0  0  0
   -6.7760   -1.3310    0.4510 C   0  0  0  0  0  0  0  0  0  0  0  0
   -6.3870    0.0390    0.4820 N   0  0  0  0  0  0  0  0  0  0  0  0
   -1.3280    2.1020    0.0010 O   0  0  0  0  0  0  0  0  0  0  0  0
    5.6170   -0.8620   -0.4800 C   0  0  0  0  0  0  0  0  0  0  0  0
    6.1460   -1.6640    0.4530 C   0  0  0  0  0  0  0  0  0  0  0  0
    5.3320   -2.6310    0.9140 O   0  0  0  0  0  0  0  0  0  0  0  0
    7.3020   -1.5070    0.8590 O   0  0  0  0  0  0  0  0  0  0  0  0
  1  2  1  0
  2  3  2  0
  2 34  1  0
  3  4  1  0
  4  5  1  0
  4 31  2  0
  5  6  1  0
  6  7  1  0
  7  8  2  0
  7  9  1  0
  9 10  2  3
 10 11  1  0
 11 12  2  0
 11 30  1  0
 12 13  1  0
 13 14  1  0
 13 16  2  0
 14 15  3  0
 16 17  1  0
 16 30  1  0
 17 18  1  0
 18 19  1  0
 19 20  2  0
 19 29  1  0
 20 21  1  0
 21 22  2  0
 22 23  1  0
 22 28  1  0
 23 24  2  0
 24 25  1  0
 25 26  1  0
 25 27  2  0
 27 28  1  0
 28 29  2  0
 31 32  1  0
 32 33  2  0
 32 34  1  0
M  END
