
     RDKit          3D

 34 37  0  0  0  0  0  0  0  0999 V2000
    6.5520   -0.8790   -3.9970 C   0  0  0  0  0  0  0  0  0  0  0  0
    6.0950   -0.6730   -2.5990 C   0  0  0  0  0  0  0  0  0  0  0  0
    6.2220    0.5600   -1.9490 C   0  0  0  0  0  0  0  0  0  0  0  0
    5.7070    0.3970   -0.6920 C   0  0  0  0  0  0  0  0  0  0  0  0
    5.2830   -0.9060   -0.5980 C   0  0  0  0  0  0  0  0  0  0  0  0
    4.6610   -1.5110    0.5910 C   0  0  2  0  0  0  0  0  0  0  0  0
    5.5010   -2.6010    1.1350 C   0  0  0  0  0  0  0  0  0  0  0  0
    6.5770   -2.9460    0.6600 O   0  0  0  0  0  0  0  0  0  0  0  0
    2.9840   -2.1540    0.2270 S   0  0  0  0  0  0  0  0  0  0  0  0
    1.9500   -0.7730   -0.1440 C   0  0  0  0  0  0  0  0  0  0  0  0
    1.8280   -0.3410   -1.4030 N   0  0  0  0  0  0  0  0  0  0  0  0
    1.0490    0.7090   -1.7340 C   0  0  0  0  0  0  0  0  0  0  0  0
    0.9380    1.1150   -2.9400 O   0  0  0  0  0  0  0  0  0  0  0  0
    0.3650    1.3440   -0.7230 C   0  0  0  0  0  0  0  0  0  0  0  0
    0.4760    0.9190    0.5680 C   0  0  0  0  0  0  0  0  0  0  0  0
   -0.2330    1.5850    1.5980 N   0  0  0  0  0  0  0  0  0  0  0  0
   -1.3780    1.1430    1.9500 C   0  0  0  0  0  0  0  0  0  0  0  0
   -1.9480   -0.0430    1.2920 C   0  0  0  0  0  0  0  0  0  0  0  0
   -3.1380    0.3640    0.6330 O   0  0  0  0  0  0  0  0  0  0  0  0
   -3.9240   -0.5220   -0.0840 C   0  0  0  0  0  0  0  0  0  0  0  0
   -3.5660   -1.8480   -0.1790 C   0  0  0  0  0  0  0  0  0  0  0  0
   -4.3520   -2.7550   -0.9010 C   0  0  0  0  0  0  0  0  0  0  0  0
   -5.5020   -2.3230   -1.5290 C   0  0  0  0  0  0  0  0  0  0  0  0
   -6.4850   -3.4720   -2.4340 Cl  0  0  0  0  0  0  0  0  0  0  0  0
   -5.8650   -0.9990   -1.4380 C   0  0  0  0  0  0  0  0  0  0  0  0
   -5.0720   -0.1010   -0.7140 C   0  0  0  0  0  0  0  0  0  0  0  0
   -5.5010    1.3230   -0.6420 C   0  0  0  0  0  0  0  0  0  0  0  0
   -2.1160    1.8130    2.9950 N   0  0  0  0  0  0  0  0  0  0  0  0
   -3.2750    2.4780    2.8720 C   0  0  0  0  0  0  0  0  0  0  0  0
   -3.6530    2.9770    4.0950 C   0  0  0  0  0  0  0  0  0  0  0  0
   -2.6980    2.6130    5.0170 C   0  0  0  0  0  0  0  0  0  0  0  0
   -1.7720    1.8980    4.2920 C   0  0  0  0  0  0  0  0  0  0  0  0
    1.2810   -0.1490    0.8290 N   0  0  0  0  0  0  0  0  0  0  0  0
    5.5370   -1.4800   -1.7440 O   0  0  0  0  0  0  0  0  0  0  0  0
  1  2  1  0
  2  3  2  0
  2 34  1  0
  3  4  1  0
  4  5  2  0
  5  6  1  0
  5 34  1  0
  6  7  1  0
  6  9  1  6
  7  8  2  0
  9 10  1  0
 10 11  2  0
 10 33  1  0
 11 12  1  0
 12 13  2  0
 12 14  1  0
 14 15  2  0
 15 16  1  0
 15 33  1  0
 16 17  2  3
 17 18  1  0
 17 28  1  0
 18 19  1  0
 19 20  1  0
 20 21  2  0
 20 26  1  0
 21 22  1  0
 22 23  2  0
 23 24  1  0
 23 25  1  0
 25 26  2  0
 26 27  1  0
 28 29  1  0
 28 32  1  0
 29 30  2  0
 30 31  1  0
 31 32  2  0
M  END
