
     RDKit          3D

 35 37  0  0  0  0  0  0  0  0999 V2000
   -2.8610    0.5650   -3.9860 C   0  0  0  0  0  0  0  0  0  0  0  0
   -1.8670    0.9320   -2.8680 C   0  0  1  0  0  0  0  0  0  0  0  0
   -1.8020    2.4190   -2.8500 C   0  0  0  0  0  0  0  0  0  0  0  0
   -2.3470    0.2640   -1.6380 C   0  0  0  0  0  0  0  0  0  0  0  0
   -1.5960    0.4380   -0.4480 N   0  0  0  0  0  0  0  0  0  0  0  0
   -1.3210   -0.8030    0.2400 C   0  0  0  0  0  0  0  0  0  0  0  0
    0.1060   -0.8940    0.7140 C   0  0  1  0  0  0  0  0  0  0  0  0
    0.3600   -2.0930    1.3740 O   0  0  0  0  0  0  0  0  0  0  0  0
    1.1160   -0.5800   -0.3300 C   0  0  2  0  0  0  0  0  0  0  0  0
    1.2710   -1.5710   -1.4240 C   0  0  0  0  0  0  0  0  0  0  0  0
    1.6730   -2.9230   -0.9940 C   0  0  0  0  0  0  0  0  0  0  0  0
    3.0020   -3.3060   -0.8690 C   0  0  0  0  0  0  0  0  0  0  0  0
    3.3560   -4.5770   -0.4690 C   0  0  0  0  0  0  0  0  0  0  0  0
    2.3920   -5.5070   -0.1810 C   0  0  0  0  0  0  0  0  0  0  0  0
    1.0760   -5.1670   -0.2930 C   0  0  0  0  0  0  0  0  0  0  0  0
    0.7240   -3.8770   -0.6990 C   0  0  0  0  0  0  0  0  0  0  0  0
    2.4170   -0.4900    0.3520 N   0  0  0  0  0  0  0  0  0  0  0  0
    3.1780    0.7000    0.4010 C   0  0  0  0  0  0  0  0  0  0  0  0
    2.6980    1.7190   -0.1750 O   0  0  0  0  0  0  0  0  0  0  0  0
    4.4010    0.8070    1.0360 O   0  0  0  0  0  0  0  0  0  0  0  0
    5.0990    2.0140    1.0450 C   0  0  1  0  0  0  0  0  0  0  0  0
    5.3870    2.5150    2.4560 C   0  0  0  0  0  0  0  0  0  0  0  0
    6.6800    3.2650    2.2480 C   0  0  0  0  0  0  0  0  0  0  0  0
    7.1080    3.0300    0.9670 O   0  0  0  0  0  0  0  0  0  0  0  0
    6.4990    1.8950    0.4890 C   0  0  0  0  0  0  0  0  0  0  0  0
   -2.1910    1.6200    0.6380 S   0  0  1  0  0  0  0  0  0  0  0  0
   -1.3080    1.5880    1.8850 O   0  0  0  0  0  0  0  0  0  0  0  0
   -2.1350    3.0030    0.1280 O   0  0  0  0  0  0  0  0  0  0  0  0
   -3.8070    1.2090    1.2030 C   0  0  0  0  0  0  0  0  0  0  0  0
   -4.0030    0.4640    2.3450 C   0  0  0  0  0  0  0  0  0  0  0  0
   -5.2950    0.1470    2.7760 C   0  0  0  0  0  0  0  0  0  0  0  0
   -6.4050    0.5690    2.0750 C   0  0  0  0  0  0  0  0  0  0  0  0
   -7.7020    0.2180    2.5590 N   0  0  0  0  0  0  0  0  0  0  0  0
   -6.2210    1.3160    0.9300 C   0  0  0  0  0  0  0  0  0  0  0  0
   -4.9370    1.6150    0.5260 C   0  0  0  0  0  0  0  0  0  0  0  0
  2  1  1  6
  2  3  1  0
  2  4  1  0
  4  5  1  0
  5  6  1  0
 26  5  1  6
  6  7  1  0
  7  8  1  6
  7  9  1  0
  9 10  1  6
  9 17  1  0
 10 11  1  0
 11 12  2  0
 11 16  1  0
 12 13  1  0
 13 14  2  0
 14 15  1  0
 15 16  2  0
 17 18  1  0
 18 19  2  0
 18 20  1  0
 21 20  1  1
 21 22  1  0
 21 25  1  0
 22 23  1  0
 23 24  1  0
 24 25  1  0
 26 27  2  0
 26 28  2  0
 26 29  1  0
 29 30  2  0
 29 35  1  0
 30 31  1  0
 31 32  2  0
 32 33  1  0
 32 34  1  0
 34 35  2  0
M  END
