
     RDKit          3D

 34 37  0  0  0  0  0  0  0  0999 V2000
    8.5540    2.2660    0.7630 C   0  0  0  0  0  0  0  0  0  0  0  0
    7.2000    2.4330    0.9350 O   0  0  0  0  0  0  0  0  0  0  0  0
    6.5710    2.4970   -0.3060 C   0  0  0  0  0  0  0  0  0  0  0  0
    5.0950    2.6790   -0.0390 C   0  0  0  0  0  0  0  0  0  0  0  0
    4.1230    2.0520    0.2180 N   0  0  0  0  0  0  0  0  0  0  0  0
    2.8980    2.4530    0.4080 C   0  0  0  0  0  0  0  0  0  0  0  0
    1.7330    1.5670    0.7320 C   0  0  0  0  0  0  0  0  0  0  0  0
    0.5880    2.0570    0.8930 O   0  0  0  0  0  0  0  0  0  0  0  0
    1.9110    0.2020    0.8590 N   0  0  0  0  0  0  0  0  0  0  0  0
    1.9630   -0.7460    0.0420 C   0  0  0  0  0  0  0  0  0  0  0  0
    1.8280   -0.5350   -1.3490 N   0  0  0  0  0  0  0  0  0  0  0  0
    0.9660    0.4470   -1.9240 C   0  0  0  0  0  0  0  0  0  0  0  0
   -0.4450    0.1260   -1.5040 C   0  0  0  0  0  0  0  0  0  0  0  0
   -1.5960    0.7070   -1.9900 C   0  0  0  0  0  0  0  0  0  0  0  0
   -2.6800    0.1250   -1.3370 C   0  0  0  0  0  0  0  0  0  0  0  0
   -4.0420    0.2990   -1.4060 C   0  0  0  0  0  0  0  0  0  0  0  0
   -4.9460   -0.4350   -0.6160 C   0  0  0  0  0  0  0  0  0  0  0  0
   -6.3900   -0.1640   -0.7130 C   0  0  0  0  0  0  0  0  0  0  0  0
   -6.9710    0.7920    0.2450 C   0  0  2  0  0  0  0  0  0  0  0  0
   -6.3250    2.1860    0.1340 C   0  0  0  0  0  0  0  0  0  0  0  0
   -7.1280    0.3820    1.6630 C   0  0  0  0  0  0  0  0  0  0  0  0
   -4.3740   -1.3410    0.2320 C   0  0  0  0  0  0  0  0  0  0  0  0
   -5.4210   -2.3560    1.2290 Cl  0  0  0  0  0  0  0  0  0  0  0  0
   -2.9860   -1.5280    0.3130 C   0  0  0  0  0  0  0  0  0  0  0  0
   -2.1250   -0.7940   -0.4730 C   0  0  0  0  0  0  0  0  0  0  0  0
   -0.8180   -0.7530   -0.6100 O   0  0  0  0  0  0  0  0  0  0  0  0
    2.1720   -2.0660    0.5130 N   0  0  0  0  0  0  0  0  0  0  0  0
    1.3300   -2.5520    1.5860 C   0  0  0  0  0  0  0  0  0  0  0  0
    1.4330   -4.0720    1.5320 C   0  0  0  0  0  0  0  0  0  0  0  0
    1.3790   -4.5560    0.2490 O   0  0  0  0  0  0  0  0  0  0  0  0
    2.3960   -4.1520   -0.5850 C   0  0  0  0  0  0  0  0  0  0  0  0
    3.1740   -2.9710   -0.0070 C   0  0  0  0  0  0  0  0  0  0  0  0
    2.7160    3.8270    0.2890 C   0  0  0  0  0  0  0  0  0  0  0  0
    4.3680    4.4090   -0.0920 S   0  0  0  0  0  0  0  0  0  0  0  0
  1  2  1  0
  2  3  1  0
  3  4  1  0
  4  5  2  0
  4 34  1  0
  5  6  1  0
  6  7  1  0
  6 33  2  0
  7  8  2  0
  7  9  1  0
  9 10  2  3
 10 11  1  0
 10 27  1  0
 11 12  1  0
 12 13  1  0
 13 14  2  0
 13 26  1  0
 14 15  1  0
 15 16  2  0
 15 25  1  0
 16 17  1  0
 17 18  1  0
 17 22  2  0
 18 19  1  0
 19 20  1  1
 19 21  1  0
 22 23  1  0
 22 24  1  0
 24 25  2  0
 25 26  1  0
 27 28  1  0
 27 32  1  0
 28 29  1  0
 29 30  1  0
 30 31  1  0
 31 32  1  0
 33 34  1  0
M  END
