
     RDKit          3D

 34 37  0  0  0  0  0  0  0  0999 V2000
    2.8210   -0.7260    1.1740 O   0  0  0  0  0  0  0  0  0  0  0  0
    3.2940    0.3670    0.7730 C   0  0  0  0  0  0  0  0  0  0  0  0
    2.3990    1.4240    0.9530 O   0  0  0  0  0  0  0  0  0  0  0  0
    1.1450    1.2620    1.5110 C   0  0  0  0  0  0  0  0  0  0  0  0
    0.3260    0.3170    0.7060 C   0  0  0  0  0  0  0  0  0  0  0  0
    0.1760   -0.4010   -0.2010 N   0  0  0  0  0  0  0  0  0  0  0  0
   -0.9010   -1.0790   -0.4720 N   0  0  0  0  0  0  0  0  0  0  0  0
   -1.8770   -1.0870    0.1260 C   0  0  0  0  0  0  0  0  0  0  0  0
   -3.2260   -1.6360    0.2030 N   0  0  0  0  0  0  0  0  0  0  0  0
   -4.0150   -1.4700   -0.8270 C   0  0  0  0  0  0  0  0  0  0  0  0
   -5.3150   -2.0270   -0.6930 N   0  0  0  0  0  0  0  0  0  0  0  0
   -5.6140   -3.3480   -0.8880 C   0  0  0  0  0  0  0  0  0  0  0  0
   -6.9460   -3.5590   -0.6830 C   0  0  0  0  0  0  0  0  0  0  0  0
   -7.4800   -2.3350   -0.3540 C   0  0  0  0  0  0  0  0  0  0  0  0
   -6.4330   -1.3930   -0.3680 C   0  0  0  0  0  0  0  0  0  0  0  0
   -6.6300    0.0160   -0.0650 C   0  0  0  0  0  0  0  0  0  0  0  0
   -7.9110    0.4940    0.2610 C   0  0  0  0  0  0  0  0  0  0  0  0
   -8.1380    1.8210    0.5540 C   0  0  0  0  0  0  0  0  0  0  0  0
   -7.1260    2.7440    0.5420 C   0  0  0  0  0  0  0  0  0  0  0  0
   -7.4980    4.4170    0.9270 Cl  0  0  0  0  0  0  0  0  0  0  0  0
   -5.8740    2.3170    0.2310 C   0  0  0  0  0  0  0  0  0  0  0  0
   -5.6460    0.9650   -0.0660 C   0  0  0  0  0  0  0  0  0  0  0  0
   -1.3760    0.1370    1.5180 S   0  0  0  0  0  0  0  0  0  0  0  0
    4.6360    0.5270    0.1780 C   0  0  0  0  0  0  0  0  0  0  0  0
    5.0840    1.6830   -0.2250 C   0  0  0  0  0  0  0  0  0  0  0  0
    4.3890    2.9330   -0.1620 C   0  0  0  0  0  0  0  0  0  0  0  0
    4.9450    4.0740   -0.6080 C   0  0  0  0  0  0  0  0  0  0  0  0
    6.2210    4.0000   -1.1330 O   0  0  0  0  0  0  0  0  0  0  0  0
    5.5140   -0.6110    0.0310 C   0  0  0  0  0  0  0  0  0  0  0  0
    5.1680   -1.8310    0.3940 C   0  0  0  0  0  0  0  0  0  0  0  0
    6.2160   -2.8910    0.1630 C   0  0  0  0  0  0  0  0  0  0  0  0
    7.4480   -2.5510    0.6490 O   0  0  0  0  0  0  0  0  0  0  0  0
    7.7660   -1.2240    0.5360 C   0  0  0  0  0  0  0  0  0  0  0  0
    6.8770   -0.5220   -0.5250 C   0  0  0  0  0  0  0  0  0  0  0  0
  1  2  2  0
  2  3  1  0
  2 24  1  0
  3  4  1  0
  4  5  1  0
  5  6  2  0
  5 23  1  0
  6  7  1  0
  7  8  2  0
  8  9  1  0
  8 23  1  0
  9 10  2  3
 10 11  1  0
 11 12  1  0
 11 15  1  0
 12 13  2  0
 13 14  1  0
 14 15  2  0
 15 16  1  0
 16 17  2  0
 16 22  1  0
 17 18  1  0
 18 19  2  0
 19 20  1  0
 19 21  1  0
 21 22  2  0
 24 25  2  3
 24 29  1  0
 25 26  1  0
 26 27  2  3
 27 28  1  0
 29 30  2  0
 29 34  1  0
 30 31  1  0
 31 32  1  0
 32 33  1  0
 33 34  1  0
M  END
