
     RDKit          3D

 34 37  0  0  0  0  0  0  0  0999 V2000
    7.4120    1.3470   -0.5430 C   0  0  0  0  0  0  0  0  0  0  0  0
    7.1050    0.3250    0.2480 C   0  0  0  0  0  0  0  0  0  0  0  0
    7.9960   -0.8510    0.2140 C   0  0  0  0  0  0  0  0  0  0  0  0
    7.5740   -1.9130    1.0410 O   0  0  0  0  0  0  0  0  0  0  0  0
    6.4510   -1.8140    1.8460 C   0  0  0  0  0  0  0  0  0  0  0  0
    6.1050   -2.7740    2.6050 O   0  0  0  0  0  0  0  0  0  0  0  0
    5.6090   -0.6110    1.8670 C   0  0  0  0  0  0  0  0  0  0  0  0
    5.9190    0.4020    1.1070 C   0  0  0  0  0  0  0  0  0  0  0  0
    5.1250    1.6400    1.0370 C   0  0  0  0  0  0  0  0  0  0  0  0
    3.6380    1.6650    1.9990 S   0  0  0  0  0  0  0  0  0  0  0  0
    2.3330    0.6380    1.3810 C   0  0  0  0  0  0  0  0  0  0  0  0
    1.4170    1.1350    0.4340 C   0  0  0  0  0  0  0  0  0  0  0  0
    0.3890    0.3710   -0.0510 C   0  0  0  0  0  0  0  0  0  0  0  0
   -0.5620    0.8650   -1.0240 C   0  0  0  0  0  0  0  0  0  0  0  0
   -0.4950    2.1340   -1.5330 C   0  0  0  0  0  0  0  0  0  0  0  0
   -1.4170    2.6050   -2.4710 C   0  0  0  0  0  0  0  0  0  0  0  0
   -2.4130    1.7520   -2.8840 C   0  0  0  0  0  0  0  0  0  0  0  0
   -3.2870    2.0840   -3.7230 O   0  0  0  0  0  0  0  0  0  0  0  0
   -2.4560    0.5150   -2.3710 N   0  0  0  0  0  0  0  0  0  0  0  0
   -3.5240   -0.3830   -2.8140 C   0  0  0  0  0  0  0  0  0  0  0  0
   -4.7110   -0.2290   -1.9180 C   0  0  0  0  0  0  0  0  0  0  0  0
   -5.6160    0.5970   -2.1700 O   0  0  0  0  0  0  0  0  0  0  0  0
   -4.8100   -1.0340   -0.7630 N   0  0  0  0  0  0  0  0  0  0  0  0
   -5.8420   -1.0290    0.1970 C   0  0  0  0  0  0  0  0  0  0  0  0
   -6.8430   -0.0940    0.2790 C   0  0  0  0  0  0  0  0  0  0  0  0
   -7.8360   -0.1890    1.2680 C   0  0  0  0  0  0  0  0  0  0  0  0
   -7.8590   -1.2050    2.1910 C   0  0  0  0  0  0  0  0  0  0  0  0
   -9.0960   -1.3240    3.4230 Cl  0  0  0  0  0  0  0  0  0  0  0  0
   -6.8580   -2.1460    2.1140 C   0  0  0  0  0  0  0  0  0  0  0  0
   -5.8810   -2.0540    1.1430 C   0  0  0  0  0  0  0  0  0  0  0  0
   -1.5800    0.0790   -1.4830 N   0  0  0  0  0  0  0  0  0  0  0  0
    0.2930   -0.9220    0.4370 C   0  0  0  0  0  0  0  0  0  0  0  0
    1.1950   -1.4130    1.3700 C   0  0  0  0  0  0  0  0  0  0  0  0
    2.1850   -0.6150    1.8110 N   0  0  0  0  0  0  0  0  0  0  0  0
  1  2  2  0
  2  3  1  0
  2  8  1  0
  3  4  1  0
  4  5  1  0
  5  6  2  0
  5  7  1  0
  7  8  2  0
  8  9  1  0
  9 10  1  0
 10 11  1  0
 11 12  2  0
 11 34  1  0
 12 13  1  0
 13 14  1  0
 13 32  2  0
 14 15  1  0
 14 31  2  0
 15 16  2  0
 16 17  1  0
 17 18  2  0
 17 19  1  0
 19 20  1  0
 19 31  1  0
 20 21  1  0
 21 22  2  0
 21 23  1  0
 23 24  1  0
 24 25  2  0
 24 30  1  0
 25 26  1  0
 26 27  2  0
 27 28  1  0
 27 29  1  0
 29 30  2  0
 32 33  1  0
 33 34  2  0
M  END
