
     RDKit          3D

 34 37  0  0  0  0  0  0  0  0999 V2000
   -4.9140    2.3730   -1.7020 C   0  0  0  0  0  0  0  0  0  0  0  0
   -5.0560    3.1670   -0.6570 C   0  0  0  0  0  0  0  0  0  0  0  0
   -5.5040    2.6280    0.6450 C   0  0  0  0  0  0  0  0  0  0  0  0
   -5.7480    1.1660    0.5870 C   0  0  0  0  0  0  0  0  0  0  0  0
   -6.9710    0.6330    0.2730 C   0  0  0  0  0  0  0  0  0  0  0  0
   -7.1820   -0.7260    0.2230 C   0  0  0  0  0  0  0  0  0  0  0  0
   -6.1570   -1.6260    0.4900 C   0  0  0  0  0  0  0  0  0  0  0  0
   -6.4090   -2.9890    0.4280 C   0  0  0  0  0  0  0  0  0  0  0  0
   -8.0020   -3.5590    0.0180 Cl  0  0  0  0  0  0  0  0  0  0  0  0
   -5.4070   -3.8850    0.6880 C   0  0  0  0  0  0  0  0  0  0  0  0
   -4.1810   -3.3890    1.0030 C   0  0  0  0  0  0  0  0  0  0  0  0
   -3.9000   -2.0090    1.0730 C   0  0  0  0  0  0  0  0  0  0  0  0
   -2.5700   -1.5760    1.4220 C   0  0  0  0  0  0  0  0  0  0  0  0
   -1.6970   -2.5040    1.6030 O   0  0  0  0  0  0  0  0  0  0  0  0
   -2.0850   -0.3240    1.5930 O   0  0  0  0  0  0  0  0  0  0  0  0
   -0.7450   -0.0340    1.9390 C   0  0  0  0  0  0  0  0  0  0  0  0
    0.2160   -0.5520    0.9180 C   0  0  0  0  0  0  0  0  0  0  0  0
    0.7930   -1.7580    0.9570 N   0  0  0  0  0  0  0  0  0  0  0  0
    1.5680   -1.8650   -0.0940 N   0  0  0  0  0  0  0  0  0  0  0  0
    1.5220   -0.7550   -0.8330 C   0  0  0  0  0  0  0  0  0  0  0  0
    2.3730   -0.3700   -2.3740 S   0  0  0  0  0  0  0  0  0  0  0  0
    3.9380    0.4510   -1.9930 C   0  0  1  0  0  0  0  0  0  0  0  0
    3.6010    1.7850   -1.3390 C   0  0  0  0  0  0  0  0  0  0  0  0
    4.6690   -0.3670   -0.9880 C   0  0  0  0  0  0  0  0  0  0  0  0
    4.1290   -1.4340   -0.5480 O   0  0  0  0  0  0  0  0  0  0  0  0
    5.9310   -0.0310   -0.4870 N   0  0  0  0  0  0  0  0  0  0  0  0
    6.5990    1.1630   -0.9530 C   0  0  0  0  0  0  0  0  0  0  0  0
    8.0940    0.9050   -0.7940 C   0  0  0  0  0  0  0  0  0  0  0  0
    8.3380   -0.4620   -1.0170 O   0  0  0  0  0  0  0  0  0  0  0  0
    8.0190   -1.1670    0.1560 C   0  0  0  0  0  0  0  0  0  0  0  0
    6.5740   -0.8690    0.4940 C   0  0  0  0  0  0  0  0  0  0  0  0
    0.6580    0.0770   -0.1810 N   0  0  0  0  0  0  0  0  0  0  0  0
   -4.9120   -1.0950    0.8110 C   0  0  0  0  0  0  0  0  0  0  0  0
   -4.7100    0.2670    0.8580 C   0  0  0  0  0  0  0  0  0  0  0  0
  1  2  2  0
  2  3  1  0
  3  4  1  0
  4  5  2  0
  4 34  1  0
  5  6  1  0
  6  7  2  0
  7  8  1  0
  7 33  1  0
  8  9  1  0
  8 10  2  0
 10 11  1  0
 11 12  2  0
 12 13  1  0
 12 33  1  0
 13 14  2  0
 13 15  1  0
 15 16  1  0
 16 17  1  0
 17 18  2  0
 17 32  1  0
 18 19  1  0
 19 20  2  0
 20 21  1  0
 20 32  1  0
 21 22  1  0
 22 23  1  1
 22 24  1  0
 24 25  2  0
 24 26  1  0
 26 27  1  0
 26 31  1  0
 27 28  1  0
 28 29  1  0
 29 30  1  0
 30 31  1  0
 33 34  2  0
M  END
