
     RDKit          3D

 34 36  0  0  0  0  0  0  0  0999 V2000
   -0.4870   -2.4990    3.4890 C   0  0  0  0  0  0  0  0  0  0  0  0
   -0.4010   -2.5310    2.0770 O   0  0  0  0  0  0  0  0  0  0  0  0
   -1.1780   -1.6470    1.3440 C   0  0  0  0  0  0  0  0  0  0  0  0
   -2.4430   -1.9240    0.9000 C   0  0  0  0  0  0  0  0  0  0  0  0
   -3.0840   -3.2090    1.1410 C   0  0  0  0  0  0  0  0  0  0  0  0
   -2.7280   -4.3340    0.2450 C   0  0  1  0  0  0  0  0  0  0  0  0
   -1.2910   -4.7180    0.2340 C   0  0  0  0  0  0  0  0  0  0  0  0
   -3.5040   -5.5590    0.7660 C   0  0  0  0  0  0  0  0  0  0  0  0
   -3.1850   -4.1200   -1.1860 C   0  0  0  0  0  0  0  0  0  0  0  0
   -3.1560   -1.0050    0.1850 N   0  0  0  0  0  0  0  0  0  0  0  0
   -2.6530    0.2000   -0.1120 C   0  0  0  0  0  0  0  0  0  0  0  0
   -3.2780    1.0790   -0.7710 O   0  0  0  0  0  0  0  0  0  0  0  0
   -1.3670    0.5550    0.3070 C   0  0  0  0  0  0  0  0  0  0  0  0
   -0.8220    1.8570   -0.0140 C   0  0  0  0  0  0  0  0  0  0  0  0
   -1.5200    2.6820   -0.6850 N   0  0  0  0  0  0  0  0  0  0  0  0
   -1.1960    3.9710   -1.0990 C   0  0  0  0  0  0  0  0  0  0  0  0
   -2.0500    4.9760   -1.1900 C   0  0  0  0  0  0  0  0  0  0  0  0
   -1.3420    6.1780   -1.6600 C   0  0  0  0  0  0  0  0  0  0  0  0
    0.0450    5.7480   -1.8360 C   0  0  0  0  0  0  0  0  0  0  0  0
    1.4140    6.6950   -2.3770 Cl  0  0  0  0  0  0  0  0  0  0  0  0
    0.1120    4.4540   -1.5030 C   0  0  0  0  0  0  0  0  0  0  0  0
    1.3840    3.6450   -1.5520 C   0  0  0  0  0  0  0  0  0  0  0  0
   -0.6740   -0.3770    1.0190 C   0  0  0  0  0  0  0  0  0  0  0  0
    0.6680   -0.0520    1.4780 C   0  0  0  0  0  0  0  0  0  0  0  0
    0.9360    0.4820    2.5710 O   0  0  0  0  0  0  0  0  0  0  0  0
    1.7390   -0.3740    0.6050 N   0  0  0  0  0  0  0  0  0  0  0  0
    2.7430    0.3640    0.4020 C   0  0  0  0  0  0  0  0  0  0  0  0
    3.1080    1.5820    0.8900 N   0  0  0  0  0  0  0  0  0  0  0  0
    4.2070    2.1240    0.5090 C   0  0  0  0  0  0  0  0  0  0  0  0
    5.0550    1.5210   -0.3890 C   0  0  0  0  0  0  0  0  0  0  0  0
    6.2780    1.8570   -0.9730 C   0  0  0  0  0  0  0  0  0  0  0  0
    6.9470    0.9470   -1.9370 C   0  0  0  0  0  0  0  0  0  0  0  0
    6.8370    2.9430   -0.6880 O   0  0  0  0  0  0  0  0  0  0  0  0
    4.1180   -0.0420   -0.7160 S   0  0  0  0  0  0  0  0  0  0  0  0
  1  2  1  0
  2  3  1  0
  3  4  2  0
  3 23  1  0
  4  5  1  0
  4 10  1  0
  5  6  1  0
  6  7  1  6
  6  8  1  0
  6  9  1  0
 10 11  1  0
 11 12  2  0
 11 13  1  0
 13 14  1  0
 13 23  2  0
 14 15  2  3
 15 16  1  0
 16 17  2  0
 16 21  1  0
 17 18  1  0
 18 19  1  0
 19 20  1  0
 19 21  2  0
 21 22  1  0
 23 24  1  0
 24 25  2  0
 24 26  1  0
 26 27  2  3
 27 28  1  0
 27 34  1  0
 28 29  1  0
 29 30  2  0
 30 31  1  0
 30 34  1  0
 31 32  1  0
 31 33  2  0
M  END
