
     RDKit          3D

 34 37  0  0  0  0  0  0  0  0999 V2000
   -1.1850    1.1380   -2.7190 C   0  0  0  0  0  0  0  0  0  0  0  0
   -1.2160    0.0760   -1.5750 C   0  0  2  0  0  0  0  0  0  0  0  0
   -2.2430   -0.9540   -1.8570 C   0  0  0  0  0  0  0  0  0  0  0  0
   -1.2810    0.7490   -0.2680 C   0  0  0  0  0  0  0  0  0  0  0  0
   -2.3920    1.6580    0.0060 C   0  0  0  0  0  0  0  0  0  0  0  0
   -2.2290    2.9750   -0.2640 O   0  0  0  0  0  0  0  0  0  0  0  0
   -3.1590    3.8520   -0.0560 C   0  0  0  0  0  0  0  0  0  0  0  0
   -4.3910    3.5160    0.4580 C   0  0  0  0  0  0  0  0  0  0  0  0
   -4.6290    2.2030    0.7560 C   0  0  0  0  0  0  0  0  0  0  0  0
   -5.7110    1.8200    1.2220 O   0  0  0  0  0  0  0  0  0  0  0  0
   -3.5860    1.2830    0.5130 C   0  0  0  0  0  0  0  0  0  0  0  0
   -3.8860   -0.0930    0.8700 C   0  0  0  0  0  0  0  0  0  0  0  0
   -4.8250   -0.7770    0.1320 C   0  0  0  0  0  0  0  0  0  0  0  0
   -5.1660   -2.0860    0.4150 C   0  0  0  0  0  0  0  0  0  0  0  0
   -4.5300   -2.6960    1.4730 C   0  0  0  0  0  0  0  0  0  0  0  0
   -3.5730   -2.0070    2.2280 C   0  0  0  0  0  0  0  0  0  0  0  0
   -2.8090   -2.8690    3.5640 Cl  0  0  0  0  0  0  0  0  0  0  0  0
   -3.2600   -0.7100    1.9190 C   0  0  0  0  0  0  0  0  0  0  0  0
    0.1490   -0.6160   -1.7700 C   0  0  0  0  0  0  0  0  0  0  0  0
    0.4810   -1.9030   -0.6460 S   0  0  1  0  0  0  0  0  0  0  0  0
    0.5760   -1.3610    0.7590 O   0  0  0  0  0  0  0  0  0  0  0  0
   -0.5070   -3.0090   -0.6660 O   0  0  0  0  0  0  0  0  0  0  0  0
    2.0860   -2.6510   -0.9920 C   0  0  0  0  0  0  0  0  0  0  0  0
    3.1540   -1.6210   -0.8720 C   0  0  0  0  0  0  0  0  0  0  0  0
    3.8390   -1.3300    0.2860 C   0  0  0  0  0  0  0  0  0  0  0  0
    4.7350   -0.3160   -0.0360 C   0  0  0  0  0  0  0  0  0  0  0  0
    5.6790    0.3220    0.8830 C   0  0  0  0  0  0  0  0  0  0  0  0
    6.4860    1.2950    0.4300 N   0  0  0  0  0  0  0  0  0  0  0  0
    7.3780    1.9140    1.2500 C   0  0  0  0  0  0  0  0  0  0  0  0
    7.4730    1.5480    2.5800 C   0  0  0  0  0  0  0  0  0  0  0  0
    6.6360    0.5470    3.0260 C   0  0  0  0  0  0  0  0  0  0  0  0
    5.7580   -0.0450    2.1700 N   0  0  0  0  0  0  0  0  0  0  0  0
    4.5890   -0.0140   -1.3370 N   0  0  0  0  0  0  0  0  0  0  0  0
    3.6440   -0.8070   -1.8000 N   0  0  0  0  0  0  0  0  0  0  0  0
  2  1  1  6
  2  3  1  0
  2  4  1  0
  2 19  1  0
  4  5  1  0
  5  6  1  0
  5 11  2  0
  6  7  1  0
  7  8  2  0
  8  9  1  0
  9 10  2  0
  9 11  1  0
 11 12  1  0
 12 13  2  0
 12 18  1  0
 13 14  1  0
 14 15  2  0
 15 16  1  0
 16 17  1  0
 16 18  2  0
 20 19  1  6
 20 21  2  0
 20 22  2  0
 20 23  1  0
 23 24  1  0
 24 25  1  0
 24 34  2  0
 25 26  2  0
 26 27  1  0
 26 33  1  0
 27 28  2  0
 27 32  1  0
 28 29  1  0
 29 30  2  0
 30 31  1  0
 31 32  2  0
 33 34  1  0
M  END
