
     RDKit          3D

 35 37  0  0  0  0  0  0  0  0999 V2000
   -4.3710    3.0190   -2.0860 C   0  0  0  0  0  0  0  0  0  0  0  0
   -2.8860    3.0690   -2.2270 C   0  0  1  0  0  0  0  0  0  0  0  0
   -2.3090    4.2860   -1.5390 C   0  0  0  0  0  0  0  0  0  0  0  0
   -2.1700    1.7870   -1.8760 C   0  0  0  0  0  0  0  0  0  0  0  0
   -2.3140    1.2940   -0.5900 N   0  0  0  0  0  0  0  0  0  0  0  0
   -1.2890    1.4010    0.3710 C   0  0  0  0  0  0  0  0  0  0  0  0
   -0.0620    0.5770    0.1720 C   0  0  1  0  0  0  0  0  0  0  0  0
    0.6100    0.8830   -0.9660 O   0  0  0  0  0  0  0  0  0  0  0  0
    0.7840    0.5700    1.3740 C   0  0  2  0  0  0  0  0  0  0  0  0
    1.1930    1.8550    2.0090 C   0  0  0  0  0  0  0  0  0  0  0  0
    1.9830    2.8030    1.2450 C   0  0  0  0  0  0  0  0  0  0  0  0
    3.3630    2.5900    1.1490 C   0  0  0  0  0  0  0  0  0  0  0  0
    4.1970    3.4680    0.4900 C   0  0  0  0  0  0  0  0  0  0  0  0
    3.6870    4.6030   -0.1070 C   0  0  0  0  0  0  0  0  0  0  0  0
    2.3470    4.8430   -0.0330 C   0  0  0  0  0  0  0  0  0  0  0  0
    1.5240    3.9410    0.6400 C   0  0  0  0  0  0  0  0  0  0  0  0
    1.8840   -0.3820    1.3000 N   0  0  0  0  0  0  0  0  0  0  0  0
    1.9170   -1.5630    2.0630 C   0  0  0  0  0  0  0  0  0  0  0  0
    0.9670   -1.8030    2.8270 O   0  0  0  0  0  0  0  0  0  0  0  0
    2.9730   -2.4650    1.9890 O   0  0  0  0  0  0  0  0  0  0  0  0
    3.0430   -3.6530    2.7290 C   0  0  1  0  0  0  0  0  0  0  0  0
    3.3090   -4.7700    1.7060 C   0  0  0  0  0  0  0  0  0  0  0  0
    4.7500   -4.3710    1.3540 C   0  0  0  0  0  0  0  0  0  0  0  0
    5.3480   -4.0470    2.5600 O   0  0  0  0  0  0  0  0  0  0  0  0
    4.3840   -3.7510    3.4820 C   0  0  0  0  0  0  0  0  0  0  0  0
   -3.4170    0.1000   -0.2190 S   0  0  2  0  0  0  0  0  0  0  0  0
   -4.8480    0.5340   -0.3780 O   0  0  0  0  0  0  0  0  0  0  0  0
   -3.2880   -0.1910    1.2870 O   0  0  0  0  0  0  0  0  0  0  0  0
   -3.2130   -1.4340   -1.0050 C   0  0  0  0  0  0  0  0  0  0  0  0
   -2.4930   -2.4880   -0.5180 C   0  0  0  0  0  0  0  0  0  0  0  0
   -2.3830   -3.6880   -1.1940 C   0  0  0  0  0  0  0  0  0  0  0  0
   -3.0200   -3.8480   -2.4210 C   0  0  0  0  0  0  0  0  0  0  0  0
   -2.9180   -5.0940   -3.1330 N   0  0  0  0  0  0  0  0  0  0  0  0
   -3.7430   -2.8070   -2.9250 C   0  0  0  0  0  0  0  0  0  0  0  0
   -3.8400   -1.6190   -2.2330 C   0  0  0  0  0  0  0  0  0  0  0  0
  2  1  1  1
  2  3  1  0
  2  4  1  0
  4  5  1  0
  5  6  1  0
 26  5  1  6
  6  7  1  0
  7  8  1  6
  7  9  1  0
  9 10  1  6
  9 17  1  0
 10 11  1  0
 11 12  2  0
 11 16  1  0
 12 13  1  0
 13 14  2  0
 14 15  1  0
 15 16  2  0
 17 18  1  0
 18 19  2  0
 18 20  1  0
 21 20  1  6
 21 22  1  0
 21 25  1  0
 22 23  1  0
 23 24  1  0
 24 25  1  0
 26 27  2  0
 26 28  2  0
 26 29  1  0
 29 30  2  0
 29 35  1  0
 30 31  1  0
 31 32  2  0
 32 33  1  0
 32 34  1  0
 34 35  2  0
M  END
