
     RDKit          3D

 34 37  0  0  0  0  0  0  0  0999 V2000
    6.8420    2.0520    1.4580 C   0  0  0  0  0  0  0  0  0  0  0  0
    6.5280    0.8050    1.2080 C   0  0  0  0  0  0  0  0  0  0  0  0
    6.7830   -0.3310    2.1250 C   0  0  0  0  0  0  0  0  0  0  0  0
    7.1320   -1.5190    1.4520 O   0  0  0  0  0  0  0  0  0  0  0  0
    6.5190   -1.8290    0.2610 C   0  0  0  0  0  0  0  0  0  0  0  0
    6.4890   -2.9990   -0.2030 O   0  0  0  0  0  0  0  0  0  0  0  0
    5.8720   -0.7860   -0.5140 C   0  0  0  0  0  0  0  0  0  0  0  0
    5.8740    0.4720   -0.0670 C   0  0  0  0  0  0  0  0  0  0  0  0
    5.2130    1.5030   -0.8750 C   0  0  0  0  0  0  0  0  0  0  0  0
    3.8890    2.2420    0.1270 S   0  0  0  0  0  0  0  0  0  0  0  0
    2.6400    0.9940    0.4200 C   0  0  0  0  0  0  0  0  0  0  0  0
    1.5690    0.8310   -0.4710 C   0  0  0  0  0  0  0  0  0  0  0  0
    0.6050   -0.1120   -0.2680 C   0  0  0  0  0  0  0  0  0  0  0  0
   -0.5190   -0.3010   -1.1840 C   0  0  0  0  0  0  0  0  0  0  0  0
   -0.6550    0.4720   -2.3090 C   0  0  0  0  0  0  0  0  0  0  0  0
   -1.7210    0.2750   -3.1550 C   0  0  0  0  0  0  0  0  0  0  0  0
   -2.6250   -0.7170   -2.8180 C   0  0  0  0  0  0  0  0  0  0  0  0
   -3.6010   -0.8960   -3.5940 O   0  0  0  0  0  0  0  0  0  0  0  0
   -2.4790   -1.4660   -1.7120 N   0  0  0  0  0  0  0  0  0  0  0  0
   -3.4830   -2.4800   -1.4450 C   0  0  0  0  0  0  0  0  0  0  0  0
   -4.5990   -1.9310   -0.6210 C   0  0  0  0  0  0  0  0  0  0  0  0
   -5.5400   -2.6840   -0.2990 O   0  0  0  0  0  0  0  0  0  0  0  0
   -4.6330   -0.5910   -0.1890 N   0  0  0  0  0  0  0  0  0  0  0  0
   -5.6090    0.0530    0.5870 C   0  0  0  0  0  0  0  0  0  0  0  0
   -6.6330   -0.5600    1.2490 C   0  0  0  0  0  0  0  0  0  0  0  0
   -7.5710    0.1840    1.9900 C   0  0  0  0  0  0  0  0  0  0  0  0
   -7.5060    1.5520    2.0850 C   0  0  0  0  0  0  0  0  0  0  0  0
   -8.6720    2.4870    3.0070 Cl  0  0  0  0  0  0  0  0  0  0  0  0
   -6.4750    2.1750    1.4190 C   0  0  0  0  0  0  0  0  0  0  0  0
   -5.5560    1.4500    0.6930 C   0  0  0  0  0  0  0  0  0  0  0  0
   -1.4510   -1.2490   -0.9310 N   0  0  0  0  0  0  0  0  0  0  0  0
    0.6820   -0.9250    0.8380 C   0  0  0  0  0  0  0  0  0  0  0  0
    1.7550   -0.7500    1.7170 C   0  0  0  0  0  0  0  0  0  0  0  0
    2.6800    0.1910    1.4760 N   0  0  0  0  0  0  0  0  0  0  0  0
  1  2  2  0
  2  3  1  0
  2  8  1  0
  3  4  1  0
  4  5  1  0
  5  6  2  0
  5  7  1  0
  7  8  2  0
  8  9  1  0
  9 10  1  0
 10 11  1  0
 11 12  2  0
 11 34  1  0
 12 13  1  0
 13 14  1  0
 13 32  2  0
 14 15  1  0
 14 31  2  0
 15 16  2  0
 16 17  1  0
 17 18  2  0
 17 19  1  0
 19 20  1  0
 19 31  1  0
 20 21  1  0
 21 22  2  0
 21 23  1  0
 23 24  1  0
 24 25  2  0
 24 30  1  0
 25 26  1  0
 26 27  2  0
 27 28  1  0
 27 29  1  0
 29 30  2  0
 32 33  1  0
 33 34  2  0
M  END
