
     RDKit          3D

 34 37  0  0  0  0  0  0  0  0999 V2000
    7.1880   -0.0140    0.1180 C   0  0  0  0  0  0  0  0  0  0  0  0
    6.0000    0.3670    0.9270 C   0  0  0  0  0  0  0  0  0  0  0  0
    4.8050   -0.0750    0.5650 C   0  0  0  0  0  0  0  0  0  0  0  0
    4.6950   -0.9150   -0.6080 C   0  0  0  0  0  0  0  0  0  0  0  0
    3.5820   -1.3720   -1.0490 C   0  0  0  0  0  0  0  0  0  0  0  0
    3.6420   -2.4180   -2.5010 Cl  0  0  0  0  0  0  0  0  0  0  0  0
    2.2530   -1.0120   -0.6340 C   0  0  0  0  0  0  0  0  0  0  0  0
    1.2250   -1.9280   -0.5370 N   0  0  0  0  0  0  0  0  0  0  0  0
    0.1220   -1.3440   -0.2130 N   0  0  0  0  0  0  0  0  0  0  0  0
   -1.1290   -2.0080   -0.0290 C   0  0  0  0  0  0  0  0  0  0  0  0
   -1.1460   -3.3170    0.4010 C   0  0  0  0  0  0  0  0  0  0  0  0
   -2.3190   -4.0130    0.5970 C   0  0  0  0  0  0  0  0  0  0  0  0
   -3.5030   -3.3560    0.3490 C   0  0  0  0  0  0  0  0  0  0  0  0
   -4.7740   -4.0430    0.5400 C   0  0  0  0  0  0  0  0  0  0  0  0
   -5.8570   -3.4620    0.3190 O   0  0  0  0  0  0  0  0  0  0  0  0
   -4.8010   -5.3480    0.9680 O   0  0  0  0  0  0  0  0  0  0  0  0
   -6.0340   -6.0540    1.1660 C   0  0  0  0  0  0  0  0  0  0  0  0
   -3.4900   -2.0470   -0.0810 C   0  0  0  0  0  0  0  0  0  0  0  0
   -2.3090   -1.4260   -0.2530 N   0  0  0  0  0  0  0  0  0  0  0  0
    0.3720    0.0140   -0.0840 C   0  0  0  0  0  0  0  0  0  0  0  0
   -0.6790    0.8650    0.2860 N   0  0  0  0  0  0  0  0  0  0  0  0
   -0.9250    2.2090    0.0520 C   0  0  0  0  0  0  0  0  0  0  0  0
   -0.2300    2.8710   -0.7130 O   0  0  0  0  0  0  0  0  0  0  0  0
   -2.0560    2.9290    0.7220 C   0  0  2  0  0  0  0  0  0  0  0  0
   -3.3850    2.3320    0.3470 C   0  0  0  0  0  0  0  0  0  0  0  0
   -3.7860    3.1430   -0.8480 C   0  0  0  0  0  0  0  0  0  0  0  0
   -2.9670    4.3820   -0.7160 C   0  0  0  0  0  0  0  0  0  0  0  0
   -2.1220    4.2460    0.3550 O   0  0  0  0  0  0  0  0  0  0  0  0
    1.7030    0.2320   -0.3440 C   0  0  0  0  0  0  0  0  0  0  0  0
    2.4110    1.5450   -0.4610 C   0  0  0  0  0  0  0  0  0  0  0  0
    2.2540    2.4820    0.4160 C   0  0  0  0  0  0  0  0  0  0  0  0
    2.9910    3.7510    0.2180 C   0  0  0  0  0  0  0  0  0  0  0  0
    3.0800    3.7060   -1.6320 S   0  0  0  0  0  0  0  0  0  0  0  0
    3.2330    1.8520   -1.6490 C   0  0  0  0  0  0  0  0  0  0  0  0
  1  2  1  0
  2  3  2  3
  3  4  1  0
  4  5  2  3
  5  6  1  0
  5  7  1  0
  7  8  2  0
  7 29  1  0
  8  9  1  0
  9 10  1  0
  9 20  1  0
 10 11  2  0
 10 19  1  0
 11 12  1  0
 12 13  2  0
 13 14  1  0
 13 18  1  0
 14 15  2  0
 14 16  1  0
 16 17  1  0
 18 19  2  0
 20 21  1  0
 20 29  2  0
 21 22  1  0
 22 23  2  0
 24 22  1  6
 24 25  1  0
 24 28  1  0
 25 26  1  0
 26 27  1  0
 27 28  1  0
 29 30  1  0
 30 31  2  0
 30 34  1  0
 31 32  1  0
 32 33  1  0
 33 34  1  0
M  END
