
     RDKit          3D

 34 37  0  0  0  0  0  0  0  0999 V2000
    6.6170   -2.1480    0.5980 C   0  0  0  0  0  0  0  0  0  0  0  0
    7.0070   -0.7260    0.8480 C   0  0  0  0  0  0  0  0  0  0  0  0
    6.1300    0.2500    0.8610 C   0  0  0  0  0  0  0  0  0  0  0  0
    4.6910    0.0160    0.6300 C   0  0  0  0  0  0  0  0  0  0  0  0
    3.8500    1.0220    0.6520 C   0  0  0  0  0  0  0  0  0  0  0  0
    4.5290    2.6390    0.9730 Cl  0  0  0  0  0  0  0  0  0  0  0  0
    2.4240    0.9630    0.4060 C   0  0  0  0  0  0  0  0  0  0  0  0
    1.5500    1.9870    0.6660 N   0  0  0  0  0  0  0  0  0  0  0  0
    0.3330    1.6330    0.3680 N   0  0  0  0  0  0  0  0  0  0  0  0
   -0.8620    2.4010    0.4850 C   0  0  0  0  0  0  0  0  0  0  0  0
   -1.7020    2.5630   -0.5980 C   0  0  0  0  0  0  0  0  0  0  0  0
   -2.8660    3.2920   -0.5440 C   0  0  0  0  0  0  0  0  0  0  0  0
   -3.2080    3.8860    0.6440 C   0  0  0  0  0  0  0  0  0  0  0  0
   -4.4410    4.6730    0.7470 C   0  0  0  0  0  0  0  0  0  0  0  0
   -5.1780    4.7970   -0.2590 O   0  0  0  0  0  0  0  0  0  0  0  0
   -4.7910    5.2740    1.9400 O   0  0  0  0  0  0  0  0  0  0  0  0
   -5.9860    6.0460    2.0710 C   0  0  0  0  0  0  0  0  0  0  0  0
   -2.3640    3.7190    1.7210 C   0  0  0  0  0  0  0  0  0  0  0  0
   -1.2310    2.9990    1.6340 N   0  0  0  0  0  0  0  0  0  0  0  0
    0.3430    0.3380   -0.1150 C   0  0  0  0  0  0  0  0  0  0  0  0
   -0.8550   -0.3010   -0.4640 N   0  0  0  0  0  0  0  0  0  0  0  0
   -1.0830   -1.4360   -1.2570 C   0  0  0  0  0  0  0  0  0  0  0  0
   -0.1590   -1.9860   -1.8740 O   0  0  0  0  0  0  0  0  0  0  0  0
   -2.4910   -1.9880   -1.3520 C   0  0  2  0  0  0  0  0  0  0  0  0
   -2.9250   -2.5500   -0.0260 C   0  0  0  0  0  0  0  0  0  0  0  0
   -3.7590   -3.7690   -0.3730 C   0  0  0  0  0  0  0  0  0  0  0  0
   -3.6950   -3.7320   -1.9000 C   0  0  0  0  0  0  0  0  0  0  0  0
   -2.4680   -3.0980   -2.1830 O   0  0  0  0  0  0  0  0  0  0  0  0
    1.6450   -0.0770   -0.0900 C   0  0  0  0  0  0  0  0  0  0  0  0
    2.1990   -1.3700   -0.5870 C   0  0  0  0  0  0  0  0  0  0  0  0
    1.9650   -2.4770    0.0140 C   0  0  0  0  0  0  0  0  0  0  0  0
    2.5460   -3.7160   -0.5320 C   0  0  0  0  0  0  0  0  0  0  0  0
    2.9170   -3.1940   -2.2280 S   0  0  0  0  0  0  0  0  0  0  0  0
    2.9500   -1.3900   -1.8530 C   0  0  0  0  0  0  0  0  0  0  0  0
  1  2  1  0
  2  3  2  3
  3  4  1  0
  4  5  2  3
  5  6  1  0
  5  7  1  0
  7  8  2  0
  7 29  1  0
  8  9  1  0
  9 10  1  0
  9 20  1  0
 10 11  2  0
 10 19  1  0
 11 12  1  0
 12 13  2  0
 13 14  1  0
 13 18  1  0
 14 15  2  0
 14 16  1  0
 16 17  1  0
 18 19  2  0
 20 21  1  0
 20 29  2  0
 21 22  1  0
 22 23  2  0
 24 22  1  1
 24 25  1  0
 24 28  1  0
 25 26  1  0
 26 27  1  0
 27 28  1  0
 29 30  1  0
 30 31  2  0
 30 34  1  0
 31 32  1  0
 32 33  1  0
 33 34  1  0
M  END
