
     RDKit          3D

 35 37  0  0  0  0  0  0  0  0999 V2000
   -0.8210    0.2950   -3.3800 C   0  0  0  0  0  0  0  0  0  0  0  0
   -2.0080   -0.2160   -2.6370 C   0  0  1  0  0  0  0  0  0  0  0  0
   -2.3410   -1.5940   -3.2400 C   0  0  0  0  0  0  0  0  0  0  0  0
   -1.8180   -0.4410   -1.1840 C   0  0  0  0  0  0  0  0  0  0  0  0
   -1.4500    0.7080   -0.3900 N   0  0  0  0  0  0  0  0  0  0  0  0
   -0.7030    0.2140    0.6950 C   0  0  0  0  0  0  0  0  0  0  0  0
    0.4300    0.9840    1.2540 C   0  0  1  0  0  0  0  0  0  0  0  0
    0.8530    0.1630    2.3690 O   0  0  0  0  0  0  0  0  0  0  0  0
    1.6810    1.0090    0.4010 C   0  0  2  0  0  0  0  0  0  0  0  0
    1.6890    1.9400   -0.7410 C   0  0  0  0  0  0  0  0  0  0  0  0
    1.5360    3.3620   -0.4540 C   0  0  0  0  0  0  0  0  0  0  0  0
    0.2840    3.9280   -0.5240 C   0  0  0  0  0  0  0  0  0  0  0  0
    0.1010    5.2760   -0.2420 C   0  0  0  0  0  0  0  0  0  0  0  0
    1.1690    6.0680    0.1100 C   0  0  0  0  0  0  0  0  0  0  0  0
    2.4340    5.5160    0.1840 C   0  0  0  0  0  0  0  0  0  0  0  0
    2.5840    4.1580   -0.1040 C   0  0  0  0  0  0  0  0  0  0  0  0
    2.0680   -0.3160   -0.0460 N   0  0  0  0  0  0  0  0  0  0  0  0
    3.2680   -0.9580    0.3480 C   0  0  0  0  0  0  0  0  0  0  0  0
    4.0510   -0.3570    1.1280 O   0  0  0  0  0  0  0  0  0  0  0  0
    3.6270   -2.2240   -0.0860 O   0  0  0  0  0  0  0  0  0  0  0  0
    4.8470   -2.7880    0.3600 C   0  0  1  0  0  0  0  0  0  0  0  0
    4.5480   -4.1090    1.0440 C   0  0  0  0  0  0  0  0  0  0  0  0
    4.7840   -5.0920   -0.0830 C   0  0  0  0  0  0  0  0  0  0  0  0
    5.9120   -4.5690   -0.7030 O   0  0  0  0  0  0  0  0  0  0  0  0
    5.7410   -3.1960   -0.7820 C   0  0  0  0  0  0  0  0  0  0  0  0
   -2.8870    1.5350    0.0440 S   0  0  2  0  0  0  0  0  0  0  0  0
   -3.6250    1.8980   -1.2130 O   0  0  0  0  0  0  0  0  0  0  0  0
   -2.6590    2.8340    0.7630 O   0  0  0  0  0  0  0  0  0  0  0  0
   -3.8920    0.4650    0.9990 C   0  0  0  0  0  0  0  0  0  0  0  0
   -3.7640    0.3980    2.3720 C   0  0  0  0  0  0  0  0  0  0  0  0
   -4.5400   -0.4260    3.1400 C   0  0  0  0  0  0  0  0  0  0  0  0
   -5.4930   -1.2300    2.5610 C   0  0  0  0  0  0  0  0  0  0  0  0
   -6.2960   -2.0850    3.3720 N   0  0  0  0  0  0  0  0  0  0  0  0
   -5.6420   -1.1820    1.1930 C   0  0  0  0  0  0  0  0  0  0  0  0
   -4.8490   -0.3430    0.4220 C   0  0  0  0  0  0  0  0  0  0  0  0
  2  1  1  6
  2  3  1  0
  2  4  1  0
  4  5  1  0
  5  6  1  0
 26  5  1  6
  6  7  1  0
  7  8  1  1
  7  9  1  0
  9 10  1  6
  9 17  1  0
 10 11  1  0
 11 12  2  0
 11 16  1  0
 12 13  1  0
 13 14  2  0
 14 15  1  0
 15 16  2  0
 17 18  1  0
 18 19  2  0
 18 20  1  0
 21 20  1  6
 21 22  1  0
 21 25  1  0
 22 23  1  0
 23 24  1  0
 24 25  1  0
 26 27  2  0
 26 28  2  0
 26 29  1  0
 29 30  2  0
 29 35  1  0
 30 31  1  0
 31 32  2  0
 32 33  1  0
 32 34  1  0
 34 35  2  0
M  END
