
     RDKit          3D

 34 37  0  0  0  0  0  0  0  0999 V2000
   -5.1600    4.0820   -0.4950 C   0  0  0  0  0  0  0  0  0  0  0  0
   -5.8000    3.0870   -1.1890 O   0  0  0  0  0  0  0  0  0  0  0  0
   -6.5580    2.2940   -0.3730 C   0  0  0  0  0  0  0  0  0  0  0  0
   -5.6700    1.6630    0.6390 C   0  0  0  0  0  0  0  0  0  0  0  0
   -4.9740    0.6970    0.8200 N   0  0  0  0  0  0  0  0  0  0  0  0
   -4.2770    0.3940    1.8820 C   0  0  0  0  0  0  0  0  0  0  0  0
   -3.4670   -0.8590    1.9460 C   0  0  0  0  0  0  0  0  0  0  0  0
   -2.8430   -1.0210    3.0570 O   0  0  0  0  0  0  0  0  0  0  0  0
   -3.3810   -1.7750    0.9220 N   0  0  0  0  0  0  0  0  0  0  0  0
   -2.5360   -2.0020    0.0070 C   0  0  0  0  0  0  0  0  0  0  0  0
   -1.3460   -1.2490   -0.1630 N   0  0  0  0  0  0  0  0  0  0  0  0
   -0.7860   -0.4810    0.8980 C   0  0  0  0  0  0  0  0  0  0  0  0
    0.5160    0.1630    0.4710 C   0  0  0  0  0  0  0  0  0  0  0  0
    1.5470    0.5300    1.3120 C   0  0  0  0  0  0  0  0  0  0  0  0
    2.5590    1.0810    0.5440 C   0  0  0  0  0  0  0  0  0  0  0  0
    3.8040    1.6090    0.8160 C   0  0  0  0  0  0  0  0  0  0  0  0
    4.6500    2.1100   -0.1830 C   0  0  0  0  0  0  0  0  0  0  0  0
    5.9940    2.6130    0.1240 C   0  0  0  0  0  0  0  0  0  0  0  0
    7.1100    1.6490    0.0350 C   0  0  1  0  0  0  0  0  0  0  0  0
    6.9510    0.4700    0.9840 C   0  0  0  0  0  0  0  0  0  0  0  0
    7.3960    1.0610   -1.3180 C   0  0  0  0  0  0  0  0  0  0  0  0
    4.1650    2.0460   -1.4610 C   0  0  0  0  0  0  0  0  0  0  0  0
    5.0700    2.6930   -2.8440 Cl  0  0  0  0  0  0  0  0  0  0  0  0
    2.9090    1.5130   -1.7490 C   0  0  0  0  0  0  0  0  0  0  0  0
    2.0940    1.0250   -0.7530 C   0  0  0  0  0  0  0  0  0  0  0  0
    0.8920    0.4780   -0.7420 O   0  0  0  0  0  0  0  0  0  0  0  0
   -2.7960   -3.0830   -0.9030 N   0  0  0  0  0  0  0  0  0  0  0  0
   -3.4040   -4.2790   -0.3890 C   0  0  0  0  0  0  0  0  0  0  0  0
   -2.5570   -5.4520   -0.8390 C   0  0  0  0  0  0  0  0  0  0  0  0
   -2.3490   -5.3560   -2.1990 O   0  0  0  0  0  0  0  0  0  0  0  0
   -1.6220   -4.2500   -2.5930 C   0  0  0  0  0  0  0  0  0  0  0  0
   -2.4680   -3.0010   -2.2930 C   0  0  0  0  0  0  0  0  0  0  0  0
   -4.3360    1.2780    2.9330 C   0  0  0  0  0  0  0  0  0  0  0  0
   -5.4690    2.5390    2.2250 S   0  0  0  0  0  0  0  0  0  0  0  0
  1  2  1  0
  2  3  1  0
  3  4  1  0
  4  5  2  0
  4 34  1  0
  5  6  1  0
  6  7  1  0
  6 33  2  0
  7  8  2  0
  7  9  1  0
  9 10  2  3
 10 11  1  0
 10 27  1  0
 11 12  1  0
 12 13  1  0
 13 14  2  0
 13 26  1  0
 14 15  1  0
 15 16  2  0
 15 25  1  0
 16 17  1  0
 17 18  1  0
 17 22  2  0
 18 19  1  0
 19 20  1  1
 19 21  1  0
 22 23  1  0
 22 24  1  0
 24 25  2  0
 25 26  1  0
 27 28  1  0
 27 32  1  0
 28 29  1  0
 29 30  1  0
 30 31  1  0
 31 32  1  0
 33 34  1  0
M  END
