
     RDKit          3D

 34 36  0  0  0  0  0  0  0  0999 V2000
   -2.2870    2.6190   -1.5280 C   0  0  0  0  0  0  0  0  0  0  0  0
   -2.3010    1.7450   -0.4440 O   0  0  0  0  0  0  0  0  0  0  0  0
   -1.9090    0.4090   -0.4630 C   0  0  0  0  0  0  0  0  0  0  0  0
   -2.8440   -0.5410   -0.7540 C   0  0  0  0  0  0  0  0  0  0  0  0
   -4.2470   -0.2370   -1.0270 C   0  0  0  0  0  0  0  0  0  0  0  0
   -5.1160    0.0310    0.1500 C   0  0  1  0  0  0  0  0  0  0  0  0
   -5.1810   -1.1350    1.1160 C   0  0  0  0  0  0  0  0  0  0  0  0
   -4.8490    1.2770    0.9110 C   0  0  0  0  0  0  0  0  0  0  0  0
   -6.5450    0.1800   -0.4160 C   0  0  0  0  0  0  0  0  0  0  0  0
   -2.4100   -1.8340   -0.7640 N   0  0  0  0  0  0  0  0  0  0  0  0
   -1.1370   -2.1520   -0.5020 C   0  0  0  0  0  0  0  0  0  0  0  0
   -0.7790   -3.3590   -0.5230 O   0  0  0  0  0  0  0  0  0  0  0  0
   -0.1500   -1.2030   -0.1970 C   0  0  0  0  0  0  0  0  0  0  0  0
    1.2020   -1.6530    0.0760 C   0  0  0  0  0  0  0  0  0  0  0  0
    1.4390   -2.9310    0.0260 N   0  0  0  0  0  0  0  0  0  0  0  0
    2.7470   -3.4430    0.2840 C   0  0  0  0  0  0  0  0  0  0  0  0
    3.9130   -2.9040    0.0000 C   0  0  0  0  0  0  0  0  0  0  0  0
    4.9890   -3.7950    0.4560 C   0  0  0  0  0  0  0  0  0  0  0  0
    4.2740   -4.9400    1.0500 C   0  0  0  0  0  0  0  0  0  0  0  0
    5.0660   -6.3400    1.7700 Cl  0  0  0  0  0  0  0  0  0  0  0  0
    2.9880   -4.7110    0.9380 C   0  0  0  0  0  0  0  0  0  0  0  0
    1.9370   -5.6560    1.4310 C   0  0  0  0  0  0  0  0  0  0  0  0
   -0.5560    0.1070   -0.1800 C   0  0  0  0  0  0  0  0  0  0  0  0
    0.3670    1.1560    0.1410 C   0  0  0  0  0  0  0  0  0  0  0  0
   -0.1220    2.3470    0.1630 O   0  0  0  0  0  0  0  0  0  0  0  0
    1.7270    1.0760    0.4340 N   0  0  0  0  0  0  0  0  0  0  0  0
    2.5360    2.0360    0.2310 C   0  0  0  0  0  0  0  0  0  0  0  0
    3.8540    2.1720    0.4350 N   0  0  0  0  0  0  0  0  0  0  0  0
    4.4590    3.2790    0.1410 C   0  0  0  0  0  0  0  0  0  0  0  0
    3.7890    4.3320   -0.3780 C   0  0  0  0  0  0  0  0  0  0  0  0
    4.1600    5.6390   -0.7900 C   0  0  0  0  0  0  0  0  0  0  0  0
    5.5600    6.0840   -0.6830 C   0  0  0  0  0  0  0  0  0  0  0  0
    3.3050    6.4330   -1.2500 O   0  0  0  0  0  0  0  0  0  0  0  0
    2.0940    3.6630   -0.4570 S   0  0  0  0  0  0  0  0  0  0  0  0
  1  2  1  0
  2  3  1  0
  3  4  2  0
  3 23  1  0
  4  5  1  0
  4 10  1  0
  5  6  1  0
  6  7  1  1
  6  8  1  0
  6  9  1  0
 10 11  1  0
 11 12  2  0
 11 13  1  0
 13 14  1  0
 13 23  2  0
 14 15  2  3
 15 16  1  0
 16 17  2  0
 16 21  1  0
 17 18  1  0
 18 19  1  0
 19 20  1  0
 19 21  2  0
 21 22  1  0
 23 24  1  0
 24 25  2  0
 24 26  1  0
 26 27  2  3
 27 28  1  0
 27 34  1  0
 28 29  1  0
 29 30  2  0
 30 31  1  0
 30 34  1  0
 31 32  1  0
 31 33  2  0
M  END
