
     RDKit          3D

 34 37  0  0  0  0  0  0  0  0999 V2000
    4.5530    1.8810   -1.7380 C   0  0  0  0  0  0  0  0  0  0  0  0
    4.7900    0.4210   -1.9390 C   0  0  0  0  0  0  0  0  0  0  0  0
    5.2730   -0.2220   -0.6840 C   0  0  2  0  0  0  0  0  0  0  0  0
    4.1840    0.0120    0.3360 C   0  0  0  0  0  0  0  0  0  0  0  0
    4.3660    0.6790    1.3810 O   0  0  0  0  0  0  0  0  0  0  0  0
    2.8780   -0.5290    0.1410 N   0  0  0  0  0  0  0  0  0  0  0  0
    1.8130   -0.3070    1.1220 C   0  0  0  0  0  0  0  0  0  0  0  0
    0.5890   -1.0080    0.6010 C   0  0  0  0  0  0  0  0  0  0  0  0
   -0.3200   -0.8020   -0.1590 N   0  0  0  0  0  0  0  0  0  0  0  0
   -1.3050   -1.5950   -0.4550 C   0  0  0  0  0  0  0  0  0  0  0  0
   -2.4190   -1.2690   -1.4230 C   0  0  0  0  0  0  0  0  0  0  0  0
   -3.6120   -0.9370   -0.6120 C   0  0  0  0  0  0  0  0  0  0  0  0
   -3.5750   -0.9650    0.6360 O   0  0  0  0  0  0  0  0  0  0  0  0
   -4.8310   -0.5780   -1.1970 O   0  0  0  0  0  0  0  0  0  0  0  0
   -5.9390   -0.2690   -0.4170 C   0  0  0  0  0  0  0  0  0  0  0  0
   -6.8780   -1.1950   -0.0400 C   0  0  0  0  0  0  0  0  0  0  0  0
   -6.7090   -2.8630   -0.5480 Cl  0  0  0  0  0  0  0  0  0  0  0  0
   -7.9730   -0.8470    0.7430 C   0  0  0  0  0  0  0  0  0  0  0  0
   -8.1280    0.4720    1.1580 C   0  0  0  0  0  0  0  0  0  0  0  0
   -7.1880    1.4050    0.7820 C   0  0  0  0  0  0  0  0  0  0  0  0
   -6.1140    1.0360    0.0080 C   0  0  0  0  0  0  0  0  0  0  0  0
   -5.3100    2.2340   -0.2170 C   0  0  0  0  0  0  0  0  0  0  0  0
   -5.8520    3.2750    0.3790 C   0  0  0  0  0  0  0  0  0  0  0  0
   -7.1080    2.8750    1.0840 C   0  0  0  0  0  0  0  0  0  0  0  0
   -1.3180   -2.8260    0.1750 C   0  0  0  0  0  0  0  0  0  0  0  0
   -2.2460   -3.9670    0.1000 C   0  0  0  0  0  0  0  0  0  0  0  0
    0.1760   -2.7120    1.1890 S   0  0  0  0  0  0  0  0  0  0  0  0
    6.5270    0.2080   -0.1760 N   0  0  0  0  0  0  0  0  0  0  0  0
    6.8330   -0.1270    1.1000 C   0  0  0  0  0  0  0  0  0  0  0  0
    8.0040    0.2360    1.6720 N   0  0  0  0  0  0  0  0  0  0  0  0
    8.9240    0.9490    1.0000 C   0  0  0  0  0  0  0  0  0  0  0  0
    8.6210    1.2930   -0.2970 C   0  0  0  0  0  0  0  0  0  0  0  0
    7.4260    0.9180   -0.8680 C   0  0  0  0  0  0  0  0  0  0  0  0
    7.2130    1.2670   -2.0640 O   0  0  0  0  0  0  0  0  0  0  0  0
  1  2  1  0
  3  2  1  6
  3  4  1  0
  3 28  1  0
  4  5  2  0
  4  6  1  0
  6  7  1  0
  7  8  1  0
  8  9  2  0
  8 27  1  0
  9 10  1  0
 10 11  1  0
 10 25  2  0
 11 12  1  0
 12 13  2  0
 12 14  1  0
 14 15  1  0
 15 16  2  0
 15 21  1  0
 16 17  1  0
 16 18  1  0
 18 19  2  0
 19 20  1  0
 20 21  2  0
 20 24  1  0
 21 22  1  0
 22 23  2  0
 23 24  1  0
 25 26  1  0
 25 27  1  0
 28 29  1  0
 28 33  1  0
 29 30  2  0
 30 31  1  0
 31 32  2  0
 32 33  1  0
 33 34  2  0
M  END
