
     RDKit          3D

 34 37  0  0  0  0  0  0  0  0999 V2000
    6.5040    0.4930   -3.0990 C   0  0  0  0  0  0  0  0  0  0  0  0
    7.0080   -0.0060   -1.8000 C   0  0  0  0  0  0  0  0  0  0  0  0
    6.4790    0.2920   -0.6120 N   0  0  0  0  0  0  0  0  0  0  0  0
    6.9270   -0.1510    0.5700 C   0  0  0  0  0  0  0  0  0  0  0  0
    6.3530    0.1910    1.8880 C   0  0  0  0  0  0  0  0  0  0  0  0
    4.9240    0.0010    1.8610 N   0  0  0  0  0  0  0  0  0  0  0  0
    4.1140    0.9520    1.2310 C   0  0  0  0  0  0  0  0  0  0  0  0
    4.6710    1.9320    0.6830 O   0  0  0  0  0  0  0  0  0  0  0  0
    2.6810    0.8490    1.2070 C   0  0  0  0  0  0  0  0  0  0  0  0
    1.8990    1.7250    0.5980 C   0  0  0  0  0  0  0  0  0  0  0  0
    0.4390    1.5160    0.6500 C   0  0  0  0  0  0  0  0  0  0  0  0
   -0.2810    0.6330    1.4020 C   0  0  0  0  0  0  0  0  0  0  0  0
   -1.6540    0.7660    1.1600 C   0  0  0  0  0  0  0  0  0  0  0  0
   -2.6770    0.1300    1.7340 C   0  0  0  0  0  0  0  0  0  0  0  0
   -3.6570   -0.5030    2.2940 N   0  0  0  0  0  0  0  0  0  0  0  0
   -1.6810    1.8110    0.1810 C   0  0  0  0  0  0  0  0  0  0  0  0
   -3.1520    2.4760   -0.5270 S   0  0  0  0  0  0  0  0  0  0  0  0
   -3.7890    1.4010   -1.8290 C   0  0  0  0  0  0  0  0  0  0  0  0
   -4.9630    0.6550   -1.3120 C   0  0  0  0  0  0  0  0  0  0  0  0
   -6.2090    1.2300   -1.6740 C   0  0  0  0  0  0  0  0  0  0  0  0
   -7.3390    0.6440   -1.2200 C   0  0  0  0  0  0  0  0  0  0  0  0
   -7.2650   -0.4960   -0.4170 C   0  0  0  0  0  0  0  0  0  0  0  0
   -8.4150   -1.0970    0.0560 C   0  0  0  0  0  0  0  0  0  0  0  0
   -8.3380   -2.2100    0.8480 C   0  0  0  0  0  0  0  0  0  0  0  0
   -7.1500   -2.7670    1.2020 C   0  0  0  0  0  0  0  0  0  0  0  0
   -7.1010   -4.1880    2.2120 Cl  0  0  0  0  0  0  0  0  0  0  0  0
   -5.9890   -2.1500    0.7170 C   0  0  0  0  0  0  0  0  0  0  0  0
   -6.0510   -1.0320   -0.0820 C   0  0  0  0  0  0  0  0  0  0  0  0
   -4.9300   -0.4140   -0.5610 N   0  0  0  0  0  0  0  0  0  0  0  0
   -0.4510    2.1680   -0.0400 O   0  0  0  0  0  0  0  0  0  0  0  0
    8.0360   -0.9890    0.5160 C   0  0  0  0  0  0  0  0  0  0  0  0
    8.5550   -1.2740   -0.7170 C   0  0  0  0  0  0  0  0  0  0  0  0
    9.5550   -2.0220   -0.8100 O   0  0  0  0  0  0  0  0  0  0  0  0
    8.0540   -0.7950   -1.8480 O   0  0  0  0  0  0  0  0  0  0  0  0
  1  2  1  0
  2  3  2  0
  2 34  1  0
  3  4  1  0
  4  5  1  0
  4 31  2  0
  5  6  1  0
  6  7  1  0
  7  8  2  0
  7  9  1  0
  9 10  2  3
 10 11  1  0
 11 12  2  0
 11 30  1  0
 12 13  1  0
 13 14  1  0
 13 16  2  0
 14 15  3  0
 16 17  1  0
 16 30  1  0
 17 18  1  0
 18 19  1  0
 19 20  2  0
 19 29  1  0
 20 21  1  0
 21 22  2  0
 22 23  1  0
 22 28  1  0
 23 24  2  0
 24 25  1  0
 25 26  1  0
 25 27  2  0
 27 28  1  0
 28 29  2  0
 31 32  1  0
 32 33  2  0
 32 34  1  0
M  END
