
     RDKit          3D

 34 37  0  0  0  0  0  0  0  0999 V2000
   -3.2720   -0.1660   -2.8210 O   0  0  0  0  0  0  0  0  0  0  0  0
   -3.2930   -0.1410   -1.5320 C   0  0  0  0  0  0  0  0  0  0  0  0
   -2.1030   -0.1830   -0.9210 O   0  0  0  0  0  0  0  0  0  0  0  0
   -0.8830   -0.2510   -1.6360 C   0  0  0  0  0  0  0  0  0  0  0  0
    0.2750   -0.2840   -0.6850 C   0  0  0  0  0  0  0  0  0  0  0  0
    0.9640   -0.9860   -0.0610 N   0  0  0  0  0  0  0  0  0  0  0  0
    1.9390   -0.5960    0.7020 N   0  0  0  0  0  0  0  0  0  0  0  0
    2.2920    0.4900    0.8960 C   0  0  0  0  0  0  0  0  0  0  0  0
    3.2370    1.2630    1.6020 N   0  0  0  0  0  0  0  0  0  0  0  0
    4.3030    1.7730    1.0770 C   0  0  0  0  0  0  0  0  0  0  0  0
    4.6530    1.6110   -0.2930 N   0  0  0  0  0  0  0  0  0  0  0  0
    4.0780    2.3620   -1.2920 C   0  0  0  0  0  0  0  0  0  0  0  0
    4.5950    2.0020   -2.5000 C   0  0  0  0  0  0  0  0  0  0  0  0
    5.5120    1.0030   -2.2350 C   0  0  0  0  0  0  0  0  0  0  0  0
    5.5320    0.7770   -0.8580 C   0  0  0  0  0  0  0  0  0  0  0  0
    6.3810   -0.2090   -0.1910 C   0  0  0  0  0  0  0  0  0  0  0  0
    7.2440   -0.9870   -0.9620 C   0  0  0  0  0  0  0  0  0  0  0  0
    8.0780   -1.9420   -0.4040 C   0  0  0  0  0  0  0  0  0  0  0  0
    8.0620   -2.1370    0.9560 C   0  0  0  0  0  0  0  0  0  0  0  0
    9.0900   -3.3230    1.7090 Cl  0  0  0  0  0  0  0  0  0  0  0  0
    7.2220   -1.3850    1.7430 C   0  0  0  0  0  0  0  0  0  0  0  0
    6.3980   -0.4360    1.1600 C   0  0  0  0  0  0  0  0  0  0  0  0
    1.0210    1.4020   -0.2210 S   0  0  0  0  0  0  0  0  0  0  0  0
   -4.6510   -0.0700   -0.8800 C   0  0  0  0  0  0  0  0  0  0  0  0
   -5.6260   -0.0490   -1.7360 C   0  0  0  0  0  0  0  0  0  0  0  0
   -7.0320    0.0360   -1.4640 C   0  0  0  0  0  0  0  0  0  0  0  0
   -7.9250    0.0060   -2.4940 C   0  0  0  0  0  0  0  0  0  0  0  0
   -7.5540   -0.1040   -3.8040 O   0  0  0  0  0  0  0  0  0  0  0  0
   -4.7680   -0.2380    0.5390 C   0  0  0  0  0  0  0  0  0  0  0  0
   -3.6800   -0.1380    1.3640 C   0  0  0  0  0  0  0  0  0  0  0  0
   -3.9760   -0.3400    2.8230 C   0  0  0  0  0  0  0  0  0  0  0  0
   -5.0140    0.4820    3.1860 O   0  0  0  0  0  0  0  0  0  0  0  0
   -6.1850    0.3120    2.4410 C   0  0  0  0  0  0  0  0  0  0  0  0
   -5.9540   -0.6760    1.3200 C   0  0  0  0  0  0  0  0  0  0  0  0
  1  2  2  0
  2  3  1  0
  2 24  1  0
  3  4  1  0
  4  5  1  0
  5  6  2  0
  5 23  1  0
  6  7  1  0
  7  8  2  0
  8  9  1  0
  8 23  1  0
  9 10  2  3
 10 11  1  0
 11 12  1  0
 11 15  1  0
 12 13  2  0
 13 14  1  0
 14 15  2  0
 15 16  1  0
 16 17  2  0
 16 22  1  0
 17 18  1  0
 18 19  2  0
 19 20  1  0
 19 21  1  0
 21 22  2  0
 24 25  2  3
 24 29  1  0
 25 26  1  0
 26 27  2  3
 27 28  1  0
 29 30  2  0
 29 34  1  0
 30 31  1  0
 31 32  1  0
 32 33  1  0
 33 34  1  0
M  END
