
     RDKit          3D

 34 37  0  0  0  0  0  0  0  0999 V2000
    7.9570    2.0820    0.4450 C   0  0  0  0  0  0  0  0  0  0  0  0
    6.8740    1.1470    0.9020 C   0  0  0  0  0  0  0  0  0  0  0  0
    6.0160    1.3820    1.9490 C   0  0  0  0  0  0  0  0  0  0  0  0
    5.1750    0.3010    2.0560 C   0  0  0  0  0  0  0  0  0  0  0  0
    5.5500   -0.5680    1.0590 C   0  0  0  0  0  0  0  0  0  0  0  0
    4.9480   -1.8970    0.7460 C   0  0  2  0  0  0  0  0  0  0  0  0
    5.9820   -2.9490    0.9610 C   0  0  0  0  0  0  0  0  0  0  0  0
    5.7710   -3.8200    1.7720 O   0  0  0  0  0  0  0  0  0  0  0  0
    4.3810   -1.8740   -0.9670 S   0  0  0  0  0  0  0  0  0  0  0  0
    3.0380   -0.7040   -1.0940 C   0  0  0  0  0  0  0  0  0  0  0  0
    3.2390    0.5780   -1.4430 N   0  0  0  0  0  0  0  0  0  0  0  0
    2.2160    1.4370   -1.5580 C   0  0  0  0  0  0  0  0  0  0  0  0
    2.3770    2.6470   -1.8880 O   0  0  0  0  0  0  0  0  0  0  0  0
    0.9180    1.0320   -1.3200 C   0  0  0  0  0  0  0  0  0  0  0  0
    0.6910   -0.2760   -0.9600 C   0  0  0  0  0  0  0  0  0  0  0  0
   -0.5530   -0.8420   -0.6900 N   0  0  0  0  0  0  0  0  0  0  0  0
   -1.5650   -0.3300   -0.1790 C   0  0  0  0  0  0  0  0  0  0  0  0
   -2.8070   -1.1620    0.0070 C   0  0  0  0  0  0  0  0  0  0  0  0
   -3.9110   -0.5560   -0.6720 O   0  0  0  0  0  0  0  0  0  0  0  0
   -5.1620   -1.1200   -0.6720 C   0  0  0  0  0  0  0  0  0  0  0  0
   -5.4530   -2.3100   -0.0210 C   0  0  0  0  0  0  0  0  0  0  0  0
   -6.7110   -2.8700   -0.0280 C   0  0  0  0  0  0  0  0  0  0  0  0
   -7.7440   -2.2440   -0.6990 C   0  0  0  0  0  0  0  0  0  0  0  0
   -9.3480   -2.9490   -0.7160 Cl  0  0  0  0  0  0  0  0  0  0  0  0
   -7.4540   -1.0480   -1.3540 C   0  0  0  0  0  0  0  0  0  0  0  0
   -6.1870   -0.4910   -1.3440 C   0  0  0  0  0  0  0  0  0  0  0  0
   -5.9610    0.7870   -2.0690 C   0  0  0  0  0  0  0  0  0  0  0  0
   -1.6270    1.0060    0.2770 N   0  0  0  0  0  0  0  0  0  0  0  0
   -0.8900    1.5400    1.2630 C   0  0  0  0  0  0  0  0  0  0  0  0
   -1.2380    2.8500    1.4320 C   0  0  0  0  0  0  0  0  0  0  0  0
   -2.2260    3.1240    0.5130 C   0  0  0  0  0  0  0  0  0  0  0  0
   -2.4550    1.9840   -0.1910 C   0  0  0  0  0  0  0  0  0  0  0  0
    1.7790   -1.1000   -0.8610 N   0  0  0  0  0  0  0  0  0  0  0  0
    6.5460   -0.0240    0.4160 O   0  0  0  0  0  0  0  0  0  0  0  0
  1  2  1  0
  2  3  2  0
  2 34  1  0
  3  4  1  0
  4  5  2  0
  5  6  1  0
  5 34  1  0
  6  7  1  0
  6  9  1  6
  7  8  2  0
  9 10  1  0
 10 11  2  0
 10 33  1  0
 11 12  1  0
 12 13  2  0
 12 14  1  0
 14 15  2  0
 15 16  1  0
 15 33  1  0
 16 17  2  3
 17 18  1  0
 17 28  1  0
 18 19  1  0
 19 20  1  0
 20 21  2  0
 20 26  1  0
 21 22  1  0
 22 23  2  0
 23 24  1  0
 23 25  1  0
 25 26  2  0
 26 27  1  0
 28 29  1  0
 28 32  1  0
 29 30  2  0
 30 31  1  0
 31 32  2  0
M  END
