
     RDKit          3D

 34 37  0  0  0  0  0  0  0  0999 V2000
   -7.1230   -0.4790   -2.4260 C   0  0  0  0  0  0  0  0  0  0  0  0
   -7.0390    0.1150   -1.2550 C   0  0  0  0  0  0  0  0  0  0  0  0
   -7.6470    1.4650   -1.0590 C   0  0  0  0  0  0  0  0  0  0  0  0
   -7.7080    1.8690    0.2710 O   0  0  0  0  0  0  0  0  0  0  0  0
   -7.0490    1.2090    1.2930 C   0  0  0  0  0  0  0  0  0  0  0  0
   -7.0820    1.7490    2.4370 O   0  0  0  0  0  0  0  0  0  0  0  0
   -6.3610   -0.0450    1.0230 C   0  0  0  0  0  0  0  0  0  0  0  0
   -6.3390   -0.5890   -0.1760 C   0  0  0  0  0  0  0  0  0  0  0  0
   -5.6370   -1.8630   -0.4270 C   0  0  0  0  0  0  0  0  0  0  0  0
   -4.3240   -1.7550   -1.6410 S   0  0  0  0  0  0  0  0  0  0  0  0
   -2.9570   -0.7440   -1.1020 C   0  0  0  0  0  0  0  0  0  0  0  0
   -1.9220   -1.3300   -0.4190 C   0  0  0  0  0  0  0  0  0  0  0  0
   -0.8450   -0.5930    0.0150 C   0  0  0  0  0  0  0  0  0  0  0  0
    0.2770   -1.1370    0.7360 C   0  0  0  0  0  0  0  0  0  0  0  0
    0.3500   -2.4580    1.0490 C   0  0  0  0  0  0  0  0  0  0  0  0
    1.4540   -2.9040    1.7370 C   0  0  0  0  0  0  0  0  0  0  0  0
    2.4500   -2.0190    2.0900 C   0  0  0  0  0  0  0  0  0  0  0  0
    3.4770   -2.4320    2.7290 O   0  0  0  0  0  0  0  0  0  0  0  0
    2.3520   -0.7220    1.7680 N   0  0  0  0  0  0  0  0  0  0  0  0
    3.4220    0.2090    2.1480 C   0  0  0  0  0  0  0  0  0  0  0  0
    4.4160    0.2360    1.0030 C   0  0  0  0  0  0  0  0  0  0  0  0
    4.2030   -0.4730   -0.0040 O   0  0  0  0  0  0  0  0  0  0  0  0
    5.5610    1.0560    1.0870 N   0  0  0  0  0  0  0  0  0  0  0  0
    6.5570    1.1750    0.0980 C   0  0  0  0  0  0  0  0  0  0  0  0
    6.5890    0.5860   -1.1330 C   0  0  0  0  0  0  0  0  0  0  0  0
    7.6150    0.7520   -2.0570 C   0  0  0  0  0  0  0  0  0  0  0  0
    8.6650    1.5500   -1.7310 C   0  0  0  0  0  0  0  0  0  0  0  0
    9.9550    1.7460   -2.9170 Cl  0  0  0  0  0  0  0  0  0  0  0  0
    8.6960    2.1760   -0.5030 C   0  0  0  0  0  0  0  0  0  0  0  0
    7.6590    1.9900    0.3920 C   0  0  0  0  0  0  0  0  0  0  0  0
    1.2890   -0.3140    1.1110 N   0  0  0  0  0  0  0  0  0  0  0  0
   -0.8740    0.7770   -0.2810 C   0  0  0  0  0  0  0  0  0  0  0  0
   -1.9200    1.3470   -0.9670 C   0  0  0  0  0  0  0  0  0  0  0  0
   -2.9520    0.5740   -1.3690 N   0  0  0  0  0  0  0  0  0  0  0  0
  1  2  2  0
  2  3  1  0
  2  8  1  0
  3  4  1  0
  4  5  1  0
  5  6  2  0
  5  7  1  0
  7  8  2  0
  8  9  1  0
  9 10  1  0
 10 11  1  0
 11 12  2  0
 11 34  1  0
 12 13  1  0
 13 14  1  0
 13 32  2  0
 14 15  1  0
 14 31  2  0
 15 16  2  0
 16 17  1  0
 17 18  2  0
 17 19  1  0
 19 20  1  0
 19 31  1  0
 20 21  1  0
 21 22  2  0
 21 23  1  0
 23 24  1  0
 24 25  2  0
 24 30  1  0
 25 26  1  0
 26 27  2  0
 27 28  1  0
 27 29  1  0
 29 30  2  0
 32 33  1  0
 33 34  2  0
M  END
