
     RDKit          3D

 34 37  0  0  0  0  0  0  0  0999 V2000
   -0.4170    1.7760   -0.5770 C   0  0  0  0  0  0  0  0  0  0  0  0
   -0.8240    0.8180    0.4880 C   0  0  1  0  0  0  0  0  0  0  0  0
   -1.0900    1.5980    1.7730 C   0  0  0  0  0  0  0  0  0  0  0  0
   -2.1440    0.1930    0.0470 C   0  0  0  0  0  0  0  0  0  0  0  0
   -3.1510    1.2790   -0.1050 C   0  0  0  0  0  0  0  0  0  0  0  0
   -2.8700    2.5380    0.1670 O   0  0  0  0  0  0  0  0  0  0  0  0
   -3.7980    3.4640    0.0160 C   0  0  0  0  0  0  0  0  0  0  0  0
   -5.0740    3.2050   -0.4160 C   0  0  0  0  0  0  0  0  0  0  0  0
   -5.3960    1.8930   -0.7090 C   0  0  0  0  0  0  0  0  0  0  0  0
   -6.5410    1.5460   -1.1130 O   0  0  0  0  0  0  0  0  0  0  0  0
   -4.4310    0.9410   -0.5510 C   0  0  0  0  0  0  0  0  0  0  0  0
   -4.7000   -0.4620   -0.8440 C   0  0  0  0  0  0  0  0  0  0  0  0
   -4.3330   -1.0630   -2.0200 C   0  0  0  0  0  0  0  0  0  0  0  0
   -4.6050   -2.3920   -2.2570 C   0  0  0  0  0  0  0  0  0  0  0  0
   -5.2590   -3.1540   -1.3070 C   0  0  0  0  0  0  0  0  0  0  0  0
   -5.6210   -2.5340   -0.1300 C   0  0  0  0  0  0  0  0  0  0  0  0
   -6.4530   -3.4720    1.0940 Cl  0  0  0  0  0  0  0  0  0  0  0  0
   -5.3530   -1.1970    0.1190 C   0  0  0  0  0  0  0  0  0  0  0  0
    0.1930   -0.2360    0.8160 C   0  0  0  0  0  0  0  0  0  0  0  0
    0.6400   -1.2820   -0.5140 S   0  0  1  0  0  0  0  0  0  0  0  0
   -0.5610   -2.1080   -0.9220 O   0  0  0  0  0  0  0  0  0  0  0  0
    1.1560   -0.5580   -1.7040 O   0  0  0  0  0  0  0  0  0  0  0  0
    1.8490   -2.4440    0.0850 C   0  0  0  0  0  0  0  0  0  0  0  0
    3.0390   -1.7180    0.5780 C   0  0  0  0  0  0  0  0  0  0  0  0
    4.1680   -1.3600   -0.1260 C   0  0  0  0  0  0  0  0  0  0  0  0
    5.0410   -0.6910    0.7230 C   0  0  0  0  0  0  0  0  0  0  0  0
    6.3550   -0.1370    0.3900 C   0  0  0  0  0  0  0  0  0  0  0  0
    6.8510   -0.2440   -0.8590 N   0  0  0  0  0  0  0  0  0  0  0  0
    8.0480    0.2420   -1.2250 C   0  0  0  0  0  0  0  0  0  0  0  0
    8.8160    0.8850   -0.2810 C   0  0  0  0  0  0  0  0  0  0  0  0
    8.3140    1.0030    1.0150 C   0  0  0  0  0  0  0  0  0  0  0  0
    7.1000    0.4870    1.3040 N   0  0  0  0  0  0  0  0  0  0  0  0
    4.4180   -0.6630    1.9130 N   0  0  0  0  0  0  0  0  0  0  0  0
    3.2390   -1.2700    1.8260 N   0  0  0  0  0  0  0  0  0  0  0  0
  2  1  1  6
  2  3  1  0
  2  4  1  0
  2 19  1  0
  4  5  1  0
  5  6  1  0
  5 11  2  0
  6  7  1  0
  7  8  2  0
  8  9  1  0
  9 10  2  0
  9 11  1  0
 11 12  1  0
 12 13  2  0
 12 18  1  0
 13 14  1  0
 14 15  2  0
 15 16  1  0
 16 17  1  0
 16 18  2  0
 20 19  1  1
 20 21  2  0
 20 22  2  0
 20 23  1  0
 23 24  1  0
 24 25  1  0
 24 34  2  0
 25 26  2  0
 26 27  1  0
 26 33  1  0
 27 28  2  0
 27 32  1  0
 28 29  1  0
 29 30  2  0
 30 31  1  0
 31 32  2  0
 33 34  1  0
M  END
