
     RDKit          3D

 34 37  0  0  0  0  0  0  0  0999 V2000
   -8.1310   -1.2370    1.5500 C   0  0  0  0  0  0  0  0  0  0  0  0
   -7.6250   -0.2630    0.5470 C   0  0  0  0  0  0  0  0  0  0  0  0
   -6.6090    0.5780    0.8130 N   0  0  0  0  0  0  0  0  0  0  0  0
   -6.1990    1.4330   -0.1380 C   0  0  0  0  0  0  0  0  0  0  0  0
   -5.0850    2.3770    0.1140 C   0  0  0  0  0  0  0  0  0  0  0  0
   -3.8210    1.6410    0.0740 N   0  0  0  0  0  0  0  0  0  0  0  0
   -3.2320    1.2250   -1.1330 C   0  0  0  0  0  0  0  0  0  0  0  0
   -3.8710    1.5300   -2.2050 O   0  0  0  0  0  0  0  0  0  0  0  0
   -1.9810    0.4940   -1.2030 C   0  0  0  0  0  0  0  0  0  0  0  0
   -1.3270    0.1840   -0.1120 C   0  0  0  0  0  0  0  0  0  0  0  0
   -0.0540   -0.5640   -0.2430 C   0  0  0  0  0  0  0  0  0  0  0  0
    0.7740   -0.9710    0.7790 C   0  0  0  0  0  0  0  0  0  0  0  0
    1.8300   -1.6260    0.2130 C   0  0  0  0  0  0  0  0  0  0  0  0
    2.9480   -2.2240    0.9150 C   0  0  0  0  0  0  0  0  0  0  0  0
    3.8510   -2.7020    1.4610 N   0  0  0  0  0  0  0  0  0  0  0  0
    1.6200   -1.6040   -1.1570 C   0  0  0  0  0  0  0  0  0  0  0  0
    2.6940   -2.3200   -2.3970 S   0  0  0  0  0  0  0  0  0  0  0  0
    3.9350   -1.0990   -2.9270 C   0  0  0  0  0  0  0  0  0  0  0  0
    4.8430   -0.8080   -1.7820 C   0  0  0  0  0  0  0  0  0  0  0  0
    5.9590   -1.6040   -1.6690 C   0  0  0  0  0  0  0  0  0  0  0  0
    6.8530   -1.4040   -0.6380 C   0  0  0  0  0  0  0  0  0  0  0  0
    6.5960   -0.3910    0.2650 C   0  0  0  0  0  0  0  0  0  0  0  0
    7.4880   -0.1800    1.3050 C   0  0  0  0  0  0  0  0  0  0  0  0
    7.2510    0.8220    2.2130 C   0  0  0  0  0  0  0  0  0  0  0  0
    6.1330    1.6270    2.1100 C   0  0  0  0  0  0  0  0  0  0  0  0
    5.7880    2.9160    3.2420 Cl  0  0  0  0  0  0  0  0  0  0  0  0
    5.2650    1.3870    1.0600 C   0  0  0  0  0  0  0  0  0  0  0  0
    5.4610    0.3940    0.1230 C   0  0  0  0  0  0  0  0  0  0  0  0
    4.6230    0.1580   -0.8960 N   0  0  0  0  0  0  0  0  0  0  0  0
    0.5070   -0.9720   -1.3540 O   0  0  0  0  0  0  0  0  0  0  0  0
   -6.8330    1.4160   -1.3430 C   0  0  0  0  0  0  0  0  0  0  0  0
   -7.8790    0.5300   -1.5760 C   0  0  0  0  0  0  0  0  0  0  0  0
   -8.4420    0.5430   -2.7030 O   0  0  0  0  0  0  0  0  0  0  0  0
   -8.2280   -0.2680   -0.6250 O   0  0  0  0  0  0  0  0  0  0  0  0
  1  2  1  0
  2  3  2  0
  2 34  1  0
  3  4  1  0
  4  5  1  0
  4 31  2  0
  5  6  1  0
  6  7  1  0
  7  8  2  0
  7  9  1  0
  9 10  2  3
 10 11  1  0
 11 12  2  0
 11 30  1  0
 12 13  1  0
 13 14  1  0
 13 16  2  0
 14 15  3  0
 16 17  1  0
 16 30  1  0
 17 18  1  0
 18 19  1  0
 19 20  2  0
 19 29  1  0
 20 21  1  0
 21 22  2  0
 22 23  1  0
 22 28  1  0
 23 24  2  0
 24 25  1  0
 25 26  1  0
 25 27  2  0
 27 28  1  0
 28 29  2  0
 31 32  1  0
 32 33  2  0
 32 34  1  0
M  END
