
     RDKit          3D

 34 37  0  0  0  0  0  0  0  0999 V2000
   -5.1680   -2.5680    1.1180 C   0  0  0  0  0  0  0  0  0  0  0  0
   -4.4370   -1.3330    0.6700 C   0  0  0  0  0  0  0  0  0  0  0  0
   -4.9020   -0.7540   -0.6330 C   0  0  2  0  0  0  0  0  0  0  0  0
   -4.0760    0.4460   -0.9300 C   0  0  0  0  0  0  0  0  0  0  0  0
   -4.6250    1.4340   -1.4910 O   0  0  0  0  0  0  0  0  0  0  0  0
   -2.7090    0.5140   -0.6100 N   0  0  0  0  0  0  0  0  0  0  0  0
   -1.8880    1.6890   -0.9060 C   0  0  0  0  0  0  0  0  0  0  0  0
   -0.5960    1.4270   -0.1440 C   0  0  0  0  0  0  0  0  0  0  0  0
    0.0770    0.5540    0.2000 N   0  0  0  0  0  0  0  0  0  0  0  0
    1.1660    0.5340    0.9550 C   0  0  0  0  0  0  0  0  0  0  0  0
    1.8990   -0.6980    1.3880 C   0  0  0  0  0  0  0  0  0  0  0  0
    3.2450   -0.8610    0.8900 C   0  0  0  0  0  0  0  0  0  0  0  0
    4.1450   -1.3720    1.6570 O   0  0  0  0  0  0  0  0  0  0  0  0
    3.6670   -0.4990   -0.4020 O   0  0  0  0  0  0  0  0  0  0  0  0
    5.0130   -0.7620   -0.6980 C   0  0  0  0  0  0  0  0  0  0  0  0
    5.2570   -1.8780   -1.4540 C   0  0  0  0  0  0  0  0  0  0  0  0
    3.9730   -2.9380   -2.0250 Cl  0  0  0  0  0  0  0  0  0  0  0  0
    6.5590   -2.1900   -1.7750 C   0  0  0  0  0  0  0  0  0  0  0  0
    7.5790   -1.3700   -1.3250 C   0  0  0  0  0  0  0  0  0  0  0  0
    7.2980   -0.2530   -0.5640 C   0  0  0  0  0  0  0  0  0  0  0  0
    5.9810    0.0780   -0.2300 C   0  0  0  0  0  0  0  0  0  0  0  0
    5.9960    1.2970    0.5610 C   0  0  0  0  0  0  0  0  0  0  0  0
    7.2420    1.7310    0.7350 C   0  0  0  0  0  0  0  0  0  0  0  0
    8.1650    0.7960    0.0530 C   0  0  0  0  0  0  0  0  0  0  0  0
    1.5490    1.7940    1.3960 C   0  0  0  0  0  0  0  0  0  0  0  0
    2.6730    2.2430    2.2490 C   0  0  0  0  0  0  0  0  0  0  0  0
    0.2820    2.8840    0.6650 S   0  0  0  0  0  0  0  0  0  0  0  0
   -6.2610   -0.2720   -0.6090 N   0  0  0  0  0  0  0  0  0  0  0  0
   -6.8540   -0.0370   -1.8000 C   0  0  0  0  0  0  0  0  0  0  0  0
   -8.1120    0.4530   -1.8860 N   0  0  0  0  0  0  0  0  0  0  0  0
   -8.8440    0.7370   -0.7930 C   0  0  0  0  0  0  0  0  0  0  0  0
   -8.2600    0.5060    0.4430 C   0  0  0  0  0  0  0  0  0  0  0  0
   -6.9580   -0.0020    0.4840 C   0  0  0  0  0  0  0  0  0  0  0  0
   -6.4410   -0.2070    1.6020 O   0  0  0  0  0  0  0  0  0  0  0  0
  1  2  1  0
  3  2  1  1
  3  4  1  0
  3 28  1  0
  4  5  2  0
  4  6  1  0
  6  7  1  0
  7  8  1  0
  8  9  2  0
  8 27  1  0
  9 10  1  0
 10 11  1  0
 10 25  2  0
 11 12  1  0
 12 13  2  0
 12 14  1  0
 14 15  1  0
 15 16  2  0
 15 21  1  0
 16 17  1  0
 16 18  1  0
 18 19  2  0
 19 20  1  0
 20 21  2  0
 20 24  1  0
 21 22  1  0
 22 23  2  0
 23 24  1  0
 25 26  1  0
 25 27  1  0
 28 29  1  0
 28 33  1  0
 29 30  2  0
 30 31  1  0
 31 32  2  0
 32 33  1  0
 33 34  2  0
M  END
