
     RDKit          3D

 34 37  0  0  0  0  0  0  0  0999 V2000
    2.6810   -2.1100   -0.7840 O   0  0  0  0  0  0  0  0  0  0  0  0
    3.3080   -1.1110   -1.2540 C   0  0  0  0  0  0  0  0  0  0  0  0
    2.7330   -0.5850   -2.4020 O   0  0  0  0  0  0  0  0  0  0  0  0
    1.5590   -1.1220   -2.9800 C   0  0  0  0  0  0  0  0  0  0  0  0
    0.5060   -0.9900   -1.8830 C   0  0  0  0  0  0  0  0  0  0  0  0
    0.0640   -1.5730   -0.9390 N   0  0  0  0  0  0  0  0  0  0  0  0
   -0.8950   -1.1120   -0.2000 N   0  0  0  0  0  0  0  0  0  0  0  0
   -1.4550   -0.0760   -0.3490 C   0  0  0  0  0  0  0  0  0  0  0  0
   -2.4800    0.7080    0.2230 N   0  0  0  0  0  0  0  0  0  0  0  0
   -3.4530    1.2370   -0.4030 C   0  0  0  0  0  0  0  0  0  0  0  0
   -4.4090    2.0020    0.3170 N   0  0  0  0  0  0  0  0  0  0  0  0
   -4.2080    3.3080    0.7080 C   0  0  0  0  0  0  0  0  0  0  0  0
   -5.3170    3.7410    1.3740 C   0  0  0  0  0  0  0  0  0  0  0  0
   -6.1840    2.6850    1.3790 C   0  0  0  0  0  0  0  0  0  0  0  0
   -5.6150    1.5760    0.7090 C   0  0  0  0  0  0  0  0  0  0  0  0
   -6.2860    0.3000    0.5430 C   0  0  0  0  0  0  0  0  0  0  0  0
   -5.7250   -0.7530   -0.0980 C   0  0  0  0  0  0  0  0  0  0  0  0
   -6.4190   -1.9740   -0.2350 C   0  0  0  0  0  0  0  0  0  0  0  0
   -7.6810   -2.1200    0.2810 C   0  0  0  0  0  0  0  0  0  0  0  0
   -8.5480   -3.6530    0.1080 Cl  0  0  0  0  0  0  0  0  0  0  0  0
   -8.2660   -1.0590    0.9370 C   0  0  0  0  0  0  0  0  0  0  0  0
   -7.5680    0.1360    1.0620 C   0  0  0  0  0  0  0  0  0  0  0  0
   -0.5180    0.5420   -1.8830 S   0  0  0  0  0  0  0  0  0  0  0  0
    4.5080   -0.5550   -0.6690 C   0  0  0  0  0  0  0  0  0  0  0  0
    5.0790    0.4950   -1.2490 C   0  0  0  0  0  0  0  0  0  0  0  0
    4.6740    1.2060   -2.4290 C   0  0  0  0  0  0  0  0  0  0  0  0
    5.4080    2.2530   -2.8450 C   0  0  0  0  0  0  0  0  0  0  0  0
    5.0520    2.9560   -3.9670 O   0  0  0  0  0  0  0  0  0  0  0  0
    5.0850   -1.1210    0.5410 C   0  0  0  0  0  0  0  0  0  0  0  0
    4.5460   -2.1620    1.1330 C   0  0  0  0  0  0  0  0  0  0  0  0
    5.2500   -2.6370    2.3720 C   0  0  0  0  0  0  0  0  0  0  0  0
    5.5780   -1.6350    3.2410 O   0  0  0  0  0  0  0  0  0  0  0  0
    5.8780   -0.4210    2.6860 C   0  0  0  0  0  0  0  0  0  0  0  0
    6.2880   -0.5870    1.2020 C   0  0  0  0  0  0  0  0  0  0  0  0
  1  2  2  0
  2  3  1  0
  2 24  1  0
  3  4  1  0
  4  5  1  0
  5  6  2  0
  5 23  1  0
  6  7  1  0
  7  8  2  0
  8  9  1  0
  8 23  1  0
  9 10  2  3
 10 11  1  0
 11 12  1  0
 11 15  1  0
 12 13  2  0
 13 14  1  0
 14 15  2  0
 15 16  1  0
 16 17  2  0
 16 22  1  0
 17 18  1  0
 18 19  2  0
 19 20  1  0
 19 21  1  0
 21 22  2  0
 24 25  2  3
 24 29  1  0
 25 26  1  0
 26 27  2  3
 27 28  1  0
 29 30  2  0
 29 34  1  0
 30 31  1  0
 31 32  1  0
 32 33  1  0
 33 34  1  0
M  END
