
     RDKit          3D

 34 37  0  0  0  0  0  0  0  0999 V2000
    7.2560   -1.5110   -0.2580 C   0  0  0  0  0  0  0  0  0  0  0  0
    6.0430   -2.2010   -0.7450 C   0  0  0  0  0  0  0  0  0  0  0  0
    4.8680   -1.5680   -0.7020 C   0  0  0  0  0  0  0  0  0  0  0  0
    4.8120   -0.2230   -0.1790 C   0  0  0  0  0  0  0  0  0  0  0  0
    3.8390    0.5940   -0.0100 C   0  0  0  0  0  0  0  0  0  0  0  0
    4.3560    2.1980    0.6820 Cl  0  0  0  0  0  0  0  0  0  0  0  0
    2.4200    0.4250   -0.1250 C   0  0  0  0  0  0  0  0  0  0  0  0
    1.6340    1.4640   -0.5370 N   0  0  0  0  0  0  0  0  0  0  0  0
    0.3800    1.1680   -0.5140 N   0  0  0  0  0  0  0  0  0  0  0  0
   -0.6640    2.0380   -0.8900 C   0  0  0  0  0  0  0  0  0  0  0  0
   -0.7430    2.6560   -2.1210 C   0  0  0  0  0  0  0  0  0  0  0  0
   -1.7760    3.4910   -2.4360 C   0  0  0  0  0  0  0  0  0  0  0  0
   -2.7670    3.7220   -1.4970 C   0  0  0  0  0  0  0  0  0  0  0  0
   -3.8940    4.6010   -1.7740 C   0  0  0  0  0  0  0  0  0  0  0  0
   -4.7730    4.7980   -0.9210 O   0  0  0  0  0  0  0  0  0  0  0  0
   -3.9790    5.2240   -3.0100 O   0  0  0  0  0  0  0  0  0  0  0  0
   -5.0410    6.0820   -3.3370 C   0  0  0  0  0  0  0  0  0  0  0  0
   -2.6790    3.1080   -0.2870 C   0  0  0  0  0  0  0  0  0  0  0  0
   -1.6530    2.2980   -0.0160 N   0  0  0  0  0  0  0  0  0  0  0  0
    0.2850   -0.1450   -0.0560 C   0  0  0  0  0  0  0  0  0  0  0  0
   -1.0010   -0.6940    0.0640 N   0  0  0  0  0  0  0  0  0  0  0  0
   -1.4700   -1.6920    0.9400 C   0  0  0  0  0  0  0  0  0  0  0  0
   -0.7660   -2.1490    1.8560 O   0  0  0  0  0  0  0  0  0  0  0  0
   -2.8600   -2.2600    0.8090 C   0  0  2  0  0  0  0  0  0  0  0  0
   -3.8690   -1.1450    0.9770 C   0  0  0  0  0  0  0  0  0  0  0  0
   -4.3310   -1.3340    2.3870 C   0  0  0  0  0  0  0  0  0  0  0  0
   -3.7860   -2.6580    2.8170 C   0  0  0  0  0  0  0  0  0  0  0  0
   -3.1060   -3.2150    1.7610 O   0  0  0  0  0  0  0  0  0  0  0  0
    1.5680   -0.5890    0.1760 C   0  0  0  0  0  0  0  0  0  0  0  0
    1.9510   -1.8940    0.7740 C   0  0  0  0  0  0  0  0  0  0  0  0
    2.8360   -2.0270    1.6980 C   0  0  0  0  0  0  0  0  0  0  0  0
    3.1440   -3.3530    2.2250 C   0  0  0  0  0  0  0  0  0  0  0  0
    1.7120   -4.3230    1.5830 S   0  0  0  0  0  0  0  0  0  0  0  0
    1.4560   -3.1490    0.1810 C   0  0  0  0  0  0  0  0  0  0  0  0
  1  2  1  0
  2  3  2  3
  3  4  1  0
  4  5  2  3
  5  6  1  0
  5  7  1  0
  7  8  2  0
  7 29  1  0
  8  9  1  0
  9 10  1  0
  9 20  1  0
 10 11  2  0
 10 19  1  0
 11 12  1  0
 12 13  2  0
 13 14  1  0
 13 18  1  0
 14 15  2  0
 14 16  1  0
 16 17  1  0
 18 19  2  0
 20 21  1  0
 20 29  2  0
 21 22  1  0
 22 23  2  0
 24 22  1  1
 24 25  1  0
 24 28  1  0
 25 26  1  0
 26 27  1  0
 27 28  1  0
 29 30  1  0
 30 31  2  0
 30 34  1  0
 31 32  1  0
 32 33  1  0
 33 34  1  0
M  END
