
     RDKit          3D

 34 36  0  0  0  0  0  0  0  0999 V2000
   -0.0660   -3.5570    0.7530 C   0  0  0  0  0  0  0  0  0  0  0  0
   -0.6220   -2.5890    1.5950 O   0  0  0  0  0  0  0  0  0  0  0  0
   -1.0280   -1.3680    1.1340 C   0  0  0  0  0  0  0  0  0  0  0  0
   -2.3230   -1.0960    0.8270 C   0  0  0  0  0  0  0  0  0  0  0  0
   -3.4920   -1.9850    0.9070 C   0  0  0  0  0  0  0  0  0  0  0  0
   -3.8420   -2.8360   -0.2380 C   0  0  1  0  0  0  0  0  0  0  0  0
   -4.1130   -2.0140   -1.5110 C   0  0  0  0  0  0  0  0  0  0  0  0
   -3.0570   -4.0410   -0.5510 C   0  0  0  0  0  0  0  0  0  0  0  0
   -5.2790   -3.3840    0.0950 C   0  0  0  0  0  0  0  0  0  0  0  0
   -2.5620    0.1820    0.3780 N   0  0  0  0  0  0  0  0  0  0  0  0
   -1.6040    1.1100    0.2420 C   0  0  0  0  0  0  0  0  0  0  0  0
   -1.9340    2.2440   -0.1770 O   0  0  0  0  0  0  0  0  0  0  0  0
   -0.2840    0.8680    0.5420 C   0  0  0  0  0  0  0  0  0  0  0  0
    0.7920    1.8580    0.4060 C   0  0  0  0  0  0  0  0  0  0  0  0
    0.7860    3.0160    0.0330 N   0  0  0  0  0  0  0  0  0  0  0  0
    0.0810    4.0660   -0.4230 C   0  0  0  0  0  0  0  0  0  0  0  0
   -0.1440    4.3830   -1.7100 C   0  0  0  0  0  0  0  0  0  0  0  0
   -0.9570    5.6030   -1.8190 C   0  0  0  0  0  0  0  0  0  0  0  0
   -1.1900    5.9860   -0.4210 C   0  0  0  0  0  0  0  0  0  0  0  0
   -2.1160    7.3990    0.1120 Cl  0  0  0  0  0  0  0  0  0  0  0  0
   -0.6000    5.1110    0.3710 C   0  0  0  0  0  0  0  0  0  0  0  0
   -0.6430    5.2080    1.8610 C   0  0  0  0  0  0  0  0  0  0  0  0
   -0.0140   -0.3980    0.9930 C   0  0  0  0  0  0  0  0  0  0  0  0
    1.3720   -0.7490    1.3310 C   0  0  0  0  0  0  0  0  0  0  0  0
    1.7950   -0.5680    2.5160 O   0  0  0  0  0  0  0  0  0  0  0  0
    2.2590   -1.2870    0.3780 N   0  0  0  0  0  0  0  0  0  0  0  0
    3.4740   -0.9340    0.3320 C   0  0  0  0  0  0  0  0  0  0  0  0
    4.2210   -0.1020    1.0140 N   0  0  0  0  0  0  0  0  0  0  0  0
    5.4850    0.0670    0.7410 C   0  0  0  0  0  0  0  0  0  0  0  0
    6.0750   -0.6060   -0.2520 C   0  0  0  0  0  0  0  0  0  0  0  0
    7.3760   -0.6750   -0.8140 C   0  0  0  0  0  0  0  0  0  0  0  0
    7.6610   -1.5740   -1.9540 C   0  0  0  0  0  0  0  0  0  0  0  0
    8.2910    0.0310   -0.3390 O   0  0  0  0  0  0  0  0  0  0  0  0
    4.6510   -1.6120   -0.8850 S   0  0  0  0  0  0  0  0  0  0  0  0
  1  2  1  0
  2  3  1  0
  3  4  2  0
  3 23  1  0
  4  5  1  0
  4 10  1  0
  5  6  1  0
  6  7  1  6
  6  8  1  0
  6  9  1  0
 10 11  1  0
 11 12  2  0
 11 13  1  0
 13 14  1  0
 13 23  2  0
 14 15  2  3
 15 16  1  0
 16 17  2  0
 16 21  1  0
 17 18  1  0
 18 19  1  0
 19 20  1  0
 19 21  2  0
 21 22  1  0
 23 24  1  0
 24 25  2  0
 24 26  1  0
 26 27  2  3
 27 28  1  0
 27 34  1  0
 28 29  1  0
 29 30  2  0
 30 31  1  0
 30 34  1  0
 31 32  1  0
 31 33  2  0
M  END
