
     RDKit          3D

 34 37  0  0  0  0  0  0  0  0999 V2000
   -0.9900   -1.5470    1.7020 C   0  0  0  0  0  0  0  0  0  0  0  0
   -1.4770   -0.1630    1.3400 C   0  0  2  0  0  0  0  0  0  0  0  0
   -2.8800   -0.0450    1.8690 C   0  0  0  0  0  0  0  0  0  0  0  0
   -1.4690    0.0520   -0.1450 C   0  0  0  0  0  0  0  0  0  0  0  0
   -2.2960   -0.8210   -0.9630 C   0  0  0  0  0  0  0  0  0  0  0  0
   -1.7030   -1.9350   -1.3870 O   0  0  0  0  0  0  0  0  0  0  0  0
   -2.3110   -2.8220   -2.1250 C   0  0  0  0  0  0  0  0  0  0  0  0
   -3.6200   -2.6610   -2.5180 C   0  0  0  0  0  0  0  0  0  0  0  0
   -4.2660   -1.5370   -2.1090 C   0  0  0  0  0  0  0  0  0  0  0  0
   -5.4820   -1.2980   -2.4220 O   0  0  0  0  0  0  0  0  0  0  0  0
   -3.5900   -0.6020   -1.3180 C   0  0  0  0  0  0  0  0  0  0  0  0
   -4.3560    0.6050   -0.9460 C   0  0  0  0  0  0  0  0  0  0  0  0
   -5.4270    0.4780   -0.1000 C   0  0  0  0  0  0  0  0  0  0  0  0
   -6.1940    1.5600    0.2930 C   0  0  0  0  0  0  0  0  0  0  0  0
   -5.8980    2.8260   -0.1630 C   0  0  0  0  0  0  0  0  0  0  0  0
   -4.8030    2.9510   -1.0270 C   0  0  0  0  0  0  0  0  0  0  0  0
   -4.3620    4.5300   -1.6530 Cl  0  0  0  0  0  0  0  0  0  0  0  0
   -4.0580    1.8570   -1.4010 C   0  0  0  0  0  0  0  0  0  0  0  0
   -0.6790    0.9320    1.9860 C   0  0  0  0  0  0  0  0  0  0  0  0
    1.0120    1.0240    1.6210 S   0  0  1  0  0  0  0  0  0  0  0  0
    1.3040    1.4680    0.2130 O   0  0  0  0  0  0  0  0  0  0  0  0
    1.5790    2.1490    2.4910 O   0  0  0  0  0  0  0  0  0  0  0  0
    1.9560   -0.4120    2.0550 C   0  0  0  0  0  0  0  0  0  0  0  0
    3.3980   -0.1560    1.6750 C   0  0  0  0  0  0  0  0  0  0  0  0
    3.9760   -0.4360    0.4550 C   0  0  0  0  0  0  0  0  0  0  0  0
    5.3090   -0.0580    0.4890 C   0  0  0  0  0  0  0  0  0  0  0  0
    6.3080   -0.1560   -0.5550 C   0  0  0  0  0  0  0  0  0  0  0  0
    7.5510    0.2650   -0.3420 N   0  0  0  0  0  0  0  0  0  0  0  0
    8.5180    0.1990   -1.2870 C   0  0  0  0  0  0  0  0  0  0  0  0
    8.2240   -0.3240   -2.5270 C   0  0  0  0  0  0  0  0  0  0  0  0
    6.9290   -0.7600   -2.7410 C   0  0  0  0  0  0  0  0  0  0  0  0
    6.0000   -0.6700   -1.7610 N   0  0  0  0  0  0  0  0  0  0  0  0
    5.5010    0.4410    1.7290 N   0  0  0  0  0  0  0  0  0  0  0  0
    4.3760    0.3810    2.4200 N   0  0  0  0  0  0  0  0  0  0  0  0
  2  1  1  6
  2  3  1  0
  2  4  1  0
  2 19  1  0
  4  5  1  0
  5  6  1  0
  5 11  2  0
  6  7  1  0
  7  8  2  0
  8  9  1  0
  9 10  2  0
  9 11  1  0
 11 12  1  0
 12 13  2  0
 12 18  1  0
 13 14  1  0
 14 15  2  0
 15 16  1  0
 16 17  1  0
 16 18  2  0
 20 19  1  6
 20 21  2  0
 20 22  2  0
 20 23  1  0
 23 24  1  0
 24 25  1  0
 24 34  2  0
 25 26  2  0
 26 27  1  0
 26 33  1  0
 27 28  2  0
 27 32  1  0
 28 29  1  0
 29 30  2  0
 30 31  1  0
 31 32  2  0
 33 34  1  0
M  END
