
     RDKit          3D

 34 37  0  0  0  0  0  0  0  0999 V2000
    5.7390   -2.3020    2.1210 C   0  0  0  0  0  0  0  0  0  0  0  0
    6.1660   -1.3300    1.0510 C   0  0  0  0  0  0  0  0  0  0  0  0
    5.1530   -0.2910    0.7150 C   0  0  2  0  0  0  0  0  0  0  0  0
    3.8670   -0.8180    0.2100 C   0  0  0  0  0  0  0  0  0  0  0  0
    3.4960   -0.5940   -0.9940 O   0  0  0  0  0  0  0  0  0  0  0  0
    2.9510   -1.5930    0.9670 N   0  0  0  0  0  0  0  0  0  0  0  0
    1.7050   -2.0830    0.4070 C   0  0  0  0  0  0  0  0  0  0  0  0
    0.8510   -0.9460   -0.0410 C   0  0  0  0  0  0  0  0  0  0  0  0
   -0.2380   -0.9520   -0.8490 N   0  0  0  0  0  0  0  0  0  0  0  0
   -0.8500    0.1350   -1.1230 C   0  0  0  0  0  0  0  0  0  0  0  0
   -2.0860    0.2110   -2.0290 C   0  0  0  0  0  0  0  0  0  0  0  0
   -3.2670    0.3740   -1.1750 C   0  0  0  0  0  0  0  0  0  0  0  0
   -3.1700    0.4230    0.0770 O   0  0  0  0  0  0  0  0  0  0  0  0
   -4.5290    0.4790   -1.7360 O   0  0  0  0  0  0  0  0  0  0  0  0
   -5.6470    0.6320   -0.9350 C   0  0  0  0  0  0  0  0  0  0  0  0
   -6.0780    1.8780   -0.5520 C   0  0  0  0  0  0  0  0  0  0  0  0
   -5.2480    3.3340   -1.0500 Cl  0  0  0  0  0  0  0  0  0  0  0  0
   -7.1930    1.9910    0.2450 C   0  0  0  0  0  0  0  0  0  0  0  0
   -7.8880    0.8860    0.6680 C   0  0  0  0  0  0  0  0  0  0  0  0
   -7.4390   -0.3710    0.2720 C   0  0  0  0  0  0  0  0  0  0  0  0
   -6.3340   -0.4960   -0.5170 C   0  0  0  0  0  0  0  0  0  0  0  0
   -6.1170   -1.9140   -0.7600 C   0  0  0  0  0  0  0  0  0  0  0  0
   -7.0350   -2.6290   -0.1540 C   0  0  0  0  0  0  0  0  0  0  0  0
   -7.9600   -1.7300    0.5570 C   0  0  0  0  0  0  0  0  0  0  0  0
   -0.3960    1.3240   -0.5930 C   0  0  0  0  0  0  0  0  0  0  0  0
   -0.8800    2.6870   -0.7290 C   0  0  0  0  0  0  0  0  0  0  0  0
    1.0030    0.7480    0.3490 S   0  0  0  0  0  0  0  0  0  0  0  0
    5.6820    0.7500   -0.1440 N   0  0  0  0  0  0  0  0  0  0  0  0
    5.7950    2.0350    0.2740 C   0  0  0  0  0  0  0  0  0  0  0  0
    6.2860    2.9930   -0.5340 N   0  0  0  0  0  0  0  0  0  0  0  0
    6.6960    2.7560   -1.7930 C   0  0  0  0  0  0  0  0  0  0  0  0
    6.5880    1.4550   -2.2330 C   0  0  0  0  0  0  0  0  0  0  0  0
    6.0810    0.4660   -1.4010 C   0  0  0  0  0  0  0  0  0  0  0  0
    5.9860   -0.7330   -1.8180 O   0  0  0  0  0  0  0  0  0  0  0  0
  1  2  1  0
  3  2  1  6
  3  4  1  0
  3 28  1  0
  4  5  2  0
  4  6  1  0
  6  7  1  0
  7  8  1  0
  8  9  2  0
  8 27  1  0
  9 10  1  0
 10 11  1  0
 10 25  2  0
 11 12  1  0
 12 13  2  0
 12 14  1  0
 14 15  1  0
 15 16  2  0
 15 21  1  0
 16 17  1  0
 16 18  1  0
 18 19  2  0
 19 20  1  0
 20 21  2  0
 20 24  1  0
 21 22  1  0
 22 23  2  0
 23 24  1  0
 25 26  1  0
 25 27  1  0
 28 29  1  0
 28 33  1  0
 29 30  2  0
 30 31  1  0
 31 32  2  0
 32 33  1  0
 33 34  2  0
M  END
