
     RDKit          3D

 34 36  0  0  0  0  0  0  0  0999 V2000
    2.7810    1.5090   -0.3950 C   0  0  0  0  0  0  0  0  0  0  0  0
    1.9370    1.1580    0.6280 O   0  0  0  0  0  0  0  0  0  0  0  0
    0.5700    1.1210    0.6090 C   0  0  0  0  0  0  0  0  0  0  0  0
   -0.1280    2.2460    0.9620 C   0  0  0  0  0  0  0  0  0  0  0  0
    0.4230    3.5740    1.2560 C   0  0  0  0  0  0  0  0  0  0  0  0
    0.4330    4.5620    0.1480 C   0  0  2  0  0  0  0  0  0  0  0  0
    1.0790    5.8810    0.6060 C   0  0  0  0  0  0  0  0  0  0  0  0
   -1.0350    5.0090   -0.1500 C   0  0  0  0  0  0  0  0  0  0  0  0
    0.9940    4.1860   -1.1600 C   0  0  0  0  0  0  0  0  0  0  0  0
   -1.4890    2.1780    0.9510 N   0  0  0  0  0  0  0  0  0  0  0  0
   -2.1160    1.0610    0.6050 C   0  0  0  0  0  0  0  0  0  0  0  0
   -3.3900    1.0570    0.6130 O   0  0  0  0  0  0  0  0  0  0  0  0
   -1.4460   -0.0910    0.2400 C   0  0  0  0  0  0  0  0  0  0  0  0
   -2.2230   -1.2640   -0.1200 C   0  0  0  0  0  0  0  0  0  0  0  0
   -3.5210   -1.1540   -0.0740 N   0  0  0  0  0  0  0  0  0  0  0  0
   -4.3770   -2.2330   -0.4040 C   0  0  0  0  0  0  0  0  0  0  0  0
   -4.0130   -3.4950   -0.4430 C   0  0  0  0  0  0  0  0  0  0  0  0
   -5.1630   -4.3170   -0.8210 C   0  0  0  0  0  0  0  0  0  0  0  0
   -6.2620   -3.3480   -0.9990 C   0  0  0  0  0  0  0  0  0  0  0  0
   -7.9050   -3.7560   -1.4570 Cl  0  0  0  0  0  0  0  0  0  0  0  0
   -5.7810   -2.1440   -0.7510 C   0  0  0  0  0  0  0  0  0  0  0  0
   -6.5320   -0.8420   -0.8060 C   0  0  0  0  0  0  0  0  0  0  0  0
   -0.0750   -0.0660    0.2410 C   0  0  0  0  0  0  0  0  0  0  0  0
    0.7160   -1.2290   -0.0820 C   0  0  0  0  0  0  0  0  0  0  0  0
    0.1690   -2.2960   -0.4420 O   0  0  0  0  0  0  0  0  0  0  0  0
    2.1110   -1.2390   -0.0110 N   0  0  0  0  0  0  0  0  0  0  0  0
    2.8620   -2.2850   -0.0390 C   0  0  0  0  0  0  0  0  0  0  0  0
    2.7130   -3.5990   -0.1310 N   0  0  0  0  0  0  0  0  0  0  0  0
    3.7550   -4.3810   -0.1230 C   0  0  0  0  0  0  0  0  0  0  0  0
    4.9990   -3.8950   -0.0220 C   0  0  0  0  0  0  0  0  0  0  0  0
    6.2990   -4.5150    0.0120 C   0  0  0  0  0  0  0  0  0  0  0  0
    7.5270   -3.7020    0.1340 C   0  0  0  0  0  0  0  0  0  0  0  0
    6.3810   -5.7600   -0.0640 O   0  0  0  0  0  0  0  0  0  0  0  0
    4.6970   -2.1260    0.0730 S   0  0  0  0  0  0  0  0  0  0  0  0
  1  2  1  0
  2  3  1  0
  3  4  2  0
  3 23  1  0
  4  5  1  0
  4 10  1  0
  5  6  1  0
  6  7  1  1
  6  8  1  0
  6  9  1  0
 10 11  1  0
 11 12  2  0
 11 13  1  0
 13 14  1  0
 13 23  2  0
 14 15  2  3
 15 16  1  0
 16 17  2  0
 16 21  1  0
 17 18  1  0
 18 19  1  0
 19 20  1  0
 19 21  2  0
 21 22  1  0
 23 24  1  0
 24 25  2  0
 24 26  1  0
 26 27  2  3
 27 28  1  0
 27 34  1  0
 28 29  1  0
 29 30  2  0
 30 31  1  0
 30 34  1  0
 31 32  1  0
 31 33  2  0
M  END
