
     RDKit          3D

 34 37  0  0  0  0  0  0  0  0999 V2000
    6.6460    1.5320    2.0520 C   0  0  0  0  0  0  0  0  0  0  0  0
    6.6720    1.2850    0.7630 C   0  0  0  0  0  0  0  0  0  0  0  0
    7.9720    0.9180    0.1140 C   0  0  0  0  0  0  0  0  0  0  0  0
    7.7330   -0.0130   -0.9070 O   0  0  0  0  0  0  0  0  0  0  0  0
    6.5860    0.0640   -1.7130 C   0  0  0  0  0  0  0  0  0  0  0  0
    6.5980   -0.4960   -2.8130 O   0  0  0  0  0  0  0  0  0  0  0  0
    5.4540    0.7880   -1.2190 C   0  0  0  0  0  0  0  0  0  0  0  0
    5.4700    1.3800   -0.0370 C   0  0  0  0  0  0  0  0  0  0  0  0
    4.2620    2.1100    0.3600 C   0  0  0  0  0  0  0  0  0  0  0  0
    3.4850    1.3600    1.8430 S   0  0  0  0  0  0  0  0  0  0  0  0
    2.9380   -0.2690    1.2990 C   0  0  0  0  0  0  0  0  0  0  0  0
    1.6910   -0.3570    0.7200 C   0  0  0  0  0  0  0  0  0  0  0  0
    1.2090   -1.5650    0.2550 C   0  0  0  0  0  0  0  0  0  0  0  0
   -0.0870   -1.6260   -0.4070 C   0  0  0  0  0  0  0  0  0  0  0  0
   -0.5740   -2.7560   -1.0290 C   0  0  0  0  0  0  0  0  0  0  0  0
   -1.7670   -2.7380   -1.7080 C   0  0  0  0  0  0  0  0  0  0  0  0
   -2.5370   -1.5940   -1.8010 C   0  0  0  0  0  0  0  0  0  0  0  0
   -3.6300   -1.5610   -2.4210 O   0  0  0  0  0  0  0  0  0  0  0  0
   -2.0180   -0.4990   -1.1670 N   0  0  0  0  0  0  0  0  0  0  0  0
   -2.7930    0.7090   -1.2850 C   0  0  0  0  0  0  0  0  0  0  0  0
   -3.8980    0.8010   -0.2800 C   0  0  0  0  0  0  0  0  0  0  0  0
   -3.5840    1.0850    0.8900 O   0  0  0  0  0  0  0  0  0  0  0  0
   -5.2330    0.5790   -0.6290 N   0  0  0  0  0  0  0  0  0  0  0  0
   -6.3360    0.6230    0.2440 C   0  0  0  0  0  0  0  0  0  0  0  0
   -7.6220    0.6750   -0.3270 C   0  0  0  0  0  0  0  0  0  0  0  0
   -8.7740    0.6900    0.4150 C   0  0  0  0  0  0  0  0  0  0  0  0
   -8.6950    0.6540    1.7880 C   0  0  0  0  0  0  0  0  0  0  0  0
  -10.1940    0.6740    2.7240 Cl  0  0  0  0  0  0  0  0  0  0  0  0
   -7.4610    0.6030    2.4010 C   0  0  0  0  0  0  0  0  0  0  0  0
   -6.3130    0.5890    1.6120 C   0  0  0  0  0  0  0  0  0  0  0  0
   -0.8920   -0.5350   -0.5330 N   0  0  0  0  0  0  0  0  0  0  0  0
    2.0190   -2.6480    0.3990 C   0  0  0  0  0  0  0  0  0  0  0  0
    3.2830   -2.5320    0.9930 C   0  0  0  0  0  0  0  0  0  0  0  0
    3.7370   -1.3370    1.4400 N   0  0  0  0  0  0  0  0  0  0  0  0
  1  2  2  0
  2  3  1  0
  2  8  1  0
  3  4  1  0
  4  5  1  0
  5  6  2  0
  5  7  1  0
  7  8  2  0
  8  9  1  0
  9 10  1  0
 10 11  1  0
 11 12  2  0
 11 34  1  0
 12 13  1  0
 13 14  1  0
 13 32  2  0
 14 15  1  0
 14 31  2  0
 15 16  2  0
 16 17  1  0
 17 18  2  0
 17 19  1  0
 19 20  1  0
 19 31  1  0
 20 21  1  0
 21 22  2  0
 21 23  1  0
 23 24  1  0
 24 25  2  0
 24 30  1  0
 25 26  1  0
 26 27  2  0
 27 28  1  0
 27 29  1  0
 29 30  2  0
 32 33  1  0
 33 34  2  0
M  END
