
     RDKit          3D

 34 37  0  0  0  0  0  0  0  0999 V2000
   -2.6780    0.6930   -1.6160 O   0  0  0  0  0  0  0  0  0  0  0  0
   -3.4610   -0.0440   -0.8980 C   0  0  0  0  0  0  0  0  0  0  0  0
   -3.1670   -1.3820   -1.0370 O   0  0  0  0  0  0  0  0  0  0  0  0
   -2.1510   -1.9020   -1.8490 C   0  0  0  0  0  0  0  0  0  0  0  0
   -0.8370   -1.3680   -1.4170 C   0  0  0  0  0  0  0  0  0  0  0  0
   -0.2390   -0.6690   -0.6600 N   0  0  0  0  0  0  0  0  0  0  0  0
    1.0060   -0.4400   -0.5900 N   0  0  0  0  0  0  0  0  0  0  0  0
    1.8420   -0.9860   -1.4030 C   0  0  0  0  0  0  0  0  0  0  0  0
    3.2490   -0.9790   -1.6340 N   0  0  0  0  0  0  0  0  0  0  0  0
    4.0790   -1.6470   -0.9120 C   0  0  0  0  0  0  0  0  0  0  0  0
    5.4610   -1.6000   -1.1910 N   0  0  0  0  0  0  0  0  0  0  0  0
    6.0210   -2.3440   -2.1690 C   0  0  0  0  0  0  0  0  0  0  0  0
    7.3720   -2.0980   -2.2140 C   0  0  0  0  0  0  0  0  0  0  0  0
    7.6070   -1.1730   -1.2230 C   0  0  0  0  0  0  0  0  0  0  0  0
    6.3970   -0.8660   -0.5840 C   0  0  0  0  0  0  0  0  0  0  0  0
    6.2980    0.0760    0.5060 C   0  0  0  0  0  0  0  0  0  0  0  0
    7.4390    0.7370    0.9810 C   0  0  0  0  0  0  0  0  0  0  0  0
    7.4050    1.6360    2.0070 C   0  0  0  0  0  0  0  0  0  0  0  0
    6.1900    1.9010    2.5990 C   0  0  0  0  0  0  0  0  0  0  0  0
    6.0850    3.0450    3.9200 Cl  0  0  0  0  0  0  0  0  0  0  0  0
    5.0240    1.2940    2.1920 C   0  0  0  0  0  0  0  0  0  0  0  0
    5.1230    0.3810    1.1340 C   0  0  0  0  0  0  0  0  0  0  0  0
    0.6470   -1.9820   -2.4240 S   0  0  0  0  0  0  0  0  0  0  0  0
   -4.4650    0.5850   -0.1050 C   0  0  0  0  0  0  0  0  0  0  0  0
   -4.6160    1.8820   -0.0820 C   0  0  0  0  0  0  0  0  0  0  0  0
   -3.9120    2.9250   -0.7580 C   0  0  0  0  0  0  0  0  0  0  0  0
   -4.2640    4.2130   -0.5670 C   0  0  0  0  0  0  0  0  0  0  0  0
   -3.5760    5.1940   -1.2240 O   0  0  0  0  0  0  0  0  0  0  0  0
   -5.3770   -0.2150    0.7410 C   0  0  0  0  0  0  0  0  0  0  0  0
   -5.3120   -1.5130    0.7820 C   0  0  0  0  0  0  0  0  0  0  0  0
   -6.2360   -2.2920    1.6340 C   0  0  0  0  0  0  0  0  0  0  0  0
   -6.5260   -1.5630    2.7720 O   0  0  0  0  0  0  0  0  0  0  0  0
   -7.2080   -0.3860    2.4460 C   0  0  0  0  0  0  0  0  0  0  0  0
   -6.3930    0.5110    1.5810 C   0  0  0  0  0  0  0  0  0  0  0  0
  1  2  2  0
  2  3  1  0
  2 24  1  0
  3  4  1  0
  4  5  1  0
  5  6  2  0
  5 23  1  0
  6  7  1  0
  7  8  2  0
  8  9  1  0
  8 23  1  0
  9 10  2  3
 10 11  1  0
 11 12  1  0
 11 15  1  0
 12 13  2  0
 13 14  1  0
 14 15  2  0
 15 16  1  0
 16 17  2  0
 16 22  1  0
 17 18  1  0
 18 19  2  0
 19 20  1  0
 19 21  1  0
 21 22  2  0
 24 25  2  3
 24 29  1  0
 25 26  1  0
 26 27  2  3
 27 28  1  0
 29 30  2  0
 29 34  1  0
 30 31  1  0
 31 32  1  0
 32 33  1  0
 33 34  1  0
M  END
