
     RDKit          3D

 34 37  0  0  0  0  0  0  0  0999 V2000
   -4.4550   -2.1780    1.7360 C   0  0  0  0  0  0  0  0  0  0  0  0
   -5.3450   -2.9060    0.7810 C   0  0  0  0  0  0  0  0  0  0  0  0
   -5.4010   -2.1920   -0.5360 C   0  0  2  0  0  0  0  0  0  0  0  0
   -4.0870   -2.0750   -1.2180 C   0  0  0  0  0  0  0  0  0  0  0  0
   -3.9240   -2.8070   -2.2580 O   0  0  0  0  0  0  0  0  0  0  0  0
   -3.0560   -1.2180   -0.7680 N   0  0  0  0  0  0  0  0  0  0  0  0
   -1.8160   -1.1940   -1.5120 C   0  0  0  0  0  0  0  0  0  0  0  0
   -0.8710   -0.2050   -0.8430 C   0  0  0  0  0  0  0  0  0  0  0  0
   -0.0510   -0.1090   -0.0790 N   0  0  0  0  0  0  0  0  0  0  0  0
    0.6480    0.9280    0.3460 C   0  0  0  0  0  0  0  0  0  0  0  0
    1.7420    0.9460    1.3940 C   0  0  0  0  0  0  0  0  0  0  0  0
    3.0740    1.0580    0.7180 C   0  0  0  0  0  0  0  0  0  0  0  0
    3.1900    1.1180   -0.5420 O   0  0  0  0  0  0  0  0  0  0  0  0
    4.2570    1.1020    1.4370 O   0  0  0  0  0  0  0  0  0  0  0  0
    5.5150    1.2040    0.8610 C   0  0  0  0  0  0  0  0  0  0  0  0
    6.0850    2.4340    0.6030 C   0  0  0  0  0  0  0  0  0  0  0  0
    5.1800    3.8520    1.0200 Cl  0  0  0  0  0  0  0  0  0  0  0  0
    7.3390    2.4490    0.0290 C   0  0  0  0  0  0  0  0  0  0  0  0
    8.0270    1.2880   -0.2890 C   0  0  0  0  0  0  0  0  0  0  0  0
    7.4500    0.0550   -0.0270 C   0  0  0  0  0  0  0  0  0  0  0  0
    6.1810    0.0350    0.5540 C   0  0  0  0  0  0  0  0  0  0  0  0
    5.8110   -1.3710    0.7200 C   0  0  0  0  0  0  0  0  0  0  0  0
    6.7810   -2.1590    0.2740 C   0  0  0  0  0  0  0  0  0  0  0  0
    7.8970   -1.3370   -0.2350 C   0  0  0  0  0  0  0  0  0  0  0  0
    0.3030    2.1110   -0.2670 C   0  0  0  0  0  0  0  0  0  0  0  0
    0.7610    3.4980   -0.1520 C   0  0  0  0  0  0  0  0  0  0  0  0
   -1.0540    1.5690   -1.4410 S   0  0  0  0  0  0  0  0  0  0  0  0
   -5.9960   -0.8670   -0.3740 N   0  0  0  0  0  0  0  0  0  0  0  0
   -6.7650   -0.5850    0.6550 C   0  0  0  0  0  0  0  0  0  0  0  0
   -7.3340    0.6520    0.8230 N   0  0  0  0  0  0  0  0  0  0  0  0
   -7.1100    1.6080   -0.0760 C   0  0  0  0  0  0  0  0  0  0  0  0
   -6.3090    1.3420   -1.1640 C   0  0  0  0  0  0  0  0  0  0  0  0
   -5.7570    0.0950   -1.3000 C   0  0  0  0  0  0  0  0  0  0  0  0
   -5.0190   -0.2080   -2.2690 O   0  0  0  0  0  0  0  0  0  0  0  0
  1  2  1  0
  3  2  1  1
  3  4  1  0
  3 28  1  0
  4  5  2  0
  4  6  1  0
  6  7  1  0
  7  8  1  0
  8  9  2  0
  8 27  1  0
  9 10  1  0
 10 11  1  0
 10 25  2  0
 11 12  1  0
 12 13  2  0
 12 14  1  0
 14 15  1  0
 15 16  2  0
 15 21  1  0
 16 17  1  0
 16 18  1  0
 18 19  2  0
 19 20  1  0
 20 21  2  0
 20 24  1  0
 21 22  1  0
 22 23  2  0
 23 24  1  0
 25 26  1  0
 25 27  1  0
 28 29  1  0
 28 33  1  0
 29 30  2  0
 30 31  1  0
 31 32  2  0
 32 33  1  0
 33 34  2  0
M  END
