
     RDKit          3D

 34 37  0  0  0  0  0  0  0  0999 V2000
    4.2480   -3.0250   -1.1300 C   0  0  0  0  0  0  0  0  0  0  0  0
    4.5590   -1.5520   -1.1700 C   0  0  0  0  0  0  0  0  0  0  0  0
    4.5850   -0.7350   -2.2790 C   0  0  0  0  0  0  0  0  0  0  0  0
    4.9180    0.5110   -1.7940 C   0  0  0  0  0  0  0  0  0  0  0  0
    5.0820    0.4300   -0.4480 C   0  0  0  0  0  0  0  0  0  0  0  0
    5.4430    1.5490    0.4490 C   0  0  2  0  0  0  0  0  0  0  0  0
    6.6560    1.2860    1.2310 C   0  0  0  0  0  0  0  0  0  0  0  0
    7.2800    0.2460    1.1320 O   0  0  0  0  0  0  0  0  0  0  0  0
    4.0690    1.7370    1.6500 S   0  0  0  0  0  0  0  0  0  0  0  0
    2.6440    2.2690    0.7280 C   0  0  0  0  0  0  0  0  0  0  0  0
    2.4020    3.5800    0.5500 N   0  0  0  0  0  0  0  0  0  0  0  0
    1.3320    4.0140   -0.1420 C   0  0  0  0  0  0  0  0  0  0  0  0
    1.1370    5.2410   -0.2880 O   0  0  0  0  0  0  0  0  0  0  0  0
    0.4720    3.0490   -0.6770 C   0  0  0  0  0  0  0  0  0  0  0  0
    0.7150    1.7060   -0.4980 C   0  0  0  0  0  0  0  0  0  0  0  0
   -0.1640    0.7460   -1.0440 N   0  0  0  0  0  0  0  0  0  0  0  0
   -1.4080    0.7480   -0.6930 C   0  0  0  0  0  0  0  0  0  0  0  0
   -2.3540   -0.2590   -1.2600 C   0  0  0  0  0  0  0  0  0  0  0  0
   -2.8870   -1.0230   -0.2100 O   0  0  0  0  0  0  0  0  0  0  0  0
   -3.7920   -2.0420   -0.3520 C   0  0  0  0  0  0  0  0  0  0  0  0
   -4.2780   -2.4210   -1.5930 C   0  0  0  0  0  0  0  0  0  0  0  0
   -5.1880   -3.4470   -1.7320 C   0  0  0  0  0  0  0  0  0  0  0  0
   -5.6040   -4.0910   -0.5840 C   0  0  0  0  0  0  0  0  0  0  0  0
   -6.7680   -5.4040   -0.7510 Cl  0  0  0  0  0  0  0  0  0  0  0  0
   -5.1220   -3.7170    0.6590 C   0  0  0  0  0  0  0  0  0  0  0  0
   -4.2110   -2.6910    0.8040 C   0  0  0  0  0  0  0  0  0  0  0  0
   -3.6840   -2.2770    2.1180 C   0  0  0  0  0  0  0  0  0  0  0  0
   -1.9360    1.6890    0.2340 N   0  0  0  0  0  0  0  0  0  0  0  0
   -2.9890    2.5100    0.0130 C   0  0  0  0  0  0  0  0  0  0  0  0
   -3.2260    3.2920    1.1310 C   0  0  0  0  0  0  0  0  0  0  0  0
   -2.2880    2.9370    2.0640 C   0  0  0  0  0  0  0  0  0  0  0  0
   -1.5170    1.9550    1.4790 C   0  0  0  0  0  0  0  0  0  0  0  0
    1.7990    1.3450    0.2030 N   0  0  0  0  0  0  0  0  0  0  0  0
    4.8540   -0.8310   -0.1280 O   0  0  0  0  0  0  0  0  0  0  0  0
  1  2  1  0
  2  3  2  0
  2 34  1  0
  3  4  1  0
  4  5  2  0
  5  6  1  0
  5 34  1  0
  6  7  1  0
  6  9  1  1
  7  8  2  0
  9 10  1  0
 10 11  2  0
 10 33  1  0
 11 12  1  0
 12 13  2  0
 12 14  1  0
 14 15  2  0
 15 16  1  0
 15 33  1  0
 16 17  2  3
 17 18  1  0
 17 28  1  0
 18 19  1  0
 19 20  1  0
 20 21  2  0
 20 26  1  0
 21 22  1  0
 22 23  2  0
 23 24  1  0
 23 25  1  0
 25 26  2  0
 26 27  1  0
 28 29  1  0
 28 32  1  0
 29 30  2  0
 30 31  1  0
 31 32  2  0
M  END
