
     RDKit          3D

 34 37  0  0  0  0  0  0  0  0999 V2000
   -4.7750   -0.9380    3.1560 C   0  0  0  0  0  0  0  0  0  0  0  0
   -5.7240   -0.3470    2.4610 C   0  0  0  0  0  0  0  0  0  0  0  0
   -6.2460   -0.9780    1.2260 C   0  0  0  0  0  0  0  0  0  0  0  0
   -6.0270   -0.0870    0.0500 C   0  0  0  0  0  0  0  0  0  0  0  0
   -6.9250    0.8440   -0.3830 C   0  0  0  0  0  0  0  0  0  0  0  0
   -6.6450    1.6260   -1.4750 C   0  0  0  0  0  0  0  0  0  0  0  0
   -5.4520    1.4910   -2.1610 C   0  0  0  0  0  0  0  0  0  0  0  0
   -5.2220    2.3020   -3.2570 C   0  0  0  0  0  0  0  0  0  0  0  0
   -6.4400    3.4720   -3.7370 Cl  0  0  0  0  0  0  0  0  0  0  0  0
   -4.0430    2.1780   -3.9520 C   0  0  0  0  0  0  0  0  0  0  0  0
   -3.0920    1.2700   -3.5810 C   0  0  0  0  0  0  0  0  0  0  0  0
   -3.3330    0.4530   -2.4700 C   0  0  0  0  0  0  0  0  0  0  0  0
   -2.3260   -0.4900   -2.0630 C   0  0  0  0  0  0  0  0  0  0  0  0
   -2.3440   -1.1660   -1.0540 O   0  0  0  0  0  0  0  0  0  0  0  0
   -1.2090   -0.6590   -2.9020 O   0  0  0  0  0  0  0  0  0  0  0  0
   -0.2340   -1.5900   -2.4810 C   0  0  0  0  0  0  0  0  0  0  0  0
    0.2630   -1.0940   -1.1460 C   0  0  0  0  0  0  0  0  0  0  0  0
    0.1140    0.1390   -0.6420 N   0  0  0  0  0  0  0  0  0  0  0  0
    0.6870    0.1410    0.5440 N   0  0  0  0  0  0  0  0  0  0  0  0
    1.2140   -1.0600    0.8430 C   0  0  0  0  0  0  0  0  0  0  0  0
    2.0760   -1.5880    2.3090 S   0  0  0  0  0  0  0  0  0  0  0  0
    3.8490   -1.3200    2.0510 C   0  0  1  0  0  0  0  0  0  0  0  0
    4.2630   -2.2780    0.9270 C   0  0  0  0  0  0  0  0  0  0  0  0
    4.0430    0.0910    1.6460 C   0  0  0  0  0  0  0  0  0  0  0  0
    3.0340    0.8780    1.5360 O   0  0  0  0  0  0  0  0  0  0  0  0
    5.3520    0.5750    1.3780 N   0  0  0  0  0  0  0  0  0  0  0  0
    5.4810    1.9690    0.9760 C   0  0  0  0  0  0  0  0  0  0  0  0
    6.9420    2.3380    0.8070 C   0  0  0  0  0  0  0  0  0  0  0  0
    7.7310    1.7480    1.7730 O   0  0  0  0  0  0  0  0  0  0  0  0
    7.7810    0.3790    1.7420 C   0  0  0  0  0  0  0  0  0  0  0  0
    6.4660   -0.3080    1.5130 C   0  0  0  0  0  0  0  0  0  0  0  0
    0.9330   -1.8150   -0.2330 N   0  0  0  0  0  0  0  0  0  0  0  0
   -4.5120    0.5620   -1.7600 C   0  0  0  0  0  0  0  0  0  0  0  0
   -4.8300   -0.2070   -0.6560 C   0  0  0  0  0  0  0  0  0  0  0  0
  1  2  2  0
  2  3  1  0
  3  4  1  0
  4  5  2  0
  4 34  1  0
  5  6  1  0
  6  7  2  0
  7  8  1  0
  7 33  1  0
  8  9  1  0
  8 10  2  0
 10 11  1  0
 11 12  2  0
 12 13  1  0
 12 33  1  0
 13 14  2  0
 13 15  1  0
 15 16  1  0
 16 17  1  0
 17 18  2  0
 17 32  1  0
 18 19  1  0
 19 20  2  0
 20 21  1  0
 20 32  1  0
 21 22  1  0
 22 23  1  6
 22 24  1  0
 24 25  2  0
 24 26  1  0
 26 27  1  0
 26 31  1  0
 27 28  1  0
 28 29  1  0
 29 30  1  0
 30 31  1  0
 33 34  2  0
M  END
