
     RDKit          3D

 34 37  0  0  0  0  0  0  0  0999 V2000
   -7.2110   -1.5770    0.5760 C   0  0  0  0  0  0  0  0  0  0  0  0
   -8.1620   -0.8900   -0.1530 O   0  0  0  0  0  0  0  0  0  0  0  0
   -7.5650    0.0250   -0.9840 C   0  0  0  0  0  0  0  0  0  0  0  0
   -6.7410    1.0460   -0.2320 C   0  0  0  0  0  0  0  0  0  0  0  0
   -5.6610    1.3560    0.0600 N   0  0  0  0  0  0  0  0  0  0  0  0
   -5.2130    2.3490    0.7690 C   0  0  0  0  0  0  0  0  0  0  0  0
   -3.7870    2.6680    1.0780 C   0  0  0  0  0  0  0  0  0  0  0  0
   -3.5630    3.7140    1.8160 O   0  0  0  0  0  0  0  0  0  0  0  0
   -2.6910    1.9910    0.6770 N   0  0  0  0  0  0  0  0  0  0  0  0
   -2.2020    1.0280    0.1310 C   0  0  0  0  0  0  0  0  0  0  0  0
   -0.7440    0.9640    0.0600 N   0  0  0  0  0  0  0  0  0  0  0  0
   -0.0010    2.1580    0.3180 C   0  0  0  0  0  0  0  0  0  0  0  0
    1.4660    1.8750    0.1970 C   0  0  0  0  0  0  0  0  0  0  0  0
    2.3300    1.4540    1.1850 C   0  0  0  0  0  0  0  0  0  0  0  0
    3.5960    1.3160    0.6410 C   0  0  0  0  0  0  0  0  0  0  0  0
    4.8290    0.9370    1.1250 C   0  0  0  0  0  0  0  0  0  0  0  0
    5.9780    0.8860    0.3240 C   0  0  0  0  0  0  0  0  0  0  0  0
    7.2730    0.4340    0.8670 C   0  0  0  0  0  0  0  0  0  0  0  0
    7.6020   -0.9980    0.6940 C   0  0  2  0  0  0  0  0  0  0  0  0
    8.9850   -1.2510    1.3170 C   0  0  0  0  0  0  0  0  0  0  0  0
    7.5400   -1.5640   -0.6800 C   0  0  0  0  0  0  0  0  0  0  0  0
    5.8060    1.2400   -0.9870 C   0  0  0  0  0  0  0  0  0  0  0  0
    7.1670    1.2880   -2.1240 Cl  0  0  0  0  0  0  0  0  0  0  0  0
    4.5610    1.6270   -1.4980 C   0  0  0  0  0  0  0  0  0  0  0  0
    3.4470    1.6670   -0.6850 C   0  0  0  0  0  0  0  0  0  0  0  0
    2.1800    1.9860   -0.8920 O   0  0  0  0  0  0  0  0  0  0  0  0
   -2.9230   -0.0510   -0.4450 N   0  0  0  0  0  0  0  0  0  0  0  0
   -3.3510   -1.1200    0.4250 C   0  0  0  0  0  0  0  0  0  0  0  0
   -3.6560   -2.3880   -0.3380 C   0  0  0  0  0  0  0  0  0  0  0  0
   -4.2270   -2.1200   -1.5800 O   0  0  0  0  0  0  0  0  0  0  0  0
   -3.2330   -1.4850   -2.3480 C   0  0  0  0  0  0  0  0  0  0  0  0
   -3.1770   -0.0420   -1.8640 C   0  0  0  0  0  0  0  0  0  0  0  0
   -6.2550    3.1900    1.2650 C   0  0  0  0  0  0  0  0  0  0  0  0
   -7.6940    2.4300    0.6410 S   0  0  0  0  0  0  0  0  0  0  0  0
  1  2  1  0
  2  3  1  0
  3  4  1  0
  4  5  2  0
  4 34  1  0
  5  6  1  0
  6  7  1  0
  6 33  2  0
  7  8  2  0
  7  9  1  0
  9 10  2  3
 10 11  1  0
 10 27  1  0
 11 12  1  0
 12 13  1  0
 13 14  2  0
 13 26  1  0
 14 15  1  0
 15 16  2  0
 15 25  1  0
 16 17  1  0
 17 18  1  0
 17 22  2  0
 18 19  1  0
 19 20  1  6
 19 21  1  0
 22 23  1  0
 22 24  1  0
 24 25  2  0
 25 26  1  0
 27 28  1  0
 27 32  1  0
 28 29  1  0
 29 30  1  0
 30 31  1  0
 31 32  1  0
 33 34  1  0
M  END
