
     RDKit          3D

 34 37  0  0  0  0  0  0  0  0999 V2000
    7.2620   -0.5810   -0.5340 C   0  0  0  0  0  0  0  0  0  0  0  0
    7.6700    0.1560    0.4800 C   0  0  0  0  0  0  0  0  0  0  0  0
    8.8960   -0.1850    1.2160 C   0  0  0  0  0  0  0  0  0  0  0  0
    9.4230    0.8650    1.9770 O   0  0  0  0  0  0  0  0  0  0  0  0
    8.7060    1.9750    2.3640 C   0  0  0  0  0  0  0  0  0  0  0  0
    9.1880    2.7780    3.2090 O   0  0  0  0  0  0  0  0  0  0  0  0
    7.3940    2.1690    1.7610 C   0  0  0  0  0  0  0  0  0  0  0  0
    6.8900    1.3270    0.8740 C   0  0  0  0  0  0  0  0  0  0  0  0
    5.5600    1.5080    0.2520 C   0  0  0  0  0  0  0  0  0  0  0  0
    4.4650    0.1100    0.6090 S   0  0  0  0  0  0  0  0  0  0  0  0
    2.8820    0.3860   -0.1670 C   0  0  0  0  0  0  0  0  0  0  0  0
    1.8610   -0.5610   -0.0340 C   0  0  0  0  0  0  0  0  0  0  0  0
    0.6430   -0.3660   -0.6230 C   0  0  0  0  0  0  0  0  0  0  0  0
   -0.4670   -1.3040   -0.5290 C   0  0  0  0  0  0  0  0  0  0  0  0
   -0.3630   -2.4810    0.1760 C   0  0  0  0  0  0  0  0  0  0  0  0
   -1.4280   -3.3880    0.2700 C   0  0  0  0  0  0  0  0  0  0  0  0
   -2.5860   -3.0350   -0.3840 C   0  0  0  0  0  0  0  0  0  0  0  0
   -3.5780   -3.8090   -0.3360 O   0  0  0  0  0  0  0  0  0  0  0  0
   -2.6660   -1.8760   -1.0690 N   0  0  0  0  0  0  0  0  0  0  0  0
   -3.9440   -1.5990   -1.7270 C   0  0  0  0  0  0  0  0  0  0  0  0
   -4.8410   -0.8440   -0.7750 C   0  0  0  0  0  0  0  0  0  0  0  0
   -4.3990   -0.5780    0.3560 O   0  0  0  0  0  0  0  0  0  0  0  0
   -6.1380   -0.4480   -1.1400 N   0  0  0  0  0  0  0  0  0  0  0  0
   -7.0830    0.2540   -0.3610 C   0  0  0  0  0  0  0  0  0  0  0  0
   -8.2890    0.6480   -0.9440 C   0  0  0  0  0  0  0  0  0  0  0  0
   -9.2500    1.3280   -0.2380 C   0  0  0  0  0  0  0  0  0  0  0  0
   -9.0790    1.6620    1.0880 C   0  0  0  0  0  0  0  0  0  0  0  0
  -10.3210    2.5290    1.9590 Cl  0  0  0  0  0  0  0  0  0  0  0  0
   -7.9000    1.2830    1.6710 C   0  0  0  0  0  0  0  0  0  0  0  0
   -6.9060    0.5830    0.9540 C   0  0  0  0  0  0  0  0  0  0  0  0
   -1.6540   -1.0310   -1.1490 N   0  0  0  0  0  0  0  0  0  0  0  0
    0.4810    0.8170   -1.3540 C   0  0  0  0  0  0  0  0  0  0  0  0
    1.5030    1.7280   -1.4680 C   0  0  0  0  0  0  0  0  0  0  0  0
    2.6900    1.5140   -0.8800 N   0  0  0  0  0  0  0  0  0  0  0  0
  1  2  2  0
  2  3  1  0
  2  8  1  0
  3  4  1  0
  4  5  1  0
  5  6  2  0
  5  7  1  0
  7  8  2  0
  8  9  1  0
  9 10  1  0
 10 11  1  0
 11 12  2  0
 11 34  1  0
 12 13  1  0
 13 14  1  0
 13 32  2  0
 14 15  1  0
 14 31  2  0
 15 16  2  0
 16 17  1  0
 17 18  2  0
 17 19  1  0
 19 20  1  0
 19 31  1  0
 20 21  1  0
 21 22  2  0
 21 23  1  0
 23 24  1  0
 24 25  2  0
 24 30  1  0
 25 26  1  0
 26 27  2  0
 27 28  1  0
 27 29  1  0
 29 30  2  0
 32 33  1  0
 33 34  2  0
M  END
