
     RDKit          3D

 34 37  0  0  0  0  0  0  0  0999 V2000
   -3.2360   -0.9050   -2.3910 O   0  0  0  0  0  0  0  0  0  0  0  0
   -3.3460   -0.5500   -1.1700 C   0  0  0  0  0  0  0  0  0  0  0  0
   -2.1410   -0.4220   -0.5310 O   0  0  0  0  0  0  0  0  0  0  0  0
   -0.9110   -0.6650   -1.1820 C   0  0  0  0  0  0  0  0  0  0  0  0
    0.2390   -0.4580   -0.2730 C   0  0  0  0  0  0  0  0  0  0  0  0
    0.9800    0.5200    0.0490 N   0  0  0  0  0  0  0  0  0  0  0  0
    1.9330    0.4080    0.8890 N   0  0  0  0  0  0  0  0  0  0  0  0
    2.2530   -0.6130    1.4780 C   0  0  0  0  0  0  0  0  0  0  0  0
    3.1880   -1.1010    2.4200 N   0  0  0  0  0  0  0  0  0  0  0  0
    4.3320   -1.5100    1.9930 C   0  0  0  0  0  0  0  0  0  0  0  0
    4.7120   -1.4990    0.6230 N   0  0  0  0  0  0  0  0  0  0  0  0
    4.2770   -2.4870   -0.2130 C   0  0  0  0  0  0  0  0  0  0  0  0
    4.7870   -2.2290   -1.4520 C   0  0  0  0  0  0  0  0  0  0  0  0
    5.5350   -1.0780   -1.3680 C   0  0  0  0  0  0  0  0  0  0  0  0
    5.4760   -0.6280   -0.0430 C   0  0  0  0  0  0  0  0  0  0  0  0
    6.1290    0.5610    0.4850 C   0  0  0  0  0  0  0  0  0  0  0  0
    6.0700    0.9990    1.7790 C   0  0  0  0  0  0  0  0  0  0  0  0
    6.7280    2.1590    2.2160 C   0  0  0  0  0  0  0  0  0  0  0  0
    7.4670    2.9070    1.3460 C   0  0  0  0  0  0  0  0  0  0  0  0
    8.2810    4.3510    1.9120 Cl  0  0  0  0  0  0  0  0  0  0  0  0
    7.5440    2.4920    0.0430 C   0  0  0  0  0  0  0  0  0  0  0  0
    6.8940    1.3510   -0.3800 C   0  0  0  0  0  0  0  0  0  0  0  0
    0.9550   -1.7830    0.7450 S   0  0  0  0  0  0  0  0  0  0  0  0
   -4.6680   -0.3280   -0.6100 C   0  0  0  0  0  0  0  0  0  0  0  0
   -5.7680   -0.4720   -1.2900 C   0  0  0  0  0  0  0  0  0  0  0  0
   -5.8410   -0.8630   -2.6710 C   0  0  0  0  0  0  0  0  0  0  0  0
   -7.0580   -0.9800   -3.2750 C   0  0  0  0  0  0  0  0  0  0  0  0
   -7.1880   -1.3530   -4.5980 O   0  0  0  0  0  0  0  0  0  0  0  0
   -4.8180    0.0920    0.7900 C   0  0  0  0  0  0  0  0  0  0  0  0
   -3.7720    0.2720    1.6150 C   0  0  0  0  0  0  0  0  0  0  0  0
   -4.1260    0.7010    3.0100 C   0  0  0  0  0  0  0  0  0  0  0  0
   -4.9540    1.8070    3.0250 O   0  0  0  0  0  0  0  0  0  0  0  0
   -5.9490    1.7590    2.0840 C   0  0  0  0  0  0  0  0  0  0  0  0
   -6.1120    0.3760    1.4580 C   0  0  0  0  0  0  0  0  0  0  0  0
  1  2  2  0
  2  3  1  0
  2 24  1  0
  3  4  1  0
  4  5  1  0
  5  6  2  0
  5 23  1  0
  6  7  1  0
  7  8  2  0
  8  9  1  0
  8 23  1  0
  9 10  2  3
 10 11  1  0
 11 12  1  0
 11 15  1  0
 12 13  2  0
 13 14  1  0
 14 15  2  0
 15 16  1  0
 16 17  2  0
 16 22  1  0
 17 18  1  0
 18 19  2  0
 19 20  1  0
 19 21  1  0
 21 22  2  0
 24 25  2  3
 24 29  1  0
 25 26  1  0
 26 27  2  3
 27 28  1  0
 29 30  2  0
 29 34  1  0
 30 31  1  0
 31 32  1  0
 32 33  1  0
 33 34  1  0
M  END
