
     RDKit          3D

 34 36  0  0  0  0  0  0  0  0999 V2000
   -0.5750   -2.4160    2.3310 C   0  0  0  0  0  0  0  0  0  0  0  0
   -0.7970   -2.0150    0.9880 O   0  0  0  0  0  0  0  0  0  0  0  0
   -0.9980   -0.6720    0.7380 C   0  0  0  0  0  0  0  0  0  0  0  0
   -2.2660   -0.1440    0.7600 C   0  0  0  0  0  0  0  0  0  0  0  0
   -3.4730   -0.9310    1.0200 C   0  0  0  0  0  0  0  0  0  0  0  0
   -4.0160   -1.7190   -0.1120 C   0  0  1  0  0  0  0  0  0  0  0  0
   -5.2710   -2.4520    0.3910 C   0  0  0  0  0  0  0  0  0  0  0  0
   -4.5180   -0.7840   -1.2080 C   0  0  0  0  0  0  0  0  0  0  0  0
   -3.1220   -2.7460   -0.7160 C   0  0  0  0  0  0  0  0  0  0  0  0
   -2.3370    1.1810    0.5040 N   0  0  0  0  0  0  0  0  0  0  0  0
   -1.2850    1.9740    0.2400 C   0  0  0  0  0  0  0  0  0  0  0  0
   -1.4820    3.2170    0.0130 O   0  0  0  0  0  0  0  0  0  0  0  0
   -0.0140    1.4790    0.2110 C   0  0  0  0  0  0  0  0  0  0  0  0
    1.1570    2.2750   -0.0640 C   0  0  0  0  0  0  0  0  0  0  0  0
    1.3400    3.4550   -0.3160 N   0  0  0  0  0  0  0  0  0  0  0  0
    0.7580    4.6700   -0.4990 C   0  0  0  0  0  0  0  0  0  0  0  0
    0.3110    5.2590   -1.6310 C   0  0  0  0  0  0  0  0  0  0  0  0
   -0.2480    6.5790   -1.3830 C   0  0  0  0  0  0  0  0  0  0  0  0
   -0.0830    6.7440    0.0660 C   0  0  0  0  0  0  0  0  0  0  0  0
   -0.5900    8.1900    0.9390 Cl  0  0  0  0  0  0  0  0  0  0  0  0
    0.4800    5.6720    0.5550 C   0  0  0  0  0  0  0  0  0  0  0  0
    0.8060    5.4700    1.9930 C   0  0  0  0  0  0  0  0  0  0  0  0
    0.1080    0.1060    0.4720 C   0  0  0  0  0  0  0  0  0  0  0  0
    1.4410   -0.5330    0.4670 C   0  0  0  0  0  0  0  0  0  0  0  0
    2.0400   -0.5480    1.5630 O   0  0  0  0  0  0  0  0  0  0  0  0
    1.9920   -1.0810   -0.6890 N   0  0  0  0  0  0  0  0  0  0  0  0
    2.9620   -1.9100   -0.7400 C   0  0  0  0  0  0  0  0  0  0  0  0
    3.7390   -2.5100    0.1570 N   0  0  0  0  0  0  0  0  0  0  0  0
    4.6730   -3.3270   -0.2130 C   0  0  0  0  0  0  0  0  0  0  0  0
    4.8620   -3.5770   -1.5560 C   0  0  0  0  0  0  0  0  0  0  0  0
    5.8280   -4.4390   -2.2010 C   0  0  0  0  0  0  0  0  0  0  0  0
    6.8040   -5.2130   -1.4080 C   0  0  0  0  0  0  0  0  0  0  0  0
    5.8290   -4.5230   -3.4480 O   0  0  0  0  0  0  0  0  0  0  0  0
    3.6310   -2.5820   -2.2980 S   0  0  0  0  0  0  0  0  0  0  0  0
  1  2  1  0
  2  3  1  0
  3  4  2  0
  3 23  1  0
  4  5  1  0
  4 10  1  0
  5  6  1  0
  6  7  1  1
  6  8  1  0
  6  9  1  0
 10 11  1  0
 11 12  2  0
 11 13  1  0
 13 14  1  0
 13 23  2  0
 14 15  2  3
 15 16  1  0
 16 17  2  0
 16 21  1  0
 17 18  1  0
 18 19  1  0
 19 20  1  0
 19 21  2  0
 21 22  1  0
 23 24  1  0
 24 25  2  0
 24 26  1  0
 26 27  2  3
 27 28  1  0
 27 34  1  0
 28 29  1  0
 29 30  2  0
 30 31  1  0
 30 34  1  0
 31 32  1  0
 31 33  2  0
M  END
