
     RDKit          3D

 35 37  0  0  0  0  0  0  0  0999 V2000
   -3.8670   -0.5090    2.5010 C   0  0  0  0  0  0  0  0  0  0  0  0
   -3.3350   -1.7810    1.9350 C   0  0  1  0  0  0  0  0  0  0  0  0
   -4.2260   -2.9310    2.4090 C   0  0  0  0  0  0  0  0  0  0  0  0
   -3.2600   -1.7310    0.4470 C   0  0  0  0  0  0  0  0  0  0  0  0
   -2.4280   -0.6910   -0.0370 N   0  0  0  0  0  0  0  0  0  0  0  0
   -1.1230   -1.1050   -0.4960 C   0  0  0  0  0  0  0  0  0  0  0  0
   -0.0190   -0.2720    0.1170 C   0  0  1  0  0  0  0  0  0  0  0  0
   -0.0110   -0.3710    1.5030 O   0  0  0  0  0  0  0  0  0  0  0  0
    1.2960   -0.6960   -0.4240 C   0  0  2  0  0  0  0  0  0  0  0  0
    1.5710   -2.1450   -0.0580 C   0  0  0  0  0  0  0  0  0  0  0  0
    2.9080   -2.5650   -0.6090 C   0  0  0  0  0  0  0  0  0  0  0  0
    4.0210   -2.3810    0.1930 C   0  0  0  0  0  0  0  0  0  0  0  0
    5.2410   -2.7560   -0.2920 C   0  0  0  0  0  0  0  0  0  0  0  0
    5.3510   -3.3100   -1.5640 C   0  0  0  0  0  0  0  0  0  0  0  0
    4.2300   -3.4830   -2.3430 C   0  0  0  0  0  0  0  0  0  0  0  0
    3.0030   -3.1120   -1.8700 C   0  0  0  0  0  0  0  0  0  0  0  0
    2.4180    0.0580    0.0150 N   0  0  0  0  0  0  0  0  0  0  0  0
    3.2650    0.7120   -0.9070 C   0  0  0  0  0  0  0  0  0  0  0  0
    2.9780    0.5930   -2.1100 O   0  0  0  0  0  0  0  0  0  0  0  0
    4.3740    1.4620   -0.5340 O   0  0  0  0  0  0  0  0  0  0  0  0
    5.1720    2.0890   -1.5480 C   0  0  1  0  0  0  0  0  0  0  0  0
    5.1570    3.5920   -1.3710 C   0  0  0  0  0  0  0  0  0  0  0  0
    6.5810    3.8920   -1.0210 C   0  0  0  0  0  0  0  0  0  0  0  0
    7.2790    2.9070   -1.7380 O   0  0  0  0  0  0  0  0  0  0  0  0
    6.6110    1.7320   -1.3720 C   0  0  0  0  0  0  0  0  0  0  0  0
   -3.1470    0.4790   -1.0130 S   0  0  1  0  0  0  0  0  0  0  0  0
   -2.1000    1.5170   -1.3830 O   0  0  0  0  0  0  0  0  0  0  0  0
   -3.6990   -0.1010   -2.2900 O   0  0  0  0  0  0  0  0  0  0  0  0
   -4.4130    1.3500   -0.1720 C   0  0  0  0  0  0  0  0  0  0  0  0
   -5.7230    0.9110   -0.2760 C   0  0  0  0  0  0  0  0  0  0  0  0
   -6.7100    1.5950    0.3710 C   0  0  0  0  0  0  0  0  0  0  0  0
   -6.4430    2.7150    1.1280 C   0  0  0  0  0  0  0  0  0  0  0  0
   -7.4820    3.4080    1.7900 N   0  0  0  0  0  0  0  0  0  0  0  0
   -5.1260    3.1420    1.2230 C   0  0  0  0  0  0  0  0  0  0  0  0
   -4.1510    2.4620    0.5810 C   0  0  0  0  0  0  0  0  0  0  0  0
  2  1  1  6
  2  3  1  0
  2  4  1  0
  4  5  1  0
  5  6  1  0
 26  5  1  1
  6  7  1  0
  7  8  1  1
  7  9  1  0
  9 10  1  1
  9 17  1  0
 10 11  1  0
 11 12  2  0
 11 16  1  0
 12 13  1  0
 13 14  2  0
 14 15  1  0
 15 16  2  0
 17 18  1  0
 18 19  2  0
 18 20  1  0
 21 20  1  1
 21 22  1  0
 21 25  1  0
 22 23  1  0
 23 24  1  0
 24 25  1  0
 26 27  2  0
 26 28  2  0
 26 29  1  0
 29 30  2  0
 29 35  1  0
 30 31  1  0
 31 32  2  0
 32 33  1  0
 32 34  1  0
 34 35  2  0
M  END
