
     RDKit          3D

 34 37  0  0  0  0  0  0  0  0999 V2000
   -1.4030   -0.9660   -0.1030 O   0  0  0  0  0  0  0  0  0  0  0  0
   -2.3230   -0.2650   -0.6270 C   0  0  0  0  0  0  0  0  0  0  0  0
   -1.8660    0.6660   -1.5310 O   0  0  0  0  0  0  0  0  0  0  0  0
   -0.5060    0.8470   -1.8630 C   0  0  0  0  0  0  0  0  0  0  0  0
    0.1930    1.2010   -0.6340 C   0  0  0  0  0  0  0  0  0  0  0  0
   -0.1100    1.3950    0.6520 N   0  0  0  0  0  0  0  0  0  0  0  0
    0.7180    1.6990    1.5050 N   0  0  0  0  0  0  0  0  0  0  0  0
    1.9860    1.8850    1.3480 C   0  0  0  0  0  0  0  0  0  0  0  0
    3.1140    2.1980    1.9800 N   0  0  0  0  0  0  0  0  0  0  0  0
    4.0910    1.4740    2.4030 C   0  0  0  0  0  0  0  0  0  0  0  0
    4.1210    0.0470    2.2380 N   0  0  0  0  0  0  0  0  0  0  0  0
    3.4370   -0.8080    3.0520 C   0  0  0  0  0  0  0  0  0  0  0  0
    3.6570   -2.1010    2.6530 C   0  0  0  0  0  0  0  0  0  0  0  0
    4.4980   -2.0070    1.5690 C   0  0  0  0  0  0  0  0  0  0  0  0
    4.7730   -0.6480    1.3310 C   0  0  0  0  0  0  0  0  0  0  0  0
    5.6450   -0.2030    0.2380 C   0  0  0  0  0  0  0  0  0  0  0  0
    6.2310   -1.1290   -0.6040 C   0  0  0  0  0  0  0  0  0  0  0  0
    7.0600   -0.7650   -1.6490 C   0  0  0  0  0  0  0  0  0  0  0  0
    7.3030    0.5730   -1.8480 C   0  0  0  0  0  0  0  0  0  0  0  0
    8.3610    1.0340   -3.1830 Cl  0  0  0  0  0  0  0  0  0  0  0  0
    6.7470    1.5120   -1.0440 C   0  0  0  0  0  0  0  0  0  0  0  0
    5.9130    1.1180    0.0040 C   0  0  0  0  0  0  0  0  0  0  0  0
    2.0070    1.5320   -0.5160 S   0  0  0  0  0  0  0  0  0  0  0  0
   -3.7160   -0.4210   -0.3150 C   0  0  0  0  0  0  0  0  0  0  0  0
   -4.1070   -1.3190    0.5490 C   0  0  0  0  0  0  0  0  0  0  0  0
   -3.2850   -2.2360    1.2800 C   0  0  0  0  0  0  0  0  0  0  0  0
   -3.9100   -3.0790    2.1230 C   0  0  0  0  0  0  0  0  0  0  0  0
   -5.2690   -3.0250    2.2430 O   0  0  0  0  0  0  0  0  0  0  0  0
   -4.7650    0.4080   -0.9560 C   0  0  0  0  0  0  0  0  0  0  0  0
   -4.5210    1.3510   -1.8320 C   0  0  0  0  0  0  0  0  0  0  0  0
   -5.6630    2.1300   -2.4160 C   0  0  0  0  0  0  0  0  0  0  0  0
   -6.7560    1.3150   -2.5160 O   0  0  0  0  0  0  0  0  0  0  0  0
   -7.2050    0.9070   -1.2520 C   0  0  0  0  0  0  0  0  0  0  0  0
   -6.1710    0.0840   -0.5490 C   0  0  0  0  0  0  0  0  0  0  0  0
  1  2  2  0
  2  3  1  0
  2 24  1  0
  3  4  1  0
  4  5  1  0
  5  6  2  0
  5 23  1  0
  6  7  1  0
  7  8  2  0
  8  9  1  0
  8 23  1  0
  9 10  2  3
 10 11  1  0
 11 12  1  0
 11 15  1  0
 12 13  2  0
 13 14  1  0
 14 15  2  0
 15 16  1  0
 16 17  2  0
 16 22  1  0
 17 18  1  0
 18 19  2  0
 19 20  1  0
 19 21  1  0
 21 22  2  0
 24 25  2  3
 24 29  1  0
 25 26  1  0
 26 27  2  3
 27 28  1  0
 29 30  2  0
 29 34  1  0
 30 31  1  0
 31 32  1  0
 32 33  1  0
 33 34  1  0
M  END
