
     RDKit          3D

 34 37  0  0  0  0  0  0  0  0999 V2000
    6.2670    0.6430   -2.0590 C   0  0  0  0  0  0  0  0  0  0  0  0
    5.9980   -0.6140   -1.7890 C   0  0  0  0  0  0  0  0  0  0  0  0
    6.4250   -1.6840   -2.7210 C   0  0  0  0  0  0  0  0  0  0  0  0
    6.8490   -2.8290   -2.0010 O   0  0  0  0  0  0  0  0  0  0  0  0
    6.1860   -3.2290   -0.8630 C   0  0  0  0  0  0  0  0  0  0  0  0
    6.2440   -4.4010   -0.4110 O   0  0  0  0  0  0  0  0  0  0  0  0
    5.3720   -2.2510   -0.1390 C   0  0  0  0  0  0  0  0  0  0  0  0
    5.2790   -0.9920   -0.5810 C   0  0  0  0  0  0  0  0  0  0  0  0
    4.4650   -0.0010    0.1370 C   0  0  0  0  0  0  0  0  0  0  0  0
    3.1560    0.6370   -0.9550 S   0  0  0  0  0  0  0  0  0  0  0  0
    2.1480    1.8400   -0.1250 C   0  0  0  0  0  0  0  0  0  0  0  0
    1.0110    1.5130    0.5850 C   0  0  0  0  0  0  0  0  0  0  0  0
    0.2310    2.4640    1.2300 C   0  0  0  0  0  0  0  0  0  0  0  0
   -0.9610    1.9940    1.9570 C   0  0  0  0  0  0  0  0  0  0  0  0
   -1.7890    2.8670    2.6240 C   0  0  0  0  0  0  0  0  0  0  0  0
   -2.8980    2.3460    3.2890 C   0  0  0  0  0  0  0  0  0  0  0  0
   -3.1800    0.9910    3.2940 C   0  0  0  0  0  0  0  0  0  0  0  0
   -4.1910    0.5600    3.9070 O   0  0  0  0  0  0  0  0  0  0  0  0
   -2.3310    0.1930    2.6240 N   0  0  0  0  0  0  0  0  0  0  0  0
   -2.5730   -1.2070    2.5970 C   0  0  0  0  0  0  0  0  0  0  0  0
   -3.4130   -1.6710    1.4780 C   0  0  0  0  0  0  0  0  0  0  0  0
   -3.6410   -2.8980    1.4290 O   0  0  0  0  0  0  0  0  0  0  0  0
   -3.9540   -0.8150    0.4890 N   0  0  0  0  0  0  0  0  0  0  0  0
   -4.7580   -1.1790   -0.6000 C   0  0  0  0  0  0  0  0  0  0  0  0
   -5.1910   -2.4260   -0.9450 C   0  0  0  0  0  0  0  0  0  0  0  0
   -5.9920   -2.7110   -2.0480 C   0  0  0  0  0  0  0  0  0  0  0  0
   -6.3670   -1.6540   -2.8390 C   0  0  0  0  0  0  0  0  0  0  0  0
   -7.3830   -1.9610   -4.2510 Cl  0  0  0  0  0  0  0  0  0  0  0  0
   -5.9670   -0.3730   -2.5500 C   0  0  0  0  0  0  0  0  0  0  0  0
   -5.1720   -0.1510   -1.4420 C   0  0  0  0  0  0  0  0  0  0  0  0
   -1.2830    0.6860    1.9950 N   0  0  0  0  0  0  0  0  0  0  0  0
    0.6190    3.7590    1.1460 C   0  0  0  0  0  0  0  0  0  0  0  0
    1.7700    4.1060    0.4290 C   0  0  0  0  0  0  0  0  0  0  0  0
    2.4850    3.1420   -0.1750 N   0  0  0  0  0  0  0  0  0  0  0  0
  1  2  2  0
  2  3  1  0
  2  8  1  0
  3  4  1  0
  4  5  1  0
  5  6  2  0
  5  7  1  0
  7  8  2  0
  8  9  1  0
  9 10  1  0
 10 11  1  0
 11 12  2  0
 11 34  1  0
 12 13  1  0
 13 14  1  0
 13 32  2  0
 14 15  1  0
 14 31  2  0
 15 16  2  0
 16 17  1  0
 17 18  2  0
 17 19  1  0
 19 20  1  0
 19 31  1  0
 20 21  1  0
 21 22  2  0
 21 23  1  0
 23 24  1  0
 24 25  2  0
 24 30  1  0
 25 26  1  0
 26 27  2  0
 27 28  1  0
 27 29  1  0
 29 30  2  0
 32 33  1  0
 33 34  2  0
M  END
