
     RDKit          3D

 34 37  0  0  0  0  0  0  0  0999 V2000
    6.0590   -2.5230    1.8750 C   0  0  0  0  0  0  0  0  0  0  0  0
    6.0440   -1.5920    0.7100 C   0  0  0  0  0  0  0  0  0  0  0  0
    5.0280   -0.4820    0.9000 C   0  0  2  0  0  0  0  0  0  0  0  0
    3.6520   -1.0300    1.0560 C   0  0  0  0  0  0  0  0  0  0  0  0
    2.8740   -0.5060    1.8870 O   0  0  0  0  0  0  0  0  0  0  0  0
    3.1460   -2.1200    0.3110 N   0  0  0  0  0  0  0  0  0  0  0  0
    1.7900   -2.6220    0.4580 C   0  0  0  0  0  0  0  0  0  0  0  0
    0.8130   -1.5320    0.0370 C   0  0  0  0  0  0  0  0  0  0  0  0
    0.2770   -0.5930    0.4420 N   0  0  0  0  0  0  0  0  0  0  0  0
   -0.5580    0.2410   -0.1350 C   0  0  0  0  0  0  0  0  0  0  0  0
   -1.2310    1.4650    0.4630 C   0  0  0  0  0  0  0  0  0  0  0  0
   -2.6380    1.1810    0.7900 C   0  0  0  0  0  0  0  0  0  0  0  0
   -2.9880    0.3760    1.6880 O   0  0  0  0  0  0  0  0  0  0  0  0
   -3.7150    1.7920    0.1180 O   0  0  0  0  0  0  0  0  0  0  0  0
   -5.0390    1.5240    0.4300 C   0  0  0  0  0  0  0  0  0  0  0  0
   -5.7810    2.5260    1.0440 C   0  0  0  0  0  0  0  0  0  0  0  0
   -5.0650    4.0820    1.4070 Cl  0  0  0  0  0  0  0  0  0  0  0  0
   -7.1040    2.3360    1.3870 C   0  0  0  0  0  0  0  0  0  0  0  0
   -7.6690    1.0970    1.0930 C   0  0  0  0  0  0  0  0  0  0  0  0
   -6.9300    0.1100    0.4870 C   0  0  0  0  0  0  0  0  0  0  0  0
   -5.6130    0.3150    0.1510 C   0  0  0  0  0  0  0  0  0  0  0  0
   -5.0320   -0.8620   -0.4730 C   0  0  0  0  0  0  0  0  0  0  0  0
   -5.9820   -1.7770   -0.5180 C   0  0  0  0  0  0  0  0  0  0  0  0
   -7.2480   -1.2700    0.0690 C   0  0  0  0  0  0  0  0  0  0  0  0
   -0.8340   -0.0680   -1.4470 C   0  0  0  0  0  0  0  0  0  0  0  0
   -1.6720    0.5400   -2.4890 C   0  0  0  0  0  0  0  0  0  0  0  0
    0.1850   -1.6120   -1.7530 S   0  0  0  0  0  0  0  0  0  0  0  0
    5.0940    0.5570   -0.0720 N   0  0  0  0  0  0  0  0  0  0  0  0
    5.2990    0.3060   -1.3690 C   0  0  0  0  0  0  0  0  0  0  0  0
    5.3560    1.2880   -2.2960 N   0  0  0  0  0  0  0  0  0  0  0  0
    5.2070    2.5790   -1.9560 C   0  0  0  0  0  0  0  0  0  0  0  0
    4.9940    2.8770   -0.6290 C   0  0  0  0  0  0  0  0  0  0  0  0
    4.9410    1.8530    0.2910 C   0  0  0  0  0  0  0  0  0  0  0  0
    4.7430    2.1660    1.4980 O   0  0  0  0  0  0  0  0  0  0  0  0
  1  2  1  0
  3  2  1  6
  3  4  1  0
  3 28  1  0
  4  5  2  0
  4  6  1  0
  6  7  1  0
  7  8  1  0
  8  9  2  0
  8 27  1  0
  9 10  1  0
 10 11  1  0
 10 25  2  0
 11 12  1  0
 12 13  2  0
 12 14  1  0
 14 15  1  0
 15 16  2  0
 15 21  1  0
 16 17  1  0
 16 18  1  0
 18 19  2  0
 19 20  1  0
 20 21  2  0
 20 24  1  0
 21 22  1  0
 22 23  2  0
 23 24  1  0
 25 26  1  0
 25 27  1  0
 28 29  1  0
 28 33  1  0
 29 30  2  0
 30 31  1  0
 31 32  2  0
 32 33  1  0
 33 34  2  0
M  END
