
     RDKit          3D

 34 37  0  0  0  0  0  0  0  0999 V2000
   -7.7130    0.5140    1.4570 C   0  0  0  0  0  0  0  0  0  0  0  0
   -6.8420    0.4790    0.3000 C   0  0  0  0  0  0  0  0  0  0  0  0
   -5.6370    0.0740    0.1590 N   0  0  0  0  0  0  0  0  0  0  0  0
   -4.8700    0.0500   -0.9010 C   0  0  0  0  0  0  0  0  0  0  0  0
   -3.5010   -0.4160   -1.0740 C   0  0  0  0  0  0  0  0  0  0  0  0
   -2.7520   -0.6120    0.1260 N   0  0  0  0  0  0  0  0  0  0  0  0
   -2.7940   -1.6250    1.0250 C   0  0  0  0  0  0  0  0  0  0  0  0
   -3.7140   -2.5410    0.8260 O   0  0  0  0  0  0  0  0  0  0  0  0
   -1.9480   -1.9000    2.1940 C   0  0  0  0  0  0  0  0  0  0  0  0
   -0.8520   -1.3560    2.4570 C   0  0  0  0  0  0  0  0  0  0  0  0
   -0.0650   -0.3750    1.7300 C   0  0  0  0  0  0  0  0  0  0  0  0
    0.0420   -0.6500    0.2900 C   0  0  0  0  0  0  0  0  0  0  0  0
    0.7900    0.3270   -0.2890 C   0  0  0  0  0  0  0  0  0  0  0  0
    1.2510    0.4780   -1.5740 C   0  0  0  0  0  0  0  0  0  0  0  0
    1.6670    0.5920   -2.7200 N   0  0  0  0  0  0  0  0  0  0  0  0
    1.1390    1.2150    0.8770 C   0  0  0  0  0  0  0  0  0  0  0  0
    2.1160    2.6570    0.8080 S   0  0  0  0  0  0  0  0  0  0  0  0
    3.0180    2.8680   -0.7110 C   0  0  0  0  0  0  0  0  0  0  0  0
    4.1530    1.8580   -0.6840 C   0  0  0  0  0  0  0  0  0  0  0  0
    5.3630    2.1180   -1.1240 C   0  0  0  0  0  0  0  0  0  0  0  0
    6.3690    1.1600   -0.9890 C   0  0  0  0  0  0  0  0  0  0  0  0
    6.0790   -0.0210   -0.4060 C   0  0  0  0  0  0  0  0  0  0  0  0
    7.0210   -1.0240   -0.2260 C   0  0  0  0  0  0  0  0  0  0  0  0
    6.7550   -2.2100    0.3620 C   0  0  0  0  0  0  0  0  0  0  0  0
    5.4740   -2.5030    0.8440 C   0  0  0  0  0  0  0  0  0  0  0  0
    5.1530   -4.0390    1.6040 Cl  0  0  0  0  0  0  0  0  0  0  0  0
    4.5170   -1.5130    0.6780 C   0  0  0  0  0  0  0  0  0  0  0  0
    4.8190   -0.2920    0.0570 C   0  0  0  0  0  0  0  0  0  0  0  0
    3.8390    0.6590   -0.0810 N   0  0  0  0  0  0  0  0  0  0  0  0
    0.5630    0.6160    1.8050 O   0  0  0  0  0  0  0  0  0  0  0  0
   -5.4730    0.5600   -2.0860 C   0  0  0  0  0  0  0  0  0  0  0  0
   -6.7530    0.9920   -1.9360 C   0  0  0  0  0  0  0  0  0  0  0  0
   -7.3650    1.4760   -2.9950 O   0  0  0  0  0  0  0  0  0  0  0  0
   -7.4580    0.9880   -0.8790 O   0  0  0  0  0  0  0  0  0  0  0  0
  1  2  1  0
  2  3  2  0
  2 34  1  0
  3  4  1  0
  4  5  1  0
  4 31  2  0
  5  6  1  0
  6  7  1  0
  7  8  2  0
  7  9  1  0
  9 10  2  3
 10 11  1  0
 11 12  2  0
 11 30  1  0
 12 13  1  0
 13 14  1  0
 13 16  2  0
 14 15  3  0
 16 17  1  0
 16 30  1  0
 17 18  1  0
 18 19  1  0
 19 20  2  0
 19 29  1  0
 20 21  1  0
 21 22  2  0
 22 23  1  0
 22 28  1  0
 23 24  2  0
 24 25  1  0
 25 26  1  0
 25 27  2  0
 27 28  1  0
 28 29  2  0
 31 32  1  0
 32 33  2  0
 32 34  1  0
M  END
