
     RDKit          3D

 34 37  0  0  0  0  0  0  0  0999 V2000
    7.0910   -2.9160   -0.4570 C   0  0  0  0  0  0  0  0  0  0  0  0
    6.6320   -1.4950   -0.5740 C   0  0  0  0  0  0  0  0  0  0  0  0
    7.1620   -0.4720    0.1650 C   0  0  0  0  0  0  0  0  0  0  0  0
    6.4860    0.6680   -0.2230 C   0  0  0  0  0  0  0  0  0  0  0  0
    5.5830    0.2930   -1.1730 C   0  0  0  0  0  0  0  0  0  0  0  0
    4.6280    1.2050   -1.8800 C   0  0  2  0  0  0  0  0  0  0  0  0
    5.4250    2.2770   -2.5150 C   0  0  0  0  0  0  0  0  0  0  0  0
    5.2300    3.4430   -2.2050 O   0  0  0  0  0  0  0  0  0  0  0  0
    3.5130    1.9420   -0.6310 S   0  0  0  0  0  0  0  0  0  0  0  0
    2.4950    0.6370    0.0700 C   0  0  0  0  0  0  0  0  0  0  0  0
    2.9740    0.0140    1.1560 N   0  0  0  0  0  0  0  0  0  0  0  0
    2.2450   -0.9620    1.7050 C   0  0  0  0  0  0  0  0  0  0  0  0
    2.6790   -1.5590    2.7270 O   0  0  0  0  0  0  0  0  0  0  0  0
    1.0120   -1.3090    1.1410 C   0  0  0  0  0  0  0  0  0  0  0  0
    0.5270   -0.6630    0.0250 C   0  0  0  0  0  0  0  0  0  0  0  0
   -0.6930   -0.9800   -0.5670 N   0  0  0  0  0  0  0  0  0  0  0  0
   -1.7480   -0.2600   -0.6500 C   0  0  0  0  0  0  0  0  0  0  0  0
   -2.9170   -0.8370   -1.3350 C   0  0  0  0  0  0  0  0  0  0  0  0
   -4.0320   -1.1110   -0.6490 O   0  0  0  0  0  0  0  0  0  0  0  0
   -5.0210   -0.5790    0.0650 C   0  0  0  0  0  0  0  0  0  0  0  0
   -5.1480    0.7750    0.3050 C   0  0  0  0  0  0  0  0  0  0  0  0
   -6.1950    1.2760    1.0510 C   0  0  0  0  0  0  0  0  0  0  0  0
   -7.1540    0.4480    1.5850 C   0  0  0  0  0  0  0  0  0  0  0  0
   -8.4950    1.0460    2.5350 Cl  0  0  0  0  0  0  0  0  0  0  0  0
   -7.0200   -0.9010    1.3410 C   0  0  0  0  0  0  0  0  0  0  0  0
   -6.0090   -1.4290    0.6160 C   0  0  0  0  0  0  0  0  0  0  0  0
   -5.8710   -2.8850    0.3570 C   0  0  0  0  0  0  0  0  0  0  0  0
   -1.7850    1.0320   -0.1050 N   0  0  0  0  0  0  0  0  0  0  0  0
   -1.7510    2.1730   -0.8550 C   0  0  0  0  0  0  0  0  0  0  0  0
   -1.7960    3.2820   -0.0390 C   0  0  0  0  0  0  0  0  0  0  0  0
   -1.8590    2.8240    1.2530 C   0  0  0  0  0  0  0  0  0  0  0  0
   -1.8500    1.4500    1.1630 C   0  0  0  0  0  0  0  0  0  0  0  0
    1.2930    0.3120   -0.4940 N   0  0  0  0  0  0  0  0  0  0  0  0
    5.7100   -1.0080   -1.3470 O   0  0  0  0  0  0  0  0  0  0  0  0
  1  2  1  0
  2  3  2  0
  2 34  1  0
  3  4  1  0
  4  5  2  0
  5  6  1  0
  5 34  1  0
  6  7  1  0
  6  9  1  1
  7  8  2  0
  9 10  1  0
 10 11  2  0
 10 33  1  0
 11 12  1  0
 12 13  2  0
 12 14  1  0
 14 15  2  0
 15 16  1  0
 15 33  1  0
 16 17  2  3
 17 18  1  0
 17 28  1  0
 18 19  1  0
 19 20  1  0
 20 21  2  0
 20 26  1  0
 21 22  1  0
 22 23  2  0
 23 24  1  0
 23 25  1  0
 25 26  2  0
 26 27  1  0
 28 29  1  0
 28 32  1  0
 29 30  2  0
 30 31  1  0
 31 32  2  0
M  END
