
     RDKit          3D

 16 16  0  0  0  0  0  0  0  0999 V2000
    5.0420    0.9080   -0.4480 C   0  0  0  0  0  0  0  0  0  0  0  0
    4.2410    0.3530    0.5550 O   0  0  0  0  0  0  0  0  0  0  0  0
    2.9090    0.0890    0.3130 C   0  0  0  0  0  0  0  0  0  0  0  0
    2.2030    0.9080   -0.4060 C   0  0  0  0  0  0  0  0  0  0  0  0
    0.7630    0.7000   -0.7160 C   0  0  0  0  0  0  0  0  0  0  0  0
    0.1410    1.5930   -1.4560 C   0  0  0  0  0  0  0  0  0  0  0  0
   -1.5480    1.0600   -1.6430 S   0  0  0  0  0  0  0  0  0  0  0  0
   -1.3910   -0.4040   -0.6510 C   0  0  0  0  0  0  0  0  0  0  0  0
   -2.3080   -1.2690   -0.3490 C   0  0  0  0  0  0  0  0  0  0  0  0
   -2.0240   -2.3990    0.4620 N   0  0  0  0  0  0  0  0  0  0  0  0
   -3.6390   -1.1690   -0.7880 O   0  0  0  0  0  0  0  0  0  0  0  0
   -4.5370   -0.5900    0.1740 C   0  0  0  0  0  0  0  0  0  0  0  0
   -4.0940    0.7690    0.5140 C   0  0  0  0  0  0  0  0  0  0  0  0
   -3.7690    1.8200    0.7870 N   0  0  0  0  0  0  0  0  0  0  0  0
   -0.0040   -0.4020   -0.2500 C   0  0  0  0  0  0  0  0  0  0  0  0
    0.4280   -1.3660    0.4760 O   0  0  0  0  0  0  0  0  0  0  0  0
  1  2  1  0
  2  3  1  0
  3  4  2  3
  4  5  1  0
  5  6  2  0
  5 15  1  0
  6  7  1  0
  7  8  1  0
  8  9  2  3
  8 15  1  0
  9 10  1  0
  9 11  1  0
 11 12  1  0
 12 13  1  0
 13 14  3  0
 15 16  2  0
M  END
