
     RDKit          3D

 16 17  0  0  0  0  0  0  0  0999 V2000
   -3.4730   -0.3570   -0.9330 C   0  0  0  0  0  0  0  0  0  0  0  0
   -2.6180   -0.0030    0.2820 C   0  0  2  0  0  0  0  0  0  0  0  0
   -3.3340    1.0890    1.0990 C   0  0  0  0  0  0  0  0  0  0  0  0
   -1.3830    0.5780   -0.2360 C   0  0  0  0  0  0  0  0  0  0  0  0
   -0.1870   -0.0050   -0.0780 C   0  0  0  0  0  0  0  0  0  0  0  0
    0.9910    0.6400   -0.6250 C   0  0  0  0  0  0  0  0  0  0  0  0
    2.2170    0.2850   -0.6430 C   0  0  0  0  0  0  0  0  0  0  0  0
    3.4900    1.4160   -1.4490 S   0  0  0  0  0  0  0  0  0  0  0  0
    4.8170    0.8790   -0.2920 C   0  0  0  0  0  0  0  0  0  0  0  0
    4.3030   -0.3340    0.2800 N   0  0  0  0  0  0  0  0  0  0  0  0
    3.0870   -0.7870   -0.2810 C   0  0  0  0  0  0  0  0  0  0  0  0
    2.7970   -1.9940   -0.4510 O   0  0  0  0  0  0  0  0  0  0  0  0
   -0.0810   -1.1980    0.6590 N   0  0  0  0  0  0  0  0  0  0  0  0
   -1.2640   -1.7900    1.2380 C   0  0  0  0  0  0  0  0  0  0  0  0
   -1.1500   -2.8610    1.8960 O   0  0  0  0  0  0  0  0  0  0  0  0
   -2.4660   -1.1580    1.0460 O   0  0  0  0  0  0  0  0  0  0  0  0
  2  1  1  6
  2  3  1  0
  2  4  1  0
  2 16  1  0
  4  5  2  0
  5  6  1  0
  5 13  1  0
  6  7  2  3
  7  8  1  0
  7 11  1  0
  8  9  1  0
  9 10  1  0
 10 11  1  0
 11 12  2  0
 13 14  1  0
 14 15  2  0
 14 16  1  0
M  END
