
     RDKit          3D

 16 17  0  0  0  0  0  0  0  0999 V2000
   -4.1100   -1.6610    2.6450 O   0  0  0  0  0  0  0  0  0  0  0  0
   -3.8570   -1.1910    1.5120 C   0  0  0  0  0  0  0  0  0  0  0  0
   -4.6330   -1.2480    0.3890 N   0  0  0  0  0  0  0  0  0  0  0  0
   -3.9640   -0.6100   -0.6030 C   0  0  0  0  0  0  0  0  0  0  0  0
   -2.7580   -0.1530   -0.0840 C   0  0  0  0  0  0  0  0  0  0  0  0
   -1.4640    0.7550   -0.9170 S   0  0  0  0  0  0  0  0  0  0  0  0
   -0.3010   -0.4310   -1.6260 C   0  0  0  0  0  0  0  0  0  0  0  0
    0.8300    0.2460   -2.3520 C   0  0  0  0  0  0  0  0  0  0  0  0
    1.5940    1.0910   -1.5300 O   0  0  0  0  0  0  0  0  0  0  0  0
    2.2730    0.6440   -0.4060 C   0  0  0  0  0  0  0  0  0  0  0  0
    1.7630    0.8940    0.7880 C   0  0  0  0  0  0  0  0  0  0  0  0
    2.4000    0.4660    2.0590 C   0  0  0  0  0  0  0  0  0  0  0  0
    3.5980   -0.2310    1.8760 O   0  0  0  0  0  0  0  0  0  0  0  0
    4.1230   -0.4870    0.6250 C   0  0  0  0  0  0  0  0  0  0  0  0
    3.5300   -0.0920   -0.4750 C   0  0  0  0  0  0  0  0  0  0  0  0
   -2.7280   -0.5270    1.2090 N   0  0  0  0  0  0  0  0  0  0  0  0
  1  2  2  0
  2  3  1  0
  2 16  1  0
  3  4  1  0
  4  5  2  0
  5  6  1  0
  5 16  1  0
  6  7  1  0
  7  8  1  0
  8  9  1  0
  9 10  1  0
 10 11  2  0
 10 15  1  0
 11 12  1  0
 12 13  1  0
 13 14  1  0
 14 15  2  0
M  END
