
     RDKit          3D

 16 17  0  0  0  0  0  0  0  0999 V2000
    1.8680    2.0350    0.2450 C   0  0  0  0  0  0  0  0  0  0  0  0
    0.4670    1.5120    0.1220 C   0  0  0  0  0  0  0  0  0  0  0  0
    0.3320    0.2260   -0.0320 C   0  0  0  0  0  0  0  0  0  0  0  0
    1.4060   -0.7410   -0.0960 C   0  0  0  0  0  0  0  0  0  0  0  0
    2.8240   -0.5210    0.0380 C   0  0  0  0  0  0  0  0  0  0  0  0
    3.3810   -1.8600   -0.1350 O   0  0  0  0  0  0  0  0  0  0  0  0
   -1.0320   -0.3640   -0.1410 C   0  0  0  0  0  0  0  0  0  0  0  0
   -2.1760    0.3690   -0.0870 C   0  0  0  0  0  0  0  0  0  0  0  0
   -3.3950   -0.2080   -0.2060 N   0  0  0  0  0  0  0  0  0  0  0  0
   -3.5100   -1.5260   -0.3820 C   0  0  0  0  0  0  0  0  0  0  0  0
   -4.6540   -2.0810   -0.4960 O   0  0  0  0  0  0  0  0  0  0  0  0
   -2.4260   -2.3090   -0.4450 N   0  0  0  0  0  0  0  0  0  0  0  0
   -1.2080   -1.7210   -0.3240 C   0  0  0  0  0  0  0  0  0  0  0  0
   -0.2540   -2.5080   -0.3920 O   0  0  0  0  0  0  0  0  0  0  0  0
   -2.2440    2.1200    0.1570 S   0  0  0  0  0  0  0  0  0  0  0  0
   -0.5430    2.5870    0.1870 C   0  0  0  0  0  0  0  0  0  0  0  0
  1  2  1  0
  2  3  2  0
  2 16  1  0
  3  4  1  0
  3  7  1  0
  4  5  1  0
  5  6  1  0
  7  8  2  0
  7 13  1  0
  8  9  1  0
  8 15  1  0
  9 10  1  0
 10 11  2  0
 10 12  1  0
 12 13  1  0
 13 14  2  0
 15 16  1  0
M  END
