
     RDKit          3D

 16 17  0  0  0  0  0  0  0  0999 V2000
    1.7540    0.6710   -1.8720 O   0  0  0  0  0  0  0  0  0  0  0  0
    2.2180    0.0620   -0.8580 C   0  0  0  0  0  0  0  0  0  0  0  0
    3.4640   -0.5500   -1.0880 N   0  0  0  0  0  0  0  0  0  0  0  0
    4.3830   -1.1030   -0.1410 C   0  0  0  0  0  0  0  0  0  0  0  0
    4.6350   -0.0320    0.9040 C   0  0  0  0  0  0  0  0  0  0  0  0
    3.4300   -0.2910    2.2170 S   0  0  0  0  0  0  0  0  0  0  0  0
    1.7740    0.0050    1.5540 C   0  0  0  0  0  0  0  0  0  0  0  0
    1.3410    0.1370    0.3340 C   0  0  0  0  0  0  0  0  0  0  0  0
   -0.0110    0.3590    0.0230 N   0  0  0  0  0  0  0  0  0  0  0  0
   -1.1120    0.4400    0.9070 C   0  0  0  0  0  0  0  0  0  0  0  0
   -0.9510    0.3090    2.1170 O   0  0  0  0  0  0  0  0  0  0  0  0
   -2.4540    0.6900    0.2910 C   0  0  1  0  0  0  0  0  0  0  0  0
   -2.8720   -0.5000   -0.5540 C   0  0  0  0  0  0  0  0  0  0  0  0
   -4.3730   -0.2290   -0.6830 C   0  0  0  0  0  0  0  0  0  0  0  0
   -4.6040    0.7730    0.4220 C   0  0  0  0  0  0  0  0  0  0  0  0
   -3.4550    0.7520    1.2230 O   0  0  0  0  0  0  0  0  0  0  0  0
  1  2  2  0
  2  3  1  0
  2  8  1  0
  3  4  1  0
  4  5  1  0
  5  6  1  0
  6  7  1  0
  7  8  2  0
  8  9  1  0
  9 10  1  0
 10 11  2  0
 12 10  1  1
 12 13  1  0
 12 16  1  0
 13 14  1  0
 14 15  1  0
 15 16  1  0
M  END
