
     RDKit          3D

 16 17  0  0  0  0  0  0  0  0999 V2000
   -1.8330    3.4400   -0.4630 C   0  0  0  0  0  0  0  0  0  0  0  0
   -2.0660    2.0730   -0.3170 O   0  0  0  0  0  0  0  0  0  0  0  0
   -1.0430    1.1530   -0.1410 C   0  0  0  0  0  0  0  0  0  0  0  0
    0.2550    1.5950   -0.1080 C   0  0  0  0  0  0  0  0  0  0  0  0
    1.2890    0.6970    0.0660 C   0  0  0  0  0  0  0  0  0  0  0  0
    1.0160   -0.6430    0.2060 C   0  0  0  0  0  0  0  0  0  0  0  0
   -0.2990   -1.0830    0.1710 C   0  0  0  0  0  0  0  0  0  0  0  0
   -1.3490   -0.2130   -0.0010 C   0  0  0  0  0  0  0  0  0  0  0  0
   -2.7000   -0.6070   -0.0440 N   0  0  0  0  0  0  0  0  0  0  0  0
   -3.2390   -1.8900    0.0710 C   0  0  0  0  0  0  0  0  0  0  0  0
   -2.4780   -3.0470    0.2580 N   0  0  0  0  0  0  0  0  0  0  0  0
   -4.8960   -2.0710   -0.0170 S   0  0  0  0  0  0  0  0  0  0  0  0
    2.2100   -1.3420    0.3670 O   0  0  0  0  0  0  0  0  0  0  0  0
    3.2620   -0.4670   -0.0530 C   0  0  2  0  0  0  0  0  0  0  0  0
    4.4720   -0.6970    0.7950 C   0  0  0  0  0  0  0  0  0  0  0  0
    2.6760    0.8060    0.1450 O   0  0  0  0  0  0  0  0  0  0  0  0
  1  2  1  0
  2  3  1  0
  3  4  2  0
  3  8  1  0
  4  5  1  0
  5  6  2  0
  5 16  1  0
  6  7  1  0
  6 13  1  0
  7  8  2  0
  8  9  1  0
  9 10  1  0
 10 11  1  0
 10 12  2  0
 13 14  1  0
 14 15  1  1
 14 16  1  0
M  END
