
     RDKit          3D

 34 36  0  0  0  0  0  0  0  0999 V2000
   -2.9480   -2.8010   -2.2510 C   0  0  0  0  0  0  0  0  0  0  0  0
   -1.7660   -1.9050   -2.5410 C   0  0  0  0  0  0  0  0  0  0  0  0
   -1.6640   -0.8450   -1.4980 C   0  0  0  0  0  0  0  0  0  0  0  0
   -2.4840   -0.6900   -0.4570 N   0  0  0  0  0  0  0  0  0  0  0  0
   -2.1100    0.3590    0.2840 C   0  0  0  0  0  0  0  0  0  0  0  0
   -2.7430    0.8740    1.5210 C   0  0  0  0  0  0  0  0  0  0  0  0
   -4.1970   -0.1370    1.9670 S   0  0  0  0  0  0  0  0  0  0  0  0
   -5.4280    0.1120    0.6890 C   0  0  2  0  0  0  0  0  0  0  0  0
   -5.8920    1.5650    0.7580 C   0  0  0  0  0  0  0  0  0  0  0  0
   -6.6240   -0.7750    0.8960 C   0  0  0  0  0  0  0  0  0  0  0  0
   -6.7040   -1.5870    1.8500 O   0  0  0  0  0  0  0  0  0  0  0  0
   -7.6810   -0.7060    0.0130 O   0  0  0  0  0  0  0  0  0  0  0  0
   -8.8570   -1.4770    0.0900 C   0  0  1  0  0  0  0  0  0  0  0  0
   -9.8940   -0.5720    0.3500 F   0  0  0  0  0  0  0  0  0  0  0  0
   -9.0930   -2.1330   -1.1000 F   0  0  0  0  0  0  0  0  0  0  0  0
   -0.9730    0.9160   -0.3200 C   0  0  0  0  0  0  0  0  0  0  0  0
   -0.2650    2.0950    0.1250 C   0  0  0  0  0  0  0  0  0  0  0  0
   -1.1170    3.3230    0.3190 C   0  0  0  0  0  0  0  0  0  0  0  0
    1.0180    2.1900    0.3670 C   0  0  0  0  0  0  0  0  0  0  0  0
    1.5770    3.4620    0.8050 N   0  0  0  0  0  0  0  0  0  0  0  0
    1.9600    1.0790    0.2930 C   0  0  0  0  0  0  0  0  0  0  0  0
    1.5200   -0.0410   -0.0020 O   0  0  0  0  0  0  0  0  0  0  0  0
    3.3270    1.2220    0.5370 N   0  0  0  0  0  0  0  0  0  0  0  0
    4.3400    0.2600    0.5040 C   0  0  0  0  0  0  0  0  0  0  0  0
    4.1290   -1.0480    0.2060 C   0  0  0  0  0  0  0  0  0  0  0  0
    5.1780   -1.9850    0.1840 C   0  0  0  0  0  0  0  0  0  0  0  0
    6.4530   -1.6010    0.4640 C   0  0  0  0  0  0  0  0  0  0  0  0
    6.6930   -0.2680    0.7710 C   0  0  0  0  0  0  0  0  0  0  0  0
    5.6630    0.6140    0.7860 C   0  0  0  0  0  0  0  0  0  0  0  0
    8.0100    0.0540    1.0450 O   0  0  0  0  0  0  0  0  0  0  0  0
    9.0870   -0.6550    0.4150 C   0  0  0  0  0  0  0  0  0  0  0  0
    8.8720   -2.1210    0.6220 C   0  0  0  0  0  0  0  0  0  0  0  0
    7.5250   -2.4560    0.4610 O   0  0  0  0  0  0  0  0  0  0  0  0
   -0.7530    0.1360   -1.4020 N   0  0  0  0  0  0  0  0  0  0  0  0
  1  2  1  0
  2  3  1  0
  3  4  2  0
  3 34  1  0
  4  5  1  0
  5  6  1  0
  5 16  2  0
  6  7  1  0
  7  8  1  0
  8  9  1  1
  8 10  1  0
 10 11  2  0
 10 12  1  0
 12 13  1  0
 13 14  1  6
 13 15  1  0
 16 17  1  0
 16 34  1  0
 17 18  1  0
 17 19  2  3
 19 20  1  0
 19 21  1  0
 21 22  2  0
 21 23  1  0
 23 24  1  0
 24 25  2  0
 24 29  1  0
 25 26  1  0
 26 27  2  0
 27 28  1  0
 27 33  1  0
 28 29  2  0
 28 30  1  0
 30 31  1  0
 31 32  1  0
 32 33  1  0
M  END
