
     RDKit          3D

 35 37  0  0  0  0  0  0  0  0999 V2000
    5.5370    1.9190   -0.2720 C   0  0  0  0  0  0  0  0  0  0  0  0
    4.8610    1.0500    0.4130 C   0  0  0  0  0  0  0  0  0  0  0  0
    5.6310   -0.0350    1.0940 C   0  0  0  0  0  0  0  0  0  0  0  0
    5.0340   -0.9520    1.7950 C   0  0  0  0  0  0  0  0  0  0  0  0
    3.6140   -0.9480    1.9350 C   0  0  0  0  0  0  0  0  0  0  0  0
    2.8020   -0.0150    1.3650 C   0  0  0  0  0  0  0  0  0  0  0  0
    1.0760   -0.1780    1.6480 S   0  0  1  0  0  0  0  0  0  0  0  0
    0.9690   -0.7960    3.1100 O   0  0  0  0  0  0  0  0  0  0  0  0
    0.5030    1.1920    1.8950 O   0  0  0  0  0  0  0  0  0  0  0  0
    0.3790   -1.1300    0.5570 N   0  0  0  0  0  0  0  0  0  0  0  0
   -0.6350   -1.0820   -0.3770 C   0  0  2  0  0  0  0  0  0  0  0  0
   -1.5240   -2.3520   -0.1510 C   0  0  0  0  0  0  0  0  0  0  0  0
   -2.0850   -2.3140    1.2170 C   0  0  0  0  0  0  0  0  0  0  0  0
   -1.8310   -1.3620    1.9960 O   0  0  0  0  0  0  0  0  0  0  0  0
   -2.9360   -3.3420    1.7160 N   0  0  0  0  0  0  0  0  0  0  0  0
   -3.4960   -3.3270    3.0450 C   0  0  1  0  0  0  0  0  0  0  0  0
   -4.3530   -4.5710    3.1990 C   0  0  0  0  0  0  0  0  0  0  0  0
   -2.4220   -3.4250    4.1110 C   0  0  0  0  0  0  0  0  0  0  0  0
   -4.2890   -2.0570    3.3130 C   0  0  0  0  0  0  0  0  0  0  0  0
   -0.1040   -1.2230   -1.8010 C   0  0  0  0  0  0  0  0  0  0  0  0
    0.4440   -2.4230   -2.2750 C   0  0  0  0  0  0  0  0  0  0  0  0
    0.9930   -2.1390   -3.4660 N   0  0  0  0  0  0  0  0  0  0  0  0
    0.8210   -0.8830   -3.7490 N   0  0  0  0  0  0  0  0  0  0  0  0
    0.1340   -0.2720   -2.7340 C   0  0  0  0  0  0  0  0  0  0  0  0
   -0.3060    1.1250   -2.8160 C   0  0  0  0  0  0  0  0  0  0  0  0
   -0.3940    2.0230   -1.8070 C   0  0  0  0  0  0  0  0  0  0  0  0
   -0.8090    3.3460   -1.9970 C   0  0  0  0  0  0  0  0  0  0  0  0
   -1.1550    3.7940   -3.2520 C   0  0  0  0  0  0  0  0  0  0  0  0
   -1.5840    5.1420   -3.4670 N   0  0  0  0  0  0  0  0  0  0  0  0
   -1.6220    6.0220   -2.3100 C   0  0  0  0  0  0  0  0  0  0  0  0
   -1.0760    2.9050   -4.2930 C   0  0  0  0  0  0  0  0  0  0  0  0
   -0.6670    1.6120   -4.0930 C   0  0  0  0  0  0  0  0  0  0  0  0
    3.4240    1.0400    0.5660 C   0  0  0  0  0  0  0  0  0  0  0  0
    2.6470    1.8980    0.0670 N   0  0  0  0  0  0  0  0  0  0  0  0
    2.9420    3.0380   -0.7320 C   0  0  0  0  0  0  0  0  0  0  0  0
  1  2  2  0
  2  3  1  0
  2 33  1  0
  3  4  2  0
  4  5  1  0
  5  6  2  0
  6  7  1  0
  6 33  1  0
  7  8  2  0
  7  9  2  0
  7 10  1  6
 10 11  1  0
 11 12  1  1
 11 20  1  0
 12 13  1  0
 13 14  2  0
 13 15  1  0
 15 16  1  0
 16 17  1  6
 16 18  1  0
 16 19  1  0
 20 21  2  0
 20 24  1  0
 21 22  1  0
 22 23  1  0
 23 24  2  0
 24 25  1  0
 25 26  2  0
 25 32  1  0
 26 27  1  0
 27 28  2  0
 28 29  1  0
 28 31  1  0
 29 30  1  0
 31 32  2  0
 33 34  2  3
 34 35  1  0
M  CHG  1  34   1
M  END
