
     RDKit          3D

 34 36  0  0  0  0  0  0  0  0999 V2000
  -10.8220   -0.0950    0.9580 C   0  0  0  0  0  0  0  0  0  0  0  0
   -9.9920   -0.4260   -0.1390 O   0  0  0  0  0  0  0  0  0  0  0  0
   -8.6040   -0.3470    0.0220 C   0  0  0  0  0  0  0  0  0  0  0  0
   -8.0460    0.0410    1.2170 C   0  0  0  0  0  0  0  0  0  0  0  0
   -6.6610    0.1190    1.3740 C   0  0  0  0  0  0  0  0  0  0  0  0
   -5.8090   -0.1910    0.3360 C   0  0  0  0  0  0  0  0  0  0  0  0
   -4.3820   -0.0990    0.5220 N   0  0  0  0  0  0  0  0  0  0  0  0
   -3.8210    0.3050    1.7610 C   0  0  0  0  0  0  0  0  0  0  0  0
   -2.3440    0.3810    1.7970 C   0  0  0  0  0  0  0  0  0  0  0  0
   -1.8580    0.7470    2.9250 O   0  0  0  0  0  0  0  0  0  0  0  0
   -1.4980    0.0920    0.7230 N   0  0  0  0  0  0  0  0  0  0  0  0
   -0.0700    0.1710    0.7660 C   0  0  0  0  0  0  0  0  0  0  0  0
    0.6760    0.5220    1.8300 C   0  0  0  0  0  0  0  0  0  0  0  0
    2.0410    0.5760    1.7970 C   0  0  0  0  0  0  0  0  0  0  0  0
    2.6880    0.9530    2.9600 F   0  0  0  0  0  0  0  0  0  0  0  0
    2.7430    0.2700    0.6540 C   0  0  0  0  0  0  0  0  0  0  0  0
    4.1820    0.3620    0.7300 N   0  0  0  0  0  0  0  0  0  0  0  0
    5.0930    0.1130   -0.2790 C   0  0  0  0  0  0  0  0  0  0  0  0
    4.5720   -0.2380   -1.4060 O   0  0  0  0  0  0  0  0  0  0  0  0
    6.5500    0.1820   -0.2830 C   0  0  0  0  0  0  0  0  0  0  0  0
    7.1250    0.5270    0.8340 C   0  0  0  0  0  0  0  0  0  0  0  0
    6.3790    0.8020    1.9260 F   0  0  0  0  0  0  0  0  0  0  0  0
    8.9070    0.6930    1.1230 S   0  0  0  0  0  0  0  0  0  0  0  0
    9.7680   -0.2420   -0.1250 C   0  0  0  0  0  0  0  0  0  0  0  0
    9.6490    0.3740   -1.4900 C   0  0  0  0  0  0  0  0  0  0  0  0
    8.3900    0.2320   -2.1020 N   0  0  0  0  0  0  0  0  0  0  0  0
    7.1420   -0.1700   -1.6030 C   0  0  0  0  0  0  0  0  0  0  0  0
    6.4210   -0.9190   -2.3480 O   0  0  0  0  0  0  0  0  0  0  0  0
    2.0320   -0.0890   -0.4410 C   0  0  0  0  0  0  0  0  0  0  0  0
    0.6430   -0.1430   -0.4020 C   0  0  0  0  0  0  0  0  0  0  0  0
   -0.0560   -0.5140   -1.5400 O   0  0  0  0  0  0  0  0  0  0  0  0
    0.6170   -0.8360   -2.7290 C   0  0  0  0  0  0  0  0  0  0  0  0
   -6.3710   -0.5790   -0.8580 C   0  0  0  0  0  0  0  0  0  0  0  0
   -7.7420   -0.6560   -1.0130 C   0  0  0  0  0  0  0  0  0  0  0  0
  1  2  1  0
  2  3  1  0
  3  4  2  0
  3 34  1  0
  4  5  1  0
  5  6  2  0
  6  7  1  0
  6 33  1  0
  7  8  1  0
  8  9  1  0
  9 10  2  0
  9 11  1  0
 11 12  1  0
 12 13  2  0
 12 30  1  0
 13 14  1  0
 14 15  1  0
 14 16  2  0
 16 17  1  0
 16 29  1  0
 17 18  1  0
 18 19  2  0
 18 20  1  0
 20 21  2  0
 20 27  1  0
 21 22  1  0
 21 23  1  0
 23 24  1  0
 24 25  1  0
 25 26  1  0
 26 27  1  0
 27 28  2  0
 29 30  2  0
 30 31  1  0
 31 32  1  0
 33 34  2  0
M  END
