
     RDKit          3D

 34 34  0  0  0  0  0  0  0  0999 V2000
   -2.9860    0.9630    3.9250 C   0  0  0  0  0  0  0  0  0  0  0  0
   -2.9820    0.0240    2.7740 C   0  0  0  0  0  0  0  0  0  0  0  0
   -2.0800   -0.8610    2.6580 O   0  0  0  0  0  0  0  0  0  0  0  0
   -3.9970    0.1050    1.7810 N   0  0  0  0  0  0  0  0  0  0  0  0
   -4.0550   -0.7860    0.6220 C   0  0  1  0  0  0  0  0  0  0  0  0
   -5.2780   -1.6410    0.6890 C   0  0  1  0  0  0  0  0  0  0  0  0
   -5.7330   -1.6270    2.0100 O   0  0  0  0  0  0  0  0  0  0  0  0
   -6.3230   -1.2400   -0.1000 O   0  0  0  0  0  0  0  0  0  0  0  0
   -6.0340   -0.9160   -1.3820 C   0  0  2  0  0  0  0  0  0  0  0  0
   -5.6350   -2.0650   -2.2700 C   0  0  0  0  0  0  0  0  0  0  0  0
   -4.5270   -2.7590   -1.8710 O   0  0  0  0  0  0  0  0  0  0  0  0
   -5.1280    0.2590   -1.4210 C   0  0  1  0  0  0  0  0  0  0  0  0
   -5.8140    1.3630   -0.9200 O   0  0  0  0  0  0  0  0  0  0  0  0
   -3.8700   -0.0300   -0.6480 C   0  0  2  0  0  0  0  0  0  0  0  0
   -2.9880   -0.6630   -1.5100 O   0  0  0  0  0  0  0  0  0  0  0  0
   -1.8720    0.0550   -1.8260 C   0  0  2  0  0  0  0  0  0  0  0  0
   -1.6640    0.3210   -3.2800 C   0  0  0  0  0  0  0  0  0  0  0  0
   -0.6250   -0.6260   -1.3230 C   0  0  0  0  0  0  0  0  0  0  0  0
   -0.6750   -1.7160   -0.7090 O   0  0  0  0  0  0  0  0  0  0  0  0
    0.6580   -0.0490   -1.5320 N   0  0  0  0  0  0  0  0  0  0  0  0
    1.8740   -0.6610   -1.0710 C   0  0  1  0  0  0  0  0  0  0  0  0
    2.7470   -0.9330   -2.2790 C   0  0  0  0  0  0  0  0  0  0  0  0
    2.6580    0.2730   -0.1950 C   0  0  0  0  0  0  0  0  0  0  0  0
    2.2010    1.4170    0.0310 O   0  0  0  0  0  0  0  0  0  0  0  0
    3.8950   -0.1260    0.3700 N   0  0  0  0  0  0  0  0  0  0  0  0
    4.6880    0.7690    1.2340 C   0  0  2  0  0  0  0  0  0  0  0  0
    6.0220    0.8910    0.5470 C   0  0  0  0  0  0  0  0  0  0  0  0
    7.0170    1.7610    1.2290 C   0  0  0  0  0  0  0  0  0  0  0  0
    8.2600    1.7480    0.3710 C   0  0  0  0  0  0  0  0  0  0  0  0
    9.3590    2.5310    0.8200 N   0  0  0  0  0  0  0  0  0  0  0  0
    8.3360    1.0840   -0.6860 O   0  0  0  0  0  0  0  0  0  0  0  0
    4.8790    0.0070    2.4940 C   0  0  0  0  0  0  0  0  0  0  0  0
    4.4460   -1.1650    2.6810 O   0  0  0  0  0  0  0  0  0  0  0  0
    5.5820    0.6420    3.5250 O   0  0  0  0  0  0  0  0  0  0  0  0
  1  2  1  0
  2  3  2  0
  2  4  1  0
  5  4  1  1
  5  6  1  0
  5 14  1  0
  6  7  1  1
  6  8  1  0
  8  9  1  0
  9 10  1  1
  9 12  1  0
 10 11  1  0
 12 13  1  1
 12 14  1  0
 14 15  1  6
 15 16  1  0
 16 17  1  6
 16 18  1  0
 18 19  2  0
 18 20  1  0
 20 21  1  0
 21 22  1  6
 21 23  1  0
 23 24  2  0
 23 25  1  0
 25 26  1  0
 26 27  1  6
 26 32  1  0
 27 28  1  0
 28 29  1  0
 29 30  1  0
 29 31  2  0
 32 33  2  0
 32 34  1  0
M  END
