
     RDKit          3D

 34 36  0  0  0  0  0  0  0  0999 V2000
   -9.6480    1.5560   -0.6090 C   0  0  0  0  0  0  0  0  0  0  0  0
   -8.5800    0.6140   -0.1820 C   0  0  0  0  0  0  0  0  0  0  0  0
   -8.1110    0.5750    1.1340 C   0  0  0  0  0  0  0  0  0  0  0  0
   -7.1170   -0.3300    1.4440 C   0  0  0  0  0  0  0  0  0  0  0  0
   -6.5930   -0.3990    2.8410 C   0  0  0  0  0  0  0  0  0  0  0  0
   -6.5830   -1.1780    0.5210 C   0  0  0  0  0  0  0  0  0  0  0  0
   -5.5920   -2.1030    0.7600 O   0  0  0  0  0  0  0  0  0  0  0  0
   -4.2170   -1.7840    0.6170 C   0  0  0  0  0  0  0  0  0  0  0  0
   -3.2850   -1.4290    1.2740 N   0  0  0  0  0  0  0  0  0  0  0  0
   -2.1020   -1.2190    0.7980 N   0  0  0  0  0  0  0  0  0  0  0  0
   -1.7510   -1.3360   -0.3230 C   0  0  0  0  0  0  0  0  0  0  0  0
   -0.6330   -1.2250   -1.2510 N   0  0  0  0  0  0  0  0  0  0  0  0
    0.5830   -0.8190   -0.7080 C   0  0  0  0  0  0  0  0  0  0  0  0
    0.6380   -0.5750    0.5390 O   0  0  0  0  0  0  0  0  0  0  0  0
    1.8100   -0.6590   -1.5200 C   0  0  0  0  0  0  0  0  0  0  0  0
    1.7850   -0.8950   -2.8570 C   0  0  0  0  0  0  0  0  0  0  0  0
    2.9640   -0.7280   -3.5550 C   0  0  0  0  0  0  0  0  0  0  0  0
    4.1240   -0.3390   -2.9310 C   0  0  0  0  0  0  0  0  0  0  0  0
    4.1620   -0.0930   -1.5520 C   0  0  0  0  0  0  0  0  0  0  0  0
    5.3890    0.3090   -0.9810 N   0  0  0  0  0  0  0  0  0  0  0  0
    5.6590    0.5230    0.3870 C   0  0  0  0  0  0  0  0  0  0  0  0
    4.7570    0.3570    1.2320 O   0  0  0  0  0  0  0  0  0  0  0  0
    7.0280    0.9520    0.8330 C   0  0  0  0  0  0  0  0  0  0  0  0
    8.0760    1.1430   -0.1630 C   0  0  0  0  0  0  0  0  0  0  0  0
    8.3080   -0.0610   -0.8450 O   0  0  0  0  0  0  0  0  0  0  0  0
    7.1830    1.1320    2.1160 C   0  0  0  0  0  0  0  0  0  0  0  0
    6.0410    0.9040    2.9470 O   0  0  0  0  0  0  0  0  0  0  0  0
    8.4270    1.5470    2.7770 C   0  0  0  0  0  0  0  0  0  0  0  0
    8.8210    0.5600    3.6900 F   0  0  0  0  0  0  0  0  0  0  0  0
    2.9730   -0.2690   -0.8940 C   0  0  0  0  0  0  0  0  0  0  0  0
   -3.4050   -1.8910   -1.0810 S   0  0  0  0  0  0  0  0  0  0  0  0
   -7.0670   -1.1220   -0.7920 C   0  0  0  0  0  0  0  0  0  0  0  0
   -6.5780   -1.9390   -1.7630 F   0  0  0  0  0  0  0  0  0  0  0  0
   -8.0600   -0.2320   -1.1460 C   0  0  0  0  0  0  0  0  0  0  0  0
  1  2  1  0
  2  3  2  0
  2 34  1  0
  3  4  1  0
  4  5  1  0
  4  6  2  0
  6  7  1  0
  6 32  1  0
  7  8  1  0
  8  9  2  0
  8 31  1  0
  9 10  1  0
 10 11  2  0
 11 12  1  0
 11 31  1  0
 12 13  1  0
 13 14  2  0
 13 15  1  0
 15 16  2  0
 15 30  1  0
 16 17  1  0
 17 18  2  0
 18 19  1  0
 19 20  1  0
 19 30  2  0
 20 21  1  0
 21 22  2  0
 21 23  1  0
 23 24  1  0
 23 26  2  3
 24 25  1  0
 26 27  1  0
 26 28  1  0
 28 29  1  0
 32 33  1  0
 32 34  2  0
M  END
