
     RDKit          3D

 35 38  0  0  0  0  0  0  0  0999 V2000
    8.3040    0.1170    1.6040 C   0  0  0  0  0  0  0  0  0  0  0  0
    7.7690    1.5030    1.7680 C   0  0  1  0  0  0  0  0  0  0  0  0
    8.8820    2.3490    2.4150 C   0  0  0  0  0  0  0  0  0  0  0  0
    7.3710    2.2180    0.5270 C   0  0  0  0  0  0  0  0  0  0  0  0
    6.2730    1.6190   -0.2690 C   0  0  0  0  0  0  0  0  0  0  0  0
    6.4710    0.2450   -0.8060 C   0  0  0  0  0  0  0  0  0  0  0  0
    5.3260   -0.1790   -1.6340 N   0  0  0  0  0  0  0  0  0  0  0  0
    4.0150   -0.2950   -1.0880 C   0  0  0  0  0  0  0  0  0  0  0  0
    3.8210   -0.0420    0.1070 O   0  0  0  0  0  0  0  0  0  0  0  0
    2.9440   -0.6940   -1.9000 N   0  0  0  0  0  0  0  0  0  0  0  0
    1.5910   -0.8560   -1.5290 C   0  0  0  0  0  0  0  0  0  0  0  0
    0.6880   -1.3430   -2.4840 C   0  0  0  0  0  0  0  0  0  0  0  0
   -0.6420   -1.5130   -2.1720 C   0  0  0  0  0  0  0  0  0  0  0  0
   -1.1630   -1.2240   -0.9310 C   0  0  0  0  0  0  0  0  0  0  0  0
   -2.5070   -1.3990   -0.6280 O   0  0  0  0  0  0  0  0  0  0  0  0
   -2.9910   -2.6620   -0.2160 C   0  0  0  0  0  0  0  0  0  0  0  0
   -2.1310   -3.7270   -0.1110 C   0  0  0  0  0  0  0  0  0  0  0  0
   -2.5840   -4.9660    0.2890 C   0  0  0  0  0  0  0  0  0  0  0  0
   -3.9100   -5.1770    0.5960 C   0  0  0  0  0  0  0  0  0  0  0  0
   -4.7690   -4.0750    0.4810 C   0  0  0  0  0  0  0  0  0  0  0  0
   -4.3440   -2.8480    0.0900 C   0  0  0  0  0  0  0  0  0  0  0  0
   -5.1770   -1.6870   -0.0450 N   0  0  0  0  0  0  0  0  0  0  0  0
   -6.5520   -1.6070    0.1970 C   0  0  0  0  0  0  0  0  0  0  0  0
   -7.1600   -2.6410    0.5580 O   0  0  0  0  0  0  0  0  0  0  0  0
   -7.3510   -0.3340    0.0410 C   0  0  0  0  0  0  0  0  0  0  0  0
   -8.7110   -0.5090   -0.2030 N   0  0  0  0  0  0  0  0  0  0  0  0
   -9.3600    1.1800   -0.3140 S   0  0  0  0  0  0  0  0  0  0  0  0
   -7.7880    1.9360   -0.0300 C   0  0  0  0  0  0  0  0  0  0  0  0
   -6.9260    0.9280    0.1230 C   0  0  0  0  0  0  0  0  0  0  0  0
   -5.4980    1.3670    0.4440 C   0  0  0  0  0  0  0  0  0  0  0  0
   -5.6100    2.7400    1.0990 C   0  0  0  0  0  0  0  0  0  0  0  0
   -6.1370    3.6590    0.0950 N   0  0  0  0  0  0  0  0  0  0  0  0
   -7.5270    3.4110    0.0150 C   0  0  0  0  0  0  0  0  0  0  0  0
   -0.2880   -0.7590   -0.0290 N   0  0  0  0  0  0  0  0  0  0  0  0
    1.0420   -0.5790   -0.3080 C   0  0  0  0  0  0  0  0  0  0  0  0
  2  1  1  6
  2  3  1  0
  2  4  1  0
  4  5  1  0
  5  6  1  0
  6  7  1  0
  7  8  1  0
  8  9  2  0
  8 10  1  0
 10 11  1  0
 11 12  2  0
 11 35  1  0
 12 13  1  0
 13 14  2  0
 14 15  1  0
 14 34  1  0
 15 16  1  0
 16 17  2  0
 16 21  1  0
 17 18  1  0
 18 19  2  0
 19 20  1  0
 20 21  2  0
 21 22  1  0
 22 23  1  0
 23 24  2  0
 23 25  1  0
 25 26  2  0
 25 29  1  0
 26 27  1  0
 27 28  1  0
 28 29  2  0
 28 33  1  0
 29 30  1  0
 30 31  1  0
 31 32  1  0
 32 33  1  0
 34 35  2  0
M  CHG  1  32   1
M  END
