
     RDKit          3D

 35 38  0  0  0  0  0  0  0  0999 V2000
   -6.4750   -0.1770   -2.1500 C   0  0  0  0  0  0  0  0  0  0  0  0
   -6.9730   -0.8940   -1.1820 C   0  0  0  0  0  0  0  0  0  0  0  0
   -7.8550   -2.0450   -1.5060 C   0  0  0  0  0  0  0  0  0  0  0  0
   -8.5400   -2.5650   -0.3520 N   0  0  0  0  0  0  0  0  0  0  0  0
   -7.6470   -2.7590    0.7670 C   0  0  0  0  0  0  0  0  0  0  0  0
   -7.0070   -1.4700    1.1200 C   0  0  0  0  0  0  0  0  0  0  0  0
   -6.6820   -0.5770    0.2040 C   0  0  0  0  0  0  0  0  0  0  0  0
   -6.0300    0.6810    0.6310 C   0  0  2  0  0  0  0  0  0  0  0  0
   -6.6620    1.9330    0.2060 C   0  0  0  0  0  0  0  0  0  0  0  0
   -4.6090    0.5530    0.4940 N   0  0  0  0  0  0  0  0  0  0  0  0
   -3.6870    0.4750    1.5540 C   0  0  0  0  0  0  0  0  0  0  0  0
   -4.1240    0.5200    2.7240 O   0  0  0  0  0  0  0  0  0  0  0  0
   -2.3080    0.3500    1.2870 N   0  0  0  0  0  0  0  0  0  0  0  0
   -1.2730    0.2570    2.3060 C   0  0  0  0  0  0  0  0  0  0  0  0
   -0.2940   -0.8450    1.8800 C   0  0  0  0  0  0  0  0  0  0  0  0
    0.4860   -0.2210    0.7090 C   0  0  0  0  0  0  0  0  0  0  0  0
    1.7130   -0.1370    0.4880 N   0  0  0  0  0  0  0  0  0  0  0  0
    2.2380    0.4480   -0.5980 C   0  0  0  0  0  0  0  0  0  0  0  0
    3.6160    0.6200   -0.9880 N   0  0  0  0  0  0  0  0  0  0  0  0
    3.9570    1.2760   -2.1840 C   0  0  0  0  0  0  0  0  0  0  0  0
    2.9800    1.7050   -2.8890 O   0  0  0  0  0  0  0  0  0  0  0  0
    5.2990    1.4690   -2.6130 N   0  0  0  0  0  0  0  0  0  0  0  0
    5.5520    2.1610   -3.8590 C   0  0  0  0  0  0  0  0  0  0  0  0
    6.4230    0.9910   -1.8430 C   0  0  0  0  0  0  0  0  0  0  0  0
    6.9020    2.0260   -0.8470 C   0  0  0  0  0  0  0  0  0  0  0  0
    8.0820    1.5000   -0.0520 C   0  0  0  0  0  0  0  0  0  0  0  0
    7.6510    0.2810    0.6720 C   0  0  0  0  0  0  0  0  0  0  0  0
    7.7000   -1.0210    0.2560 C   0  0  0  0  0  0  0  0  0  0  0  0
    7.1940   -1.7860    1.2590 C   0  0  0  0  0  0  0  0  0  0  0  0
    6.8430   -0.9230    2.2770 C   0  0  0  0  0  0  0  0  0  0  0  0
    6.2450   -1.3120    3.5810 C   0  0  0  0  0  0  0  0  0  0  0  0
    7.1330    0.2700    1.8760 O   0  0  0  0  0  0  0  0  0  0  0  0
    0.7900    0.9550   -1.4310 S   0  0  0  0  0  0  0  0  0  0  0  0
   -0.4310    0.3220   -0.2200 C   0  0  0  0  0  0  0  0  0  0  0  0
   -1.8370    0.3060   -0.1030 C   0  0  0  0  0  0  0  0  0  0  0  0
  1  2  2  0
  2  3  1  0
  2  7  1  0
  3  4  1  0
  4  5  1  0
  5  6  1  0
  6  7  2  0
  7  8  1  0
  8  9  1  6
  8 10  1  0
 10 11  1  0
 11 12  2  0
 11 13  1  0
 13 14  1  0
 13 35  1  0
 14 15  1  0
 15 16  1  0
 16 17  1  0
 16 34  2  0
 17 18  2  0
 18 19  1  0
 18 33  1  0
 19 20  1  0
 20 21  2  0
 20 22  1  0
 22 23  1  0
 22 24  1  0
 24 25  1  0
 25 26  1  0
 26 27  1  0
 27 28  2  0
 27 32  1  0
 28 29  1  0
 29 30  2  0
 30 31  1  0
 30 32  1  0
 33 34  1  0
 34 35  1  0
M  CHG  1   4   1
M  END
