
     RDKit          3D

 34 37  0  0  0  0  0  0  0  0999 V2000
    6.0450   -2.4510    0.4060 C   0  0  0  0  0  0  0  0  0  0  0  0
    6.3160   -0.9840    0.2180 C   0  0  0  0  0  0  0  0  0  0  0  0
    5.3490   -0.2130   -0.2680 C   0  0  0  0  0  0  0  0  0  0  0  0
    4.1520   -0.6420   -0.6050 O   0  0  0  0  0  0  0  0  0  0  0  0
    3.4290    0.3270   -1.0450 C   0  0  0  0  0  0  0  0  0  0  0  0
    2.0410    0.2220   -1.5100 C   0  0  0  0  0  0  0  0  0  0  0  0
    1.1400    0.4980   -0.4060 N   0  0  0  0  0  0  0  0  0  0  0  0
   -0.2200    0.2680   -0.9200 C   0  0  1  0  0  0  0  0  0  0  0  0
   -0.4330   -1.1590   -1.1040 C   0  0  0  0  0  0  0  0  0  0  0  0
   -1.7050   -1.7000   -0.5280 C   0  0  0  0  0  0  0  0  0  0  0  0
   -1.9300   -3.1380   -0.6990 C   0  0  0  0  0  0  0  0  0  0  0  0
   -0.9630   -3.8840   -1.3870 C   0  0  0  0  0  0  0  0  0  0  0  0
   -1.1550   -5.2420   -1.5550 C   0  0  0  0  0  0  0  0  0  0  0  0
   -2.2390   -5.8680   -1.0800 N   0  0  0  0  0  0  0  0  0  0  0  0
   -3.1740   -5.1820   -0.4210 C   0  0  0  0  0  0  0  0  0  0  0  0
   -3.0060   -3.7960   -0.2340 C   0  0  0  0  0  0  0  0  0  0  0  0
   -4.0140   -3.1790    0.4520 O   0  0  0  0  0  0  0  0  0  0  0  0
   -5.1360   -3.8710    0.9350 C   0  0  0  0  0  0  0  0  0  0  0  0
   -2.5230   -0.8870    0.0790 C   0  0  0  0  0  0  0  0  0  0  0  0
   -2.2750    0.5300    0.2350 N   0  0  0  0  0  0  0  0  0  0  0  0
   -1.2120    1.0490   -0.2300 C   0  0  0  0  0  0  0  0  0  0  0  0
   -1.0710    2.4820   -0.0260 N   0  0  0  0  0  0  0  0  0  0  0  0
   -2.1520    3.2830    0.4600 C   0  0  2  0  0  0  0  0  0  0  0  0
   -1.6810    4.7130    0.5450 C   0  0  0  0  0  0  0  0  0  0  0  0
   -2.8220    5.5240    1.1100 C   0  0  0  0  0  0  0  0  0  0  0  0
   -3.6400    4.3590    2.2040 S   0  0  1  0  0  0  0  0  0  0  0  0
   -3.5370    4.7610    3.6310 O   0  0  0  0  0  0  0  0  0  0  0  0
   -5.0570    4.1280    1.7530 O   0  0  0  0  0  0  0  0  0  0  0  0
   -2.6370    2.9070    1.8400 C   0  0  0  0  0  0  0  0  0  0  0  0
    4.1480    1.4970   -1.0190 C   0  0  0  0  0  0  0  0  0  0  0  0
    5.3950    1.1340   -0.5120 C   0  0  0  0  0  0  0  0  0  0  0  0
    6.3990    1.9690   -0.3220 C   0  0  0  0  0  0  0  0  0  0  0  0
    7.5890    1.6230    0.1620 F   0  0  0  0  0  0  0  0  0  0  0  0
    6.1910    3.6840   -0.7240 Cl  0  0  0  0  0  0  0  0  0  0  0  0
  1  2  1  0
  2  3  2  3
  3  4  1  0
  3 31  1  0
  4  5  1  0
  5  6  1  0
  5 30  2  0
  6  7  1  0
  8  7  1  1
  8  9  1  0
  8 21  1  0
  9 10  1  0
 10 11  1  0
 10 19  2  0
 11 12  2  0
 11 16  1  0
 12 13  1  0
 13 14  2  0
 14 15  1  0
 15 16  2  0
 16 17  1  0
 17 18  1  0
 19 20  1  0
 20 21  2  0
 21 22  1  0
 23 22  1  1
 23 24  1  0
 23 29  1  0
 24 25  1  0
 26 25  1  6
 26 27  2  0
 26 28  2  0
 26 29  1  0
 30 31  1  0
 31 32  2  3
 32 33  1  0
 32 34  1  0
M  CHG  1   7   1
M  END
