
     RDKit          3D

 30 31  0  0  0  0  0  0  0  0999 V2000
   -6.4520    1.6600   -1.9270 C   0  0  0  0  0  0  0  0  0  0  0  0
   -5.3840    1.4270   -1.0960 C   0  0  0  0  0  0  0  0  0  0  0  0
   -4.3950    2.5200   -1.1070 C   0  0  0  0  0  0  0  0  0  0  0  0
   -5.4080    0.1760   -0.4130 C   0  0  0  0  0  0  0  0  0  0  0  0
   -4.5400   -0.2780    0.4530 C   0  0  0  0  0  0  0  0  0  0  0  0
   -3.4120    0.4540    0.8230 N   0  0  0  0  0  0  0  0  0  0  0  0
   -2.4090    0.0360    1.7600 C   0  0  0  0  0  0  0  0  0  0  0  0
   -2.4300   -1.0270    2.3480 O   0  0  0  0  0  0  0  0  0  0  0  0
   -1.2800    1.0230    1.9930 C   0  0  0  0  0  0  0  0  0  0  0  0
   -0.1840    0.3800    3.2370 S   0  0  0  0  0  0  0  0  0  0  0  0
    0.7290   -1.0950    2.7670 C   0  0  0  0  0  0  0  0  0  0  0  0
    1.6760   -0.7420    1.6830 C   0  0  0  0  0  0  0  0  0  0  0  0
    1.3790   -1.0290    0.5130 O   0  0  0  0  0  0  0  0  0  0  0  0
    2.8720   -0.1150    1.8690 O   0  0  0  0  0  0  0  0  0  0  0  0
    3.7080    0.1770    0.8430 C   0  0  0  0  0  0  0  0  0  0  0  0
    4.7470   -0.7120    0.5900 C   0  0  0  0  0  0  0  0  0  0  0  0
    5.6620   -0.5110   -0.4370 C   0  0  0  0  0  0  0  0  0  0  0  0
    5.5810    0.5870   -1.2540 C   0  0  0  0  0  0  0  0  0  0  0  0
    6.4410    0.8660   -2.2880 O   0  0  0  0  0  0  0  0  0  0  0  0
    7.5180    0.0240   -2.5830 C   0  0  0  0  0  0  0  0  0  0  0  0
    8.5220   -0.0900   -1.4960 C   0  0  0  0  0  0  0  0  0  0  0  0
    9.6010   -0.9650   -1.6900 N   0  0  0  0  0  0  0  0  0  0  0  0
    8.4130    0.5700   -0.4430 O   0  0  0  0  0  0  0  0  0  0  0  0
    4.5380    1.4890   -1.0080 C   0  0  0  0  0  0  0  0  0  0  0  0
    3.6550    1.2660    0.0040 C   0  0  0  0  0  0  0  0  0  0  0  0
   -4.8320   -1.5510    1.1440 C   0  0  0  0  0  0  0  0  0  0  0  0
   -5.9110   -2.2720    0.9670 C   0  0  0  0  0  0  0  0  0  0  0  0
   -6.0900   -3.4470    1.6540 O   0  0  0  0  0  0  0  0  0  0  0  0
   -6.9470   -1.8100    0.0250 C   0  0  0  0  0  0  0  0  0  0  0  0
   -6.4430   -0.7700   -0.8290 N   0  0  0  0  0  0  0  0  0  0  0  0
  1  2  2  0
  2  3  1  0
  2  4  1  0
  4  5  2  0
  4 30  1  0
  5  6  1  0
  5 26  1  0
  6  7  1  0
  7  8  2  0
  7  9  1  0
  9 10  1  0
 10 11  1  0
 11 12  1  0
 12 13  2  0
 12 14  1  0
 14 15  1  0
 15 16  2  0
 15 25  1  0
 16 17  1  0
 17 18  2  0
 18 19  1  0
 18 24  1  0
 19 20  1  0
 20 21  1  0
 21 22  1  0
 21 23  2  0
 24 25  2  0
 26 27  2  0
 27 28  1  0
 27 29  1  0
 29 30  1  0
M  END
