
     RDKit          3D

 34 37  0  0  0  0  0  0  0  0999 V2000
   -5.6410   -0.1120   -3.0350 C   0  0  0  0  0  0  0  0  0  0  0  0
   -6.4850   -0.4590   -1.8300 C   0  0  0  0  0  0  0  0  0  0  0  0
   -5.9460   -0.1360   -0.3010 S   0  0  0  0  0  0  0  0  0  0  0  0
   -5.9750   -1.2220    0.2650 O   0  0  0  0  0  0  0  0  0  0  0  0
   -6.8150    0.8120    0.7960 C   0  0  0  0  0  0  0  0  0  0  0  0
   -7.6150    0.0270    1.8620 C   0  0  0  0  0  0  0  0  0  0  0  0
   -8.2440    0.9710    2.6480 F   0  0  0  0  0  0  0  0  0  0  0  0
   -4.1400   -0.0280   -0.0740 C   0  0  0  0  0  0  0  0  0  0  0  0
   -3.6850    0.6230    1.0240 C   0  0  0  0  0  0  0  0  0  0  0  0
   -2.3000    0.6780    1.2520 C   0  0  0  0  0  0  0  0  0  0  0  0
   -1.3990    0.0960    0.3990 C   0  0  0  0  0  0  0  0  0  0  0  0
   -1.9300   -0.5530   -0.7040 C   0  0  0  0  0  0  0  0  0  0  0  0
   -3.3080   -0.6100   -0.9350 C   0  0  0  0  0  0  0  0  0  0  0  0
   -1.0480   -1.1790   -1.6000 N   0  0  0  0  0  0  0  0  0  0  0  0
    0.3570   -1.1540   -1.3880 C   0  0  0  0  0  0  0  0  0  0  0  0
    1.1440   -1.7230   -2.1990 O   0  0  0  0  0  0  0  0  0  0  0  0
    0.9740   -0.4740   -0.2240 C   0  0  0  0  0  0  0  0  0  0  0  0
    2.2670   -0.4410   -0.0190 C   0  0  0  0  0  0  0  0  0  0  0  0
    3.1940   -1.0770   -0.9500 N   0  0  0  0  0  0  0  0  0  0  0  0
    4.2260   -1.7650   -0.1920 C   0  0  1  0  0  0  0  0  0  0  0  0
    5.5660   -1.5650   -0.7850 C   0  0  0  0  0  0  0  0  0  0  0  0
    6.7020   -1.3280   -0.0660 C   0  0  0  0  0  0  0  0  0  0  0  0
    7.7660   -1.1930   -0.9600 C   0  0  0  0  0  0  0  0  0  0  0  0
    7.1900   -1.3620   -2.1960 C   0  0  0  0  0  0  0  0  0  0  0  0
    8.1000   -1.2880   -3.7150 Cl  0  0  0  0  0  0  0  0  0  0  0  0
    5.9110   -1.5760   -2.0540 O   0  0  0  0  0  0  0  0  0  0  0  0
    4.1220   -1.0890    1.1160 C   0  0  0  0  0  0  0  0  0  0  0  0
    3.1560    0.0360    0.9390 N   0  0  1  0  0  0  0  0  0  0  0  0
    3.9670    1.1540    0.4900 C   0  0  0  0  0  0  0  0  0  0  0  0
    4.6000    1.7560    1.6970 C   0  0  0  0  0  0  0  0  0  0  0  0
    5.4970    2.9350    1.5360 C   0  0  0  0  0  0  0  0  0  0  0  0
    4.4110    1.3180    2.8210 O   0  0  0  0  0  0  0  0  0  0  0  0
    0.0310    0.1440    0.6440 N   0  0  0  0  0  0  0  0  0  0  0  0
    0.5040    0.9070    1.7580 C   0  0  0  0  0  0  0  0  0  0  0  0
  1  2  1  0
  2  3  1  0
  3  4  2  0
  3  5  1  0
  3  8  1  0
  5  6  1  0
  6  7  1  0
  8  9  2  0
  8 13  1  0
  9 10  1  0
 10 11  2  0
 11 12  1  0
 11 33  1  0
 12 13  2  0
 12 14  1  0
 14 15  1  0
 15 16  2  0
 15 17  1  0
 17 18  2  3
 17 33  1  0
 18 19  1  0
 18 28  1  0
 19 20  1  0
 20 21  1  6
 20 27  1  0
 21 22  2  0
 21 26  1  0
 22 23  1  0
 23 24  2  0
 24 25  1  0
 24 26  1  0
 27 28  1  0
 28 29  1  6
 29 30  1  0
 30 31  1  0
 30 32  2  0
 33 34  1  0
M  CHG  1  28   1
M  END
