
     RDKit          3D

 34 37  0  0  0  0  0  0  0  0999 V2000
   -5.2910    2.4940    1.1590 C   0  0  0  0  0  0  0  0  0  0  0  0
   -5.4880    2.2510   -0.6570 S   0  0  0  0  0  0  0  0  0  0  0  0
   -6.2950    0.5540   -0.9390 C   0  0  2  0  0  0  0  0  0  0  0  0
   -7.3730    0.5640    0.0800 C   0  0  0  0  0  0  0  0  0  0  0  0
   -5.3270   -0.4940   -0.9710 C   0  0  0  0  0  0  0  0  0  0  0  0
   -4.4930   -0.8440    0.0860 C   0  0  0  0  0  0  0  0  0  0  0  0
   -3.4880   -1.7750   -0.0140 C   0  0  0  0  0  0  0  0  0  0  0  0
   -2.5410   -2.1430    1.0290 C   0  0  0  0  0  0  0  0  0  0  0  0
   -1.4730   -1.1370    1.1060 N   0  0  0  0  0  0  0  0  0  0  0  0
   -1.5330   -0.1400    2.0030 C   0  0  0  0  0  0  0  0  0  0  0  0
   -2.5020   -0.1130    2.8080 O   0  0  0  0  0  0  0  0  0  0  0  0
   -0.5880    0.8140    2.0450 N   0  0  0  0  0  0  0  0  0  0  0  0
    0.4510    0.8290    1.2070 C   0  0  0  0  0  0  0  0  0  0  0  0
    0.5320   -0.1860    0.2640 C   0  0  0  0  0  0  0  0  0  0  0  0
   -0.4420   -1.1460    0.2500 C   0  0  0  0  0  0  0  0  0  0  0  0
   -0.3830   -2.1000   -0.6060 O   0  0  0  0  0  0  0  0  0  0  0  0
    1.5500   -0.2940   -0.7760 C   0  0  0  0  0  0  0  0  0  0  0  0
    2.4820    0.8950   -0.8870 C   0  0  2  0  0  0  0  0  0  0  0  0
    3.8040    0.3120   -0.8970 N   0  0  0  0  0  0  0  0  0  0  0  0
    4.9280    1.1490   -1.0420 C   0  0  0  0  0  0  0  0  0  0  0  0
    6.0980    0.3280   -0.7430 N   0  0  0  0  0  0  0  0  0  0  0  0
    6.8310   -0.4470   -1.6560 C   0  0  0  0  0  0  0  0  0  0  0  0
    7.0180   -0.2300   -2.8860 O   0  0  0  0  0  0  0  0  0  0  0  0
    7.4030   -1.6440   -0.9500 C   0  0  0  0  0  0  0  0  0  0  0  0
    7.6210   -1.0520    0.4330 C   0  0  0  0  0  0  0  0  0  0  0  0
    6.7280    0.1140    0.5300 C   0  0  0  0  0  0  0  0  0  0  0  0
    6.5860    0.7830    1.5720 O   0  0  0  0  0  0  0  0  0  0  0  0
    2.2150    2.0320   -0.0200 C   0  0  0  0  0  0  0  0  0  0  0  0
    1.5470    1.8240    1.2930 C   0  0  0  0  0  0  0  0  0  0  0  0
   -3.3110   -2.4100   -1.2730 C   0  0  0  0  0  0  0  0  0  0  0  0
   -4.1150   -2.0920   -2.3320 C   0  0  0  0  0  0  0  0  0  0  0  0
   -3.9070   -2.8530   -3.9370 Cl  0  0  0  0  0  0  0  0  0  0  0  0
   -5.0970   -1.1590   -2.1940 C   0  0  0  0  0  0  0  0  0  0  0  0
   -5.9300   -0.8490   -3.2230 F   0  0  0  0  0  0  0  0  0  0  0  0
  1  2  1  0
  2  3  1  0
  3  4  1  1
  3  5  1  0
  5  6  2  0
  5 33  1  0
  6  7  1  0
  7  8  1  0
  7 30  2  0
  8  9  1  0
  9 10  1  0
  9 15  1  0
 10 11  2  0
 10 12  1  0
 12 13  1  0
 13 14  2  0
 13 29  1  0
 14 15  1  0
 14 17  1  0
 15 16  2  0
 17 18  1  0
 18 19  1  1
 18 28  1  0
 19 20  1  0
 20 21  1  0
 21 22  1  0
 21 26  1  0
 22 23  2  0
 22 24  1  0
 24 25  1  0
 25 26  1  0
 26 27  2  0
 28 29  1  0
 30 31  1  0
 31 32  1  0
 31 33  2  0
 33 34  1  0
M  CHG  1  19   1
M  END
