
     RDKit          3D

 33 36  0  0  0  0  0  0  0  0999 V2000
   -1.3370    2.5900    0.4830 C   0  0  0  0  0  0  0  0  0  0  0  0
   -0.6600    1.2780    0.8450 C   0  0  1  0  0  0  0  0  0  0  0  0
   -0.9790    0.2470   -0.1750 C   0  0  0  0  0  0  0  0  0  0  0  0
   -2.4060    0.0100   -0.2680 N   0  0  0  0  0  0  0  0  0  0  0  0
   -3.2180   -0.4560    0.7960 C   0  0  0  0  0  0  0  0  0  0  0  0
   -2.6390   -0.6800    1.8980 O   0  0  0  0  0  0  0  0  0  0  0  0
   -4.6490   -0.6920    0.7050 C   0  0  0  0  0  0  0  0  0  0  0  0
   -5.4130   -0.4970   -0.4140 C   0  0  0  0  0  0  0  0  0  0  0  0
   -6.7810   -0.7410   -0.4400 C   0  0  0  0  0  0  0  0  0  0  0  0
   -7.4110   -1.1950    0.6960 C   0  0  0  0  0  0  0  0  0  0  0  0
   -6.6330   -1.3860    1.8100 C   0  0  0  0  0  0  0  0  0  0  0  0
   -5.3110   -1.1400    1.8010 N   0  0  0  0  0  0  0  0  0  0  0  0
   -8.8750   -1.3790    0.4120 C   0  0  0  0  0  0  0  0  0  0  0  0
   -9.0550   -0.3560   -0.7160 C   0  0  0  0  0  0  0  0  0  0  0  0
   -7.7910   -0.6030   -1.5190 C   0  0  0  0  0  0  0  0  0  0  0  0
    0.7410    1.5600    0.9840 N   0  0  2  0  0  0  0  0  0  0  0  0
    1.2490    2.4850    0.0220 C   0  0  0  0  0  0  0  0  0  0  0  0
    2.7550    2.3260   -0.0300 C   0  0  0  0  0  0  0  0  0  0  0  0
    3.2620    2.0270    1.2320 O   0  0  0  0  0  0  0  0  0  0  0  0
    2.8950    0.7270    1.5470 C   0  0  2  0  0  0  0  0  0  0  0  0
    3.9340   -0.2350    1.0080 C   0  0  0  0  0  0  0  0  0  0  0  0
    3.7840   -1.4650    1.1630 O   0  0  0  0  0  0  0  0  0  0  0  0
    5.0740    0.2390    0.3300 N   0  0  0  0  0  0  0  0  0  0  0  0
    6.1000   -0.5510   -0.2170 C   0  0  0  0  0  0  0  0  0  0  0  0
    7.2350    0.1400   -0.6700 C   0  0  0  0  0  0  0  0  0  0  0  0
    8.3130   -0.4830   -1.2360 C   0  0  0  0  0  0  0  0  0  0  0  0
    8.3020   -1.8480   -1.3740 C   0  0  0  0  0  0  0  0  0  0  0  0
    9.6960   -2.6770   -2.1080 S   0  0  0  0  0  0  0  0  0  0  0  0
   10.5820   -3.1860   -0.9870 O   0  0  0  0  0  0  0  0  0  0  0  0
    7.1960   -2.5290   -0.9340 C   0  0  0  0  0  0  0  0  0  0  0  0
    7.2050   -4.2820   -1.1220 Cl  0  0  0  0  0  0  0  0  0  0  0  0
    6.0900   -1.9100   -0.3560 C   0  0  0  0  0  0  0  0  0  0  0  0
    1.5610    0.3680    0.9610 C   0  0  0  0  0  0  0  0  0  0  0  0
  2  1  1  6
  2  3  1  0
  2 16  1  0
  3  4  1  0
  4  5  1  0
  5  6  2  0
  5  7  1  0
  7  8  2  0
  7 12  1  0
  8  9  1  0
  9 10  2  0
  9 15  1  0
 10 11  1  0
 10 13  1  0
 11 12  2  0
 13 14  1  0
 14 15  1  0
 16 17  1  6
 16 33  1  0
 17 18  1  0
 18 19  1  0
 19 20  1  0
 20 21  1  6
 20 33  1  0
 21 22  2  0
 21 23  1  0
 23 24  1  0
 24 25  2  0
 24 32  1  0
 25 26  1  0
 26 27  2  0
 27 28  1  0
 27 30  1  0
 28 29  2  0
 30 31  1  0
 30 32  2  0
M  CHG  1  16   1
M  END
