
     RDKit          3D

 34 36  0  0  0  0  0  0  0  0999 V2000
   -4.9640    1.3990   -3.1440 C   0  0  0  0  0  0  0  0  0  0  0  0
   -5.1630    1.6790   -1.8790 C   0  0  0  0  0  0  0  0  0  0  0  0
   -4.0170    1.7130   -0.9470 C   0  0  0  0  0  0  0  0  0  0  0  0
   -4.2680    2.0060    0.3340 C   0  0  0  0  0  0  0  0  0  0  0  0
   -5.6630    2.2760    0.7390 C   0  0  1  0  0  0  0  0  0  0  0  0
   -5.6990    2.3070    2.1360 F   0  0  0  0  0  0  0  0  0  0  0  0
   -6.2570    3.8320    0.0960 Cl  0  0  0  0  0  0  0  0  0  0  0  0
   -2.7360    1.4810   -1.3410 N   0  0  0  0  0  0  0  0  0  0  0  0
   -2.0160    0.5360   -1.7410 C   0  0  0  0  0  0  0  0  0  0  0  0
   -0.3030    1.0420   -2.0910 S   0  0  0  0  0  0  0  0  0  0  0  0
    0.8250   -0.1340   -1.3440 C   0  0  0  0  0  0  0  0  0  0  0  0
    0.7370    0.0070    0.1580 C   0  0  0  0  0  0  0  0  0  0  0  0
   -0.1170   -0.6770    0.7480 O   0  0  0  0  0  0  0  0  0  0  0  0
    1.6160    0.8950    0.8080 N   0  0  0  0  0  0  0  0  0  0  0  0
    1.5330    1.0350    2.2520 C   0  0  0  0  0  0  0  0  0  0  0  0
    2.8860    0.6690    2.8080 C   0  0  0  0  0  0  0  0  0  0  0  0
    3.9750    1.5350    2.2070 C   0  0  2  0  0  0  0  0  0  0  0  0
    4.9840    0.6060    1.5870 C   0  0  0  0  0  0  0  0  0  0  0  0
    6.2980    1.3250    1.4680 C   0  0  0  0  0  0  0  0  0  0  0  0
    6.7570    1.4690    2.7890 O   0  0  0  0  0  0  0  0  0  0  0  0
    6.0310    2.4680    3.3650 C   0  0  0  0  0  0  0  0  0  0  0  0
    4.5610    2.3950    3.2890 C   0  0  0  0  0  0  0  0  0  0  0  0
    3.4310    2.4320    1.1260 C   0  0  0  0  0  0  0  0  0  0  0  0
    2.6100    1.6900    0.1260 C   0  0  0  0  0  0  0  0  0  0  0  0
   -2.4010   -0.8250   -1.8010 N   0  0  0  0  0  0  0  0  0  0  0  0
   -3.5450   -1.4850   -1.2800 C   0  0  0  0  0  0  0  0  0  0  0  0
   -4.3720   -1.0460   -0.4700 O   0  0  0  0  0  0  0  0  0  0  0  0
   -3.5780   -2.8560   -1.9000 C   0  0  0  0  0  0  0  0  0  0  0  0
   -2.0590   -3.1100   -1.9690 C   0  0  1  0  0  0  0  0  0  0  0  0
   -1.5390   -3.1630   -0.6440 N   0  0  0  0  0  0  0  0  0  0  0  0
   -1.7220   -4.2680   -2.8460 C   0  0  0  0  0  0  0  0  0  0  0  0
   -2.3310   -5.5580   -2.3990 C   0  0  0  0  0  0  0  0  0  0  0  0
   -1.6630   -1.8060   -2.5900 C   0  0  0  0  0  0  0  0  0  0  0  0
   -0.9130   -1.5660   -3.5330 O   0  0  0  0  0  0  0  0  0  0  0  0
  1  2  2  0
  2  3  1  0
  3  4  2  3
  3  8  1  0
  4  5  1  0
  5  6  1  1
  5  7  1  0
  8  9  2  3
  9 10  1  0
  9 25  1  0
 10 11  1  0
 11 12  1  0
 12 13  2  0
 12 14  1  0
 14 15  1  0
 14 24  1  0
 15 16  1  0
 17 16  1  1
 17 18  1  0
 17 22  1  0
 17 23  1  0
 18 19  1  0
 19 20  1  0
 20 21  1  0
 21 22  1  0
 23 24  1  0
 25 26  1  0
 25 33  1  0
 26 27  2  0
 26 28  1  0
 28 29  1  0
 29 30  1  1
 29 31  1  0
 29 33  1  0
 31 32  1  0
 33 34  2  0
M  CHG  1  30   1
M  END
