
     RDKit          3D

 34 37  0  0  0  0  0  0  0  0999 V2000
   -8.1210   -2.3700   -0.0210 C   0  0  0  0  0  0  0  0  0  0  0  0
   -7.0830   -1.3700    0.1050 C   0  0  0  0  0  0  0  0  0  0  0  0
   -6.7310   -0.3630   -0.7230 C   0  0  0  0  0  0  0  0  0  0  0  0
   -5.6740    0.4300   -0.2950 C   0  0  0  0  0  0  0  0  0  0  0  0
   -4.9230    0.2650    1.0070 C   0  0  0  0  0  0  0  0  0  0  0  0
   -3.6110    0.4000    1.0240 C   0  0  0  0  0  0  0  0  0  0  0  0
   -2.9420    0.2280    2.3300 C   0  0  0  0  0  0  0  0  0  0  0  0
   -1.6210    0.4410    2.3610 O   0  0  0  0  0  0  0  0  0  0  0  0
   -0.8600    0.1830    1.2530 C   0  0  2  0  0  0  0  0  0  0  0  0
    0.5080    0.8780    1.3440 C   0  0  2  0  0  0  0  0  0  0  0  0
    0.3330    2.3630    1.5620 C   0  0  0  0  0  0  0  0  0  0  0  0
    1.2610    0.5500    0.1890 N   0  0  0  0  0  0  0  0  0  0  0  0
    2.3120    1.4950   -0.1220 C   0  0  0  0  0  0  0  0  0  0  0  0
    3.6610    1.0350    0.2680 C   0  0  0  0  0  0  0  0  0  0  0  0
    4.0800    1.3040    1.5540 C   0  0  0  0  0  0  0  0  0  0  0  0
    5.3050    0.8860    1.9080 N   0  0  0  0  0  0  0  0  0  0  0  0
    6.1130    0.2210    1.0470 C   0  0  0  0  0  0  0  0  0  0  0  0
    7.3820   -0.2000    1.4510 O   0  0  0  0  0  0  0  0  0  0  0  0
    5.7300   -0.0670   -0.2450 C   0  0  0  0  0  0  0  0  0  0  0  0
    6.6470   -0.7900   -1.1350 C   0  0  0  0  0  0  0  0  0  0  0  0
    6.4040   -1.1350   -2.4090 N   0  0  0  0  0  0  0  0  0  0  0  0
    7.4630   -1.7750   -2.8860 N   0  0  0  0  0  0  0  0  0  0  0  0
    8.3880   -1.8350   -1.9020 C   0  0  0  0  0  0  0  0  0  0  0  0
    9.7550   -2.4670   -1.9770 C   0  0  0  0  0  0  0  0  0  0  0  0
    7.8470   -1.2300   -0.8760 O   0  0  0  0  0  0  0  0  0  0  0  0
    4.4810    0.3480   -0.6390 C   0  0  0  0  0  0  0  0  0  0  0  0
   -1.4710    0.5420   -0.0460 C   0  0  0  0  0  0  0  0  0  0  0  0
   -2.8560    0.6840   -0.0730 O   0  0  0  0  0  0  0  0  0  0  0  0
   -5.2680    1.4470   -1.0840 C   0  0  0  0  0  0  0  0  0  0  0  0
   -6.3370    1.3900   -2.5100 S   0  0  0  0  0  0  0  0  0  0  0  0
   -7.3120   -0.1050   -1.8830 C   0  0  0  0  0  0  0  0  0  0  0  0
   -8.2540   -0.4980   -2.6780 C   0  0  0  0  0  0  0  0  0  0  0  0
   -8.3920    0.2480   -3.8710 F   0  0  0  0  0  0  0  0  0  0  0  0
   -9.3840   -1.7610   -2.5670 Cl  0  0  0  0  0  0  0  0  0  0  0  0
  1  2  1  0
  2  3  2  3
  3  4  1  0
  3 31  1  0
  4  5  1  0
  4 29  2  0
  5  6  2  3
  6  7  1  0
  6 28  1  0
  7  8  1  0
  8  9  1  0
  9 10  1  0
  9 27  1  6
 10 11  1  6
 10 12  1  0
 12 13  1  0
 13 14  1  0
 14 15  2  0
 14 26  1  0
 15 16  1  0
 16 17  2  0
 17 18  1  0
 17 19  1  0
 19 20  1  0
 19 26  2  0
 20 21  2  0
 20 25  1  0
 21 22  1  0
 22 23  2  0
 23 24  1  0
 23 25  1  0
 27 28  1  0
 29 30  1  0
 30 31  1  0
 31 32  2  3
 32 33  1  0
 32 34  1  0
M  CHG  1  12   1
M  END
