
     RDKit          3D

 34 37  0  0  0  0  0  0  0  0999 V2000
   -6.7040    4.1160    0.7300 C   0  0  0  0  0  0  0  0  0  0  0  0
   -6.5030    3.1860   -0.2090 C   0  0  0  0  0  0  0  0  0  0  0  0
   -5.8090    1.9700    0.1080 C   0  0  0  0  0  0  0  0  0  0  0  0
   -5.5820    1.0310   -0.7530 C   0  0  0  0  0  0  0  0  0  0  0  0
   -6.0050    1.0940   -2.1570 C   0  0  1  0  0  0  0  0  0  0  0  0
   -4.8460    1.0220   -2.9390 F   0  0  0  0  0  0  0  0  0  0  0  0
   -6.9280   -0.4170   -2.4720 Cl  0  0  0  0  0  0  0  0  0  0  0  0
   -4.8500   -0.1970   -0.3290 C   0  0  1  0  0  0  0  0  0  0  0  0
   -3.5720   -0.3860   -1.1190 C   0  0  0  0  0  0  0  0  0  0  0  0
   -2.6520   -1.1100   -0.2380 N   0  0  2  0  0  0  0  0  0  0  0  0
   -1.5250   -1.6430   -0.9550 C   0  0  0  0  0  0  0  0  0  0  0  0
   -0.2680   -1.2640   -0.3200 C   0  0  0  0  0  0  0  0  0  0  0  0
   -0.1420   -0.2270    1.2140 S   0  0  0  0  0  0  0  0  0  0  0  0
    1.6230   -0.2500    1.2880 C   0  0  0  0  0  0  0  0  0  0  0  0
    2.4530    0.3180    2.1770 N   0  0  0  0  0  0  0  0  0  0  0  0
    3.7770    0.1720    2.0470 C   0  0  0  0  0  0  0  0  0  0  0  0
    4.5140    0.7200    2.9040 O   0  0  0  0  0  0  0  0  0  0  0  0
    4.2050   -0.5520    1.0060 N   0  0  0  0  0  0  0  0  0  0  0  0
    5.6540   -0.7140    0.8260 C   0  0  0  0  0  0  0  0  0  0  0  0
    6.1230    0.2950   -0.0440 N   0  0  0  0  0  0  0  0  0  0  0  0
    5.9520    1.6360    0.3290 C   0  0  0  0  0  0  0  0  0  0  0  0
    6.5550    2.6490   -0.6010 C   0  0  0  0  0  0  0  0  0  0  0  0
    7.6980    2.2170   -1.2400 O   0  0  0  0  0  0  0  0  0  0  0  0
    8.2720    1.1020   -0.6440 C   0  0  0  0  0  0  0  0  0  0  0  0
    7.2810   -0.0310   -0.8060 C   0  0  0  0  0  0  0  0  0  0  0  0
    3.4090   -1.1310    0.1020 C   0  0  0  0  0  0  0  0  0  0  0  0
    3.9370   -1.7900   -0.8350 O   0  0  0  0  0  0  0  0  0  0  0  0
    2.0000   -0.9950    0.2140 C   0  0  0  0  0  0  0  0  0  0  0  0
    1.0420   -1.5010   -0.5900 C   0  0  0  0  0  0  0  0  0  0  0  0
    1.3620   -2.3510   -1.8280 C   0  0  0  0  0  0  0  0  0  0  0  0
   -3.3510   -2.1070    0.5410 C   0  0  0  0  0  0  0  0  0  0  0  0
   -4.1970   -1.3560    1.5500 C   0  0  2  0  0  0  0  0  0  0  0  0
   -5.4310   -2.1160    1.9350 C   0  0  0  0  0  0  0  0  0  0  0  0
   -4.5110   -0.1150    1.0370 O   0  0  0  0  0  0  0  0  0  0  0  0
  1  2  2  0
  2  3  1  0
  3  4  2  3
  4  5  1  0
  8  4  1  6
  5  6  1  6
  5  7  1  0
  8  9  1  0
  8 34  1  0
  9 10  1  0
 10 11  1  6
 10 31  1  0
 11 12  1  0
 12 13  1  0
 12 29  2  0
 13 14  1  0
 14 15  1  0
 14 28  2  0
 15 16  1  0
 16 17  2  0
 16 18  1  0
 18 19  1  0
 18 26  1  0
 19 20  1  0
 20 21  1  0
 20 25  1  0
 21 22  1  0
 22 23  1  0
 23 24  1  0
 24 25  1  0
 26 27  2  0
 26 28  1  0
 28 29  1  0
 29 30  1  0
 31 32  1  0
 32 33  1  6
 32 34  1  0
M  CHG  1  10   1
M  END
