
     RDKit          3D

 26 28  0  0  0  0  0  0  0  0999 V2000
   -7.8260    1.1230    0.0450 C   0  0  0  0  0  0  0  0  0  0  0  0
   -7.9120   -0.5270   -0.6500 S   0  0  2  0  0  0  0  0  0  0  0  0
   -8.8960   -0.5320   -1.7990 O   0  0  0  0  0  0  0  0  0  0  0  0
   -8.3720   -1.5380    0.3330 O   0  0  0  0  0  0  0  0  0  0  0  0
   -6.3410   -0.9160   -1.2230 N   0  0  0  0  0  0  0  0  0  0  0  0
   -5.2620   -0.9590   -0.2720 C   0  0  0  0  0  0  0  0  0  0  0  0
   -5.4180   -1.6390    0.9130 C   0  0  0  0  0  0  0  0  0  0  0  0
   -4.3600   -1.6650    1.7960 C   0  0  0  0  0  0  0  0  0  0  0  0
   -3.1670   -1.0150    1.4840 C   0  0  0  0  0  0  0  0  0  0  0  0
   -3.0000   -0.3350    0.3060 C   0  0  0  0  0  0  0  0  0  0  0  0
   -1.8470    0.3450   -0.1150 N   0  0  0  0  0  0  0  0  0  0  0  0
   -0.5740    0.3590    0.5110 C   0  0  0  0  0  0  0  0  0  0  0  0
   -0.4080   -0.2990    1.5640 O   0  0  0  0  0  0  0  0  0  0  0  0
    0.5510    1.1240   -0.0420 C   0  0  0  0  0  0  0  0  0  0  0  0
    1.8150    1.1790    0.4940 C   0  0  0  0  0  0  0  0  0  0  0  0
    2.6150    2.0070   -0.3000 C   0  0  0  0  0  0  0  0  0  0  0  0
    4.0430    2.3620   -0.1120 C   0  0  0  0  0  0  0  0  0  0  0  0
    5.0980    1.1940   -0.9700 S   0  0  0  0  0  0  0  0  0  0  0  0
    4.9770   -0.4370   -0.2220 C   0  0  1  0  0  0  0  0  0  0  0  0
    5.8650   -1.4430   -0.9320 C   0  0  0  0  0  0  0  0  0  0  0  0
    7.2020   -1.3740   -0.2620 C   0  0  0  0  0  0  0  0  0  0  0  0
    7.0270   -0.4830    0.9340 C   0  0  0  0  0  0  0  0  0  0  0  0
    5.5480   -0.4240    1.1780 C   0  0  0  0  0  0  0  0  0  0  0  0
    1.7870    2.4190   -1.2940 N   0  0  0  0  0  0  0  0  0  0  0  0
    0.5720    1.8870   -1.1250 N   0  0  0  0  0  0  0  0  0  0  0  0
   -4.0750   -0.3170   -0.5730 C   0  0  0  0  0  0  0  0  0  0  0  0
  2  1  1  1
  2  3  2  0
  2  4  2  0
  2  5  1  0
  5  6  1  0
  6  7  2  0
  6 26  1  0
  7  8  1  0
  8  9  2  0
  9 10  1  0
 10 11  1  0
 10 26  2  0
 11 12  1  0
 12 13  2  0
 12 14  1  0
 14 15  1  0
 14 25  2  0
 15 16  2  0
 16 17  1  0
 16 24  1  0
 17 18  1  0
 19 18  1  6
 19 20  1  0
 19 23  1  0
 20 21  1  0
 21 22  1  0
 22 23  1  0
 24 25  1  0
M  END
