
     RDKit          3D

 16 16  0  0  0  0  0  0  0  0999 V2000
    3.8500   -1.5240    0.4830 C   0  0  0  0  0  0  0  0  0  0  0  0
    2.4010   -1.4290    0.1710 N   0  0  0  0  0  0  0  0  0  0  0  0
    1.7090   -0.2310    0.3680 C   0  0  0  0  0  0  0  0  0  0  0  0
    2.4680    0.7390    0.8230 O   0  0  0  0  0  0  0  0  0  0  0  0
    0.3150    0.0620    0.1370 C   0  0  0  0  0  0  0  0  0  0  0  0
    0.0120    1.4410   -0.0260 C   0  0  0  0  0  0  0  0  0  0  0  0
    1.3510    2.6450   -0.0410 S   0  0  0  0  0  0  0  0  0  0  0  0
    0.7220    4.3010   -0.2570 C   0  0  0  0  0  0  0  0  0  0  0  0
   -1.2200    1.8890   -0.1740 N   0  0  0  0  0  0  0  0  0  0  0  0
   -2.2290    1.0170   -0.1710 C   0  0  0  0  0  0  0  0  0  0  0  0
   -3.4110    1.4860   -0.3160 O   0  0  0  0  0  0  0  0  0  0  0  0
   -2.0300   -0.3450   -0.0180 C   0  0  0  0  0  0  0  0  0  0  0  0
   -3.2510   -1.1890   -0.0380 C   0  0  0  0  0  0  0  0  0  0  0  0
   -0.7450   -0.8100    0.1350 C   0  0  0  0  0  0  0  0  0  0  0  0
   -0.5000   -2.2510    0.2660 C   0  0  0  0  0  0  0  0  0  0  0  0
   -1.7350   -2.9250    0.3290 O   0  0  0  0  0  0  0  0  0  0  0  0
  1  2  1  0
  2  3  1  0
  3  4  2  0
  3  5  1  0
  5  6  2  0
  5 14  1  0
  6  7  1  0
  6  9  1  0
  7  8  1  0
  9 10  1  0
 10 11  2  0
 10 12  1  0
 12 13  1  0
 12 14  2  0
 14 15  1  0
 15 16  1  0
M  END
