
     RDKit          3D

 26 28  0  0  0  0  0  0  0  0999 V2000
    7.8400   -2.6710    1.4150 C   0  0  0  0  0  0  0  0  0  0  0  0
    7.2790   -1.3770    1.5720 O   0  0  0  0  0  0  0  0  0  0  0  0
    6.1280   -1.0320    0.8800 C   0  0  0  0  0  0  0  0  0  0  0  0
    5.5000   -1.9130    0.0340 C   0  0  0  0  0  0  0  0  0  0  0  0
    4.3650   -1.5470   -0.6360 C   0  0  0  0  0  0  0  0  0  0  0  0
    3.8060   -0.2880   -0.4920 C   0  0  0  0  0  0  0  0  0  0  0  0
    2.6410    0.0670   -1.1990 N   0  0  0  0  0  0  0  0  0  0  0  0
    1.8850    1.2320   -1.0940 C   0  0  0  0  0  0  0  0  0  0  0  0
    2.1950    2.1220   -0.3050 O   0  0  0  0  0  0  0  0  0  0  0  0
    0.7040    1.4670   -1.8920 N   0  0  0  0  0  0  0  0  0  0  0  0
   -0.0650    2.6590   -1.7810 C   0  0  0  0  0  0  0  0  0  0  0  0
   -0.6400    2.9000   -0.4130 C   0  0  0  0  0  0  0  0  0  0  0  0
   -1.5430    1.8120    0.0210 C   0  0  0  0  0  0  0  0  0  0  0  0
   -2.8850    1.6930   -0.1640 N   0  0  0  0  0  0  0  0  0  0  0  0
   -3.3040    0.5490    0.3920 C   0  0  0  0  0  0  0  0  0  0  0  0
   -4.6620    0.0560    0.4120 C   0  0  0  0  0  0  0  0  0  0  0  0
   -5.1870   -1.0820    0.9450 C   0  0  0  0  0  0  0  0  0  0  0  0
   -6.4950   -1.3180    0.8320 C   0  0  0  0  0  0  0  0  0  0  0  0
   -7.3200   -2.7950    1.4960 S   0  0  0  0  0  0  0  0  0  0  0  0
   -7.2630   -0.3730    0.1650 C   0  0  0  0  0  0  0  0  0  0  0  0
   -8.7240   -0.3440   -0.1210 C   0  0  0  0  0  0  0  0  0  0  0  0
   -6.0800    0.8520   -0.2930 S   0  0  0  0  0  0  0  0  0  0  0  0
   -2.2260   -0.0270    0.9130 N   0  0  0  0  0  0  0  0  0  0  0  0
   -1.1750    0.7340    0.6870 O   0  0  0  0  0  0  0  0  0  0  0  0
    4.4250    0.5760    0.3390 C   0  0  0  0  0  0  0  0  0  0  0  0
    5.5950    0.2120    1.0360 C   0  0  0  0  0  0  0  0  0  0  0  0
  1  2  1  0
  2  3  1  0
  3  4  2  0
  3 26  1  0
  4  5  1  0
  5  6  2  0
  6  7  1  0
  6 25  1  0
  7  8  1  0
  8  9  2  0
  8 10  1  0
 10 11  1  0
 11 12  1  0
 12 13  1  0
 13 14  2  0
 13 24  1  0
 14 15  1  0
 15 16  1  0
 15 23  2  0
 16 17  2  0
 16 22  1  0
 17 18  1  0
 18 19  1  0
 18 20  2  0
 20 21  1  0
 20 22  1  0
 23 24  1  0
 25 26  2  0
M  END
