
     RDKit          3D

 26 28  0  0  0  0  0  0  0  0999 V2000
    8.8160   -0.6300    2.4040 C   0  0  0  0  0  0  0  0  0  0  0  0
    8.4740   -0.5240    0.9740 C   0  0  0  0  0  0  0  0  0  0  0  0
    9.3920   -0.5150    0.1310 O   0  0  0  0  0  0  0  0  0  0  0  0
    7.0550   -0.4340    0.5960 C   0  0  0  0  0  0  0  0  0  0  0  0
    5.9210   -0.4320    1.4220 C   0  0  0  0  0  0  0  0  0  0  0  0
    4.7930   -0.3390    0.7850 N   0  0  0  0  0  0  0  0  0  0  0  0
    4.6000   -0.2570   -0.3840 C   0  0  0  0  0  0  0  0  0  0  0  0
    3.5440   -0.1460   -1.3620 N   0  0  0  0  0  0  0  0  0  0  0  0
    2.2110   -0.1140   -0.8610 C   0  0  0  0  0  0  0  0  0  0  0  0
    2.0670   -0.1840    0.3600 O   0  0  0  0  0  0  0  0  0  0  0  0
    1.0930   -0.0080   -1.7100 N   0  0  0  0  0  0  0  0  0  0  0  0
   -0.2600    0.0300   -1.3020 C   0  0  0  0  0  0  0  0  0  0  0  0
   -1.2140    0.1520   -2.3280 C   0  0  0  0  0  0  0  0  0  0  0  0
   -2.5510    0.1960   -2.0280 C   0  0  0  0  0  0  0  0  0  0  0  0
   -3.0320    0.1250   -0.7230 C   0  0  0  0  0  0  0  0  0  0  0  0
   -4.4330    0.1920   -0.5670 N   0  0  0  0  0  0  0  0  0  0  0  0
   -5.1200   -0.0110    0.6460 C   0  0  0  0  0  0  0  0  0  0  0  0
   -4.5340   -0.2750    1.7040 O   0  0  0  0  0  0  0  0  0  0  0  0
   -6.6140    0.1020    0.6280 C   0  0  0  0  0  0  0  0  0  0  0  0
   -7.4700    0.3700   -0.3520 C   0  0  0  0  0  0  0  0  0  0  0  0
   -8.7880    0.4120   -0.0900 C   0  0  0  0  0  0  0  0  0  0  0  0
   -9.2050    0.1740    1.1930 C   0  0  0  0  0  0  0  0  0  0  0  0
   -7.6230   -0.1250    2.0720 S   0  0  0  0  0  0  0  0  0  0  0  0
   -2.0990    0.0080    0.2580 C   0  0  0  0  0  0  0  0  0  0  0  0
   -0.7460   -0.0370   -0.0470 C   0  0  0  0  0  0  0  0  0  0  0  0
    6.3400   -0.2990   -1.0150 S   0  0  0  0  0  0  0  0  0  0  0  0
  1  2  1  0
  2  3  2  0
  2  4  1  0
  4  5  2  0
  4 26  1  0
  5  6  1  0
  6  7  2  0
  7  8  1  0
  7 26  1  0
  8  9  1  0
  9 10  2  0
  9 11  1  0
 11 12  1  0
 12 13  2  0
 12 25  1  0
 13 14  1  0
 14 15  2  0
 15 16  1  0
 15 24  1  0
 16 17  1  0
 17 18  2  0
 17 19  1  0
 19 20  2  0
 19 23  1  0
 20 21  1  0
 21 22  2  0
 22 23  1  0
 24 25  2  0
M  END
