
     RDKit          3D

 16 16  0  0  0  0  0  0  0  0999 V2000
   -6.2020    2.0470   -0.1570 C   0  0  0  0  0  0  0  0  0  0  0  0
   -5.3570    0.6620    0.6770 S   0  0  0  0  0  0  0  0  0  0  0  0
   -4.4670   -0.2470   -0.5850 C   0  0  0  0  0  0  0  0  0  0  0  0
   -3.2480   -0.6930   -0.4200 C   0  0  0  0  0  0  0  0  0  0  0  0
   -2.2590   -1.4460   -1.2110 C   0  0  0  0  0  0  0  0  0  0  0  0
   -1.1910   -0.7000   -0.4110 C   0  0  2  0  0  0  0  0  0  0  0  0
   -0.0570   -1.4490   -0.1010 O   0  0  0  0  0  0  0  0  0  0  0  0
    1.2070   -0.9230   -0.3040 C   0  0  0  0  0  0  0  0  0  0  0  0
    1.2630    0.2570   -0.7780 O   0  0  0  0  0  0  0  0  0  0  0  0
    2.4070   -1.5920   -0.0250 N   0  0  0  0  0  0  0  0  0  0  0  0
    3.7210   -1.0260   -0.2420 C   0  0  0  0  0  0  0  0  0  0  0  0
    3.9160    0.2310    0.5690 C   0  0  0  0  0  0  0  0  0  0  0  0
    5.2810    0.7900    0.3240 C   0  0  0  0  0  0  0  0  0  0  0  0
    5.7510    1.9550    0.9390 N   0  0  0  0  0  0  0  0  0  0  0  0
    6.0560    0.1890   -0.4730 O   0  0  0  0  0  0  0  0  0  0  0  0
   -2.2520   -0.6520    0.6720 C   0  0  0  0  0  0  0  0  0  0  0  0
  1  2  1  0
  2  3  1  0
  3  4  2  3
  4  5  1  0
  4 16  1  0
  5  6  1  0
  6  7  1  1
  6 16  1  0
  7  8  1  0
  8  9  2  0
  8 10  1  0
 10 11  1  0
 11 12  1  0
 12 13  1  0
 13 14  1  0
 13 15  2  0
M  END
