
     RDKit          3D

 20 20  0  0  0  0  0  0  0  0999 V2000
    5.6990   -0.5030    0.4220 C   0  0  0  0  0  0  0  0  0  0  0  0
    4.7960   -0.7380   -0.6090 O   0  0  0  0  0  0  0  0  0  0  0  0
    3.4740   -0.2780   -0.6010 C   0  0  0  0  0  0  0  0  0  0  0  0
    2.9450    0.4510    0.4290 C   0  0  0  0  0  0  0  0  0  0  0  0
    1.6210    0.8900    0.3950 C   0  0  0  0  0  0  0  0  0  0  0  0
    0.7990    0.6070   -0.6740 C   0  0  0  0  0  0  0  0  0  0  0  0
   -0.8620    1.1750   -0.6890 S   0  0  1  0  0  0  0  0  0  0  0  0
   -0.9230    2.4830    0.0730 O   0  0  0  0  0  0  0  0  0  0  0  0
   -1.2940    1.5070   -2.0970 O   0  0  0  0  0  0  0  0  0  0  0  0
   -1.9440    0.0830    0.0450 N   0  0  0  0  0  0  0  0  0  0  0  0
   -1.9260   -1.1680   -0.6840 C   0  0  0  0  0  0  0  0  0  0  0  0
   -2.9410   -1.1890   -1.8000 C   0  0  0  0  0  0  0  0  0  0  0  0
   -2.8750   -2.4010   -2.4520 O   0  0  0  0  0  0  0  0  0  0  0  0
   -1.6450   -0.1870    1.4200 C   0  0  0  0  0  0  0  0  0  0  0  0
   -2.3790    0.7210    2.3140 C   0  0  0  0  0  0  0  0  0  0  0  0
   -2.1830    0.5770    3.5640 O   0  0  0  0  0  0  0  0  0  0  0  0
   -3.2650    1.7170    1.8940 N   0  0  0  0  0  0  0  0  0  0  0  0
   -3.8830    2.4910    2.8010 O   0  0  0  0  0  0  0  0  0  0  0  0
    1.3330   -0.1270   -1.7100 C   0  0  0  0  0  0  0  0  0  0  0  0
    2.6610   -0.5670   -1.6750 C   0  0  0  0  0  0  0  0  0  0  0  0
  1  2  1  0
  2  3  1  0
  3  4  2  0
  3 20  1  0
  4  5  1  0
  5  6  2  0
  6  7  1  0
  6 19  1  0
  7  8  2  0
  7  9  2  0
  7 10  1  1
 10 11  1  0
 10 14  1  0
 11 12  1  0
 12 13  1  0
 14 15  1  0
 15 16  2  0
 15 17  1  0
 17 18  1  0
 19 20  2  0
M  END
