
     RDKit          3D

 16 16  0  0  0  0  0  0  0  0999 V2000
   -4.3250    0.9410   -2.0750 C   0  0  0  0  0  0  0  0  0  0  0  0
   -3.3080   -0.1430   -1.8740 C   0  0  0  0  0  0  0  0  0  0  0  0
   -2.3390   -0.1150   -2.6210 O   0  0  0  0  0  0  0  0  0  0  0  0
   -3.5250   -1.1510   -0.8230 C   0  0  0  0  0  0  0  0  0  0  0  0
   -2.8360   -0.8790    0.4690 C   0  0  0  0  0  0  0  0  0  0  0  0
   -1.3410   -0.8180    0.3420 C   0  0  0  0  0  0  0  0  0  0  0  0
   -0.7460   -1.0140   -0.7590 O   0  0  0  0  0  0  0  0  0  0  0  0
   -0.5160   -0.5350    1.4540 N   0  0  0  0  0  0  0  0  0  0  0  0
    0.8800   -0.4630    1.4160 N   0  0  0  0  0  0  0  0  0  0  0  0
    1.5690    0.3570    0.4910 C   0  0  0  0  0  0  0  0  0  0  0  0
    0.8510    1.0240   -0.2980 O   0  0  0  0  0  0  0  0  0  0  0  0
    3.0660    0.4280    0.4520 C   0  0  0  0  0  0  0  0  0  0  0  0
    3.7100    1.1690   -0.3800 C   0  0  0  0  0  0  0  0  0  0  0  0
    5.1850    1.1610   -0.3280 C   0  0  0  0  0  0  0  0  0  0  0  0
    5.4340    0.5560    1.3920 S   0  0  0  0  0  0  0  0  0  0  0  0
    3.8550   -0.3870    1.4030 C   0  0  0  0  0  0  0  0  0  0  0  0
  1  2  1  0
  2  3  2  0
  2  4  1  0
  4  5  1  0
  5  6  1  0
  6  7  2  0
  6  8  1  0
  8  9  1  0
  9 10  1  0
 10 11  2  0
 10 12  1  0
 12 13  2  0
 12 16  1  0
 13 14  1  0
 14 15  1  0
 15 16  1  0
M  END
