
     RDKit          3D

 26 28  0  0  0  0  0  0  0  0999 V2000
   -3.5800    4.8040   -0.8650 C   0  0  0  0  0  0  0  0  0  0  0  0
   -3.4930    3.9290    0.7210 S   0  0  0  0  0  0  0  0  0  0  0  0
   -2.7730    2.3090    0.5480 C   0  0  0  0  0  0  0  0  0  0  0  0
   -3.5660    1.2220    0.2870 C   0  0  0  0  0  0  0  0  0  0  0  0
   -3.0010   -0.0390    0.1530 C   0  0  0  0  0  0  0  0  0  0  0  0
   -1.6520   -0.2400    0.2730 C   0  0  0  0  0  0  0  0  0  0  0  0
   -1.1450   -1.5240    0.1290 O   0  0  0  0  0  0  0  0  0  0  0  0
   -1.9430   -2.6200   -0.1340 C   0  0  0  0  0  0  0  0  0  0  0  0
   -2.2250   -3.0060   -1.4270 C   0  0  0  0  0  0  0  0  0  0  0  0
   -3.0200   -4.0980   -1.7140 C   0  0  0  0  0  0  0  0  0  0  0  0
   -3.5650   -4.8490   -0.6950 C   0  0  0  0  0  0  0  0  0  0  0  0
   -3.2850   -4.4660    0.5940 C   0  0  0  0  0  0  0  0  0  0  0  0
   -2.4870   -3.3700    0.8860 C   0  0  0  0  0  0  0  0  0  0  0  0
   -0.8150    0.8510    0.5390 C   0  0  0  0  0  0  0  0  0  0  0  0
    0.5540    0.5760    0.6510 N   0  0  0  0  0  0  0  0  0  0  0  0
    1.5690    1.5030    0.9100 C   0  0  0  0  0  0  0  0  0  0  0  0
    1.3050    2.7120    1.0700 O   0  0  0  0  0  0  0  0  0  0  0  0
    3.0190    1.0390    1.0010 C   0  0  0  0  0  0  0  0  0  0  0  0
    3.7100    1.1400   -0.6520 S   0  0  0  0  0  0  0  0  0  0  0  0
    5.4020    0.6080   -0.5990 C   0  0  0  0  0  0  0  0  0  0  0  0
    5.8190   -0.6480   -0.7700 N   0  0  0  0  0  0  0  0  0  0  0  0
    7.1430   -0.6730   -0.6640 N   0  0  0  0  0  0  0  0  0  0  0  0
    7.5610    0.5870   -0.4220 C   0  0  0  0  0  0  0  0  0  0  0  0
    8.7550    0.9150   -0.2680 O   0  0  0  0  0  0  0  0  0  0  0  0
    6.4810    1.3780   -0.3820 N   0  0  0  0  0  0  0  0  0  0  0  0
   -1.3960    2.0940    0.6690 C   0  0  0  0  0  0  0  0  0  0  0  0
  1  2  1  0
  2  3  1  0
  3  4  2  0
  3 26  1  0
  4  5  1  0
  5  6  2  0
  6  7  1  0
  6 14  1  0
  7  8  1  0
  8  9  2  0
  8 13  1  0
  9 10  1  0
 10 11  2  0
 11 12  1  0
 12 13  2  0
 14 15  1  0
 14 26  2  0
 15 16  1  0
 16 17  2  0
 16 18  1  0
 18 19  1  0
 19 20  1  0
 20 21  2  0
 20 25  1  0
 21 22  1  0
 22 23  1  0
 23 24  2  0
 23 25  1  0
M  END
