
     RDKit          3D

 34 37  0  0  0  0  0  0  0  0999 V2000
   -2.3170    5.8900    1.7350 N   0  0  0  0  0  0  0  0  0  0  0  0
   -2.5250    4.5300    1.4300 C   0  0  0  0  0  0  0  0  0  0  0  0
   -3.7270    3.9430    1.8090 C   0  0  0  0  0  0  0  0  0  0  0  0
   -3.9600    2.6170    1.5260 C   0  0  0  0  0  0  0  0  0  0  0  0
   -2.9780    1.8700    0.8540 C   0  0  0  0  0  0  0  0  0  0  0  0
   -1.8140    2.4830    0.5010 C   0  0  0  0  0  0  0  0  0  0  0  0
   -1.6080    3.7710    0.7850 N   0  0  0  0  0  0  0  0  0  0  0  0
   -0.8160    1.6690   -0.1510 N   0  0  0  0  0  0  0  0  0  0  0  0
    0.3520    2.0160   -0.6270 N   0  0  0  0  0  0  0  0  0  0  0  0
    1.0250    1.0160   -1.2160 C   0  0  0  0  0  0  0  0  0  0  0  0
    0.1590   -0.0740   -1.0810 C   0  0  0  0  0  0  0  0  0  0  0  0
   -0.9980    0.3790   -0.3990 C   0  0  0  0  0  0  0  0  0  0  0  0
   -2.1910   -0.3350    0.0320 C   0  0  2  0  0  0  0  0  0  0  0  0
   -2.6430   -1.3030   -0.9740 N   0  0  0  0  0  0  0  0  0  0  0  0
   -3.7500   -1.9120   -0.7150 C   0  0  0  0  0  0  0  0  0  0  0  0
   -4.3150   -2.8780   -1.5960 N   0  0  0  0  0  0  0  0  0  0  0  0
   -3.5800   -3.7510   -2.1790 C   0  0  0  0  0  0  0  0  0  0  0  0
   -4.0870   -4.7040   -3.0390 O   0  0  0  0  0  0  0  0  0  0  0  0
   -3.2900    0.4750    0.5390 C   0  0  0  0  0  0  0  0  0  0  0  0
    0.5280   -1.6660   -1.6980 S   0  0  2  0  0  0  0  0  0  0  0  0
    1.9420   -1.6570   -2.2100 O   0  0  0  0  0  0  0  0  0  0  0  0
   -0.3170   -1.9430   -2.9480 O   0  0  0  0  0  0  0  0  0  0  0  0
    0.3210   -2.9510   -0.5190 C   0  0  0  0  0  0  0  0  0  0  0  0
    1.4740   -2.9700    0.4620 C   0  0  2  0  0  0  0  0  0  0  0  0
    1.1990   -1.5850    1.6510 P   0  0  0  0  0  0  0  0  0  0  0  0
    1.9630   -2.0170    3.1550 O   0  0  0  0  0  0  0  0  0  0  0  0
    2.6430   -2.9190   -0.2360 O   0  0  0  0  0  0  0  0  0  0  0  0
    3.7490   -1.6920    0.1010 P   0  0  0  0  0  0  0  0  0  0  0  0
    5.0670   -1.0660   -0.6250 C   0  0  0  0  0  0  0  0  0  0  0  0
    5.7480    0.0840    0.1120 C   0  0  0  0  0  0  0  0  0  0  0  0
    5.4660    1.2820   -0.5880 O   0  0  0  0  0  0  0  0  0  0  0  0
    4.0830    1.5540   -0.5010 C   0  0  0  0  0  0  0  0  0  0  0  0
    3.4830    1.1740   -1.8220 C   0  0  0  0  0  0  0  0  0  0  0  0
    2.1990    0.7480   -1.8570 O   0  0  0  0  0  0  0  0  0  0  0  0
  1  2  1  0
  2  3  2  0
  2  7  1  0
  3  4  1  0
  4  5  2  0
  5  6  1  0
  5 19  1  0
  6  7  2  0
  6  8  1  0
  8  9  1  0
  8 12  1  0
  9 10  2  0
 10 11  1  0
 10 34  1  0
 11 12  2  0
 11 20  1  0
 12 13  1  0
 13 14  1  6
 13 19  1  0
 14 15  2  3
 15 16  1  0
 16 17  2  3
 17 18  1  0
 20 21  2  0
 20 22  2  0
 20 23  1  1
 23 24  1  0
 24 25  1  1
 24 27  1  0
 25 26  1  0
 27 28  1  0
 28 29  2  0
 29 30  1  0
 30 31  1  0
 31 32  1  0
 32 33  1  0
 33 34  1  0
M  END
