
     RDKit          3D

 35 36  0  0  0  0  0  0  0  0999 V2000
   -2.4370    2.1190   -3.5100 C   0  0  0  0  0  0  0  0  0  0  0  0
   -2.0520    0.8590   -3.0720 O   0  0  0  0  0  0  0  0  0  0  0  0
   -2.1320    0.7430   -1.6870 C   0  0  1  0  0  0  0  0  0  0  0  0
   -1.7150   -0.6630   -1.3280 C   0  0  0  0  0  0  0  0  0  0  0  0
   -2.2890   -1.1090   -0.0420 C   0  0  0  0  0  0  0  0  0  0  0  0
   -3.5030   -1.8950    0.0870 C   0  0  0  0  0  0  0  0  0  0  0  0
   -3.9430   -2.2880    1.2470 C   0  0  0  0  0  0  0  0  0  0  0  0
   -3.3990   -2.0670    2.5380 C   0  0  0  0  0  0  0  0  0  0  0  0
   -4.0380   -2.5710    3.5490 O   0  0  0  0  0  0  0  0  0  0  0  0
   -4.2850   -2.2510   -1.0800 C   0  0  0  0  0  0  0  0  0  0  0  0
   -4.0230   -1.9520   -2.2850 N   0  0  0  0  0  0  0  0  0  0  0  0
   -5.4570   -3.0020   -0.8880 O   0  0  0  0  0  0  0  0  0  0  0  0
   -1.6720   -0.7880    1.0360 N   0  0  0  0  0  0  0  0  0  0  0  0
   -0.5060   -0.0640    1.2600 N   0  0  0  0  0  0  0  0  0  0  0  0
   -0.6220    1.0010    2.2920 C   0  0  0  0  0  0  0  0  0  0  0  0
    0.5230   -0.4140    0.5660 O   0  0  0  0  0  0  0  0  0  0  0  0
    1.7920   -0.6610    0.2360 C   0  0  0  0  0  0  0  0  0  0  0  0
    2.2690   -2.2820    0.0490 P   0  0  0  0  0  0  0  0  0  0  0  0
    3.8360   -2.8920   -0.3720 N   0  0  0  0  0  0  0  0  0  0  0  0
    2.7990    0.3830    0.0230 N   0  0  0  0  0  0  0  0  0  0  0  0
    4.0400    0.1540    0.7250 C   0  0  0  0  0  0  0  0  0  0  0  0
    5.1530    1.1180    0.5800 C   0  0  0  0  0  0  0  0  0  0  0  0
    6.5270    0.3580    1.6680 P   0  0  0  0  0  0  0  0  0  0  0  0
    8.0700    0.8840    1.1140 O   0  0  0  0  0  0  0  0  0  0  0  0
    6.4010   -1.3720    1.6260 O   0  0  0  0  0  0  0  0  0  0  0  0
    2.5380    1.4960   -0.8370 C   0  0  0  0  0  0  0  0  0  0  0  0
    3.6880    2.6660   -0.8910 S   0  0  0  0  0  0  0  0  0  0  0  0
    1.3430    1.7090   -1.7020 C   0  0  0  0  0  0  0  0  0  0  0  0
    1.8610    1.9950   -3.4450 Cl  0  0  0  0  0  0  0  0  0  0  0  0
    0.1820    1.7140   -1.3920 N   0  0  0  0  0  0  0  0  0  0  0  0
   -1.1310    1.7380   -1.1420 C   0  0  0  0  0  0  0  0  0  0  0  0
   -1.6660    2.6490   -0.3710 N   0  0  0  0  0  0  0  0  0  0  0  0
   -2.9930    2.8000   -0.0120 C   0  0  0  0  0  0  0  0  0  0  0  0
   -3.8970    1.9500   -0.4680 C   0  0  0  0  0  0  0  0  0  0  0  0
   -3.4250    0.9600   -1.2850 O   0  0  0  0  0  0  0  0  0  0  0  0
  1  2  1  0
  3  2  1  6
  3  4  1  0
  3 31  1  0
  3 35  1  0
  4  5  1  0
  5  6  1  0
  5 13  2  0
  6  7  2  3
  6 10  1  0
  7  8  1  0
  8  9  2  0
 10 11  2  0
 10 12  1  0
 13 14  1  0
 14 15  1  0
 14 16  1  0
 16 17  1  0
 17 18  2  3
 17 20  1  0
 18 19  1  0
 20 21  1  0
 20 26  1  0
 21 22  1  0
 22 23  1  0
 23 24  1  0
 23 25  1  0
 26 27  2  0
 26 28  1  0
 28 29  1  0
 28 30  2  0
 30 31  1  0
 31 32  2  0
 32 33  1  0
 33 34  2  0
 34 35  1  0
M  END
