
     RDKit          3D

 35 37  0  0  0  0  0  0  0  0999 V2000
   -4.1230   -2.4700   -1.9980 C   0  0  0  0  0  0  0  0  0  0  0  0
   -2.8610   -2.9600   -1.3950 C   0  0  0  0  0  0  0  0  0  0  0  0
   -2.6860   -4.5880   -1.3710 S   0  0  0  0  0  0  0  0  0  0  0  0
   -1.8250   -2.1610   -0.8540 N   0  0  0  0  0  0  0  0  0  0  0  0
   -0.6600   -2.9730   -0.3260 C   0  0  0  0  0  0  0  0  0  0  0  0
    0.5920   -2.6800   -1.1250 C   0  0  0  0  0  0  0  0  0  0  0  0
    1.1080   -1.4710   -0.8280 O   0  0  0  0  0  0  0  0  0  0  0  0
    2.0640   -1.3170    0.1110 C   0  0  1  0  0  0  0  0  0  0  0  0
    1.5240   -0.5020    1.3080 C   0  0  0  0  0  0  0  0  0  0  0  0
    2.4000   -2.6150    0.6660 N   0  0  0  0  0  0  0  0  0  0  0  0
    3.2920   -0.6040   -0.3160 C   0  0  0  0  0  0  0  0  0  0  0  0
    4.5510   -1.0820   -0.3290 C   0  0  0  0  0  0  0  0  0  0  0  0
    5.3980    0.0200   -0.8360 C   0  0  0  0  0  0  0  0  0  0  0  0
    4.6640    1.1560   -0.4400 O   0  0  0  0  0  0  0  0  0  0  0  0
    3.3960    0.7070   -0.7860 N   0  0  0  0  0  0  0  0  0  0  0  0
    2.4670    1.4540   -1.4800 N   0  0  0  0  0  0  0  0  0  0  0  0
    2.5790    3.1990   -1.0990 P   0  0  0  0  0  0  0  0  0  0  0  0
    1.3980    4.4560   -2.4370 P   0  0  0  0  0  0  0  0  0  0  0  0
    0.0820    5.2810   -1.7810 O   0  0  0  0  0  0  0  0  0  0  0  0
   -1.1180    4.9880   -1.2330 C   0  0  0  0  0  0  0  0  0  0  0  0
   -2.1630    5.1340   -2.0000 O   0  0  0  0  0  0  0  0  0  0  0  0
   -1.4190    4.5360    0.0920 N   0  0  0  0  0  0  0  0  0  0  0  0
   -0.8700    3.3340    0.6940 C   0  0  0  0  0  0  0  0  0  0  0  0
   -0.0310    3.7340    1.6650 O   0  0  0  0  0  0  0  0  0  0  0  0
   -1.2170    1.9700    0.2610 C   0  0  0  0  0  0  0  0  0  0  0  0
   -0.7200    1.4890   -0.9380 C   0  0  0  0  0  0  0  0  0  0  0  0
   -0.9250    0.1430   -1.3940 C   0  0  0  0  0  0  0  0  0  0  0  0
   -1.6270   -0.7580   -0.6720 C   0  0  0  0  0  0  0  0  0  0  0  0
   -2.0980   -0.2350    0.4790 N   0  0  0  0  0  0  0  0  0  0  0  0
   -1.9520    1.0180    0.9750 C   0  0  0  0  0  0  0  0  0  0  0  0
   -2.6420    1.0980    2.2060 O   0  0  0  0  0  0  0  0  0  0  0  0
   -3.3680    0.2940    2.9570 C   0  0  0  0  0  0  0  0  0  0  0  0
   -2.8470   -0.9900    3.5070 C   0  0  2  0  0  0  0  0  0  0  0  0
   -1.7000   -0.8850    4.2660 O   0  0  0  0  0  0  0  0  0  0  0  0
   -2.8800   -2.3240    2.3660 Cl  0  0  0  0  0  0  0  0  0  0  0  0
  1  2  1  0
  2  3  2  0
  2  4  1  0
  4  5  1  0
  4 28  1  0
  5  6  1  0
  6  7  1  0
  7  8  1  0
  8  9  1  1
  8 10  1  0
  8 11  1  0
 11 12  2  0
 11 15  1  0
 12 13  1  0
 13 14  1  0
 14 15  1  0
 15 16  1  0
 16 17  1  0
 17 18  1  0
 18 19  1  0
 19 20  1  0
 20 21  2  0
 20 22  1  0
 22 23  1  0
 23 24  2  0
 23 25  1  0
 25 26  2  0
 25 30  1  0
 26 27  1  0
 27 28  2  0
 28 29  1  0
 29 30  2  0
 30 31  1  0
 31 32  1  0
 32 33  1  0
 33 34  1  6
 33 35  1  0
M  END
