
     RDKit          3D

 35 37  0  0  0  0  0  0  0  0999 V2000
   -5.9370   -1.9660   -1.6590 C   0  0  0  0  0  0  0  0  0  0  0  0
   -4.7230   -2.0800   -0.9390 N   0  0  0  0  0  0  0  0  0  0  0  0
   -4.5630   -1.1280    0.1410 C   0  0  0  0  0  0  0  0  0  0  0  0
   -3.2230   -0.4810   -0.1230 C   0  0  0  0  0  0  0  0  0  0  0  0
   -2.2660   -1.4200    0.0570 C   0  0  0  0  0  0  0  0  0  0  0  0
   -0.8860   -1.2820   -0.0790 N   0  0  0  0  0  0  0  0  0  0  0  0
   -0.0790   -0.1190    0.2750 C   0  0  1  0  0  0  0  0  0  0  0  0
   -0.2200    0.2260    1.6670 N   0  0  0  0  0  0  0  0  0  0  0  0
    1.3290   -0.4790    0.1200 N   0  0  0  0  0  0  0  0  0  0  0  0
    1.8120   -1.5980    0.4270 C   0  0  0  0  0  0  0  0  0  0  0  0
    3.2230   -1.8280    0.2250 N   0  0  0  0  0  0  0  0  0  0  0  0
    4.0580   -0.7950   -0.3180 C   0  0  0  0  0  0  0  0  0  0  0  0
    5.4660   -1.1810   -0.4630 C   0  0  0  0  0  0  0  0  0  0  0  0
    5.9130   -2.3700   -0.1230 C   0  0  0  0  0  0  0  0  0  0  0  0
    7.6780   -2.6970   -0.3620 S   0  0  0  0  0  0  0  0  0  0  0  0
    8.0750   -4.6500    0.2640 Cl  0  0  0  0  0  0  0  0  0  0  0  0
    5.0950   -3.3360    0.3920 O   0  0  0  0  0  0  0  0  0  0  0  0
    3.7590   -3.0960    0.5760 C   0  0  0  0  0  0  0  0  0  0  0  0
    2.9650   -3.9650    1.0510 O   0  0  0  0  0  0  0  0  0  0  0  0
   -0.3510    0.8550   -0.6450 O   0  0  0  0  0  0  0  0  0  0  0  0
    0.0530    2.1340   -0.8110 C   0  0  0  0  0  0  0  0  0  0  0  0
    0.0940    2.5330   -2.0340 O   0  0  0  0  0  0  0  0  0  0  0  0
    0.4490    3.1240    0.1960 C   0  0  0  0  0  0  0  0  0  0  0  0
    1.7860    3.7570    0.0070 C   0  0  0  0  0  0  0  0  0  0  0  0
    2.6050    3.4670   -0.9660 C   0  0  0  0  0  0  0  0  0  0  0  0
    3.8170    4.0990   -1.0640 O   0  0  0  0  0  0  0  0  0  0  0  0
    4.2100    5.6020   -0.2450 P   0  0  0  0  0  0  0  0  0  0  0  0
   -0.2770    3.5110    1.2190 C   0  0  0  0  0  0  0  0  0  0  0  0
   -1.5740    3.1680    1.6970 C   0  0  0  0  0  0  0  0  0  0  0  0
   -2.6410    2.5980    1.2060 C   0  0  0  0  0  0  0  0  0  0  0  0
   -2.9720    2.0540   -0.0540 N   0  0  0  0  0  0  0  0  0  0  0  0
   -3.0900    0.7800   -0.4660 O   0  0  0  0  0  0  0  0  0  0  0  0
   -2.8620   -3.1270    0.5600 P   0  0  0  0  0  0  0  0  0  0  0  0
   -1.7010   -4.3200    0.1550 O   0  0  0  0  0  0  0  0  0  0  0  0
   -4.3600   -3.4160   -0.5480 C   0  0  0  0  0  0  0  0  0  0  0  0
  1  2  1  0
  2  3  1  0
  2 35  1  0
  3  4  1  0
  4  5  2  0
  4 32  1  0
  5  6  1  0
  5 33  1  0
  6  7  1  0
  7  8  1  1
  7  9  1  0
  7 20  1  0
  9 10  2  3
 10 11  1  0
 11 12  1  0
 11 18  1  0
 12 13  1  0
 13 14  2  0
 14 15  1  0
 14 17  1  0
 15 16  1  0
 17 18  1  0
 18 19  2  0
 20 21  1  0
 21 22  2  0
 21 23  1  0
 23 24  1  0
 23 28  2  0
 24 25  2  3
 25 26  1  0
 26 27  1  0
 28 29  1  0
 29 30  2  0
 30 31  1  0
 31 32  1  0
 33 34  1  0
 33 35  1  0
M  END
