
     RDKit          3D

 33 35  0  0  0  0  0  0  0  0999 V2000
   -4.6770   -2.5680    1.9260 C   0  0  0  0  0  0  0  0  0  0  0  0
   -5.1900   -1.8980    0.6900 C   0  0  0  0  0  0  0  0  0  0  0  0
   -4.8720   -0.4190    0.7720 C   0  0  1  0  0  0  0  0  0  0  0  0
   -5.5610    0.1320    1.9670 C   0  0  0  0  0  0  0  0  0  0  0  0
   -3.4740   -0.3410    0.8260 O   0  0  0  0  0  0  0  0  0  0  0  0
   -2.9880    0.9540    0.8750 C   0  0  1  0  0  0  0  0  0  0  0  0
   -2.4270    1.4100    2.1930 C   0  0  0  0  0  0  0  0  0  0  0  0
   -2.2960    1.5000   -0.2990 C   0  0  0  0  0  0  0  0  0  0  0  0
   -1.0720    0.9290   -0.8160 C   0  0  0  0  0  0  0  0  0  0  0  0
    0.0480    0.7940   -0.0060 C   0  0  0  0  0  0  0  0  0  0  0  0
    1.2650    0.4230   -0.5250 C   0  0  0  0  0  0  0  0  0  0  0  0
    2.5160    0.1300    0.0390 C   0  0  0  0  0  0  0  0  0  0  0  0
    2.7010    0.4230    1.3900 N   0  0  0  0  0  0  0  0  0  0  0  0
    3.6610   -0.0670    2.2400 C   0  0  0  0  0  0  0  0  0  0  0  0
    4.9870   -0.5700    1.6340 C   0  0  0  0  0  0  0  0  0  0  0  0
    5.5590   -0.9510    2.8910 O   0  0  0  0  0  0  0  0  0  0  0  0
    7.0260   -0.2610    3.2220 P   0  0  0  0  0  0  0  0  0  0  0  0
    7.8800    0.6070    2.1140 O   0  0  0  0  0  0  0  0  0  0  0  0
    7.1140    0.1630    4.8720 O   0  0  0  0  0  0  0  0  0  0  0  0
    3.2770   -0.2570   -0.9700 N   0  0  0  0  0  0  0  0  0  0  0  0
    2.6810   -0.2440   -2.1210 N   0  0  0  0  0  0  0  0  0  0  0  0
    3.1310   -0.4280   -3.4970 C   0  0  2  0  0  0  0  0  0  0  0  0
    2.3150    0.6810   -4.3000 C   0  0  0  0  0  0  0  0  0  0  0  0
    2.6780   -1.7190   -4.1250 C   0  0  0  0  0  0  0  0  0  0  0  0
    4.3400   -2.5540   -4.1260 S   0  0  0  0  0  0  0  0  0  0  0  0
    5.2360   -1.0030   -4.1550 C   0  0  0  0  0  0  0  0  0  0  0  0
    4.4380   -0.1370   -3.8040 N   0  0  0  0  0  0  0  0  0  0  0  0
    1.4260    0.1660   -1.8870 C   0  0  0  0  0  0  0  0  0  0  0  0
    0.2790    0.3100   -2.6110 N   0  0  0  0  0  0  0  0  0  0  0  0
   -0.8860    0.6620   -2.1260 N   0  0  0  0  0  0  0  0  0  0  0  0
   -5.4170    0.4990   -0.7210 P   0  0  0  0  0  0  0  0  0  0  0  0
   -6.2320    1.9740   -0.3910 O   0  0  0  0  0  0  0  0  0  0  0  0
   -6.1930   -0.4870   -1.8860 O   0  0  0  0  0  0  0  0  0  0  0  0
  1  2  1  0
  2  3  1  0
  3  4  1  1
  3  5  1  0
  3 31  1  0
  5  6  1  0
  6  7  1  1
  6  8  1  0
  8  9  1  0
  9 10  2  0
  9 30  1  0
 10 11  1  0
 11 12  1  0
 11 28  2  0
 12 13  1  0
 12 20  2  0
 13 14  1  0
 14 15  1  0
 15 16  1  0
 16 17  1  0
 17 18  1  0
 17 19  1  0
 20 21  1  0
 21 22  1  0
 21 28  1  0
 22 23  1  6
 22 24  1  0
 22 27  1  0
 24 25  1  0
 25 26  1  0
 26 27  2  0
 28 29  1  0
 29 30  2  0
 31 32  1  0
 31 33  1  0
M  END
