
     RDKit          3D

 34 37  0  0  0  0  0  0  0  0999 V2000
   -0.8130   -1.1250   -2.5600 C   0  0  0  0  0  0  0  0  0  0  0  0
   -0.5070   -0.6480   -1.3990 C   0  0  0  0  0  0  0  0  0  0  0  0
    0.8120    0.0130   -0.9790 C   0  0  0  0  0  0  0  0  0  0  0  0
    0.9680   -0.6660    0.3060 N   0  0  0  0  0  0  0  0  0  0  0  0
    2.0610   -0.2430    1.0840 C   0  0  1  0  0  0  0  0  0  0  0  0
    2.0540    1.1270    1.5850 C   0  0  0  0  0  0  0  0  0  0  0  0
    2.9320    1.5660    2.3460 O   0  0  0  0  0  0  0  0  0  0  0  0
    1.0780    1.9840    1.2370 F   0  0  0  0  0  0  0  0  0  0  0  0
    2.4200   -1.2320    2.1680 C   0  0  0  0  0  0  0  0  0  0  0  0
    2.3940   -2.6510    1.6550 C   0  0  0  0  0  0  0  0  0  0  0  0
    2.9160   -2.7200    0.3200 O   0  0  0  0  0  0  0  0  0  0  0  0
    3.7130   -1.6230   -0.0710 C   0  0  0  0  0  0  0  0  0  0  0  0
    4.8390   -1.8090   -0.6110 O   0  0  0  0  0  0  0  0  0  0  0  0
    3.2320   -0.3240    0.1500 N   0  0  0  0  0  0  0  0  0  0  0  0
    3.7810    0.8180   -0.4540 C   0  0  0  0  0  0  0  0  0  0  0  0
    3.2330    1.9500   -0.1730 O   0  0  0  0  0  0  0  0  0  0  0  0
    4.8950    0.8950   -1.3610 C   0  0  0  0  0  0  0  0  0  0  0  0
    5.3180    2.0580   -1.8560 C   0  0  0  0  0  0  0  0  0  0  0  0
    6.4090    2.1300   -2.7450 N   0  0  0  0  0  0  0  0  0  0  0  0
    7.6700    1.9680   -2.3170 O   0  0  0  0  0  0  0  0  0  0  0  0
   -0.2910   -0.7110    0.9090 N   0  0  0  0  0  0  0  0  0  0  0  0
   -0.7480   -0.8370    2.2580 C   0  0  0  0  0  0  0  0  0  0  0  0
   -2.1890   -0.6550    2.4800 C   0  0  0  0  0  0  0  0  0  0  0  0
   -3.0430   -0.4650    1.3660 N   0  0  0  0  0  0  0  0  0  0  0  0
   -4.4550   -0.2990    1.3330 C   0  0  0  0  0  0  0  0  0  0  0  0
   -5.5020   -0.2800    2.5960 S   0  0  0  0  0  0  0  0  0  0  0  0
   -4.8370   -0.1470   -0.0100 N   0  0  0  0  0  0  0  0  0  0  0  0
   -6.5180    0.0930   -0.5960 P   0  0  0  0  0  0  0  0  0  0  0  0
   -6.4890    0.6280   -2.3860 C   0  0  0  0  0  0  0  0  0  0  0  0
   -7.4870    1.7310    0.5390 P   0  0  0  0  0  0  0  0  0  0  0  0
   -3.6860   -0.2100   -0.8670 C   0  0  0  0  0  0  0  0  0  0  0  0
   -3.6490   -0.1100   -2.0990 O   0  0  0  0  0  0  0  0  0  0  0  0
   -2.5570   -0.4140    0.0370 C   0  0  0  0  0  0  0  0  0  0  0  0
   -1.2530   -0.5920   -0.1490 C   0  0  0  0  0  0  0  0  0  0  0  0
  1  2  2  0
  2  3  1  0
  2 34  1  0
  3  4  1  0
  5  4  1  6
  4 21  1  0
  5  6  1  0
  5  9  1  0
  5 14  1  0
  6  7  2  0
  6  8  1  0
  9 10  1  0
 10 11  1  0
 11 12  1  0
 12 13  2  0
 12 14  1  0
 14 15  1  0
 15 16  2  0
 15 17  1  0
 17 18  2  3
 18 19  1  0
 19 20  1  0
 21 22  1  0
 21 34  1  0
 22 23  1  0
 23 24  1  0
 24 25  1  0
 24 33  1  0
 25 26  2  0
 25 27  1  0
 27 28  1  0
 27 31  1  0
 28 29  1  0
 28 30  1  0
 31 32  2  0
 31 33  1  0
 33 34  2  0
M  END
