
     RDKit          3D

 22 23  0  0  0  0  0  0  0  0999 V2000
   -3.2960    2.4480    0.6730 O   0  0  0  0  0  0  0  0  0  0  0  0
   -2.2300    2.4320   -0.2570 C   0  0  0  0  0  0  0  0  0  0  0  0
   -1.9860    1.0840   -0.8470 C   0  0  0  0  0  0  0  0  0  0  0  0
   -1.6460   -0.0370    0.0310 C   0  0  1  0  0  0  0  0  0  0  0  0
   -2.6910   -0.2010    0.9790 O   0  0  0  0  0  0  0  0  0  0  0  0
   -1.8210   -1.3130   -0.8490 C   0  0  2  0  0  0  0  0  0  0  0  0
   -3.2030   -1.8750   -0.7470 C   0  0  0  0  0  0  0  0  0  0  0  0
   -4.1950   -1.0040   -1.1260 O   0  0  0  0  0  0  0  0  0  0  0  0
   -0.9340   -2.3080   -0.4820 O   0  0  0  0  0  0  0  0  0  0  0  0
   -0.8990   -2.4410    0.8720 C   0  0  0  0  0  0  0  0  0  0  0  0
   -0.5340   -1.3330    1.5680 O   0  0  0  0  0  0  0  0  0  0  0  0
   -0.3960   -0.1740    0.7170 C   0  0  1  0  0  0  0  0  0  0  0  0
    0.8860   -0.3840    0.0030 C   0  0  0  0  0  0  0  0  0  0  0  0
    1.8260   -0.4240    1.2240 C   0  0  1  0  0  0  0  0  0  0  0  0
    3.0790    0.3390    1.0250 C   0  0  0  0  0  0  0  0  0  0  0  0
    3.7630   -0.1650   -0.0800 O   0  0  0  0  0  0  0  0  0  0  0  0
    4.9490    0.5070   -0.3230 C   0  0  2  0  0  0  0  0  0  0  0  0
    4.8860    1.0160   -1.6280 O   0  0  0  0  0  0  0  0  0  0  0  0
    6.0130   -0.3780   -0.2280 O   0  0  0  0  0  0  0  0  0  0  0  0
    1.0980    0.0380    2.3160 O   0  0  0  0  0  0  0  0  0  0  0  0
    0.0630    0.8530    1.7210 C   0  0  1  0  0  0  0  0  0  0  0  0
    0.7550    1.9220    1.2490 O   0  0  0  0  0  0  0  0  0  0  0  0
  1  2  1  0
  2  3  1  0
  3  4  1  0
  4  5  1  1
  4  6  1  0
  4 12  1  0
  6  7  1  1
  6  9  1  0
  7  8  1  0
  9 10  1  0
 10 11  1  0
 11 12  1  0
 12 13  1  6
 12 21  1  0
 13 14  1  0
 14 15  1  6
 14 20  1  0
 15 16  1  0
 16 17  1  0
 17 18  1  6
 17 19  1  0
 20 21  1  0
 21 22  1  6
M  END
