
     RDKit          3D

 23 25  0  0  0  0  0  0  0  0999 V2000
   -2.1830    3.5070    0.2910 C   0  0  0  0  0  0  0  0  0  0  0  0
   -0.9120    2.6600    0.1860 C   0  0  0  0  0  0  0  0  0  0  0  0
   -1.3110    1.3230    0.1370 O   0  0  0  0  0  0  0  0  0  0  0  0
   -0.4630    0.2520    0.0420 C   0  0  0  0  0  0  0  0  0  0  0  0
    0.8660    0.4170   -0.0140 N   0  0  0  0  0  0  0  0  0  0  0  0
    1.7450   -0.5700   -0.1070 C   0  0  0  0  0  0  0  0  0  0  0  0
    3.1870   -0.2990   -0.1630 C   0  0  0  0  0  0  0  0  0  0  0  0
    3.6710    0.9920   -0.1210 C   0  0  0  0  0  0  0  0  0  0  0  0
    5.0250    1.2280   -0.1750 C   0  0  0  0  0  0  0  0  0  0  0  0
    5.4900    2.5650   -0.1300 N   0  0  0  0  0  0  0  0  0  0  0  0
    5.8620    0.1960   -0.2680 N   0  0  0  0  0  0  0  0  0  0  0  0
    5.4150   -1.0840   -0.3110 C   0  0  0  0  0  0  0  0  0  0  0  0
    4.0820   -1.2990   -0.2580 N   0  0  0  0  0  0  0  0  0  0  0  0
    1.2940   -1.8210   -0.1490 N   0  0  0  0  0  0  0  0  0  0  0  0
   -0.0440   -2.0610   -0.0960 C   0  0  0  0  0  0  0  0  0  0  0  0
   -0.4630   -3.4170   -0.1450 N   0  0  0  0  0  0  0  0  0  0  0  0
   -0.9580   -1.0310    0.0010 C   0  0  0  0  0  0  0  0  0  0  0  0
   -2.3930   -1.3170    0.0560 C   0  0  0  0  0  0  0  0  0  0  0  0
   -3.1360   -1.3930   -1.1050 C   0  0  0  0  0  0  0  0  0  0  0  0
   -4.4910   -1.6610   -1.0940 C   0  0  0  0  0  0  0  0  0  0  0  0
   -5.1320   -1.8600    0.1110 C   0  0  0  0  0  0  0  0  0  0  0  0
   -4.3730   -1.7800    1.2600 C   0  0  0  0  0  0  0  0  0  0  0  0
   -3.0540   -1.5170    1.2100 N   0  0  0  0  0  0  0  0  0  0  0  0
  1  2  1  0
  2  3  1  0
  3  4  1  0
  4  5  2  0
  4 17  1  0
  5  6  1  0
  6  7  1  0
  6 14  2  0
  7  8  2  0
  7 13  1  0
  8  9  1  0
  9 10  1  0
  9 11  2  0
 11 12  1  0
 12 13  2  0
 14 15  1  0
 15 16  1  0
 15 17  2  0
 17 18  1  0
 18 19  2  0
 18 23  1  0
 19 20  1  0
 20 21  2  0
 21 22  1  0
 22 23  2  0
M  END
