
     RDKit          3D

 23 25  0  0  0  0  0  0  0  0999 V2000
   -0.4000   -0.8250    1.9940 C   0  0  0  0  0  0  0  0  0  0  0  0
   -1.1380   -0.3280    0.8080 C   0  0  0  0  0  0  0  0  0  0  0  0
   -2.5390   -0.3000    0.8880 C   0  0  0  0  0  0  0  0  0  0  0  0
   -3.2670    0.1490   -0.1780 C   0  0  0  0  0  0  0  0  0  0  0  0
   -4.7010    0.2060   -0.1680 C   0  0  0  0  0  0  0  0  0  0  0  0
   -5.3860    0.6750   -1.2890 C   0  0  0  0  0  0  0  0  0  0  0  0
   -6.7500    0.7360   -1.2990 C   0  0  0  0  0  0  0  0  0  0  0  0
   -7.4650    0.3490   -0.2370 N   0  0  0  0  0  0  0  0  0  0  0  0
   -6.8470   -0.1070    0.8600 C   0  0  0  0  0  0  0  0  0  0  0  0
   -5.4490   -0.1850    0.9070 C   0  0  0  0  0  0  0  0  0  0  0  0
   -2.6000    0.5510   -1.2720 N   0  0  0  0  0  0  0  0  0  0  0  0
   -1.2540    0.5280   -1.3590 C   0  0  0  0  0  0  0  0  0  0  0  0
   -0.4640    0.0910   -0.3300 C   0  0  0  0  0  0  0  0  0  0  0  0
    0.9390    0.0260   -0.3160 N   0  0  0  0  0  0  0  0  0  0  0  0
    1.8280    0.3940   -1.3510 C   0  0  0  0  0  0  0  0  0  0  0  0
    1.3700    0.8320   -2.4170 O   0  0  0  0  0  0  0  0  0  0  0  0
    3.2970    0.2590   -1.1640 C   0  0  0  0  0  0  0  0  0  0  0  0
    4.2160    0.5840   -2.0900 N   0  0  0  0  0  0  0  0  0  0  0  0
    5.4260    0.3280   -1.5690 N   0  0  0  0  0  0  0  0  0  0  0  0
    5.2930   -0.1550   -0.3230 C   0  0  0  0  0  0  0  0  0  0  0  0
    6.4110   -0.5520    0.5710 C   0  0  0  0  0  0  0  0  0  0  0  0
    7.6660   -0.3480   -0.0850 N   0  0  0  0  0  0  0  0  0  0  0  0
    3.9660   -0.1850   -0.1040 N   0  0  0  0  0  0  0  0  0  0  0  0
  1  2  1  0
  2  3  2  0
  2 13  1  0
  3  4  1  0
  4  5  1  0
  4 11  2  0
  5  6  2  0
  5 10  1  0
  6  7  1  0
  7  8  2  0
  8  9  1  0
  9 10  2  0
 11 12  1  0
 12 13  2  0
 13 14  1  0
 14 15  1  0
 15 16  2  0
 15 17  1  0
 17 18  2  0
 17 23  1  0
 18 19  1  0
 19 20  1  0
 20 21  1  0
 20 23  2  0
 21 22  1  0
M  END
