
     RDKit          3D

 23 25  0  0  0  0  0  0  0  0999 V2000
   -4.1420   -3.0240   -1.2880 C   0  0  0  0  0  0  0  0  0  0  0  0
   -4.5650   -1.7390   -0.6500 C   0  0  0  0  0  0  0  0  0  0  0  0
   -3.6470   -0.9100   -0.2180 C   0  0  0  0  0  0  0  0  0  0  0  0
   -2.2980   -1.2680   -0.3740 C   0  0  0  0  0  0  0  0  0  0  0  0
   -1.3080   -0.4250    0.0660 C   0  0  0  0  0  0  0  0  0  0  0  0
    0.0660   -0.8270   -0.1120 N   0  0  0  0  0  0  0  0  0  0  0  0
    1.0850    0.0180    0.3280 N   0  0  0  0  0  0  0  0  0  0  0  0
    2.4170   -0.1470   -0.1990 C   0  0  0  0  0  0  0  0  0  0  0  0
    2.6140   -1.0620   -1.0480 O   0  0  0  0  0  0  0  0  0  0  0  0
    3.4250    0.7290    0.2680 N   0  0  0  0  0  0  0  0  0  0  0  0
    4.7590    0.6660   -0.1640 C   0  0  0  0  0  0  0  0  0  0  0  0
    5.3060   -0.3790   -0.8420 C   0  0  0  0  0  0  0  0  0  0  0  0
    6.6510   -0.3390   -1.2470 C   0  0  0  0  0  0  0  0  0  0  0  0
    7.3780    0.7820   -0.9360 C   0  0  0  0  0  0  0  0  0  0  0  0
    6.8280    1.8180   -0.2610 N   0  0  0  0  0  0  0  0  0  0  0  0
    5.5570    1.7650    0.1150 C   0  0  0  0  0  0  0  0  0  0  0  0
   -1.5990    0.7440    0.6470 N   0  0  0  0  0  0  0  0  0  0  0  0
   -2.8890    1.1100    0.8080 C   0  0  0  0  0  0  0  0  0  0  0  0
   -3.9450    0.3090    0.3880 C   0  0  0  0  0  0  0  0  0  0  0  0
   -5.1960    0.6790    0.5510 C   0  0  0  0  0  0  0  0  0  0  0  0
   -5.4880    1.9490    1.1830 N   0  0  0  0  0  0  0  0  0  0  0  0
   -4.5440    2.7270    1.5900 C   0  0  0  0  0  0  0  0  0  0  0  0
   -3.1820    2.3600    1.4300 N   0  0  0  0  0  0  0  0  0  0  0  0
  1  2  1  0
  2  3  2  3
  3  4  1  0
  3 19  1  0
  4  5  2  0
  5  6  1  0
  5 17  1  0
  6  7  1  0
  7  8  1  0
  8  9  2  0
  8 10  1  0
 10 11  1  0
 11 12  2  0
 11 16  1  0
 12 13  1  0
 13 14  2  0
 14 15  1  0
 15 16  2  0
 17 18  2  0
 18 19  1  0
 18 23  1  0
 19 20  2  0
 20 21  1  0
 21 22  2  0
 22 23  1  0
M  END
