
     RDKit          3D

 23 25  0  0  0  0  0  0  0  0999 V2000
    4.7150   -0.9860   -3.8790 N   0  0  0  0  0  0  0  0  0  0  0  0
    4.1430   -0.2480   -2.8160 C   0  0  0  0  0  0  0  0  0  0  0  0
    4.5300   -0.4950   -1.5790 C   0  0  0  0  0  0  0  0  0  0  0  0
    5.4850   -1.4460   -1.1580 N   0  0  0  0  0  0  0  0  0  0  0  0
    5.5980   -1.4020    0.1380 C   0  0  0  0  0  0  0  0  0  0  0  0
    4.6820   -0.3790    0.6300 C   0  0  0  0  0  0  0  0  0  0  0  0
    4.0400    0.1690   -0.3770 C   0  0  0  0  0  0  0  0  0  0  0  0
    3.0710    1.1990   -0.2630 N   0  0  0  0  0  0  0  0  0  0  0  0
    1.7290    1.0250   -0.7180 C   0  0  0  0  0  0  0  0  0  0  0  0
    1.4020   -0.0660   -1.2280 O   0  0  0  0  0  0  0  0  0  0  0  0
    0.7560    2.0370   -0.6150 N   0  0  0  0  0  0  0  0  0  0  0  0
   -0.5560    1.8940   -1.0530 N   0  0  0  0  0  0  0  0  0  0  0  0
   -1.5330    1.2210   -0.2930 C   0  0  0  0  0  0  0  0  0  0  0  0
   -2.8300    1.0580   -0.7000 C   0  0  0  0  0  0  0  0  0  0  0  0
   -3.7750    0.3930    0.0680 C   0  0  0  0  0  0  0  0  0  0  0  0
   -3.3730   -0.1240    1.3010 C   0  0  0  0  0  0  0  0  0  0  0  0
   -4.3160   -0.8070    2.1110 N   0  0  0  0  0  0  0  0  0  0  0  0
   -5.6510   -0.5290    2.0790 C   0  0  0  0  0  0  0  0  0  0  0  0
   -6.3180   -1.3510    2.9720 C   0  0  0  0  0  0  0  0  0  0  0  0
   -5.3640   -2.1220    3.5360 N   0  0  0  0  0  0  0  0  0  0  0  0
   -4.1860   -1.7820    3.0100 C   0  0  0  0  0  0  0  0  0  0  0  0
   -2.0820    0.0230    1.7350 C   0  0  0  0  0  0  0  0  0  0  0  0
   -1.1660    0.6980    0.9320 C   0  0  0  0  0  0  0  0  0  0  0  0
  1  2  1  0
  2  3  2  3
  3  4  1  0
  3  7  1  0
  4  5  2  0
  5  6  1  0
  6  7  2  0
  7  8  1  0
  8  9  1  0
  9 10  2  0
  9 11  1  0
 11 12  1  0
 12 13  1  0
 13 14  2  0
 13 23  1  0
 14 15  1  0
 15 16  2  0
 16 17  1  0
 16 22  1  0
 17 18  1  0
 17 21  1  0
 18 19  2  0
 19 20  1  0
 20 21  2  0
 22 23  2  0
M  END
