
     RDKit          3D

 12 13  0  0  0  0  0  0  0  0999 V2000
   -2.6530   -2.0190   -0.2560 O   0  0  0  0  0  0  0  0  0  0  0  0
   -2.5620   -0.8000   -0.0310 N   0  0  0  0  0  0  0  0  0  0  0  0
   -3.7240   -0.0970    0.1560 O   0  0  0  0  0  0  0  0  0  0  0  0
   -1.2720   -0.2170    0.0190 C   0  0  0  0  0  0  0  0  0  0  0  0
   -1.1070    1.1420    0.2670 C   0  0  0  0  0  0  0  0  0  0  0  0
    0.1640    1.6790    0.3080 C   0  0  0  0  0  0  0  0  0  0  0  0
    1.2960    0.9190    0.1120 C   0  0  0  0  0  0  0  0  0  0  0  0
    2.6150    1.1820    0.1000 N   0  0  0  0  0  0  0  0  0  0  0  0
    3.2440    0.0340   -0.1450 N   0  0  0  0  0  0  0  0  0  0  0  0
    2.3730   -0.9380   -0.2870 N   0  0  0  0  0  0  0  0  0  0  0  0
    1.1440   -0.4420   -0.1370 C   0  0  0  0  0  0  0  0  0  0  0  0
   -0.1380   -0.9740   -0.1770 C   0  0  0  0  0  0  0  0  0  0  0  0
  1  2  2  0
  2  3  1  0
  2  4  1  0
  4  5  2  0
  4 12  1  0
  5  6  1  0
  6  7  2  0
  7  8  1  0
  7 11  1  0
  8  9  2  0
  9 10  1  0
 10 11  1  0
 11 12  2  0
M  CHG  2   2   1   3  -1
M  END
