
     RDKit          3D

 25 28  0  0  0  0  0  0  0  0999 V2000
   -7.7040    0.5390   -1.1100 O   0  0  0  0  0  0  0  0  0  0  0  0
   -6.4850    1.1410   -1.8180 S   0  0  0  0  0  0  0  0  0  0  0  0
   -4.9770    0.7210   -0.9860 C   0  0  0  0  0  0  0  0  0  0  0  0
   -3.8190    0.4250   -1.6730 C   0  0  0  0  0  0  0  0  0  0  0  0
   -2.6370    0.0950   -1.0310 C   0  0  0  0  0  0  0  0  0  0  0  0
   -1.2970   -0.4390   -2.0280 Cl  0  0  0  0  0  0  0  0  0  0  0  0
   -2.5590    0.0510    0.3270 C   0  0  0  0  0  0  0  0  0  0  0  0
   -1.4440   -0.3020    0.9920 C   0  0  0  0  0  0  0  0  0  0  0  0
   -0.0660   -0.3590    0.3710 C   0  0  0  0  0  0  0  0  0  0  0  0
    0.8840   -0.9540    0.3160 N   0  0  0  0  0  0  0  0  0  0  0  0
    2.0060   -0.7910   -0.3300 C   0  0  0  0  0  0  0  0  0  0  0  0
    3.4430   -1.9120   -0.2840 S   0  0  0  0  0  0  0  0  0  0  0  0
    4.7570   -1.2720   -1.3030 C   0  0  0  0  0  0  0  0  0  0  0  0
    5.3160   -0.0370   -0.7060 C   0  0  0  0  0  0  0  0  0  0  0  0
    6.3110   -0.0670    0.2810 C   0  0  0  0  0  0  0  0  0  0  0  0
    6.6200    1.2330    0.6060 C   0  0  0  0  0  0  0  0  0  0  0  0
    5.8390    1.9960   -0.1610 N   0  0  0  0  0  0  0  0  0  0  0  0
    5.0620    1.2400   -0.9430 N   0  0  0  0  0  0  0  0  0  0  0  0
    2.0250    0.3660   -1.1140 N   0  0  0  0  0  0  0  0  0  0  0  0
    0.3520    1.0700   -0.7850 S   0  0  0  0  0  0  0  0  0  0  0  0
   -1.4580   -0.3920    2.3990 C   0  0  0  0  0  0  0  0  0  0  0  0
   -2.5780   -0.1210    3.1380 C   0  0  0  0  0  0  0  0  0  0  0  0
   -3.7020    0.2480    2.4360 C   0  0  0  0  0  0  0  0  0  0  0  0
   -3.7210    0.3420    1.0530 C   0  0  0  0  0  0  0  0  0  0  0  0
   -4.8900    0.6670    0.3820 C   0  0  0  0  0  0  0  0  0  0  0  0
  1  2  2  0
  2  3  1  0
  3  4  2  0
  3 25  1  0
  4  5  1  0
  5  6  1  0
  5  7  2  0
  7  8  1  0
  7 24  1  0
  8  9  1  0
  8 21  2  0
  9 10  2  0
  9 20  1  0
 10 11  1  0
 11 12  1  0
 11 19  2  0
 12 13  1  0
 13 14  1  0
 14 15  2  0
 14 18  1  0
 15 16  1  0
 16 17  2  0
 17 18  1  0
 19 20  1  0
 21 22  1  0
 22 23  2  0
 23 24  1  0
 24 25  2  0
M  END
