
     RDKit          3D

 25 28  0  0  0  0  0  0  0  0999 V2000
    2.6580    1.0580   -0.8490 O   0  0  0  0  0  0  0  0  0  0  0  0
    3.5020    0.3110   -0.2770 C   0  0  0  0  0  0  0  0  0  0  0  0
    2.9480   -0.6760    0.5830 N   0  0  0  0  0  0  0  0  0  0  0  0
    1.5650   -0.8030    0.7780 C   0  0  0  0  0  0  0  0  0  0  0  0
    0.4890   -0.3080    0.4320 N   0  0  0  0  0  0  0  0  0  0  0  0
   -0.6970   -0.6630    0.8040 C   0  0  0  0  0  0  0  0  0  0  0  0
   -1.9340   -0.1120    0.4230 C   0  0  0  0  0  0  0  0  0  0  0  0
   -3.1060   -0.5810    0.8890 C   0  0  0  0  0  0  0  0  0  0  0  0
   -4.3880    0.0620    0.4330 C   0  0  0  0  0  0  0  0  0  0  0  0
   -4.5940    1.0850   -0.4100 C   0  0  0  0  0  0  0  0  0  0  0  0
   -5.8640    1.4750   -0.6550 C   0  0  0  0  0  0  0  0  0  0  0  0
   -6.8510    0.8290   -0.0510 C   0  0  0  0  0  0  0  0  0  0  0  0
   -8.6870    1.0370   -0.1090 S   0  0  0  0  0  0  0  0  0  0  0  0
   -5.9770   -0.4250    0.9420 S   0  0  0  0  0  0  0  0  0  0  0  0
   -3.1970   -1.6210    1.7650 C   0  0  0  0  0  0  0  0  0  0  0  0
   -1.9900   -2.2020    2.1740 C   0  0  0  0  0  0  0  0  0  0  0  0
   -0.8070   -1.7180    1.6940 C   0  0  0  0  0  0  0  0  0  0  0  0
    0.9130   -2.1370    1.9350 S   0  0  0  0  0  0  0  0  0  0  0  0
    4.9150    0.4890   -0.5160 C   0  0  0  0  0  0  0  0  0  0  0  0
    5.8400   -0.3150    0.0970 C   0  0  0  0  0  0  0  0  0  0  0  0
    7.1730   -0.1250   -0.1470 N   0  0  0  0  0  0  0  0  0  0  0  0
    7.5790    0.8440   -0.9840 C   0  0  0  0  0  0  0  0  0  0  0  0
    9.2910    1.0640   -1.2770 Cl  0  0  0  0  0  0  0  0  0  0  0  0
    6.6560    1.6490   -1.5980 C   0  0  0  0  0  0  0  0  0  0  0  0
    5.3260    1.4560   -1.3520 N   0  0  0  0  0  0  0  0  0  0  0  0
  1  2  2  0
  2  3  1  0
  2 19  1  0
  3  4  1  0
  4  5  2  0
  4 18  1  0
  5  6  1  0
  6  7  2  0
  6 17  1  0
  7  8  1  0
  8  9  1  0
  8 15  2  0
  9 10  2  0
  9 14  1  0
 10 11  1  0
 11 12  2  0
 12 13  1  0
 12 14  1  0
 15 16  1  0
 16 17  2  0
 17 18  1  0
 19 20  2  0
 19 25  1  0
 20 21  1  0
 21 22  2  0
 22 23  1  0
 22 24  1  0
 24 25  2  0
M  END
