
     RDKit          3D

 25 28  0  0  0  0  0  0  0  0999 V2000
   -7.8670   -0.7020    0.3860 C   0  0  0  0  0  0  0  0  0  0  0  0
   -6.4550   -0.2310    0.2060 C   0  0  0  0  0  0  0  0  0  0  0  0
   -5.3980   -0.9450    0.4020 N   0  0  0  0  0  0  0  0  0  0  0  0
   -4.2270   -0.6420    0.2800 C   0  0  0  0  0  0  0  0  0  0  0  0
   -2.9040   -1.1640    0.4100 C   0  0  0  0  0  0  0  0  0  0  0  0
   -2.3800   -2.3870    0.7770 C   0  0  0  0  0  0  0  0  0  0  0  0
   -1.0800   -2.4760    0.7730 N   0  0  0  0  0  0  0  0  0  0  0  0
   -0.2660   -1.7100    0.5170 C   0  0  0  0  0  0  0  0  0  0  0  0
    1.1960   -1.5390    0.4290 N   0  0  0  0  0  0  0  0  0  0  0  0
    1.7940   -0.3370    0.0420 C   0  0  0  0  0  0  0  0  0  0  0  0
    0.9910    0.6220   -0.2370 O   0  0  0  0  0  0  0  0  0  0  0  0
    3.2050   -0.0450   -0.0830 C   0  0  0  0  0  0  0  0  0  0  0  0
    3.8350    1.5500   -0.5920 S   0  0  0  0  0  0  0  0  0  0  0  0
    5.5590    1.1240   -0.5010 C   0  0  0  0  0  0  0  0  0  0  0  0
    5.5320   -0.1770   -0.0970 C   0  0  0  0  0  0  0  0  0  0  0  0
    4.3460   -0.7770    0.1170 C   0  0  0  0  0  0  0  0  0  0  0  0
    4.1510   -2.4940    0.6540 Cl  0  0  0  0  0  0  0  0  0  0  0  0
    6.9050   -0.7660    0.0510 C   0  0  0  0  0  0  0  0  0  0  0  0
    7.9320   -0.1090   -0.1780 N   0  0  0  0  0  0  0  0  0  0  0  0
    8.0600    1.2190   -0.5930 C   0  0  0  0  0  0  0  0  0  0  0  0
    6.7780    1.9230   -0.7770 C   0  0  0  0  0  0  0  0  0  0  0  0
   -1.3430   -0.2220    0.0810 S   0  0  0  0  0  0  0  0  0  0  0  0
   -4.4450    1.1620   -0.2740 S   0  0  0  0  0  0  0  0  0  0  0  0
   -6.2110    1.0910   -0.2100 C   0  0  0  0  0  0  0  0  0  0  0  0
   -7.1960    2.1700   -0.5200 C   0  0  0  0  0  0  0  0  0  0  0  0
  1  2  1  0
  2  3  1  0
  2 24  2  0
  3  4  2  0
  4  5  1  0
  4 23  1  0
  5  6  2  0
  5 22  1  0
  6  7  1  0
  7  8  2  0
  8  9  1  0
  8 22  1  0
  9 10  1  0
 10 11  2  0
 10 12  1  0
 12 13  1  0
 12 16  2  0
 13 14  1  0
 14 15  2  0
 14 21  1  0
 15 16  1  0
 15 18  1  0
 16 17  1  0
 18 19  2  0
 19 20  1  0
 20 21  1  0
 23 24  1  0
 24 25  1  0
M  END
