
     RDKit          3D

 24 27  0  0  0  0  0  0  0  0999 V2000
    7.6600    1.7460    0.1830 C   0  0  0  0  0  0  0  0  0  0  0  0
    6.6220    1.1320    0.9440 N   0  0  0  0  0  0  0  0  0  0  0  0
    5.3260    0.8090    0.3850 C   0  0  0  0  0  0  0  0  0  0  0  0
    4.3110    0.3340    0.7040 N   0  0  0  0  0  0  0  0  0  0  0  0
    3.2260    0.1450   -0.0400 C   0  0  0  0  0  0  0  0  0  0  0  0
    2.0060   -0.3800    0.1840 N   0  0  0  0  0  0  0  0  0  0  0  0
    1.1350   -0.5040   -0.5090 C   0  0  0  0  0  0  0  0  0  0  0  0
   -0.2760   -1.0180   -0.5640 C   0  0  0  0  0  0  0  0  0  0  0  0
   -0.7890   -1.5480    0.5840 C   0  0  0  0  0  0  0  0  0  0  0  0
   -2.0920   -2.0480    0.6170 C   0  0  0  0  0  0  0  0  0  0  0  0
   -2.8580   -1.9950   -0.5430 C   0  0  0  0  0  0  0  0  0  0  0  0
   -4.1840   -2.4800   -0.5910 N   0  0  0  0  0  0  0  0  0  0  0  0
   -5.1470   -1.6820   -0.3480 C   0  0  0  0  0  0  0  0  0  0  0  0
   -6.7760   -2.2980   -0.4120 Cl  0  0  0  0  0  0  0  0  0  0  0  0
   -4.8730   -0.2950   -0.0280 C   0  0  0  0  0  0  0  0  0  0  0  0
   -5.8480    0.6520    0.2520 C   0  0  0  0  0  0  0  0  0  0  0  0
   -5.1990    1.8220    0.5000 C   0  0  0  0  0  0  0  0  0  0  0  0
   -3.8620    1.5510    0.3650 C   0  0  0  0  0  0  0  0  0  0  0  0
   -3.6990    0.2970    0.0540 O   0  0  0  0  0  0  0  0  0  0  0  0
   -2.3350   -1.4550   -1.7140 C   0  0  0  0  0  0  0  0  0  0  0  0
   -1.0370   -0.9740   -1.6890 C   0  0  0  0  0  0  0  0  0  0  0  0
    1.8190    0.2210   -2.1000 S   0  0  0  0  0  0  0  0  0  0  0  0
    3.3730    0.5860   -1.3540 C   0  0  0  0  0  0  0  0  0  0  0  0
    5.0020    1.2120   -1.3990 S   0  0  0  0  0  0  0  0  0  0  0  0
  1  2  1  0
  2  3  1  0
  3  4  2  0
  3 24  1  0
  4  5  1  0
  5  6  1  0
  5 23  2  0
  6  7  2  0
  7  8  1  0
  7 22  1  0
  8  9  2  0
  8 21  1  0
  9 10  1  0
 10 11  2  0
 11 12  1  0
 11 20  1  0
 12 13  2  3
 13 14  1  0
 13 15  1  0
 15 16  2  0
 15 19  1  0
 16 17  1  0
 17 18  2  0
 18 19  1  0
 20 21  2  0
 22 23  1  0
 23 24  1  0
M  END
