
     RDKit          3D

 25 28  0  0  0  0  0  0  0  0999 V2000
    5.9150   -0.8180    0.7960 C   0  0  0  0  0  0  0  0  0  0  0  0
    4.5460   -1.1040    0.2570 C   0  0  0  0  0  0  0  0  0  0  0  0
    4.4180   -1.8390   -0.8950 C   0  0  0  0  0  0  0  0  0  0  0  0
    3.1600   -2.1100   -1.4030 C   0  0  0  0  0  0  0  0  0  0  0  0
    2.9720   -3.0490   -2.8750 Cl  0  0  0  0  0  0  0  0  0  0  0  0
    2.0260   -1.6380   -0.7470 C   0  0  0  0  0  0  0  0  0  0  0  0
    2.1350   -0.9000    0.4070 C   0  0  0  0  0  0  0  0  0  0  0  0
    0.9370   -0.3720    1.1450 C   0  0  0  0  0  0  0  0  0  0  0  0
    0.6310    0.9710    0.6010 C   0  0  0  0  0  0  0  0  0  0  0  0
   -0.1900    1.1930   -0.4280 N   0  0  0  0  0  0  0  0  0  0  0  0
   -0.2440    2.5190   -0.6620 C   0  0  0  0  0  0  0  0  0  0  0  0
   -1.0630    3.1280   -1.7380 C   0  0  0  0  0  0  0  0  0  0  0  0
   -2.7240    3.5410   -1.1800 S   0  0  0  0  0  0  0  0  0  0  0  0
   -3.5440    1.9650   -0.8170 C   0  0  0  0  0  0  0  0  0  0  0  0
   -3.3890    0.8430   -0.8160 N   0  0  0  0  0  0  0  0  0  0  0  0
   -4.2190   -0.1300   -0.4810 C   0  0  0  0  0  0  0  0  0  0  0  0
   -5.4530    0.2650   -0.0720 C   0  0  0  0  0  0  0  0  0  0  0  0
   -5.3410    2.0280   -0.1960 S   0  0  0  0  0  0  0  0  0  0  0  0
   -6.3750   -0.7860    0.2890 C   0  0  0  0  0  0  0  0  0  0  0  0
   -7.6560   -0.7490    0.2410 O   0  0  0  0  0  0  0  0  0  0  0  0
   -5.6930   -2.0170    0.7590 C   0  0  0  0  0  0  0  0  0  0  0  0
   -4.2330   -1.9150   -0.3730 S   0  0  0  0  0  0  0  0  0  0  0  0
    0.5550    3.0950    0.2370 N   0  0  0  0  0  0  0  0  0  0  0  0
    1.0880    2.1530    1.0070 N   0  0  0  0  0  0  0  0  0  0  0  0
    3.4140   -0.6510    0.8830 C   0  0  0  0  0  0  0  0  0  0  0  0
  1  2  1  0
  2  3  2  0
  2 25  1  0
  3  4  1  0
  4  5  1  0
  4  6  2  0
  6  7  1  0
  7  8  1  0
  7 25  2  0
  8  9  1  0
  9 10  2  0
  9 24  1  0
 10 11  1  0
 11 12  1  0
 11 23  2  0
 12 13  1  0
 13 14  1  0
 14 15  2  0
 14 18  1  0
 15 16  1  0
 16 17  2  0
 16 22  1  0
 17 18  1  0
 17 19  1  0
 19 20  2  0
 19 21  1  0
 21 22  1  0
 23 24  1  0
M  END
