
     RDKit          3D

 25 28  0  0  0  0  0  0  0  0999 V2000
    4.1250   -1.0190   -1.3430 O   0  0  0  0  0  0  0  0  0  0  0  0
    4.1190   -0.2450   -0.3530 C   0  0  0  0  0  0  0  0  0  0  0  0
    2.9800    0.5110   -0.0820 N   0  0  0  0  0  0  0  0  0  0  0  0
    1.8500    0.3740   -0.9540 C   0  0  0  0  0  0  0  0  0  0  0  0
    1.5780   -0.2960   -1.9840 N   0  0  0  0  0  0  0  0  0  0  0  0
    0.4320   -0.1960   -2.5610 N   0  0  0  0  0  0  0  0  0  0  0  0
   -0.4760    0.4980   -2.2270 C   0  0  0  0  0  0  0  0  0  0  0  0
   -2.1490    0.9490   -2.6770 S   0  0  0  0  0  0  0  0  0  0  0  0
   -3.2500   -0.1790   -1.8430 C   0  0  0  0  0  0  0  0  0  0  0  0
   -3.6080   -1.3490   -2.4770 C   0  0  0  0  0  0  0  0  0  0  0  0
   -4.4560   -2.2660   -1.8890 C   0  0  0  0  0  0  0  0  0  0  0  0
   -4.9390   -1.9980   -0.6630 N   0  0  0  0  0  0  0  0  0  0  0  0
   -4.6280   -0.8670    0.0190 C   0  0  0  0  0  0  0  0  0  0  0  0
   -5.1530   -0.6440    1.2750 C   0  0  0  0  0  0  0  0  0  0  0  0
   -4.8050    0.5180    1.9210 C   0  0  0  0  0  0  0  0  0  0  0  0
   -5.4490    0.8470    3.5240 Cl  0  0  0  0  0  0  0  0  0  0  0  0
   -3.9530    1.4420    1.3310 C   0  0  0  0  0  0  0  0  0  0  0  0
   -3.4270    1.2130    0.0660 C   0  0  0  0  0  0  0  0  0  0  0  0
   -3.7690    0.0520   -0.5890 C   0  0  0  0  0  0  0  0  0  0  0  0
    0.3400    1.2920   -0.7030 S   0  0  0  0  0  0  0  0  0  0  0  0
    5.3290   -0.1540    0.5110 C   0  0  0  0  0  0  0  0  0  0  0  0
    5.4600    0.6770    1.6590 C   0  0  0  0  0  0  0  0  0  0  0  0
    6.6210    0.6150    2.2940 C   0  0  0  0  0  0  0  0  0  0  0  0
    7.6480   -0.1680    1.9200 C   0  0  0  0  0  0  0  0  0  0  0  0
    6.8430   -0.9520    0.4160 S   0  0  0  0  0  0  0  0  0  0  0  0
  1  2  2  0
  2  3  1  0
  2 21  1  0
  3  4  1  0
  4  5  2  0
  4 20  1  0
  5  6  1  0
  6  7  2  0
  7  8  1  0
  7 20  1  0
  8  9  1  0
  9 10  2  0
  9 19  1  0
 10 11  1  0
 11 12  2  0
 12 13  1  0
 13 14  2  0
 13 19  1  0
 14 15  1  0
 15 16  1  0
 15 17  2  0
 17 18  1  0
 18 19  2  0
 21 22  2  0
 21 25  1  0
 22 23  1  0
 23 24  2  0
 24 25  1  0
M  END
