
     RDKit          3D

 25 28  0  0  0  0  0  0  0  0999 V2000
   -4.4780    1.8500   -1.8920 C   0  0  0  0  0  0  0  0  0  0  0  0
   -4.2150    0.9390   -0.7520 C   0  0  0  0  0  0  0  0  0  0  0  0
   -3.0070    0.2920   -0.4930 C   0  0  0  0  0  0  0  0  0  0  0  0
   -3.1440   -0.4650    0.6450 C   0  0  0  0  0  0  0  0  0  0  0  0
   -2.1410   -1.3120    1.2900 C   0  0  0  0  0  0  0  0  0  0  0  0
   -0.8610   -1.2910    0.6280 N   0  0  0  0  0  0  0  0  0  0  0  0
   -0.5850   -2.1700   -0.3470 C   0  0  0  0  0  0  0  0  0  0  0  0
    0.6530   -2.1050   -0.9460 C   0  0  0  0  0  0  0  0  0  0  0  0
    1.0060   -3.2540   -2.2200 Cl  0  0  0  0  0  0  0  0  0  0  0  0
    1.5370   -1.1810   -0.5480 N   0  0  0  0  0  0  0  0  0  0  0  0
    1.2710   -0.2820    0.4420 C   0  0  0  0  0  0  0  0  0  0  0  0
    2.2180    0.6770    0.8450 N   0  0  0  0  0  0  0  0  0  0  0  0
    3.4890    0.8210    0.3000 C   0  0  0  0  0  0  0  0  0  0  0  0
    4.2370    0.2350   -0.6580 C   0  0  0  0  0  0  0  0  0  0  0  0
    5.4950    0.6720   -0.9160 C   0  0  0  0  0  0  0  0  0  0  0  0
    6.0240    1.6680   -0.2490 C   0  0  0  0  0  0  0  0  0  0  0  0
    4.6740    2.1210    0.9050 S   0  0  0  0  0  0  0  0  0  0  0  0
    7.6220    2.1990   -0.5930 S   0  0  0  0  0  0  0  0  0  0  0  0
    8.2770    0.8380   -1.6250 C   0  0  0  0  0  0  0  0  0  0  0  0
    6.7430    0.0760   -2.1560 S   0  0  0  0  0  0  0  0  0  0  0  0
    0.0270   -0.3670    1.0260 C   0  0  0  0  0  0  0  0  0  0  0  0
   -0.2430    0.4660    1.9550 O   0  0  0  0  0  0  0  0  0  0  0  0
   -4.4350   -0.2890    1.0920 C   0  0  0  0  0  0  0  0  0  0  0  0
   -5.0980   -0.8810    2.2840 C   0  0  0  0  0  0  0  0  0  0  0  0
   -5.0520    0.5660    0.2220 N   0  0  0  0  0  0  0  0  0  0  0  0
  1  2  1  0
  2  3  2  0
  2 25  1  0
  3  4  1  0
  4  5  1  0
  4 23  2  0
  5  6  1  0
  6  7  1  0
  6 21  1  0
  7  8  2  0
  8  9  1  0
  8 10  1  0
 10 11  2  0
 11 12  1  0
 11 21  1  0
 12 13  1  0
 13 14  2  0
 13 17  1  0
 14 15  1  0
 15 16  2  0
 15 20  1  0
 16 17  1  0
 16 18  1  0
 18 19  1  0
 19 20  1  0
 21 22  2  0
 23 24  1  0
 23 25  1  0
M  END
