
     RDKit          3D

 32 34  0  0  0  0  0  0  0  0999 V2000
   -8.5520   -0.5220    0.0940 C   0  0  0  0  0  0  0  0  0  0  0  0
   -8.6600   -1.6430   -0.9630 C   0  0  1  0  0  0  0  0  0  0  0  0
   -8.5580   -1.1330   -2.2330 O   0  0  0  0  0  0  0  0  0  0  0  0
   -7.5650   -2.6170   -0.6390 C   0  0  2  0  0  0  0  0  0  0  0  0
   -6.2410   -2.0160   -0.6880 N   0  0  0  0  0  0  0  0  0  0  0  0
   -5.3750   -1.9920    0.4170 C   0  0  0  0  0  0  0  0  0  0  0  0
   -5.8100   -2.5120    1.4830 O   0  0  0  0  0  0  0  0  0  0  0  0
   -4.0220   -1.4050    0.3610 C   0  0  0  0  0  0  0  0  0  0  0  0
   -3.2070   -1.4640    1.4810 C   0  0  0  0  0  0  0  0  0  0  0  0
   -1.9100   -0.9870    1.4650 C   0  0  0  0  0  0  0  0  0  0  0  0
   -1.4160   -0.4400    0.3040 C   0  0  0  0  0  0  0  0  0  0  0  0
   -0.0320   -0.0350    0.2540 C   0  0  0  0  0  0  0  0  0  0  0  0
    1.1120    0.3200    0.2030 C   0  0  0  0  0  0  0  0  0  0  0  0
    2.5200    0.7770    0.1280 C   0  0  0  0  0  0  0  0  0  0  0  0
    3.5140   -0.0380   -0.3460 C   0  0  0  0  0  0  0  0  0  0  0  0
    4.7840    0.4820   -0.6500 C   0  0  0  0  0  0  0  0  0  0  0  0
    5.0340    1.8270   -0.4690 C   0  0  0  0  0  0  0  0  0  0  0  0
    6.3410    2.4040   -0.8020 C   0  0  0  0  0  0  0  0  0  0  0  0
    7.1890    2.4040    0.3770 N   0  0  1  0  0  0  0  0  0  0  0  0
    7.9560    1.1850    0.4680 C   0  0  0  0  0  0  0  0  0  0  0  0
    9.1220    1.4020    1.3970 C   0  0  0  0  0  0  0  0  0  0  0  0
    8.7900    2.3840    2.3160 O   0  0  0  0  0  0  0  0  0  0  0  0
    8.6850    3.6540    1.7760 C   0  0  0  0  0  0  0  0  0  0  0  0
    8.1660    3.4890    0.3570 C   0  0  0  0  0  0  0  0  0  0  0  0
    4.0450    2.6370    0.0060 C   0  0  0  0  0  0  0  0  0  0  0  0
    2.7540    2.0790    0.3150 C   0  0  0  0  0  0  0  0  0  0  0  0
   -2.2290   -0.3760   -0.8120 C   0  0  0  0  0  0  0  0  0  0  0  0
   -3.5340   -0.8610   -0.7840 C   0  0  0  0  0  0  0  0  0  0  0  0
   -7.5020   -3.7430   -1.6370 C   0  0  0  0  0  0  0  0  0  0  0  0
   -6.4740   -4.0540   -2.2200 O   0  0  0  0  0  0  0  0  0  0  0  0
   -8.7330   -4.4440   -1.8760 N   0  0  0  0  0  0  0  0  0  0  0  0
   -8.6500   -5.4710   -2.7830 O   0  0  0  0  0  0  0  0  0  0  0  0
  2  1  1  1
  2  3  1  0
  2  4  1  0
  4  5  1  6
  4 29  1  0
  5  6  1  0
  6  7  2  0
  6  8  1  0
  8  9  2  0
  8 28  1  0
  9 10  1  0
 10 11  2  0
 11 12  1  0
 11 27  1  0
 12 13  3  0
 13 14  1  0
 14 15  2  0
 14 26  1  0
 15 16  1  0
 16 17  2  0
 17 18  1  0
 17 25  1  0
 19 18  1  6
 19 20  1  0
 19 24  1  0
 20 21  1  0
 21 22  1  0
 22 23  1  0
 23 24  1  0
 25 26  2  0
 27 28  2  0
 29 30  2  0
 29 31  1  0
 31 32  1  0
M  CHG  1  19   1
M  END
