
     RDKit          3D

 31 35  0  0  0  0  0  0  0  0999 V2000
   -1.8890    0.2060   -1.9910 C   0  0  0  0  0  0  0  0  0  0  0  0
   -2.7740    0.2280   -0.7590 C   0  0  2  0  0  0  0  0  0  0  0  0
   -3.7730    1.3840   -0.9890 C   0  0  0  0  0  0  0  0  0  0  0  0
   -3.1240    2.6640   -1.3560 C   0  0  0  0  0  0  0  0  0  0  0  0
   -1.8150    2.7620   -0.5860 C   0  0  0  0  0  0  0  0  0  0  0  0
   -1.8440    1.9510    0.6650 C   0  0  0  0  0  0  0  0  0  0  0  0
   -1.9930    0.4590    0.4660 C   0  0  2  0  0  0  0  0  0  0  0  0
   -0.6410   -0.1930    0.3320 C   0  0  0  0  0  0  0  0  0  0  0  0
   -0.5950   -1.5700    0.2900 C   0  0  0  0  0  0  0  0  0  0  0  0
    0.5910   -2.2640    0.2180 C   0  0  0  0  0  0  0  0  0  0  0  0
    1.7780   -1.5540    0.1870 C   0  0  0  0  0  0  0  0  0  0  0  0
    1.7620   -0.1610    0.2290 C   0  0  0  0  0  0  0  0  0  0  0  0
    2.9000    0.5880    0.2010 O   0  0  0  0  0  0  0  0  0  0  0  0
    4.2130    0.1680    0.3100 C   0  0  2  0  0  0  0  0  0  0  0  0
    4.9990    1.0760    1.2690 C   0  0  0  0  0  0  0  0  0  0  0  0
    5.5190    2.3130    0.5960 C   0  0  0  0  0  0  0  0  0  0  0  0
    6.1690    1.9170   -0.7320 C   0  0  0  0  0  0  0  0  0  0  0  0
    5.0950    1.1860   -1.5210 C   0  0  0  0  0  0  0  0  0  0  0  0
    4.8460   -0.0150   -0.8960 O   0  0  0  0  0  0  0  0  0  0  0  0
    0.5170    0.4880    0.3000 C   0  0  0  0  0  0  0  0  0  0  0  0
    2.9410   -2.2790    0.1120 O   0  0  0  0  0  0  0  0  0  0  0  0
    3.0100   -3.6530   -0.0760 C   0  0  0  0  0  0  0  0  0  0  0  0
    1.7230   -4.3370   -0.3880 C   0  0  0  0  0  0  0  0  0  0  0  0
    0.6350   -3.6470    0.1750 O   0  0  0  0  0  0  0  0  0  0  0  0
   -2.5810   -0.0870    1.7420 C   0  0  1  0  0  0  0  0  0  0  0  0
   -2.6250    0.9140    2.7460 O   0  0  0  0  0  0  0  0  0  0  0  0
   -3.9470   -0.6480    1.6600 C   0  0  2  0  0  0  0  0  0  0  0  0
   -4.1090   -1.5180    2.7720 O   0  0  0  0  0  0  0  0  0  0  0  0
   -4.2470   -1.4560    0.4430 C   0  0  1  0  0  0  0  0  0  0  0  0
   -5.6500   -1.5590    0.3630 O   0  0  0  0  0  0  0  0  0  0  0  0
   -3.6230   -1.0120   -0.8110 C   0  0  0  0  0  0  0  0  0  0  0  0
  2  1  1  6
  2  3  1  0
  2  7  1  0
  2 31  1  0
  3  4  1  0
  4  5  1  0
  5  6  1  0
  6  7  1  0
  7  8  1  6
  7 25  1  0
  8  9  2  0
  8 20  1  0
  9 10  1  0
 10 11  2  0
 10 24  1  0
 11 12  1  0
 11 21  1  0
 12 13  1  0
 12 20  2  0
 14 13  1  6
 14 15  1  0
 14 19  1  0
 15 16  1  0
 16 17  1  0
 17 18  1  0
 18 19  1  0
 21 22  1  0
 22 23  1  0
 23 24  1  0
 25 26  1  1
 25 27  1  0
 27 28  1  1
 27 29  1  0
 29 30  1  6
 29 31  1  0
M  END
