
     RDKit          3D

 32 35  0  0  0  0  0  0  0  0999 V2000
   -6.5530    1.3770   -0.1370 C   0  0  0  0  0  0  0  0  0  0  0  0
   -5.5570    0.4970    0.6160 C   0  0  1  0  0  0  0  0  0  0  0  0
   -5.9590    0.6580    2.0910 C   0  0  0  0  0  0  0  0  0  0  0  0
   -5.7380   -0.8910    0.2010 C   0  0  0  0  0  0  0  0  0  0  0  0
   -4.6090   -1.8090    0.0220 C   0  0  2  0  0  0  0  0  0  0  0  0
   -3.5180   -1.7590    1.0790 C   0  0  0  0  0  0  0  0  0  0  0  0
   -3.2840   -1.2060   -0.2680 C   0  0  2  0  0  0  0  0  0  0  0  0
   -3.4120    0.2370   -0.6310 C   0  0  2  0  0  0  0  0  0  0  0  0
   -4.4400    0.2090   -1.6560 O   0  0  0  0  0  0  0  0  0  0  0  0
   -2.3200    0.9770   -1.2260 C   0  0  0  0  0  0  0  0  0  0  0  0
   -1.0170    1.2030   -0.6290 C   0  0  0  0  0  0  0  0  0  0  0  0
   -0.1060    0.0780   -0.3110 C   0  0  1  0  0  0  0  0  0  0  0  0
   -0.6270   -0.8190    0.6040 O   0  0  0  0  0  0  0  0  0  0  0  0
    0.2570   -0.7370   -1.5490 C   0  0  0  0  0  0  0  0  0  0  0  0
    0.7260   -2.0610   -0.9920 C   0  0  1  0  0  0  0  0  0  0  0  0
    1.0250   -2.9090   -2.0550 O   0  0  0  0  0  0  0  0  0  0  0  0
    1.9820   -1.8630   -0.1790 C   0  0  0  0  0  0  0  0  0  0  0  0
    2.1930   -0.5530    0.4630 C   0  0  1  0  0  0  0  0  0  0  0  0
    2.2030   -0.7970    1.8900 O   0  0  0  0  0  0  0  0  0  0  0  0
    3.6090   -0.0980    0.1970 C   0  0  2  0  0  0  0  0  0  0  0  0
    4.6390   -0.9630    0.7950 C   0  0  0  0  0  0  0  0  0  0  0  0
    4.8200   -2.3760    0.4470 C   0  0  0  0  0  0  0  0  0  0  0  0
    5.9580   -2.8990    1.1710 O   0  0  0  0  0  0  0  0  0  0  0  0
    3.8410    1.3160    0.5930 C   0  0  0  0  0  0  0  0  0  0  0  0
    3.0880    2.0000    1.2480 O   0  0  0  0  0  0  0  0  0  0  0  0
    5.1050    1.9480    0.1540 C   0  0  1  0  0  0  0  0  0  0  0  0
    5.8790    1.1810   -0.6960 O   0  0  0  0  0  0  0  0  0  0  0  0
    6.5250    2.0380   -1.5600 C   0  0  0  0  0  0  0  0  0  0  0  0
    6.1420    3.4090   -1.0460 C   0  0  0  0  0  0  0  0  0  0  0  0
    4.8880    3.1630   -0.4920 O   0  0  0  0  0  0  0  0  0  0  0  0
    1.2140    0.5400    0.2550 C   0  0  0  0  0  0  0  0  0  0  0  0
   -4.1640    0.9850    0.4860 C   0  0  0  0  0  0  0  0  0  0  0  0
  2  1  1  6
  2  3  1  0
  2  4  1  0
  2 32  1  0
  5  4  1  1
  5  6  1  0
  5  7  1  0
  7  6  1  1
  7  8  1  0
  8  9  1  6
  8 10  1  0
  8 32  1  0
 10 11  1  0
 11 12  1  0
 12 13  1  1
 12 14  1  0
 12 31  1  0
 14 15  1  0
 15 16  1  6
 15 17  1  0
 17 18  1  0
 18 19  1  1
 18 20  1  0
 18 31  1  0
 20 21  1  1
 20 24  1  0
 21 22  1  0
 22 23  1  0
 24 25  2  0
 26 24  1  6
 26 27  1  0
 26 30  1  0
 27 28  1  0
 28 29  1  0
 29 30  1  0
M  END
