
     RDKit          3D

 31 35  0  0  0  0  0  0  0  0999 V2000
   -1.5590    3.5230   -0.1440 C   0  0  0  0  0  0  0  0  0  0  0  0
   -0.7080    2.7740    0.8290 C   0  0  2  0  0  0  0  0  0  0  0  0
    0.5020    2.1300    0.2300 C   0  0  0  0  0  0  0  0  0  0  0  0
    0.2860    0.7910   -0.3860 C   0  0  1  0  0  0  0  0  0  0  0  0
    0.5830    0.9530   -1.7690 O   0  0  0  0  0  0  0  0  0  0  0  0
    1.3600   -0.1140    0.1190 C   0  0  1  0  0  0  0  0  0  0  0  0
    1.3640   -1.5170   -0.3300 C   0  0  0  0  0  0  0  0  0  0  0  0
    2.4030   -2.2600    0.5300 C   0  0  0  0  0  0  0  0  0  0  0  0
    3.7210   -1.5750    0.4690 C   0  0  0  0  0  0  0  0  0  0  0  0
    4.8390   -2.2490    0.8600 C   0  0  0  0  0  0  0  0  0  0  0  0
    6.0920   -1.6770    0.8300 C   0  0  0  0  0  0  0  0  0  0  0  0
    6.2290   -0.3770    0.3910 C   0  0  0  0  0  0  0  0  0  0  0  0
    5.0770    0.2950   -0.0040 C   0  0  0  0  0  0  0  0  0  0  0  0
    3.8370   -0.2810    0.0290 C   0  0  0  0  0  0  0  0  0  0  0  0
    2.6780    0.4950   -0.4040 C   0  0  1  0  0  0  0  0  0  0  0  0
    2.6810    0.4400   -1.8190 O   0  0  0  0  0  0  0  0  0  0  0  0
    7.5730   -0.0170    0.4490 O   0  0  0  0  0  0  0  0  0  0  0  0
    8.3330   -1.2220    0.6110 C   0  0  0  0  0  0  0  0  0  0  0  0
    7.3770   -2.1340    1.1670 O   0  0  0  0  0  0  0  0  0  0  0  0
   -1.1130    0.2540   -0.3400 C   0  0  0  0  0  0  0  0  0  0  0  0
   -1.8930    0.5460    0.8700 C   0  0  2  0  0  0  0  0  0  0  0  0
   -3.3520    0.7580    0.6860 C   0  0  0  0  0  0  0  0  0  0  0  0
   -4.2320   -0.2830    0.1620 C   0  0  1  0  0  0  0  0  0  0  0  0
   -5.6720    0.3350    0.1630 C   0  0  0  0  0  0  0  0  0  0  0  0
   -5.6890    1.5050   -0.5770 O   0  0  0  0  0  0  0  0  0  0  0  0
   -4.0300   -0.7130   -1.2540 C   0  0  0  0  0  0  0  0  0  0  0  0
   -4.9710   -1.9410   -1.3020 C   0  0  0  0  0  0  0  0  0  0  0  0
   -5.0330   -2.3500    0.1200 C   0  0  0  0  0  0  0  0  0  0  0  0
   -4.3240   -1.4560    0.9120 O   0  0  0  0  0  0  0  0  0  0  0  0
   -1.4010    1.7470    1.6210 C   0  0  0  0  0  0  0  0  0  0  0  0
   -1.6080    1.7860    2.8200 O   0  0  0  0  0  0  0  0  0  0  0  0
  2  1  1  6
  2  3  1  0
  2 30  1  0
  3  4  1  0
  4  5  1  6
  4  6  1  0
  4 20  1  0
  6  7  1  6
  6 15  1  0
  7  8  1  0
  8  9  1  0
  9 10  2  0
  9 14  1  0
 10 11  1  0
 11 12  2  0
 11 19  1  0
 12 13  1  0
 12 17  1  0
 13 14  2  0
 14 15  1  0
 15 16  1  6
 17 18  1  0
 18 19  1  0
 20 21  1  0
 21 22  1  6
 21 30  1  0
 23 22  1  1
 23 24  1  0
 23 26  1  0
 23 29  1  0
 24 25  1  0
 26 27  1  0
 27 28  1  0
 28 29  1  0
 30 31  2  0
M  END
