
     RDKit          3D

 32 35  0  0  0  0  0  0  0  0999 V2000
    7.2160   -0.2170   -2.9110 C   0  0  0  0  0  0  0  0  0  0  0  0
    6.3250    0.0830   -1.8870 O   0  0  0  0  0  0  0  0  0  0  0  0
    5.7580   -1.0650   -1.3330 C   0  0  0  0  0  0  0  0  0  0  0  0
    4.8110   -0.5580   -0.2310 C   0  0  2  0  0  0  0  0  0  0  0  0
    3.9030    0.2380   -0.8570 O   0  0  0  0  0  0  0  0  0  0  0  0
    3.3990    1.3100   -0.1870 C   0  0  1  0  0  0  0  0  0  0  0  0
    2.4210    0.8590    0.8500 C   0  0  0  0  0  0  0  0  0  0  0  0
    1.2740    0.1170    0.2500 C   0  0  2  0  0  0  0  0  0  0  0  0
    1.7030   -1.0070   -0.4500 O   0  0  0  0  0  0  0  0  0  0  0  0
    0.3930    1.0060   -0.5600 C   0  0  1  0  0  0  0  0  0  0  0  0
    0.9400    1.4730   -1.7390 O   0  0  0  0  0  0  0  0  0  0  0  0
   -0.8830    0.2670   -0.9500 C   0  0  2  0  0  0  0  0  0  0  0  0
   -1.7290    1.1960   -1.7560 C   0  0  0  0  0  0  0  0  0  0  0  0
   -2.7700    1.6640   -0.7670 C   0  0  0  0  0  0  0  0  0  0  0  0
   -3.0790    0.4140    0.0450 C   0  0  1  0  0  0  0  0  0  0  0  0
   -3.6930    0.8370    1.3300 C   0  0  0  0  0  0  0  0  0  0  0  0
   -5.0780    1.3260    1.0830 C   0  0  0  0  0  0  0  0  0  0  0  0
   -5.8170    0.5630    0.0260 C   0  0  2  0  0  0  0  0  0  0  0  0
   -7.1870    0.2550    0.5230 C   0  0  0  0  0  0  0  0  0  0  0  0
   -7.2200   -0.9250    1.4690 C   0  0  0  0  0  0  0  0  0  0  0  0
   -6.7490   -2.1280    0.6420 C   0  0  0  0  0  0  0  0  0  0  0  0
   -5.2920   -1.8780    0.3320 C   0  0  0  0  0  0  0  0  0  0  0  0
   -5.0830   -0.6360   -0.4970 C   0  0  2  0  0  0  0  0  0  0  0  0
   -3.7610   -0.4510   -0.7200 O   0  0  0  0  0  0  0  0  0  0  0  0
   -1.6520   -0.0870    0.3030 C   0  0  0  0  0  0  0  0  0  0  0  0
    4.4880    2.1520    0.4380 C   0  0  0  0  0  0  0  0  0  0  0  0
    4.2840    3.3700    0.6890 O   0  0  0  0  0  0  0  0  0  0  0  0
    5.6760    1.5130    0.7020 O   0  0  0  0  0  0  0  0  0  0  0  0
    5.6850    0.1270    0.7470 C   0  0  0  0  0  0  0  0  0  0  0  0
    6.4360   -0.5380    1.6180 C   0  0  0  0  0  0  0  0  0  0  0  0
    6.4680   -2.0160    1.6920 C   0  0  0  0  0  0  0  0  0  0  0  0
    7.7490   -2.5190    1.4620 O   0  0  0  0  0  0  0  0  0  0  0  0
  1  2  1  0
  2  3  1  0
  4  3  1  6
  4  5  1  0
  4 29  1  0
  5  6  1  0
  6  7  1  1
  6 26  1  0
  7  8  1  0
  8  9  1  6
  8 10  1  0
 10 11  1  6
 10 12  1  0
 12 13  1  6
 12 25  1  0
 13 14  1  0
 15 14  1  6
 15 16  1  0
 15 24  1  0
 15 25  1  0
 16 17  1  0
 18 17  1  1
 18 19  1  0
 18 23  1  0
 19 20  1  0
 20 21  1  0
 21 22  1  0
 23 22  1  1
 23 24  1  0
 26 27  2  0
 26 28  1  0
 28 29  1  0
 29 30  2  3
 30 31  1  0
 31 32  1  0
M  END
