
     RDKit          3D

 32 35  0  0  0  0  0  0  0  0999 V2000
    4.7290    3.0630    0.1300 C   0  0  0  0  0  0  0  0  0  0  0  0
    3.5870    2.2750    0.7950 C   0  0  0  0  0  0  0  0  0  0  0  0
    2.5260    2.1270   -0.1060 O   0  0  0  0  0  0  0  0  0  0  0  0
    1.3490    1.4680    0.1020 C   0  0  0  0  0  0  0  0  0  0  0  0
    0.2490    2.1460    0.6190 C   0  0  0  0  0  0  0  0  0  0  0  0
    0.3140    3.6040    0.9660 C   0  0  1  0  0  0  0  0  0  0  0  0
   -1.1360    4.0950    1.0650 C   0  0  0  0  0  0  0  0  0  0  0  0
    0.9220    3.7520    2.2190 O   0  0  0  0  0  0  0  0  0  0  0  0
   -0.9140    1.4470    0.8120 C   0  0  0  0  0  0  0  0  0  0  0  0
   -1.0960    0.1080    0.5350 C   0  0  0  0  0  0  0  0  0  0  0  0
   -0.0020   -0.5530    0.0210 C   0  0  0  0  0  0  0  0  0  0  0  0
    1.2160    0.1040   -0.1990 C   0  0  0  0  0  0  0  0  0  0  0  0
    2.2870   -0.5730   -0.7160 O   0  0  0  0  0  0  0  0  0  0  0  0
    3.3030   -1.2710   -0.0750 C   0  0  2  0  0  0  0  0  0  0  0  0
    4.6720   -0.9270   -0.5950 C   0  0  0  0  0  0  0  0  0  0  0  0
    5.4100   -2.2430   -0.8410 C   0  0  0  0  0  0  0  0  0  0  0  0
    4.5830   -3.2640   -0.0590 C   0  0  1  0  0  0  0  0  0  0  0  0
    4.8410   -3.0860    1.2860 O   0  0  0  0  0  0  0  0  0  0  0  0
    3.1960   -2.7720   -0.3940 C   0  0  0  0  0  0  0  0  0  0  0  0
    0.2020   -1.8660   -0.3770 O   0  0  0  0  0  0  0  0  0  0  0  0
   -0.6080   -2.8220   -1.0270 C   0  0  0  0  0  0  0  0  0  0  0  0
   -2.0570   -2.5900   -0.6680 C   0  0  0  0  0  0  0  0  0  0  0  0
   -2.5810   -1.3060   -1.2750 C   0  0  0  0  0  0  0  0  0  0  0  0
   -3.3710   -0.6090   -0.2390 C   0  0  2  0  0  0  0  0  0  0  0  0
   -4.5490   -1.4970    0.1910 C   0  0  1  0  0  0  0  0  0  0  0  0
   -4.3470   -2.2350    1.3260 O   0  0  0  0  0  0  0  0  0  0  0  0
   -5.3430   -0.2170    0.3690 C   0  0  0  0  0  0  0  0  0  0  0  0
   -4.3770    0.4040   -0.6480 C   0  0  2  0  0  0  0  0  0  0  0  0
   -4.9730    0.2950   -2.0080 C   0  0  0  0  0  0  0  0  0  0  0  0
   -4.1440    1.7290   -0.2950 O   0  0  0  0  0  0  0  0  0  0  0  0
   -2.4860   -0.2320    0.9030 C   0  0  2  0  0  0  0  0  0  0  0  0
   -2.9910    0.8930    1.5920 O   0  0  0  0  0  0  0  0  0  0  0  0
  1  2  1  0
  2  3  1  0
  3  4  1  0
  4  5  2  0
  4 12  1  0
  5  6  1  0
  5  9  1  0
  6  7  1  1
  6  8  1  0
  9 10  2  0
 10 11  1  0
 10 31  1  0
 11 12  2  0
 11 20  1  0
 12 13  1  0
 14 13  1  6
 14 15  1  0
 14 19  1  0
 15 16  1  0
 16 17  1  0
 17 18  1  1
 17 19  1  0
 20 21  1  0
 21 22  1  0
 22 23  1  0
 24 23  1  6
 24 25  1  0
 24 28  1  0
 24 31  1  0
 25 26  1  1
 25 27  1  0
 27 28  1  0
 28 29  1  6
 28 30  1  0
 31 32  1  6
M  END
