
     RDKit          3D

 32 36  0  0  0  0  0  0  0  0999 V2000
    6.4530    1.5390   -1.8060 C   0  0  0  0  0  0  0  0  0  0  0  0
    6.4870    0.9210   -0.4450 C   0  0  2  0  0  0  0  0  0  0  0  0
    6.4920   -0.6140   -0.4400 C   0  0  1  0  0  0  0  0  0  0  0  0
    7.7400   -1.1270    0.2050 C   0  0  0  0  0  0  0  0  0  0  0  0
    5.2560   -0.5680    0.3480 C   0  0  2  0  0  0  0  0  0  0  0  0
    4.8880   -1.3770    1.4730 C   0  0  0  0  0  0  0  0  0  0  0  0
    4.0650   -1.3730    0.1420 C   0  0  1  0  0  0  0  0  0  0  0  0
    2.7620   -0.6340    0.1550 C   0  0  0  0  0  0  0  0  0  0  0  0
    2.8950    0.8360   -0.1140 C   0  0  2  0  0  0  0  0  0  0  0  0
    1.8090    1.2990   -1.0570 C   0  0  0  0  0  0  0  0  0  0  0  0
    0.5200    1.0460   -0.6060 O   0  0  0  0  0  0  0  0  0  0  0  0
   -0.0540    1.5110    0.5440 C   0  0  0  0  0  0  0  0  0  0  0  0
    0.6370    2.2480    1.2890 O   0  0  0  0  0  0  0  0  0  0  0  0
   -1.4150    1.2090    0.9620 C   0  0  0  0  0  0  0  0  0  0  0  0
   -1.9090    1.7340    2.1510 C   0  0  0  0  0  0  0  0  0  0  0  0
   -3.1880    1.4650    2.5660 C   0  0  0  0  0  0  0  0  0  0  0  0
   -3.9880    0.6680    1.7950 C   0  0  0  0  0  0  0  0  0  0  0  0
   -3.5210    0.1470    0.6280 C   0  0  0  0  0  0  0  0  0  0  0  0
   -2.2330    0.4170    0.2110 C   0  0  0  0  0  0  0  0  0  0  0  0
   -1.8010   -0.1590   -1.0140 O   0  0  0  0  0  0  0  0  0  0  0  0
   -2.1590   -1.5250   -1.2720 C   0  0  0  0  0  0  0  0  0  0  0  0
   -3.3770   -1.9530   -0.4810 C   0  0  0  0  0  0  0  0  0  0  0  0
   -4.2810   -0.7230   -0.3050 C   0  0  2  0  0  0  0  0  0  0  0  0
   -4.2860   -0.1310   -1.5740 O   0  0  0  0  0  0  0  0  0  0  0  0
   -5.6390   -1.1030    0.0850 C   0  0  1  0  0  0  0  0  0  0  0  0
   -5.7000   -1.6830    1.3630 O   0  0  0  0  0  0  0  0  0  0  0  0
   -6.6980   -0.0820   -0.1110 C   0  0  2  0  0  0  0  0  0  0  0  0
   -7.9370   -0.7910    0.0670 O   0  0  0  0  0  0  0  0  0  0  0  0
   -6.8160    0.4660   -1.5170 C   0  0  0  0  0  0  0  0  0  0  0  0
   -8.0070    1.2520   -1.4880 O   0  0  0  0  0  0  0  0  0  0  0  0
    4.1150    1.1660   -0.7170 O   0  0  0  0  0  0  0  0  0  0  0  0
    5.1080    0.9080    0.2320 C   0  0  2  0  0  0  0  0  0  0  0  0
  2  1  1  6
  2  3  1  0
  2 32  1  0
  3  4  1  1
  3  5  1  0
  5  6  1  1
  5  7  1  0
  5 32  1  0
  7  6  1  1
  7  8  1  0
  8  9  1  0
  9 10  1  6
  9 31  1  0
 10 11  1  0
 11 12  1  0
 12 13  2  0
 12 14  1  0
 14 15  2  0
 14 19  1  0
 15 16  1  0
 16 17  2  0
 17 18  1  0
 18 19  2  0
 18 23  1  0
 19 20  1  0
 20 21  1  0
 21 22  1  0
 22 23  1  0
 23 24  1  6
 23 25  1  0
 25 26  1  1
 25 27  1  0
 27 28  1  6
 27 29  1  0
 29 30  1  0
 32 31  1  6
M  END
