
     RDKit          3D

 32 35  0  0  0  0  0  0  0  0999 V2000
   -0.5970    0.8020    1.8890 C   0  0  0  0  0  0  0  0  0  0  0  0
   -0.0270    0.3800    0.4880 C   0  0  2  0  0  0  0  0  0  0  0  0
   -0.2820    1.6440   -0.3020 C   0  0  0  0  0  0  0  0  0  0  0  0
   -1.0250   -0.6060   -0.0050 C   0  0  1  0  0  0  0  0  0  0  0  0
   -2.1300   -0.2670   -0.8880 C   0  0  1  0  0  0  0  0  0  0  0  0
   -2.9190   -1.5670   -1.1260 C   0  0  1  0  0  0  0  0  0  0  0  0
   -2.9580   -2.5480    0.0070 C   0  0  0  0  0  0  0  0  0  0  0  0
   -3.7420   -3.6250   -0.4900 O   0  0  0  0  0  0  0  0  0  0  0  0
   -4.1800   -0.7620   -1.2270 C   0  0  0  0  0  0  0  0  0  0  0  0
   -3.3660    0.4170   -0.6320 C   0  0  2  0  0  0  0  0  0  0  0  0
   -3.6530    1.4890   -1.5190 O   0  0  0  0  0  0  0  0  0  0  0  0
   -3.9170    0.7060    0.6930 C   0  0  0  0  0  0  0  0  0  0  0  0
   -5.2770    0.8070    0.7660 O   0  0  0  0  0  0  0  0  0  0  0  0
   -5.9150    1.7790    0.0490 C   0  0  0  0  0  0  0  0  0  0  0  0
   -5.5000    3.0840    0.3930 O   0  0  0  0  0  0  0  0  0  0  0  0
   -0.2560   -1.6390   -0.7920 C   0  0  0  0  0  0  0  0  0  0  0  0
   -0.4700   -1.9220   -1.9990 O   0  0  0  0  0  0  0  0  0  0  0  0
    0.7940   -2.3170   -0.0420 C   0  0  0  0  0  0  0  0  0  0  0  0
    1.5530   -1.5510    0.7040 C   0  0  0  0  0  0  0  0  0  0  0  0
    2.5020   -2.4980    1.3380 C   0  0  0  0  0  0  0  0  0  0  0  0
    1.7960   -3.8700    1.2330 C   0  0  0  0  0  0  0  0  0  0  0  0
    1.1290   -3.6640    0.0090 O   0  0  0  0  0  0  0  0  0  0  0  0
    1.3510   -0.0350    0.7390 C   0  0  1  0  0  0  0  0  0  0  0  0
    2.5150    0.4690   -0.0370 C   0  0  1  0  0  0  0  0  0  0  0  0
    2.4820   -0.1330   -1.4010 C   0  0  0  0  0  0  0  0  0  0  0  0
    3.5490    0.2780   -2.2340 O   0  0  0  0  0  0  0  0  0  0  0  0
    2.5940    1.9630   -0.3000 C   0  0  0  0  0  0  0  0  0  0  0  0
    3.9170    2.4530   -0.7850 C   0  0  0  0  0  0  0  0  0  0  0  0
    5.1590    1.9010   -0.2590 C   0  0  0  0  0  0  0  0  0  0  0  0
    5.0380    0.4450    0.0240 C   0  0  0  0  0  0  0  0  0  0  0  0
    3.7580    0.2670    0.7810 C   0  0  1  0  0  0  0  0  0  0  0  0
    3.7640    1.3950    1.6880 O   0  0  0  0  0  0  0  0  0  0  0  0
  2  1  1  1
  2  3  1  0
  2  4  1  0
  2 23  1  0
  4  5  1  0
  4 16  1  6
  5  6  1  1
  5 10  1  0
  6  7  1  1
  6  9  1  0
  7  8  1  0
  9 10  1  0
 10 11  1  6
 10 12  1  0
 12 13  1  0
 13 14  1  0
 14 15  1  0
 16 17  2  0
 16 18  1  0
 18 19  2  0
 18 22  1  0
 19 20  1  0
 23 19  1  6
 20 21  1  0
 21 22  1  0
 23 24  1  0
 24 25  1  6
 24 27  1  0
 24 31  1  0
 25 26  1  0
 27 28  1  0
 28 29  1  0
 29 30  1  0
 30 31  1  0
 31 32  1  1
M  END
