
     RDKit          3D

 31 35  0  0  0  0  0  0  0  0999 V2000
    0.2020   -1.3040    0.6760 O   0  0  0  0  0  0  0  0  0  0  0  0
    0.4440   -0.6600   -0.3530 C   0  0  0  0  0  0  0  0  0  0  0  0
   -0.5480   -0.2470   -1.3000 C   0  0  0  0  0  0  0  0  0  0  0  0
   -1.9620   -0.5060   -1.1420 C   0  0  1  0  0  0  0  0  0  0  0  0
   -2.4260   -1.9670   -1.0410 C   0  0  1  0  0  0  0  0  0  0  0  0
   -1.8350   -2.7430   -0.0990 O   0  0  0  0  0  0  0  0  0  0  0  0
   -2.6530   -3.7590    0.3500 C   0  0  0  0  0  0  0  0  0  0  0  0
   -3.7320   -3.1480    1.1870 C   0  0  0  0  0  0  0  0  0  0  0  0
   -4.4680   -2.0940    0.4500 C   0  0  0  0  0  0  0  0  0  0  0  0
   -3.7210   -1.3130   -0.5420 C   0  0  1  0  0  0  0  0  0  0  0  0
   -2.7710   -0.2390    0.0530 C   0  0  1  0  0  0  0  0  0  0  0  0
   -2.2260   -0.8080    1.2030 O   0  0  0  0  0  0  0  0  0  0  0  0
   -3.4370    1.0730    0.2660 C   0  0  1  0  0  0  0  0  0  0  0  0
   -2.5300    2.2530    0.3350 C   0  0  0  0  0  0  0  0  0  0  0  0
   -3.3000    3.5500    0.5130 C   0  0  0  0  0  0  0  0  0  0  0  0
   -4.0690    3.6780   -0.6680 O   0  0  0  0  0  0  0  0  0  0  0  0
   -5.0810    2.7560   -0.5830 C   0  0  0  0  0  0  0  0  0  0  0  0
   -4.6260    1.3160   -0.6640 C   0  0  0  0  0  0  0  0  0  0  0  0
    1.7760   -0.3300   -0.5770 O   0  0  0  0  0  0  0  0  0  0  0  0
    2.8080   -0.7160    0.3320 C   0  0  1  0  0  0  0  0  0  0  0  0
    3.8300   -1.5880   -0.3200 C   0  0  0  0  0  0  0  0  0  0  0  0
    5.1840   -1.4460    0.3800 C   0  0  0  0  0  0  0  0  0  0  0  0
    5.6150   -0.0410    0.1460 C   0  0  0  0  0  0  0  0  0  0  0  0
    6.8700    0.2470   -0.3320 C   0  0  0  0  0  0  0  0  0  0  0  0
    7.2190    1.5640   -0.5320 C   0  0  0  0  0  0  0  0  0  0  0  0
    8.4900    1.8740   -1.0180 O   0  0  0  0  0  0  0  0  0  0  0  0
    6.2970    2.5550   -0.2470 C   0  0  0  0  0  0  0  0  0  0  0  0
    5.0220    2.2480    0.2400 C   0  0  0  0  0  0  0  0  0  0  0  0
    4.6870    0.9350    0.4350 C   0  0  0  0  0  0  0  0  0  0  0  0
    3.3630    0.5230    0.9460 C   0  0  2  0  0  0  0  0  0  0  0  0
    3.4940    0.3990    2.3470 O   0  0  0  0  0  0  0  0  0  0  0  0
  1  2  2  0
  2  3  1  0
  2 19  1  0
  4  3  1  1
  4  5  1  0
  4 11  1  0
  5  6  1  1
  5 10  1  0
  6  7  1  0
  7  8  1  0
  8  9  1  0
 10  9  1  1
 10 11  1  0
 11 12  1  1
 11 13  1  0
 13 14  1  6
 13 18  1  0
 14 15  1  0
 15 16  1  0
 16 17  1  0
 17 18  1  0
 20 19  1  6
 20 21  1  0
 20 30  1  0
 21 22  1  0
 22 23  1  0
 23 24  2  0
 23 29  1  0
 24 25  1  0
 25 26  1  0
 25 27  2  0
 27 28  1  0
 28 29  2  0
 29 30  1  0
 30 31  1  1
M  END
