
     RDKit          3D

 32 34  0  0  0  0  0  0  0  0999 V2000
    5.5890    0.2900    1.5600 C   0  0  0  0  0  0  0  0  0  0  0  0
    5.4120    1.0340    0.2930 C   0  0  0  0  0  0  0  0  0  0  0  0
    4.3050    1.0170   -0.4100 C   0  0  0  0  0  0  0  0  0  0  0  0
    4.2130    1.7870   -1.6600 C   0  0  0  0  0  0  0  0  0  0  0  0
    5.4180    2.4460   -1.8850 O   0  0  0  0  0  0  0  0  0  0  0  0
    3.1860    0.2430    0.0480 C   0  0  0  0  0  0  0  0  0  0  0  0
    3.1970   -0.4380    1.1060 O   0  0  0  0  0  0  0  0  0  0  0  0
    1.9680    0.1860   -0.6660 O   0  0  0  0  0  0  0  0  0  0  0  0
    0.8660   -0.5420   -0.2680 C   0  0  2  0  0  0  0  0  0  0  0  0
    0.7340   -1.8260   -1.1160 C   0  0  0  0  0  0  0  0  0  0  0  0
    0.2760   -2.8840   -0.1450 C   0  0  0  0  0  0  0  0  0  0  0  0
   -0.7040   -2.3070    0.8080 C   0  0  2  0  0  0  0  0  0  0  0  0
   -1.6990   -3.3490    1.1960 C   0  0  0  0  0  0  0  0  0  0  0  0
   -2.8540   -3.5390    0.3040 C   0  0  0  0  0  0  0  0  0  0  0  0
   -2.9690   -2.6170   -0.8480 C   0  0  2  0  0  0  0  0  0  0  0  0
   -4.4540   -2.6070   -1.2620 C   0  0  0  0  0  0  0  0  0  0  0  0
   -2.3490   -3.1050   -2.0100 O   0  0  0  0  0  0  0  0  0  0  0  0
   -2.5140   -1.2020   -0.5580 C   0  0  2  0  0  0  0  0  0  0  0  0
   -3.7900   -0.5040   -0.0510 C   0  0  0  0  0  0  0  0  0  0  0  0
   -2.0620   -0.6830   -1.7310 O   0  0  0  0  0  0  0  0  0  0  0  0
   -1.1770    0.3740   -1.4310 C   0  0  1  0  0  0  0  0  0  0  0  0
   -0.3370    0.5470   -2.6590 C   0  0  0  0  0  0  0  0  0  0  0  0
   -2.0570    1.6050   -1.3680 C   0  0  0  0  0  0  0  0  0  0  0  0
   -0.4700    0.0310   -0.1590 C   0  0  2  0  0  0  0  0  0  0  0  0
   -0.4790    1.1410    0.8500 C   0  0  0  0  0  0  0  0  0  0  0  0
    0.3450    2.3320    0.6040 C   0  0  0  0  0  0  0  0  0  0  0  0
    0.1590    3.3390    1.7310 C   0  0  0  0  0  0  0  0  0  0  0  0
   -0.6090    3.0610    2.6610 O   0  0  0  0  0  0  0  0  0  0  0  0
    0.8360    4.5270    1.7050 O   0  0  0  0  0  0  0  0  0  0  0  0
    0.7170    5.4970    2.7010 C   0  0  0  0  0  0  0  0  0  0  0  0
   -1.3970   -1.0680    0.4100 C   0  0  2  0  0  0  0  0  0  0  0  0
   -1.9820   -0.5860    1.6140 O   0  0  0  0  0  0  0  0  0  0  0  0
  1  2  1  0
  2  3  2  3
  3  4  1  0
  3  6  1  0
  4  5  1  0
  6  7  2  0
  6  8  1  0
  9  8  1  6
  9 10  1  0
  9 24  1  0
 10 11  1  0
 12 11  1  6
 12 13  1  0
 12 31  1  0
 13 14  1  0
 14 15  1  0
 15 16  1  6
 15 17  1  0
 15 18  1  0
 18 19  1  1
 18 20  1  0
 18 31  1  0
 20 21  1  0
 21 22  1  6
 21 23  1  0
 21 24  1  0
 24 25  1  1
 24 31  1  0
 25 26  1  0
 26 27  1  0
 27 28  2  0
 27 29  1  0
 29 30  1  0
 31 32  1  1
M  END
