
     RDKit          3D

 17 18  0  0  0  0  0  0  0  0999 V2000
   -5.0170   -0.2940    1.4920 C   0  0  0  0  0  0  0  0  0  0  0  0
   -3.8910   -0.5940    0.8890 C   0  0  0  0  0  0  0  0  0  0  0  0
   -3.5700   -0.0060   -0.3900 C   0  0  0  0  0  0  0  0  0  0  0  0
   -2.3560   -0.2940   -1.1510 C   0  0  0  0  0  0  0  0  0  0  0  0
   -1.1570    0.0000   -0.6280 O   0  0  0  0  0  0  0  0  0  0  0  0
   -0.7210   -0.5100    0.5350 C   0  0  0  0  0  0  0  0  0  0  0  0
    0.7160    0.0380    0.7300 C   0  0  0  0  0  0  0  0  0  0  0  0
    1.5640   -0.4200   -0.4290 C   0  0  0  0  0  0  0  0  0  0  0  0
    2.9630    0.1400   -0.1950 C   0  0  2  0  0  0  0  0  0  0  0  0
    3.8830   -0.2840   -1.3330 C   0  0  0  0  0  0  0  0  0  0  0  0
    5.0890    0.3940   -1.1530 O   0  0  0  0  0  0  0  0  0  0  0  0
    5.4250    0.5740    0.1680 C   0  0  0  0  0  0  0  0  0  0  0  0
    4.7830   -0.4460    1.0910 C   0  0  0  0  0  0  0  0  0  0  0  0
    3.4000   -0.2890    1.0340 O   0  0  0  0  0  0  0  0  0  0  0  0
   -4.4510    0.8340   -0.9170 C   0  0  0  0  0  0  0  0  0  0  0  0
   -5.7400    1.2170   -0.2970 C   0  0  0  0  0  0  0  0  0  0  0  0
   -5.9310    0.5860    0.9350 O   0  0  0  0  0  0  0  0  0  0  0  0
  1  2  2  0
  1 17  1  0
  2  3  1  0
  3  4  1  0
  3 15  2  0
  4  5  1  0
  5  6  1  0
  6  7  1  0
  7  8  1  0
  9  8  1  6
  9 10  1  0
  9 14  1  0
 10 11  1  0
 11 12  1  0
 12 13  1  0
 13 14  1  0
 15 16  1  0
 16 17  1  0
M  END
