
     RDKit          3D

 17 18  0  0  0  0  0  0  0  0999 V2000
    0.8330    0.5590    0.1290 O   0  0  0  0  0  0  0  0  0  0  0  0
    0.9510   -0.6630   -0.0500 C   0  0  0  0  0  0  0  0  0  0  0  0
   -0.1580   -1.5720   -0.4230 C   0  0  0  0  0  0  0  0  0  0  0  0
   -1.4750   -0.8570   -0.5690 C   0  0  1  0  0  0  0  0  0  0  0  0
   -1.9070   -0.1730    0.6990 C   0  0  0  0  0  0  0  0  0  0  0  0
   -3.3640   -0.3770    1.0030 C   0  0  0  0  0  0  0  0  0  0  0  0
   -4.2970    0.2110    0.0190 C   0  0  0  0  0  0  0  0  0  0  0  0
   -3.8290    0.1530   -1.4090 C   0  0  0  0  0  0  0  0  0  0  0  0
   -2.5390    0.8700   -1.6370 C   0  0  0  0  0  0  0  0  0  0  0  0
   -1.4360    0.0170   -1.6430 O   0  0  0  0  0  0  0  0  0  0  0  0
    2.2060   -1.2270    0.1090 O   0  0  0  0  0  0  0  0  0  0  0  0
    3.3340   -0.5130    0.4540 C   0  0  0  0  0  0  0  0  0  0  0  0
    4.0830    0.0040   -0.5050 C   0  0  0  0  0  0  0  0  0  0  0  0
    5.3180    0.7910   -0.2790 C   0  0  0  0  0  0  0  0  0  0  0  0
    5.6690    0.9680    1.0640 O   0  0  0  0  0  0  0  0  0  0  0  0
    4.8930    0.4320    2.0670 C   0  0  0  0  0  0  0  0  0  0  0  0
    3.7990   -0.2630    1.8090 C   0  0  0  0  0  0  0  0  0  0  0  0
  1  2  2  0
  2  3  1  0
  2 11  1  0
  4  3  1  1
  4  5  1  0
  4 10  1  0
  5  6  1  0
  6  7  1  0
  7  8  1  0
  8  9  1  0
  9 10  1  0
 11 12  1  0
 12 13  2  0
 12 17  1  0
 13 14  1  0
 14 15  1  0
 15 16  1  0
 16 17  2  0
M  END
