
     RDKit          3D

 17 18  0  0  0  0  0  0  0  0999 V2000
    3.2480    2.5490    0.2370 C   0  0  0  0  0  0  0  0  0  0  0  0
    2.2270    1.4640    0.3500 C   0  0  0  0  0  0  0  0  0  0  0  0
    2.6950    0.1550   -0.2440 C   0  0  0  0  0  0  0  0  0  0  0  0
    1.5860   -0.8680   -0.0750 C   0  0  1  0  0  0  0  0  0  0  0  0
    1.9660   -2.2060   -0.6390 C   0  0  0  0  0  0  0  0  0  0  0  0
    1.3540   -3.1730    0.3320 C   0  0  0  0  0  0  0  0  0  0  0  0
    0.5780   -2.2710    1.2650 C   0  0  2  0  0  0  0  0  0  0  0  0
   -0.8180   -2.1570    0.8010 C   0  0  0  0  0  0  0  0  0  0  0  0
   -1.5700   -3.1620    0.7570 O   0  0  0  0  0  0  0  0  0  0  0  0
   -1.3610   -0.9490    0.3970 O   0  0  0  0  0  0  0  0  0  0  0  0
   -2.7000   -0.8160   -0.0520 C   0  0  0  0  0  0  0  0  0  0  0  0
   -2.9100    0.6120   -0.3930 C   0  0  0  0  0  0  0  0  0  0  0  0
   -3.2490    1.1260   -1.5600 C   0  0  0  0  0  0  0  0  0  0  0  0
   -3.3310    2.5970   -1.3810 C   0  0  0  0  0  0  0  0  0  0  0  0
   -2.7340    2.8690   -0.1740 O   0  0  0  0  0  0  0  0  0  0  0  0
   -2.7590    1.7230    0.5870 C   0  0  0  0  0  0  0  0  0  0  0  0
    1.2650   -1.0860    1.2420 O   0  0  0  0  0  0  0  0  0  0  0  0
  1  2  1  0
  2  3  1  0
  4  3  1  1
  4  5  1  0
  4 17  1  0
  5  6  1  0
  6  7  1  0
  7  8  1  6
  7 17  1  0
  8  9  2  0
  8 10  1  0
 10 11  1  0
 11 12  1  0
 12 13  2  0
 12 16  1  0
 13 14  1  0
 14 15  1  0
 15 16  1  0
M  END
