
     RDKit          3D

 17 18  0  0  0  0  0  0  0  0999 V2000
    5.7970    0.2700    1.2970 C   0  0  0  0  0  0  0  0  0  0  0  0
    4.5100   -0.0990    0.5950 C   0  0  0  0  0  0  0  0  0  0  0  0
    3.6620    1.1540    0.5370 C   0  0  0  0  0  0  0  0  0  0  0  0
    2.3510    0.8540   -0.1580 C   0  0  0  0  0  0  0  0  0  0  0  0
    1.5640    1.7990   -0.2710 O   0  0  0  0  0  0  0  0  0  0  0  0
    2.0280   -0.3510   -0.6340 O   0  0  0  0  0  0  0  0  0  0  0  0
    0.9690   -0.9190   -1.2740 C   0  0  0  0  0  0  0  0  0  0  0  0
   -0.3280   -1.0000   -0.5410 C   0  0  1  0  0  0  0  0  0  0  0  0
   -0.9470    0.2820   -0.1350 C   0  0  0  0  0  0  0  0  0  0  0  0
   -2.4490    0.0590    0.0450 C   0  0  2  0  0  0  0  0  0  0  0  0
   -3.1550    1.3260    0.4670 C   0  0  0  0  0  0  0  0  0  0  0  0
   -4.3700    0.7370    1.1520 C   0  0  0  0  0  0  0  0  0  0  0  0
   -4.0950   -0.5630    1.4650 O   0  0  0  0  0  0  0  0  0  0  0  0
   -2.7720   -0.8290    1.2180 C   0  0  0  0  0  0  0  0  0  0  0  0
   -3.0780   -0.3910   -1.2500 C   0  0  0  0  0  0  0  0  0  0  0  0
   -1.9090   -0.8380   -2.1410 C   0  0  0  0  0  0  0  0  0  0  0  0
   -1.1940   -1.7430   -1.3880 O   0  0  0  0  0  0  0  0  0  0  0  0
  1  2  1  0
  2  3  1  0
  3  4  1  0
  4  5  2  0
  4  6  1  0
  6  7  1  0
  8  7  1  6
  8  9  1  0
  8 17  1  0
 10  9  1  6
 10 11  1  0
 10 14  1  0
 10 15  1  0
 11 12  1  0
 12 13  1  0
 13 14  1  0
 15 16  1  0
 16 17  1  0
M  END
