
     RDKit          3D

 17 18  0  0  0  0  0  0  0  0999 V2000
    0.5970   -1.4300   -0.6660 C   0  0  0  0  0  0  0  0  0  0  0  0
    0.6090   -0.0560   -0.0460 C   0  0  2  0  0  0  0  0  0  0  0  0
   -0.6810    0.6620   -0.3780 C   0  0  0  0  0  0  0  0  0  0  0  0
   -1.7590   -0.1420    0.0450 O   0  0  0  0  0  0  0  0  0  0  0  0
   -3.0940    0.2240   -0.1110 C   0  0  0  0  0  0  0  0  0  0  0  0
   -3.5950    1.4260   -0.3000 C   0  0  0  0  0  0  0  0  0  0  0  0
   -5.0520    1.3620   -0.4150 C   0  0  0  0  0  0  0  0  0  0  0  0
   -5.8560    2.2830   -0.1930 O   0  0  0  0  0  0  0  0  0  0  0  0
   -5.2970   -0.0520   -0.8520 C   0  0  0  0  0  0  0  0  0  0  0  0
   -4.2020   -0.7460   -0.0820 C   0  0  0  0  0  0  0  0  0  0  0  0
    1.6990    0.7270   -0.4580 O   0  0  0  0  0  0  0  0  0  0  0  0
    3.0150    0.3800   -0.2550 C   0  0  0  0  0  0  0  0  0  0  0  0
    3.6560   -0.3930   -1.1020 C   0  0  0  0  0  0  0  0  0  0  0  0
    5.0680   -0.7920   -0.9260 C   0  0  0  0  0  0  0  0  0  0  0  0
    5.6290   -0.2620    0.2230 O   0  0  0  0  0  0  0  0  0  0  0  0
    4.9840    0.5390    1.1120 C   0  0  0  0  0  0  0  0  0  0  0  0
    3.7150    0.8720    0.9130 C   0  0  0  0  0  0  0  0  0  0  0  0
  2  1  1  6
  2  3  1  0
  2 11  1  0
  3  4  1  0
  4  5  1  0
  5  6  2  0
  5 10  1  0
  6  7  1  0
  7  8  2  0
  7  9  1  0
  9 10  1  0
 11 12  1  0
 12 13  2  0
 12 17  1  0
 13 14  1  0
 14 15  1  0
 15 16  1  0
 16 17  2  0
M  END
