
     RDKit          3D

 17 18  0  0  0  0  0  0  0  0999 V2000
    0.5170   -0.3090    3.1490 C   0  0  0  0  0  0  0  0  0  0  0  0
   -0.1280   -0.2240    1.7840 C   0  0  1  0  0  0  0  0  0  0  0  0
   -1.0560    0.7720    1.6780 O   0  0  0  0  0  0  0  0  0  0  0  0
   -2.3300    0.3810    1.3760 C   0  0  0  0  0  0  0  0  0  0  0  0
   -2.4930   -0.3440    0.0770 C   0  0  2  0  0  0  0  0  0  0  0  0
   -2.1140    0.5050   -1.1110 C   0  0  0  0  0  0  0  0  0  0  0  0
   -3.4040    0.5560   -1.9010 C   0  0  0  0  0  0  0  0  0  0  0  0
   -4.4310    0.3800   -0.7740 C   0  0  0  0  0  0  0  0  0  0  0  0
   -3.8420   -0.6610   -0.0610 O   0  0  0  0  0  0  0  0  0  0  0  0
    0.9390    0.0060    0.7770 C   0  0  0  0  0  0  0  0  0  0  0  0
    0.9010    0.9920   -0.0030 O   0  0  0  0  0  0  0  0  0  0  0  0
    2.0310   -0.8540    0.6440 O   0  0  0  0  0  0  0  0  0  0  0  0
    3.0310   -0.6150   -0.3190 C   0  0  0  0  0  0  0  0  0  0  0  0
    4.1060    0.1090   -0.0820 C   0  0  0  0  0  0  0  0  0  0  0  0
    4.9450    0.1620   -1.2960 C   0  0  0  0  0  0  0  0  0  0  0  0
    4.1920   -0.6420   -2.2740 C   0  0  0  0  0  0  0  0  0  0  0  0
    3.0990   -1.0720   -1.6790 C   0  0  0  0  0  0  0  0  0  0  0  0
  2  1  1  1
  2  3  1  0
  2 10  1  0
  3  4  1  0
  5  4  1  1
  5  6  1  0
  5  9  1  0
  6  7  1  0
  7  8  1  0
  8  9  1  0
 10 11  2  0
 10 12  1  0
 12 13  1  0
 13 14  2  0
 13 17  1  0
 14 15  1  0
 15 16  1  0
 16 17  2  0
M  END
