
     RDKit          3D

 30 33  0  0  0  0  0  0  0  0999 V2000
   -5.2090    2.6150   -0.6000 C   0  0  0  0  0  0  0  0  0  0  0  0
   -5.1110    1.3910    0.3470 C   0  0  2  0  0  0  0  0  0  0  0  0
   -6.5440    1.0610    0.7570 C   0  0  0  0  0  0  0  0  0  0  0  0
   -4.3410    1.7950    1.4090 O   0  0  0  0  0  0  0  0  0  0  0  0
   -3.1050    1.3180    1.7070 C   0  0  0  0  0  0  0  0  0  0  0  0
   -2.4840    1.7980    2.7140 O   0  0  0  0  0  0  0  0  0  0  0  0
   -2.4800    0.3040    0.9370 N   0  0  0  0  0  0  0  0  0  0  0  0
   -1.1840   -0.2150    1.2320 C   0  0  0  0  0  0  0  0  0  0  0  0
   -0.1300    0.6190    0.5050 C   0  0  1  0  0  0  0  0  0  0  0  0
   -0.2450    1.9430    0.9950 O   0  0  0  0  0  0  0  0  0  0  0  0
    1.2630    0.1580    0.8630 C   0  0  0  0  0  0  0  0  0  0  0  0
    1.5050   -1.1580    0.4050 N   0  0  0  0  0  0  0  0  0  0  0  0
    1.6090   -1.3230   -1.0000 C   0  0  0  0  0  0  0  0  0  0  0  0
    2.9990   -1.1540   -1.5500 C   0  0  0  0  0  0  0  0  0  0  0  0
    3.9610   -1.1850   -0.4730 N   0  0  0  0  0  0  0  0  0  0  0  0
    5.1360   -0.3410   -0.4810 C   0  0  0  0  0  0  0  0  0  0  0  0
    4.9390    0.9370   -0.7140 C   0  0  0  0  0  0  0  0  0  0  0  0
    5.9520    1.9990   -0.7760 C   0  0  0  0  0  0  0  0  0  0  0  0
    7.6210    1.4180   -0.4890 S   0  0  0  0  0  0  0  0  0  0  0  0
    7.5310   -0.3410   -0.2100 C   0  0  0  0  0  0  0  0  0  0  0  0
    6.3890   -0.9940   -0.2320 C   0  0  0  0  0  0  0  0  0  0  0  0
    6.4930   -2.8950    0.0890 Br  0  0  0  0  0  0  0  0  0  0  0  0
    3.7480   -2.0850    0.6330 C   0  0  0  0  0  0  0  0  0  0  0  0
    2.3560   -1.9840    1.1860 C   0  0  0  0  0  0  0  0  0  0  0  0
   -3.2700   -0.1660   -0.1750 C   0  0  0  0  0  0  0  0  0  0  0  0
   -2.7200   -1.1800   -0.9710 C   0  0  0  0  0  0  0  0  0  0  0  0
   -3.4180   -1.6870   -2.0370 C   0  0  0  0  0  0  0  0  0  0  0  0
   -4.6680   -1.1700   -2.2970 C   0  0  0  0  0  0  0  0  0  0  0  0
   -5.2430   -0.1850   -1.5520 C   0  0  0  0  0  0  0  0  0  0  0  0
   -4.5140    0.3300   -0.4570 C   0  0  0  0  0  0  0  0  0  0  0  0
  2  1  1  6
  2  3  1  0
  2  4  1  0
  2 30  1  0
  4  5  1  0
  5  6  2  0
  5  7  1  0
  7  8  1  0
  7 25  1  0
  8  9  1  0
  9 10  1  1
  9 11  1  0
 11 12  1  0
 12 13  1  0
 12 24  1  0
 13 14  1  0
 14 15  1  0
 15 16  1  0
 15 23  1  0
 16 17  2  0
 16 21  1  0
 17 18  1  0
 18 19  1  0
 19 20  1  0
 20 21  2  0
 21 22  1  0
 23 24  1  0
 25 26  2  0
 25 30  1  0
 26 27  1  0
 27 28  2  0
 28 29  1  0
 29 30  2  0
M  END
