
     RDKit          3D

 29 32  0  0  0  0  0  0  0  0999 V2000
    1.1990    2.3400    3.3390 C   0  0  0  0  0  0  0  0  0  0  0  0
    0.8290    2.0000    1.9840 N   0  0  0  0  0  0  0  0  0  0  0  0
    1.6290    2.5020    0.8990 C   0  0  0  0  0  0  0  0  0  0  0  0
    2.7430    1.5750    0.6500 C   0  0  0  0  0  0  0  0  0  0  0  0
    3.7200    1.3470    1.5920 C   0  0  0  0  0  0  0  0  0  0  0  0
    4.7690    0.4860    1.3510 C   0  0  0  0  0  0  0  0  0  0  0  0
    4.8300   -0.1650    0.1210 C   0  0  0  0  0  0  0  0  0  0  0  0
    3.8690    0.0400   -0.8450 C   0  0  0  0  0  0  0  0  0  0  0  0
    2.8410    0.9130   -0.5510 C   0  0  0  0  0  0  0  0  0  0  0  0
    3.9830   -0.6290   -2.0370 O   0  0  0  0  0  0  0  0  0  0  0  0
    5.1740   -1.1150   -2.5840 C   0  0  0  0  0  0  0  0  0  0  0  0
    6.3480   -1.0410   -1.6460 C   0  0  0  0  0  0  0  0  0  0  0  0
    5.9370   -1.1050   -0.1990 C   0  0  0  0  0  0  0  0  0  0  0  0
   -0.2880    1.1950    1.7460 C   0  0  0  0  0  0  0  0  0  0  0  0
   -0.9730    0.7590    2.7340 O   0  0  0  0  0  0  0  0  0  0  0  0
   -0.7570    0.7950    0.3940 C   0  0  0  0  0  0  0  0  0  0  0  0
   -2.0010   -0.0550    0.4200 C   0  0  2  0  0  0  0  0  0  0  0  0
   -1.8370   -1.3140    1.1590 C   0  0  0  0  0  0  0  0  0  0  0  0
   -2.3820   -1.6250    2.3800 C   0  0  0  0  0  0  0  0  0  0  0  0
   -1.9730   -2.8950    2.7150 C   0  0  0  0  0  0  0  0  0  0  0  0
   -1.1970   -3.3380    1.7140 N   0  0  0  0  0  0  0  0  0  0  0  0
   -1.0970   -2.4020    0.7600 C   0  0  0  0  0  0  0  0  0  0  0  0
   -2.3860   -0.2440   -0.9690 N   0  0  2  0  0  0  0  0  0  0  0  0
   -2.7340    1.0260   -1.5210 C   0  0  0  0  0  0  0  0  0  0  0  0
   -3.7470    0.9540   -2.6410 C   0  0  0  0  0  0  0  0  0  0  0  0
   -5.1430    0.7000   -2.1980 C   0  0  0  0  0  0  0  0  0  0  0  0
   -5.2950    0.2970   -0.7580 C   0  0  0  0  0  0  0  0  0  0  0  0
   -4.6680   -1.0410   -0.4610 C   0  0  0  0  0  0  0  0  0  0  0  0
   -3.3720   -1.2640   -1.1500 C   0  0  0  0  0  0  0  0  0  0  0  0
  1  2  1  0
  2  3  1  0
  2 14  1  0
  3  4  1  0
  4  5  2  0
  4  9  1  0
  5  6  1  0
  6  7  2  0
  7  8  1  0
  7 13  1  0
  8  9  2  0
  8 10  1  0
 10 11  1  0
 11 12  1  0
 12 13  1  0
 14 15  2  0
 14 16  1  0
 17 16  1  6
 17 18  1  0
 17 23  1  0
 18 19  1  0
 18 22  2  0
 19 20  2  0
 20 21  1  0
 21 22  1  0
 23 24  1  1
 23 29  1  0
 24 25  1  0
 25 26  1  0
 26 27  1  0
 27 28  1  0
 28 29  1  0
M  CHG  1  23   1
M  END
