
     RDKit          3D

 30 32  0  0  0  0  0  0  0  0999 V2000
   -0.1470    5.4780   -1.2240 C   0  0  0  0  0  0  0  0  0  0  0  0
   -0.3760    4.0460   -1.5540 C   0  0  0  0  0  0  0  0  0  0  0  0
    0.5250    3.0940   -0.7500 C   0  0  0  0  0  0  0  0  0  0  0  0
    0.1980    1.6730   -1.0700 C   0  0  0  0  0  0  0  0  0  0  0  0
    1.1140    0.6610   -0.5090 C   0  0  0  0  0  0  0  0  0  0  0  0
    0.5890   -0.3270    0.1810 C   0  0  0  0  0  0  0  0  0  0  0  0
   -0.7320   -0.4930    0.4550 C   0  0  0  0  0  0  0  0  0  0  0  0
   -1.7400    0.5030    0.6790 C   0  0  0  0  0  0  0  0  0  0  0  0
   -2.9530    0.0380    0.7910 O   0  0  0  0  0  0  0  0  0  0  0  0
   -1.7340    1.8560    0.8360 O   0  0  0  0  0  0  0  0  0  0  0  0
   -2.8950    2.6060    1.1340 C   0  0  1  0  0  0  0  0  0  0  0  0
   -2.6870    3.0580    2.5980 C   0  0  0  0  0  0  0  0  0  0  0  0
   -3.2800    3.7110    0.2610 C   0  0  0  0  0  0  0  0  0  0  0  0
   -0.8750   -1.8450    0.8820 C   0  0  0  0  0  0  0  0  0  0  0  0
   -2.1650   -2.4960    1.1740 C   0  0  0  0  0  0  0  0  0  0  0  0
   -2.7600   -3.1200   -0.0690 C   0  0  1  0  0  0  0  0  0  0  0  0
   -1.8050   -4.1970   -0.6070 C   0  0  0  0  0  0  0  0  0  0  0  0
   -4.0280   -3.8210    0.3310 C   0  0  0  0  0  0  0  0  0  0  0  0
   -3.0340   -2.2050   -1.2050 C   0  0  0  0  0  0  0  0  0  0  0  0
    0.3300   -2.4120    0.8660 N   0  0  0  0  0  0  0  0  0  0  0  0
    1.2680   -1.5490    0.4530 C   0  0  0  0  0  0  0  0  0  0  0  0
    2.5210   -1.8620    0.3530 C   0  0  0  0  0  0  0  0  0  0  0  0
    3.6680   -1.0880   -0.0690 C   0  0  0  0  0  0  0  0  0  0  0  0
    4.9950   -1.6650    0.0660 C   0  0  0  0  0  0  0  0  0  0  0  0
    5.2860   -2.8590    0.5480 C   0  0  0  0  0  0  0  0  0  0  0  0
    6.7570   -3.0850    0.5230 C   0  0  0  0  0  0  0  0  0  0  0  0
    7.2390   -1.8490   -0.0400 N   0  0  0  0  0  0  0  0  0  0  0  0
    6.2440   -1.0610   -0.2920 C   0  0  0  0  0  0  0  0  0  0  0  0
    3.5500    0.1050   -0.5640 N   0  0  0  0  0  0  0  0  0  0  0  0
    2.5240    0.9890   -0.8540 C   0  0  0  0  0  0  0  0  0  0  0  0
  1  2  1  0
  2  3  1  0
  3  4  1  0
  4  5  1  0
  5  6  2  0
  5 30  1  0
  6  7  1  0
  6 21  1  0
  7  8  1  0
  7 14  2  0
  8  9  2  0
  8 10  1  0
 10 11  1  0
 11 12  1  1
 11 13  1  0
 14 15  1  0
 14 20  1  0
 15 16  1  0
 16 17  1  6
 16 18  1  0
 16 19  1  0
 20 21  1  0
 21 22  2  0
 22 23  1  0
 23 24  1  0
 23 29  2  0
 24 25  2  0
 24 28  1  0
 25 26  1  0
 26 27  1  0
 27 28  2  0
 29 30  1  0
M  CHG  1  29   1
M  END
