
     RDKit          3D

 30 33  0  0  0  0  0  0  0  0999 V2000
    7.9240   -0.8140   -1.2820 C   0  0  0  0  0  0  0  0  0  0  0  0
    6.9340   -0.1490   -0.4500 N   0  0  0  0  0  0  0  0  0  0  0  0
    5.6300   -0.6620   -0.7980 C   0  0  0  0  0  0  0  0  0  0  0  0
    4.6440   -0.0160    0.1370 C   0  0  0  0  0  0  0  0  0  0  0  0
    3.2930   -0.3110    0.0490 C   0  0  0  0  0  0  0  0  0  0  0  0
    2.3800    0.2740    0.8990 C   0  0  0  0  0  0  0  0  0  0  0  0
    0.9640   -0.0950    0.7390 C   0  0  0  0  0  0  0  0  0  0  0  0
    0.2080    0.7750   -0.2110 C   0  0  0  0  0  0  0  0  0  0  0  0
   -1.1700    0.3520   -0.3150 N   0  0  0  0  0  0  0  0  0  0  0  0
   -2.0930    0.8920    0.5100 C   0  0  0  0  0  0  0  0  0  0  0  0
   -1.7720    1.7670    1.3760 O   0  0  0  0  0  0  0  0  0  0  0  0
   -3.4230    0.5380    0.4700 C   0  0  0  0  0  0  0  0  0  0  0  0
   -4.3570    1.1120    1.3340 O   0  0  0  0  0  0  0  0  0  0  0  0
   -5.6970    0.7650    1.3040 C   0  0  0  0  0  0  0  0  0  0  0  0
   -6.1940   -0.2660    2.0690 C   0  0  0  0  0  0  0  0  0  0  0  0
   -7.5510   -0.6020    2.0250 C   0  0  0  0  0  0  0  0  0  0  0  0
   -8.4320    0.0860    1.2170 C   0  0  0  0  0  0  0  0  0  0  0  0
   -7.9300    1.1170    0.4520 C   0  0  0  0  0  0  0  0  0  0  0  0
   -6.5860    1.4470    0.4990 C   0  0  0  0  0  0  0  0  0  0  0  0
   -3.7740   -0.4090   -0.4680 C   0  0  0  0  0  0  0  0  0  0  0  0
   -2.8660   -0.9850   -1.3280 C   0  0  0  0  0  0  0  0  0  0  0  0
   -3.2510   -1.9320   -2.2530 C   0  0  0  0  0  0  0  0  0  0  0  0
   -2.3350   -2.5070   -3.1090 C   0  0  0  0  0  0  0  0  0  0  0  0
   -1.0060   -2.1120   -3.0230 C   0  0  0  0  0  0  0  0  0  0  0  0
   -0.6340   -1.1630   -2.0940 C   0  0  0  0  0  0  0  0  0  0  0  0
   -1.5320   -0.5680   -1.2210 C   0  0  0  0  0  0  0  0  0  0  0  0
    2.8310    1.1610    1.8420 C   0  0  0  0  0  0  0  0  0  0  0  0
    4.1640    1.4360    1.9090 C   0  0  0  0  0  0  0  0  0  0  0  0
    4.6430    2.3980    2.9340 C   0  0  0  0  0  0  0  0  0  0  0  0
    5.0410    0.8580    1.0750 N   0  0  0  0  0  0  0  0  0  0  0  0
  1  2  1  0
  2  3  1  0
  3  4  1  0
  4  5  2  0
  4 30  1  0
  5  6  1  0
  6  7  1  0
  6 27  2  0
  7  8  1  0
  8  9  1  0
  9 10  1  0
  9 26  1  0
 10 11  2  0
 10 12  1  0
 12 13  1  0
 12 20  2  0
 13 14  1  0
 14 15  2  0
 14 19  1  0
 15 16  1  0
 16 17  2  0
 17 18  1  0
 18 19  2  0
 20 21  1  0
 21 22  2  0
 21 26  1  0
 22 23  1  0
 23 24  2  0
 24 25  1  0
 25 26  2  0
 27 28  1  0
 28 29  1  0
 28 30  2  0
M  CHG  1   2   1
M  END
