
     RDKit          3D

 22 24  0  0  0  0  0  0  0  0999 V2000
   -0.6460    4.3520   -0.4840 N   0  0  0  0  0  0  0  0  0  0  0  0
   -0.2070    3.0140   -0.4790 C   0  0  0  0  0  0  0  0  0  0  0  0
    0.7900    2.7100   -1.1600 O   0  0  0  0  0  0  0  0  0  0  0  0
   -0.9180    1.9580    0.3290 C   0  0  1  0  0  0  0  0  0  0  0  0
   -2.2450    1.7940   -0.3840 C   0  0  0  0  0  0  0  0  0  0  0  0
   -3.1560    0.7850    0.1870 C   0  0  0  0  0  0  0  0  0  0  0  0
   -2.6510   -0.4290    0.4650 O   0  0  0  0  0  0  0  0  0  0  0  0
   -1.8030   -1.0060   -0.4740 C   0  0  2  0  0  0  0  0  0  0  0  0
   -2.0510   -2.4630   -0.6310 C   0  0  0  0  0  0  0  0  0  0  0  0
   -1.9390   -3.2600    0.5470 N   0  0  0  0  0  0  0  0  0  0  0  0
   -1.2590   -4.2630    0.6130 O   0  0  0  0  0  0  0  0  0  0  0  0
   -2.6700   -2.8720    1.6470 O   0  0  0  0  0  0  0  0  0  0  0  0
   -0.4330   -0.5740   -0.1750 C   0  0  0  0  0  0  0  0  0  0  0  0
    0.5240   -1.5370   -0.2560 C   0  0  0  0  0  0  0  0  0  0  0  0
    1.8340   -1.2540    0.0370 C   0  0  0  0  0  0  0  0  0  0  0  0
    2.2140    0.0110    0.4210 C   0  0  0  0  0  0  0  0  0  0  0  0
    1.2410    0.9700    0.4960 C   0  0  0  0  0  0  0  0  0  0  0  0
   -0.0890    0.7060    0.2030 C   0  0  0  0  0  0  0  0  0  0  0  0
    3.5610    0.2890    0.7200 O   0  0  0  0  0  0  0  0  0  0  0  0
    4.5100   -0.6400    0.2300 C   0  0  0  0  0  0  0  0  0  0  0  0
    4.0120   -2.0190    0.6840 C   0  0  0  0  0  0  0  0  0  0  0  0
    2.8220   -2.2540   -0.0470 O   0  0  0  0  0  0  0  0  0  0  0  0
  1  2  1  0
  2  3  2  0
  4  2  1  6
  4  5  1  0
  4 18  1  0
  5  6  1  0
  6  7  1  0
  7  8  1  0
  8  9  1  1
  8 13  1  0
  9 10  1  0
 10 11  2  0
 10 12  1  0
 13 14  2  0
 13 18  1  0
 14 15  1  0
 15 16  2  0
 15 22  1  0
 16 17  1  0
 16 19  1  0
 17 18  2  0
 19 20  1  0
 20 21  1  0
 21 22  1  0
M  CHG  2  10   1  12  -1
M  END
