
     RDKit          3D

 21 22  0  0  0  0  0  0  0  0999 V2000
   -2.3200    1.7540    3.0020 C   0  0  0  0  0  0  0  0  0  0  0  0
   -2.2310    0.9750    1.8520 O   0  0  0  0  0  0  0  0  0  0  0  0
   -1.2000    1.0010    0.9360 C   0  0  0  0  0  0  0  0  0  0  0  0
   -0.2580    1.7870    1.1450 O   0  0  0  0  0  0  0  0  0  0  0  0
   -1.2870    0.0840   -0.2370 C   0  0  1  0  0  0  0  0  0  0  0  0
   -0.0560    0.2900   -0.9760 N   0  0  0  0  0  0  0  0  0  0  0  0
    1.2320    0.0310   -0.3820 C   0  0  0  0  0  0  0  0  0  0  0  0
    1.1780   -0.3760    0.7880 O   0  0  0  0  0  0  0  0  0  0  0  0
    2.4220    0.2310   -1.0860 N   0  0  0  0  0  0  0  0  0  0  0  0
    3.7360    0.0120   -0.6090 C   0  0  0  0  0  0  0  0  0  0  0  0
    4.8110    0.2410   -1.3840 C   0  0  0  0  0  0  0  0  0  0  0  0
    4.8110    0.8210   -3.0430 Cl  0  0  0  0  0  0  0  0  0  0  0  0
    6.0110   -0.0670   -0.6360 C   0  0  0  0  0  0  0  0  0  0  0  0
    5.5180   -0.5070    0.6790 C   0  0  0  0  0  0  0  0  0  0  0  0
    4.1770   -0.4520    0.6720 C   0  0  0  0  0  0  0  0  0  0  0  0
    3.2840   -0.9220    2.1150 Cl  0  0  0  0  0  0  0  0  0  0  0  0
   -1.4590   -1.3470    0.1760 C   0  0  0  0  0  0  0  0  0  0  0  0
   -2.7960   -1.9030   -0.1600 C   0  0  0  0  0  0  0  0  0  0  0  0
   -3.9310   -0.9530    0.1540 C   0  0  0  0  0  0  0  0  0  0  0  0
   -3.7160    0.4020   -0.4570 C   0  0  0  0  0  0  0  0  0  0  0  0
   -2.4100    0.4800   -1.1540 C   0  0  0  0  0  0  0  0  0  0  0  0
  1  2  1  0
  2  3  1  0
  3  4  2  0
  3  5  1  0
  5  6  1  6
  5 17  1  0
  5 21  1  0
  6  7  1  0
  7  8  2  0
  7  9  1  0
  9 10  1  0
 10 11  2  0
 10 15  1  0
 11 12  1  0
 11 13  1  0
 13 14  1  0
 14 15  2  0
 15 16  1  0
 17 18  1  0
 18 19  1  0
 19 20  1  0
 20 21  1  0
M  END
