
     RDKit          3D

 22 24  0  0  0  0  0  0  0  0999 V2000
    3.5440   -2.0300   -0.8490 O   0  0  0  0  0  0  0  0  0  0  0  0
    2.8590   -1.1130   -0.2240 C   0  0  0  0  0  0  0  0  0  0  0  0
    3.6380   -0.0360    0.3340 C   0  0  0  0  0  0  0  0  0  0  0  0
    3.2500    1.0560    1.0550 C   0  0  0  0  0  0  0  0  0  0  0  0
    4.3940    1.7920    1.3550 C   0  0  0  0  0  0  0  0  0  0  0  0
    5.4200    1.0940    0.7920 C   0  0  0  0  0  0  0  0  0  0  0  0
    4.9620    0.0250    0.1980 O   0  0  0  0  0  0  0  0  0  0  0  0
    1.4660   -1.2380   -0.1430 N   0  0  0  0  0  0  0  0  0  0  0  0
    0.7590   -2.3710   -0.7230 C   0  0  0  0  0  0  0  0  0  0  0  0
   -0.5370   -1.7240   -1.1500 C   0  0  0  0  0  0  0  0  0  0  0  0
   -0.8510   -1.0360    0.1890 C   0  0  2  0  0  0  0  0  0  0  0  0
   -1.0060   -2.0670    1.1080 O   0  0  0  0  0  0  0  0  0  0  0  0
   -2.0000   -0.1770    0.1740 C   0  0  0  0  0  0  0  0  0  0  0  0
   -3.0660   -0.4400    1.0160 C   0  0  0  0  0  0  0  0  0  0  0  0
   -4.2090    0.3120    1.0850 C   0  0  0  0  0  0  0  0  0  0  0  0
   -4.2950    1.3810    0.2750 N   0  0  0  0  0  0  0  0  0  0  0  0
   -5.4300    2.1550    0.3210 O   0  0  0  0  0  0  0  0  0  0  0  0
   -3.2890    1.6900   -0.5690 C   0  0  0  0  0  0  0  0  0  0  0  0
   -3.4390    2.8110   -1.3830 O   0  0  0  0  0  0  0  0  0  0  0  0
   -2.1530    0.9440   -0.6380 C   0  0  0  0  0  0  0  0  0  0  0  0
   -1.1130    1.2390   -1.4900 O   0  0  0  0  0  0  0  0  0  0  0  0
    0.4910   -0.3860    0.4510 C   0  0  0  0  0  0  0  0  0  0  0  0
  1  2  2  0
  2  3  1  0
  2  8  1  0
  3  4  2  0
  3  7  1  0
  4  5  1  0
  5  6  2  0
  6  7  1  0
  8  9  1  0
  8 22  1  0
  9 10  1  0
 10 11  1  0
 11 12  1  1
 11 13  1  0
 11 22  1  0
 13 14  2  0
 13 20  1  0
 14 15  1  0
 15 16  2  0
 16 17  1  0
 16 18  1  0
 18 19  1  0
 18 20  2  0
 20 21  1  0
M  CHG  2  16   1  17  -1
M  END
