
     RDKit          3D

 22 24  0  0  0  0  0  0  0  0999 V2000
    2.8620   -2.7180   -0.7570 N   0  0  0  0  0  0  0  0  0  0  0  0
    2.6030   -1.4700   -0.5590 C   0  0  0  0  0  0  0  0  0  0  0  0
    2.5150   -1.0380    0.7580 O   0  0  0  0  0  0  0  0  0  0  0  0
    2.4040   -0.5110   -1.6480 C   0  0  0  0  0  0  0  0  0  0  0  0
    1.1260    0.0160   -1.8110 O   0  0  0  0  0  0  0  0  0  0  0  0
    0.4700    0.7030   -0.8380 C   0  0  0  0  0  0  0  0  0  0  0  0
   -0.4380    0.1170   -0.0340 C   0  0  0  0  0  0  0  0  0  0  0  0
   -1.0670    0.9010    0.9470 C   0  0  0  0  0  0  0  0  0  0  0  0
   -0.7620    2.2270    1.0820 C   0  0  0  0  0  0  0  0  0  0  0  0
    0.1750    2.8390    0.2560 C   0  0  0  0  0  0  0  0  0  0  0  0
    0.6740    4.1390    0.1640 C   0  0  0  0  0  0  0  0  0  0  0  0
    1.5830    4.0820   -0.8710 C   0  0  0  0  0  0  0  0  0  0  0  0
    1.6180    2.8620   -1.3460 O   0  0  0  0  0  0  0  0  0  0  0  0
    0.7880    2.0790   -0.7000 C   0  0  0  0  0  0  0  0  0  0  0  0
   -2.0900    0.4270    1.8590 C   0  0  0  0  0  0  0  0  0  0  0  0
   -2.3870    1.2220    2.7790 O   0  0  0  0  0  0  0  0  0  0  0  0
   -2.7270   -0.7960    1.7740 O   0  0  0  0  0  0  0  0  0  0  0  0
   -3.0590   -1.5940    0.6750 C   0  0  0  0  0  0  0  0  0  0  0  0
   -2.2490   -1.4440   -0.5510 C   0  0  0  0  0  0  0  0  0  0  0  0
   -0.7270   -1.3080   -0.3010 C   0  0  2  0  0  0  0  0  0  0  0  0
   -0.3970   -2.2000    0.7860 N   0  0  0  0  0  0  0  0  0  0  0  0
   -0.2330   -1.5940    1.9740 O   0  0  0  0  0  0  0  0  0  0  0  0
  1  2  2  0
  2  3  1  0
  2  4  1  0
  4  5  1  0
  5  6  1  0
  6  7  2  0
  6 14  1  0
  7  8  1  0
  7 20  1  0
  8  9  2  0
  8 15  1  0
  9 10  1  0
 10 11  1  0
 10 14  2  0
 11 12  2  0
 12 13  1  0
 13 14  1  0
 15 16  2  0
 15 17  1  0
 17 18  1  0
 18 19  1  0
 19 20  1  0
 20 21  1  1
 21 22  1  0
M  CHG  2  21   1  22  -1
M  END
