
     RDKit          3D

 22 23  0  0  0  0  0  0  0  0999 V2000
    1.5510    3.2040   -1.3700 C   0  0  0  0  0  0  0  0  0  0  0  0
    0.9000    1.9870   -1.1680 O   0  0  0  0  0  0  0  0  0  0  0  0
    1.5060    0.8350   -0.7090 C   0  0  0  0  0  0  0  0  0  0  0  0
    2.8490    0.7920   -0.4030 C   0  0  0  0  0  0  0  0  0  0  0  0
    3.4430   -0.3870    0.0610 C   0  0  0  0  0  0  0  0  0  0  0  0
    4.8370   -0.4240    0.3770 N   0  0  0  0  0  0  0  0  0  0  0  0
    5.4870   -1.4670    0.2200 O   0  0  0  0  0  0  0  0  0  0  0  0
    5.4910    0.6850    0.8600 O   0  0  0  0  0  0  0  0  0  0  0  0
    2.7000   -1.5330    0.2240 C   0  0  0  0  0  0  0  0  0  0  0  0
    3.3230   -2.8060    0.7210 C   0  0  0  0  0  0  0  0  0  0  0  0
    1.3420   -1.4730   -0.0910 C   0  0  0  0  0  0  0  0  0  0  0  0
    0.6260   -2.6500    0.0860 O   0  0  0  0  0  0  0  0  0  0  0  0
    0.7480   -0.3060   -0.5510 C   0  0  0  0  0  0  0  0  0  0  0  0
   -0.6100   -0.3010   -0.8500 O   0  0  0  0  0  0  0  0  0  0  0  0
   -1.5410    0.0190    0.1110 C   0  0  0  0  0  0  0  0  0  0  0  0
   -1.1010    0.3050    1.2640 O   0  0  0  0  0  0  0  0  0  0  0  0
   -2.9820    0.0400   -0.1500 C   0  0  0  0  0  0  0  0  0  0  0  0
   -3.5920   -0.2380   -1.3160 N   0  0  0  0  0  0  0  0  0  0  0  0
   -4.9240   -0.1200   -1.1950 C   0  0  0  0  0  0  0  0  0  0  0  0
   -5.1930    0.2520    0.1120 C   0  0  0  0  0  0  0  0  0  0  0  0
   -3.9760    0.3460    0.7450 C   0  0  0  0  0  0  0  0  0  0  0  0
   -3.7030    0.7160    2.1690 C   0  0  0  0  0  0  0  0  0  0  0  0
  1  2  1  0
  2  3  1  0
  3  4  2  0
  3 13  1  0
  4  5  1  0
  5  6  1  0
  5  9  2  0
  6  7  2  0
  6  8  1  0
  9 10  1  0
  9 11  1  0
 11 12  1  0
 11 13  2  0
 13 14  1  0
 14 15  1  0
 15 16  2  0
 15 17  1  0
 17 18  1  0
 17 21  2  0
 18 19  1  0
 19 20  2  0
 20 21  1  0
 21 22  1  0
M  CHG  2   6   1   8  -1
M  END
