
     RDKit          3D

 22 23  0  0  0  0  0  0  0  0999 V2000
    5.0820   -2.1270   -0.2860 C   0  0  0  0  0  0  0  0  0  0  0  0
    3.6320   -2.2290   -0.6810 C   0  0  0  0  0  0  0  0  0  0  0  0
    2.9590   -1.0600   -0.2390 O   0  0  0  0  0  0  0  0  0  0  0  0
    1.5980   -0.8670   -0.4610 C   0  0  0  0  0  0  0  0  0  0  0  0
    1.0120   -1.7880   -1.0740 O   0  0  0  0  0  0  0  0  0  0  0  0
    0.8770    0.2780   -0.0430 N   0  0  0  0  0  0  0  0  0  0  0  0
    1.7430    1.2220    0.6440 C   0  0  0  0  0  0  0  0  0  0  0  0
    1.3740    2.6210    0.1920 C   0  0  0  0  0  0  0  0  0  0  0  0
    0.1500    3.0040    0.9580 C   0  0  0  0  0  0  0  0  0  0  0  0
   -1.1270    2.6800    0.2800 C   0  0  0  0  0  0  0  0  0  0  0  0
   -1.1570    1.5670   -0.6730 C   0  0  0  0  0  0  0  0  0  0  0  0
   -0.5160    0.2810   -0.3650 C   0  0  2  0  0  0  0  0  0  0  0  0
   -1.2310   -0.6260    0.5880 C   0  0  1  0  0  0  0  0  0  0  0  0
   -1.0860   -0.2610    1.9710 N   0  0  0  0  0  0  0  0  0  0  0  0
   -2.6340   -0.9040    0.2830 C   0  0  0  0  0  0  0  0  0  0  0  0
   -3.6470   -0.4760    1.0170 C   0  0  0  0  0  0  0  0  0  0  0  0
   -3.6190    0.3020    2.2000 O   0  0  0  0  0  0  0  0  0  0  0  0
   -4.8300   -0.9170    0.4350 O   0  0  0  0  0  0  0  0  0  0  0  0
   -4.5690   -1.6250   -0.6720 O   0  0  0  0  0  0  0  0  0  0  0  0
   -3.1660   -1.6630   -0.8390 C   0  0  0  0  0  0  0  0  0  0  0  0
   -2.5840   -2.2840   -1.8300 C   0  0  0  0  0  0  0  0  0  0  0  0
   -3.3040   -2.9530   -2.8040 O   0  0  0  0  0  0  0  0  0  0  0  0
  1  2  1  0
  2  3  1  0
  3  4  1  0
  4  5  2  0
  4  6  1  0
  6  7  1  0
  6 12  1  0
  7  8  1  0
  8  9  1  0
  9 10  1  0
 10 11  1  0
 12 11  1  1
 12 13  1  0
 13 14  1  1
 13 15  1  0
 15 16  2  0
 15 20  1  0
 16 17  1  0
 16 18  1  0
 18 19  1  0
 19 20  1  0
 20 21  2  3
 21 22  1  0
M  CHG  2  14   1  22  -1
M  END
