
     RDKit          3D

 22 24  0  0  0  0  0  0  0  0999 V2000
    4.6760    0.7400   -0.7640 O   0  0  0  0  0  0  0  0  0  0  0  0
    3.5250    0.9380   -0.2760 C   0  0  0  0  0  0  0  0  0  0  0  0
    3.2900    2.1960    0.1990 O   0  0  0  0  0  0  0  0  0  0  0  0
    2.5220   -0.1030   -0.2260 C   0  0  0  0  0  0  0  0  0  0  0  0
    2.8800   -1.3150   -0.7840 C   0  0  0  0  0  0  0  0  0  0  0  0
    1.9890   -2.3170   -0.7950 C   0  0  0  0  0  0  0  0  0  0  0  0
    0.6870   -2.1590   -0.2490 C   0  0  0  0  0  0  0  0  0  0  0  0
   -0.0890   -3.2940   -0.3200 N   0  0  0  0  0  0  0  0  0  0  0  0
   -1.2620   -3.3880   -0.5920 O   0  0  0  0  0  0  0  0  0  0  0  0
    0.5530   -4.5430   -0.1450 O   0  0  0  0  0  0  0  0  0  0  0  0
    0.2930   -0.9930    0.3090 C   0  0  0  0  0  0  0  0  0  0  0  0
    1.2730    0.0460    0.2990 C   0  0  0  0  0  0  0  0  0  0  0  0
    0.9420    1.2970    0.8820 N   0  0  0  0  0  0  0  0  0  0  0  0
   -0.3930    1.8130    0.7050 C   0  0  1  0  0  0  0  0  0  0  0  0
   -0.4140    2.6020   -0.5520 C   0  0  0  0  0  0  0  0  0  0  0  0
    0.6210    2.7260   -1.2590 O   0  0  0  0  0  0  0  0  0  0  0  0
   -1.5550    3.2390   -1.0160 O   0  0  0  0  0  0  0  0  0  0  0  0
   -1.4140    0.7840    0.7570 C   0  0  1  0  0  0  0  0  0  0  0  0
   -2.2180    0.6110   -0.4850 C   0  0  0  0  0  0  0  0  0  0  0  0
   -2.9240   -0.7370   -0.3360 C   0  0  0  0  0  0  0  0  0  0  0  0
   -2.2080   -1.2960    0.8850 C   0  0  0  0  0  0  0  0  0  0  0  0
   -0.9100   -0.6760    0.9600 C   0  0  1  0  0  0  0  0  0  0  0  0
  1  2  2  0
  2  3  1  0
  2  4  1  0
  4  5  2  0
  4 12  1  0
  5  6  1  0
  6  7  2  0
  7  8  1  0
  7 11  1  0
  8  9  2  0
  8 10  1  0
 11 12  2  0
 11 22  1  0
 12 13  1  0
 13 14  1  0
 14 15  1  6
 14 18  1  0
 15 16  2  0
 15 17  1  0
 18 19  1  6
 18 22  1  0
 19 20  1  0
 20 21  1  0
 22 21  1  6
M  CHG  2   8   1  10  -1
M  END
