
     RDKit          3D

 41 45  0  0  0  0  0  0  0  0999 V2000
   -6.5010   -2.7610    1.6620 C   0  0  0  0  0  0  0  0  0  0  0  0
   -6.2770   -1.3390    1.2560 C   0  0  0  0  0  0  0  0  0  0  0  0
   -5.0090   -0.8190    1.2950 C   0  0  0  0  0  0  0  0  0  0  0  0
   -4.7190    0.5020    0.9320 C   0  0  0  0  0  0  0  0  0  0  0  0
   -3.3240    0.9440    1.0280 C   0  0  0  0  0  0  0  0  0  0  0  0
   -2.6850    1.0540   -0.3450 C   0  0  0  0  0  0  0  0  0  0  0  0
   -1.2820    1.4760   -0.1130 C   0  0  0  0  0  0  0  0  0  0  0  0
   -0.9280    2.7890   -0.0220 C   0  0  0  0  0  0  0  0  0  0  0  0
    0.3970    3.1680    0.2040 C   0  0  0  0  0  0  0  0  0  0  0  0
    1.3430    2.1650    0.3330 C   0  0  0  0  0  0  0  0  0  0  0  0
    0.9810    0.8180    0.2390 C   0  0  0  0  0  0  0  0  0  0  0  0
    1.9900   -0.2580    0.3810 C   0  0  1  0  0  0  0  0  0  0  0  0
    1.3350   -1.5470    0.8390 C   0  0  0  0  0  0  0  0  0  0  0  0
    2.7690   -0.4720   -0.8690 C   0  0  0  0  0  0  0  0  0  0  0  0
    2.0910   -0.9210   -1.9800 C   0  0  0  0  0  0  0  0  0  0  0  0
    2.7960   -1.1400   -3.1450 C   0  0  0  0  0  0  0  0  0  0  0  0
    4.1500   -0.9230   -3.2210 C   0  0  0  0  0  0  0  0  0  0  0  0
    4.8630   -0.4680   -2.1070 C   0  0  0  0  0  0  0  0  0  0  0  0
    6.2940   -0.2450   -2.1890 C   0  0  0  0  0  0  0  0  0  0  0  0
    6.8960   -0.4340   -3.2610 O   0  0  0  0  0  0  0  0  0  0  0  0
    6.9930    0.1770   -1.0800 O   0  0  0  0  0  0  0  0  0  0  0  0
    8.3910    0.3970   -1.1450 C   0  0  1  0  0  0  0  0  0  0  0  0
    8.8180    1.7600   -0.7110 C   0  0  0  0  0  0  0  0  0  0  0  0
    9.1100   -0.6130   -0.2990 C   0  0  0  0  0  0  0  0  0  0  0  0
    8.4080   -1.4610    0.3200 O   0  0  0  0  0  0  0  0  0  0  0  0
   10.5120   -0.6440   -0.1750 N   0  0  0  0  0  0  0  0  0  0  0  0
   11.1460   -1.6290    0.6420 C   0  0  0  0  0  0  0  0  0  0  0  0
   10.7190   -1.5640    2.0930 C   0  0  0  0  0  0  0  0  0  0  0  0
   11.0170   -0.3280    2.6750 O   0  0  0  0  0  0  0  0  0  0  0  0
    4.1270   -0.2580   -0.9580 C   0  0  0  0  0  0  0  0  0  0  0  0
   -0.3340    0.4890    0.0160 C   0  0  0  0  0  0  0  0  0  0  0  0
   -5.7660    1.2870    0.5240 C   0  0  0  0  0  0  0  0  0  0  0  0
   -5.5170    2.6270    0.1450 N   0  0  0  0  0  0  0  0  0  0  0  0
   -7.0570    0.7520    0.4860 C   0  0  0  0  0  0  0  0  0  0  0  0
   -7.3370   -0.5520    0.8460 C   0  0  0  0  0  0  0  0  0  0  0  0
   -8.7150   -1.1190    0.8070 C   0  0  2  0  0  0  0  0  0  0  0  0
   -9.0170   -1.5650   -0.6330 C   0  0  0  0  0  0  0  0  0  0  0  0
   -8.8130   -0.2260   -1.3420 C   0  0  0  0  0  0  0  0  0  0  0  0
   -9.3230    0.8130   -0.3650 C   0  0  2  0  0  0  0  0  0  0  0  0
   -8.1320    1.6910    0.0250 C   0  0  0  0  0  0  0  0  0  0  0  0
   -9.6750    0.0480    0.9180 C   0  0  0  0  0  0  0  0  0  0  0  0
  1  2  1  0
  2  3  2  0
  2 35  1  0
  3  4  1  0
  4  5  1  0
  4 32  2  0
  5  6  1  0
  6  7  1  0
  7  8  2  0
  7 31  1  0
  8  9  1  0
  9 10  2  0
 10 11  1  0
 11 12  1  0
 11 31  2  0
 12 13  1  6
 12 14  1  0
 14 15  2  0
 14 30  1  0
 15 16  1  0
 16 17  2  0
 17 18  1  0
 18 19  1  0
 18 30  2  0
 19 20  2  0
 19 21  1  0
 21 22  1  0
 22 23  1  1
 22 24  1  0
 24 25  2  0
 24 26  1  0
 26 27  1  0
 27 28  1  0
 28 29  1  0
 32 33  1  0
 32 34  1  0
 34 35  2  0
 34 40  1  0
 35 36  1  0
 36 37  1  6
 36 41  1  0
 37 38  1  0
 39 38  1  6
 39 40  1  0
 39 41  1  0
M  END
