
     RDKit          3D

 42 46  0  0  0  0  0  0  0  0999 V2000
   -5.8060    4.9150   -2.7720 C   0  0  0  0  0  0  0  0  0  0  0  0
   -5.9230    3.6180   -2.5650 C   0  0  0  0  0  0  0  0  0  0  0  0
   -4.9700    2.6400   -3.2570 C   0  0  0  0  0  0  0  0  0  0  0  0
   -4.3250    1.9810   -2.1590 O   0  0  0  0  0  0  0  0  0  0  0  0
   -3.6140    2.7200   -1.2240 C   0  0  0  0  0  0  0  0  0  0  0  0
   -3.6010    3.9770   -1.4490 O   0  0  0  0  0  0  0  0  0  0  0  0
   -2.9110    2.2050   -0.0540 C   0  0  2  0  0  0  0  0  0  0  0  0
   -2.5080    3.4210    0.7880 C   0  0  0  0  0  0  0  0  0  0  0  0
   -2.0280    2.8540    2.0710 C   0  0  0  0  0  0  0  0  0  0  0  0
   -2.5040    3.2400    3.1050 O   0  0  0  0  0  0  0  0  0  0  0  0
   -0.9910    1.8430    2.0070 C   0  0  1  0  0  0  0  0  0  0  0  0
   -0.5340    1.3360    3.2030 O   0  0  0  0  0  0  0  0  0  0  0  0
   -1.2380    0.7540    0.9590 C   0  0  1  0  0  0  0  0  0  0  0  0
    0.0990    0.0580    0.8320 C   0  0  0  0  0  0  0  0  0  0  0  0
    0.2690   -1.0640   -0.0820 C   0  0  0  0  0  0  0  0  0  0  0  0
    1.7040   -1.4580    0.0300 N   0  0  0  0  0  0  0  0  0  0  0  0
    2.7400   -0.5660   -0.3220 C   0  0  0  0  0  0  0  0  0  0  0  0
    2.4800    0.5540   -0.7930 O   0  0  0  0  0  0  0  0  0  0  0  0
    4.1260   -0.9410   -0.1350 N   0  0  0  0  0  0  0  0  0  0  0  0
    5.1290    0.0150   -0.4930 C   0  0  0  0  0  0  0  0  0  0  0  0
    6.4720   -0.4030   -0.1160 C   0  0  0  0  0  0  0  0  0  0  0  0
    6.7500   -1.5390    0.5670 C   0  0  0  0  0  0  0  0  0  0  0  0
    8.0410   -1.8790    0.9450 C   0  0  0  0  0  0  0  0  0  0  0  0
    9.0570   -1.0320    0.6110 C   0  0  0  0  0  0  0  0  0  0  0  0
    8.7840    0.1400   -0.0930 C   0  0  0  0  0  0  0  0  0  0  0  0
    9.9090    1.0440   -0.4360 C   0  0  0  0  0  0  0  0  0  0  0  0
    7.5060    0.4700   -0.4620 C   0  0  0  0  0  0  0  0  0  0  0  0
    7.2180    1.7320   -1.2260 C   0  0  0  0  0  0  0  0  0  0  0  0
   -2.2600   -0.2100    1.3350 C   0  0  0  0  0  0  0  0  0  0  0  0
   -2.8970   -0.2470    2.5580 C   0  0  0  0  0  0  0  0  0  0  0  0
   -3.8330   -1.2050    2.8350 C   0  0  0  0  0  0  0  0  0  0  0  0
   -4.1910   -2.1800    1.9170 C   0  0  0  0  0  0  0  0  0  0  0  0
   -3.5780   -2.1650    0.7050 C   0  0  0  0  0  0  0  0  0  0  0  0
   -2.6290   -1.1840    0.4340 C   0  0  0  0  0  0  0  0  0  0  0  0
   -4.0530   -3.3000   -0.1000 C   0  0  0  0  0  0  0  0  0  0  0  0
   -3.6800   -3.7150   -1.3880 C   0  0  0  0  0  0  0  0  0  0  0  0
   -4.2230   -4.8460   -1.9350 C   0  0  0  0  0  0  0  0  0  0  0  0
   -5.1460   -5.5510   -1.1660 C   0  0  0  0  0  0  0  0  0  0  0  0
   -5.5150   -5.1510    0.0930 C   0  0  0  0  0  0  0  0  0  0  0  0
   -4.9620   -3.9950    0.6550 C   0  0  0  0  0  0  0  0  0  0  0  0
   -5.1470   -3.3090    1.9430 C   0  0  0  0  0  0  0  0  0  0  0  0
   -1.6560    1.4320   -0.3190 C   0  0  0  0  0  0  0  0  0  0  0  0
  1  2  2  0
  2  3  1  0
  3  4  1  0
  4  5  1  0
  5  6  2  0
  7  5  1  6
  7  8  1  0
  7 42  1  0
  8  9  1  0
  9 10  2  0
  9 11  1  0
 11 12  1  1
 11 13  1  0
 13 14  1  6
 13 29  1  0
 13 42  1  0
 14 15  1  0
 15 16  1  0
 16 17  1  0
 17 18  2  0
 17 19  1  0
 19 20  1  0
 20 21  1  0
 21 22  2  0
 21 27  1  0
 22 23  1  0
 23 24  2  0
 24 25  1  0
 25 26  1  0
 25 27  2  0
 27 28  1  0
 29 30  2  0
 29 34  1  0
 30 31  1  0
 31 32  2  0
 32 33  1  0
 32 41  1  0
 33 34  2  0
 33 35  1  0
 35 36  2  0
 35 40  1  0
 36 37  1  0
 37 38  2  0
 38 39  1  0
 39 40  2  0
 40 41  1  0
M  END
