
     RDKit          3D

 42 47  0  0  0  0  0  0  0  0999 V2000
    5.6550   -1.0720   -3.6000 C   0  0  0  0  0  0  0  0  0  0  0  0
    6.9110   -1.0310   -2.9310 O   0  0  0  0  0  0  0  0  0  0  0  0
    6.9550   -0.5760   -1.6490 C   0  0  0  0  0  0  0  0  0  0  0  0
    5.8020   -0.1530   -0.9860 C   0  0  0  0  0  0  0  0  0  0  0  0
    5.8520    0.3020    0.3020 C   0  0  0  0  0  0  0  0  0  0  0  0
    4.6760    0.7140    0.9150 O   0  0  0  0  0  0  0  0  0  0  0  0
    4.5780    1.1830    2.2210 C   0  0  0  0  0  0  0  0  0  0  0  0
    3.0710    1.5450    2.4200 C   0  0  1  0  0  0  0  0  0  0  0  0
    2.8000    2.6010    1.4120 C   0  0  0  0  0  0  0  0  0  0  0  0
    3.7290    3.6550    1.7280 O   0  0  0  0  0  0  0  0  0  0  0  0
    2.3720    0.2300    2.2910 C   0  0  0  0  0  0  0  0  0  0  0  0
    0.9690    0.1750    2.4070 N   0  0  0  0  0  0  0  0  0  0  0  0
    0.0700    0.7610    1.4560 C   0  0  0  0  0  0  0  0  0  0  0  0
    0.5100    1.3360    0.4450 O   0  0  0  0  0  0  0  0  0  0  0  0
   -1.3660    0.6810    1.6850 C   0  0  0  0  0  0  0  0  0  0  0  0
   -2.2880    1.4690    0.8450 C   0  0  1  0  0  0  0  0  0  0  0  0
   -2.2890    1.2070   -0.6090 C   0  0  0  0  0  0  0  0  0  0  0  0
   -1.5020    1.7070   -1.6580 C   0  0  0  0  0  0  0  0  0  0  0  0
   -1.6340    1.3030   -2.9600 C   0  0  0  0  0  0  0  0  0  0  0  0
   -2.5830    0.3610   -3.2690 C   0  0  0  0  0  0  0  0  0  0  0  0
   -3.3860   -0.1650   -2.2920 C   0  0  0  0  0  0  0  0  0  0  0  0
   -3.2270    0.2730   -0.9540 C   0  0  0  0  0  0  0  0  0  0  0  0
   -4.0040   -0.0890    0.2470 C   0  0  2  0  0  0  0  0  0  0  0  0
   -5.4290   -0.3020   -0.0280 C   0  0  0  0  0  0  0  0  0  0  0  0
   -6.1650    0.6990   -0.5920 C   0  0  0  0  0  0  0  0  0  0  0  0
   -7.5290    0.4710   -0.8040 C   0  0  0  0  0  0  0  0  0  0  0  0
   -8.1260   -0.7140   -0.4640 C   0  0  0  0  0  0  0  0  0  0  0  0
   -7.3850   -1.7180    0.1000 C   0  0  0  0  0  0  0  0  0  0  0  0
   -6.0250   -1.4880    0.3120 C   0  0  0  0  0  0  0  0  0  0  0  0
   -7.9650   -3.0490    0.4960 C   0  0  0  0  0  0  0  0  0  0  0  0
   -9.4150   -3.1670    0.1160 C   0  0  0  0  0  0  0  0  0  0  0  0
   -9.7670   -2.3510   -1.1200 C   0  0  0  0  0  0  0  0  0  0  0  0
   -9.5850   -0.8940   -0.7000 C   0  0  0  0  0  0  0  0  0  0  0  0
   -3.7320    1.0180    1.2120 C   0  0  2  0  0  0  0  0  0  0  0  0
   -4.6300    2.1170    1.0420 N   0  0  0  0  0  0  0  0  0  0  0  0
    7.0660    0.3450    0.9660 C   0  0  0  0  0  0  0  0  0  0  0  0
    8.2110   -0.0700    0.3220 C   0  0  0  0  0  0  0  0  0  0  0  0
    8.1590   -0.5300   -0.9820 C   0  0  0  0  0  0  0  0  0  0  0  0
    9.4030   -0.9650   -1.6620 C   0  0  0  0  0  0  0  0  0  0  0  0
   10.4340   -1.2470   -0.5950 C   0  0  0  0  0  0  0  0  0  0  0  0
   10.5830   -0.0920    0.1710 O   0  0  0  0  0  0  0  0  0  0  0  0
    9.5080   -0.0050    1.0660 C   0  0  0  0  0  0  0  0  0  0  0  0
  1  2  1  0
  2  3  1  0
  3  4  2  0
  3 38  1  0
  4  5  1  0
  5  6  1  0
  5 36  2  0
  6  7  1  0
  8  7  1  6
  8  9  1  0
  8 11  1  0
  9 10  1  0
 11 12  1  0
 12 13  1  0
 13 14  2  0
 13 15  1  0
 16 15  1  1
 16 17  1  0
 16 34  1  0
 17 18  2  0
 17 22  1  0
 18 19  1  0
 19 20  2  0
 20 21  1  0
 21 22  2  0
 22 23  1  0
 23 24  1  6
 23 34  1  0
 24 25  2  0
 24 29  1  0
 25 26  1  0
 26 27  2  0
 27 28  1  0
 27 33  1  0
 28 29  2  0
 28 30  1  0
 30 31  1  0
 31 32  1  0
 32 33  1  0
 34 35  1  6
 36 37  1  0
 37 38  2  0
 37 42  1  0
 38 39  1  0
 39 40  1  0
 40 41  1  0
 41 42  1  0
M  END
