
     RDKit          3D

 42 46  0  0  0  0  0  0  0  0999 V2000
   -4.0920   -4.9400    3.8470 C   0  0  0  0  0  0  0  0  0  0  0  0
   -3.6140   -4.7200    2.4280 C   0  0  0  0  0  0  0  0  0  0  0  0
   -3.1990   -5.7060    1.5590 C   0  0  0  0  0  0  0  0  0  0  0  0
   -2.8610   -5.0500    0.3980 C   0  0  0  0  0  0  0  0  0  0  0  0
   -3.0790   -3.6740    0.5860 C   0  0  0  0  0  0  0  0  0  0  0  0
   -2.8390   -2.6060   -0.4410 C   0  0  1  0  0  0  0  0  0  0  0  0
   -3.7580   -1.5290   -0.4200 N   0  0  0  0  0  0  0  0  0  0  0  0
   -4.8360   -1.3950   -1.3120 C   0  0  0  0  0  0  0  0  0  0  0  0
   -4.9780   -2.3180   -2.1830 O   0  0  0  0  0  0  0  0  0  0  0  0
   -5.8090   -0.2930   -1.3320 C   0  0  2  0  0  0  0  0  0  0  0  0
   -6.8210   -0.6400   -2.2660 O   0  0  0  0  0  0  0  0  0  0  0  0
   -5.2380    1.0090   -1.8540 C   0  0  1  0  0  0  0  0  0  0  0  0
   -6.3170    2.0230   -1.8390 C   0  0  0  0  0  0  0  0  0  0  0  0
   -5.8850    3.1710   -1.3790 C   0  0  0  0  0  0  0  0  0  0  0  0
   -4.4520    3.0650   -1.0270 C   0  0  1  0  0  0  0  0  0  0  0  0
   -4.0810    3.8550    0.2100 C   0  0  0  0  0  0  0  0  0  0  0  0
   -2.7020    3.6480    0.4040 O   0  0  0  0  0  0  0  0  0  0  0  0
   -4.2960    1.5650   -0.7940 C   0  0  0  0  0  0  0  0  0  0  0  0
   -1.4300   -2.3200   -0.7110 C   0  0  0  0  0  0  0  0  0  0  0  0
   -0.8500   -2.6560   -1.9470 C   0  0  0  0  0  0  0  0  0  0  0  0
    0.4440   -2.4300   -2.2830 C   0  0  0  0  0  0  0  0  0  0  0  0
    1.2860   -1.8380   -1.4000 C   0  0  0  0  0  0  0  0  0  0  0  0
    0.8060   -1.4800   -0.1790 C   0  0  0  0  0  0  0  0  0  0  0  0
    1.6600   -0.8770    0.7380 C   0  0  0  0  0  0  0  0  0  0  0  0
    3.0610   -0.5860    0.4330 C   0  0  0  0  0  0  0  0  0  0  0  0
    3.2900    0.6390   -0.4090 C   0  0  0  0  0  0  0  0  0  0  0  0
    4.7320    0.7650   -0.6110 N   0  0  0  0  0  0  0  0  0  0  0  0
    5.3130    1.8220   -1.3630 C   0  0  0  0  0  0  0  0  0  0  0  0
    4.5500    2.6710   -1.8660 O   0  0  0  0  0  0  0  0  0  0  0  0
    6.7700    1.9540   -1.5710 C   0  0  1  0  0  0  0  0  0  0  0  0
    7.0620    3.1930   -2.3820 C   0  0  0  0  0  0  0  0  0  0  0  0
    7.3450    4.3890   -1.5390 C   0  0  0  0  0  0  0  0  0  0  0  0
    8.2000    4.2370   -0.5360 C   0  0  0  0  0  0  0  0  0  0  0  0
    8.7660    2.8440   -0.4010 C   0  0  0  0  0  0  0  0  0  0  0  0
    7.5440    1.9350   -0.2880 C   0  0  0  0  0  0  0  0  0  0  0  0
    1.1590   -0.5230    1.9810 C   0  0  0  0  0  0  0  0  0  0  0  0
    2.1080    0.1210    2.9360 C   0  0  0  0  0  0  0  0  0  0  0  0
   -0.1550   -0.7520    2.3250 C   0  0  0  0  0  0  0  0  0  0  0  0
   -0.6760   -0.3710    3.6530 C   0  0  0  0  0  0  0  0  0  0  0  0
   -0.9900   -1.3530    1.3970 C   0  0  0  0  0  0  0  0  0  0  0  0
   -0.5340   -1.7150    0.1690 C   0  0  0  0  0  0  0  0  0  0  0  0
   -3.5170   -3.6020    1.8030 O   0  0  0  0  0  0  0  0  0  0  0  0
  1  2  1  0
  2  3  2  0
  2 42  1  0
  3  4  1  0
  4  5  2  0
  5  6  1  0
  5 42  1  0
  6  7  1  1
  6 19  1  0
  7  8  1  0
  8  9  2  0
  8 10  1  0
 10 11  1  6
 10 12  1  0
 12 13  1  0
 12 18  1  1
 13 14  2  0
 14 15  1  0
 15 16  1  1
 15 18  1  0
 16 17  1  0
 19 20  2  0
 19 41  1  0
 20 21  1  0
 21 22  2  0
 22 23  1  0
 23 24  2  0
 23 41  1  0
 24 25  1  0
 24 36  1  0
 25 26  1  0
 26 27  1  0
 27 28  1  0
 28 29  2  0
 30 28  1  1
 30 31  1  0
 30 35  1  0
 31 32  1  0
 32 33  2  0
 33 34  1  0
 34 35  1  0
 36 37  1  0
 36 38  2  0
 38 39  1  0
 38 40  1  0
 40 41  2  0
M  END
