
     RDKit          3D

 42 46  0  0  0  0  0  0  0  0999 V2000
    5.2360    0.5640   -3.2480 C   0  0  0  0  0  0  0  0  0  0  0  0
    5.5440    1.2540   -2.0580 O   0  0  0  0  0  0  0  0  0  0  0  0
    5.4100    0.5860   -0.8490 C   0  0  0  0  0  0  0  0  0  0  0  0
    4.2000    0.6380   -0.1670 C   0  0  0  0  0  0  0  0  0  0  0  0
    3.0860    1.4210   -0.7490 C   0  0  0  0  0  0  0  0  0  0  0  0
    1.7980    1.2380   -0.0160 C   0  0  2  0  0  0  0  0  0  0  0  0
    1.3370   -0.2140   -0.0290 C   0  0  0  0  0  0  0  0  0  0  0  0
    0.6890    2.0590   -0.5470 C   0  0  0  0  0  0  0  0  0  0  0  0
    0.8560    2.8220   -1.6740 C   0  0  0  0  0  0  0  0  0  0  0  0
   -0.2290    3.5800   -2.1280 C   0  0  0  0  0  0  0  0  0  0  0  0
   -1.4310    3.5600   -1.4590 C   0  0  0  0  0  0  0  0  0  0  0  0
   -1.5580    2.7820   -0.3330 C   0  0  0  0  0  0  0  0  0  0  0  0
   -0.5210    2.0190    0.1520 C   0  0  0  0  0  0  0  0  0  0  0  0
   -0.5770    1.2290    1.2600 O   0  0  0  0  0  0  0  0  0  0  0  0
   -1.7220    1.0590    1.9900 C   0  0  0  0  0  0  0  0  0  0  0  0
   -1.7320    1.6200    3.2850 C   0  0  0  0  0  0  0  0  0  0  0  0
   -2.8300    1.5030    4.0990 C   0  0  0  0  0  0  0  0  0  0  0  0
   -3.9280    0.8240    3.6280 C   0  0  0  0  0  0  0  0  0  0  0  0
   -3.9110    0.2750    2.3560 C   0  0  0  0  0  0  0  0  0  0  0  0
   -2.8010    0.3830    1.5110 C   0  0  0  0  0  0  0  0  0  0  0  0
   -2.8040   -0.2860    0.2270 C   0  0  0  0  0  0  0  0  0  0  0  0
   -4.0910   -0.9180   -0.1040 N   0  0  0  0  0  0  0  0  0  0  0  0
   -5.2760   -0.1710   -0.3170 C   0  0  0  0  0  0  0  0  0  0  0  0
   -5.2140    1.0800   -0.2250 O   0  0  0  0  0  0  0  0  0  0  0  0
   -6.5810   -0.8060   -0.6420 C   0  0  2  0  0  0  0  0  0  0  0  0
   -6.5740   -1.5670   -1.9330 C   0  0  0  0  0  0  0  0  0  0  0  0
   -7.6800   -2.5730   -1.8500 C   0  0  0  0  0  0  0  0  0  0  0  0
   -8.9610   -2.4090   -1.4990 C   0  0  0  0  0  0  0  0  0  0  0  0
   -9.6540   -1.1790   -1.0900 C   0  0  0  0  0  0  0  0  0  0  0  0
   -8.9290   -0.3640   -0.0560 C   0  0  0  0  0  0  0  0  0  0  0  0
   -7.6830    0.2280   -0.7000 C   0  0  1  0  0  0  0  0  0  0  0  0
   -7.3410    1.4340   -0.1060 O   0  0  0  0  0  0  0  0  0  0  0  0
    4.1360   -0.0440    1.0220 C   0  0  0  0  0  0  0  0  0  0  0  0
    5.2130   -0.7520    1.5300 C   0  0  0  0  0  0  0  0  0  0  0  0
    6.4030   -0.7960    0.8490 C   0  0  0  0  0  0  0  0  0  0  0  0
    6.4960   -0.1210   -0.3460 C   0  0  0  0  0  0  0  0  0  0  0  0
    7.7900   -0.1570   -1.1060 C   0  0  0  0  0  0  0  0  0  0  0  0
    8.3050   -1.4480   -0.9110 O   0  0  0  0  0  0  0  0  0  0  0  0
    8.7140   -1.5430    0.4120 C   0  0  2  0  0  0  0  0  0  0  0  0
    9.5720   -2.8030    0.5130 C   0  0  0  0  0  0  0  0  0  0  0  0
   10.0670   -3.0310    1.8380 N   0  0  0  0  0  0  0  0  0  0  0  0
    7.5860   -1.5570    1.3860 C   0  0  0  0  0  0  0  0  0  0  0  0
  1  2  1  0
  2  3  1  0
  3  4  2  0
  3 36  1  0
  4  5  1  0
  4 33  1  0
  5  6  1  0
  6  7  1  6
  6  8  1  0
  8  9  2  0
  8 13  1  0
  9 10  1  0
 10 11  2  0
 11 12  1  0
 12 13  2  0
 13 14  1  0
 14 15  1  0
 15 16  2  0
 15 20  1  0
 16 17  1  0
 17 18  2  0
 18 19  1  0
 19 20  2  0
 20 21  1  0
 21 22  1  0
 22 23  1  0
 23 24  2  0
 25 23  1  6
 25 26  1  0
 25 31  1  0
 26 27  1  0
 27 28  2  0
 28 29  1  0
 29 30  1  0
 30 31  1  0
 31 32  1  1
 33 34  2  0
 34 35  1  0
 35 36  2  0
 35 42  1  0
 36 37  1  0
 37 38  1  0
 38 39  1  0
 39 40  1  6
 39 42  1  0
 40 41  1  0
M  END
