
     RDKit          3D

 42 46  0  0  0  0  0  0  0  0999 V2000
   -4.9200    3.9350   -0.0040 C   0  0  0  0  0  0  0  0  0  0  0  0
   -5.9540    3.2120   -0.2340 C   0  0  0  0  0  0  0  0  0  0  0  0
   -6.1760    1.9290   -0.8350 C   0  0  0  0  0  0  0  0  0  0  0  0
   -7.4700    1.5220   -0.8790 C   0  0  0  0  0  0  0  0  0  0  0  0
   -8.5110    2.3920   -0.3290 C   0  0  0  0  0  0  0  0  0  0  0  0
   -5.1760    1.0650   -1.3810 C   0  0  0  0  0  0  0  0  0  0  0  0
   -5.6020   -0.0570   -1.8760 O   0  0  0  0  0  0  0  0  0  0  0  0
   -3.7900    1.1810   -1.4970 N   0  0  0  0  0  0  0  0  0  0  0  0
   -2.9250    0.1790   -2.0910 C   0  0  0  0  0  0  0  0  0  0  0  0
   -2.9200   -1.1680   -1.4900 C   0  0  0  0  0  0  0  0  0  0  0  0
   -2.4630   -1.2190   -0.0070 C   0  0  1  0  0  0  0  0  0  0  0  0
   -3.3930   -0.2880    0.5140 O   0  0  0  0  0  0  0  0  0  0  0  0
   -2.5850   -2.5590    0.5850 C   0  0  0  0  0  0  0  0  0  0  0  0
   -1.8470   -3.7210    0.0010 C   0  0  0  0  0  0  0  0  0  0  0  0
   -2.2080   -4.1720   -1.3760 C   0  0  0  0  0  0  0  0  0  0  0  0
   -1.1070   -0.6840    0.1780 C   0  0  0  0  0  0  0  0  0  0  0  0
   -0.1960   -0.6170   -0.8480 C   0  0  0  0  0  0  0  0  0  0  0  0
    1.0790   -0.2020   -0.6220 C   0  0  0  0  0  0  0  0  0  0  0  0
    1.9780   -0.1150   -1.8150 C   0  0  0  0  0  0  0  0  0  0  0  0
    1.5540    0.1690    0.6010 C   0  0  0  0  0  0  0  0  0  0  0  0
    2.9320    0.5510    0.8010 C   0  0  0  0  0  0  0  0  0  0  0  0
    3.1920    1.5220    1.5660 O   0  0  0  0  0  0  0  0  0  0  0  0
    4.0670   -0.0640    0.2180 N   0  0  0  0  0  0  0  0  0  0  0  0
    5.4220    0.3780    0.4580 C   0  0  1  0  0  0  0  0  0  0  0  0
    6.1340   -0.7820    1.1670 C   0  0  0  0  0  0  0  0  0  0  0  0
    6.8050   -1.5650    0.0820 C   0  0  0  0  0  0  0  0  0  0  0  0
    6.9940   -0.5940   -1.0030 C   0  0  0  0  0  0  0  0  0  0  0  0
    7.8250   -0.6930   -2.1240 C   0  0  0  0  0  0  0  0  0  0  0  0
    7.8800    0.3220   -3.0560 C   0  0  0  0  0  0  0  0  0  0  0  0
    7.0940    1.4370   -2.8550 C   0  0  0  0  0  0  0  0  0  0  0  0
    7.1630    2.4430   -3.8010 O   0  0  0  0  0  0  0  0  0  0  0  0
    6.2780    1.5210   -1.7460 C   0  0  0  0  0  0  0  0  0  0  0  0
    6.2080    0.5180   -0.8010 C   0  0  0  0  0  0  0  0  0  0  0  0
    0.6350    0.1020    1.6530 C   0  0  0  0  0  0  0  0  0  0  0  0
    1.0690    0.4610    2.9100 C   0  0  0  0  0  0  0  0  0  0  0  0
    0.2240    0.4240    4.0140 C   0  0  0  0  0  0  0  0  0  0  0  0
   -1.0580    0.0150    3.7940 C   0  0  0  0  0  0  0  0  0  0  0  0
   -1.5180   -0.3500    2.5520 C   0  0  0  0  0  0  0  0  0  0  0  0
   -0.6900   -0.3180    1.4620 C   0  0  0  0  0  0  0  0  0  0  0  0
   -1.7280    0.0560    5.0360 O   0  0  0  0  0  0  0  0  0  0  0  0
   -0.8310    0.1250    6.1010 C   0  0  0  0  0  0  0  0  0  0  0  0
    0.3920    0.7430    5.4640 C   0  0  0  0  0  0  0  0  0  0  0  0
  1  2  2  0
  2  3  1  0
  3  4  2  3
  3  6  1  0
  4  5  1  0
  6  7  2  0
  6  8  1  0
  8  9  1  0
  9 10  1  0
 10 11  1  0
 11 12  1  1
 11 13  1  0
 11 16  1  0
 13 14  1  0
 14 15  1  0
 16 17  2  0
 16 39  1  0
 17 18  1  0
 18 19  1  0
 18 20  2  0
 20 21  1  0
 20 34  1  0
 21 22  2  0
 21 23  1  0
 24 23  1  6
 24 25  1  0
 24 33  1  0
 25 26  1  0
 26 27  1  0
 27 28  2  0
 27 33  1  0
 28 29  1  0
 29 30  2  0
 30 31  1  0
 30 32  1  0
 32 33  2  0
 34 35  2  0
 34 39  1  0
 35 36  1  0
 36 37  2  0
 36 42  1  0
 37 38  1  0
 37 40  1  0
 38 39  2  0
 40 41  1  0
 41 42  1  0
M  END
