
     RDKit          3D

 42 46  0  0  0  0  0  0  0  0999 V2000
    8.5200    2.9130    0.3280 C   0  0  0  0  0  0  0  0  0  0  0  0
    8.1700    2.3230   -1.0430 C   0  0  0  0  0  0  0  0  0  0  0  0
    8.8390    0.9710   -1.1460 C   0  0  0  0  0  0  0  0  0  0  0  0
    8.3880   -0.0180   -0.1190 C   0  0  1  0  0  0  0  0  0  0  0  0
    8.6390    0.4710    1.1390 O   0  0  0  0  0  0  0  0  0  0  0  0
    6.9870   -0.4630   -0.2630 C   0  0  0  0  0  0  0  0  0  0  0  0
    6.3780   -1.0490    0.8440 C   0  0  0  0  0  0  0  0  0  0  0  0
    5.0840   -1.5250    0.7830 C   0  0  0  0  0  0  0  0  0  0  0  0
    4.3340   -1.4440   -0.3820 C   0  0  0  0  0  0  0  0  0  0  0  0
    2.9500   -1.9530   -0.3550 C   0  0  1  0  0  0  0  0  0  0  0  0
    2.1240   -1.1710    0.5600 N   0  0  0  0  0  0  0  0  0  0  0  0
    0.8200   -1.7270    0.5490 C   0  0  1  0  0  0  0  0  0  0  0  0
   -0.0910   -1.3520    1.6210 C   0  0  0  0  0  0  0  0  0  0  0  0
   -1.1400   -0.6030    1.4390 C   0  0  0  0  0  0  0  0  0  0  0  0
   -2.0220   -0.2720    2.6150 C   0  0  0  0  0  0  0  0  0  0  0  0
   -3.2130    0.0020    2.3200 O   0  0  0  0  0  0  0  0  0  0  0  0
   -1.4810   -0.2830    3.9680 C   0  0  0  0  0  0  0  0  0  0  0  0
   -0.0500   -0.7080    3.9580 C   0  0  0  0  0  0  0  0  0  0  0  0
    0.1960   -1.8550    2.9870 C   0  0  0  0  0  0  0  0  0  0  0  0
   -1.5020   -0.0450    0.1380 C   0  0  2  0  0  0  0  0  0  0  0  0
   -2.9520    0.1600   -0.0310 C   0  0  0  0  0  0  0  0  0  0  0  0
   -3.5100    1.4070   -0.0040 C   0  0  0  0  0  0  0  0  0  0  0  0
   -4.8780    1.5240   -0.1570 C   0  0  0  0  0  0  0  0  0  0  0  0
   -5.7240    0.4590   -0.3360 C   0  0  0  0  0  0  0  0  0  0  0  0
   -7.1910    0.5870   -0.4990 C   0  0  2  0  0  0  0  0  0  0  0  0
   -7.9320   -0.4070    0.3830 C   0  0  0  0  0  0  0  0  0  0  0  0
   -7.5070    0.1960   -1.9300 C   0  0  0  0  0  0  0  0  0  0  0  0
   -7.7080    1.9740   -0.2710 C   0  0  0  0  0  0  0  0  0  0  0  0
   -7.4440    2.4990    1.1010 C   0  0  0  0  0  0  0  0  0  0  0  0
   -5.1100   -0.8000   -0.3580 C   0  0  0  0  0  0  0  0  0  0  0  0
   -3.7500   -0.9390   -0.2080 C   0  0  0  0  0  0  0  0  0  0  0  0
   -0.8340   -0.6780   -0.9850 C   0  0  0  0  0  0  0  0  0  0  0  0
   -1.2810   -0.4670   -2.3750 C   0  0  0  0  0  0  0  0  0  0  0  0
   -0.7840   -0.8990   -3.4050 O   0  0  0  0  0  0  0  0  0  0  0  0
   -2.4200    0.3300   -2.5260 O   0  0  0  0  0  0  0  0  0  0  0  0
   -2.9230    0.5840   -3.8400 C   0  0  0  0  0  0  0  0  0  0  0  0
    0.2110   -1.4340   -0.8030 C   0  0  0  0  0  0  0  0  0  0  0  0
    0.9530   -2.0780   -1.8680 N   0  0  0  0  0  0  0  0  0  0  0  0
    2.3500   -2.2230   -1.6590 C   0  0  0  0  0  0  0  0  0  0  0  0
    3.0610   -2.5910   -2.6160 O   0  0  0  0  0  0  0  0  0  0  0  0
    4.9380   -0.8680   -1.4600 C   0  0  0  0  0  0  0  0  0  0  0  0
    6.2470   -0.3790   -1.4140 C   0  0  0  0  0  0  0  0  0  0  0  0
  1  2  1  0
  2  3  1  0
  3  4  1  0
  4  5  1  1
  4  6  1  0
  6  7  2  0
  6 42  1  0
  7  8  1  0
  8  9  2  0
 10  9  1  6
  9 41  1  0
 10 11  1  0
 10 39  1  0
 12 11  1  1
 12 13  1  0
 12 37  1  0
 13 14  2  0
 13 19  1  0
 14 15  1  0
 14 20  1  0
 15 16  2  0
 15 17  1  0
 17 18  1  0
 18 19  1  0
 20 21  1  6
 20 32  1  0
 21 22  2  0
 21 31  1  0
 22 23  1  0
 23 24  2  0
 24 25  1  0
 24 30  1  0
 25 26  1  1
 25 27  1  0
 25 28  1  0
 28 29  1  0
 30 31  2  0
 32 33  1  0
 32 37  2  0
 33 34  2  0
 33 35  1  0
 35 36  1  0
 37 38  1  0
 38 39  1  0
 39 40  2  0
 41 42  2  0
M  END
