
     RDKit          3D

 17 17  0  0  0  0  0  0  0  0999 V2000
   -4.2550    1.1410   -0.2190 C   0  0  0  0  0  0  0  0  0  0  0  0
   -3.7260   -0.0520    0.4110 N   0  0  0  0  0  0  0  0  0  0  0  0
   -4.3370   -1.2250    0.1340 O   0  0  0  0  0  0  0  0  0  0  0  0
   -2.6320   -0.0430    1.2770 N   0  0  0  0  0  0  0  0  0  0  0  0
   -1.4270   -0.3270    0.8620 C   0  0  0  0  0  0  0  0  0  0  0  0
   -1.2040   -0.6460   -0.4550 O   0  0  0  0  0  0  0  0  0  0  0  0
   -2.2120   -0.6320   -1.3420 O   0  0  0  0  0  0  0  0  0  0  0  0
   -0.0540   -0.2920    2.0600 P   0  0  0  0  0  0  0  0  0  0  0  0
    1.3690    0.5580    1.2470 C   0  0  0  0  0  0  0  0  0  0  0  0
    2.1290   -0.0920    0.3980 C   0  0  0  0  0  0  0  0  0  0  0  0
    2.4510   -1.3550   -0.3320 C   0  0  2  0  0  0  0  0  0  0  0  0
    3.0850   -2.4210    0.4070 N   0  0  0  0  0  0  0  0  0  0  0  0
    3.2350   -0.1490   -0.5030 N   0  0  0  0  0  0  0  0  0  0  0  0
    4.2610    0.5320   -1.0640 O   0  0  0  0  0  0  0  0  0  0  0  0
    3.7960    1.4020   -1.9790 O   0  0  0  0  0  0  0  0  0  0  0  0
    3.2840    2.6350   -1.6420 C   0  0  0  0  0  0  0  0  0  0  0  0
    3.2550    2.9530   -0.4250 O   0  0  0  0  0  0  0  0  0  0  0  0
  1  2  1  0
  2  3  1  0
  2  4  1  0
  4  5  2  3
  5  6  1  0
  5  8  1  0
  6  7  1  0
  8  9  1  0
  9 10  2  3
 10 11  1  0
 10 13  1  0
 11 12  1  1
 11 13  1  0
 13 14  1  0
 14 15  1  0
 15 16  1  0
 16 17  2  0
M  END
