
     RDKit          3D

 18 18  0  0  0  0  0  0  0  0999 V2000
   -0.7700   -0.5800   -1.5570 C   0  0  0  0  0  0  0  0  0  0  0  0
   -0.5940    0.4850   -0.5200 C   0  0  2  0  0  0  0  0  0  0  0  0
   -1.2240    1.7900   -0.8690 C   0  0  0  0  0  0  0  0  0  0  0  0
    0.8630    0.5900   -0.2270 C   0  0  0  0  0  0  0  0  0  0  0  0
    1.6160    1.5220   -0.7540 N   0  0  0  0  0  0  0  0  0  0  0  0
    1.1540    2.4700   -1.6060 O   0  0  0  0  0  0  0  0  0  0  0  0
    1.4390    3.7760   -1.4790 O   0  0  0  0  0  0  0  0  0  0  0  0
    1.6040    4.0950   -0.2050 O   0  0  0  0  0  0  0  0  0  0  0  0
    1.3180   -0.3940    0.6500 N   0  0  0  0  0  0  0  0  0  0  0  0
    2.4810   -1.1000    0.4690 O   0  0  0  0  0  0  0  0  0  0  0  0
    2.1530   -2.3430    0.2310 O   0  0  0  0  0  0  0  0  0  0  0  0
    3.2580   -3.1440    0.3810 N   0  0  0  0  0  0  0  0  0  0  0  0
    0.4950   -0.6110    1.7400 N   0  0  0  0  0  0  0  0  0  0  0  0
   -1.1220   -0.0600    1.1760 P   0  0  0  0  0  0  0  0  0  0  0  0
   -2.3620   -1.3460    1.1890 C   0  0  0  0  0  0  0  0  0  0  0  0
   -2.2670   -2.4410    0.5410 O   0  0  0  0  0  0  0  0  0  0  0  0
   -3.5580   -1.1620    1.9730 C   0  0  0  0  0  0  0  0  0  0  0  0
   -3.7120   -0.1130    2.6300 O   0  0  0  0  0  0  0  0  0  0  0  0
  2  1  1  6
  2  3  1  0
  2  4  1  0
  2 14  1  0
  4  5  2  3
  4  9  1  0
  5  6  1  0
  6  7  1  0
  7  8  1  0
  9 10  1  0
  9 13  1  0
 10 11  1  0
 11 12  1  0
 13 14  1  0
 14 15  1  0
 15 16  2  0
 15 17  1  0
 17 18  2  0
M  END
