
     RDKit          3D

 18 18  0  0  0  0  0  0  0  0999 V2000
    4.0970    0.2220   -1.3300 C   0  0  0  0  0  0  0  0  0  0  0  0
    2.8930    0.6680   -0.4890 C   0  0  0  0  0  0  0  0  0  0  0  0
    2.1140   -0.5680   -0.1550 C   0  0  0  0  0  0  0  0  0  0  0  0
    0.6240   -0.2730    0.8510 P   0  0  0  0  0  0  0  0  0  0  0  0
    0.1550    1.4830    0.9110 N   0  0  0  0  0  0  0  0  0  0  0  0
   -0.1220    1.8330   -0.3650 O   0  0  0  0  0  0  0  0  0  0  0  0
    0.0400    3.1750   -0.6150 C   0  0  0  0  0  0  0  0  0  0  0  0
   -0.9860    1.4970    1.6100 O   0  0  0  0  0  0  0  0  0  0  0  0
   -2.0310    0.8200    1.0090 C   0  0  1  0  0  0  0  0  0  0  0  0
   -2.2720    1.2510   -0.2920 O   0  0  0  0  0  0  0  0  0  0  0  0
   -3.4620    1.7980   -0.4020 O   0  0  0  0  0  0  0  0  0  0  0  0
   -4.4290    0.9120   -0.3410 O   0  0  0  0  0  0  0  0  0  0  0  0
   -1.8950   -0.6150    1.0510 N   0  0  0  0  0  0  0  0  0  0  0  0
   -1.5420   -0.9790    2.3490 N   0  0  0  0  0  0  0  0  0  0  0  0
   -0.8540   -1.0410    0.1950 N   0  0  0  0  0  0  0  0  0  0  0  0
   -0.7580   -2.4680    0.1350 C   0  0  0  0  0  0  0  0  0  0  0  0
   -1.8980   -3.0770   -0.3270 O   0  0  0  0  0  0  0  0  0  0  0  0
   -1.7460   -4.3830   -0.3590 O   0  0  0  0  0  0  0  0  0  0  0  0
  1  2  1  0
  2  3  1  0
  3  4  1  0
  4  5  1  0
  4 15  1  0
  5  6  1  0
  5  8  1  0
  6  7  1  0
  8  9  1  0
  9 10  1  6
  9 13  1  0
 10 11  1  0
 11 12  1  0
 13 14  1  0
 13 15  1  0
 15 16  1  0
 16 17  1  0
 17 18  1  0
M  END
