
     RDKit          3D

 17 17  0  0  0  0  0  0  0  0999 V2000
    4.7660   -0.0500   -0.4820 C   0  0  0  0  0  0  0  0  0  0  0  0
    3.6950    0.3700    0.4800 C   0  0  0  0  0  0  0  0  0  0  0  0
    4.0280    1.3840    1.5470 C   0  0  0  0  0  0  0  0  0  0  0  0
    2.1800   -0.1890    0.5220 P   0  0  0  0  0  0  0  0  0  0  0  0
    1.2780   -1.4230   -0.4670 C   0  0  0  0  0  0  0  0  0  0  0  0
    0.0540   -1.8180    0.2440 N   0  0  0  0  0  0  0  0  0  0  0  0
   -1.1190   -1.3980   -0.2870 N   0  0  0  0  0  0  0  0  0  0  0  0
   -1.0860   -0.2470   -1.0070 N   0  0  0  0  0  0  0  0  0  0  0  0
   -2.2040    0.6690   -1.0180 C   0  0  0  0  0  0  0  0  0  0  0  0
   -2.3010    1.6710   -1.7720 O   0  0  0  0  0  0  0  0  0  0  0  0
   -3.3200    0.3980   -0.0600 C   0  0  1  0  0  0  0  0  0  0  0  0
   -4.4400   -0.0310   -0.7710 O   0  0  0  0  0  0  0  0  0  0  0  0
   -5.5220    0.6870   -0.4870 O   0  0  0  0  0  0  0  0  0  0  0  0
   -5.7760    0.4740    0.7950 O   0  0  0  0  0  0  0  0  0  0  0  0
   -2.9690   -0.6240    0.8370 N   0  0  0  0  0  0  0  0  0  0  0  0
   -3.2250   -0.3690    2.1260 O   0  0  0  0  0  0  0  0  0  0  0  0
   -2.0840   -1.5100    0.5490 O   0  0  0  0  0  0  0  0  0  0  0  0
  1  2  1  0
  2  3  1  0
  2  4  2  3
  4  5  1  0
  5  6  1  0
  6  7  1  0
  7  8  1  0
  7 17  1  0
  8  9  1  0
  9 10  2  0
  9 11  1  0
 11 12  1  6
 11 15  1  0
 12 13  1  0
 13 14  1  0
 15 16  1  0
 15 17  1  0
M  END
