
     RDKit          3D

 16 16  0  0  0  0  0  0  0  0999 V2000
   -1.2870    2.4590    0.7110 O   0  0  0  0  0  0  0  0  0  0  0  0
   -2.4210    1.9380    0.0670 C   0  0  0  0  0  0  0  0  0  0  0  0
   -2.0610    0.7080   -0.7180 C   0  0  1  0  0  0  0  0  0  0  0  0
   -0.6960    0.6630   -1.0090 O   0  0  0  0  0  0  0  0  0  0  0  0
   -0.1670   -0.2900   -0.1760 C   0  0  2  0  0  0  0  0  0  0  0  0
   -0.0480    0.1670    1.1400 O   0  0  0  0  0  0  0  0  0  0  0  0
    1.2200   -0.7010   -0.6240 C   0  0  0  0  0  0  0  0  0  0  0  0
    1.9150    0.4870   -0.7620 O   0  0  0  0  0  0  0  0  0  0  0  0
    3.1610    0.3600    0.3930 P   0  0  0  0  0  0  0  0  0  0  0  0
    3.9460   -0.5230   -0.5230 O   0  0  0  0  0  0  0  0  0  0  0  0
    4.3440    1.5190    0.3730 O   0  0  0  0  0  0  0  0  0  0  0  0
    2.9680   -0.6080    1.6630 O   0  0  0  0  0  0  0  0  0  0  0  0
   -1.1830   -1.4050   -0.2780 C   0  0  1  0  0  0  0  0  0  0  0  0
   -1.0190   -2.3620    0.7060 O   0  0  0  0  0  0  0  0  0  0  0  0
   -2.4510   -0.5780   -0.0670 C   0  0  2  0  0  0  0  0  0  0  0  0
   -3.5610   -1.1700   -0.6370 O   0  0  0  0  0  0  0  0  0  0  0  0
  1  2  1  0
  3  2  1  1
  3  4  1  0
  3 15  1  0
  4  5  1  0
  5  6  1  1
  5  7  1  0
  5 13  1  0
  7  8  1  0
  8  9  1  0
  9 10  1  0
  9 11  1  0
  9 12  1  0
 13 14  1  1
 13 15  1  0
 15 16  1  6
M  END
