
     RDKit          3D

 25 27  0  0  0  0  0  0  0  0999 V2000
    2.6060   -1.3370    1.6860 C   0  0  0  0  0  0  0  0  0  0  0  0
    2.4530   -0.7340    0.0620 S   0  0  0  0  0  0  0  0  0  0  0  0
    2.7890   -2.3740   -1.0200 Cl  0  0  0  0  0  0  0  0  0  0  0  0
    3.5760    0.4220   -0.4830 C   0  0  2  0  0  0  0  0  0  0  0  0
    4.4770   -0.2610   -1.8700 Cl  0  0  0  0  0  0  0  0  0  0  0  0
    4.5440    0.6190    0.5870 N   0  0  0  0  0  0  0  0  0  0  0  0
    5.5200    1.5890    0.1810 C   0  0  0  0  0  0  0  0  0  0  0  0
    0.7670   -0.4180   -0.3630 N   0  0  0  0  0  0  0  0  0  0  0  0
    0.0030   -1.5820   -0.7560 C   0  0  0  0  0  0  0  0  0  0  0  0
   -1.4070   -1.3140   -0.4330 C   0  0  0  0  0  0  0  0  0  0  0  0
   -2.1540   -2.4000   -0.1330 C   0  0  0  0  0  0  0  0  0  0  0  0
   -1.5310   -3.7630   -0.1460 C   0  0  0  0  0  0  0  0  0  0  0  0
   -3.4990   -2.2430    0.1890 O   0  0  0  0  0  0  0  0  0  0  0  0
   -3.9670   -0.9380    0.5810 C   0  0  0  0  0  0  0  0  0  0  0  0
   -3.4600    0.0540   -0.4500 C   0  0  0  0  0  0  0  0  0  0  0  0
   -2.0350    0.0090   -0.4010 C   0  0  0  0  0  0  0  0  0  0  0  0
   -1.2310    1.0370   -0.3440 C   0  0  0  0  0  0  0  0  0  0  0  0
    0.2250    0.8680   -0.3210 C   0  0  0  0  0  0  0  0  0  0  0  0
    0.9460    1.9070   -0.2680 N   0  0  0  0  0  0  0  0  0  0  0  0
    0.3700    3.1640   -0.2290 O   0  0  0  0  0  0  0  0  0  0  0  0
   -0.8920    3.4200   -0.6100 O   0  0  0  0  0  0  0  0  0  0  0  0
   -1.7100    2.3690   -0.2580 N   0  0  0  0  0  0  0  0  0  0  0  0
   -3.3150    2.6790    0.3090 P   0  0  0  0  0  0  0  0  0  0  0  0
   -3.4320    3.5870    1.7660 O   0  0  0  0  0  0  0  0  0  0  0  0
   -4.2750    3.5170   -0.9060 O   0  0  0  0  0  0  0  0  0  0  0  0
  1  2  2  0
  2  3  1  0
  2  4  1  0
  2  8  1  0
  4  5  1  6
  4  6  1  0
  6  7  1  0
  8  9  1  0
  8 18  1  0
  9 10  1  0
 10 11  2  0
 10 16  1  0
 11 12  1  0
 11 13  1  0
 13 14  1  0
 14 15  1  0
 15 16  1  0
 16 17  2  0
 17 18  1  0
 17 22  1  0
 18 19  2  0
 19 20  1  0
 20 21  1  0
 21 22  1  0
 22 23  1  0
 23 24  1  0
 23 25  1  0
M  END
