
     RDKit          3D

 21 21  0  0  0  0  0  0  0  0999 V2000
   -0.5480    2.8210   -2.5670 O   0  0  0  0  0  0  0  0  0  0  0  0
   -0.2550    2.2550   -1.4800 C   0  0  0  0  0  0  0  0  0  0  0  0
    0.2280    3.1450   -0.3960 C   0  0  0  0  0  0  0  0  0  0  0  0
    1.6450    3.1480   -0.4150 O   0  0  0  0  0  0  0  0  0  0  0  0
    2.0020    1.9620   -0.0570 O   0  0  0  0  0  0  0  0  0  0  0  0
    2.7810    1.2730   -0.9430 C   0  0  0  0  0  0  0  0  0  0  0  0
    2.1310    0.0680   -1.2140 O   0  0  0  0  0  0  0  0  0  0  0  0
    1.8250   -0.5590   -0.0090 C   0  0  1  0  0  0  0  0  0  0  0  0
    3.0330   -0.8300    0.6220 O   0  0  0  0  0  0  0  0  0  0  0  0
    3.1070   -2.1300    0.7970 O   0  0  0  0  0  0  0  0  0  0  0  0
    3.7750   -2.6670   -0.2220 O   0  0  0  0  0  0  0  0  0  0  0  0
    4.9410   -3.0390    0.2350 O   0  0  0  0  0  0  0  0  0  0  0  0
    1.0320    0.2300    0.8130 O   0  0  0  0  0  0  0  0  0  0  0  0
   -0.2940   -0.1980    0.8680 C   0  0  0  0  0  0  0  0  0  0  0  0
   -1.0910    0.1860   -0.3490 C   0  0  1  0  0  0  0  0  0  0  0  0
   -2.3900    0.7970    0.0480 C   0  0  0  0  0  0  0  0  0  0  0  0
   -3.0400   -0.0020    0.9710 O   0  0  0  0  0  0  0  0  0  0  0  0
   -3.3600   -1.2640    0.5540 C   0  0  0  0  0  0  0  0  0  0  0  0
   -4.0150   -1.9100    1.6310 O   0  0  0  0  0  0  0  0  0  0  0  0
   -4.3530   -3.1340    1.2980 O   0  0  0  0  0  0  0  0  0  0  0  0
   -0.3590    0.9250   -1.2760 O   0  0  0  0  0  0  0  0  0  0  0  0
  1  2  2  0
  2  3  1  0
  2 21  1  0
  3  4  1  0
  4  5  1  0
  5  6  1  0
  6  7  1  0
  7  8  1  0
  8  9  1  1
  8 13  1  0
  9 10  1  0
 10 11  1  0
 11 12  1  0
 13 14  1  0
 14 15  1  0
 15 16  1  1
 15 21  1  0
 16 17  1  0
 17 18  1  0
 18 19  1  0
 19 20  1  0
M  END
