
     RDKit          3D

 25 27  0  0  0  0  0  0  0  0999 V2000
    6.6250   -1.1010    0.9570 C   0  0  0  0  0  0  0  0  0  0  0  0
    5.3920   -0.6980    0.7140 C   0  0  0  0  0  0  0  0  0  0  0  0
    5.0450   -0.1220   -0.5460 N   0  0  0  0  0  0  0  0  0  0  0  0
    3.8350    0.2580   -0.7430 C   0  0  0  0  0  0  0  0  0  0  0  0
    3.1550    0.8710   -1.8860 C   0  0  0  0  0  0  0  0  0  0  0  0
    3.7150    1.1580   -2.9820 O   0  0  0  0  0  0  0  0  0  0  0  0
    1.8160    1.0670   -1.5270 O   0  0  0  0  0  0  0  0  0  0  0  0
    1.6250    0.6160   -0.2460 N   0  0  0  0  0  0  0  0  0  0  0  0
    0.3800    0.6600    0.4400 C   0  0  0  0  0  0  0  0  0  0  0  0
    0.3120    0.2160    1.6280 O   0  0  0  0  0  0  0  0  0  0  0  0
   -1.0460    1.3000   -0.2870 S   0  0  2  0  0  0  0  0  0  0  0  0
   -0.6430    2.4970   -1.2600 C   0  0  0  0  0  0  0  0  0  0  0  0
   -1.9190    2.0480    0.7210 O   0  0  0  0  0  0  0  0  0  0  0  0
   -1.9590    0.1670   -1.1150 O   0  0  0  0  0  0  0  0  0  0  0  0
   -3.1920   -0.3360   -0.6290 C   0  0  0  0  0  0  0  0  0  0  0  0
   -3.2390   -0.7340    0.5880 C   0  0  0  0  0  0  0  0  0  0  0  0
   -4.3670   -1.2880    1.3300 C   0  0  1  0  0  0  0  0  0  0  0  0
   -4.6550   -0.4130    2.8590 Cl  0  0  0  0  0  0  0  0  0  0  0  0
   -5.8660   -1.3860    0.2980 P   0  0  0  0  0  0  0  0  0  0  0  0
   -5.4710   -0.7580   -1.3330 C   0  0  0  0  0  0  0  0  0  0  0  0
   -4.2660   -0.3290   -1.6120 C   0  0  0  0  0  0  0  0  0  0  0  0
    2.8330    0.1190    0.2570 N   0  0  0  0  0  0  0  0  0  0  0  0
    3.1560   -0.4460    1.5020 N   0  0  0  0  0  0  0  0  0  0  0  0
    4.3620   -0.8380    1.7340 C   0  0  0  0  0  0  0  0  0  0  0  0
    4.7790   -1.5500    3.3000 Cl  0  0  0  0  0  0  0  0  0  0  0  0
  1  2  2  0
  2  3  1  0
  2 24  1  0
  3  4  2  0
  4  5  1  0
  4 22  1  0
  5  6  2  0
  5  7  1  0
  7  8  1  0
  8  9  1  0
  8 22  1  0
  9 10  2  0
  9 11  1  0
 11 12  2  0
 11 13  2  0
 11 14  1  6
 14 15  1  0
 15 16  2  0
 15 21  1  0
 16 17  1  0
 17 18  1  1
 17 19  1  0
 19 20  1  0
 20 21  2  0
 22 23  1  0
 23 24  2  0
 24 25  1  0
M  END
