
     RDKit          3D

 21 21  0  0  0  0  0  0  0  0999 V2000
   -5.6980    0.6720   -0.7310 O   0  0  0  0  0  0  0  0  0  0  0  0
   -4.5970    0.0610   -0.8870 C   0  0  0  0  0  0  0  0  0  0  0  0
   -4.2280   -0.8940   -0.0380 O   0  0  0  0  0  0  0  0  0  0  0  0
   -3.4930   -1.1490    1.0650 C   0  0  0  0  0  0  0  0  0  0  0  0
   -2.6980   -0.0710    1.7040 C   0  0  0  0  0  0  0  0  0  0  0  0
   -1.3310   -0.4640    1.6360 O   0  0  0  0  0  0  0  0  0  0  0  0
   -1.0570   -0.2820    0.2820 C   0  0  0  0  0  0  0  0  0  0  0  0
    0.3060   -0.6640   -0.1630 C   0  0  2  0  0  0  0  0  0  0  0  0
    0.6750   -1.9600    0.1820 O   0  0  0  0  0  0  0  0  0  0  0  0
    1.2510    0.2200    0.3390 O   0  0  0  0  0  0  0  0  0  0  0  0
    2.4710   -0.1030   -0.2220 C   0  0  0  0  0  0  0  0  0  0  0  0
    3.5370    0.8390    0.3000 C   0  0  0  0  0  0  0  0  0  0  0  0
    4.7780    0.5360   -0.2490 O   0  0  0  0  0  0  0  0  0  0  0  0
    5.6590    1.3630    0.2210 O   0  0  0  0  0  0  0  0  0  0  0  0
    6.6200    0.7340    0.8890 O   0  0  0  0  0  0  0  0  0  0  0  0
    6.0590   -0.2250    1.6160 O   0  0  0  0  0  0  0  0  0  0  0  0
    0.2880   -0.5080   -1.5760 O   0  0  0  0  0  0  0  0  0  0  0  0
   -0.4560    0.5490   -1.8190 O   0  0  0  0  0  0  0  0  0  0  0  0
   -1.6010    0.3010   -2.5370 C   0  0  0  0  0  0  0  0  0  0  0  0
   -2.6810    1.0440   -2.0700 O   0  0  0  0  0  0  0  0  0  0  0  0
   -3.8100    0.4110   -1.9490 O   0  0  0  0  0  0  0  0  0  0  0  0
  1  2  2  0
  2  3  1  0
  2 21  1  0
  3  4  1  0
  4  5  1  0
  5  6  1  0
  6  7  1  0
  7  8  1  0
  8  9  1  6
  8 10  1  0
  8 17  1  0
 10 11  1  0
 11 12  1  0
 12 13  1  0
 13 14  1  0
 14 15  1  0
 15 16  1  0
 17 18  1  0
 18 19  1  0
 19 20  1  0
 20 21  1  0
M  END
