
     RDKit          3D

 21 22  0  0  0  0  0  0  0  0999 V2000
    7.1410    1.1070    0.3260 O   0  0  0  0  0  0  0  0  0  0  0  0
    6.1990    0.5960    1.0870 O   0  0  0  0  0  0  0  0  0  0  0  0
    5.7540   -0.4820    0.4870 O   0  0  0  0  0  0  0  0  0  0  0  0
    5.2140   -0.2060   -0.6810 O   0  0  0  0  0  0  0  0  0  0  0  0
    3.9660    0.3980   -0.5300 C   0  0  2  0  0  0  0  0  0  0  0  0
    4.1610    1.7080   -0.1620 O   0  0  0  0  0  0  0  0  0  0  0  0
    3.2390   -0.4210    0.5470 C   0  0  0  0  0  0  0  0  0  0  0  0
    1.9390   -0.0240    0.6550 O   0  0  0  0  0  0  0  0  0  0  0  0
    1.0500   -0.9910    0.5060 O   0  0  0  0  0  0  0  0  0  0  0  0
    0.3790   -0.6850   -0.7080 C   0  0  0  0  0  0  0  0  0  0  0  0
   -1.0090   -0.1840   -0.4470 C   0  0  2  0  0  0  0  0  0  0  0  0
   -1.0530    0.5700    0.8970 C   0  0  0  0  0  0  0  0  0  0  0  0
   -2.4400    0.5840    1.1170 O   0  0  0  0  0  0  0  0  0  0  0  0
   -2.9430   -0.5650    0.5470 C   0  0  1  0  0  0  0  0  0  0  0  0
   -3.3740   -1.4220    1.5820 O   0  0  0  0  0  0  0  0  0  0  0  0
   -4.1190   -0.3480   -0.3540 C   0  0  1  0  0  0  0  0  0  0  0  0
   -5.2690    0.0690    0.3320 O   0  0  0  0  0  0  0  0  0  0  0  0
   -6.0590    0.4790   -0.7530 C   0  0  0  0  0  0  0  0  0  0  0  0
   -5.1510    0.9320   -1.7100 O   0  0  0  0  0  0  0  0  0  0  0  0
   -3.9470    0.7300   -1.2240 O   0  0  0  0  0  0  0  0  0  0  0  0
   -1.9430   -1.1720   -0.1730 O   0  0  0  0  0  0  0  0  0  0  0  0
  1  2  1  0
  2  3  1  0
  3  4  1  0
  4  5  1  0
  5  6  1  1
  5  7  1  0
  7  8  1  0
  8  9  1  0
  9 10  1  0
 11 10  1  1
 11 12  1  0
 11 21  1  0
 12 13  1  0
 13 14  1  0
 14 15  1  1
 14 16  1  0
 14 21  1  0
 16 17  1  1
 16 20  1  0
 17 18  1  0
 18 19  1  0
 19 20  1  0
M  END
