
     RDKit          3D

 25 26  0  0  0  0  0  0  0  0999 V2000
    4.6280    1.2260    0.1740 C   0  0  0  0  0  0  0  0  0  0  0  0
    5.5490    0.7890   -0.8290 N   0  0  0  0  0  0  0  0  0  0  0  0
    5.4700   -0.2840   -1.5330 C   0  0  0  0  0  0  0  0  0  0  0  0
    4.4060   -1.1170   -1.3270 O   0  0  0  0  0  0  0  0  0  0  0  0
    3.1250   -0.6550   -1.2600 C   0  0  0  0  0  0  0  0  0  0  0  0
    2.3530   -1.0490   -0.2170 C   0  0  0  0  0  0  0  0  0  0  0  0
    1.0120   -0.5490   -0.1730 C   0  0  0  0  0  0  0  0  0  0  0  0
    0.0780   -0.7830    0.7500 C   0  0  0  0  0  0  0  0  0  0  0  0
    0.2710   -1.6090    1.9120 C   0  0  0  0  0  0  0  0  0  0  0  0
    1.9080   -2.0760    2.4250 Cl  0  0  0  0  0  0  0  0  0  0  0  0
   -0.7110   -2.0210    2.6800 N   0  0  0  0  0  0  0  0  0  0  0  0
   -2.0200   -1.6180    2.3590 C   0  0  0  0  0  0  0  0  0  0  0  0
   -2.3120   -0.8360    1.3470 C   0  0  0  0  0  0  0  0  0  0  0  0
   -3.7440   -0.5000    1.1060 C   0  0  0  0  0  0  0  0  0  0  0  0
   -4.7080   -0.4910    2.1360 N   0  0  0  0  0  0  0  0  0  0  0  0
   -4.1030   -0.1490   -0.4210 S   0  0  2  0  0  0  0  0  0  0  0  0
   -5.2300    0.8430   -0.4080 O   0  0  0  0  0  0  0  0  0  0  0  0
   -4.5620   -1.8430   -1.4900 Cl  0  0  0  0  0  0  0  0  0  0  0  0
   -2.6640    0.6240   -1.0490 N   0  0  0  0  0  0  0  0  0  0  0  0
   -2.6230    1.9280   -0.4630 C   0  0  0  0  0  0  0  0  0  0  0  0
   -1.5840   -0.1480   -0.7990 O   0  0  0  0  0  0  0  0  0  0  0  0
   -1.2720   -0.1990    0.5460 C   0  0  2  0  0  0  0  0  0  0  0  0
    0.5420    0.5550   -1.5920 P   0  0  0  0  0  0  0  0  0  0  0  0
    0.6870   -0.2560   -3.0890 O   0  0  0  0  0  0  0  0  0  0  0  0
    1.2920    2.0840   -1.5100 O   0  0  0  0  0  0  0  0  0  0  0  0
  1  2  1  0
  2  3  2  3
  3  4  1  0
  4  5  1  0
  5  6  2  3
  6  7  1  0
  7  8  2  3
  7 23  1  0
  8  9  1  0
  8 22  1  0
  9 10  1  0
  9 11  2  0
 11 12  1  0
 12 13  2  0
 13 14  1  0
 13 22  1  0
 14 15  1  0
 14 16  2  0
 16 17  2  0
 16 18  1  6
 16 19  1  0
 19 20  1  0
 19 21  1  0
 22 21  1  6
 23 24  1  0
 23 25  1  0
M  END
