
     RDKit          3D

 25 25  0  0  0  0  0  0  0  0999 V2000
   -4.9090    0.4650    1.3600 C   0  0  0  0  0  0  0  0  0  0  0  0
   -4.2720   -0.5970    0.4340 C   0  0  2  0  0  0  0  0  0  0  0  0
   -3.3420   -1.2790    1.1780 O   0  0  0  0  0  0  0  0  0  0  0  0
   -2.0770   -1.2480    0.9670 C   0  0  2  0  0  0  0  0  0  0  0  0
   -1.4060   -0.5390    2.0630 N   0  0  0  0  0  0  0  0  0  0  0  0
   -0.1950   -0.5540    1.9980 O   0  0  0  0  0  0  0  0  0  0  0  0
   -1.5250   -0.7120   -0.2460 C   0  0  0  0  0  0  0  0  0  0  0  0
   -0.3050   -0.4570   -1.1850 P   0  0  0  0  0  0  0  0  0  0  0  0
    1.3730   -0.9600   -0.8780 N   0  0  0  0  0  0  0  0  0  0  0  0
    2.3580   -0.0870   -0.3160 C   0  0  0  0  0  0  0  0  0  0  0  0
    1.9750    1.0820   -0.0410 O   0  0  0  0  0  0  0  0  0  0  0  0
    3.7450   -0.5160   -0.0670 C   0  0  0  0  0  0  0  0  0  0  0  0
    4.5170    0.6290    0.5250 C   0  0  1  0  0  0  0  0  0  0  0  0
    4.5400    1.8080   -0.3940 C   0  0  0  0  0  0  0  0  0  0  0  0
    3.9430    0.9630    1.7420 O   0  0  0  0  0  0  0  0  0  0  0  0
    5.9450    0.2080    0.8030 C   0  0  0  0  0  0  0  0  0  0  0  0
    6.6230    1.3140    1.4120 N   0  0  0  0  0  0  0  0  0  0  0  0
   -3.3560   -0.0510   -0.8060 S   0  0  0  0  0  0  0  0  0  0  0  0
   -2.7850    1.1040   -0.0080 N   0  0  0  0  0  0  0  0  0  0  0  0
   -3.4580   -1.4710   -1.5440 C   0  0  0  0  0  0  0  0  0  0  0  0
   -4.8190   -1.8300   -2.1860 C   0  0  0  0  0  0  0  0  0  0  0  0
   -6.0080   -0.5630   -1.9590 Cl  0  0  0  0  0  0  0  0  0  0  0  0
   -3.3030    0.6990   -2.1400 C   0  0  0  0  0  0  0  0  0  0  0  0
   -4.1130    1.4700   -2.6060 O   0  0  0  0  0  0  0  0  0  0  0  0
   -1.9440    0.5230   -3.2650 Cl  0  0  0  0  0  0  0  0  0  0  0  0
  2  1  1  1
  2  3  1  0
  2 18  1  0
  3  4  1  0
  4  5  1  1
  4  7  1  0
  5  6  2  0
  7  8  2  3
  7 18  1  0
  8  9  1  0
  9 10  1  0
 10 11  2  0
 10 12  1  0
 12 13  1  0
 13 14  1  6
 13 15  1  0
 13 16  1  0
 16 17  1  0
 18 19  1  0
 18 20  2  3
 18 23  1  0
 20 21  1  0
 21 22  1  0
 23 24  2  0
 23 25  1  0
M  END
