
     RDKit          3D

 24 23  0  0  0  0  0  0  0  0999 V2000
    4.9780    0.0700   -2.2280 C   0  0  0  0  0  0  0  0  0  0  0  0
    5.4190    0.3080   -1.0230 C   0  0  0  0  0  0  0  0  0  0  0  0
    4.6590    0.4780    0.1910 C   0  0  0  0  0  0  0  0  0  0  0  0
    3.3270    0.4190    0.2900 O   0  0  0  0  0  0  0  0  0  0  0  0
    2.3360    0.3060   -0.6180 C   0  0  0  0  0  0  0  0  0  0  0  0
    0.9450    0.3000    0.1140 C   0  0  0  0  0  0  0  0  0  0  0  0
   -0.0870    0.1750   -0.9250 C   0  0  0  0  0  0  0  0  0  0  0  0
   -1.5160    0.1620   -0.5630 C   0  0  2  0  0  0  0  0  0  0  0  0
   -1.8550    1.4370    0.1030 C   0  0  0  0  0  0  0  0  0  0  0  0
   -1.7900    2.7310   -0.6060 C   0  0  1  0  0  0  0  0  0  0  0  0
   -2.2810    3.8480    0.4120 C   0  0  0  0  0  0  0  0  0  0  0  0
   -0.5360    3.2670   -1.1690 C   0  0  0  0  0  0  0  0  0  0  0  0
   -2.0340   -1.0670    0.1810 C   0  0  2  0  0  0  0  0  0  0  0  0
   -1.4270   -1.1590    1.5370 C   0  0  0  0  0  0  0  0  0  0  0  0
   -1.3780   -2.1970   -0.6570 C   0  0  0  0  0  0  0  0  0  0  0  0
   -1.6170   -3.5860   -0.3220 C   0  0  0  0  0  0  0  0  0  0  0  0
   -0.8520   -4.3810   -1.2640 O   0  0  0  0  0  0  0  0  0  0  0  0
   -3.4940   -1.2310    0.1780 C   0  0  2  0  0  0  0  0  0  0  0  0
   -4.3840   -0.1780    0.7360 C   0  0  0  0  0  0  0  0  0  0  0  0
   -3.9330   -2.4990    0.9480 C   0  0  0  0  0  0  0  0  0  0  0  0
   -4.0460   -1.4440   -1.2530 C   0  0  0  0  0  0  0  0  0  0  0  0
    5.4060    0.7180    1.3060 C   0  0  0  0  0  0  0  0  0  0  0  0
    6.8580    0.7840    1.2080 C   0  0  0  0  0  0  0  0  0  0  0  0
    4.7260    0.9080    2.6050 C   0  0  0  0  0  0  0  0  0  0  0  0
  1  2  2  0
  2  3  1  0
  3  4  1  0
  3 22  2  3
  4  5  1  0
  5  6  1  0
  6  7  1  0
  8  7  1  1
  8  9  1  0
  8 13  1  0
  9 10  1  0
 10 11  1  1
 10 12  1  0
 13 14  1  1
 13 15  1  0
 13 18  1  0
 15 16  1  0
 16 17  1  0
 18 19  1  1
 18 20  1  0
 18 21  1  0
 22 23  1  0
 22 24  1  0
M  END
