
     RDKit          3D

 25 28  0  0  0  0  0  0  0  0999 V2000
   -0.6770   -0.5610    2.2310 O   0  0  0  0  0  0  0  0  0  0  0  0
   -1.4130   -1.0380    1.2950 C   0  0  0  0  0  0  0  0  0  0  0  0
   -2.8390   -1.4780    1.5440 C   0  0  0  0  0  0  0  0  0  0  0  0
   -3.7420   -1.0810    0.4430 C   0  0  0  0  0  0  0  0  0  0  0  0
   -3.7260   -1.7460   -0.8000 C   0  0  0  0  0  0  0  0  0  0  0  0
   -4.5640   -1.0960   -1.6160 N   0  0  0  0  0  0  0  0  0  0  0  0
   -5.1350   -0.0500   -1.0030 C   0  0  0  0  0  0  0  0  0  0  0  0
   -6.0750    0.8350   -1.4630 C   0  0  0  0  0  0  0  0  0  0  0  0
   -6.4890    1.7690   -0.5640 N   0  0  0  0  0  0  0  0  0  0  0  0
   -6.0040    1.8190    0.7110 C   0  0  0  0  0  0  0  0  0  0  0  0
   -5.0690    0.9300    1.1630 C   0  0  0  0  0  0  0  0  0  0  0  0
   -4.6150   -0.0520    0.2670 C   0  0  0  0  0  0  0  0  0  0  0  0
   -0.8620   -1.1600    0.0330 O   0  0  0  0  0  0  0  0  0  0  0  0
    0.4440   -0.8420   -0.2570 C   0  0  0  0  0  0  0  0  0  0  0  0
    0.8690    0.5880   -0.0020 C   0  0  0  0  0  0  0  0  0  0  0  0
    2.3640    0.5880   -0.2320 C   0  0  0  0  0  0  0  0  0  0  0  0
    3.2330    0.4440    0.8500 C   0  0  0  0  0  0  0  0  0  0  0  0
    4.6170    0.3850    0.6990 C   0  0  0  0  0  0  0  0  0  0  0  0
    5.4580    0.2710    1.7260 N   0  0  0  0  0  0  0  0  0  0  0  0
    6.7910    0.2340    1.6180 C   0  0  0  0  0  0  0  0  0  0  0  0
    7.3040    0.3220    0.3410 C   0  0  0  0  0  0  0  0  0  0  0  0
    6.4600    0.4400   -0.7460 C   0  0  0  0  0  0  0  0  0  0  0  0
    5.0940    0.4750   -0.5980 C   0  0  0  0  0  0  0  0  0  0  0  0
    4.2250    0.6100   -1.6670 C   0  0  0  0  0  0  0  0  0  0  0  0
    2.8750    0.6640   -1.4490 N   0  0  0  0  0  0  0  0  0  0  0  0
  1  2  2  0
  2  3  1  0
  2 13  1  0
  3  4  1  0
  4  5  2  0
  4 12  1  0
  5  6  1  0
  6  7  1  0
  7  8  2  0
  7 12  1  0
  8  9  1  0
  9 10  2  0
 10 11  1  0
 11 12  2  0
 13 14  1  0
 14 15  1  0
 15 16  1  0
 16 17  2  0
 16 25  1  0
 17 18  1  0
 18 19  2  0
 18 23  1  0
 19 20  1  0
 20 21  2  0
 21 22  1  0
 22 23  2  0
 23 24  1  0
 24 25  2  0
M  END
