
     RDKit          3D

 24 23  0  0  0  0  0  0  0  0999 V2000
    2.3410   -2.8950   -0.7010 C   0  0  0  0  0  0  0  0  0  0  0  0
    3.5490   -2.4640   -0.5370 C   0  0  0  0  0  0  0  0  0  0  0  0
    4.0690   -1.1990   -0.9160 C   0  0  0  0  0  0  0  0  0  0  0  0
    5.4190   -1.0530   -0.6680 C   0  0  0  0  0  0  0  0  0  0  0  0
    6.1920   -2.1540   -0.0620 C   0  0  0  0  0  0  0  0  0  0  0  0
    3.4140   -0.1200   -1.6250 C   0  0  0  0  0  0  0  0  0  0  0  0
    2.5080    0.8470   -0.9810 C   0  0  2  0  0  0  0  0  0  0  0  0
    3.3390    1.6360    0.0880 C   0  0  0  0  0  0  0  0  0  0  0  0
    1.2720    0.3820   -0.3850 C   0  0  1  0  0  0  0  0  0  0  0  0
    1.4540   -0.4760    0.6790 O   0  0  0  0  0  0  0  0  0  0  0  0
    0.3310    1.4650    0.1010 C   0  0  1  0  0  0  0  0  0  0  0  0
   -0.1420    2.3650   -0.9510 C   0  0  0  0  0  0  0  0  0  0  0  0
   -1.0720    3.4380   -0.4710 C   0  0  0  0  0  0  0  0  0  0  0  0
   -2.2650    3.0160    0.0650 O   0  0  0  0  0  0  0  0  0  0  0  0
   -2.9910    4.1140    0.4520 C   0  0  0  0  0  0  0  0  0  0  0  0
   -0.8170    0.7450    0.8360 C   0  0  0  0  0  0  0  0  0  0  0  0
   -1.5670   -0.1480   -0.0200 C   0  0  0  0  0  0  0  0  0  0  0  0
   -2.7630   -0.9120    0.4200 C   0  0  0  0  0  0  0  0  0  0  0  0
   -3.2220   -1.8380   -0.6270 C   0  0  0  0  0  0  0  0  0  0  0  0
   -2.4990   -1.8510   -1.7930 C   0  0  0  0  0  0  0  0  0  0  0  0
   -4.3560   -2.7560   -0.5900 C   0  0  0  0  0  0  0  0  0  0  0  0
   -3.3520   -0.7950    1.5640 C   0  0  0  0  0  0  0  0  0  0  0  0
   -4.5660   -1.5900    1.9850 C   0  0  0  0  0  0  0  0  0  0  0  0
   -2.9310    0.2010    2.6390 C   0  0  0  0  0  0  0  0  0  0  0  0
  1  2  2  0
  2  3  1  0
  3  4  2  3
  3  6  1  0
  4  5  1  0
  6  7  1  0
  7  8  1  1
  7  9  1  0
  9 10  1  1
  9 11  1  0
 11 12  1  6
 11 16  1  0
 12 13  1  0
 13 14  1  0
 14 15  1  0
 16 17  1  0
 17 18  1  0
 18 19  1  0
 18 22  2  3
 19 20  2  0
 19 21  1  0
 22 23  1  0
 22 24  1  0
M  END
