
     RDKit          3D

 24 23  0  0  0  0  0  0  0  0999 V2000
   -1.2000    3.5410    0.8900 C   0  0  0  0  0  0  0  0  0  0  0  0
   -0.8910    2.3500    1.3820 C   0  0  0  0  0  0  0  0  0  0  0  0
   -0.5500    1.2670    0.5200 C   0  0  0  0  0  0  0  0  0  0  0  0
   -1.1680   -0.0390    0.4320 C   0  0  2  0  0  0  0  0  0  0  0  0
   -0.4020   -0.8400   -0.6460 C   0  0  1  0  0  0  0  0  0  0  0  0
   -0.3270   -0.3970   -1.9970 C   0  0  0  0  0  0  0  0  0  0  0  0
   -1.6090   -0.2250   -2.7860 C   0  0  0  0  0  0  0  0  0  0  0  0
    0.8580   -1.3060   -0.0570 C   0  0  0  0  0  0  0  0  0  0  0  0
    0.6430   -2.1270    0.9520 O   0  0  0  0  0  0  0  0  0  0  0  0
    2.2380   -1.0920   -0.3170 C   0  0  0  0  0  0  0  0  0  0  0  0
    3.1850   -1.7280    0.3400 C   0  0  0  0  0  0  0  0  0  0  0  0
    3.3970   -2.6770    1.3460 C   0  0  0  0  0  0  0  0  0  0  0  0
    4.7430   -2.9330    1.5960 C   0  0  0  0  0  0  0  0  0  0  0  0
    2.5200   -3.4830    2.2070 C   0  0  0  0  0  0  0  0  0  0  0  0
    2.8170   -0.1940   -1.3820 C   0  0  0  0  0  0  0  0  0  0  0  0
    2.7160    1.2480   -1.2170 C   0  0  0  0  0  0  0  0  0  0  0  0
    3.4050    1.8970   -2.4390 C   0  0  0  0  0  0  0  0  0  0  0  0
    3.3320    3.4030   -2.3260 C   0  0  0  0  0  0  0  0  0  0  0  0
   -2.5990   -0.3440    0.4040 C   0  0  1  0  0  0  0  0  0  0  0  0
   -2.8240   -1.8830    0.3150 C   0  0  0  0  0  0  0  0  0  0  0  0
   -3.5360    0.0510    1.4960 C   0  0  2  0  0  0  0  0  0  0  0  0
   -4.9390   -0.4930    1.1310 C   0  0  0  0  0  0  0  0  0  0  0  0
   -3.7520    1.5140    1.7340 C   0  0  0  0  0  0  0  0  0  0  0  0
   -3.2040   -0.5590    2.7080 O   0  0  0  0  0  0  0  0  0  0  0  0
  1  2  2  0
  2  3  1  0
  4  3  1  6
  4  5  1  0
  4 19  1  0
  5  6  1  6
  5  8  1  0
  6  7  1  0
  8  9  2  0
  8 10  1  0
 10 11  2  3
 10 15  1  0
 11 12  1  0
 12 13  2  0
 12 14  1  0
 15 16  1  0
 16 17  1  0
 17 18  1  0
 19 20  1  1
 19 21  1  0
 21 22  1  6
 21 23  1  0
 21 24  1  0
M  END
