
     RDKit          3D

 24 24  0  0  0  0  0  0  0  0999 V2000
    4.3030   -3.7250    0.0170 C   0  0  0  0  0  0  0  0  0  0  0  0
    3.0630   -3.3170   -0.1210 C   0  0  0  0  0  0  0  0  0  0  0  0
    2.6180   -2.0680    0.5330 C   0  0  0  0  0  0  0  0  0  0  0  0
    2.1120   -1.0460   -0.4570 C   0  0  1  0  0  0  0  0  0  0  0  0
    3.2360   -0.7010   -1.4270 C   0  0  0  0  0  0  0  0  0  0  0  0
    4.4390   -0.1310   -0.7570 C   0  0  0  0  0  0  0  0  0  0  0  0
    4.1870    1.1360   -0.0020 C   0  0  0  0  0  0  0  0  0  0  0  0
    5.4620    1.5930    0.6100 C   0  0  0  0  0  0  0  0  0  0  0  0
    6.4780    0.9590    0.4530 O   0  0  0  0  0  0  0  0  0  0  0  0
    5.5240    2.8490    1.4380 C   0  0  0  0  0  0  0  0  0  0  0  0
    6.9370    3.0640    1.9260 C   0  0  0  0  0  0  0  0  0  0  0  0
    0.9460   -1.5090   -1.2500 C   0  0  0  0  0  0  0  0  0  0  0  0
   -0.2780   -1.8780   -0.4460 C   0  0  2  0  0  0  0  0  0  0  0  0
   -1.2320   -2.2790   -1.3760 O   0  0  0  0  0  0  0  0  0  0  0  0
   -0.7870   -0.6750    0.2910 C   0  0  0  0  0  0  0  0  0  0  0  0
   -1.9950   -0.9080    1.1420 C   0  0  0  0  0  0  0  0  0  0  0  0
   -3.2250   -1.3430    0.4400 C   0  0  0  0  0  0  0  0  0  0  0  0
   -3.7430   -0.3780   -0.5870 C   0  0  0  0  0  0  0  0  0  0  0  0
   -4.1010    0.9730   -0.0270 C   0  0  2  0  0  0  0  0  0  0  0  0
   -5.1640    0.9500    1.0270 C   0  0  0  0  0  0  0  0  0  0  0  0
   -6.5620    0.9310    0.5290 C   0  0  0  0  0  0  0  0  0  0  0  0
   -6.7240    1.1610   -0.9340 C   0  0  0  0  0  0  0  0  0  0  0  0
   -5.8060    2.2680   -1.3450 C   0  0  0  0  0  0  0  0  0  0  0  0
   -4.3540    1.9440   -1.1330 C   0  0  0  0  0  0  0  0  0  0  0  0
  1  2  2  0
  2  3  1  0
  4  3  1  1
  4  5  1  0
  4 12  1  0
  5  6  1  0
  6  7  1  0
  7  8  1  0
  8  9  2  0
  8 10  1  0
 10 11  1  0
 12 13  1  0
 13 14  1  6
 13 15  1  0
 15 16  1  0
 16 17  1  0
 17 18  1  0
 19 18  1  6
 19 20  1  0
 19 24  1  0
 20 21  1  0
 21 22  1  0
 22 23  1  0
 23 24  1  0
M  END
