
     RDKit          3D

 24 24  0  0  0  0  0  0  0  0999 V2000
   -5.0560    0.2150   -2.1060 C   0  0  0  0  0  0  0  0  0  0  0  0
   -3.7910   -0.2700   -2.6960 C   0  0  0  0  0  0  0  0  0  0  0  0
   -2.5140    0.2720   -2.1830 C   0  0  0  0  0  0  0  0  0  0  0  0
   -2.2200    0.0160   -0.7020 C   0  0  2  0  0  0  0  0  0  0  0  0
   -0.8620    0.6780   -0.4920 C   0  0  0  0  0  0  0  0  0  0  0  0
    0.2450    0.1150   -1.3270 C   0  0  0  0  0  0  0  0  0  0  0  0
    1.4980    0.9290   -0.9370 C   0  0  0  0  0  0  0  0  0  0  0  0
    2.6910    0.4480   -1.7220 C   0  0  0  0  0  0  0  0  0  0  0  0
    3.8550    1.1180   -1.4460 O   0  0  0  0  0  0  0  0  0  0  0  0
    4.2850    1.0610   -0.1490 C   0  0  0  0  0  0  0  0  0  0  0  0
    4.5560   -0.3320    0.3630 C   0  0  2  0  0  0  0  0  0  0  0  0
    5.0270   -0.2310    1.8090 C   0  0  0  0  0  0  0  0  0  0  0  0
    6.4870    0.0780    1.6380 C   0  0  0  0  0  0  0  0  0  0  0  0
    6.9080   -0.8340    0.5100 C   0  0  0  0  0  0  0  0  0  0  0  0
    5.6730   -1.0060   -0.3720 C   0  0  0  0  0  0  0  0  0  0  0  0
   -2.1010   -1.4370   -0.5060 C   0  0  0  0  0  0  0  0  0  0  0  0
   -1.7450   -2.0310    0.7820 C   0  0  2  0  0  0  0  0  0  0  0  0
   -1.7080   -3.5770    0.5110 C   0  0  0  0  0  0  0  0  0  0  0  0
   -2.6590   -1.9150    1.9560 C   0  0  0  0  0  0  0  0  0  0  0  0
   -3.1760    0.7600    0.1430 C   0  0  0  0  0  0  0  0  0  0  0  0
   -4.0490    0.0750    0.6580 O   0  0  0  0  0  0  0  0  0  0  0  0
   -3.2500    2.1780    0.4560 C   0  0  2  0  0  0  0  0  0  0  0  0
   -2.1770    2.6360    1.4140 C   0  0  0  0  0  0  0  0  0  0  0  0
   -4.5800    2.4620    1.1530 C   0  0  0  0  0  0  0  0  0  0  0  0
  1  2  1  0
  2  3  1  0
  4  3  1  6
  4  5  1  0
  4 16  1  0
  4 20  1  0
  5  6  1  0
  6  7  1  0
  7  8  1  0
  8  9  1  0
  9 10  1  0
 11 10  1  6
 11 12  1  0
 11 15  1  0
 12 13  1  0
 13 14  1  0
 14 15  1  0
 16 17  1  0
 17 18  1  6
 17 19  1  0
 20 21  2  0
 20 22  1  0
 22 23  1  1
 22 24  1  0
M  END
