
     RDKit          3D

 24 24  0  0  0  0  0  0  0  0999 V2000
   -3.8770    4.0700    1.2270 C   0  0  0  0  0  0  0  0  0  0  0  0
   -3.0680    3.0470    1.0630 C   0  0  0  0  0  0  0  0  0  0  0  0
   -3.4020    1.9280    0.1890 C   0  0  0  0  0  0  0  0  0  0  0  0
   -4.7160    1.9980   -0.5180 C   0  0  0  0  0  0  0  0  0  0  0  0
   -2.5730    0.9260    0.0500 C   0  0  0  0  0  0  0  0  0  0  0  0
   -1.2730    0.7370    0.6770 C   0  0  0  0  0  0  0  0  0  0  0  0
   -0.1630    0.7180   -0.2910 C   0  0  0  0  0  0  0  0  0  0  0  0
   -0.3920    0.9270   -1.5740 C   0  0  0  0  0  0  0  0  0  0  0  0
    1.2520    0.4630    0.1260 C   0  0  0  0  0  0  0  0  0  0  0  0
    1.4240   -0.8640    0.7760 C   0  0  0  0  0  0  0  0  0  0  0  0
    2.8560   -1.0580    1.1870 C   0  0  0  0  0  0  0  0  0  0  0  0
    3.8460   -1.0150    0.0560 C   0  0  0  0  0  0  0  0  0  0  0  0
    5.2140   -1.2440    0.6700 C   0  0  0  0  0  0  0  0  0  0  0  0
    6.3220   -1.2340   -0.3270 C   0  0  0  0  0  0  0  0  0  0  0  0
    6.4810    0.0300   -1.0980 C   0  0  2  0  0  0  0  0  0  0  0  0
    6.7560    1.1970   -0.1820 C   0  0  0  0  0  0  0  0  0  0  0  0
    5.4800    0.3050   -1.9970 O   0  0  0  0  0  0  0  0  0  0  0  0
   -2.9980   -0.1080   -0.8220 O   0  0  0  0  0  0  0  0  0  0  0  0
   -3.9120   -1.0710   -0.3710 C   0  0  0  0  0  0  0  0  0  0  0  0
   -4.0340   -1.5090    0.8710 C   0  0  0  0  0  0  0  0  0  0  0  0
   -5.1040   -2.5260    0.9820 C   0  0  0  0  0  0  0  0  0  0  0  0
   -5.6050   -2.6260   -0.4070 C   0  0  0  0  0  0  0  0  0  0  0  0
   -4.9060   -1.7860   -1.1470 C   0  0  0  0  0  0  0  0  0  0  0  0
   -5.1110   -1.5870   -2.6270 C   0  0  0  0  0  0  0  0  0  0  0  0
  1  2  2  0
  2  3  1  0
  3  4  1  0
  3  5  2  3
  5  6  1  0
  5 18  1  0
  6  7  1  0
  7  8  2  0
  7  9  1  0
  9 10  1  0
 10 11  1  0
 11 12  1  0
 12 13  1  0
 13 14  1  0
 14 15  1  0
 15 16  1  1
 15 17  1  0
 18 19  1  0
 19 20  2  0
 19 23  1  0
 20 21  1  0
 21 22  1  0
 22 23  2  0
 23 24  1  0
M  END
