
     RDKit          3D

 21 22  0  0  0  0  0  0  0  0999 V2000
   -0.0780    0.8810   -1.9660 C   0  0  0  0  0  0  0  0  0  0  0  0
   -0.9480    0.3810   -0.9220 N   0  0  0  0  0  0  0  0  0  0  0  0
   -2.2880    0.5670   -1.0470 N   0  0  0  0  0  0  0  0  0  0  0  0
   -2.9350    0.0000   -0.0330 C   0  0  0  0  0  0  0  0  0  0  0  0
   -4.4070    0.0370    0.1180 C   0  0  2  0  0  0  0  0  0  0  0  0
   -4.8740    1.3960   -0.4140 C   0  0  0  0  0  0  0  0  0  0  0  0
   -4.8280   -0.0150    1.5740 C   0  0  0  0  0  0  0  0  0  0  0  0
   -5.1300   -1.0520   -0.6300 C   0  0  0  0  0  0  0  0  0  0  0  0
   -1.9780   -0.5580    0.7490 C   0  0  0  0  0  0  0  0  0  0  0  0
   -0.6940   -0.3080    0.1730 C   0  0  0  0  0  0  0  0  0  0  0  0
    0.4980   -0.6780    0.7960 N   0  0  0  0  0  0  0  0  0  0  0  0
    1.8060   -0.2320    0.5820 C   0  0  0  0  0  0  0  0  0  0  0  0
    2.0210    0.6930   -0.2230 O   0  0  0  0  0  0  0  0  0  0  0  0
    2.9390   -0.7910    1.2520 N   0  0  0  0  0  0  0  0  0  0  0  0
    4.2740   -0.3860    1.0970 C   0  0  0  0  0  0  0  0  0  0  0  0
    4.7130    0.8200    0.6090 C   0  0  0  0  0  0  0  0  0  0  0  0
    6.0450    1.1400    0.4640 C   0  0  0  0  0  0  0  0  0  0  0  0
    7.0070    0.2160    0.8230 C   0  0  0  0  0  0  0  0  0  0  0  0
    8.7100    0.5570    0.6750 Cl  0  0  0  0  0  0  0  0  0  0  0  0
    6.6220   -1.0070    1.3170 C   0  0  0  0  0  0  0  0  0  0  0  0
    5.2830   -1.3000    1.4510 C   0  0  0  0  0  0  0  0  0  0  0  0
  1  2  1  0
  2  3  1  0
  2 10  1  0
  3  4  2  0
  4  5  1  0
  4  9  1  0
  5  6  1  6
  5  7  1  0
  5  8  1  0
  9 10  2  0
 10 11  1  0
 11 12  1  0
 12 13  2  0
 12 14  1  0
 14 15  1  0
 15 16  2  0
 15 21  1  0
 16 17  1  0
 17 18  2  0
 18 19  1  0
 18 20  1  0
 20 21  2  0
M  END
