
     RDKit          3D

 20 22  0  0  0  0  0  0  0  0999 V2000
    3.3200   -2.3830    0.5090 O   0  0  0  0  0  0  0  0  0  0  0  0
    3.7270   -1.1840    0.5500 C   0  0  0  0  0  0  0  0  0  0  0  0
    5.0580   -0.7070    0.0520 C   0  0  1  0  0  0  0  0  0  0  0  0
    5.0950   -0.6100   -1.3270 O   0  0  0  0  0  0  0  0  0  0  0  0
    5.1660    0.6410    0.7300 C   0  0  0  0  0  0  0  0  0  0  0  0
    3.7130    1.1080    0.6770 C   0  0  0  0  0  0  0  0  0  0  0  0
    3.0010   -0.0800    1.0720 N   0  0  0  0  0  0  0  0  0  0  0  0
    1.7840   -0.1240    1.8490 C   0  0  0  0  0  0  0  0  0  0  0  0
    0.5810   -0.0820    0.9860 C   0  0  0  0  0  0  0  0  0  0  0  0
    0.5080   -0.1160   -0.3520 N   0  0  0  0  0  0  0  0  0  0  0  0
   -0.7480   -0.0550   -0.7570 C   0  0  0  0  0  0  0  0  0  0  0  0
   -1.5100    0.0220    0.3850 C   0  0  0  0  0  0  0  0  0  0  0  0
   -0.6780    0.0030    1.4370 N   0  0  0  0  0  0  0  0  0  0  0  0
   -2.9780    0.1080    0.2220 C   0  0  0  0  0  0  0  0  0  0  0  0
   -3.4520   -0.8190   -0.8380 C   0  0  1  0  0  0  0  0  0  0  0  0
   -4.8230   -0.2960   -1.2930 C   0  0  0  0  0  0  0  0  0  0  0  0
   -5.9830   -0.2710    0.0800 S   0  0  0  0  0  0  0  0  0  0  0  0
   -5.5170    0.8710    1.2690 O   0  0  0  0  0  0  0  0  0  0  0  0
   -2.5770   -1.0340   -1.9410 N   0  0  0  0  0  0  0  0  0  0  0  0
   -1.5160   -0.0500   -2.0390 C   0  0  0  0  0  0  0  0  0  0  0  0
  1  2  2  0
  2  3  1  0
  2  7  1  0
  3  4  1  6
  3  5  1  0
  5  6  1  0
  6  7  1  0
  7  8  1  0
  8  9  1  0
  9 10  2  0
  9 13  1  0
 10 11  1  0
 11 12  2  0
 11 20  1  0
 12 13  1  0
 12 14  1  0
 14 15  1  0
 15 16  1  6
 15 19  1  0
 16 17  1  0
 17 18  1  0
 19 20  1  0
M  CHG  1  19   1
M  END
