
     RDKit          3D

 20 22  0  0  0  0  0  0  0  0999 V2000
   -4.8430   -0.1220   -0.4820 N   0  0  0  0  0  0  0  0  0  0  0  0
   -3.4340   -0.2560   -0.6090 C   0  0  0  0  0  0  0  0  0  0  0  0
   -2.7700   -0.8990   -1.5130 O   0  0  0  0  0  0  0  0  0  0  0  0
   -1.4890   -0.8130   -1.3260 C   0  0  0  0  0  0  0  0  0  0  0  0
   -1.2280   -0.0560   -0.2080 C   0  0  0  0  0  0  0  0  0  0  0  0
   -2.4870    0.3260    0.2720 C   0  0  0  0  0  0  0  0  0  0  0  0
   -2.8950    1.1350    1.4100 C   0  0  0  0  0  0  0  0  0  0  0  0
   -3.5650    2.3760    0.9440 N   0  0  0  0  0  0  0  0  0  0  0  0
    0.0930    0.0950    0.3880 C   0  0  0  0  0  0  0  0  0  0  0  0
    1.2440   -0.2150   -0.5160 C   0  0  1  0  0  0  0  0  0  0  0  0
    2.4500   -0.7030    0.2050 C   0  0  0  0  0  0  0  0  0  0  0  0
    2.6770   -1.8910    0.8770 C   0  0  0  0  0  0  0  0  0  0  0  0
    3.9860   -2.0320    1.1490 N   0  0  0  0  0  0  0  0  0  0  0  0
    4.6330   -0.9480    0.6770 N   0  0  0  0  0  0  0  0  0  0  0  0
    3.7370   -0.1370    0.1080 C   0  0  0  0  0  0  0  0  0  0  0  0
    4.0350    1.0440   -0.4750 O   0  0  0  0  0  0  0  0  0  0  0  0
    5.4400    1.9180   -0.6240 S   0  0  0  0  0  0  0  0  0  0  0  0
    5.0450    3.4230   -0.5690 O   0  0  0  0  0  0  0  0  0  0  0  0
    0.8010   -1.5900   -1.2090 C   0  0  0  0  0  0  0  0  0  0  0  0
   -0.3020   -1.3630   -2.0840 C   0  0  0  0  0  0  0  0  0  0  0  0
  1  2  1  0
  2  3  1  0
  2  6  2  0
  3  4  1  0
  4  5  2  0
  4 20  1  0
  5  6  1  0
  5  9  1  0
  6  7  1  0
  7  8  1  0
  9 10  1  0
 10 11  1  1
 10 19  1  0
 11 12  2  0
 11 15  1  0
 12 13  1  0
 13 14  1  0
 14 15  2  0
 15 16  1  0
 16 17  1  0
 17 18  2  0
 19 20  1  0
M  CHG  1   8   1
M  END
