
     RDKit          3D

 19 20  0  0  0  0  0  0  0  0999 V2000
   -4.5210    0.5990    1.6170 C   0  0  0  0  0  0  0  0  0  0  0  0
   -3.4480    0.3240    0.5690 C   0  0  2  0  0  0  0  0  0  0  0  0
   -4.0470    0.1030   -0.7320 N   0  0  0  0  0  0  0  0  0  0  0  0
   -2.7550   -0.9520    0.9680 C   0  0  0  0  0  0  0  0  0  0  0  0
   -1.8090   -1.2830    0.0450 O   0  0  0  0  0  0  0  0  0  0  0  0
   -0.8260   -0.3210   -0.0820 C   0  0  0  0  0  0  0  0  0  0  0  0
    0.1450   -0.8830   -1.1110 C   0  0  0  0  0  0  0  0  0  0  0  0
    1.2260    0.0280   -1.3390 N   0  0  0  0  0  0  0  0  0  0  0  0
    1.2540    0.9970   -2.2670 C   0  0  0  0  0  0  0  0  0  0  0  0
    0.3210    1.2370   -3.0680 O   0  0  0  0  0  0  0  0  0  0  0  0
    2.4270    1.6410   -2.1810 N   0  0  0  0  0  0  0  0  0  0  0  0
    3.1820    1.0810   -1.1750 C   0  0  0  0  0  0  0  0  0  0  0  0
    2.3900    0.0720   -0.6730 C   0  0  0  0  0  0  0  0  0  0  0  0
    2.6390   -0.7690    0.3090 C   0  0  0  0  0  0  0  0  0  0  0  0
    3.7470   -0.9840    1.1970 C   0  0  0  0  0  0  0  0  0  0  0  0
    3.6260   -2.0170    2.1400 O   0  0  0  0  0  0  0  0  0  0  0  0
    4.8950   -0.3540    1.2750 C   0  0  0  0  0  0  0  0  0  0  0  0
    5.5550    0.9990    0.3450 S   0  0  0  0  0  0  0  0  0  0  0  0
    4.3870    1.5170   -0.8700 C   0  0  0  0  0  0  0  0  0  0  0  0
  2  1  1  1
  2  3  1  0
  2  4  1  0
  4  5  1  0
  5  6  1  0
  6  7  1  0
  7  8  1  0
  8  9  1  0
  8 13  1  0
  9 10  2  0
  9 11  1  0
 11 12  1  0
 12 13  1  0
 12 19  2  0
 13 14  2  0
 14 15  1  0
 15 16  1  0
 15 17  2  0
 17 18  1  0
 18 19  1  0
M  CHG  1   3   1
M  END
