
     RDKit          3D

 20 21  0  0  0  0  0  0  0  0999 V2000
   -3.0080    2.3650   -0.5480 C   0  0  0  0  0  0  0  0  0  0  0  0
   -1.8150    1.5000   -0.6600 N   0  0  0  0  0  0  0  0  0  0  0  0
   -1.7260    0.5280    0.3580 C   0  0  1  0  0  0  0  0  0  0  0  0
   -3.1230    0.0890    0.8650 C   0  0  0  0  0  0  0  0  0  0  0  0
   -3.8480   -0.4820   -0.1500 O   0  0  0  0  0  0  0  0  0  0  0  0
   -0.9890   -0.7270    0.1120 C   0  0  1  0  0  0  0  0  0  0  0  0
   -1.6410   -1.3720   -1.0040 O   0  0  0  0  0  0  0  0  0  0  0  0
    0.4350   -0.7840   -0.0500 C   0  0  0  0  0  0  0  0  0  0  0  0
    1.1250    0.3040   -0.5100 C   0  0  0  0  0  0  0  0  0  0  0  0
    2.4340    0.6580   -0.2520 C   0  0  0  0  0  0  0  0  0  0  0  0
    3.0270    1.8480   -0.5170 C   0  0  0  0  0  0  0  0  0  0  0  0
    2.2740    3.1390   -1.2030 S   0  0  0  0  0  0  0  0  0  0  0  0
    4.3040    1.8110   -0.1420 N   0  0  0  0  0  0  0  0  0  0  0  0
    4.6120    0.6100    0.3830 C   0  0  0  0  0  0  0  0  0  0  0  0
    5.7470    0.2530    0.8330 O   0  0  0  0  0  0  0  0  0  0  0  0
    3.4890   -0.1790    0.3510 C   0  0  0  0  0  0  0  0  0  0  0  0
    3.3330   -1.4470    0.7610 N   0  0  0  0  0  0  0  0  0  0  0  0
    2.3490   -2.2720    0.4760 N   0  0  0  0  0  0  0  0  0  0  0  0
    1.0510   -2.0220    0.2280 C   0  0  0  0  0  0  0  0  0  0  0  0
    0.1650   -3.2120    0.2670 C   0  0  0  0  0  0  0  0  0  0  0  0
  1  2  1  0
  2  3  1  0
  3  4  1  6
  3  6  1  0
  4  5  1  0
  6  7  1  6
  6  8  1  0
  8  9  1  0
  8 19  2  0
  9 10  2  0
 10 11  1  0
 10 16  1  0
 11 12  2  0
 11 13  1  0
 13 14  1  0
 14 15  2  0
 14 16  1  0
 16 17  2  0
 17 18  1  0
 18 19  1  0
 19 20  1  0
M  CHG  1   2   1
M  END
