
     RDKit          3D

 20 21  0  0  0  0  0  0  0  0999 V2000
   -2.4440   -2.1150    1.0900 N   0  0  0  0  0  0  0  0  0  0  0  0
   -2.9570   -1.0660    0.2830 C   0  0  0  0  0  0  0  0  0  0  0  0
   -4.1890   -0.7520    0.6030 N   0  0  0  0  0  0  0  0  0  0  0  0
   -4.9320    0.3090   -0.0980 C   0  0  0  0  0  0  0  0  0  0  0  0
   -4.1080    1.5460    0.0560 C   0  0  0  0  0  0  0  0  0  0  0  0
   -3.0460    1.7610   -0.9540 C   0  0  0  0  0  0  0  0  0  0  0  0
   -2.5020    0.5330   -1.6180 C   0  0  0  0  0  0  0  0  0  0  0  0
   -2.1100   -0.5170   -0.7220 N   0  0  0  0  0  0  0  0  0  0  0  0
   -0.8130   -1.1000   -0.7800 C   0  0  0  0  0  0  0  0  0  0  0  0
    0.3160   -0.1790   -0.3620 C   0  0  0  0  0  0  0  0  0  0  0  0
    1.4980   -0.9330   -0.4880 O   0  0  0  0  0  0  0  0  0  0  0  0
    2.7420   -0.3460   -0.1700 C   0  0  0  0  0  0  0  0  0  0  0  0
    3.8190   -1.0790   -0.3700 C   0  0  0  0  0  0  0  0  0  0  0  0
    5.1660   -0.5920   -0.0830 C   0  0  2  0  0  0  0  0  0  0  0  0
    5.8050   -1.6560    1.2590 S   0  0  0  0  0  0  0  0  0  0  0  0
    5.7680   -0.9320    2.5900 O   0  0  0  0  0  0  0  0  0  0  0  0
    5.1880    0.7350    0.4270 N   0  0  0  0  0  0  0  0  0  0  0  0
    4.0180    1.4870    0.6280 C   0  0  0  0  0  0  0  0  0  0  0  0
    2.8160    1.0090    0.3540 C   0  0  0  0  0  0  0  0  0  0  0  0
    1.6820    1.7750    0.5630 O   0  0  0  0  0  0  0  0  0  0  0  0
  1  2  1  0
  2  3  2  0
  2  8  1  0
  3  4  1  0
  4  5  1  0
  5  6  1  0
  6  7  1  0
  7  8  1  0
  8  9  1  0
  9 10  1  0
 10 11  1  0
 11 12  1  0
 12 13  2  0
 12 19  1  0
 13 14  1  0
 14 15  1  1
 14 17  1  0
 15 16  2  0
 17 18  1  0
 18 19  2  0
 19 20  1  0
M  CHG  1   3   1
M  END
