
     RDKit          3D

 19 20  0  0  0  0  0  0  0  0999 V2000
   -4.8170   -0.6410    0.4120 C   0  0  0  0  0  0  0  0  0  0  0  0
   -3.8750   -0.2050   -0.6890 C   0  0  2  0  0  0  0  0  0  0  0  0
   -3.0420   -1.3690   -1.0960 C   0  0  0  0  0  0  0  0  0  0  0  0
   -1.6050   -0.9720   -1.1600 C   0  0  0  0  0  0  0  0  0  0  0  0
   -1.0550   -0.4140    0.1330 C   0  0  1  0  0  0  0  0  0  0  0  0
    0.3440    0.0300   -0.1660 C   0  0  0  0  0  0  0  0  0  0  0  0
    0.9540   -0.1830   -1.3470 N   0  0  0  0  0  0  0  0  0  0  0  0
    2.1880    0.2090   -1.5990 N   0  0  0  0  0  0  0  0  0  0  0  0
    2.8860    0.8510   -0.6470 C   0  0  0  0  0  0  0  0  0  0  0  0
    4.5760    1.4000   -0.9810 S   0  0  0  0  0  0  0  0  0  0  0  0
    5.6740    0.0270   -0.5620 C   0  0  0  0  0  0  0  0  0  0  0  0
    5.6560   -0.2840    0.9160 C   0  0  0  0  0  0  0  0  0  0  0  0
    4.3900   -0.6450    1.3150 O   0  0  0  0  0  0  0  0  0  0  0  0
    2.3370    1.0940    0.5480 N   0  0  0  0  0  0  0  0  0  0  0  0
    1.0810    0.6910    0.7920 C   0  0  0  0  0  0  0  0  0  0  0  0
    0.5270    0.9010    1.9080 O   0  0  0  0  0  0  0  0  0  0  0  0
   -1.9220    0.7080    0.5860 C   0  0  2  0  0  0  0  0  0  0  0  0
   -2.3360    0.5350    1.9610 N   0  0  0  0  0  0  0  0  0  0  0  0
   -3.0750    1.0070   -0.3160 C   0  0  0  0  0  0  0  0  0  0  0  0
  2  1  1  1
  2  3  1  0
  2 19  1  0
  3  4  1  0
  4  5  1  0
  5  6  1  6
  5 17  1  0
  6  7  2  0
  6 15  1  0
  7  8  1  0
  8  9  2  0
  9 10  1  0
  9 14  1  0
 10 11  1  0
 11 12  1  0
 12 13  1  0
 14 15  1  0
 15 16  2  0
 17 18  1  1
 17 19  1  0
M  CHG  1   8   1
M  END
