
     RDKit          3D

 20 21  0  0  0  0  0  0  0  0999 V2000
    1.1000   -0.7430    0.5670 O   0  0  0  0  0  0  0  0  0  0  0  0
    0.5670   -0.3690   -0.5210 C   0  0  0  0  0  0  0  0  0  0  0  0
   -0.8690   -0.2610   -0.6250 N   0  0  0  0  0  0  0  0  0  0  0  0
   -1.6240   -0.5920    0.5420 C   0  0  0  0  0  0  0  0  0  0  0  0
   -3.1070   -0.4590    0.3700 C   0  0  2  0  0  0  0  0  0  0  0  0
   -3.6960   -0.8120    1.5830 O   0  0  0  0  0  0  0  0  0  0  0  0
   -3.6650   -1.3510   -0.7140 C   0  0  0  0  0  0  0  0  0  0  0  0
   -5.1200   -1.0790   -0.8600 C   0  0  0  0  0  0  0  0  0  0  0  0
   -5.6560    0.0030    0.0100 C   0  0  0  0  0  0  0  0  0  0  0  0
   -4.8820    1.1240    0.1140 O   0  0  0  0  0  0  0  0  0  0  0  0
   -3.5320    0.9470    0.0540 C   0  0  0  0  0  0  0  0  0  0  0  0
    1.4210   -0.0740   -1.5930 N   0  0  0  0  0  0  0  0  0  0  0  0
    2.8120   -0.1750   -1.5030 N   0  0  0  0  0  0  0  0  0  0  0  0
    3.5600    0.5460   -0.5190 C   0  0  0  0  0  0  0  0  0  0  0  0
    3.0520    1.5010    0.2120 N   0  0  0  0  0  0  0  0  0  0  0  0
    4.0420    2.0350    1.1070 C   0  0  0  0  0  0  0  0  0  0  0  0
    5.3510    1.6560    0.4460 C   0  0  0  0  0  0  0  0  0  0  0  0
    4.9540    0.3630   -0.1760 C   0  0  0  0  0  0  0  0  0  0  0  0
    5.6900   -0.6970   -0.3640 C   0  0  0  0  0  0  0  0  0  0  0  0
    5.1100   -2.2080   -1.1100 S   0  0  0  0  0  0  0  0  0  0  0  0
  1  2  2  0
  2  3  1  0
  2 12  1  0
  3  4  1  0
  4  5  1  0
  5  6  1  1
  5  7  1  0
  5 11  1  0
  7  8  1  0
  8  9  1  0
  9 10  1  0
 10 11  1  0
 12 13  1  0
 13 14  1  0
 14 15  2  0
 14 18  1  0
 15 16  1  0
 16 17  1  0
 17 18  1  0
 18 19  2  3
 19 20  1  0
M  CHG  1  15   1
M  END
