
     RDKit          3D

 38 41  0  0  0  0  0  0  0  0999 V2000
   -7.1600    4.3000    1.1500 C   0  0  0  0  0  0  0  0  0  0  0  0
   -6.4580    3.1470    0.7450 O   0  0  0  0  0  0  0  0  0  0  0  0
   -5.1740    3.3380    0.1850 C   0  0  0  0  0  0  0  0  0  0  0  0
   -4.6600    4.5340    0.0490 N   0  0  0  0  0  0  0  0  0  0  0  0
   -3.4640    4.7940   -0.4660 C   0  0  0  0  0  0  0  0  0  0  0  0
   -2.7250    3.7230   -0.8830 C   0  0  0  0  0  0  0  0  0  0  0  0
   -3.2230    2.4060   -0.7650 C   0  0  0  0  0  0  0  0  0  0  0  0
   -2.3610    1.3570   -1.2620 C   0  0  0  0  0  0  0  0  0  0  0  0
   -1.1670    1.1790   -0.7500 C   0  0  0  0  0  0  0  0  0  0  0  0
    0.0390   -0.0860   -1.2620 S   0  0  0  0  0  0  0  0  0  0  0  0
    1.2880    0.3720   -0.0650 C   0  0  0  0  0  0  0  0  0  0  0  0
    2.5840   -0.2620    0.0910 N   0  0  0  0  0  0  0  0  0  0  0  0
    2.6060   -1.4770    0.8470 C   0  0  0  0  0  0  0  0  0  0  0  0
    3.8810   -2.2640    0.6520 C   0  0  0  0  0  0  0  0  0  0  0  0
    5.0180   -1.2450    0.7760 C   0  0  1  0  0  0  0  0  0  0  0  0
    6.2560   -1.8940    1.0040 N   0  0  1  0  0  0  0  0  0  0  0  0
    6.2710   -3.2990    0.5990 C   0  0  0  0  0  0  0  0  0  0  0  0
    7.6120   -1.1360    0.2830 S   0  0  1  0  0  0  0  0  0  0  0  0
    8.8360   -1.9260    0.7040 O   0  0  0  0  0  0  0  0  0  0  0  0
    7.5700   -1.1720   -1.2060 O   0  0  0  0  0  0  0  0  0  0  0  0
    7.8190    0.4170    0.8840 O   0  0  0  0  0  0  0  0  0  0  0  0
    8.7410    1.0550    0.0570 C   0  0  0  0  0  0  0  0  0  0  0  0
    4.9660   -0.4010   -0.4690 C   0  0  0  0  0  0  0  0  0  0  0  0
    3.6970    0.3850   -0.5230 C   0  0  0  0  0  0  0  0  0  0  0  0
    0.8120    1.3370    0.5980 N   0  0  0  0  0  0  0  0  0  0  0  0
   -0.4430    1.8280    0.3270 C   0  0  0  0  0  0  0  0  0  0  0  0
   -0.9420    2.8140    1.0020 O   0  0  0  0  0  0  0  0  0  0  0  0
   -4.4480    2.1800   -0.2310 C   0  0  0  0  0  0  0  0  0  0  0  0
   -5.1480    0.9210   -0.0230 C   0  0  0  0  0  0  0  0  0  0  0  0
   -4.5250   -0.2980   -0.2970 N   0  0  0  0  0  0  0  0  0  0  0  0
   -5.2920   -1.5250   -0.3780 C   0  0  0  0  0  0  0  0  0  0  0  0
   -4.6930   -2.7240   -0.6380 C   0  0  0  0  0  0  0  0  0  0  0  0
   -5.3800   -3.9140   -0.7230 C   0  0  0  0  0  0  0  0  0  0  0  0
   -6.7410   -3.8690   -0.5340 C   0  0  0  0  0  0  0  0  0  0  0  0
   -7.6780   -5.3630   -0.6310 Cl  0  0  0  0  0  0  0  0  0  0  0  0
   -7.3950   -2.6870   -0.2700 C   0  0  0  0  0  0  0  0  0  0  0  0
   -9.1470   -2.6390   -0.0280 Cl  0  0  0  0  0  0  0  0  0  0  0  0
   -6.6490   -1.5130   -0.1940 C   0  0  0  0  0  0  0  0  0  0  0  0
  1  2  1  0
  2  3  1  0
  3  4  2  0
  3 28  1  0
  4  5  1  0
  5  6  2  0
  6  7  1  0
  7  8  1  0
  7 28  2  0
  8  9  2  3
  9 10  1  0
  9 26  1  0
 10 11  1  0
 11 12  1  0
 11 25  2  0
 12 13  1  0
 12 24  1  0
 13 14  1  0
 15 14  1  6
 15 16  1  0
 15 23  1  0
 16 17  1  6
 16 18  1  0
 18 19  2  0
 18 20  2  0
 18 21  1  6
 21 22  1  0
 23 24  1  0
 25 26  1  0
 26 27  2  0
 28 29  1  0
 29 30  1  0
 30 31  1  0
 31 32  2  0
 31 38  1  0
 32 33  1  0
 33 34  2  0
 34 35  1  0
 34 36  1  0
 36 37  1  0
 36 38  2  0
M  CHG  1  16   1
M  END
