
     RDKit          3D

 39 42  0  0  0  0  0  0  0  0999 V2000
   -1.3630   -3.9430    3.4560 C   0  0  0  0  0  0  0  0  0  0  0  0
   -0.9040   -2.5210    3.2130 C   0  0  0  0  0  0  0  0  0  0  0  0
   -1.8960   -1.9290    2.3580 O   0  0  0  0  0  0  0  0  0  0  0  0
   -1.7870   -0.6180    1.9340 C   0  0  0  0  0  0  0  0  0  0  0  0
   -0.7750    0.0270    2.3350 O   0  0  0  0  0  0  0  0  0  0  0  0
   -2.7520    0.0600    1.0640 C   0  0  2  0  0  0  0  0  0  0  0  0
   -2.9530   -0.7370   -0.5530 S   0  0  0  0  0  0  0  0  0  0  0  0
   -1.4040   -0.5810   -1.4560 C   0  0  0  0  0  0  0  0  0  0  0  0
   -0.2640    0.0030   -1.0450 N   0  0  0  0  0  0  0  0  0  0  0  0
    0.6720   -0.0760   -1.9810 N   0  0  0  0  0  0  0  0  0  0  0  0
    1.9990    0.4600   -1.8300 C   0  0  0  0  0  0  0  0  0  0  0  0
    2.9350   -0.5530   -1.2450 C   0  0  0  0  0  0  0  0  0  0  0  0
    2.4720   -1.6730   -0.9820 O   0  0  0  0  0  0  0  0  0  0  0  0
    4.2780   -0.2420   -1.0070 N   0  0  0  0  0  0  0  0  0  0  0  0
    5.2720   -1.0910   -0.4730 C   0  0  0  0  0  0  0  0  0  0  0  0
    5.1170   -2.4430   -0.5980 C   0  0  0  0  0  0  0  0  0  0  0  0
    6.1230   -3.3410   -0.2350 C   0  0  0  0  0  0  0  0  0  0  0  0
    5.8970   -5.0610   -0.4050 Cl  0  0  0  0  0  0  0  0  0  0  0  0
    7.3100   -2.8720    0.2640 C   0  0  0  0  0  0  0  0  0  0  0  0
    8.6140   -3.9670    0.7340 Cl  0  0  0  0  0  0  0  0  0  0  0  0
    7.4520   -1.5220    0.3860 C   0  0  0  0  0  0  0  0  0  0  0  0
    6.4620   -0.5850    0.0340 C   0  0  0  0  0  0  0  0  0  0  0  0
    6.6730    0.8160    0.3450 C   0  0  0  0  0  0  0  0  0  0  0  0
    5.9110    1.8610    0.4980 C   0  0  0  0  0  0  0  0  0  0  0  0
    6.6350    3.1120    0.8110 C   0  0  1  0  0  0  0  0  0  0  0  0
    5.7930    4.0090    1.4390 F   0  0  0  0  0  0  0  0  0  0  0  0
    7.7620    2.8390    1.5760 O   0  0  0  0  0  0  0  0  0  0  0  0
    8.3460    1.4810    0.6360 S   0  0  0  0  0  0  0  0  0  0  0  0
    0.1220   -0.7250   -3.0190 C   0  0  0  0  0  0  0  0  0  0  0  0
    0.6890   -0.9950   -4.0960 O   0  0  0  0  0  0  0  0  0  0  0  0
   -1.1460   -1.0350   -2.7030 N   0  0  0  0  0  0  0  0  0  0  0  0
   -2.3950    1.5020    0.8070 C   0  0  0  0  0  0  0  0  0  0  0  0
   -3.3260    2.0160   -0.2730 C   0  0  0  0  0  0  0  0  0  0  0  0
   -4.7730    1.8380    0.0770 C   0  0  1  0  0  0  0  0  0  0  0  0
   -5.5600    2.1240   -1.0920 N   0  0  1  0  0  0  0  0  0  0  0  0
   -6.0410    0.9210   -1.7550 C   0  0  0  0  0  0  0  0  0  0  0  0
   -6.7420    2.8670   -0.6790 C   0  0  0  0  0  0  0  0  0  0  0  0
   -5.1030    0.4670    0.5910 C   0  0  0  0  0  0  0  0  0  0  0  0
   -4.1390    0.0800    1.7180 C   0  0  0  0  0  0  0  0  0  0  0  0
  1  2  1  0
  2  3  1  0
  3  4  1  0
  4  5  2  0
  4  6  1  0
  6  7  1  6
  6 32  1  0
  6 39  1  0
  7  8  1  0
  8  9  2  0
  8 31  1  0
  9 10  1  0
 10 11  1  0
 10 29  1  0
 11 12  1  0
 12 13  2  0
 12 14  1  0
 14 15  1  0
 15 16  2  0
 15 22  1  0
 16 17  1  0
 17 18  1  0
 17 19  2  0
 19 20  1  0
 19 21  1  0
 21 22  2  0
 22 23  1  0
 23 24  2  0
 23 28  1  0
 24 25  1  0
 25 26  1  1
 25 27  1  0
 27 28  1  0
 29 30  2  0
 29 31  1  0
 32 33  1  0
 34 33  1  6
 34 35  1  0
 34 38  1  0
 35 36  1  1
 35 37  1  0
 38 39  1  0
M  CHG  1  35   1
M  END
