
     RDKit          3D

 38 41  0  0  0  0  0  0  0  0999 V2000
   -2.8230   -4.9260   -1.3780 O   0  0  0  0  0  0  0  0  0  0  0  0
   -3.4390   -4.1440   -0.5900 C   0  0  0  0  0  0  0  0  0  0  0  0
   -3.2970   -2.6970   -0.7290 C   0  0  0  0  0  0  0  0  0  0  0  0
   -3.8800   -1.8100    0.0200 C   0  0  0  0  0  0  0  0  0  0  0  0
   -3.7090   -0.3530   -0.1560 C   0  0  0  0  0  0  0  0  0  0  0  0
   -2.8590    0.0530   -1.2070 N   0  0  1  0  0  0  0  0  0  0  0  0
   -3.0200    1.4400   -1.5940 C   0  0  0  0  0  0  0  0  0  0  0  0
   -3.9490    2.1880   -0.7530 C   0  0  0  0  0  0  0  0  0  0  0  0
   -5.3350    2.4120   -0.9070 C   0  0  0  0  0  0  0  0  0  0  0  0
   -5.9260    3.1420    0.0320 C   0  0  0  0  0  0  0  0  0  0  0  0
   -5.2730    3.6560    1.0840 C   0  0  0  0  0  0  0  0  0  0  0  0
   -5.6710    4.4640    2.2210 C   0  0  0  0  0  0  0  0  0  0  0  0
   -5.5200    6.1830    1.7950 Cl  0  0  0  0  0  0  0  0  0  0  0  0
   -3.5750    3.0660    0.7730 S   0  0  0  0  0  0  0  0  0  0  0  0
   -1.5010   -0.1650   -0.8930 C   0  0  0  0  0  0  0  0  0  0  0  0
   -0.4780    0.1360   -1.7580 C   0  0  0  0  0  0  0  0  0  0  0  0
    0.8470   -0.0950   -1.3990 C   0  0  0  0  0  0  0  0  0  0  0  0
    1.7790    0.2100   -2.3440 F   0  0  0  0  0  0  0  0  0  0  0  0
    1.2370   -0.6230   -0.1950 C   0  0  0  0  0  0  0  0  0  0  0  0
    2.5430   -0.8510    0.2580 N   0  0  0  0  0  0  0  0  0  0  0  0
    3.7420   -0.3970   -0.2790 C   0  0  0  0  0  0  0  0  0  0  0  0
    3.7790    0.3170   -1.2840 O   0  0  0  0  0  0  0  0  0  0  0  0
    5.0500   -0.7390    0.3170 C   0  0  0  0  0  0  0  0  0  0  0  0
    5.0440   -1.4730    1.3600 O   0  0  0  0  0  0  0  0  0  0  0  0
    6.2710   -0.2960   -0.2100 N   0  0  0  0  0  0  0  0  0  0  0  0
    7.5010   -0.6830    0.4480 C   0  0  0  0  0  0  0  0  0  0  0  0
    8.2160    0.5510    0.9910 C   0  0  0  0  0  0  0  0  0  0  0  0
    8.6900    1.5040   -0.4840 S   0  0  0  0  0  0  0  0  0  0  0  0
   10.1820    1.3500   -0.7490 O   0  0  0  0  0  0  0  0  0  0  0  0
    7.7380    0.7850   -1.8480 C   0  0  0  0  0  0  0  0  0  0  0  0
    6.3140    0.5270   -1.3820 C   0  0  0  0  0  0  0  0  0  0  0  0
    0.1600   -0.9210    0.6700 C   0  0  0  0  0  0  0  0  0  0  0  0
    0.5650   -1.6040    2.2460 Cl  0  0  0  0  0  0  0  0  0  0  0  0
   -1.1480   -0.6930    0.3140 C   0  0  0  0  0  0  0  0  0  0  0  0
   -4.7820   -2.2310    1.1320 C   0  0  0  0  0  0  0  0  0  0  0  0
   -4.9230   -3.6750    1.2690 C   0  0  0  0  0  0  0  0  0  0  0  0
   -5.6680   -4.1030    2.1850 O   0  0  0  0  0  0  0  0  0  0  0  0
   -4.2790   -4.6270    0.4430 N   0  0  0  0  0  0  0  0  0  0  0  0
  1  2  2  0
  2  3  1  0
  2 38  1  0
  3  4  2  0
  4  5  1  0
  4 35  1  0
  6  5  1  1
  6  7  1  0
  6 15  1  0
  7  8  1  0
  8  9  2  0
  8 14  1  0
  9 10  1  0
 10 11  2  0
 11 12  1  0
 11 14  1  0
 12 13  1  0
 15 16  2  0
 15 34  1  0
 16 17  1  0
 17 18  1  0
 17 19  2  0
 19 20  1  0
 19 32  1  0
 20 21  1  0
 21 22  2  0
 21 23  1  0
 23 24  2  0
 23 25  1  0
 25 26  1  0
 25 31  1  0
 26 27  1  0
 28 27  1  1
 28 29  2  0
 28 30  1  0
 30 31  1  0
 32 33  1  0
 32 34  2  0
 35 36  1  0
 36 37  2  0
 36 38  1  0
M  CHG  1   6   1
M  END
