
     RDKit          3D

 39 42  0  0  0  0  0  0  0  0999 V2000
   -5.9250    0.1780    2.2780 C   0  0  0  0  0  0  0  0  0  0  0  0
   -4.5520    0.6980    1.8730 C   0  0  1  0  0  0  0  0  0  0  0  0
   -3.3340    0.0470    3.0170 S   0  0  0  0  0  0  0  0  0  0  0  0
   -2.1220   -0.9030    2.1160 C   0  0  0  0  0  0  0  0  0  0  0  0
   -1.5600   -1.8910    2.5950 O   0  0  0  0  0  0  0  0  0  0  0  0
   -1.8390   -0.4300    0.7690 N   0  0  0  0  0  0  0  0  0  0  0  0
   -0.6540   -0.9320    0.1200 C   0  0  0  0  0  0  0  0  0  0  0  0
    0.5070   -0.0890    0.4110 C   0  0  2  0  0  0  0  0  0  0  0  0
    0.3000    1.2280   -0.0340 O   0  0  0  0  0  0  0  0  0  0  0  0
    0.4830    2.3300    0.8140 C   0  0  0  0  0  0  0  0  0  0  0  0
    0.8610    2.0420    2.0000 O   0  0  0  0  0  0  0  0  0  0  0  0
    0.2640    3.7360    0.4030 C   0  0  0  0  0  0  0  0  0  0  0  0
    1.2790    4.2190   -0.5310 C   0  0  0  0  0  0  0  0  0  0  0  0
    2.1090    5.2270   -0.2890 C   0  0  0  0  0  0  0  0  0  0  0  0
    2.9640    5.3940   -1.4750 C   0  0  0  0  0  0  0  0  0  0  0  0
    2.5000    4.3560   -2.4300 C   0  0  0  0  0  0  0  0  0  0  0  0
    1.5180    3.6790   -1.8620 C   0  0  0  0  0  0  0  0  0  0  0  0
    0.6550    2.3650   -2.6260 Cl  0  0  0  0  0  0  0  0  0  0  0  0
    1.7890   -0.5880   -0.1730 C   0  0  0  0  0  0  0  0  0  0  0  0
    2.4230    0.1750   -0.9020 O   0  0  0  0  0  0  0  0  0  0  0  0
    2.2310   -1.9050    0.1250 N   0  0  0  0  0  0  0  0  0  0  0  0
    3.4210   -2.5120   -0.3610 C   0  0  0  0  0  0  0  0  0  0  0  0
    4.1920   -1.9030   -1.3030 C   0  0  0  0  0  0  0  0  0  0  0  0
    5.3490   -2.4980   -1.8170 C   0  0  0  0  0  0  0  0  0  0  0  0
    5.7000   -3.7230   -1.3500 C   0  0  0  0  0  0  0  0  0  0  0  0
    4.9450   -4.3460   -0.4120 C   0  0  0  0  0  0  0  0  0  0  0  0
    3.7960   -3.7600    0.1020 C   0  0  0  0  0  0  0  0  0  0  0  0
    3.0480   -4.4800    1.1190 C   0  0  0  0  0  0  0  0  0  0  0  0
    2.0300   -4.1360    1.7140 O   0  0  0  0  0  0  0  0  0  0  0  0
    5.5460   -5.5890   -0.1220 O   0  0  0  0  0  0  0  0  0  0  0  0
    6.8780   -5.5420   -0.5910 C   0  0  0  0  0  0  0  0  0  0  0  0
    6.7710   -4.5970   -1.6340 O   0  0  0  0  0  0  0  0  0  0  0  0
   -2.7640    0.4780    0.2150 C   0  0  0  0  0  0  0  0  0  0  0  0
   -2.2710    1.3980   -0.5010 O   0  0  0  0  0  0  0  0  0  0  0  0
   -4.2180    0.3550    0.4580 C   0  0  1  0  0  0  0  0  0  0  0  0
   -4.6770   -1.0650    0.1100 C   0  0  0  0  0  0  0  0  0  0  0  0
   -4.8610    1.3530   -0.4950 C   0  0  0  0  0  0  0  0  0  0  0  0
   -6.3400    1.4290   -0.4410 C   0  0  0  0  0  0  0  0  0  0  0  0
   -6.9060    2.6680   -1.6350 Cl  0  0  0  0  0  0  0  0  0  0  0  0
  2  1  1  1
  2  3  1  0
  2 35  1  0
  3  4  1  0
  4  5  2  0
  4  6  1  0
  6  7  1  0
  6 33  1  0
  8  7  1  6
  8  9  1  0
  8 19  1  0
  9 10  1  0
 10 11  2  0
 10 12  1  0
 12 13  1  0
 13 14  2  0
 13 17  1  0
 14 15  1  0
 15 16  1  0
 16 17  2  0
 17 18  1  0
 19 20  2  0
 19 21  1  0
 21 22  1  0
 22 23  2  0
 22 27  1  0
 23 24  1  0
 24 25  2  0
 25 26  1  0
 25 32  1  0
 26 27  2  0
 26 30  1  0
 27 28  1  0
 28 29  2  0
 30 31  1  0
 31 32  1  0
 33 34  2  0
 33 35  1  0
 35 36  1  6
 35 37  1  0
 37 38  1  0
 38 39  1  0
M  END
