
     RDKit          3D

 39 42  0  0  0  0  0  0  0  0999 V2000
   10.6450    0.0040    3.9190 C   0  0  0  0  0  0  0  0  0  0  0  0
    9.5440    0.1640    2.9360 C   0  0  0  0  0  0  0  0  0  0  0  0
    8.4480   -0.6690    2.9720 C   0  0  0  0  0  0  0  0  0  0  0  0
    8.3810   -1.9190    4.1980 Cl  0  0  0  0  0  0  0  0  0  0  0  0
    7.4200   -0.5100    2.0450 C   0  0  0  0  0  0  0  0  0  0  0  0
    7.4520    0.4550    1.0830 C   0  0  0  0  0  0  0  0  0  0  0  0
    6.3770    0.6500    0.0870 C   0  0  0  0  0  0  0  0  0  0  0  0
    5.2650   -0.2280    0.1560 N   0  0  0  0  0  0  0  0  0  0  0  0
    4.2260   -0.0770   -0.7590 C   0  0  0  0  0  0  0  0  0  0  0  0
    3.9330    0.7230   -1.7830 C   0  0  0  0  0  0  0  0  0  0  0  0
    2.8020    0.6020   -2.4900 C   0  0  0  0  0  0  0  0  0  0  0  0
    1.8930   -0.3790   -2.1620 C   0  0  0  0  0  0  0  0  0  0  0  0
    0.6320   -0.8260   -2.6310 C   0  0  1  0  0  0  0  0  0  0  0  0
   -0.0390   -1.8090   -1.6760 C   0  0  0  0  0  0  0  0  0  0  0  0
   -1.2480   -2.3170   -2.1970 N   0  0  0  0  0  0  0  0  0  0  0  0
   -1.7400   -1.7400   -3.4080 C   0  0  0  0  0  0  0  0  0  0  0  0
   -1.3830   -0.3250   -3.6550 C   0  0  0  0  0  0  0  0  0  0  0  0
   -0.3240    0.1960   -2.8820 N   0  0  0  0  0  0  0  0  0  0  0  0
   -0.5770    1.3960   -1.7820 S   0  0  2  0  0  0  0  0  0  0  0  0
   -1.1130    2.6290   -2.5060 O   0  0  0  0  0  0  0  0  0  0  0  0
    0.7380    1.8510   -1.1890 O   0  0  0  0  0  0  0  0  0  0  0  0
   -1.6620    1.1060   -0.4320 C   0  0  0  0  0  0  0  0  0  0  0  0
   -3.0720    0.7700   -0.8520 C   0  0  0  0  0  0  0  0  0  0  0  0
   -3.8540    0.5570    0.3620 N   0  0  0  0  0  0  0  0  0  0  0  0
   -5.2430    0.2200    0.2940 C   0  0  0  0  0  0  0  0  0  0  0  0
   -5.6980    0.1310   -0.8880 O   0  0  0  0  0  0  0  0  0  0  0  0
   -6.0060    0.0110    1.4970 C   0  0  0  0  0  0  0  0  0  0  0  0
   -5.3410    0.1600    2.5970 O   0  0  0  0  0  0  0  0  0  0  0  0
   -7.3660   -0.3280    1.5800 N   0  0  0  0  0  0  0  0  0  0  0  0
   -8.0060   -0.4950    2.8980 C   0  0  0  0  0  0  0  0  0  0  0  0
   -9.4190    0.0660    2.6900 C   0  0  0  0  0  0  0  0  0  0  0  0
   -9.3990    1.1080    1.7550 O   0  0  0  0  0  0  0  0  0  0  0  0
   -9.2260    0.6230    0.4600 C   0  0  0  0  0  0  0  0  0  0  0  0
   -8.2130   -0.5310    0.4520 C   0  0  0  0  0  0  0  0  0  0  0  0
    2.7260   -1.1990   -0.7220 S   0  0  0  0  0  0  0  0  0  0  0  0
    8.5610    1.3030    1.0420 C   0  0  0  0  0  0  0  0  0  0  0  0
    8.6560    2.5600   -0.1710 Cl  0  0  0  0  0  0  0  0  0  0  0  0
    9.5620    1.1430    1.9500 C   0  0  0  0  0  0  0  0  0  0  0  0
   10.6780    1.9380    1.9680 F   0  0  0  0  0  0  0  0  0  0  0  0
  1  2  1  0
  2  3  2  0
  2 38  1  0
  3  4  1  0
  3  5  1  0
  5  6  2  0
  6  7  1  0
  6 36  1  0
  7  8  1  0
  8  9  1  0
  9 10  2  0
  9 35  1  0
 10 11  1  0
 11 12  2  0
 13 12  1  1
 12 35  1  0
 13 14  1  0
 13 18  1  0
 14 15  1  0
 15 16  1  0
 16 17  1  0
 17 18  1  0
 18 19  1  0
 19 20  2  0
 19 21  2  0
 19 22  1  1
 22 23  1  0
 23 24  1  0
 24 25  1  0
 25 26  2  0
 25 27  1  0
 27 28  2  0
 27 29  1  0
 29 30  1  0
 29 34  1  0
 30 31  1  0
 31 32  1  0
 32 33  1  0
 33 34  1  0
 36 37  1  0
 36 38  2  0
 38 39  1  0
M  CHG  1  15   1
M  END
