
     RDKit          3D

 39 43  0  0  0  0  0  0  0  0999 V2000
   -6.7030   -2.6610   -0.9970 C   0  0  0  0  0  0  0  0  0  0  0  0
   -6.5630   -1.7470   -0.0720 C   0  0  0  0  0  0  0  0  0  0  0  0
   -7.2870   -1.7960    1.1440 O   0  0  0  0  0  0  0  0  0  0  0  0
   -6.8350   -0.8390    2.1060 C   0  0  0  0  0  0  0  0  0  0  0  0
   -5.3230   -0.9410    2.1440 C   0  0  0  0  0  0  0  0  0  0  0  0
   -4.7010   -0.3190    0.9170 C   0  0  1  0  0  0  0  0  0  0  0  0
   -3.1360   -1.0580    0.5390 S   0  0  0  0  0  0  0  0  0  0  0  0
   -1.7990   -0.7020    1.6810 C   0  0  0  0  0  0  0  0  0  0  0  0
   -1.4080    0.6870    1.6570 N   0  0  0  0  0  0  0  0  0  0  0  0
   -1.9560    1.5530    2.5080 C   0  0  0  0  0  0  0  0  0  0  0  0
   -2.8070    1.1910    3.3890 O   0  0  0  0  0  0  0  0  0  0  0  0
   -1.5810    2.8410    2.4090 N   0  0  0  0  0  0  0  0  0  0  0  0
   -0.6960    3.2760    1.5070 C   0  0  0  0  0  0  0  0  0  0  0  0
   -0.1570    4.5040    1.1580 C   0  0  0  0  0  0  0  0  0  0  0  0
    0.6600    4.3690    0.1670 O   0  0  0  0  0  0  0  0  0  0  0  0
    0.7490    3.0930   -0.2350 C   0  0  0  0  0  0  0  0  0  0  0  0
    1.5720    2.6160   -1.3220 C   0  0  0  0  0  0  0  0  0  0  0  0
    1.6020    3.3980   -2.3270 O   0  0  0  0  0  0  0  0  0  0  0  0
    2.3270    1.4460   -1.4180 N   0  0  0  0  0  0  0  0  0  0  0  0
    3.1150    1.0080   -2.5380 C   0  0  1  0  0  0  0  0  0  0  0  0
    4.5830    1.1870   -2.3830 C   0  0  0  0  0  0  0  0  0  0  0  0
    5.1960    0.3080   -1.4240 N   0  0  0  0  0  0  0  0  0  0  0  0
    4.7730   -0.7940   -0.9570 C   0  0  0  0  0  0  0  0  0  0  0  0
    5.5120   -1.5500   -0.0010 N   0  0  0  0  0  0  0  0  0  0  0  0
    5.9550   -1.0450    1.2800 C   0  0  0  0  0  0  0  0  0  0  0  0
    7.4220   -1.4870    1.2410 C   0  0  0  0  0  0  0  0  0  0  0  0
    7.3820   -2.7850    0.4640 C   0  0  0  0  0  0  0  0  0  0  0  0
    5.9660   -2.9130   -0.0910 C   0  0  0  0  0  0  0  0  0  0  0  0
    3.2160   -1.4390   -1.4810 S   0  0  0  0  0  0  0  0  0  0  0  0
    2.7150   -0.4040   -2.8730 C   0  0  0  0  0  0  0  0  0  0  0  0
   -0.1060    2.3930    0.6040 C   0  0  0  0  0  0  0  0  0  0  0  0
   -0.5110    1.0830    0.7300 C   0  0  0  0  0  0  0  0  0  0  0  0
   -0.0040    0.2500   -0.0770 O   0  0  0  0  0  0  0  0  0  0  0  0
   -5.6590   -0.6170   -0.2210 C   0  0  0  0  0  0  0  0  0  0  0  0
   -5.6660    0.1660   -1.2670 C   0  0  0  0  0  0  0  0  0  0  0  0
   -6.5440    0.0820   -2.4530 C   0  0  1  0  0  0  0  0  0  0  0  0
   -7.7440   -0.5340   -2.1930 F   0  0  0  0  0  0  0  0  0  0  0  0
   -6.9970    1.7820   -2.9390 Cl  0  0  0  0  0  0  0  0  0  0  0  0
   -5.7160   -0.5860   -3.8830 Cl  0  0  0  0  0  0  0  0  0  0  0  0
  1  2  2  0
  2  3  1  0
  2 34  1  0
  3  4  1  0
  4  5  1  0
  5  6  1  0
  6  7  1  6
  6 34  1  0
  7  8  1  0
  8  9  1  0
  9 10  1  0
  9 32  1  0
 10 11  2  0
 10 12  1  0
 12 13  1  0
 13 14  2  0
 13 31  1  0
 14 15  1  0
 15 16  1  0
 16 17  1  0
 16 31  2  0
 17 18  2  0
 17 19  1  0
 20 19  1  1
 20 21  1  0
 20 30  1  0
 21 22  1  0
 22 23  2  0
 23 24  1  0
 23 29  1  0
 24 25  1  0
 24 28  1  0
 25 26  1  0
 26 27  1  0
 27 28  1  0
 29 30  1  0
 31 32  1  0
 32 33  2  0
 34 35  2  3
 35 36  1  0
 36 37  1  1
 36 38  1  0
 36 39  1  0
M  CHG  1  22   1
M  END
