
     RDKit          3D

 39 42  0  0  0  0  0  0  0  0999 V2000
   12.0750    1.1360   -0.2490 C   0  0  0  0  0  0  0  0  0  0  0  0
   10.6380    0.7720   -0.3310 C   0  0  0  0  0  0  0  0  0  0  0  0
    9.6750    1.4710    0.3600 C   0  0  0  0  0  0  0  0  0  0  0  0
    8.3140    1.1330    0.2860 C   0  0  0  0  0  0  0  0  0  0  0  0
    7.8770    0.0850   -0.4810 C   0  0  0  0  0  0  0  0  0  0  0  0
    6.4960   -0.3240   -0.6080 C   0  0  0  0  0  0  0  0  0  0  0  0
    6.1940   -1.3200   -1.3540 O   0  0  0  0  0  0  0  0  0  0  0  0
    5.4870    0.3480    0.0680 O   0  0  0  0  0  0  0  0  0  0  0  0
    4.1910   -0.1280   -0.1240 C   0  0  0  0  0  0  0  0  0  0  0  0
    3.1120    0.5770    0.5880 C   0  0  0  0  0  0  0  0  0  0  0  0
    3.2590    1.6140    1.3880 C   0  0  0  0  0  0  0  0  0  0  0  0
    4.8680    2.2520    1.6640 Cl  0  0  0  0  0  0  0  0  0  0  0  0
    2.1230    2.2710    2.0700 C   0  0  0  0  0  0  0  0  0  0  0  0
    2.3200    3.2580    2.8240 O   0  0  0  0  0  0  0  0  0  0  0  0
    0.7860    1.7480    1.8470 C   0  0  0  0  0  0  0  0  0  0  0  0
   -0.2360    2.2610    2.3990 O   0  0  0  0  0  0  0  0  0  0  0  0
    0.6740    0.6010    0.9550 C   0  0  0  0  0  0  0  0  0  0  0  0
   -0.6040    0.0630    0.7110 O   0  0  0  0  0  0  0  0  0  0  0  0
   -0.7170   -0.9310   -0.2810 C   0  0  0  0  0  0  0  0  0  0  0  0
   -2.1450   -1.4110   -0.4300 C   0  0  1  0  0  0  0  0  0  0  0  0
   -2.5330   -1.9330    0.7990 O   0  0  0  0  0  0  0  0  0  0  0  0
   -3.0540   -0.2710   -0.7570 C   0  0  0  0  0  0  0  0  0  0  0  0
   -4.4240   -0.7400   -0.8270 N   0  0  0  0  0  0  0  0  0  0  0  0
   -5.1310   -1.2390   -1.9640 C   0  0  0  0  0  0  0  0  0  0  0  0
   -4.6560   -1.3520   -3.1310 O   0  0  0  0  0  0  0  0  0  0  0  0
   -6.4580   -1.5890   -1.5810 N   0  0  0  0  0  0  0  0  0  0  0  0
   -6.6900   -0.9830   -0.3030 C   0  0  2  0  0  0  0  0  0  0  0  0
   -7.6050   -1.7950    0.5780 C   0  0  0  0  0  0  0  0  0  0  0  0
   -8.9480   -1.5900   -0.1120 C   0  0  0  0  0  0  0  0  0  0  0  0
   -8.8750   -0.1690   -0.6550 C   0  0  0  0  0  0  0  0  0  0  0  0
   -7.4560    0.2840   -0.5000 C   0  0  1  0  0  0  0  0  0  0  0  0
   -7.2960    1.2320    0.6740 C   0  0  0  0  0  0  0  0  0  0  0  0
   -8.2590    2.7360    0.3430 S   0  0  0  0  0  0  0  0  0  0  0  0
   -5.3530   -0.7980    0.2530 C   0  0  0  0  0  0  0  0  0  0  0  0
   -5.0350   -0.7000    1.4850 O   0  0  0  0  0  0  0  0  0  0  0  0
    1.7350    0.0950    0.4030 C   0  0  0  0  0  0  0  0  0  0  0  0
    8.8750   -0.6160   -1.1790 C   0  0  0  0  0  0  0  0  0  0  0  0
   10.2050   -0.2820   -1.1040 C   0  0  0  0  0  0  0  0  0  0  0  0
   11.4140   -1.2000   -2.0040 Cl  0  0  0  0  0  0  0  0  0  0  0  0
  1  2  1  0
  2  3  2  0
  2 38  1  0
  3  4  1  0
  4  5  2  0
  5  6  1  0
  5 37  1  0
  6  7  2  0
  6  8  1  0
  8  9  1  0
  9 10  1  0
 10 11  2  0
 10 36  1  0
 11 12  1  0
 11 13  1  0
 13 14  2  0
 13 15  1  0
 15 16  2  0
 15 17  1  0
 17 18  1  0
 17 36  2  0
 18 19  1  0
 19 20  1  0
 20 21  1  1
 20 22  1  0
 22 23  1  0
 23 24  1  0
 23 34  1  0
 24 25  2  0
 24 26  1  0
 26 27  1  0
 27 28  1  1
 27 31  1  0
 27 34  1  0
 28 29  1  0
 29 30  1  0
 30 31  1  0
 31 32  1  1
 32 33  1  0
 34 35  2  0
 37 38  2  0
 38 39  1  0
M  END
