
     RDKit          3D

 40 42  0  0  0  0  0  0  0  0999 V2000
   -1.1740   -3.6970    1.3250 C   0  0  0  0  0  0  0  0  0  0  0  0
   -1.9020   -2.4120    0.8990 C   0  0  1  0  0  0  0  0  0  0  0  0
   -1.8550   -1.4960    2.0610 C   0  0  0  0  0  0  0  0  0  0  0  0
   -0.6220   -1.0900    2.5230 O   0  0  0  0  0  0  0  0  0  0  0  0
   -1.3880   -1.9650   -0.3780 N   0  0  0  0  0  0  0  0  0  0  0  0
   -0.0590   -1.5190   -0.4780 C   0  0  0  0  0  0  0  0  0  0  0  0
    0.6300   -1.4260    0.6190 O   0  0  0  0  0  0  0  0  0  0  0  0
    0.7140   -1.1220   -1.6540 C   0  0  0  0  0  0  0  0  0  0  0  0
    0.4330   -1.6170   -2.9110 C   0  0  0  0  0  0  0  0  0  0  0  0
    1.3210   -1.3630   -3.9510 C   0  0  0  0  0  0  0  0  0  0  0  0
    2.4580   -0.6380   -3.7480 C   0  0  0  0  0  0  0  0  0  0  0  0
    2.7400   -0.1390   -2.4730 C   0  0  0  0  0  0  0  0  0  0  0  0
    1.8860   -0.3670   -1.4190 C   0  0  0  0  0  0  0  0  0  0  0  0
    2.1100    0.2590   -0.1610 N   0  0  0  0  0  0  0  0  0  0  0  0
    3.3980    0.6760    0.2480 C   0  0  0  0  0  0  0  0  0  0  0  0
    4.4440    0.5400   -0.4150 O   0  0  0  0  0  0  0  0  0  0  0  0
    3.5890    1.3490    1.5890 C   0  0  0  0  0  0  0  0  0  0  0  0
    5.2870    1.7750    1.8860 S   0  0  0  0  0  0  0  0  0  0  0  0
    5.4320    2.3110    3.2850 O   0  0  0  0  0  0  0  0  0  0  0  0
    5.9360    2.9070    0.6470 C   0  0  0  0  0  0  0  0  0  0  0  0
    7.3620    3.2380    0.9310 C   0  0  0  0  0  0  0  0  0  0  0  0
    8.3030    2.0920    0.9450 C   0  0  2  0  0  0  0  0  0  0  0  0
    8.4270    1.3040   -0.2890 C   0  0  0  0  0  0  0  0  0  0  0  0
    8.9480   -0.0200    0.1600 C   0  0  0  0  0  0  0  0  0  0  0  0
    8.6600    0.0060    1.6460 C   0  0  0  0  0  0  0  0  0  0  0  0
    7.8780    1.1320    1.8870 O   0  0  0  0  0  0  0  0  0  0  0  0
   -2.3530   -1.9220   -1.4530 C   0  0  1  0  0  0  0  0  0  0  0  0
   -2.6520   -3.3920   -1.8990 C   0  0  0  0  0  0  0  0  0  0  0  0
   -3.6790   -1.3880   -1.1250 C   0  0  0  0  0  0  0  0  0  0  0  0
   -4.5080   -1.3630   -2.1150 O   0  0  0  0  0  0  0  0  0  0  0  0
   -4.1820   -0.9170    0.0380 O   0  0  0  0  0  0  0  0  0  0  0  0
   -5.5000   -0.4410    0.1420 C   0  0  1  0  0  0  0  0  0  0  0  0
   -6.5250   -1.4940   -0.2210 C   0  0  0  0  0  0  0  0  0  0  0  0
   -5.7100   -0.1320    1.6090 C   0  0  0  0  0  0  0  0  0  0  0  0
   -5.7780    1.3400    1.9090 C   0  0  1  0  0  0  0  0  0  0  0  0
   -4.5720    2.0010    1.7730 O   0  0  0  0  0  0  0  0  0  0  0  0
   -6.8750    1.9780    1.0900 C   0  0  0  0  0  0  0  0  0  0  0  0
   -6.7150    1.7240   -0.3620 C   0  0  1  0  0  0  0  0  0  0  0  0
   -6.3310    3.0560   -1.0210 C   0  0  0  0  0  0  0  0  0  0  0  0
   -5.6720    0.7290   -0.7530 C   0  0  0  0  0  0  0  0  0  0  0  0
  2  1  1  1
  2  3  1  0
  2  5  1  0
  3  4  1  0
  5  6  1  0
  5 27  1  0
  6  7  2  0
  6  8  1  0
  8  9  2  0
  8 13  1  0
  9 10  1  0
 10 11  2  0
 11 12  1  0
 12 13  2  0
 13 14  1  0
 14 15  1  0
 15 16  2  0
 15 17  1  0
 18 17  1  6
 18 19  2  0
 18 20  1  0
 20 21  1  0
 22 21  1  6
 22 23  1  0
 22 26  1  0
 23 24  1  0
 24 25  1  0
 25 26  1  0
 27 28  1  1
 27 29  1  0
 29 30  2  0
 29 31  1  0
 31 32  1  0
 32 33  1  6
 32 34  1  0
 32 40  1  0
 34 35  1  0
 35 36  1  6
 35 37  1  0
 37 38  1  0
 38 39  1  6
 38 40  1  0
M  END
