
     RDKit          3D

 40 44  0  0  0  0  0  0  0  0999 V2000
   -2.4680   -4.1910   -0.4880 C   0  0  0  0  0  0  0  0  0  0  0  0
   -3.4690   -3.9030    0.3540 C   0  0  0  0  0  0  0  0  0  0  0  0
   -4.6430   -3.1370   -0.1130 C   0  0  0  0  0  0  0  0  0  0  0  0
   -4.8470   -1.8130    0.5940 C   0  0  1  0  0  0  0  0  0  0  0  0
   -5.0530   -1.9380    2.0620 C   0  0  0  0  0  0  0  0  0  0  0  0
   -3.7700   -2.0470    2.7780 C   0  0  0  0  0  0  0  0  0  0  0  0
   -3.5080   -2.8880    3.6790 O   0  0  0  0  0  0  0  0  0  0  0  0
   -2.7570   -1.0930    2.3860 N   0  0  0  0  0  0  0  0  0  0  0  0
   -2.8110   -0.5090    1.0940 C   0  0  0  0  0  0  0  0  0  0  0  0
   -3.7810   -0.8470    0.2720 C   0  0  0  0  0  0  0  0  0  0  0  0
   -3.9910   -0.3370   -1.1100 C   0  0  0  0  0  0  0  0  0  0  0  0
   -3.5190    0.7560   -1.6490 N   0  0  0  0  0  0  0  0  0  0  0  0
   -2.6840    1.7330   -1.0420 N   0  0  0  0  0  0  0  0  0  0  0  0
   -2.8550    3.0830   -1.4140 C   0  0  0  0  0  0  0  0  0  0  0  0
   -3.0660    3.4950   -2.7090 C   0  0  0  0  0  0  0  0  0  0  0  0
   -3.2610    4.8200   -3.0460 C   0  0  0  0  0  0  0  0  0  0  0  0
   -3.2470    5.7710   -2.0710 C   0  0  0  0  0  0  0  0  0  0  0  0
   -3.4380    7.0890   -2.3880 F   0  0  0  0  0  0  0  0  0  0  0  0
   -3.0390    5.3990   -0.7600 C   0  0  0  0  0  0  0  0  0  0  0  0
   -2.8430    4.0500   -0.4360 C   0  0  0  0  0  0  0  0  0  0  0  0
   -1.6720    1.4070   -0.0990 C   0  0  0  0  0  0  0  0  0  0  0  0
   -0.4340    2.2050   -0.1660 C   0  0  0  0  0  0  0  0  0  0  0  0
    0.2520    2.0810   -1.5090 C   0  0  0  0  0  0  0  0  0  0  0  0
    1.4870    2.9330   -1.5070 C   0  0  0  0  0  0  0  0  0  0  0  0
    2.5100    2.5960   -0.4770 C   0  0  0  0  0  0  0  0  0  0  0  0
    3.0410    1.2240   -0.6310 C   0  0  0  0  0  0  0  0  0  0  0  0
    2.7040    0.5010   -1.5780 O   0  0  0  0  0  0  0  0  0  0  0  0
    3.9500    0.7600    0.3430 N   0  0  0  0  0  0  0  0  0  0  0  0
    4.5690   -0.5090    0.3880 C   0  0  0  0  0  0  0  0  0  0  0  0
    4.2230   -1.5760   -0.3930 C   0  0  0  0  0  0  0  0  0  0  0  0
    4.9000   -2.8080   -0.3010 C   0  0  0  0  0  0  0  0  0  0  0  0
    5.9390   -2.9890    0.5800 C   0  0  0  0  0  0  0  0  0  0  0  0
    6.2750   -1.9060    1.3590 C   0  0  0  0  0  0  0  0  0  0  0  0
    5.6260   -0.7000    1.2820 C   0  0  0  0  0  0  0  0  0  0  0  0
    7.3380   -2.0840    2.2640 O   0  0  0  0  0  0  0  0  0  0  0  0
    8.0010   -3.2840    2.3560 C   0  0  0  0  0  0  0  0  0  0  0  0
    8.6620   -3.6010    3.4010 O   0  0  0  0  0  0  0  0  0  0  0  0
    7.9420   -4.2290    1.2070 C   0  0  0  0  0  0  0  0  0  0  0  0
    6.6120   -4.2040    0.6750 O   0  0  0  0  0  0  0  0  0  0  0  0
   -1.7240    0.4510    0.8140 C   0  0  0  0  0  0  0  0  0  0  0  0
  1  2  2  0
  2  3  1  0
  4  3  1  1
  4  5  1  0
  4 10  1  0
  5  6  1  0
  6  7  2  0
  6  8  1  0
  8  9  1  0
  9 10  2  0
  9 40  1  0
 10 11  1  0
 11 12  2  0
 12 13  1  0
 13 14  1  0
 13 21  1  0
 14 15  2  0
 14 20  1  0
 15 16  1  0
 16 17  2  0
 17 18  1  0
 17 19  1  0
 19 20  2  0
 21 22  1  0
 21 40  2  0
 22 23  1  0
 23 24  1  0
 24 25  1  0
 25 26  1  0
 26 27  2  0
 26 28  1  0
 28 29  1  0
 29 30  2  0
 29 34  1  0
 30 31  1  0
 31 32  2  0
 32 33  1  0
 32 39  1  0
 33 34  2  0
 33 35  1  0
 35 36  1  0
 36 37  2  0
 36 38  1  0
 38 39  1  0
M  END
