
     RDKit          3D

 40 44  0  0  0  0  0  0  0  0999 V2000
    7.0120    1.3480   -2.0590 C   0  0  0  0  0  0  0  0  0  0  0  0
    5.9280    1.6710   -1.2450 O   0  0  0  0  0  0  0  0  0  0  0  0
    5.1560    0.7380   -0.5390 C   0  0  0  0  0  0  0  0  0  0  0  0
    5.5710   -0.4590   -0.7360 O   0  0  0  0  0  0  0  0  0  0  0  0
    4.0380    1.0670    0.3070 C   0  0  0  0  0  0  0  0  0  0  0  0
    3.3600    0.1740    1.0140 C   0  0  0  0  0  0  0  0  0  0  0  0
    3.6610   -1.2350    1.0320 C   0  0  0  0  0  0  0  0  0  0  0  0
    4.8680   -1.7490    1.4610 C   0  0  0  0  0  0  0  0  0  0  0  0
    5.1270   -3.1010    1.4410 C   0  0  0  0  0  0  0  0  0  0  0  0
    6.2030   -3.8810    1.7930 C   0  0  0  0  0  0  0  0  0  0  0  0
    5.9110   -5.2140    1.5580 C   0  0  0  0  0  0  0  0  0  0  0  0
    4.6390   -5.2300    1.0560 N   0  0  0  0  0  0  0  0  0  0  0  0
    4.1740   -3.9830    0.9860 C   0  0  0  0  0  0  0  0  0  0  0  0
    2.9410   -3.4880    0.5460 C   0  0  0  0  0  0  0  0  0  0  0  0
    2.6840   -2.1350    0.5670 C   0  0  0  0  0  0  0  0  0  0  0  0
    1.4650   -1.5510    0.1360 N   0  0  0  0  0  0  0  0  0  0  0  0
    0.3340   -2.2310   -0.3720 C   0  0  0  0  0  0  0  0  0  0  0  0
    0.3430   -3.4750   -0.4830 O   0  0  0  0  0  0  0  0  0  0  0  0
   -0.9110   -1.4890   -0.7960 C   0  0  2  0  0  0  0  0  0  0  0  0
   -1.0320   -1.6110   -2.3010 C   0  0  0  0  0  0  0  0  0  0  0  0
   -0.9060   -0.1610   -0.3300 N   0  0  0  0  0  0  0  0  0  0  0  0
   -0.9570   -0.0730    1.0790 C   0  0  0  0  0  0  0  0  0  0  0  0
   -2.2910    0.1720    1.7000 C   0  0  0  0  0  0  0  0  0  0  0  0
   -3.1320    0.9440    0.7940 N   0  0  0  0  0  0  0  0  0  0  0  0
   -4.5360    0.9360    0.9130 C   0  0  0  0  0  0  0  0  0  0  0  0
   -5.0880    0.4020    2.0760 C   0  0  0  0  0  0  0  0  0  0  0  0
   -6.4450    0.3600    2.2390 C   0  0  0  0  0  0  0  0  0  0  0  0
   -7.3290    0.8340    1.2800 C   0  0  0  0  0  0  0  0  0  0  0  0
   -6.7820    1.3610    0.1330 C   0  0  0  0  0  0  0  0  0  0  0  0
   -5.3940    1.4110   -0.0490 C   0  0  0  0  0  0  0  0  0  0  0  0
   -7.6300    1.8460   -0.8500 O   0  0  0  0  0  0  0  0  0  0  0  0
   -9.0160    1.5480   -0.8520 C   0  0  0  0  0  0  0  0  0  0  0  0
   -9.5800    1.5400    0.5530 C   0  0  0  0  0  0  0  0  0  0  0  0
   -8.7010    0.8080    1.4100 O   0  0  0  0  0  0  0  0  0  0  0  0
   -2.4620    1.7120   -0.2050 C   0  0  0  0  0  0  0  0  0  0  0  0
   -1.5770    0.8290   -1.0810 C   0  0  0  0  0  0  0  0  0  0  0  0
    3.6300    2.5020    0.4520 C   0  0  0  0  0  0  0  0  0  0  0  0
    2.8230    3.0340   -0.6640 C   0  0  0  0  0  0  0  0  0  0  0  0
    3.4160    3.1270   -2.0130 C   0  0  0  0  0  0  0  0  0  0  0  0
    4.4850    4.0030   -2.0110 F   0  0  0  0  0  0  0  0  0  0  0  0
  1  2  1  0
  2  3  1  0
  3  4  2  0
  3  5  1  0
  5  6  2  3
  5 37  1  0
  6  7  1  0
  7  8  2  0
  7 15  1  0
  8  9  1  0
  9 10  1  0
  9 13  2  0
 10 11  2  0
 11 12  1  0
 12 13  1  0
 13 14  1  0
 14 15  2  0
 15 16  1  0
 16 17  1  0
 17 18  2  0
 17 19  1  0
 19 20  1  6
 19 21  1  0
 21 22  1  0
 21 36  1  0
 22 23  1  0
 23 24  1  0
 24 25  1  0
 24 35  1  0
 25 26  2  0
 25 30  1  0
 26 27  1  0
 27 28  2  0
 28 29  1  0
 28 34  1  0
 29 30  2  0
 29 31  1  0
 31 32  1  0
 32 33  1  0
 33 34  1  0
 35 36  1  0
 37 38  1  0
 38 39  1  0
 39 40  1  0
M  END
