
     RDKit          3D

 40 44  0  0  0  0  0  0  0  0999 V2000
   -6.7620   -4.9800    1.1370 C   0  0  0  0  0  0  0  0  0  0  0  0
   -6.1830   -3.8090    1.2410 C   0  0  0  0  0  0  0  0  0  0  0  0
   -4.9080   -3.4960    0.6160 C   0  0  0  0  0  0  0  0  0  0  0  0
   -4.3470   -4.4040   -0.1930 N   0  0  0  0  0  0  0  0  0  0  0  0
   -3.1300   -4.1620   -0.7720 C   0  0  0  0  0  0  0  0  0  0  0  0
   -2.6060   -5.0260   -1.5370 O   0  0  0  0  0  0  0  0  0  0  0  0
   -2.5290   -2.9670   -0.4850 C   0  0  0  0  0  0  0  0  0  0  0  0
   -3.0680   -1.9900    0.3480 C   0  0  0  0  0  0  0  0  0  0  0  0
   -2.3650   -0.8780    0.5400 O   0  0  0  0  0  0  0  0  0  0  0  0
   -2.4350    0.4300    0.2600 C   0  0  0  0  0  0  0  0  0  0  0  0
   -3.4070    1.0580   -0.4990 C   0  0  0  0  0  0  0  0  0  0  0  0
   -3.3810    2.4410   -0.7370 C   0  0  0  0  0  0  0  0  0  0  0  0
   -2.3880    3.2310   -0.2250 C   0  0  0  0  0  0  0  0  0  0  0  0
   -1.4090    2.6310    0.5370 C   0  0  0  0  0  0  0  0  0  0  0  0
   -1.4360    1.2770    0.7690 C   0  0  0  0  0  0  0  0  0  0  0  0
   -0.3950    0.6940    1.6090 C   0  0  0  0  0  0  0  0  0  0  0  0
    0.5820    0.0050    0.7940 N   0  0  0  0  0  0  0  0  0  0  0  0
    1.6720    0.5630    0.2350 C   0  0  0  0  0  0  0  0  0  0  0  0
    2.4120   -0.4240   -0.4130 C   0  0  0  0  0  0  0  0  0  0  0  0
    3.7350   -0.1890   -1.0630 C   0  0  0  0  0  0  0  0  0  0  0  0
    3.8580   -0.1240   -2.3000 O   0  0  0  0  0  0  0  0  0  0  0  0
    4.8610   -0.0290   -0.2250 N   0  0  0  0  0  0  0  0  0  0  0  0
    6.1620    0.1960   -0.6550 C   0  0  0  0  0  0  0  0  0  0  0  0
    6.6580    0.0020   -1.9230 C   0  0  0  0  0  0  0  0  0  0  0  0
    7.9900    0.2160   -2.2700 C   0  0  0  0  0  0  0  0  0  0  0  0
    8.4340    0.0050   -3.5360 F   0  0  0  0  0  0  0  0  0  0  0  0
    8.8540    0.6440   -1.2900 C   0  0  0  0  0  0  0  0  0  0  0  0
    8.4090    0.8560    0.0060 C   0  0  0  0  0  0  0  0  0  0  0  0
    7.0740    0.6320    0.3180 C   0  0  0  0  0  0  0  0  0  0  0  0
    6.5950    0.8340    1.5880 O   0  0  0  0  0  0  0  0  0  0  0  0
    7.3660    1.2720    2.6670 C   0  0  0  0  0  0  0  0  0  0  0  0
    1.7380   -1.5810   -0.2290 C   0  0  0  0  0  0  0  0  0  0  0  0
    2.1170   -2.9280   -0.7260 C   0  0  0  0  0  0  0  0  0  0  0  0
    0.6260   -1.2870    0.5100 N   0  0  0  0  0  0  0  0  0  0  0  0
   -2.5830    4.5750   -0.6050 O   0  0  0  0  0  0  0  0  0  0  0  0
   -3.5820    4.6290   -1.5740 C   0  0  2  0  0  0  0  0  0  0  0  0
   -4.5300    5.7490   -1.2060 C   0  0  0  0  0  0  0  0  0  0  0  0
   -4.2980    3.3060   -1.4940 C   0  0  0  0  0  0  0  0  0  0  0  0
   -4.2900   -2.2760    0.9050 C   0  0  0  0  0  0  0  0  0  0  0  0
   -4.9300   -1.2990    1.8280 C   0  0  0  0  0  0  0  0  0  0  0  0
  1  2  2  0
  2  3  1  0
  3  4  1  0
  3 39  2  0
  4  5  1  0
  5  6  2  0
  5  7  1  0
  7  8  2  0
  8  9  1  0
  8 39  1  0
  9 10  1  0
 10 11  2  0
 10 15  1  0
 11 12  1  0
 12 13  2  0
 12 38  1  0
 13 14  1  0
 13 35  1  0
 14 15  2  0
 15 16  1  0
 16 17  1  0
 17 18  1  0
 17 34  1  0
 18 19  2  0
 19 20  1  0
 19 32  1  0
 20 21  2  0
 20 22  1  0
 22 23  1  0
 23 24  2  0
 23 29  1  0
 24 25  1  0
 25 26  1  0
 25 27  2  0
 27 28  1  0
 28 29  2  0
 29 30  1  0
 30 31  1  0
 32 33  1  0
 32 34  2  0
 35 36  1  0
 36 37  1  1
 36 38  1  0
 39 40  1  0
M  END
