
     RDKit          3D

 40 44  0  0  0  0  0  0  0  0999 V2000
   -8.8490    0.1240    1.3690 C   0  0  0  0  0  0  0  0  0  0  0  0
   -8.8040   -0.8050    0.5750 C   0  0  0  0  0  0  0  0  0  0  0  0
   -7.7250   -1.3200   -0.2370 C   0  0  0  0  0  0  0  0  0  0  0  0
   -8.1080   -2.3210   -1.0950 C   0  0  0  0  0  0  0  0  0  0  0  0
   -9.4900   -2.7970   -1.1660 C   0  0  0  0  0  0  0  0  0  0  0  0
   -6.3440   -0.8860   -0.2780 C   0  0  0  0  0  0  0  0  0  0  0  0
   -5.6340   -0.9900   -1.4920 C   0  0  0  0  0  0  0  0  0  0  0  0
   -4.3080   -0.6950   -1.6280 C   0  0  0  0  0  0  0  0  0  0  0  0
   -3.6000   -0.2750   -0.5530 C   0  0  0  0  0  0  0  0  0  0  0  0
   -2.2230    0.0760   -0.5920 O   0  0  0  0  0  0  0  0  0  0  0  0
   -1.9110    1.3950   -0.9180 C   0  0  0  0  0  0  0  0  0  0  0  0
   -2.9120    2.1520   -1.1580 O   0  0  0  0  0  0  0  0  0  0  0  0
   -0.5970    2.0190   -1.0190 C   0  0  1  0  0  0  0  0  0  0  0  0
   -0.5030    3.2940   -0.2210 C   0  0  0  0  0  0  0  0  0  0  0  0
    0.4460    2.9310    0.9120 C   0  0  0  0  0  0  0  0  0  0  0  0
    1.3590    1.9010    0.2890 C   0  0  0  0  0  0  0  0  0  0  0  0
    0.5330    1.2400   -0.6660 N   0  0  0  0  0  0  0  0  0  0  0  0
    0.8670   -0.0510   -1.2390 C   0  0  0  0  0  0  0  0  0  0  0  0
    0.0620   -0.6190   -2.0210 O   0  0  0  0  0  0  0  0  0  0  0  0
    2.1220   -0.6910   -0.9220 N   0  0  0  0  0  0  0  0  0  0  0  0
    2.5160   -1.9350   -1.4480 C   0  0  0  0  0  0  0  0  0  0  0  0
    3.8950   -2.4400   -1.1450 C   0  0  0  0  0  0  0  0  0  0  0  0
    4.2550   -2.5230    0.2560 C   0  0  0  0  0  0  0  0  0  0  0  0
    3.9960   -3.6620    0.9800 N   0  0  0  0  0  0  0  0  0  0  0  0
    4.3520   -3.4740    2.2240 N   0  0  0  0  0  0  0  0  0  0  0  0
    4.8590   -2.2340    2.4030 C   0  0  0  0  0  0  0  0  0  0  0  0
    4.7930   -1.6370    1.1360 C   0  0  0  0  0  0  0  0  0  0  0  0
    5.3290   -0.2780    0.9500 C   0  0  0  0  0  0  0  0  0  0  0  0
    5.2900    0.3090   -0.2860 C   0  0  0  0  0  0  0  0  0  0  0  0
    5.8240    1.5960   -0.4510 C   0  0  0  0  0  0  0  0  0  0  0  0
    5.8230    2.2570   -1.6570 O   0  0  0  0  0  0  0  0  0  0  0  0
    6.3950    3.5480   -1.7340 C   0  0  0  0  0  0  0  0  0  0  0  0
    6.3720    2.2180    0.6530 C   0  0  0  0  0  0  0  0  0  0  0  0
    6.4100    1.6290    1.8830 C   0  0  0  0  0  0  0  0  0  0  0  0
    5.8750    0.3390    2.0520 C   0  0  0  0  0  0  0  0  0  0  0  0
    5.9080   -0.2580    3.2770 O   0  0  0  0  0  0  0  0  0  0  0  0
    5.3790   -1.5000    3.5500 C   0  0  0  0  0  0  0  0  0  0  0  0
   -4.2280   -0.1580    0.6510 C   0  0  0  0  0  0  0  0  0  0  0  0
   -3.5190    0.2680    1.7540 F   0  0  0  0  0  0  0  0  0  0  0  0
   -5.5890   -0.4630    0.7910 C   0  0  0  0  0  0  0  0  0  0  0  0
  1  2  2  0
  2  3  1  0
  3  4  2  3
  3  6  1  0
  4  5  1  0
  6  7  2  0
  6 40  1  0
  7  8  1  0
  8  9  2  0
  9 10  1  0
  9 38  1  0
 10 11  1  0
 11 12  2  0
 13 11  1  1
 13 14  1  0
 13 17  1  0
 14 15  1  0
 15 16  1  0
 16 17  1  0
 17 18  1  0
 18 19  2  0
 18 20  1  0
 20 21  1  0
 21 22  1  0
 22 23  1  0
 23 24  2  0
 23 27  1  0
 24 25  1  0
 25 26  1  0
 26 27  2  0
 26 37  1  0
 27 28  1  0
 28 29  2  0
 28 35  1  0
 29 30  1  0
 30 31  1  0
 30 33  2  0
 31 32  1  0
 33 34  1  0
 34 35  2  0
 35 36  1  0
 36 37  1  0
 38 39  1  0
 38 40  2  0
M  END
