
     RDKit          3D

 40 43  0  0  0  0  0  0  0  0999 V2000
    1.8840    2.7510   -2.1900 C   0  0  0  0  0  0  0  0  0  0  0  0
    1.8030    3.2990   -0.9080 O   0  0  0  0  0  0  0  0  0  0  0  0
    2.1950    2.2220    0.0290 C   0  0  0  0  0  0  0  0  0  0  0  0
    1.1710    1.1450   -0.2420 C   0  0  0  0  0  0  0  0  0  0  0  0
    1.4550   -0.0690   -0.6180 C   0  0  0  0  0  0  0  0  0  0  0  0
    2.7800   -0.5800   -0.7950 C   0  0  0  0  0  0  0  0  0  0  0  0
    2.9950   -1.7750   -1.3920 C   0  0  0  0  0  0  0  0  0  0  0  0
    4.2800   -2.3830   -1.6510 C   0  0  0  0  0  0  0  0  0  0  0  0
    5.4440   -1.8570   -1.3630 C   0  0  0  0  0  0  0  0  0  0  0  0
    5.5490   -0.5570   -0.7410 N   0  0  0  0  0  0  0  0  0  0  0  0
    6.6510    0.2790   -0.9720 C   0  0  0  0  0  0  0  0  0  0  0  0
    7.8160   -0.0110   -0.0570 C   0  0  1  0  0  0  0  0  0  0  0  0
    8.8870    0.8650   -0.4050 O   0  0  0  0  0  0  0  0  0  0  0  0
    7.4210    0.2530    1.3680 C   0  0  0  0  0  0  0  0  0  0  0  0
    8.4910   -0.0140    2.3840 C   0  0  0  0  0  0  0  0  0  0  0  0
    9.7330    0.7820    2.2420 C   0  0  0  0  0  0  0  0  0  0  0  0
   10.5810    0.4030    3.3110 O   0  0  0  0  0  0  0  0  0  0  0  0
    4.1820   -0.1730    0.2290 S   0  0  2  0  0  0  0  0  0  0  0  0
    4.1190   -1.3480    1.3460 O   0  0  0  0  0  0  0  0  0  0  0  0
    4.2450    0.9810    1.0390 O   0  0  0  0  0  0  0  0  0  0  0  0
    0.3650   -1.0090   -0.8460 N   0  0  0  0  0  0  0  0  0  0  0  0
   -0.9880   -0.6310   -0.6680 C   0  0  0  0  0  0  0  0  0  0  0  0
   -1.9700   -1.4850   -0.9220 C   0  0  0  0  0  0  0  0  0  0  0  0
   -1.5380   -2.8540   -1.4130 C   0  0  0  0  0  0  0  0  0  0  0  0
   -3.3840   -1.2390   -0.6990 C   0  0  0  0  0  0  0  0  0  0  0  0
   -3.9330   -0.9160    0.5270 C   0  0  0  0  0  0  0  0  0  0  0  0
   -5.2840   -0.6600    0.6970 C   0  0  0  0  0  0  0  0  0  0  0  0
   -6.1610   -0.7170   -0.3620 C   0  0  0  0  0  0  0  0  0  0  0  0
   -7.5980   -0.4400   -0.1590 C   0  0  1  0  0  0  0  0  0  0  0  0
   -8.1920   -1.5370    0.7250 C   0  0  0  0  0  0  0  0  0  0  0  0
   -9.6350   -1.2380    1.0590 C   0  0  0  0  0  0  0  0  0  0  0  0
   -9.9990    0.0710    0.6950 O   0  0  0  0  0  0  0  0  0  0  0  0
   -9.0920    0.9260    1.3120 C   0  0  2  0  0  0  0  0  0  0  0  0
   -9.5580    2.3430    1.3840 C   0  0  0  0  0  0  0  0  0  0  0  0
   -7.8060    0.8930    0.4850 C   0  0  0  0  0  0  0  0  0  0  0  0
   -5.6210   -1.0400   -1.5860 C   0  0  0  0  0  0  0  0  0  0  0  0
   -4.2860   -1.2960   -1.7750 C   0  0  0  0  0  0  0  0  0  0  0  0
   -1.2320    0.7370   -0.2500 C   0  0  0  0  0  0  0  0  0  0  0  0
   -2.4260    1.1690   -0.0690 O   0  0  0  0  0  0  0  0  0  0  0  0
   -0.1580    1.5650   -0.0530 O   0  0  0  0  0  0  0  0  0  0  0  0
  1  2  1  0
  2  3  1  0
  3  4  1  0
  4  5  2  0
  4 40  1  0
  5  6  1  0
  5 21  1  0
  6  7  2  0
  6 18  1  0
  7  8  1  0
  8  9  2  0
  9 10  1  0
 10 11  1  0
 18 10  1  6
 11 12  1  0
 12 13  1  6
 12 14  1  0
 14 15  1  0
 15 16  1  0
 16 17  1  0
 18 19  2  0
 18 20  2  0
 21 22  1  0
 22 23  2  3
 22 38  1  0
 23 24  1  0
 23 25  1  0
 25 26  2  0
 25 37  1  0
 26 27  1  0
 27 28  2  0
 29 28  1  1
 28 36  1  0
 29 30  1  0
 29 35  1  0
 30 31  1  0
 31 32  1  0
 32 33  1  0
 33 34  1  6
 33 35  1  0
 36 37  2  0
 38 39  2  0
 38 40  1  0
M  END
