
     RDKit          3D

 40 43  0  0  0  0  0  0  0  0999 V2000
    4.5280   -2.8750    2.8840 C   0  0  0  0  0  0  0  0  0  0  0  0
    5.6610   -3.3300    2.2370 O   0  0  0  0  0  0  0  0  0  0  0  0
    6.6040   -2.3350    2.1390 C   0  0  0  0  0  0  0  0  0  0  0  0
    6.0530   -1.1790    1.3490 C   0  0  0  0  0  0  0  0  0  0  0  0
    7.1200   -0.0870    1.2300 C   0  0  0  0  0  0  0  0  0  0  0  0
    6.4680    1.2600    0.2960 S   0  0  0  0  0  0  0  0  0  0  0  0
    7.5660    2.2810    0.0380 O   0  0  0  0  0  0  0  0  0  0  0  0
    5.0340    2.0420    0.9780 C   0  0  2  0  0  0  0  0  0  0  0  0
    5.3360    2.6110    2.3710 C   0  0  0  0  0  0  0  0  0  0  0  0
    3.8350    1.2090    1.0780 C   0  0  0  0  0  0  0  0  0  0  0  0
    3.2460    1.1160    2.2080 O   0  0  0  0  0  0  0  0  0  0  0  0
    3.2680    0.4890    0.0090 N   0  0  0  0  0  0  0  0  0  0  0  0
    2.0900   -0.3380    0.0520 C   0  0  0  0  0  0  0  0  0  0  0  0
    0.9230    0.5220    0.4470 C   0  0  1  0  0  0  0  0  0  0  0  0
    0.8270    1.5460   -0.5570 O   0  0  0  0  0  0  0  0  0  0  0  0
    0.9620    2.8580   -0.1590 C   0  0  0  0  0  0  0  0  0  0  0  0
    1.1620    3.0990    1.0520 O   0  0  0  0  0  0  0  0  0  0  0  0
    0.8730    3.9470   -1.1240 C   0  0  0  0  0  0  0  0  0  0  0  0
    0.6600    3.8600   -2.4740 C   0  0  0  0  0  0  0  0  0  0  0  0
    0.6510    5.1240   -2.9850 C   0  0  0  0  0  0  0  0  0  0  0  0
    0.8640    5.9650   -1.9100 C   0  0  0  0  0  0  0  0  0  0  0  0
    0.9390    7.4470   -1.9600 C   0  0  0  0  0  0  0  0  0  0  0  0
    0.9880    5.2280   -0.8420 O   0  0  0  0  0  0  0  0  0  0  0  0
   -0.3470   -0.2480    0.5170 C   0  0  0  0  0  0  0  0  0  0  0  0
   -0.4110   -1.1700    1.3610 O   0  0  0  0  0  0  0  0  0  0  0  0
   -1.4730    0.0010   -0.3070 N   0  0  0  0  0  0  0  0  0  0  0  0
   -2.6480   -0.8320   -0.1250 C   0  0  2  0  0  0  0  0  0  0  0  0
   -2.7620   -1.6810   -1.4000 C   0  0  0  0  0  0  0  0  0  0  0  0
   -3.6960   -2.8350   -1.0040 C   0  0  0  0  0  0  0  0  0  0  0  0
   -5.0140   -2.1810   -0.7280 C   0  0  0  0  0  0  0  0  0  0  0  0
   -5.0960   -0.8870   -0.2510 C   0  0  0  0  0  0  0  0  0  0  0  0
   -6.3770   -0.5810   -0.1040 O   0  0  0  0  0  0  0  0  0  0  0  0
   -7.1360   -1.5700   -0.4470 C   0  0  0  0  0  0  0  0  0  0  0  0
   -8.5090   -1.7170   -0.4650 C   0  0  0  0  0  0  0  0  0  0  0  0
   -9.0490   -2.9120   -0.8890 C   0  0  0  0  0  0  0  0  0  0  0  0
   -8.2430   -3.9580   -1.2940 C   0  0  0  0  0  0  0  0  0  0  0  0
   -8.7650   -5.2650   -1.7580 C   0  0  0  0  0  0  0  0  0  0  0  0
   -6.8640   -3.8070   -1.2750 C   0  0  0  0  0  0  0  0  0  0  0  0
   -6.3080   -2.6210   -0.8550 C   0  0  0  0  0  0  0  0  0  0  0  0
   -3.9020   -0.0420    0.0280 C   0  0  0  0  0  0  0  0  0  0  0  0
  1  2  1  0
  2  3  1  0
  3  4  1  0
  4  5  1  0
  6  5  1  1
  6  7  2  0
  6  8  1  0
  8  9  1  1
  8 10  1  0
 10 11  2  0
 10 12  1  0
 12 13  1  0
 14 13  1  6
 14 15  1  0
 14 24  1  0
 15 16  1  0
 16 17  2  0
 16 18  1  0
 18 19  2  0
 18 23  1  0
 19 20  1  0
 20 21  2  0
 21 22  1  0
 21 23  1  0
 24 25  2  0
 24 26  1  0
 27 26  1  6
 27 28  1  0
 27 40  1  0
 28 29  1  0
 29 30  1  0
 30 31  2  0
 30 39  1  0
 31 32  1  0
 31 40  1  0
 32 33  1  0
 33 34  2  0
 33 39  1  0
 34 35  1  0
 35 36  2  0
 36 37  1  0
 36 38  1  0
 38 39  2  0
M  END
