
     RDKit          3D

 41 45  0  0  0  0  0  0  0  0999 V2000
    4.1660    0.6120    2.6340 C   0  0  0  0  0  0  0  0  0  0  0  0
    3.1540    0.4700    1.5520 C   0  0  1  0  0  0  0  0  0  0  0  0
    3.6800    0.5610    0.1840 C   0  0  0  0  0  0  0  0  0  0  0  0
    4.7030   -0.3410   -0.2880 C   0  0  0  0  0  0  0  0  0  0  0  0
    5.3460   -1.2210    0.3090 O   0  0  0  0  0  0  0  0  0  0  0  0
    5.0230   -0.1970   -1.6610 O   0  0  0  0  0  0  0  0  0  0  0  0
    5.9770   -0.9450   -2.3100 C   0  0  0  0  0  0  0  0  0  0  0  0
    7.3950   -0.7180   -1.8860 C   0  0  0  0  0  0  0  0  0  0  0  0
    7.7070    0.1440   -0.9710 C   0  0  0  0  0  0  0  0  0  0  0  0
    9.0250    0.4960   -0.4300 C   0  0  2  0  0  0  0  0  0  0  0  0
    9.2260    1.8670   -0.6790 O   0  0  0  0  0  0  0  0  0  0  0  0
   10.3860   -0.4120   -1.1850 S   0  0  0  0  0  0  0  0  0  0  0  0
    9.6700   -1.5130   -2.3940 C   0  0  0  0  0  0  0  0  0  0  0  0
    8.3860   -1.5450   -2.5950 C   0  0  0  0  0  0  0  0  0  0  0  0
    2.0920   -0.4840    1.8040 N   0  0  0  0  0  0  0  0  0  0  0  0
    0.7470   -0.0300    2.0200 C   0  0  0  0  0  0  0  0  0  0  0  0
   -0.1740   -0.8090    2.2420 O   0  0  0  0  0  0  0  0  0  0  0  0
    0.4780    1.4390    1.9720 C   0  0  0  0  0  0  0  0  0  0  0  0
   -0.9970    1.6560    2.2340 C   0  0  0  0  0  0  0  0  0  0  0  0
   -1.7500    0.9760    1.2250 N   0  0  0  0  0  0  0  0  0  0  0  0
   -3.1780    1.0200    1.2380 C   0  0  0  0  0  0  0  0  0  0  0  0
   -3.7880    1.6520    2.1290 O   0  0  0  0  0  0  0  0  0  0  0  0
   -3.9030    0.2970    0.1690 C   0  0  0  0  0  0  0  0  0  0  0  0
   -5.3860    0.4900    0.4070 C   0  0  2  0  0  0  0  0  0  0  0  0
   -6.2290   -0.1940   -0.6070 C   0  0  0  0  0  0  0  0  0  0  0  0
   -5.8380   -0.2800   -1.9250 C   0  0  0  0  0  0  0  0  0  0  0  0
   -6.6310   -0.9190   -2.8730 C   0  0  0  0  0  0  0  0  0  0  0  0
   -7.8330   -1.4860   -2.5200 C   0  0  0  0  0  0  0  0  0  0  0  0
   -8.2380   -1.4060   -1.1960 C   0  0  0  0  0  0  0  0  0  0  0  0
   -7.4350   -0.7640   -0.2610 C   0  0  0  0  0  0  0  0  0  0  0  0
   -9.4660   -2.0510   -1.1240 O   0  0  0  0  0  0  0  0  0  0  0  0
   -9.9980   -2.2240   -2.4240 C   0  0  0  0  0  0  0  0  0  0  0  0
   -8.8320   -2.1820   -3.2240 O   0  0  0  0  0  0  0  0  0  0  0  0
   -5.7310    1.9350    0.4790 C   0  0  0  0  0  0  0  0  0  0  0  0
   -5.4050    2.9840   -0.1070 N   0  0  0  0  0  0  0  0  0  0  0  0
   -5.8480    4.1670    0.1390 C   0  0  0  0  0  0  0  0  0  0  0  0
   -6.7680    4.3120    1.1400 C   0  0  0  0  0  0  0  0  0  0  0  0
   -6.9580    2.6140    1.7110 S   0  0  0  0  0  0  0  0  0  0  0  0
    2.3430   -1.9000    1.8610 C   0  0  1  0  0  0  0  0  0  0  0  0
    1.6170   -2.7910    2.8220 C   0  0  0  0  0  0  0  0  0  0  0  0
    1.2910   -2.9020    1.4010 C   0  0  0  0  0  0  0  0  0  0  0  0
  2  1  1  1
  2  3  1  0
  2 15  1  0
  3  4  1  0
  4  5  2  0
  4  6  1  0
  6  7  1  0
  7  8  1  0
  8  9  2  0
  8 14  1  0
  9 10  1  0
 10 11  1  6
 10 12  1  0
 12 13  1  0
 13 14  2  0
 15 16  1  0
 39 15  1  1
 16 17  2  0
 16 18  1  0
 18 19  1  0
 19 20  1  0
 20 21  1  0
 21 22  2  0
 21 23  1  0
 24 23  1  6
 24 25  1  0
 24 34  1  0
 25 26  2  0
 25 30  1  0
 26 27  1  0
 27 28  2  0
 28 29  1  0
 28 33  1  0
 29 30  2  0
 29 31  1  0
 31 32  1  0
 32 33  1  0
 34 35  2  0
 34 38  1  0
 35 36  1  0
 36 37  2  0
 37 38  1  0
 39 40  1  0
 39 41  1  0
 40 41  1  0
M  END
