
     RDKit          3D

 41 44  0  0  0  0  0  0  0  0999 V2000
    4.7560    2.8450   -4.6320 C   0  0  0  0  0  0  0  0  0  0  0  0
    4.3990    2.1750   -3.4440 O   0  0  0  0  0  0  0  0  0  0  0  0
    4.6570    0.8280   -3.2470 C   0  0  0  0  0  0  0  0  0  0  0  0
    5.2820    0.1580   -4.2580 C   0  0  0  0  0  0  0  0  0  0  0  0
    5.5660   -1.1900   -4.1180 C   0  0  0  0  0  0  0  0  0  0  0  0
    5.1900   -1.7860   -2.9340 C   0  0  0  0  0  0  0  0  0  0  0  0
    4.5500   -1.0870   -1.9050 C   0  0  0  0  0  0  0  0  0  0  0  0
    4.2710    0.2280   -2.0370 C   0  0  0  0  0  0  0  0  0  0  0  0
    3.6410    1.0280   -1.0830 N   0  0  0  0  0  0  0  0  0  0  0  0
    3.1710    0.6010    0.1730 C   0  0  0  0  0  0  0  0  0  0  0  0
    3.2860   -0.5840    0.5520 O   0  0  0  0  0  0  0  0  0  0  0  0
    2.5060    1.5420    1.1320 C   0  0  0  0  0  0  0  0  0  0  0  0
    2.1250    0.8370    2.3370 N   0  0  0  0  0  0  0  0  0  0  0  0
    3.0610    0.7950    3.4750 C   0  0  0  0  0  0  0  0  0  0  0  0
    2.7170    2.0170    4.3100 C   0  0  2  0  0  0  0  0  0  0  0  0
    3.6140    2.2120    5.4910 C   0  0  0  0  0  0  0  0  0  0  0  0
    2.5790    2.4400    6.6030 C   0  0  0  0  0  0  0  0  0  0  0  0
    1.4500    1.5620    6.0670 C   0  0  0  0  0  0  0  0  0  0  0  0
    1.4140    1.9440    4.7300 O   0  0  0  0  0  0  0  0  0  0  0  0
    0.9000    0.1730    2.5150 C   0  0  0  0  0  0  0  0  0  0  0  0
    0.6510   -0.4100    3.6200 O   0  0  0  0  0  0  0  0  0  0  0  0
   -0.1590    0.0840    1.5090 C   0  0  0  0  0  0  0  0  0  0  0  0
   -1.3730   -0.5210    1.5870 C   0  0  0  0  0  0  0  0  0  0  0  0
   -2.1810   -0.4750    0.5070 C   0  0  0  0  0  0  0  0  0  0  0  0
   -3.7630   -1.4180    0.5920 S   0  0  0  0  0  0  0  0  0  0  0  0
   -3.3510   -3.0930   -0.0370 C   0  0  0  0  0  0  0  0  0  0  0  0
   -2.3740   -3.7170    0.9680 C   0  0  1  0  0  0  0  0  0  0  0  0
   -2.9780   -3.8220    2.3320 C   0  0  0  0  0  0  0  0  0  0  0  0
   -1.9330   -5.0380    0.3870 C   0  0  0  0  0  0  0  0  0  0  0  0
   -3.0460   -5.8570    0.2070 O   0  0  0  0  0  0  0  0  0  0  0  0
   -1.8220    0.1440   -0.6140 C   0  0  0  0  0  0  0  0  0  0  0  0
   -2.3530    0.5160   -1.8850 C   0  0  0  0  0  0  0  0  0  0  0  0
   -1.4350    0.9530   -2.7260 O   0  0  0  0  0  0  0  0  0  0  0  0
   -3.6390    0.5030   -2.3820 N   0  0  0  0  0  0  0  0  0  0  0  0
   -3.7420    0.8970   -3.8300 C   0  0  0  0  0  0  0  0  0  0  0  0
   -4.9720    0.1790   -4.3340 C   0  0  0  0  0  0  0  0  0  0  0  0
   -6.0510    0.9270   -3.8230 O   0  0  0  0  0  0  0  0  0  0  0  0
   -5.9910    1.0870   -2.4860 C   0  0  2  0  0  0  0  0  0  0  0  0
   -5.8950    2.5040   -1.9900 C   0  0  0  0  0  0  0  0  0  0  0  0
   -4.9060    0.2490   -1.7760 C   0  0  0  0  0  0  0  0  0  0  0  0
   -0.1530    0.7340   -0.1150 S   0  0  0  0  0  0  0  0  0  0  0  0
  1  2  1  0
  2  3  1  0
  3  4  2  0
  3  8  1  0
  4  5  1  0
  5  6  2  0
  6  7  1  0
  7  8  2  0
  8  9  1  0
  9 10  1  0
 10 11  2  0
 10 12  1  0
 12 13  1  0
 13 14  1  0
 13 20  1  0
 15 14  1  1
 15 16  1  0
 15 19  1  0
 16 17  1  0
 17 18  1  0
 18 19  1  0
 20 21  2  0
 20 22  1  0
 22 23  2  0
 22 41  1  0
 23 24  1  0
 24 25  1  0
 24 31  2  0
 25 26  1  0
 26 27  1  0
 27 28  1  1
 27 29  1  0
 29 30  1  0
 31 32  1  0
 31 41  1  0
 32 33  2  0
 32 34  1  0
 34 35  1  0
 34 40  1  0
 35 36  1  0
 36 37  1  0
 37 38  1  0
 38 39  1  6
 38 40  1  0
M  END
