
     RDKit          3D

 41 45  0  0  0  0  0  0  0  0999 V2000
   -1.9810    2.8600    0.8420 C   0  0  0  0  0  0  0  0  0  0  0  0
   -1.4360    1.7640   -0.1260 C   0  0  0  0  0  0  0  0  0  0  0  0
   -2.1550    0.6730   -0.1200 O   0  0  0  0  0  0  0  0  0  0  0  0
   -2.8630   -0.4130   -0.1570 C   0  0  1  0  0  0  0  0  0  0  0  0
   -2.3370   -1.7380   -0.6670 C   0  0  0  0  0  0  0  0  0  0  0  0
   -3.5520   -2.5640   -1.1340 C   0  0  0  0  0  0  0  0  0  0  0  0
   -4.4300   -2.7960    0.0270 C   0  0  0  0  0  0  0  0  0  0  0  0
   -5.2920   -3.8300   -0.0470 C   0  0  0  0  0  0  0  0  0  0  0  0
   -5.5430   -4.8110   -1.0720 C   0  0  0  0  0  0  0  0  0  0  0  0
   -4.9990   -4.9290   -2.1820 O   0  0  0  0  0  0  0  0  0  0  0  0
   -6.6240   -5.6920   -0.5390 C   0  0  0  0  0  0  0  0  0  0  0  0
   -6.9080   -5.1490    0.7640 N   0  0  0  0  0  0  0  0  0  0  0  0
   -6.1860   -4.1300    1.0500 C   0  0  0  0  0  0  0  0  0  0  0  0
   -6.0870   -3.2750    2.1820 N   0  0  0  0  0  0  0  0  0  0  0  0
   -5.1790   -2.1940    2.2440 C   0  0  0  0  0  0  0  0  0  0  0  0
   -4.3680   -1.9310    1.2160 C   0  0  0  0  0  0  0  0  0  0  0  0
   -3.4380   -0.8110    1.2260 C   0  0  0  0  0  0  0  0  0  0  0  0
   -3.1380   -0.2320    2.2600 O   0  0  0  0  0  0  0  0  0  0  0  0
   -0.3620    2.0590   -0.8110 C   0  0  0  0  0  0  0  0  0  0  0  0
    0.3410    3.3560   -0.7070 C   0  0  0  0  0  0  0  0  0  0  0  0
    0.1270    4.3680   -0.0480 O   0  0  0  0  0  0  0  0  0  0  0  0
   -0.0900    5.3930    0.6310 C   0  0  1  0  0  0  0  0  0  0  0  0
    1.1600    6.3910    0.5380 C   0  0  0  0  0  0  0  0  0  0  0  0
    0.7980    7.0730   -0.7520 C   0  0  0  0  0  0  0  0  0  0  0  0
   -0.5570    6.9120   -0.9730 O   0  0  0  0  0  0  0  0  0  0  0  0
   -1.1270    6.4360    0.2180 C   0  0  0  0  0  0  0  0  0  0  0  0
    0.1350    1.0640   -1.8110 C   0  0  1  0  0  0  0  0  0  0  0  0
   -0.2850    1.7110   -3.1780 C   0  0  0  0  0  0  0  0  0  0  0  0
    1.5540    0.9100   -1.8290 N   0  0  0  0  0  0  0  0  0  0  0  0
    2.0990   -0.6790   -1.9610 S   0  0  1  0  0  0  0  0  0  0  0  0
    0.9750   -1.6960   -2.0810 O   0  0  0  0  0  0  0  0  0  0  0  0
    2.9770   -0.8170   -3.1990 O   0  0  0  0  0  0  0  0  0  0  0  0
    3.0520   -1.2520   -0.5870 C   0  0  0  0  0  0  0  0  0  0  0  0
    4.3200   -1.6240   -0.5440 C   0  0  0  0  0  0  0  0  0  0  0  0
    4.8720   -2.0600    0.6310 C   0  0  0  0  0  0  0  0  0  0  0  0
    6.3030   -2.5690    0.6230 C   0  0  1  0  0  0  0  0  0  0  0  0
    7.1170   -1.9220   -0.4920 C   0  0  0  0  0  0  0  0  0  0  0  0
    6.9810   -2.6910    1.9170 C   0  0  0  0  0  0  0  0  0  0  0  0
    4.0780   -2.0940    1.7120 C   0  0  0  0  0  0  0  0  0  0  0  0
    4.1830   -2.4720    3.1350 C   0  0  0  0  0  0  0  0  0  0  0  0
    2.4780   -1.4780    1.0310 S   0  0  0  0  0  0  0  0  0  0  0  0
  1  2  1  0
  2  3  1  0
  2 19  2  3
  4  3  1  1
  4  5  1  0
  4 17  1  0
  5  6  1  0
  6  7  1  0
  7  8  2  0
  7 16  1  0
  8  9  1  0
  8 13  1  0
  9 10  2  0
  9 11  1  0
 11 12  1  0
 12 13  2  0
 13 14  1  0
 14 15  1  0
 15 16  2  0
 16 17  1  0
 17 18  2  0
 19 20  1  0
 19 27  1  0
 20 21  1  0
 22 21  1  6
 22 23  1  0
 22 26  1  0
 23 24  1  0
 24 25  1  0
 25 26  1  0
 27 28  1  6
 27 29  1  0
 30 29  1  1
 30 31  2  0
 30 32  2  0
 30 33  1  0
 33 34  2  0
 33 41  1  0
 34 35  1  0
 35 36  1  0
 35 39  2  0
 36 37  1  6
 36 38  1  0
 39 40  1  0
 39 41  1  0
M  END
