
     RDKit          3D

 41 44  0  0  0  0  0  0  0  0999 V2000
   -6.8820   -0.9140   -2.7380 C   0  0  0  0  0  0  0  0  0  0  0  0
   -5.9320   -1.4180   -1.7220 C   0  0  2  0  0  0  0  0  0  0  0  0
   -6.6820   -2.1880   -0.2640 S   0  0  0  0  0  0  0  0  0  0  0  0
   -5.2600   -3.1600    0.3930 C   0  0  0  0  0  0  0  0  0  0  0  0
   -4.0060   -2.4930   -0.0930 C   0  0  0  0  0  0  0  0  0  0  0  0
   -4.0470   -1.0060   -0.1360 C   0  0  2  0  0  0  0  0  0  0  0  0
   -4.1760   -0.3350    1.1540 C   0  0  0  0  0  0  0  0  0  0  0  0
   -5.3560    0.0320    1.3840 O   0  0  0  0  0  0  0  0  0  0  0  0
   -3.2270   -0.0220    2.2090 C   0  0  1  0  0  0  0  0  0  0  0  0
   -3.5790   -0.6940    3.5350 C   0  0  0  0  0  0  0  0  0  0  0  0
   -1.8310   -0.1010    1.9280 N   0  0  0  0  0  0  0  0  0  0  0  0
   -1.1250   -1.3160    1.6180 C   0  0  0  0  0  0  0  0  0  0  0  0
   -1.0450    1.0830    1.9780 C   0  0  0  0  0  0  0  0  0  0  0  0
   -1.6100    2.1620    2.2700 O   0  0  0  0  0  0  0  0  0  0  0  0
    0.3870    1.1230    1.7090 C   0  0  0  0  0  0  0  0  0  0  0  0
    1.3060    0.9460    2.7210 C   0  0  0  0  0  0  0  0  0  0  0  0
    2.6320    0.9760    2.5080 N   0  0  0  0  0  0  0  0  0  0  0  0
    3.1530    1.1840    1.2720 C   0  0  0  0  0  0  0  0  0  0  0  0
    4.5270    1.2160    1.0520 C   0  0  0  0  0  0  0  0  0  0  0  0
    5.0300    1.4300   -0.2170 C   0  0  0  0  0  0  0  0  0  0  0  0
    6.7530    1.4760   -0.5340 S   0  0  2  0  0  0  0  0  0  0  0  0
    7.4980    2.0260    0.6750 O   0  0  0  0  0  0  0  0  0  0  0  0
    7.0470    2.4600   -1.6530 O   0  0  0  0  0  0  0  0  0  0  0  0
    7.4060   -0.0240   -0.9200 N   0  0  0  0  0  0  0  0  0  0  0  0
    7.3390   -1.0570    0.0230 C   0  0  0  0  0  0  0  0  0  0  0  0
    8.3780   -0.0340   -1.9330 C   0  0  2  0  0  0  0  0  0  0  0  0
    7.9740   -0.8770   -3.1250 C   0  0  0  0  0  0  0  0  0  0  0  0
    9.6640   -0.5620   -1.4120 C   0  0  0  0  0  0  0  0  0  0  0  0
    9.8590   -0.9100   -0.2280 O   0  0  0  0  0  0  0  0  0  0  0  0
   10.7570   -0.6940   -2.2790 O   0  0  0  0  0  0  0  0  0  0  0  0
    4.1140    1.6080   -1.2330 C   0  0  0  0  0  0  0  0  0  0  0  0
    2.7510    1.5780   -1.0160 C   0  0  0  0  0  0  0  0  0  0  0  0
    2.2430    1.3630    0.2520 C   0  0  0  0  0  0  0  0  0  0  0  0
    0.8740    1.3380    0.4380 C   0  0  0  0  0  0  0  0  0  0  0  0
    0.0900    1.5080   -0.5350 O   0  0  0  0  0  0  0  0  0  0  0  0
   -4.9140   -0.4370   -1.2410 C   0  0  2  0  0  0  0  0  0  0  0  0
   -5.5980    0.7880   -0.7640 C   0  0  0  0  0  0  0  0  0  0  0  0
   -6.8800    1.0420   -0.6450 C   0  0  0  0  0  0  0  0  0  0  0  0
   -7.1320    2.4210   -0.1230 C   0  0  0  0  0  0  0  0  0  0  0  0
   -5.7740    2.9460    0.0370 C   0  0  0  0  0  0  0  0  0  0  0  0
   -4.9260    2.0320   -0.3190 C   0  0  0  0  0  0  0  0  0  0  0  0
  2  1  1  1
  2  3  1  0
  2 36  1  0
  3  4  1  0
  4  5  1  0
  5  6  1  0
  6  7  1  1
  6 36  1  0
  7  8  2  0
  7  9  1  0
  9 10  1  1
  9 11  1  0
 11 12  1  0
 11 13  1  0
 13 14  2  0
 13 15  1  0
 15 16  2  0
 15 34  1  0
 16 17  1  0
 17 18  1  0
 18 19  2  0
 18 33  1  0
 19 20  1  0
 20 21  1  0
 20 31  2  0
 21 22  2  0
 21 23  2  0
 21 24  1  6
 24 25  1  0
 24 26  1  0
 26 27  1  6
 26 28  1  0
 28 29  2  0
 28 30  1  0
 31 32  1  0
 32 33  2  0
 33 34  1  0
 34 35  2  0
 36 37  1  1
 37 38  2  0
 37 41  1  0
 38 39  1  0
 39 40  1  0
 40 41  2  0
M  END
