
     RDKit          3D

 41 45  0  0  0  0  0  0  0  0999 V2000
    1.0270   -2.3970    1.1490 C   0  0  0  0  0  0  0  0  0  0  0  0
    0.8620   -1.0670    0.5140 C   0  0  0  0  0  0  0  0  0  0  0  0
   -0.3910   -0.5840    0.2560 C   0  0  0  0  0  0  0  0  0  0  0  0
   -1.5760   -1.2340    0.6040 O   0  0  0  0  0  0  0  0  0  0  0  0
   -2.7390   -0.6320    0.2740 C   0  0  0  0  0  0  0  0  0  0  0  0
   -4.0520   -1.2150    0.6060 C   0  0  0  0  0  0  0  0  0  0  0  0
   -5.1450   -0.4600    0.1190 C   0  0  0  0  0  0  0  0  0  0  0  0
   -5.1180    0.7330   -0.6210 N   0  0  0  0  0  0  0  0  0  0  0  0
   -5.1750    1.9930    0.0430 C   0  0  0  0  0  0  0  0  0  0  0  0
   -6.4140    2.7090   -0.5160 C   0  0  1  0  0  0  0  0  0  0  0  0
   -6.1290    4.1420   -0.8340 C   0  0  0  0  0  0  0  0  0  0  0  0
   -6.9470    2.0570   -1.6070 O   0  0  0  0  0  0  0  0  0  0  0  0
   -6.0400    1.7080   -2.5800 C   0  0  2  0  0  0  0  0  0  0  0  0
   -6.8150    1.0130   -3.6950 C   0  0  0  0  0  0  0  0  0  0  0  0
   -5.0290    0.6840   -2.0430 C   0  0  0  0  0  0  0  0  0  0  0  0
   -6.5460   -1.3580    0.6560 S   0  0  0  0  0  0  0  0  0  0  0  0
   -5.6800   -2.6410    1.4690 C   0  0  0  0  0  0  0  0  0  0  0  0
   -6.1410   -3.7330    2.1540 N   0  0  0  0  0  0  0  0  0  0  0  0
   -5.2870   -4.5870    2.7140 C   0  0  0  0  0  0  0  0  0  0  0  0
   -5.6950   -5.5810    3.3370 O   0  0  0  0  0  0  0  0  0  0  0  0
   -3.9920   -4.3350    2.5810 N   0  0  0  0  0  0  0  0  0  0  0  0
   -3.5090   -3.2750    1.9170 C   0  0  0  0  0  0  0  0  0  0  0  0
   -2.2820   -3.1720    1.8800 O   0  0  0  0  0  0  0  0  0  0  0  0
   -4.3680   -2.3300    1.2970 C   0  0  0  0  0  0  0  0  0  0  0  0
   -0.4710    0.6300   -0.3870 C   0  0  0  0  0  0  0  0  0  0  0  0
    0.6560    1.3590   -0.7680 C   0  0  0  0  0  0  0  0  0  0  0  0
    1.8800    0.8540   -0.4960 C   0  0  0  0  0  0  0  0  0  0  0  0
    1.9990   -0.3790    0.1560 C   0  0  0  0  0  0  0  0  0  0  0  0
    3.3240   -0.8770    0.4670 C   0  0  0  0  0  0  0  0  0  0  0  0
    3.4940   -1.9090    1.1290 O   0  0  0  0  0  0  0  0  0  0  0  0
    4.5440   -0.1630   -0.0020 C   0  0  0  0  0  0  0  0  0  0  0  0
    5.7100   -0.8470    0.4010 O   0  0  0  0  0  0  0  0  0  0  0  0
    6.9790   -0.4010    0.1070 C   0  0  0  0  0  0  0  0  0  0  0  0
    7.2210    0.7560   -0.6040 C   0  0  0  0  0  0  0  0  0  0  0  0
    8.5020    1.1880   -0.8890 C   0  0  0  0  0  0  0  0  0  0  0  0
    9.6120    0.4650   -0.4660 C   0  0  0  0  0  0  0  0  0  0  0  0
   11.2520    1.0260   -0.8320 S   0  0  0  0  0  0  0  0  0  0  0  0
   11.8850    2.0610    0.4780 C   0  0  0  0  0  0  0  0  0  0  0  0
   12.1810   -0.1440   -1.0250 O   0  0  0  0  0  0  0  0  0  0  0  0
    9.3680   -0.6950    0.2480 C   0  0  0  0  0  0  0  0  0  0  0  0
    8.0900   -1.1190    0.5270 C   0  0  0  0  0  0  0  0  0  0  0  0
  1  2  1  0
  2  3  2  0
  2 28  1  0
  3  4  1  0
  3 25  1  0
  4  5  1  0
  5  6  1  0
  6  7  2  0
  6 24  1  0
  7  8  1  0
  7 16  1  0
  8  9  1  0
  8 15  1  0
  9 10  1  0
 10 11  1  6
 10 12  1  0
 12 13  1  0
 13 14  1  6
 13 15  1  0
 16 17  1  0
 17 18  1  0
 17 24  2  0
 18 19  1  0
 19 20  2  0
 19 21  1  0
 21 22  1  0
 22 23  2  0
 22 24  1  0
 25 26  2  0
 26 27  1  0
 27 28  2  0
 28 29  1  0
 29 30  2  0
 29 31  1  0
 31 32  1  0
 32 33  1  0
 33 34  2  0
 33 41  1  0
 34 35  1  0
 35 36  2  0
 36 37  1  0
 36 40  1  0
 37 38  1  1
 37 39  2  0
 40 41  2  0
M  END
