
     RDKit          3D

 41 44  0  0  0  0  0  0  0  0999 V2000
   -9.5530   -0.6850   -1.9190 C   0  0  0  0  0  0  0  0  0  0  0  0
   -9.0700    0.1290   -0.8590 O   0  0  0  0  0  0  0  0  0  0  0  0
   -7.8820    0.8280   -1.0190 C   0  0  0  0  0  0  0  0  0  0  0  0
   -7.2630    0.7290   -2.0840 O   0  0  0  0  0  0  0  0  0  0  0  0
   -7.3350    1.6950    0.0670 C   0  0  1  0  0  0  0  0  0  0  0  0
   -7.1100    0.9250    1.3240 C   0  0  0  0  0  0  0  0  0  0  0  0
   -6.0420    1.5650    2.1620 C   0  0  1  0  0  0  0  0  0  0  0  0
   -6.0330    0.9170    3.5100 C   0  0  0  0  0  0  0  0  0  0  0  0
   -4.6950    1.3710    1.4730 C   0  0  0  0  0  0  0  0  0  0  0  0
   -4.9280    1.5930    0.0380 N   0  0  0  0  0  0  0  0  0  0  0  0
   -4.0110    1.0860   -0.8940 C   0  0  0  0  0  0  0  0  0  0  0  0
   -4.2340    1.3060   -2.1300 O   0  0  0  0  0  0  0  0  0  0  0  0
   -2.8070    0.3160   -0.5650 C   0  0  1  0  0  0  0  0  0  0  0  0
   -2.9960   -1.0780   -0.1250 C   0  0  0  0  0  0  0  0  0  0  0  0
   -2.1440   -1.4030    1.0680 C   0  0  0  0  0  0  0  0  0  0  0  0
   -0.9140   -0.1900    1.5160 S   0  0  0  0  0  0  0  0  0  0  0  0
   -0.1090    0.5760    0.1150 C   0  0  0  0  0  0  0  0  0  0  0  0
   -0.5280    0.0300   -1.1340 N   0  0  0  0  0  0  0  0  0  0  0  0
    0.2350   -0.8910   -1.8520 C   0  0  0  0  0  0  0  0  0  0  0  0
   -0.2140   -1.2460   -3.0280 O   0  0  0  0  0  0  0  0  0  0  0  0
    1.4810   -1.5150   -1.4540 C   0  0  0  0  0  0  0  0  0  0  0  0
    2.1360   -1.5000   -0.2530 C   0  0  0  0  0  0  0  0  0  0  0  0
    3.3290   -2.1900   -0.4030 C   0  0  0  0  0  0  0  0  0  0  0  0
    4.5270   -2.4460    0.8960 S   0  0  0  0  0  0  0  0  0  0  0  0
    5.6940   -1.1140    0.9660 C   0  0  0  0  0  0  0  0  0  0  0  0
    6.6990   -1.1210    1.8950 C   0  0  0  0  0  0  0  0  0  0  0  0
    7.6120   -0.0780    1.9610 C   0  0  0  0  0  0  0  0  0  0  0  0
    7.5550    0.9940    1.1110 C   0  0  0  0  0  0  0  0  0  0  0  0
    8.4030    2.0660    1.0860 O   0  0  0  0  0  0  0  0  0  0  0  0
    9.5000    2.2390    1.8920 C   0  0  0  0  0  0  0  0  0  0  0  0
   10.6240    1.2530    1.7250 C   0  0  0  0  0  0  0  0  0  0  0  0
   11.6810    1.5480    2.6180 O   0  0  0  0  0  0  0  0  0  0  0  0
    6.5190    0.9980    0.1570 C   0  0  0  0  0  0  0  0  0  0  0  0
    6.4310    2.0700   -0.7200 O   0  0  0  0  0  0  0  0  0  0  0  0
    5.6300   -0.0420    0.1120 C   0  0  0  0  0  0  0  0  0  0  0  0
    3.3560   -2.6020   -1.6910 C   0  0  0  0  0  0  0  0  0  0  0  0
    4.4790   -3.3970   -2.3030 C   0  0  0  0  0  0  0  0  0  0  0  0
    2.2590   -2.2150   -2.3550 N   0  0  0  0  0  0  0  0  0  0  0  0
    1.9760   -2.4910   -3.7470 C   0  0  0  0  0  0  0  0  0  0  0  0
   -1.8410    0.3370   -1.7570 C   0  0  0  0  0  0  0  0  0  0  0  0
   -6.0810    2.3370   -0.4030 C   0  0  0  0  0  0  0  0  0  0  0  0
  1  2  1  0
  2  3  1  0
  3  4  2  0
  5  3  1  6
  5  6  1  0
  5 41  1  0
  6  7  1  0
  7  8  1  1
  7  9  1  0
  9 10  1  0
 10 11  1  0
 10 41  1  0
 11 12  2  0
 13 11  1  6
 13 14  1  0
 13 40  1  0
 14 15  1  0
 15 16  1  0
 16 17  1  0
 17 18  1  0
 18 19  1  0
 18 40  1  0
 19 20  2  0
 19 21  1  0
 21 22  2  0
 21 38  1  0
 22 23  1  0
 23 24  1  0
 23 36  2  0
 24 25  1  0
 25 26  2  0
 25 35  1  0
 26 27  1  0
 27 28  2  0
 28 29  1  0
 28 33  1  0
 29 30  1  0
 30 31  1  0
 31 32  1  0
 33 34  1  0
 33 35  2  0
 36 37  1  0
 36 38  1  0
 38 39  1  0
M  END
