
     RDKit          3D

 40 42  0  0  0  0  0  0  0  0999 V2000
   -4.5320   -5.0230   -4.0530 C   0  0  0  0  0  0  0  0  0  0  0  0
   -3.2620   -5.3660   -3.4200 C   0  0  0  0  0  0  0  0  0  0  0  0
   -2.4700   -4.5800   -2.7640 C   0  0  0  0  0  0  0  0  0  0  0  0
   -2.6120   -3.1720   -2.4760 C   0  0  0  0  0  0  0  0  0  0  0  0
   -1.6900   -2.4860   -1.7690 C   0  0  0  0  0  0  0  0  0  0  0  0
   -0.4740   -2.9080   -1.1850 N   0  0  0  0  0  0  0  0  0  0  0  0
    0.3590   -2.0340   -0.4670 C   0  0  0  0  0  0  0  0  0  0  0  0
    1.4520   -2.5070    0.0460 C   0  0  0  0  0  0  0  0  0  0  0  0
    1.8240   -3.8890   -0.1060 N   0  0  0  0  0  0  0  0  0  0  0  0
    1.4390   -5.0420    1.1020 S   0  0  2  0  0  0  0  0  0  0  0  0
    1.8840   -6.4090    0.6710 O   0  0  0  0  0  0  0  0  0  0  0  0
   -0.0490   -5.0140    1.3100 O   0  0  0  0  0  0  0  0  0  0  0  0
    2.2310   -4.6170    2.6400 C   0  0  1  0  0  0  0  0  0  0  0  0
    2.4360   -5.7000    3.6370 C   0  0  0  0  0  0  0  0  0  0  0  0
    3.6300   -5.1750    2.8460 C   0  0  0  0  0  0  0  0  0  0  0  0
   -0.0780   -0.6050   -0.3300 C   0  0  0  0  0  0  0  0  0  0  0  0
    1.0790    0.1820   -0.1890 N   0  0  0  0  0  0  0  0  0  0  0  0
    1.4000    1.3970   -0.6250 C   0  0  0  0  0  0  0  0  0  0  0  0
    0.6490    2.0250   -1.4870 O   0  0  0  0  0  0  0  0  0  0  0  0
    2.4680    2.1900   -0.3240 N   0  0  0  0  0  0  0  0  0  0  0  0
    3.4990    2.9630   -0.0380 C   0  0  0  0  0  0  0  0  0  0  0  0
    3.3860    4.0690   -0.7450 O   0  0  0  0  0  0  0  0  0  0  0  0
    4.5640    2.8130    0.7970 N   0  0  0  0  0  0  0  0  0  0  0  0
    5.5170    3.8890    0.8550 C   0  0  0  0  0  0  0  0  0  0  0  0
    6.5580    3.4140    1.8430 C   0  0  0  0  0  0  0  0  0  0  0  0
    5.8780    3.1860    3.1610 C   0  0  0  0  0  0  0  0  0  0  0  0
   -1.2120   -0.1760   -0.8620 C   0  0  0  0  0  0  0  0  0  0  0  0
   -1.5560    1.1900   -0.6170 C   0  0  0  0  0  0  0  0  0  0  0  0
   -2.5070    1.9220   -1.0530 C   0  0  0  0  0  0  0  0  0  0  0  0
   -2.8160    3.3510   -0.7290 C   0  0  0  0  0  0  0  0  0  0  0  0
   -1.7890    4.0150    0.5050 S   0  0  1  0  0  0  0  0  0  0  0  0
   -1.8680    3.2290    1.7850 O   0  0  0  0  0  0  0  0  0  0  0  0
   -0.3790    4.1260    0.0200 O   0  0  0  0  0  0  0  0  0  0  0  0
   -2.3150    5.7090    0.8830 C   0  0  1  0  0  0  0  0  0  0  0  0
   -3.7650    5.6470    1.2890 C   0  0  0  0  0  0  0  0  0  0  0  0
   -1.4570    6.2580    1.9740 C   0  0  0  0  0  0  0  0  0  0  0  0
   -2.1000   -1.1100   -1.6270 C   0  0  0  0  0  0  0  0  0  0  0  0
   -3.2460   -0.9240   -2.2220 C   0  0  0  0  0  0  0  0  0  0  0  0
   -3.6820   -2.2380   -2.8310 C   0  0  2  0  0  0  0  0  0  0  0  0
   -4.9520   -2.5270   -2.1910 N   0  0  0  0  0  0  0  0  0  0  0  0
  1  2  1  0
  2  3  2  3
  3  4  1  0
  4  5  2  0
  4 39  1  0
  5  6  1  0
  5 37  1  0
  6  7  1  0
  7  8  2  3
  7 16  1  0
  8  9  1  0
 10  9  1  6
 10 11  2  0
 10 12  2  0
 10 13  1  0
 13 14  1  1
 13 15  1  0
 14 15  1  0
 16 17  1  0
 16 27  2  0
 17 18  1  0
 18 19  2  0
 18 20  1  0
 20 21  1  0
 21 22  2  0
 21 23  1  0
 23 24  1  0
 24 25  1  0
 25 26  1  0
 27 28  1  0
 27 37  1  0
 28 29  2  3
 29 30  1  0
 31 30  1  6
 31 32  2  0
 31 33  2  0
 31 34  1  0
 34 35  1  1
 34 36  1  0
 37 38  2  0
 38 39  1  0
 39 40  1  1
M  CHG  1  40   1
M  END
