
     RDKit          3D

 40 43  0  0  0  0  0  0  0  0999 V2000
   -8.8290   -3.3980    0.0640 C   0  0  0  0  0  0  0  0  0  0  0  0
   -8.8120   -1.9720    0.5350 C   0  0  0  0  0  0  0  0  0  0  0  0
   -7.7580   -1.2330   -0.0670 O   0  0  0  0  0  0  0  0  0  0  0  0
   -7.5640    0.1230    0.2390 C   0  0  0  0  0  0  0  0  0  0  0  0
   -8.4750    0.9520   -0.2180 C   0  0  0  0  0  0  0  0  0  0  0  0
   -8.4000    2.3940    0.0220 C   0  0  0  0  0  0  0  0  0  0  0  0
   -7.2450    2.8820    0.8110 C   0  0  1  0  0  0  0  0  0  0  0  0
   -7.7060    3.6450    1.9850 N   0  0  0  0  0  0  0  0  0  0  0  0
   -6.2960    1.8510    1.2650 C   0  0  0  0  0  0  0  0  0  0  0  0
   -6.4230    0.5710    1.0120 C   0  0  0  0  0  0  0  0  0  0  0  0
   -5.4040   -0.3740    1.5150 C   0  0  0  0  0  0  0  0  0  0  0  0
   -4.8570   -1.0080    0.3760 O   0  0  0  0  0  0  0  0  0  0  0  0
   -3.8570   -1.9670    0.4000 C   0  0  0  0  0  0  0  0  0  0  0  0
   -3.4090   -2.2840    1.5490 O   0  0  0  0  0  0  0  0  0  0  0  0
   -3.3300   -2.5960   -0.8370 C   0  0  0  0  0  0  0  0  0  0  0  0
   -2.1260   -1.9250   -1.3930 C   0  0  2  0  0  0  0  0  0  0  0  0
   -0.7070   -1.9280   -0.2150 S   0  0  0  0  0  0  0  0  0  0  0  0
   -0.0450   -0.3530   -0.7240 C   0  0  0  0  0  0  0  0  0  0  0  0
    1.0560    0.4350   -0.7140 C   0  0  0  0  0  0  0  0  0  0  0  0
    2.3960    0.1800   -0.1430 C   0  0  0  0  0  0  0  0  0  0  0  0
    2.6570   -0.9000    0.4410 O   0  0  0  0  0  0  0  0  0  0  0  0
    3.3960    1.1470   -0.2490 N   0  0  0  0  0  0  0  0  0  0  0  0
    4.7130    1.0220    0.2460 N   0  0  0  0  0  0  0  0  0  0  0  0
    5.6280    0.0920   -0.3450 C   0  0  0  0  0  0  0  0  0  0  0  0
    5.1910   -0.6030   -1.3080 O   0  0  0  0  0  0  0  0  0  0  0  0
    6.9600   -0.0850    0.0800 N   0  0  0  0  0  0  0  0  0  0  0  0
    7.7710   -1.0600   -0.6050 C   0  0  0  0  0  0  0  0  0  0  0  0
    9.1440   -1.1400   -0.1090 C   0  0  0  0  0  0  0  0  0  0  0  0
    9.7140   -1.7100    1.0100 C   0  0  0  0  0  0  0  0  0  0  0  0
   11.0320   -1.6230    1.1850 C   0  0  0  0  0  0  0  0  0  0  0  0
   11.7990   -0.9780    0.2680 C   0  0  0  0  0  0  0  0  0  0  0  0
   13.2300   -0.7230    0.1800 C   0  0  0  0  0  0  0  0  0  0  0  0
   13.6910    0.4470    0.8840 N   0  0  0  0  0  0  0  0  0  0  0  0
   10.6270   -0.4540   -0.9190 S   0  0  0  0  0  0  0  0  0  0  0  0
    0.7030    1.5730   -1.3710 N   0  0  0  0  0  0  0  0  0  0  0  0
   -0.5570    1.5090   -1.7780 C   0  0  0  0  0  0  0  0  0  0  0  0
   -1.2550    2.5950   -2.5260 C   0  0  0  0  0  0  0  0  0  0  0  0
   -1.0610    0.2890   -1.3800 C   0  0  0  0  0  0  0  0  0  0  0  0
   -2.2920   -0.4370   -1.4680 C   0  0  0  0  0  0  0  0  0  0  0  0
   -3.4700    0.0470   -1.6010 O   0  0  0  0  0  0  0  0  0  0  0  0
  1  2  1  0
  2  3  1  0
  3  4  1  0
  4  5  2  0
  4 10  1  0
  5  6  1  0
  6  7  1  0
  7  8  1  1
  7  9  1  0
  9 10  2  0
 10 11  1  0
 11 12  1  0
 12 13  1  0
 13 14  2  0
 13 15  1  0
 16 15  1  1
 16 17  1  0
 16 39  1  0
 17 18  1  0
 18 19  2  0
 18 38  1  0
 19 20  1  0
 19 35  1  0
 20 21  2  0
 20 22  1  0
 22 23  1  0
 23 24  1  0
 24 25  2  0
 24 26  1  0
 26 27  1  0
 27 28  1  0
 28 29  2  0
 28 34  1  0
 29 30  1  0
 30 31  2  0
 31 32  1  0
 31 34  1  0
 32 33  1  0
 35 36  1  0
 36 37  1  0
 36 38  2  0
 38 39  1  0
 39 40  2  0
M  CHG  2   8   1  33   1
M  END
