
     RDKit          3D

 40 42  0  0  0  0  0  0  0  0999 V2000
   -6.1770    0.0450   -1.4300 C   0  0  0  0  0  0  0  0  0  0  0  0
   -6.0070   -0.5680   -0.0700 C   0  0  0  0  0  0  0  0  0  0  0  0
   -7.1590   -1.0960    0.5240 C   0  0  0  0  0  0  0  0  0  0  0  0
   -7.0520   -1.6130    1.7760 C   0  0  0  0  0  0  0  0  0  0  0  0
   -5.8490   -1.6190    2.4410 C   0  0  0  0  0  0  0  0  0  0  0  0
   -5.7870   -2.2910    4.0570 S   0  0  2  0  0  0  0  0  0  0  0  0
   -5.3090   -1.0950    5.2220 N   0  0  0  0  0  0  0  0  0  0  0  0
   -4.8430   -3.4730    4.0560 O   0  0  0  0  0  0  0  0  0  0  0  0
   -7.1280   -2.8340    4.4640 O   0  0  0  0  0  0  0  0  0  0  0  0
   -4.7340   -1.1060    1.8600 C   0  0  0  0  0  0  0  0  0  0  0  0
   -3.3980   -1.1040    2.5340 C   0  0  0  0  0  0  0  0  0  0  0  0
   -4.7760   -0.5470    0.5450 C   0  0  0  0  0  0  0  0  0  0  0  0
   -3.6990   -0.0720    0.0110 O   0  0  0  0  0  0  0  0  0  0  0  0
   -2.6160    0.3850   -0.5300 C   0  0  0  0  0  0  0  0  0  0  0  0
   -2.4070    0.0760   -1.9680 C   0  0  0  0  0  0  0  0  0  0  0  0
   -3.3730   -0.9740   -2.9630 S   0  0  0  0  0  0  0  0  0  0  0  0
   -2.3820   -0.8250   -4.4550 C   0  0  0  0  0  0  0  0  0  0  0  0
   -1.3790    0.0270   -4.0580 C   0  0  0  0  0  0  0  0  0  0  0  0
   -1.3990    0.4820   -2.7900 C   0  0  0  0  0  0  0  0  0  0  0  0
   -0.3860    1.4120   -2.2700 N   0  0  0  0  0  0  0  0  0  0  0  0
    0.6670    1.8710   -3.0770 C   0  0  0  0  0  0  0  0  0  0  0  0
    1.9130    1.8180   -2.6890 C   0  0  0  0  0  0  0  0  0  0  0  0
    2.9500    2.3380   -3.6340 C   0  0  0  0  0  0  0  0  0  0  0  0
    3.8390    1.2550   -3.9600 N   0  0  0  0  0  0  0  0  0  0  0  0
    2.2900    1.2600   -1.3900 C   0  0  0  0  0  0  0  0  0  0  0  0
    1.4700    0.7810   -0.5840 O   0  0  0  0  0  0  0  0  0  0  0  0
    3.6440    1.2410   -0.9680 N   0  0  0  0  0  0  0  0  0  0  0  0
    4.0870    0.7000    0.3180 C   0  0  2  0  0  0  0  0  0  0  0  0
    4.6140    1.7280    1.1940 C   0  0  0  0  0  0  0  0  0  0  0  0
    4.9470    1.5610    2.4250 C   0  0  0  0  0  0  0  0  0  0  0  0
    5.4430    2.7280    3.0840 O   0  0  0  0  0  0  0  0  0  0  0  0
    4.8830    0.3670    3.2100 C   0  0  0  0  0  0  0  0  0  0  0  0
    4.4230   -0.8960    2.7700 N   0  0  0  0  0  0  0  0  0  0  0  0
    5.2770    0.4170    4.4420 O   0  0  0  0  0  0  0  0  0  0  0  0
    5.0040   -0.4150    0.0160 C   0  0  0  0  0  0  0  0  0  0  0  0
    6.3600   -0.2730    0.1920 C   0  0  0  0  0  0  0  0  0  0  0  0
    7.2290   -1.3390   -0.0980 C   0  0  0  0  0  0  0  0  0  0  0  0
    6.7410   -2.4870   -0.5440 N   0  0  0  0  0  0  0  0  0  0  0  0
    5.3870   -2.6450   -0.7250 C   0  0  0  0  0  0  0  0  0  0  0  0
    4.5090   -1.6080   -0.4450 C   0  0  0  0  0  0  0  0  0  0  0  0
  1  2  1  0
  2  3  2  0
  2 12  1  0
  3  4  1  0
  4  5  2  0
  5  6  1  0
  5 10  1  0
  6  7  1  1
  6  8  2  0
  6  9  2  0
 10 11  1  0
 10 12  2  0
 12 13  1  0
 13 14  1  0
 14 15  1  0
 15 16  1  0
 15 19  2  0
 16 17  1  0
 17 18  2  0
 18 19  1  0
 19 20  1  0
 20 21  1  0
 21 22  2  3
 22 23  1  0
 22 25  1  0
 23 24  1  0
 25 26  2  0
 25 27  1  0
 28 27  1  6
 28 29  1  0
 28 35  1  0
 29 30  2  3
 30 31  1  0
 30 32  1  0
 32 33  1  0
 32 34  2  0
 35 36  2  0
 35 40  1  0
 36 37  1  0
 37 38  2  0
 38 39  1  0
 39 40  2  0
M  CHG  2   7   1  24   1
M  END
