
     RDKit          3D

 40 43  0  0  0  0  0  0  0  0999 V2000
   -5.7410   -2.7650   -2.8590 N   0  0  0  0  0  0  0  0  0  0  0  0
   -4.8890   -3.7840   -2.2900 C   0  0  0  0  0  0  0  0  0  0  0  0
   -3.9960   -3.2160   -1.2580 C   0  0  0  0  0  0  0  0  0  0  0  0
   -4.0230   -1.9030   -0.9350 C   0  0  0  0  0  0  0  0  0  0  0  0
   -3.1920   -1.3870    0.0230 C   0  0  0  0  0  0  0  0  0  0  0  0
   -3.2720    0.0240    0.3540 C   0  0  0  0  0  0  0  0  0  0  0  0
   -2.2440    0.8070    0.5030 C   0  0  0  0  0  0  0  0  0  0  0  0
   -2.2390    2.1940    0.8280 N   0  0  0  0  0  0  0  0  0  0  0  0
   -3.3420    3.0190    1.0520 C   0  0  0  0  0  0  0  0  0  0  0  0
   -4.4990    2.4790    0.9530 O   0  0  0  0  0  0  0  0  0  0  0  0
   -3.3460    4.4300    1.3870 C   0  0  0  0  0  0  0  0  0  0  0  0
   -4.5790    5.0800    1.5770 C   0  0  0  0  0  0  0  0  0  0  0  0
   -4.6790    6.4060    1.9010 C   0  0  0  0  0  0  0  0  0  0  0  0
   -3.5490    7.1760    2.0570 C   0  0  0  0  0  0  0  0  0  0  0  0
   -2.3400    6.5530    1.8730 C   0  0  0  0  0  0  0  0  0  0  0  0
   -2.2230    5.1940    1.5420 C   0  0  0  0  0  0  0  0  0  0  0  0
   -0.9700    4.6460    1.3750 O   0  0  0  0  0  0  0  0  0  0  0  0
   -0.6240    0.0380    0.2280 S   0  0  0  0  0  0  0  0  0  0  0  0
    0.6380    1.3080    0.4240 C   0  0  0  0  0  0  0  0  0  0  0  0
    2.0060    0.7650    0.2210 C   0  0  0  0  0  0  0  0  0  0  0  0
    2.1740   -0.4530   -0.0480 O   0  0  0  0  0  0  0  0  0  0  0  0
    3.1250    1.6310    0.3330 N   0  0  0  0  0  0  0  0  0  0  0  0
    4.3940    1.1260    0.1460 N   0  0  0  0  0  0  0  0  0  0  0  0
    4.7190    0.7020   -1.1700 C   0  0  0  0  0  0  0  0  0  0  0  0
    5.7250   -0.4030   -1.2480 C   0  0  0  0  0  0  0  0  0  0  0  0
    6.7210   -0.3330   -0.1710 C   0  0  0  0  0  0  0  0  0  0  0  0
    6.2670   -0.0170    1.0520 C   0  0  0  0  0  0  0  0  0  0  0  0
    7.4140   -0.0050    1.9580 C   0  0  0  0  0  0  0  0  0  0  0  0
    8.4490   -0.2400    1.1950 C   0  0  0  0  0  0  0  0  0  0  0  0
    8.1700   -0.5290   -0.0560 C   0  0  0  0  0  0  0  0  0  0  0  0
    9.2240   -1.0320   -1.3310 S   0  0  1  0  0  0  0  0  0  0  0  0
    8.4620   -1.7680   -2.3930 O   0  0  0  0  0  0  0  0  0  0  0  0
    9.7850    0.2090   -1.9800 O   0  0  0  0  0  0  0  0  0  0  0  0
    4.8270    0.2270    1.1870 C   0  0  0  0  0  0  0  0  0  0  0  0
   -2.3390   -2.1840    0.6510 N   0  0  0  0  0  0  0  0  0  0  0  0
   -2.3020   -3.5150    0.3320 C   0  0  0  0  0  0  0  0  0  0  0  0
   -1.4760   -4.2170    0.9590 O   0  0  0  0  0  0  0  0  0  0  0  0
   -3.1000   -4.0920   -0.6100 C   0  0  0  0  0  0  0  0  0  0  0  0
   -3.1080   -5.5180   -1.0000 C   0  0  0  0  0  0  0  0  0  0  0  0
   -2.1550   -6.2860   -0.2660 N   0  0  0  0  0  0  0  0  0  0  0  0
  1  2  1  0
  2  3  1  0
  3  4  1  0
  3 38  2  0
  4  5  2  0
  5  6  1  0
  5 35  1  0
  6  7  2  3
  7  8  1  0
  7 18  1  0
  8  9  1  0
  9 10  2  0
  9 11  1  0
 11 12  2  0
 11 16  1  0
 12 13  1  0
 13 14  2  0
 14 15  1  0
 15 16  2  0
 16 17  1  0
 18 19  1  0
 19 20  1  0
 20 21  2  0
 20 22  1  0
 22 23  1  0
 23 24  1  0
 23 34  1  0
 24 25  1  0
 25 26  1  0
 26 27  2  0
 26 30  1  0
 27 28  1  0
 27 34  1  0
 28 29  2  0
 29 30  2  0
 31 30  1  1
 31 32  2  0
 31 33  2  0
 35 36  1  0
 36 37  2  0
 36 38  1  0
 38 39  1  0
 39 40  1  0
M  CHG  2   1   1  40   1
M  END
