
     RDKit          3D

 40 43  0  0  0  0  0  0  0  0999 V2000
   -5.3950   -0.5190    0.7290 C   0  0  0  0  0  0  0  0  0  0  0  0
   -4.6610    0.3490   -0.2540 C   0  0  0  0  0  0  0  0  0  0  0  0
   -3.8170   -0.3520   -1.2360 C   0  0  1  0  0  0  0  0  0  0  0  0
   -3.2330    0.7440   -2.1630 C   0  0  0  0  0  0  0  0  0  0  0  0
   -4.4310    1.4320   -2.8010 C   0  0  0  0  0  0  0  0  0  0  0  0
   -2.7080   -1.2220   -0.7590 C   0  0  0  0  0  0  0  0  0  0  0  0
   -1.6650   -0.6590   -0.0050 N   0  0  0  0  0  0  0  0  0  0  0  0
   -0.4240   -0.6230   -0.7540 C   0  0  0  0  0  0  0  0  0  0  0  0
    0.2260    0.7230   -0.8570 C   0  0  1  0  0  0  0  0  0  0  0  0
    0.4600    1.2290    0.4530 O   0  0  0  0  0  0  0  0  0  0  0  0
    1.6590    0.5930   -1.3920 C   0  0  2  0  0  0  0  0  0  0  0  0
    1.7940    0.5080   -2.8610 C   0  0  0  0  0  0  0  0  0  0  0  0
    1.2870    1.6980   -3.5730 C   0  0  0  0  0  0  0  0  0  0  0  0
    2.1170    2.8030   -3.7770 C   0  0  0  0  0  0  0  0  0  0  0  0
    1.6760    3.9210   -4.4460 C   0  0  0  0  0  0  0  0  0  0  0  0
    0.3990    3.9940   -4.9410 C   0  0  0  0  0  0  0  0  0  0  0  0
   -0.4230    2.9010   -4.7400 C   0  0  0  0  0  0  0  0  0  0  0  0
    0.0180    1.7790   -4.0690 C   0  0  0  0  0  0  0  0  0  0  0  0
    2.4510   -0.3340   -0.6260 N   0  0  0  0  0  0  0  0  0  0  0  0
    3.4600    0.0560    0.2910 C   0  0  0  0  0  0  0  0  0  0  0  0
    3.6690    1.2720    0.4360 O   0  0  0  0  0  0  0  0  0  0  0  0
    4.2150   -0.8330    1.0240 O   0  0  0  0  0  0  0  0  0  0  0  0
    5.2120   -0.4720    1.9280 C   0  0  1  0  0  0  0  0  0  0  0  0
    5.0580   -1.1340    3.2800 C   0  0  0  0  0  0  0  0  0  0  0  0
    5.3670   -2.4420    3.0060 O   0  0  0  0  0  0  0  0  0  0  0  0
    6.5400   -2.3790    2.2620 C   0  0  1  0  0  0  0  0  0  0  0  0
    6.5290   -3.4570    1.4030 O   0  0  0  0  0  0  0  0  0  0  0  0
    6.9130   -3.0350    0.1480 C   0  0  0  0  0  0  0  0  0  0  0  0
    6.3850   -1.6210    0.0400 C   0  0  0  0  0  0  0  0  0  0  0  0
    6.5000   -1.1190    1.4600 C   0  0  1  0  0  0  0  0  0  0  0  0
   -1.4560   -1.1440    1.5960 S   0  0  2  0  0  0  0  0  0  0  0  0
   -0.1430   -0.5480    2.1130 O   0  0  0  0  0  0  0  0  0  0  0  0
   -1.1850   -2.6520    1.6860 O   0  0  0  0  0  0  0  0  0  0  0  0
   -2.7350   -0.8440    2.7150 C   0  0  0  0  0  0  0  0  0  0  0  0
   -3.5750   -1.8480    3.1750 C   0  0  0  0  0  0  0  0  0  0  0  0
   -4.5730   -1.5660    4.0800 C   0  0  0  0  0  0  0  0  0  0  0  0
   -4.7930   -0.3020    4.5720 C   0  0  0  0  0  0  0  0  0  0  0  0
   -5.8180   -0.0100    5.5030 N   0  0  0  0  0  0  0  0  0  0  0  0
   -3.9510    0.7110    4.1120 C   0  0  0  0  0  0  0  0  0  0  0  0
   -2.9580    0.4340    3.2110 C   0  0  0  0  0  0  0  0  0  0  0  0
  1  2  1  0
  3  2  1  1
  3  4  1  0
  3  6  1  0
  4  5  1  0
  6  7  1  0
  7  8  1  0
 31  7  1  6
  8  9  1  0
  9 10  1  1
  9 11  1  0
 11 12  1  6
 11 19  1  0
 12 13  1  0
 13 14  2  0
 13 18  1  0
 14 15  1  0
 15 16  2  0
 16 17  1  0
 17 18  2  0
 19 20  1  0
 20 21  2  0
 20 22  1  0
 23 22  1  6
 23 24  1  0
 23 30  1  0
 24 25  1  0
 26 25  1  1
 26 27  1  0
 26 30  1  0
 27 28  1  0
 28 29  1  0
 30 29  1  6
 31 32  2  0
 31 33  2  0
 31 34  1  0
 34 35  2  0
 34 40  1  0
 35 36  1  0
 36 37  2  0
 37 38  1  0
 37 39  1  0
 39 40  2  0
M  END
