
     RDKit          3D

 40 43  0  0  0  0  0  0  0  0999 V2000
   -4.1380    0.1820   -3.9120 C   0  0  0  0  0  0  0  0  0  0  0  0
   -5.3880    0.0860   -3.5140 C   0  0  0  0  0  0  0  0  0  0  0  0
   -5.7700    0.1120   -2.1220 C   0  0  0  0  0  0  0  0  0  0  0  0
   -4.8690    0.2520   -1.0920 C   0  0  0  0  0  0  0  0  0  0  0  0
   -5.3740    0.2590    0.1920 C   0  0  0  0  0  0  0  0  0  0  0  0
   -4.5220    0.4000    1.2430 O   0  0  0  0  0  0  0  0  0  0  0  0
   -3.1870    0.5780    1.3860 C   0  0  0  0  0  0  0  0  0  0  0  0
   -2.5760    1.8340    0.8410 C   0  0  0  0  0  0  0  0  0  0  0  0
   -1.1500    1.8890    1.0670 N   0  0  0  0  0  0  0  0  0  0  0  0
   -0.2160    0.9270    0.5220 C   0  0  0  0  0  0  0  0  0  0  0  0
   -0.7100    0.0270   -0.1770 O   0  0  0  0  0  0  0  0  0  0  0  0
    1.1590    1.0250    0.7800 N   0  0  0  0  0  0  0  0  0  0  0  0
    2.1410    0.1420    0.3090 C   0  0  0  0  0  0  0  0  0  0  0  0
    1.8410   -1.0880   -0.2570 C   0  0  0  0  0  0  0  0  0  0  0  0
    2.8520   -1.9750   -0.6430 C   0  0  0  0  0  0  0  0  0  0  0  0
    4.1720   -1.6590   -0.4760 C   0  0  0  0  0  0  0  0  0  0  0  0
    5.1940   -2.5710   -0.8720 N   0  0  0  0  0  0  0  0  0  0  0  0
    5.6520   -3.2460    0.3060 C   0  0  1  0  0  0  0  0  0  0  0  0
    5.0610   -4.6460    0.3630 C   0  0  0  0  0  0  0  0  0  0  0  0
    6.3000   -5.5210    0.3470 C   0  0  0  0  0  0  0  0  0  0  0  0
    7.2430   -4.6980    1.0920 N   0  0  0  0  0  0  0  0  0  0  0  0
    7.1620   -3.4490    0.3220 C   0  0  0  0  0  0  0  0  0  0  0  0
    4.4950   -0.4580    0.0760 C   0  0  0  0  0  0  0  0  0  0  0  0
    3.4880    0.4260    0.4590 C   0  0  0  0  0  0  0  0  0  0  0  0
    3.9850    1.9910    1.0710 S   0  0  1  0  0  0  0  0  0  0  0  0
    3.3880    2.1940    2.4660 O   0  0  0  0  0  0  0  0  0  0  0  0
    5.4960    1.9060    1.3600 O   0  0  0  0  0  0  0  0  0  0  0  0
    3.6580    3.2760    0.0230 N   0  0  0  0  0  0  0  0  0  0  0  0
    2.7650    4.2540    0.5150 C   0  0  0  0  0  0  0  0  0  0  0  0
    2.5740    5.3370   -0.5110 C   0  0  0  0  0  0  0  0  0  0  0  0
    1.7230    6.4090   -0.2250 N   0  0  0  0  0  0  0  0  0  0  0  0
    3.1780    5.2560   -1.5920 O   0  0  0  0  0  0  0  0  0  0  0  0
   -6.7240    0.1320    0.4790 C   0  0  0  0  0  0  0  0  0  0  0  0
   -7.1060    0.1520    1.8150 O   0  0  0  0  0  0  0  0  0  0  0  0
   -7.4400    1.3140    2.5170 C   0  0  0  0  0  0  0  0  0  0  0  0
   -7.6430   -0.0120   -0.5740 C   0  0  0  0  0  0  0  0  0  0  0  0
   -8.9790   -0.1440   -0.4380 C   0  0  0  0  0  0  0  0  0  0  0  0
   -9.7500   -0.2740   -1.5450 C   0  0  0  0  0  0  0  0  0  0  0  0
   -8.4730   -0.2020   -2.8790 S   0  0  0  0  0  0  0  0  0  0  0  0
   -7.1230   -0.0140   -1.8210 C   0  0  0  0  0  0  0  0  0  0  0  0
  1  2  2  0
  2  3  1  0
  3  4  2  0
  3 40  1  0
  4  5  1  0
  5  6  1  0
  5 33  2  0
  6  7  1  0
  7  8  1  0
  8  9  1  0
  9 10  1  0
 10 11  2  0
 10 12  1  0
 12 13  1  0
 13 14  2  0
 13 24  1  0
 14 15  1  0
 15 16  2  0
 16 17  1  0
 16 23  1  0
 18 17  1  6
 18 19  1  0
 18 22  1  0
 19 20  1  0
 20 21  1  0
 21 22  1  0
 23 24  2  0
 24 25  1  0
 25 26  2  0
 25 27  2  0
 25 28  1  6
 28 29  1  0
 29 30  1  0
 30 31  1  0
 30 32  2  0
 33 34  1  0
 33 36  1  0
 34 35  1  0
 36 37  1  0
 36 40  2  0
 37 38  2  0
 38 39  1  0
 39 40  1  0
M  CHG  2  17   1  21   1
M  END
