
     RDKit          3D

 41 42  0  0  0  0  0  0  0  0999 V2000
   -2.6820   -3.1570   -4.7430 C   0  0  0  0  0  0  0  0  0  0  0  0
   -3.3940   -2.3030   -3.6640 C   0  0  0  0  0  0  0  0  0  0  0  0
   -2.3320   -1.8330   -2.7380 C   0  0  0  0  0  0  0  0  0  0  0  0
   -2.6580   -0.9880   -1.5960 C   0  0  1  0  0  0  0  0  0  0  0  0
   -3.3230    0.2340   -2.1250 N   0  0  0  0  0  0  0  0  0  0  0  0
   -3.4750    1.4230   -1.4000 C   0  0  0  0  0  0  0  0  0  0  0  0
   -4.5390    2.1070   -1.6300 O   0  0  0  0  0  0  0  0  0  0  0  0
   -2.5600    2.0020   -0.3940 C   0  0  0  0  0  0  0  0  0  0  0  0
   -3.3210    2.6040    0.7750 C   0  0  2  0  0  0  0  0  0  0  0  0
   -3.8950    3.9540    0.4870 C   0  0  0  0  0  0  0  0  0  0  0  0
   -2.7350    2.3860    2.1100 C   0  0  0  0  0  0  0  0  0  0  0  0
   -1.6410    3.0590    2.6110 N   0  0  2  0  0  0  0  0  0  0  0  0
   -1.2130    4.3080    2.0560 C   0  0  0  0  0  0  0  0  0  0  0  0
   -1.5460    5.4990    2.9710 C   0  0  0  0  0  0  0  0  0  0  0  0
   -0.4560    2.2310    2.7550 C   0  0  0  0  0  0  0  0  0  0  0  0
   -0.6000    1.0300    3.6280 C   0  0  0  0  0  0  0  0  0  0  0  0
    0.0810   -0.0580    2.8870 N   0  0  0  0  0  0  0  0  0  0  0  0
   -0.4390   -0.7420    1.7020 C   0  0  0  0  0  0  0  0  0  0  0  0
    0.7020   -0.9140    0.7800 C   0  0  0  0  0  0  0  0  0  0  0  0
    0.6010   -1.4520   -0.3820 O   0  0  0  0  0  0  0  0  0  0  0  0
    1.9990   -0.5100    1.1300 N   0  0  0  0  0  0  0  0  0  0  0  0
    3.0660   -0.7380    0.1690 C   0  0  2  0  0  0  0  0  0  0  0  0
    3.8420   -1.9650    0.6390 C   0  0  0  0  0  0  0  0  0  0  0  0
    3.9350    0.4860    0.2960 C   0  0  2  0  0  0  0  0  0  0  0  0
    4.4730    0.5780    1.7090 C   0  0  0  0  0  0  0  0  0  0  0  0
    3.1080    1.7600    0.0850 C   0  0  0  0  0  0  0  0  0  0  0  0
    5.0490    0.4990   -0.6830 C   0  0  0  0  0  0  0  0  0  0  0  0
    4.5860    0.4750   -2.1220 C   0  0  0  0  0  0  0  0  0  0  0  0
    5.8100    0.4970   -3.0150 C   0  0  2  0  0  0  0  0  0  0  0  0
    5.4370    0.4800   -4.4860 C   0  0  0  0  0  0  0  0  0  0  0  0
    6.6880   -0.7130   -2.7710 C   0  0  0  0  0  0  0  0  0  0  0  0
   -1.5780   -1.3390    1.5300 C   0  0  0  0  0  0  0  0  0  0  0  0
   -2.5450   -2.0610    0.7280 C   0  0  0  0  0  0  0  0  0  0  0  0
   -2.8700   -3.3280    0.9330 C   0  0  0  0  0  0  0  0  0  0  0  0
   -2.3090   -4.1500    1.9750 C   0  0  0  0  0  0  0  0  0  0  0  0
   -2.6090   -5.4400    2.2340 C   0  0  0  0  0  0  0  0  0  0  0  0
   -1.8590   -5.8890    3.3220 O   0  0  0  0  0  0  0  0  0  0  0  0
   -0.7590   -4.9720    3.4570 C   0  0  0  0  0  0  0  0  0  0  0  0
   -1.3580   -3.7950    2.9090 O   0  0  0  0  0  0  0  0  0  0  0  0
   -3.2850   -1.3670   -0.3690 C   0  0  2  0  0  0  0  0  0  0  0  0
   -4.5790   -2.0210   -0.4940 N   0  0  0  0  0  0  0  0  0  0  0  0
  1  2  1  0
  2  3  1  0
  4  3  1  6
  4  5  1  0
  4 40  1  0
  5  6  1  0
  6  7  2  0
  6  8  1  0
  8  9  1  0
  9 10  1  6
  9 11  1  0
 11 12  1  0
 12 13  1  6
 12 15  1  0
 13 14  1  0
 15 16  1  0
 16 17  1  0
 17 18  1  0
 18 19  1  0
 18 32  2  0
 19 20  2  0
 19 21  1  0
 21 22  1  0
 22 23  1  1
 22 24  1  0
 24 25  1  1
 24 26  1  0
 24 27  1  0
 27 28  1  0
 28 29  1  0
 29 30  1  6
 29 31  1  0
 32 33  1  0
 33 34  2  3
 33 40  1  0
 34 35  1  0
 35 36  2  0
 35 39  1  0
 36 37  1  0
 37 38  1  0
 38 39  1  0
 40 41  1  6
M  CHG  2  12   1  41   1
M  END
