
     RDKit          3D

 42 44  0  0  0  0  0  0  0  0999 V2000
   -6.0970   -0.9270   -2.7640 C   0  0  0  0  0  0  0  0  0  0  0  0
   -6.0610    0.5130   -2.2370 C   0  0  1  0  0  0  0  0  0  0  0  0
   -7.3830    1.1220   -2.7320 C   0  0  0  0  0  0  0  0  0  0  0  0
   -8.4530    0.3510   -2.3510 O   0  0  0  0  0  0  0  0  0  0  0  0
   -6.0300    0.3830   -0.8000 N   0  0  0  0  0  0  0  0  0  0  0  0
   -5.3320    1.3930   -0.1020 C   0  0  1  0  0  0  0  0  0  0  0  0
   -6.0820    2.7370   -0.1870 C   0  0  0  0  0  0  0  0  0  0  0  0
   -5.3470    1.0020    1.3830 C   0  0  0  0  0  0  0  0  0  0  0  0
   -3.9180    1.7030   -0.4810 C   0  0  0  0  0  0  0  0  0  0  0  0
   -2.8880    0.8140   -0.4290 C   0  0  0  0  0  0  0  0  0  0  0  0
   -1.6950    1.7640   -0.5770 O   0  0  0  0  0  0  0  0  0  0  0  0
   -2.1580   -0.3340   -0.3280 N   0  0  0  0  0  0  0  0  0  0  0  0
   -2.8680   -1.6460   -0.2390 C   0  0  0  0  0  0  0  0  0  0  0  0
   -2.7360   -2.1840   -1.6660 C   0  0  0  0  0  0  0  0  0  0  0  0
   -1.2820   -2.4060   -1.9280 C   0  0  0  0  0  0  0  0  0  0  0  0
   -0.3310   -1.8350   -0.9470 C   0  0  0  0  0  0  0  0  0  0  0  0
   -0.7370   -0.4880   -0.3680 C   0  0  2  0  0  0  0  0  0  0  0  0
   -0.0280   -0.2520    0.9020 C   0  0  2  0  0  0  0  0  0  0  0  0
    1.4540   -0.3960    0.7410 N   0  0  0  0  0  0  0  0  0  0  0  0
    1.9400    0.6780   -0.0330 C   0  0  0  0  0  0  0  0  0  0  0  0
    3.2900    1.1790   -0.0460 C   0  0  0  0  0  0  0  0  0  0  0  0
    3.4570    2.2500   -0.8050 O   0  0  0  0  0  0  0  0  0  0  0  0
    4.4950    0.7930    0.5700 N   0  0  0  0  0  0  0  0  0  0  0  0
    5.6770    1.6100    0.4070 C   0  0  0  0  0  0  0  0  0  0  0  0
    6.5740    1.3160   -0.6680 C   0  0  0  0  0  0  0  0  0  0  0  0
    6.9690    2.0080   -1.7190 C   0  0  0  0  0  0  0  0  0  0  0  0
    6.5190    3.3770   -2.0160 C   0  0  0  0  0  0  0  0  0  0  0  0
    7.6270    4.4170   -1.9680 C   0  0  0  0  0  0  0  0  0  0  0  0
    8.0510    4.3650   -0.4470 C   0  0  0  0  0  0  0  0  0  0  0  0
    8.3330    4.3280    0.6390 N   0  0  0  0  0  0  0  0  0  0  0  0
    4.6360   -0.4020    1.3660 C   0  0  0  0  0  0  0  0  0  0  0  0
    4.9970   -1.6040    0.5370 C   0  0  1  0  0  0  0  0  0  0  0  0
    4.8970   -2.8580    1.4060 C   0  0  0  0  0  0  0  0  0  0  0  0
    4.7420   -3.9000    0.2950 C   0  0  0  0  0  0  0  0  0  0  0  0
    3.8670   -3.1610   -0.6670 C   0  0  0  0  0  0  0  0  0  0  0  0
    4.0610   -1.8250   -0.4740 O   0  0  0  0  0  0  0  0  0  0  0  0
   -0.5090   -0.8580    2.1520 C   0  0  2  0  0  0  0  0  0  0  0  0
   -1.8470   -0.4040    2.6380 C   0  0  0  0  0  0  0  0  0  0  0  0
   -1.6460   -0.1670    4.1400 C   0  0  0  0  0  0  0  0  0  0  0  0
   -0.5330   -0.9110    4.4150 O   0  0  0  0  0  0  0  0  0  0  0  0
    0.3790   -0.7660    3.3500 C   0  0  1  0  0  0  0  0  0  0  0  0
    1.3000   -1.9750    3.4790 C   0  0  0  0  0  0  0  0  0  0  0  0
  2  1  1  6
  2  3  1  0
  2  5  1  0
  3  4  1  0
  5  6  1  0
  6  7  1  1
  6  8  1  0
  6  9  1  0
  9 10  1  0
 10 11  2  0
 10 12  1  0
 12 13  1  0
 12 17  1  0
 13 14  1  0
 14 15  1  0
 15 16  1  0
 17 16  1  1
 17 18  1  0
 18 19  1  6
 18 37  1  0
 19 20  1  0
 20 21  1  0
 21 22  2  0
 21 23  1  0
 23 24  1  0
 23 31  1  0
 24 25  1  0
 25 26  2  3
 26 27  1  0
 27 28  1  0
 28 29  1  0
 29 30  3  0
 32 31  1  1
 32 33  1  0
 32 36  1  0
 33 34  1  0
 34 35  1  0
 35 36  1  0
 37 38  1  1
 37 41  1  0
 38 39  1  0
 39 40  1  0
 40 41  1  0
 41 42  1  6
M  CHG  2   5   1  19   1
M  END
