
     RDKit          3D

 42 46  0  0  0  0  0  0  0  0999 V2000
   -1.5950   -1.8930    2.5990 C   0  0  0  0  0  0  0  0  0  0  0  0
   -1.5900   -1.8240    1.1530 N   0  0  0  0  0  0  0  0  0  0  0  0
   -0.6600   -2.7070    0.4750 C   0  0  0  0  0  0  0  0  0  0  0  0
    0.0340   -3.4660    1.1930 O   0  0  0  0  0  0  0  0  0  0  0  0
   -0.5490   -2.7050   -0.9710 C   0  0  0  0  0  0  0  0  0  0  0  0
   -1.3620   -3.3540   -1.8720 C   0  0  0  0  0  0  0  0  0  0  0  0
   -0.9350   -3.0570   -3.1150 N   0  0  0  0  0  0  0  0  0  0  0  0
    0.0950   -2.2620   -2.9950 N   0  0  0  0  0  0  0  0  0  0  0  0
    0.3850   -2.0070   -1.6870 C   0  0  0  0  0  0  0  0  0  0  0  0
    1.5060   -1.1760   -1.2710 C   0  0  0  0  0  0  0  0  0  0  0  0
    1.4400   -0.2180   -0.2930 C   0  0  0  0  0  0  0  0  0  0  0  0
    2.5530    0.5520    0.0750 C   0  0  0  0  0  0  0  0  0  0  0  0
    3.7710    0.3690   -0.5420 C   0  0  0  0  0  0  0  0  0  0  0  0
    4.8930    1.1320   -0.1830 O   0  0  0  0  0  0  0  0  0  0  0  0
    6.1030    0.8740   -0.8660 C   0  0  0  0  0  0  0  0  0  0  0  0
    7.1500    1.7930   -0.3200 C   0  0  0  0  0  0  0  0  0  0  0  0
    7.5960    2.8870   -1.0280 C   0  0  0  0  0  0  0  0  0  0  0  0
    8.5660    3.7120   -0.4990 C   0  0  0  0  0  0  0  0  0  0  0  0
    9.1340    3.5030    0.7360 C   0  0  0  0  0  0  0  0  0  0  0  0
   10.1490    4.3580    1.2720 C   0  0  0  0  0  0  0  0  0  0  0  0
   10.9720    5.0800    1.7160 N   0  0  0  0  0  0  0  0  0  0  0  0
    8.6750    2.3910    1.4500 C   0  0  0  0  0  0  0  0  0  0  0  0
    7.7080    1.5660    0.9250 C   0  0  0  0  0  0  0  0  0  0  0  0
    3.8500   -0.5890   -1.5260 C   0  0  0  0  0  0  0  0  0  0  0  0
    2.7540   -1.3440   -1.8860 C   0  0  0  0  0  0  0  0  0  0  0  0
   -2.4350   -1.0060    0.3430 C   0  0  1  0  0  0  0  0  0  0  0  0
   -3.8620   -1.3810    0.5790 C   0  0  0  0  0  0  0  0  0  0  0  0
   -4.1010   -2.2800    1.3990 O   0  0  0  0  0  0  0  0  0  0  0  0
   -4.9270   -0.7480   -0.0950 N   0  0  0  0  0  0  0  0  0  0  0  0
   -6.2890   -1.0750    0.1060 C   0  0  0  0  0  0  0  0  0  0  0  0
   -6.8330   -2.0130    0.9440 C   0  0  0  0  0  0  0  0  0  0  0  0
   -8.2290   -2.0000    0.8210 C   0  0  0  0  0  0  0  0  0  0  0  0
   -8.4890   -1.0510   -0.0900 N   0  0  0  0  0  0  0  0  0  0  0  0
   -9.8510   -0.7100   -0.5170 C   0  0  0  0  0  0  0  0  0  0  0  0
   -7.3650   -0.5080   -0.5100 N   0  0  0  0  0  0  0  0  0  0  0  0
   -2.2600    0.4540    0.5050 C   0  0  0  0  0  0  0  0  0  0  0  0
   -2.0520    1.2670   -0.6140 C   0  0  0  0  0  0  0  0  0  0  0  0
   -1.9030    2.6070   -0.4540 C   0  0  0  0  0  0  0  0  0  0  0  0
   -1.9450    3.2400    0.7910 C   0  0  0  0  0  0  0  0  0  0  0  0
   -2.1510    2.4140    1.8710 C   0  0  0  0  0  0  0  0  0  0  0  0
   -2.2260    3.1390    3.4900 Cl  0  0  0  0  0  0  0  0  0  0  0  0
   -2.3070    1.0460    1.7480 C   0  0  0  0  0  0  0  0  0  0  0  0
  1  2  1  0
  2  3  1  0
 26  2  1  1
  3  4  2  0
  3  5  1  0
  5  6  2  0
  5  9  1  0
  6  7  1  0
  7  8  1  0
  8  9  2  0
  9 10  1  0
 10 11  2  0
 10 25  1  0
 11 12  1  0
 12 13  2  0
 13 14  1  0
 13 24  1  0
 14 15  1  0
 15 16  1  0
 16 17  2  0
 16 23  1  0
 17 18  1  0
 18 19  2  0
 19 20  1  0
 19 22  1  0
 20 21  3  0
 22 23  2  0
 24 25  2  0
 26 27  1  0
 26 36  1  0
 27 28  2  0
 27 29  1  0
 29 30  1  0
 30 31  1  0
 30 35  2  0
 31 32  2  0
 32 33  1  0
 33 34  1  0
 33 35  1  0
 36 37  2  0
 36 42  1  0
 37 38  1  0
 38 39  2  0
 39 40  1  0
 40 41  1  0
 40 42  2  0
M  END
