
     RDKit          3D

 42 46  0  0  0  0  0  0  0  0999 V2000
    2.3130    3.5490   -2.1890 C   0  0  0  0  0  0  0  0  0  0  0  0
    2.7770    3.6900   -0.8930 O   0  0  0  0  0  0  0  0  0  0  0  0
    2.6470    2.4600   -0.1940 C   0  0  0  0  0  0  0  0  0  0  0  0
    3.1590    2.6870    1.1890 C   0  0  0  0  0  0  0  0  0  0  0  0
    3.1310    1.4890    2.1000 C   0  0  0  0  0  0  0  0  0  0  0  0
    3.9280    0.3990    1.6190 N   0  0  0  0  0  0  0  0  0  0  0  0
    5.2730    0.3590    1.8670 C   0  0  0  0  0  0  0  0  0  0  0  0
    5.8160   -0.7610    1.2850 C   0  0  0  0  0  0  0  0  0  0  0  0
    7.2440   -1.2230    1.2930 C   0  0  0  0  0  0  0  0  0  0  0  0
    4.7520   -1.3890    0.6810 C   0  0  0  0  0  0  0  0  0  0  0  0
    3.5750   -0.6590    0.8950 C   0  0  0  0  0  0  0  0  0  0  0  0
    2.2140   -1.0330    0.4310 C   0  0  0  0  0  0  0  0  0  0  0  0
    1.2720   -0.3560    0.7770 N   0  0  0  0  0  0  0  0  0  0  0  0
   -0.0550   -0.1120    0.7630 C   0  0  0  0  0  0  0  0  0  0  0  0
   -0.8340   -0.6750    1.7460 N   0  0  0  0  0  0  0  0  0  0  0  0
   -2.1550   -0.4860    1.8500 C   0  0  0  0  0  0  0  0  0  0  0  0
   -2.9360   -1.0820    2.9280 C   0  0  0  0  0  0  0  0  0  0  0  0
   -4.2380   -0.8850    2.9400 C   0  0  0  0  0  0  0  0  0  0  0  0
   -5.0310   -1.4890    4.0400 C   0  0  0  0  0  0  0  0  0  0  0  0
   -4.2700   -2.2260    4.9540 O   0  0  0  0  0  0  0  0  0  0  0  0
   -2.9130   -2.4100    4.9130 C   0  0  0  0  0  0  0  0  0  0  0  0
   -2.2320   -1.8540    3.9190 C   0  0  0  0  0  0  0  0  0  0  0  0
   -2.7620    0.2870    0.9590 N   0  0  0  0  0  0  0  0  0  0  0  0
   -2.0730    0.8740   -0.0330 C   0  0  0  0  0  0  0  0  0  0  0  0
   -2.8040    1.7370   -0.9880 C   0  0  1  0  0  0  0  0  0  0  0  0
   -4.0300    1.0400   -1.4830 C   0  0  0  0  0  0  0  0  0  0  0  0
   -4.9270    1.9090   -2.3070 C   0  0  0  0  0  0  0  0  0  0  0  0
   -5.3230    3.1660   -1.5970 C   0  0  0  0  0  0  0  0  0  0  0  0
   -4.0740    3.8690   -1.1130 C   0  0  0  0  0  0  0  0  0  0  0  0
   -3.2880    2.9560   -0.1850 C   0  0  0  0  0  0  0  0  0  0  0  0
   -0.7550    0.6530   -0.0920 N   0  0  0  0  0  0  0  0  0  0  0  0
    2.0290   -2.1830   -0.3930 N   0  0  0  0  0  0  0  0  0  0  0  0
    1.3120   -2.1600   -1.6330 C   0  0  0  0  0  0  0  0  0  0  0  0
    0.9820   -1.0100   -2.2730 C   0  0  0  0  0  0  0  0  0  0  0  0
    0.3420   -1.0400   -3.4910 C   0  0  0  0  0  0  0  0  0  0  0  0
    0.0290   -2.2390   -4.0820 C   0  0  0  0  0  0  0  0  0  0  0  0
    0.3620   -3.4440   -3.4380 C   0  0  0  0  0  0  0  0  0  0  0  0
    0.9980   -3.4010   -2.2240 C   0  0  0  0  0  0  0  0  0  0  0  0
    1.2900   -4.6010   -1.5410 N   0  0  0  0  0  0  0  0  0  0  0  0
    1.1950   -5.8760   -2.1370 C   0  0  0  0  0  0  0  0  0  0  0  0
    0.8580   -6.1090   -3.3130 O   0  0  0  0  0  0  0  0  0  0  0  0
    1.6050   -7.2580   -1.0700 Cl  0  0  0  0  0  0  0  0  0  0  0  0
  1  2  1  0
  2  3  1  0
  3  4  1  0
  4  5  1  0
  5  6  1  0
  6  7  1  0
  6 11  1  0
  7  8  2  0
  8  9  1  0
  8 10  1  0
 10 11  2  0
 11 12  1  0
 12 13  2  3
 12 32  1  0
 13 14  1  0
 14 15  2  0
 14 31  1  0
 15 16  1  0
 16 17  1  0
 16 23  2  0
 17 18  2  0
 17 22  1  0
 18 19  1  0
 19 20  1  0
 20 21  1  0
 21 22  2  0
 23 24  1  0
 25 24  1  1
 24 31  2  0
 25 26  1  0
 25 30  1  0
 26 27  1  0
 27 28  1  0
 28 29  1  0
 29 30  1  0
 32 33  1  0
 33 34  2  0
 33 38  1  0
 34 35  1  0
 35 36  2  0
 36 37  1  0
 37 38  2  0
 38 39  1  0
 39 40  1  0
 40 41  2  0
 40 42  1  0
M  END
