
     RDKit          3D

 42 44  0  0  0  0  0  0  0  0999 V2000
   -4.0730   -3.9280    2.5550 C   0  0  0  0  0  0  0  0  0  0  0  0
   -3.3750   -4.2420    1.2450 C   0  0  0  0  0  0  0  0  0  0  0  0
   -4.0700   -3.5810    0.0780 C   0  0  1  0  0  0  0  0  0  0  0  0
   -4.1100   -2.0750    0.2000 C   0  0  0  0  0  0  0  0  0  0  0  0
   -2.7780   -1.4570   -0.1180 C   0  0  2  0  0  0  0  0  0  0  0  0
   -2.7200   -0.0290    0.0340 N   0  0  1  0  0  0  0  0  0  0  0  0
   -1.4510    0.3510    0.4770 C   0  0  0  0  0  0  0  0  0  0  0  0
   -0.3100    0.6100   -0.3540 C   0  0  0  0  0  0  0  0  0  0  0  0
   -0.2740    0.9770   -1.6750 C   0  0  0  0  0  0  0  0  0  0  0  0
    0.9120    1.1920   -2.3330 C   0  0  0  0  0  0  0  0  0  0  0  0
    0.8540    1.5860   -3.7640 C   0  0  0  0  0  0  0  0  0  0  0  0
    2.1440    1.0440   -1.6720 C   0  0  0  0  0  0  0  0  0  0  0  0
    2.1580    0.6800   -0.3560 C   0  0  0  0  0  0  0  0  0  0  0  0
    3.3680    0.5070    0.4040 N   0  0  0  0  0  0  0  0  0  0  0  0
    4.4750   -0.3330    0.0600 C   0  0  0  0  0  0  0  0  0  0  0  0
    5.5540    0.4100   -0.6420 C   0  0  0  0  0  0  0  0  0  0  0  0
    6.7410   -0.3900   -1.0580 C   0  0  1  0  0  0  0  0  0  0  0  0
    7.7080    0.5880   -1.7580 C   0  0  0  0  0  0  0  0  0  0  0  0
    7.4930   -1.0450   -0.0530 N   0  0  1  0  0  0  0  0  0  0  0  0
    7.8080   -0.2700    1.1210 C   0  0  0  0  0  0  0  0  0  0  0  0
    8.0490   -1.2870    2.2260 C   0  0  0  0  0  0  0  0  0  0  0  0
    7.1180   -2.3710    1.8090 C   0  0  0  0  0  0  0  0  0  0  0  0
    6.5500   -3.1140    2.5960 O   0  0  0  0  0  0  0  0  0  0  0  0
    7.0480   -2.3430    0.3410 C   0  0  0  0  0  0  0  0  0  0  0  0
    3.4330    1.1890    1.6510 C   0  0  0  0  0  0  0  0  0  0  0  0
    4.5610    1.0900    2.5020 N   0  0  0  0  0  0  0  0  0  0  0  0
    2.4420    1.9060    2.0040 O   0  0  0  0  0  0  0  0  0  0  0  0
    0.9360    0.4780    0.2530 C   0  0  0  0  0  0  0  0  0  0  0  0
   -3.5540    0.7640   -0.7420 C   0  0  0  0  0  0  0  0  0  0  0  0
   -3.9890    2.1090   -0.2410 C   0  0  1  0  0  0  0  0  0  0  0  0
   -2.9600    3.1130    0.0590 C   0  0  0  0  0  0  0  0  0  0  0  0
   -4.8320    2.6740   -1.2410 O   0  0  0  0  0  0  0  0  0  0  0  0
   -4.9060    2.0020    0.9650 C   0  0  0  0  0  0  0  0  0  0  0  0
   -5.3710    3.3290    1.4850 C   0  0  2  0  0  0  0  0  0  0  0  0
   -6.2840    3.0850    2.6990 C   0  0  0  0  0  0  0  0  0  0  0  0
   -6.2370    3.9480    0.4900 N   0  0  0  0  0  0  0  0  0  0  0  0
   -6.0600    5.2780    0.0690 C   0  0  0  0  0  0  0  0  0  0  0  0
   -5.1210    5.9430    0.5790 O   0  0  0  0  0  0  0  0  0  0  0  0
   -2.2240   -2.0950   -1.3120 C   0  0  0  0  0  0  0  0  0  0  0  0
   -3.3260   -2.9120   -2.0000 C   0  0  1  0  0  0  0  0  0  0  0  0
   -2.6700   -3.4750   -3.2640 C   0  0  0  0  0  0  0  0  0  0  0  0
   -3.5730   -3.9930   -1.1510 O   0  0  0  0  0  0  0  0  0  0  0  0
  1  2  1  0
  3  2  1  1
  3  4  1  0
  3 42  1  0
  5  4  1  6
  5  6  1  0
  5 39  1  0
  6  7  1  6
  6 29  1  0
  7  8  1  0
  8  9  2  0
  8 28  1  0
  9 10  1  0
 10 11  1  0
 10 12  2  0
 12 13  1  0
 13 14  1  0
 13 28  2  0
 14 15  1  0
 14 25  1  0
 15 16  1  0
 16 17  1  0
 17 18  1  1
 17 19  1  0
 19 20  1  1
 19 24  1  0
 20 21  1  0
 21 22  1  0
 22 23  2  0
 22 24  1  0
 25 26  1  0
 25 27  2  0
 29 30  1  0
 30 31  1  1
 30 32  1  0
 30 33  1  0
 33 34  1  0
 34 35  1  1
 34 36  1  0
 36 37  1  0
 37 38  2  0
 39 40  1  0
 40 41  1  6
 40 42  1  0
M  CHG  2   6   1  19   1
M  END
