
     RDKit          3D

 42 46  0  0  0  0  0  0  0  0999 V2000
   -1.4940   -1.5700   -2.5440 C   0  0  0  0  0  0  0  0  0  0  0  0
   -0.7740   -0.2600   -2.7610 C   0  0  0  0  0  0  0  0  0  0  0  0
   -0.3950    0.3740   -1.4910 C   0  0  0  0  0  0  0  0  0  0  0  0
    0.9020    0.3340   -1.0730 C   0  0  0  0  0  0  0  0  0  0  0  0
    1.3050    0.9080    0.0960 C   0  0  0  0  0  0  0  0  0  0  0  0
    2.6980    0.8350    0.5200 C   0  0  0  0  0  0  0  0  0  0  0  0
    3.2480    1.3490    1.6140 N   0  0  0  0  0  0  0  0  0  0  0  0
    4.5600    1.0770    1.6840 C   0  0  0  0  0  0  0  0  0  0  0  0
    5.7330    1.5170    2.9050 Cl  0  0  0  0  0  0  0  0  0  0  0  0
    4.8150    0.3550    0.5600 N   0  0  0  0  0  0  0  0  0  0  0  0
    6.0960   -0.1500    0.2280 C   0  0  0  0  0  0  0  0  0  0  0  0
    7.1660    0.6990    0.1110 C   0  0  0  0  0  0  0  0  0  0  0  0
    8.4340    0.2720   -0.2110 C   0  0  0  0  0  0  0  0  0  0  0  0
    8.6090   -1.0970   -0.4210 C   0  0  0  0  0  0  0  0  0  0  0  0
    9.9200   -1.5490   -0.7590 N   0  0  0  0  0  0  0  0  0  0  0  0
   11.0660   -1.4260    0.0990 C   0  0  0  0  0  0  0  0  0  0  0  0
   12.1650   -2.1170   -0.6900 C   0  0  0  0  0  0  0  0  0  0  0  0
   11.6690   -2.2430   -2.0190 O   0  0  0  0  0  0  0  0  0  0  0  0
   10.2850   -2.1770   -1.9780 C   0  0  0  0  0  0  0  0  0  0  0  0
    9.4480   -2.5850   -2.8370 O   0  0  0  0  0  0  0  0  0  0  0  0
    7.5730   -1.9770   -0.3150 C   0  0  0  0  0  0  0  0  0  0  0  0
    6.3180   -1.4880    0.0110 C   0  0  0  0  0  0  0  0  0  0  0  0
    3.7050    0.2020   -0.1480 N   0  0  0  0  0  0  0  0  0  0  0  0
    0.3900    1.5550    0.8950 C   0  0  0  0  0  0  0  0  0  0  0  0
   -0.9480    1.5890    0.4500 C   0  0  0  0  0  0  0  0  0  0  0  0
   -1.3530    1.0190   -0.7100 C   0  0  0  0  0  0  0  0  0  0  0  0
   -2.6840    1.0200   -1.1660 N   0  0  0  0  0  0  0  0  0  0  0  0
   -3.7940    1.6120   -0.5240 C   0  0  0  0  0  0  0  0  0  0  0  0
   -3.6850    2.2240    0.5590 O   0  0  0  0  0  0  0  0  0  0  0  0
   -5.1350    1.4690   -1.2050 C   0  0  0  0  0  0  0  0  0  0  0  0
   -6.1990    2.1040   -0.4010 C   0  0  0  0  0  0  0  0  0  0  0  0
   -6.7730    3.3380   -0.7150 C   0  0  0  0  0  0  0  0  0  0  0  0
   -7.6730    3.5730    0.2360 N   0  0  0  0  0  0  0  0  0  0  0  0
   -7.6920    2.5440    1.1340 C   0  0  0  0  0  0  0  0  0  0  0  0
   -8.5710    2.4660    2.3260 C   0  0  0  0  0  0  0  0  0  0  0  0
   -6.7700    1.6020    0.7540 C   0  0  0  0  0  0  0  0  0  0  0  0
   -6.4300    0.3040    1.3950 C   0  0  0  0  0  0  0  0  0  0  0  0
   -7.1360   -0.1160    2.6720 C   0  0  0  0  0  0  0  0  0  0  0  0
   -5.6380   -0.3980    0.9210 N   0  0  0  0  0  0  0  0  0  0  0  0
   -4.7770   -1.4370    0.6450 C   0  0  1  0  0  0  0  0  0  0  0  0
   -4.1100   -1.9300    1.9460 C   0  0  0  0  0  0  0  0  0  0  0  0
   -5.6160   -2.6080    0.0730 C   0  0  0  0  0  0  0  0  0  0  0  0
  1  2  1  0
  2  3  1  0
  3  4  2  0
  3 26  1  0
  4  5  1  0
  5  6  1  0
  5 24  2  0
  6  7  1  0
  6 23  2  0
  7  8  2  0
  8  9  1  0
  8 10  1  0
 10 11  1  0
 10 23  1  0
 11 12  2  0
 11 22  1  0
 12 13  1  0
 13 14  2  0
 14 15  1  0
 14 21  1  0
 15 16  1  0
 15 19  1  0
 16 17  1  0
 17 18  1  0
 18 19  1  0
 19 20  2  0
 21 22  2  0
 24 25  1  0
 25 26  2  0
 26 27  1  0
 27 28  1  0
 28 29  2  0
 28 30  1  0
 30 31  1  0
 31 32  2  0
 31 36  1  0
 32 33  1  0
 33 34  1  0
 34 35  1  0
 34 36  2  0
 36 37  1  0
 37 38  1  0
 37 39  2  3
 39 40  1  0
 40 41  1  1
 40 42  1  0
M  END
