
     RDKit          3D

 42 44  0  0  0  0  0  0  0  0999 V2000
   -5.7530   -0.0220   -0.2100 C   0  0  0  0  0  0  0  0  0  0  0  0
   -5.0840   -1.1390   -0.9750 C   0  0  0  0  0  0  0  0  0  0  0  0
   -4.0670   -1.8530   -0.1620 C   0  0  0  0  0  0  0  0  0  0  0  0
   -2.8130   -1.3530    0.0620 C   0  0  0  0  0  0  0  0  0  0  0  0
   -2.4480   -0.1000   -0.4990 N   0  0  0  0  0  0  0  0  0  0  0  0
   -2.7370    1.1660    0.0660 C   0  0  0  0  0  0  0  0  0  0  0  0
   -2.9170    2.2340   -0.7270 C   0  0  0  0  0  0  0  0  0  0  0  0
   -2.8300    2.1620   -2.2040 C   0  0  1  0  0  0  0  0  0  0  0  0
   -4.1540    2.7470   -2.7650 C   0  0  0  0  0  0  0  0  0  0  0  0
   -1.7720    2.9680   -2.8120 C   0  0  0  0  0  0  0  0  0  0  0  0
   -0.8450    2.3290   -3.4060 O   0  0  0  0  0  0  0  0  0  0  0  0
   -1.6590    4.3290   -2.8170 O   0  0  0  0  0  0  0  0  0  0  0  0
   -3.2200    3.4890   -0.0580 C   0  0  0  0  0  0  0  0  0  0  0  0
   -2.8510    4.5660   -0.5720 O   0  0  0  0  0  0  0  0  0  0  0  0
   -3.9570    3.5860    1.2300 C   0  0  0  0  0  0  0  0  0  0  0  0
   -3.8950    2.2920    1.9980 C   0  0  2  0  0  0  0  0  0  0  0  0
   -3.5270    2.6620    3.4470 C   0  0  0  0  0  0  0  0  0  0  0  0
   -2.8530    1.3570    1.5230 C   0  0  0  0  0  0  0  0  0  0  0  0
   -1.8720   -2.0580    0.8410 C   0  0  0  0  0  0  0  0  0  0  0  0
   -0.6150   -1.4530    1.0150 C   0  0  0  0  0  0  0  0  0  0  0  0
   -0.4480   -0.3010    0.4070 O   0  0  0  0  0  0  0  0  0  0  0  0
    0.5550   -1.7900    1.7140 N   0  0  0  0  0  0  0  0  0  0  0  0
    1.7180   -0.9310    1.7270 C   0  0  0  0  0  0  0  0  0  0  0  0
    2.3460   -0.6240    0.4230 C   0  0  2  0  0  0  0  0  0  0  0  0
    2.8520   -1.7800   -0.3680 C   0  0  0  0  0  0  0  0  0  0  0  0
    4.1050   -2.1620    0.4060 C   0  0  0  0  0  0  0  0  0  0  0  0
    4.5870   -0.8140    0.9060 C   0  0  0  0  0  0  0  0  0  0  0  0
    3.5890    0.1550    0.6400 N   0  0  1  0  0  0  0  0  0  0  0  0
    3.8030    1.0530   -0.4390 C   0  0  0  0  0  0  0  0  0  0  0  0
    5.1800    1.6050   -0.5830 C   0  0  0  0  0  0  0  0  0  0  0  0
    5.1350    2.5430   -1.8030 C   0  0  0  0  0  0  0  0  0  0  0  0
    6.4250    3.1390   -2.0360 N   0  0  1  0  0  0  0  0  0  0  0  0
    6.9230    3.7950   -0.8350 C   0  0  0  0  0  0  0  0  0  0  0  0
    7.3970    2.1990   -2.5650 C   0  0  0  0  0  0  0  0  0  0  0  0
   -2.2790   -3.2520    1.3520 C   0  0  0  0  0  0  0  0  0  0  0  0
   -1.4190   -4.1430    2.1120 C   0  0  0  0  0  0  0  0  0  0  0  0
   -0.6350   -5.1440    1.3340 C   0  0  1  0  0  0  0  0  0  0  0  0
   -1.5830   -6.0890    0.5700 C   0  0  0  0  0  0  0  0  0  0  0  0
    0.3570   -4.6770    0.3480 C   0  0  0  0  0  0  0  0  0  0  0  0
   -3.5560   -3.7450    1.1180 N   0  0  0  0  0  0  0  0  0  0  0  0
   -4.4320   -3.0630    0.3770 C   0  0  0  0  0  0  0  0  0  0  0  0
   -5.6080   -3.5180    0.1600 O   0  0  0  0  0  0  0  0  0  0  0  0
  1  2  1  0
  2  3  1  0
  3  4  2  0
  3 41  1  0
  4  5  1  0
  4 19  1  0
  5  6  1  0
  6  7  2  0
  6 18  1  0
  7  8  1  0
  7 13  1  0
  8  9  1  6
  8 10  1  0
 10 11  2  0
 10 12  1  0
 13 14  2  0
 13 15  1  0
 15 16  1  0
 16 17  1  1
 16 18  1  0
 19 20  1  0
 19 35  2  0
 20 21  2  0
 20 22  1  0
 22 23  1  0
 24 23  1  1
 24 25  1  0
 24 28  1  0
 25 26  1  0
 26 27  1  0
 27 28  1  0
 28 29  1  6
 29 30  1  0
 30 31  1  0
 31 32  1  0
 32 33  1  1
 32 34  1  0
 35 36  1  0
 35 40  1  0
 36 37  1  0
 37 38  1  6
 37 39  1  0
 40 41  1  0
 41 42  2  0
M  CHG  2  28   1  32   1
M  END
