
     RDKit          3D

 16 16  0  0  0  0  0  0  0  0999 V2000
    1.3810   -1.3230   -0.7760 C   0  0  0  0  0  0  0  0  0  0  0  0
    1.0120   -0.1300    0.0780 C   0  0  2  0  0  0  0  0  0  0  0  0
    0.7330    0.9790   -0.9140 C   0  0  0  0  0  0  0  0  0  0  0  0
    1.9770    0.1140    0.9610 O   0  0  0  0  0  0  0  0  0  0  0  0
    3.2180    0.4770    0.7570 C   0  0  0  0  0  0  0  0  0  0  0  0
    4.1670   -0.3720   -0.0310 C   0  0  0  0  0  0  0  0  0  0  0  0
    5.4010    0.3340   -0.0280 O   0  0  0  0  0  0  0  0  0  0  0  0
   -0.2690   -0.3600    0.8820 C   0  0  1  0  0  0  0  0  0  0  0  0
   -0.4780    0.8230    1.6040 O   0  0  0  0  0  0  0  0  0  0  0  0
   -1.4700   -0.7010    0.0840 C   0  0  1  0  0  0  0  0  0  0  0  0
   -2.5900   -1.0070    1.0680 C   0  0  0  0  0  0  0  0  0  0  0  0
   -3.7530   -1.1220    0.2720 O   0  0  0  0  0  0  0  0  0  0  0  0
   -4.0910    0.1700   -0.0630 C   0  0  0  0  0  0  0  0  0  0  0  0
   -2.9880    0.8650   -0.7540 C   0  0  2  0  0  0  0  0  0  0  0  0
   -3.4090    1.1040   -2.0870 O   0  0  0  0  0  0  0  0  0  0  0  0
   -1.7810    0.2810   -0.8040 O   0  0  0  0  0  0  0  0  0  0  0  0
  2  1  1  6
  2  3  1  0
  2  4  1  0
  2  8  1  0
  4  5  1  0
  5  6  1  0
  6  7  1  0
  8  9  1  6
  8 10  1  0
 10 11  1  1
 10 16  1  0
 11 12  1  0
 12 13  1  0
 13 14  1  0
 14 15  1  6
 14 16  1  0
M  END
