
     RDKit          3D

 27 26  0  0  0  0  0  0  0  0999 V2000
    7.9430   -0.3780    0.3590 C   0  0  0  0  0  0  0  0  0  0  0  0
    6.8480    0.6080    0.6780 C   0  0  2  0  0  0  0  0  0  0  0  0
    6.3930    0.4730    2.0490 N   0  0  0  0  0  0  0  0  0  0  0  0
    5.6910    0.5190   -0.2320 C   0  0  0  0  0  0  0  0  0  0  0  0
    5.7950    0.5780   -1.4890 O   0  0  0  0  0  0  0  0  0  0  0  0
    4.3820    0.3610    0.2800 N   0  0  0  0  0  0  0  0  0  0  0  0
    3.2010    0.2670   -0.5880 C   0  0  2  0  0  0  0  0  0  0  0  0
    2.3360    1.4570   -0.4210 C   0  0  0  0  0  0  0  0  0  0  0  0
    1.0510    1.4910   -1.1780 C   0  0  0  0  0  0  0  0  0  0  0  0
    0.0560    0.5150   -0.6750 C   0  0  0  0  0  0  0  0  0  0  0  0
    0.1440   -0.0300    0.4860 O   0  0  0  0  0  0  0  0  0  0  0  0
   -1.0600    0.1220   -1.4530 N   0  0  0  0  0  0  0  0  0  0  0  0
   -2.0430   -0.8500   -0.9440 C   0  0  1  0  0  0  0  0  0  0  0  0
   -3.3920   -0.1950   -0.8530 C   0  0  0  0  0  0  0  0  0  0  0  0
   -4.4620   -1.0860   -0.3330 C   0  0  0  0  0  0  0  0  0  0  0  0
   -5.7930   -0.3700   -0.2430 C   0  0  0  0  0  0  0  0  0  0  0  0
   -5.7840    0.8310    0.6580 C   0  0  1  0  0  0  0  0  0  0  0  0
   -7.1220    1.3980    0.6390 N   0  0  0  0  0  0  0  0  0  0  0  0
   -5.4080    0.5090    2.0530 C   0  0  0  0  0  0  0  0  0  0  0  0
   -6.2350    0.7010    2.9640 O   0  0  0  0  0  0  0  0  0  0  0  0
   -4.1740    0.0080    2.3600 O   0  0  0  0  0  0  0  0  0  0  0  0
   -2.0620   -1.9690   -1.8940 C   0  0  0  0  0  0  0  0  0  0  0  0
   -1.3710   -1.9450   -2.9720 O   0  0  0  0  0  0  0  0  0  0  0  0
   -2.8330   -3.0860   -1.6420 O   0  0  0  0  0  0  0  0  0  0  0  0
    2.5840   -1.0270   -0.4470 C   0  0  0  0  0  0  0  0  0  0  0  0
    2.8330   -1.7820    0.5520 O   0  0  0  0  0  0  0  0  0  0  0  0
    1.6760   -1.5840   -1.3720 O   0  0  0  0  0  0  0  0  0  0  0  0
  2  1  1  6
  2  3  1  0
  2  4  1  0
  4  5  2  0
  4  6  1  0
  6  7  1  0
  7  8  1  1
  7 25  1  0
  8  9  1  0
  9 10  1  0
 10 11  2  0
 10 12  1  0
 12 13  1  0
 13 14  1  6
 13 22  1  0
 14 15  1  0
 15 16  1  0
 16 17  1  0
 17 18  1  1
 17 19  1  0
 19 20  2  0
 19 21  1  0
 22 23  2  0
 22 24  1  0
 25 26  2  0
 25 27  1  0
M  CHG  2   3   1  18   1
M  END
