
     RDKit          3D

 16 16  0  0  0  0  0  0  0  0999 V2000
   -2.9520   -1.2610   -1.4260 C   0  0  0  0  0  0  0  0  0  0  0  0
   -2.7110   -0.3910   -0.2400 C   0  0  2  0  0  0  0  0  0  0  0  0
   -2.5110   -1.2380    0.8720 O   0  0  0  0  0  0  0  0  0  0  0  0
   -3.9760    0.3870    0.0540 C   0  0  0  0  0  0  0  0  0  0  0  0
   -3.8310    1.1350    1.2270 O   0  0  0  0  0  0  0  0  0  0  0  0
   -1.5260    0.5230   -0.3920 C   0  0  0  0  0  0  0  0  0  0  0  0
   -0.2410   -0.1970   -0.6080 C   0  0  1  0  0  0  0  0  0  0  0  0
   -0.3720   -0.9580   -1.7930 O   0  0  0  0  0  0  0  0  0  0  0  0
    0.8820    0.7690   -0.8510 C   0  0  2  0  0  0  0  0  0  0  0  0
    2.1280   -0.0560   -1.1500 C   0  0  0  0  0  0  0  0  0  0  0  0
    3.2850    0.5920   -0.7980 O   0  0  0  0  0  0  0  0  0  0  0  0
    3.3770    0.7370    0.5630 C   0  0  2  0  0  0  0  0  0  0  0  0
    3.8380   -0.5470    1.2470 C   0  0  0  0  0  0  0  0  0  0  0  0
    5.1060   -0.9250    0.7690 O   0  0  0  0  0  0  0  0  0  0  0  0
    2.0350    1.0970    1.1270 C   0  0  0  0  0  0  0  0  0  0  0  0
    1.1480    1.5940    0.2070 O   0  0  0  0  0  0  0  0  0  0  0  0
  2  1  1  6
  2  3  1  0
  2  4  1  0
  2  6  1  0
  4  5  1  0
  6  7  1  0
  7  8  1  6
  7  9  1  0
  9 10  1  1
  9 16  1  0
 10 11  1  0
 11 12  1  0
 12 13  1  1
 12 15  1  0
 13 14  1  0
 15 16  1  0
M  END
