
     RDKit          3D

 16 16  0  0  0  0  0  0  0  0999 V2000
   -1.0990   -1.5790    0.6510 C   0  0  0  0  0  0  0  0  0  0  0  0
   -1.8290   -0.6550   -0.3160 C   0  0  1  0  0  0  0  0  0  0  0  0
   -1.9120   -1.3660   -1.6470 C   0  0  0  0  0  0  0  0  0  0  0  0
   -3.0790   -0.4030    0.2240 O   0  0  0  0  0  0  0  0  0  0  0  0
   -3.2420    0.9700    0.2850 C   0  0  1  0  0  0  0  0  0  0  0  0
   -4.1380    1.3630    1.2660 O   0  0  0  0  0  0  0  0  0  0  0  0
   -1.8350    1.4810    0.5510 C   0  0  1  0  0  0  0  0  0  0  0  0
   -1.4960    1.1250    1.8470 O   0  0  0  0  0  0  0  0  0  0  0  0
   -1.1200    0.6640   -0.4980 C   0  0  2  0  0  0  0  0  0  0  0  0
   -1.5190    1.1630   -1.7430 O   0  0  0  0  0  0  0  0  0  0  0  0
    0.3540    0.6160   -0.3430 C   0  0  0  0  0  0  0  0  0  0  0  0
    0.8010    0.1390    0.8560 O   0  0  0  0  0  0  0  0  0  0  0  0
    2.1820    0.1070    0.9830 C   0  0  0  0  0  0  0  0  0  0  0  0
    2.8880   -0.7460   -0.0170 C   0  0  0  0  0  0  0  0  0  0  0  0
    4.3880   -0.6470    0.3010 C   0  0  0  0  0  0  0  0  0  0  0  0
    4.8130    0.6720    0.2040 O   0  0  0  0  0  0  0  0  0  0  0  0
  2  1  1  1
  2  3  1  0
  2  4  1  0
  2  9  1  0
  4  5  1  0
  5  6  1  1
  5  7  1  0
  7  8  1  1
  7  9  1  0
  9 10  1  6
  9 11  1  0
 11 12  1  0
 12 13  1  0
 13 14  1  0
 14 15  1  0
 15 16  1  0
M  END
