
     RDKit          3D

 15 15  0  0  0  0  0  0  0  0999 V2000
   -0.0020   -0.0070   -1.7090 C   0  0  0  0  0  0  0  0  0  0  0  0
    0.3660   -0.2180   -0.2560 C   0  0  2  0  0  0  0  0  0  0  0  0
   -0.5960   -0.7600    0.4370 O   0  0  0  0  0  0  0  0  0  0  0  0
   -1.8000   -0.3630    0.7650 C   0  0  0  0  0  0  0  0  0  0  0  0
   -2.8500   -0.0170   -0.2160 C   0  0  2  0  0  0  0  0  0  0  0  0
   -2.6410    1.0310   -1.0620 O   0  0  0  0  0  0  0  0  0  0  0  0
   -4.1150    0.3430    0.5860 C   0  0  0  0  0  0  0  0  0  0  0  0
   -4.4320   -0.6590    1.4900 O   0  0  0  0  0  0  0  0  0  0  0  0
    0.9850    1.0560    0.2600 C   0  0  0  0  0  0  0  0  0  0  0  0
    2.0640    0.8270    1.2930 C   0  0  0  0  0  0  0  0  0  0  0  0
    3.2970    0.3770    0.5450 C   0  0  1  0  0  0  0  0  0  0  0  0
    4.2330   -0.2340    1.3420 O   0  0  0  0  0  0  0  0  0  0  0  0
    2.8140   -0.4890   -0.5970 C   0  0  0  0  0  0  0  0  0  0  0  0
    1.5510   -1.2130   -0.2790 C   0  0  1  0  0  0  0  0  0  0  0  0
    1.6120   -1.9370    0.8960 O   0  0  0  0  0  0  0  0  0  0  0  0
  2  1  1  6
  2  3  1  0
  2  9  1  0
  2 14  1  0
  3  4  1  0
  4  5  1  0
  5  6  1  1
  5  7  1  0
  7  8  1  0
  9 10  1  0
 10 11  1  0
 11 12  1  1
 11 13  1  0
 13 14  1  0
 14 15  1  1
M  END
