
     RDKit          3D

 16 16  0  0  0  0  0  0  0  0999 V2000
   -2.6480    0.5920    1.4880 C   0  0  0  0  0  0  0  0  0  0  0  0
   -2.1710   -0.4440    0.4810 C   0  0  1  0  0  0  0  0  0  0  0  0
   -2.0620   -1.6760    1.1270 O   0  0  0  0  0  0  0  0  0  0  0  0
   -3.2380   -0.5320   -0.5790 C   0  0  0  0  0  0  0  0  0  0  0  0
   -3.3450    0.7060   -1.2250 O   0  0  0  0  0  0  0  0  0  0  0  0
   -0.8540    0.0310   -0.0450 C   0  0  2  0  0  0  0  0  0  0  0  0
   -1.0410    1.2560   -0.6710 O   0  0  0  0  0  0  0  0  0  0  0  0
   -0.2010   -0.9290   -0.9960 C   0  0  0  0  0  0  0  0  0  0  0  0
    1.0420   -0.3960   -1.3810 O   0  0  0  0  0  0  0  0  0  0  0  0
    2.0760   -0.0950   -0.5390 C   0  0  0  0  0  0  0  0  0  0  0  0
    2.3070   -0.8060    0.5400 C   0  0  0  0  0  0  0  0  0  0  0  0
    3.4210   -0.5130    1.4820 C   0  0  0  0  0  0  0  0  0  0  0  0
    4.1890    0.5880    1.1030 O   0  0  0  0  0  0  0  0  0  0  0  0
    3.9660    1.3430   -0.0160 C   0  0  0  0  0  0  0  0  0  0  0  0
    2.9450    1.0330   -0.8320 C   0  0  0  0  0  0  0  0  0  0  0  0
    2.7810    1.8400   -1.9420 O   0  0  0  0  0  0  0  0  0  0  0  0
  2  1  1  1
  2  3  1  0
  2  4  1  0
  2  6  1  0
  4  5  1  0
  6  7  1  6
  6  8  1  0
  8  9  1  0
  9 10  1  0
 10 11  2  0
 10 15  1  0
 11 12  1  0
 12 13  1  0
 13 14  1  0
 14 15  2  0
 15 16  1  0
M  END
