
     RDKit          3D

 16 16  0  0  0  0  0  0  0  0999 V2000
   -3.3140    2.4540    0.3030 C   0  0  0  0  0  0  0  0  0  0  0  0
   -3.0010    1.1750   -0.4100 C   0  0  0  0  0  0  0  0  0  0  0  0
   -2.1460    0.2400    0.3870 C   0  0  2  0  0  0  0  0  0  0  0  0
   -0.9120    0.7940    0.7220 O   0  0  0  0  0  0  0  0  0  0  0  0
   -0.1350   -0.2980    1.1800 C   0  0  0  0  0  0  0  0  0  0  0  0
    0.4430   -0.9750   -0.0070 C   0  0  2  0  0  0  0  0  0  0  0  0
    0.8320   -2.4020    0.1980 C   0  0  0  0  0  0  0  0  0  0  0  0
    1.8040   -2.6160    1.1470 O   0  0  0  0  0  0  0  0  0  0  0  0
    1.6060   -0.1640   -0.5510 C   0  0  2  0  0  0  0  0  0  0  0  0
    2.0650   -0.7430   -1.7510 O   0  0  0  0  0  0  0  0  0  0  0  0
    2.7370    0.0060    0.3920 C   0  0  0  0  0  0  0  0  0  0  0  0
    3.7450    0.8290   -0.1570 O   0  0  0  0  0  0  0  0  0  0  0  0
    3.3150    2.1000   -0.4650 C   0  0  0  0  0  0  0  0  0  0  0  0
   -0.5650   -0.9830   -0.9900 O   0  0  0  0  0  0  0  0  0  0  0  0
   -1.8430   -0.9750   -0.4760 C   0  0  1  0  0  0  0  0  0  0  0  0
   -2.1830   -2.1000    0.2610 O   0  0  0  0  0  0  0  0  0  0  0  0
  1  2  1  0
  3  2  1  6
  3  4  1  0
  3 15  1  0
  4  5  1  0
  5  6  1  0
  6  7  1  1
  6  9  1  0
  6 14  1  0
  7  8  1  0
  9 10  1  6
  9 11  1  0
 11 12  1  0
 12 13  1  0
 14 15  1  0
 15 16  1  1
M  END
