
     RDKit          3D

 16 16  0  0  0  0  0  0  0  0999 V2000
    3.4850    0.9080    1.0730 C   0  0  0  0  0  0  0  0  0  0  0  0
    2.4750    0.6990   -0.0580 C   0  0  0  0  0  0  0  0  0  0  0  0
    1.7710   -0.6280    0.1310 C   0  0  1  0  0  0  0  0  0  0  0  0
    2.8700   -1.7020    0.1000 C   0  0  0  0  0  0  0  0  0  0  0  0
    1.1630   -0.7320    1.3570 O   0  0  0  0  0  0  0  0  0  0  0  0
    0.8310   -0.9740   -0.9750 C   0  0  1  0  0  0  0  0  0  0  0  0
    0.4320   -2.3130   -0.7380 O   0  0  0  0  0  0  0  0  0  0  0  0
   -0.4160   -0.1340   -1.0320 C   0  0  2  0  0  0  0  0  0  0  0  0
   -0.2170    1.1940   -1.2580 O   0  0  0  0  0  0  0  0  0  0  0  0
   -1.1260    2.0470   -0.7000 C   0  0  0  0  0  0  0  0  0  0  0  0
   -2.4550    1.4610   -0.3880 C   0  0  0  0  0  0  0  0  0  0  0  0
   -2.4490   -0.0070   -0.1260 C   0  0  2  0  0  0  0  0  0  0  0  0
   -3.3910   -0.4250    0.9790 C   0  0  1  0  0  0  0  0  0  0  0  0
   -3.0570    0.1350    2.1910 O   0  0  0  0  0  0  0  0  0  0  0  0
   -4.7010   -0.2270    0.6080 O   0  0  0  0  0  0  0  0  0  0  0  0
   -1.1400   -0.3920    0.1550 O   0  0  0  0  0  0  0  0  0  0  0  0
  1  2  1  0
  2  3  1  0
  3  4  1  1
  3  5  1  0
  3  6  1  0
  6  7  1  1
  6  8  1  0
  8  9  1  1
  8 16  1  0
  9 10  1  0
 10 11  1  0
 12 11  1  1
 12 13  1  0
 12 16  1  0
 13 14  1  1
 13 15  1  0
M  END
