
     RDKit          3D

 16 16  0  0  0  0  0  0  0  0999 V2000
    3.5790    0.2630    1.7700 C   0  0  0  0  0  0  0  0  0  0  0  0
    3.4130    1.0630    0.6420 O   0  0  0  0  0  0  0  0  0  0  0  0
    2.5560    0.4930   -0.2860 C   0  0  2  0  0  0  0  0  0  0  0  0
    3.2010    0.3950   -1.5250 O   0  0  0  0  0  0  0  0  0  0  0  0
    1.3920    1.4540   -0.4710 C   0  0  1  0  0  0  0  0  0  0  0  0
    1.9710    2.6570   -0.9440 O   0  0  0  0  0  0  0  0  0  0  0  0
    0.3800    0.9430   -1.4720 C   0  0  2  0  0  0  0  0  0  0  0  0
   -0.5560    1.9680   -1.6070 O   0  0  0  0  0  0  0  0  0  0  0  0
   -0.2230   -0.3610   -1.1200 C   0  0  0  0  0  0  0  0  0  0  0  0
   -0.9900   -0.4880    0.1270 C   0  0  1  0  0  0  0  0  0  0  0  0
   -0.2280   -0.2020    1.2480 O   0  0  0  0  0  0  0  0  0  0  0  0
   -2.2350    0.3500    0.2070 C   0  0  0  0  0  0  0  0  0  0  0  0
   -3.1400   -0.3100    1.2300 C   0  0  0  0  0  0  0  0  0  0  0  0
   -3.7400   -1.3840    0.5940 O   0  0  0  0  0  0  0  0  0  0  0  0
   -2.8560   -2.1550   -0.1320 C   0  0  0  0  0  0  0  0  0  0  0  0
   -1.4170   -1.9530    0.2510 C   0  0  0  0  0  0  0  0  0  0  0  0
  1  2  1  0
  2  3  1  0
  3  4  1  6
  3  5  1  0
  5  6  1  6
  5  7  1  0
  7  8  1  1
  7  9  1  0
  9 10  1  0
 10 11  1  1
 10 12  1  0
 10 16  1  0
 12 13  1  0
 13 14  1  0
 14 15  1  0
 15 16  1  0
M  END
