
     RDKit          3D

 16 16  0  0  0  0  0  0  0  0999 V2000
    2.3920    0.5120    1.6300 C   0  0  0  0  0  0  0  0  0  0  0  0
    2.2490    0.0310    0.1660 C   0  0  2  0  0  0  0  0  0  0  0  0
    3.7000   -0.0340   -0.3710 C   0  0  0  0  0  0  0  0  0  0  0  0
    4.2040    1.2440   -0.3920 O   0  0  0  0  0  0  0  0  0  0  0  0
    1.4570    0.7680   -0.5610 O   0  0  0  0  0  0  0  0  0  0  0  0
    0.3460    0.5640   -1.2130 C   0  0  0  0  0  0  0  0  0  0  0  0
   -0.9340    0.1780   -0.5060 C   0  0  2  0  0  0  0  0  0  0  0  0
   -1.9950    0.0950   -1.6150 C   0  0  0  0  0  0  0  0  0  0  0  0
   -2.0580    1.3540   -2.1960 O   0  0  0  0  0  0  0  0  0  0  0  0
   -1.2720    1.2840    0.4620 C   0  0  0  0  0  0  0  0  0  0  0  0
   -2.5970    1.2850    0.8400 O   0  0  0  0  0  0  0  0  0  0  0  0
   -2.7950    0.2140    1.7230 C   0  0  0  0  0  0  0  0  0  0  0  0
   -3.1500   -0.8690    0.9760 O   0  0  0  0  0  0  0  0  0  0  0  0
   -2.1770   -1.7180    0.5720 C   0  0  0  0  0  0  0  0  0  0  0  0
   -0.8420   -1.1110    0.2170 C   0  0  1  0  0  0  0  0  0  0  0  0
   -0.2500   -2.0510   -0.6600 O   0  0  0  0  0  0  0  0  0  0  0  0
  2  1  1  1
  2  3  1  0
  2  5  1  0
  3  4  1  0
  5  6  1  0
  7  6  1  6
  7  8  1  0
  7 10  1  0
  7 15  1  0
  8  9  1  0
 10 11  1  0
 11 12  1  0
 12 13  1  0
 13 14  1  0
 14 15  1  0
 15 16  1  6
M  END
