
     RDKit          3D

 16 16  0  0  0  0  0  0  0  0999 V2000
   -2.6910    2.6260   -0.4440 C   0  0  0  0  0  0  0  0  0  0  0  0
   -2.7420    1.2780   -0.7840 O   0  0  0  0  0  0  0  0  0  0  0  0
   -1.7680    0.5460   -0.0610 C   0  0  1  0  0  0  0  0  0  0  0  0
   -2.5210   -0.4650    0.7440 C   0  0  0  0  0  0  0  0  0  0  0  0
   -1.7570   -1.4760    1.2700 O   0  0  0  0  0  0  0  0  0  0  0  0
   -1.4850   -2.3780    0.2240 C   0  0  0  0  0  0  0  0  0  0  0  0
   -0.0440   -2.2110   -0.1350 C   0  0  2  0  0  0  0  0  0  0  0  0
    0.7100   -2.6050    0.9900 O   0  0  0  0  0  0  0  0  0  0  0  0
    0.3170   -0.8010   -0.5270 C   0  0  2  0  0  0  0  0  0  0  0  0
    1.2530   -0.8980   -1.5530 O   0  0  0  0  0  0  0  0  0  0  0  0
    0.9150   -0.1240    0.6560 C   0  0  0  0  0  0  0  0  0  0  0  0
    1.3660    1.1460    0.4860 O   0  0  0  0  0  0  0  0  0  0  0  0
    2.3640    1.3640   -0.4140 C   0  0  0  0  0  0  0  0  0  0  0  0
    3.6510    0.6240   -0.1130 C   0  0  0  0  0  0  0  0  0  0  0  0
    4.1690    0.9930    1.1290 O   0  0  0  0  0  0  0  0  0  0  0  0
   -0.8470   -0.0300   -1.0800 C   0  0  0  0  0  0  0  0  0  0  0  0
  1  2  1  0
  3  2  1  6
  3  4  1  0
  3 16  1  0
  4  5  1  0
  5  6  1  0
  6  7  1  0
  7  8  1  1
  7  9  1  0
  9 10  1  6
  9 11  1  0
  9 16  1  0
 11 12  1  0
 12 13  1  0
 13 14  1  0
 14 15  1  0
M  END
