
     RDKit          3D

  9  9  0  0  0  0  0  0  0  0999 V2000
   -2.6080   -0.9640   -0.6480 O   0  0  0  0  0  0  0  0  0  0  0  0
   -2.2960    0.3890   -0.4220 C   0  0  0  0  0  0  0  0  0  0  0  0
   -1.1680    0.5190    0.4550 N   0  0  0  0  0  0  0  0  0  0  0  0
    0.1160    0.0060    0.1920 C   0  0  0  0  0  0  0  0  0  0  0  0
    1.2530    0.6760    0.4360 C   0  0  0  0  0  0  0  0  0  0  0  0
    1.3490    1.9590    0.9750 O   0  0  0  0  0  0  0  0  0  0  0  0
    2.3840   -0.2010    0.0250 C   0  0  0  0  0  0  0  0  0  0  0  0
    1.7880   -0.9660   -0.9740 O   0  0  0  0  0  0  0  0  0  0  0  0
    0.5560   -1.2890   -0.3710 C   0  0  0  0  0  0  0  0  0  0  0  0
  1  2  1  0
  2  3  1  0
  3  4  1  0
  4  5  2  0
  4  9  1  0
  5  6  1  0
  5  7  1  0
  7  8  1  0
  8  9  1  0
M  END
