
     RDKit          3D

  9  9  0  0  0  0  0  0  0  0999 V2000
   -2.1340   -0.3280    0.7260 C   0  0  0  0  0  0  0  0  0  0  0  0
   -0.7960   -0.1290    0.0700 C   0  0  2  0  0  0  0  0  0  0  0  0
   -0.9340    0.8020   -1.1080 C   0  0  0  0  0  0  0  0  0  0  0  0
   -0.2470   -1.3410   -0.4180 O   0  0  0  0  0  0  0  0  0  0  0  0
    1.0940   -1.0400   -0.6250 C   0  0  0  0  0  0  0  0  0  0  0  0
    1.9300   -1.6020   -1.3790 O   0  0  0  0  0  0  0  0  0  0  0  0
    1.3640    0.1290    0.2590 C   0  0  2  0  0  0  0  0  0  0  0  0
    2.4790   -0.1380    1.1440 N   0  0  0  0  0  0  0  0  0  0  0  0
    0.1670    0.2820    0.9780 O   0  0  0  0  0  0  0  0  0  0  0  0
  2  1  1  1
  2  3  1  0
  2  4  1  0
  2  9  1  0
  4  5  1  0
  5  6  2  0
  5  7  1  0
  7  8  1  1
  7  9  1  0
M  END
