
     RDKit          3D

  9  9  0  0  0  0  0  0  0  0999 V2000
    2.3480   -0.6830   -0.6160 N   0  0  0  0  0  0  0  0  0  0  0  0
    1.1460   -0.2670   -0.4700 C   0  0  0  0  0  0  0  0  0  0  0  0
    0.1340   -1.2640   -0.8880 C   0  0  0  0  0  0  0  0  0  0  0  0
   -1.1320   -1.0190   -0.4720 O   0  0  0  0  0  0  0  0  0  0  0  0
   -1.2800   -0.3810    0.7260 C   0  0  0  0  0  0  0  0  0  0  0  0
   -1.4660    1.1320    0.5320 C   0  0  0  0  0  0  0  0  0  0  0  0
   -0.1520    1.6780    0.5010 O   0  0  0  0  0  0  0  0  0  0  0  0
    1.0250    1.0790    0.0680 C   0  0  0  0  0  0  0  0  0  0  0  0
    2.0970    1.7650    0.1460 O   0  0  0  0  0  0  0  0  0  0  0  0
  1  2  2  0
  2  3  1  0
  2  8  1  0
  3  4  1  0
  4  5  1  0
  5  6  1  0
  6  7  1  0
  7  8  1  0
  8  9  2  0
M  END
