
     RDKit          3D

  9  9  0  0  0  0  0  0  0  0999 V2000
   -1.7400    0.5940   -0.5430 C   0  0  0  0  0  0  0  0  0  0  0  0
   -0.4920   -0.1640   -0.1890 C   0  0  2  0  0  0  0  0  0  0  0  0
   -0.8680   -1.3390    0.5420 N   0  0  0  0  0  0  0  0  0  0  0  0
    0.4100    0.6970    0.6710 C   0  0  0  0  0  0  0  0  0  0  0  0
    1.6790    0.2240    0.7990 O   0  0  0  0  0  0  0  0  0  0  0  0
    2.3530   -0.0620   -0.3440 C   0  0  0  0  0  0  0  0  0  0  0  0
    1.5910   -0.5510   -1.4010 O   0  0  0  0  0  0  0  0  0  0  0  0
    0.2090   -0.5090   -1.4440 C   0  0  0  0  0  0  0  0  0  0  0  0
   -0.4200   -0.7540   -2.5060 O   0  0  0  0  0  0  0  0  0  0  0  0
  2  1  1  6
  2  3  1  0
  2  4  1  0
  2  8  1  0
  4  5  1  0
  5  6  1  0
  6  7  1  0
  7  8  1  0
  8  9  2  0
M  END
