
     RDKit          3D

  8  8  0  0  0  0  0  0  0  0999 V2000
   -2.6900   -0.5280    0.1850 N   0  0  0  0  0  0  0  0  0  0  0  0
   -1.7820    0.1930   -0.6730 C   0  0  0  0  0  0  0  0  0  0  0  0
   -0.4120    0.2370   -0.0310 C   0  0  1  0  0  0  0  0  0  0  0  0
    0.1590   -1.1550    0.1260 C   0  0  0  0  0  0  0  0  0  0  0  0
    1.2990   -1.0690    0.8790 O   0  0  0  0  0  0  0  0  0  0  0  0
    2.0340    0.0720    0.7150 C   0  0  0  0  0  0  0  0  0  0  0  0
    1.7640    0.8510   -0.5140 C   0  0  0  0  0  0  0  0  0  0  0  0
    0.4380    0.9340   -0.8770 O   0  0  0  0  0  0  0  0  0  0  0  0
  1  2  1  0
  3  2  1  6
  3  4  1  0
  3  8  1  0
  4  5  1  0
  5  6  1  0
  6  7  1  0
  7  8  1  0
M  END
