
     RDKit          3D

 22 24  0  0  0  0  0  0  0  0999 V2000
   -6.6190   -0.3530    1.0190 N   0  0  0  0  0  0  0  0  0  0  0  0
   -5.2450   -0.2870    0.6080 C   0  0  0  0  0  0  0  0  0  0  0  0
   -4.7380   -1.1510   -0.2890 N   0  0  0  0  0  0  0  0  0  0  0  0
   -3.4540   -1.1040   -0.6870 C   0  0  0  0  0  0  0  0  0  0  0  0
   -2.9540   -2.0440   -1.6450 N   0  0  0  0  0  0  0  0  0  0  0  0
   -2.5850   -0.1520   -0.1830 C   0  0  0  0  0  0  0  0  0  0  0  0
   -1.2660   -0.0920   -0.5810 C   0  0  0  0  0  0  0  0  0  0  0  0
   -0.4410    0.8780   -0.0470 C   0  0  0  0  0  0  0  0  0  0  0  0
    0.9670    0.9850   -0.4360 C   0  0  0  0  0  0  0  0  0  0  0  0
    1.7770    0.1730    0.4440 N   0  0  0  0  0  0  0  0  0  0  0  0
    3.1860    0.0930    0.2910 C   0  0  0  0  0  0  0  0  0  0  0  0
    3.8480    0.7800   -0.6970 C   0  0  0  0  0  0  0  0  0  0  0  0
    5.2360    0.6940   -0.8400 C   0  0  0  0  0  0  0  0  0  0  0  0
    6.0240    1.6030   -2.1330 Cl  0  0  0  0  0  0  0  0  0  0  0  0
    5.9480   -0.0970    0.0320 C   0  0  0  0  0  0  0  0  0  0  0  0
    5.3120   -0.7880    1.0220 C   0  0  0  0  0  0  0  0  0  0  0  0
    3.9210   -0.6890    1.1470 C   0  0  0  0  0  0  0  0  0  0  0  0
    3.1050   -1.5660    2.4040 Cl  0  0  0  0  0  0  0  0  0  0  0  0
   -1.0060    1.7570    0.8830 C   0  0  0  0  0  0  0  0  0  0  0  0
   -2.2960    1.6730    1.2500 N   0  0  0  0  0  0  0  0  0  0  0  0
   -3.1160    0.7290    0.7370 C   0  0  0  0  0  0  0  0  0  0  0  0
   -4.4090    0.6430    1.1040 N   0  0  0  0  0  0  0  0  0  0  0  0
  1  2  1  0
  2  3  2  0
  2 22  1  0
  3  4  1  0
  4  5  1  0
  4  6  2  0
  6  7  1  0
  6 21  1  0
  7  8  2  0
  8  9  1  0
  8 19  1  0
  9 10  1  0
 10 11  1  0
 11 12  2  0
 11 17  1  0
 12 13  1  0
 13 14  1  0
 13 15  2  0
 15 16  1  0
 16 17  2  0
 17 18  1  0
 19 20  2  0
 20 21  1  0
 21 22  2  0
M  END
