
     RDKit          3D

 22 25  0  0  0  0  0  0  0  0999 V2000
    5.9520    1.0630   -0.6760 N   0  0  0  0  0  0  0  0  0  0  0  0
    4.9840    0.2740   -0.0170 C   0  0  0  0  0  0  0  0  0  0  0  0
    5.3260   -0.5930    0.9640 N   0  0  0  0  0  0  0  0  0  0  0  0
    4.3960   -1.3330    1.5780 C   0  0  0  0  0  0  0  0  0  0  0  0
    3.0780   -1.2730    1.2740 N   0  0  0  0  0  0  0  0  0  0  0  0
    2.6970   -0.4280    0.3110 C   0  0  0  0  0  0  0  0  0  0  0  0
    3.6450    0.3380   -0.3280 C   0  0  0  0  0  0  0  0  0  0  0  0
    2.9940    1.0800   -1.2330 N   0  0  0  0  0  0  0  0  0  0  0  0
    1.6690    0.7740   -1.1500 C   0  0  0  0  0  0  0  0  0  0  0  0
    1.4750   -0.1560   -0.2000 N   0  0  0  0  0  0  0  0  0  0  0  0
    0.1870   -0.7170    0.1600 C   0  0  2  0  0  0  0  0  0  0  0  0
   -0.5530   -0.8350   -0.9960 O   0  0  0  0  0  0  0  0  0  0  0  0
   -1.8770   -0.6370   -0.6990 C   0  0  2  0  0  0  0  0  0  0  0  0
   -2.6630   -0.0160   -1.8210 C   0  0  0  0  0  0  0  0  0  0  0  0
   -3.7730    0.6270   -1.4780 O   0  0  0  0  0  0  0  0  0  0  0  0
   -4.3290    0.2590    0.1520 P   0  0  0  0  0  0  0  0  0  0  0  0
   -5.3040    1.5770    0.6810 O   0  0  0  0  0  0  0  0  0  0  0  0
   -5.1930   -1.2000    0.1820 O   0  0  0  0  0  0  0  0  0  0  0  0
   -2.9650    0.1520    1.1970 O   0  0  0  0  0  0  0  0  0  0  0  0
   -1.8640    0.3970    0.4330 C   0  0  1  0  0  0  0  0  0  0  0  0
   -0.5700    0.1340    1.1260 C   0  0  1  0  0  0  0  0  0  0  0  0
   -0.7990   -0.5000    2.3450 O   0  0  0  0  0  0  0  0  0  0  0  0
  1  2  1  0
  2  3  2  0
  2  7  1  0
  3  4  1  0
  4  5  2  0
  5  6  1  0
  6  7  2  0
  6 10  1  0
  7  8  1  0
  8  9  2  0
  9 10  1  0
 11 10  1  6
 11 12  1  0
 11 21  1  0
 12 13  1  0
 13 14  1  6
 13 20  1  0
 14 15  1  0
 15 16  1  0
 16 17  1  0
 16 18  1  0
 16 19  1  0
 20 19  1  1
 20 21  1  0
 21 22  1  1
M  END
