
     RDKit          3D

 26 27  0  0  0  0  0  0  0  0999 V2000
   -4.5190    1.9650   -0.4850 C   0  0  0  0  0  0  0  0  0  0  0  0
   -4.1140    1.1050    0.5950 N   0  0  0  0  0  0  0  0  0  0  0  0
   -4.9010    1.2030    1.8240 C   0  0  0  0  0  0  0  0  0  0  0  0
   -6.0560    0.2450    1.8190 C   0  0  0  0  0  0  0  0  0  0  0  0
   -5.5980   -1.0800    1.7060 O   0  0  0  0  0  0  0  0  0  0  0  0
   -3.0360    0.1860    0.5740 C   0  0  0  0  0  0  0  0  0  0  0  0
   -2.8780   -0.4660    1.6490 O   0  0  0  0  0  0  0  0  0  0  0  0
   -2.2130    0.0320   -0.5840 C   0  0  0  0  0  0  0  0  0  0  0  0
   -1.2080   -0.8020   -0.6500 C   0  0  0  0  0  0  0  0  0  0  0  0
   -0.7960   -1.6770    0.4440 C   0  0  0  0  0  0  0  0  0  0  0  0
    0.6640   -1.3420    0.7340 C   0  0  0  0  0  0  0  0  0  0  0  0
    1.6960   -1.9890    0.1280 C   0  0  0  0  0  0  0  0  0  0  0  0
    2.9870   -1.5830    0.4830 C   0  0  0  0  0  0  0  0  0  0  0  0
    3.2310   -0.5820    1.3950 C   0  0  0  0  0  0  0  0  0  0  0  0
    4.4550   -0.1260    1.7910 O   0  0  0  0  0  0  0  0  0  0  0  0
    5.7370   -0.4580    1.4290 C   0  0  0  0  0  0  0  0  0  0  0  0
    6.0360   -0.1530   -0.0040 C   0  0  0  0  0  0  0  0  0  0  0  0
    5.8260    1.6760   -0.3560 P   0  0  0  0  0  0  0  0  0  0  0  0
    6.1770    2.6300    1.0310 O   0  0  0  0  0  0  0  0  0  0  0  0
    6.8580    2.1010   -1.6950 O   0  0  0  0  0  0  0  0  0  0  0  0
    2.1360    0.0490    1.9880 C   0  0  0  0  0  0  0  0  0  0  0  0
    0.8850   -0.3420    1.6470 C   0  0  0  0  0  0  0  0  0  0  0  0
   -0.5120   -0.8280   -1.8550 O   0  0  0  0  0  0  0  0  0  0  0  0
   -1.0150   -0.9700   -3.1460 C   0  0  0  0  0  0  0  0  0  0  0  0
   -2.2190   -0.1040   -3.4600 C   0  0  0  0  0  0  0  0  0  0  0  0
   -2.5110    1.0520   -2.0720 S   0  0  0  0  0  0  0  0  0  0  0  0
  1  2  1  0
  2  3  1  0
  2  6  1  0
  3  4  1  0
  4  5  1  0
  6  7  2  0
  6  8  1  0
  8  9  2  0
  8 26  1  0
  9 10  1  0
  9 23  1  0
 10 11  1  0
 11 12  2  0
 11 22  1  0
 12 13  1  0
 13 14  2  0
 14 15  1  0
 14 21  1  0
 15 16  1  0
 16 17  1  0
 17 18  1  0
 18 19  1  0
 18 20  1  0
 21 22  2  0
 23 24  1  0
 24 25  1  0
 25 26  1  0
M  END
