
     RDKit          3D

 26 28  0  0  0  0  0  0  0  0999 V2000
    3.5060    1.4300    0.0450 O   0  0  0  0  0  0  0  0  0  0  0  0
    4.2070    0.5220   -0.4880 C   0  0  0  0  0  0  0  0  0  0  0  0
    3.6390   -0.3560   -1.4580 N   0  0  0  0  0  0  0  0  0  0  0  0
    2.2290   -0.1270   -1.7730 C   0  0  0  0  0  0  0  0  0  0  0  0
    1.3820   -0.2900   -0.5680 C   0  0  0  0  0  0  0  0  0  0  0  0
    1.7220   -0.7110    0.7040 C   0  0  0  0  0  0  0  0  0  0  0  0
    0.5470   -0.6790    1.4430 C   0  0  0  0  0  0  0  0  0  0  0  0
   -0.4340   -0.2450    0.5860 C   0  0  0  0  0  0  0  0  0  0  0  0
   -1.8390   -0.0710    0.9820 C   0  0  0  0  0  0  0  0  0  0  0  0
   -2.2250   -0.3160    2.1480 O   0  0  0  0  0  0  0  0  0  0  0  0
   -2.7590    0.3710    0.0520 O   0  0  0  0  0  0  0  0  0  0  0  0
   -4.1280    0.5750    0.3010 C   0  0  0  0  0  0  0  0  0  0  0  0
   -4.8320   -0.6790    0.7100 C   0  0  0  0  0  0  0  0  0  0  0  0
   -6.1710   -0.5530    0.9570 O   0  0  0  0  0  0  0  0  0  0  0  0
   -7.1800   -0.2150    0.0180 C   0  0  0  0  0  0  0  0  0  0  0  0
   -8.4540   -0.0840    0.3840 C   0  0  0  0  0  0  0  0  0  0  0  0
   -9.4330    0.2360   -0.5080 C   0  0  0  0  0  0  0  0  0  0  0  0
   -8.4630    0.3770   -2.0760 S   0  0  0  0  0  0  0  0  0  0  0  0
   -6.8260   -0.0240   -1.3050 C   0  0  0  0  0  0  0  0  0  0  0  0
    0.0840   -0.0210   -0.5970 O   0  0  0  0  0  0  0  0  0  0  0  0
    5.5960    0.4110   -0.0780 C   0  0  0  0  0  0  0  0  0  0  0  0
    6.0960    1.2310    0.8170 C   0  0  0  0  0  0  0  0  0  0  0  0
    7.4960    1.1480    1.2560 C   0  0  0  0  0  0  0  0  0  0  0  0
    8.2200    0.1360    0.6420 O   0  0  0  0  0  0  0  0  0  0  0  0
    7.7030   -0.7180   -0.2890 C   0  0  0  0  0  0  0  0  0  0  0  0
    6.4370   -0.6050   -0.6530 C   0  0  0  0  0  0  0  0  0  0  0  0
  1  2  2  0
  2  3  1  0
  2 21  1  0
  3  4  1  0
  4  5  1  0
  5  6  2  0
  5 20  1  0
  6  7  1  0
  7  8  2  0
  8  9  1  0
  8 20  1  0
  9 10  2  0
  9 11  1  0
 11 12  1  0
 12 13  1  0
 13 14  1  0
 14 15  1  0
 15 16  1  0
 15 19  2  0
 16 17  2  0
 17 18  1  0
 18 19  1  0
 21 22  2  0
 21 26  1  0
 22 23  1  0
 23 24  1  0
 24 25  1  0
 25 26  2  0
M  END
