
     RDKit          3D

 26 28  0  0  0  0  0  0  0  0999 V2000
   -6.5200   -2.5010    1.1110 C   0  0  0  0  0  0  0  0  0  0  0  0
   -5.5890   -1.3780    0.7890 C   0  0  0  0  0  0  0  0  0  0  0  0
   -4.8080   -0.9960    1.8820 O   0  0  0  0  0  0  0  0  0  0  0  0
   -3.7550    0.2910    1.4740 P   0  0  0  0  0  0  0  0  0  0  0  0
   -4.3860    1.3530    0.2960 O   0  0  0  0  0  0  0  0  0  0  0  0
   -3.4060    2.0730   -0.3790 C   0  0  0  0  0  0  0  0  0  0  0  0
   -3.9670    2.9980   -1.4080 C   0  0  0  0  0  0  0  0  0  0  0  0
   -2.0640   -0.2780    1.0960 C   0  0  0  0  0  0  0  0  0  0  0  0
   -0.9600    0.5390    1.1770 C   0  0  0  0  0  0  0  0  0  0  0  0
    0.2690    0.0260    0.8750 C   0  0  0  0  0  0  0  0  0  0  0  0
    0.4280   -1.2810    0.4940 C   0  0  0  0  0  0  0  0  0  0  0  0
    1.6650   -1.8270    0.1520 N   0  0  0  0  0  0  0  0  0  0  0  0
    2.7190   -1.0480   -0.3620 C   0  0  0  0  0  0  0  0  0  0  0  0
    2.4520    0.1060   -1.0580 C   0  0  0  0  0  0  0  0  0  0  0  0
    3.4460    0.9260   -1.5640 C   0  0  0  0  0  0  0  0  0  0  0  0
    4.7740    0.5400   -1.3430 C   0  0  0  0  0  0  0  0  0  0  0  0
    5.0570   -0.6130   -0.6480 C   0  0  0  0  0  0  0  0  0  0  0  0
    4.0540   -1.4080   -0.1570 C   0  0  0  0  0  0  0  0  0  0  0  0
    6.4480   -0.7160   -0.5990 O   0  0  0  0  0  0  0  0  0  0  0  0
    6.9720    0.6050   -0.8250 C   0  0  2  0  0  0  0  0  0  0  0  0
    6.8930    1.5750    0.6670 S   0  0  1  0  0  0  0  0  0  0  0  0
    7.4660    0.8380    1.8430 O   0  0  0  0  0  0  0  0  0  0  0  0
    7.7040    2.8280    0.4010 O   0  0  0  0  0  0  0  0  0  0  0  0
    5.9830    1.1070   -1.6990 O   0  0  0  0  0  0  0  0  0  0  0  0
   -0.6790   -2.1110    0.4110 C   0  0  0  0  0  0  0  0  0  0  0  0
   -1.9060   -1.5960    0.7130 C   0  0  0  0  0  0  0  0  0  0  0  0
  1  2  1  0
  2  3  1  0
  3  4  1  0
  4  5  1  0
  4  8  1  0
  5  6  1  0
  6  7  1  0
  8  9  2  0
  8 26  1  0
  9 10  1  0
 10 11  2  0
 11 12  1  0
 11 25  1  0
 12 13  1  0
 13 14  2  0
 13 18  1  0
 14 15  1  0
 15 16  2  0
 16 17  1  0
 16 24  1  0
 17 18  2  0
 17 19  1  0
 20 19  1  1
 21 20  1  6
 20 24  1  0
 21 22  2  0
 21 23  2  0
 25 26  2  0
M  END
