
     RDKit          3D

 16 16  0  0  0  0  0  0  0  0999 V2000
   -4.2400    1.9520   -0.3900 C   0  0  0  0  0  0  0  0  0  0  0  0
   -3.0450    1.8210   -1.0560 O   0  0  0  0  0  0  0  0  0  0  0  0
   -2.4510    0.1970   -1.0730 P   0  0  0  0  0  0  0  0  0  0  0  0
   -1.3210   -0.1280    0.3650 C   0  0  0  0  0  0  0  0  0  0  0  0
    0.1050   -0.0310   -0.0470 C   0  0  0  0  0  0  0  0  0  0  0  0
    0.7910   -1.1340   -0.5040 C   0  0  0  0  0  0  0  0  0  0  0  0
    2.1060   -1.0390   -0.8850 C   0  0  0  0  0  0  0  0  0  0  0  0
    2.7510    0.1750   -0.8110 C   0  0  0  0  0  0  0  0  0  0  0  0
    4.4590    0.3160   -1.3010 S   0  0  0  0  0  0  0  0  0  0  0  0
    5.4900    0.0040    0.1570 C   0  0  0  0  0  0  0  0  0  0  0  0
    5.2680    1.0910    1.1220 N   0  0  0  0  0  0  0  0  0  0  0  0
    2.0910    1.2950   -0.3580 C   0  0  0  0  0  0  0  0  0  0  0  0
    0.7730    1.1760    0.0190 C   0  0  0  0  0  0  0  0  0  0  0  0
   -3.7340   -0.9570   -1.1890 O   0  0  0  0  0  0  0  0  0  0  0  0
   -3.5670   -1.8960   -0.1770 C   0  0  0  0  0  0  0  0  0  0  0  0
   -4.5740   -2.8700   -0.2060 O   0  0  0  0  0  0  0  0  0  0  0  0
  1  2  1  0
  2  3  1  0
  3  4  1  0
  3 14  1  0
  4  5  1  0
  5  6  2  0
  5 13  1  0
  6  7  1  0
  7  8  2  0
  8  9  1  0
  8 12  1  0
  9 10  1  0
 10 11  1  0
 12 13  2  0
 14 15  1  0
 15 16  1  0
M  END
