
     RDKit          3D

 16 16  0  0  0  0  0  0  0  0999 V2000
   -3.3750    0.5580    2.6800 O   0  0  0  0  0  0  0  0  0  0  0  0
   -3.3540   -0.1430    1.4730 C   0  0  0  0  0  0  0  0  0  0  0  0
   -4.5490   -0.4860    0.8600 C   0  0  0  0  0  0  0  0  0  0  0  0
   -4.5080   -1.1690   -0.3150 C   0  0  0  0  0  0  0  0  0  0  0  0
   -3.2880   -1.5180   -0.8940 C   0  0  0  0  0  0  0  0  0  0  0  0
   -2.1040   -1.1620   -0.2580 C   0  0  0  0  0  0  0  0  0  0  0  0
   -0.8040   -1.5560   -0.8860 C   0  0  0  0  0  0  0  0  0  0  0  0
   -0.2970   -0.2510   -1.9750 S   0  0  0  0  0  0  0  0  0  0  0  0
    0.1620    1.2850   -1.2350 C   0  0  0  0  0  0  0  0  0  0  0  0
    1.5020    1.3610   -0.5820 C   0  0  0  0  0  0  0  0  0  0  0  0
    1.6690    0.3720    0.4930 C   0  0  0  0  0  0  0  0  0  0  0  0
    2.9830    0.4590    1.2310 C   0  0  0  0  0  0  0  0  0  0  0  0
    4.4660    0.2220    0.2710 P   0  0  0  0  0  0  0  0  0  0  0  0
    5.0420    1.4250   -0.7400 O   0  0  0  0  0  0  0  0  0  0  0  0
    5.5080   -1.0500    0.6750 O   0  0  0  0  0  0  0  0  0  0  0  0
   -2.1720   -0.4920    0.8930 N   0  0  0  0  0  0  0  0  0  0  0  0
  1  2  1  0
  2  3  2  0
  2 16  1  0
  3  4  1  0
  4  5  2  0
  5  6  1  0
  6  7  1  0
  6 16  2  0
  7  8  1  0
  8  9  1  0
  9 10  1  0
 10 11  1  0
 11 12  1  0
 12 13  1  0
 13 14  1  0
 13 15  1  0
M  END
