
     RDKit          3D

 16 16  0  0  0  0  0  0  0  0999 V2000
   -4.3780    0.0290   -1.3650 C   0  0  0  0  0  0  0  0  0  0  0  0
   -3.7060   -0.4770   -0.0960 C   0  0  0  0  0  0  0  0  0  0  0  0
   -1.9640   -0.8960   -0.4280 P   0  0  0  0  0  0  0  0  0  0  0  0
   -1.5970   -2.5530   -0.1470 O   0  0  0  0  0  0  0  0  0  0  0  0
   -0.7770    0.2470    0.3730 C   0  0  0  0  0  0  0  0  0  0  0  0
   -1.1770    1.2180    1.2460 C   0  0  0  0  0  0  0  0  0  0  0  0
   -0.2930    2.0850    1.8670 C   0  0  0  0  0  0  0  0  0  0  0  0
    1.0530    2.0050    1.6250 C   0  0  0  0  0  0  0  0  0  0  0  0
    1.4700    1.0160    0.7340 C   0  0  0  0  0  0  0  0  0  0  0  0
    0.6140    0.1410    0.1030 C   0  0  0  0  0  0  0  0  0  0  0  0
    0.9880   -0.8290   -0.8170 N   0  0  0  0  0  0  0  0  0  0  0  0
    2.1960   -1.4300   -1.2350 C   0  0  0  0  0  0  0  0  0  0  0  0
    3.5440   -0.4650   -1.8070 S   0  0  0  0  0  0  0  0  0  0  0  0
    4.6850    0.0750   -0.5940 C   0  0  0  0  0  0  0  0  0  0  0  0
    4.6970   -0.3510    0.6130 O   0  0  0  0  0  0  0  0  0  0  0  0
    5.6890    1.0240   -0.8570 O   0  0  0  0  0  0  0  0  0  0  0  0
  1  2  1  0
  2  3  1  0
  3  4  1  0
  3  5  1  0
  5  6  2  0
  5 10  1  0
  6  7  1  0
  7  8  2  0
  8  9  1  0
  9 10  2  0
 10 11  1  0
 11 12  1  0
 12 13  1  0
 13 14  1  0
 14 15  2  0
 14 16  1  0
M  END
