
     RDKit          3D

 16 16  0  0  0  0  0  0  0  0999 V2000
   -5.1620    0.9950    0.7180 C   0  0  0  0  0  0  0  0  0  0  0  0
   -4.6540   -0.3150    0.6150 O   0  0  0  0  0  0  0  0  0  0  0  0
   -3.3510   -0.6020    0.2540 C   0  0  0  0  0  0  0  0  0  0  0  0
   -2.9550   -1.9250    0.1830 C   0  0  0  0  0  0  0  0  0  0  0  0
   -1.6680   -2.2510   -0.1710 C   0  0  0  0  0  0  0  0  0  0  0  0
   -0.7040   -1.2730   -0.4760 C   0  0  0  0  0  0  0  0  0  0  0  0
    0.8660   -1.8570   -0.9590 S   0  0  0  0  0  0  0  0  0  0  0  0
    2.2160   -0.7550   -0.9710 C   0  0  0  0  0  0  0  0  0  0  0  0
    3.2510   -1.0700   -1.6930 O   0  0  0  0  0  0  0  0  0  0  0  0
    2.2940    0.4710   -0.2620 N   0  0  0  0  0  0  0  0  0  0  0  0
    3.4470    1.3330   -0.3490 C   0  0  0  0  0  0  0  0  0  0  0  0
    4.7130    0.6840    0.1080 C   0  0  0  0  0  0  0  0  0  0  0  0
    4.6220    0.1370    1.8750 P   0  0  0  0  0  0  0  0  0  0  0  0
    5.9430   -0.1540    2.6490 O   0  0  0  0  0  0  0  0  0  0  0  0
   -1.0880    0.0370   -0.4090 C   0  0  0  0  0  0  0  0  0  0  0  0
   -2.4020    0.3460   -0.0460 C   0  0  0  0  0  0  0  0  0  0  0  0
  1  2  1  0
  2  3  1  0
  3  4  2  0
  3 16  1  0
  4  5  1  0
  5  6  2  0
  6  7  1  0
  6 15  1  0
  7  8  1  0
  8  9  2  0
  8 10  1  0
 10 11  1  0
 11 12  1  0
 12 13  1  0
 13 14  2  0
 15 16  2  0
M  END
