
     RDKit          3D

 32 36  0  0  0  0  0  0  0  0999 V2000
    9.9150    0.1230    2.5590 C   0  0  0  0  0  0  0  0  0  0  0  0
    8.6350   -0.3260    1.9340 C   0  0  0  0  0  0  0  0  0  0  0  0
    8.3650   -1.6880    1.9030 C   0  0  0  0  0  0  0  0  0  0  0  0
    7.1820   -2.1160    1.3270 C   0  0  0  0  0  0  0  0  0  0  0  0
    6.2660   -1.2420    0.7860 C   0  0  0  0  0  0  0  0  0  0  0  0
    5.0790   -1.3770    0.1840 N   0  0  0  0  0  0  0  0  0  0  0  0
    4.5990   -0.1710   -0.1590 C   0  0  0  0  0  0  0  0  0  0  0  0
    3.2880    0.0920   -0.8560 C   0  0  1  0  0  0  0  0  0  0  0  0
    3.5310   -0.1700   -2.3170 C   0  0  0  0  0  0  0  0  0  0  0  0
    2.2400   -0.6760   -0.2790 N   0  0  0  0  0  0  0  0  0  0  0  0
    1.3270   -1.2710   -1.2020 C   0  0  0  0  0  0  0  0  0  0  0  0
   -0.0600   -0.7670   -1.0860 C   0  0  0  0  0  0  0  0  0  0  0  0
   -1.0130   -1.3270   -0.2610 C   0  0  0  0  0  0  0  0  0  0  0  0
   -2.2850   -0.7870   -0.2190 C   0  0  0  0  0  0  0  0  0  0  0  0
   -2.6580    0.3050   -0.9740 C   0  0  0  0  0  0  0  0  0  0  0  0
   -1.7000    0.8700   -1.8040 C   0  0  0  0  0  0  0  0  0  0  0  0
   -0.4340    0.3270   -1.8410 C   0  0  0  0  0  0  0  0  0  0  0  0
   -2.1110    1.9920   -2.5670 N   0  0  0  0  0  0  0  0  0  0  0  0
   -3.4690    2.5010   -2.5770 C   0  0  0  0  0  0  0  0  0  0  0  0
   -4.0850    2.2730   -1.2050 C   0  0  0  0  0  0  0  0  0  0  0  0
   -3.9750    0.8560   -0.9230 N   0  0  0  0  0  0  0  0  0  0  0  0
   -5.0630    0.0010   -0.6020 C   0  0  0  0  0  0  0  0  0  0  0  0
   -5.7840    0.3800    0.6460 C   0  0  0  0  0  0  0  0  0  0  0  0
   -5.5570    1.3870    1.4860 N   0  0  0  0  0  0  0  0  0  0  0  0
   -6.4550    1.3180    2.4470 N   0  0  0  0  0  0  0  0  0  0  0  0
   -7.2900    0.2780    2.2730 C   0  0  0  0  0  0  0  0  0  0  0  0
   -8.4390   -0.1470    3.1360 C   0  0  0  0  0  0  0  0  0  0  0  0
   -6.8550   -0.3250    1.1120 C   0  0  0  0  0  0  0  0  0  0  0  0
   -7.5020   -1.5490    0.5190 C   0  0  0  0  0  0  0  0  0  0  0  0
    5.5180    0.7230    0.2440 N   0  0  0  0  0  0  0  0  0  0  0  0
    6.5580    0.1030    0.8290 C   0  0  0  0  0  0  0  0  0  0  0  0
    7.7360    0.5710    1.4000 C   0  0  0  0  0  0  0  0  0  0  0  0
  1  2  1  0
  2  3  2  0
  2 32  1  0
  3  4  1  0
  4  5  2  0
  5  6  1  0
  5 31  1  0
  6  7  2  0
  7  8  1  0
  7 30  1  0
  8  9  1  6
  8 10  1  0
 10 11  1  0
 11 12  1  0
 12 13  2  0
 12 17  1  0
 13 14  1  0
 14 15  2  0
 15 16  1  0
 15 21  1  0
 16 17  2  0
 16 18  1  0
 18 19  1  0
 19 20  1  0
 20 21  1  0
 21 22  1  0
 22 23  1  0
 23 24  2  0
 23 28  1  0
 24 25  1  0
 25 26  1  0
 26 27  1  0
 26 28  2  0
 28 29  1  0
 30 31  1  0
 31 32  2  0
M  CHG  1  10   1
M  END
