
     RDKit          3D

 32 36  0  0  0  0  0  0  0  0999 V2000
   -2.4350    0.2900    2.4300 C   0  0  0  0  0  0  0  0  0  0  0  0
   -3.1410   -0.7440    2.2170 C   0  0  0  0  0  0  0  0  0  0  0  0
   -3.5010   -1.4560    1.0220 C   0  0  0  0  0  0  0  0  0  0  0  0
   -4.2950   -2.5760    1.0420 C   0  0  0  0  0  0  0  0  0  0  0  0
   -4.5150   -3.1140   -0.2940 C   0  0  0  0  0  0  0  0  0  0  0  0
   -3.7690   -2.2100   -1.1710 C   0  0  0  0  0  0  0  0  0  0  0  0
   -3.6000   -2.2080   -2.5640 C   0  0  0  0  0  0  0  0  0  0  0  0
   -2.8440   -1.2430   -3.1730 C   0  0  0  0  0  0  0  0  0  0  0  0
   -2.2430   -0.2650   -2.4200 C   0  0  0  0  0  0  0  0  0  0  0  0
   -1.4720    0.7290   -2.9810 C   0  0  0  0  0  0  0  0  0  0  0  0
   -0.8950    1.6810   -2.1860 C   0  0  0  0  0  0  0  0  0  0  0  0
   -1.0900    1.6370   -0.8280 C   0  0  0  0  0  0  0  0  0  0  0  0
   -0.5040    2.6480    0.0130 N   0  0  0  0  0  0  0  0  0  0  0  0
   -1.1700    3.8180    0.2550 C   0  0  0  0  0  0  0  0  0  0  0  0
   -2.4900    4.2450   -0.2430 C   0  0  0  0  0  0  0  0  0  0  0  0
   -2.2810    4.9760   -1.5540 C   0  0  0  0  0  0  0  0  0  0  0  0
   -0.3760    4.5250    1.0530 N   0  0  0  0  0  0  0  0  0  0  0  0
    0.7100    3.8320    1.2870 N   0  0  0  0  0  0  0  0  0  0  0  0
    0.6590    2.6260    0.6360 C   0  0  0  0  0  0  0  0  0  0  0  0
    1.6880    1.6050    0.6690 C   0  0  0  0  0  0  0  0  0  0  0  0
    1.6530    0.4010    0.0280 C   0  0  0  0  0  0  0  0  0  0  0  0
    2.6930   -0.5330    0.1120 C   0  0  0  0  0  0  0  0  0  0  0  0
    3.8160   -0.2660    0.8610 C   0  0  0  0  0  0  0  0  0  0  0  0
    4.8800   -1.2210    0.9470 N   0  0  0  0  0  0  0  0  0  0  0  0
    4.8470   -2.4400    0.2990 N   0  0  0  0  0  0  0  0  0  0  0  0
    5.8930   -3.2960    0.8260 C   0  0  0  0  0  0  0  0  0  0  0  0
    5.8540   -4.5830    0.1380 N   0  0  0  0  0  0  0  0  0  0  0  0
    3.8710    0.9430    1.5150 C   0  0  0  0  0  0  0  0  0  0  0  0
    2.8390    1.8520    1.4230 C   0  0  0  0  0  0  0  0  0  0  0  0
   -1.8370    0.6690   -0.3090 N   0  0  0  0  0  0  0  0  0  0  0  0
   -2.4110   -0.2660   -1.0380 C   0  0  0  0  0  0  0  0  0  0  0  0
   -3.1790   -1.2400   -0.3780 C   0  0  0  0  0  0  0  0  0  0  0  0
  1  2  2  0
  2  3  1  0
  3  4  2  0
  3 32  1  0
  4  5  1  0
  5  6  1  0
  6  7  2  0
  6 32  1  0
  7  8  1  0
  8  9  2  0
  9 10  1  0
  9 31  1  0
 10 11  2  0
 11 12  1  0
 12 13  1  0
 12 30  2  0
 13 14  1  0
 13 19  1  0
 14 15  1  0
 14 17  2  0
 15 16  1  0
 17 18  1  0
 18 19  2  0
 19 20  1  0
 20 21  2  0
 20 29  1  0
 21 22  1  0
 22 23  2  0
 23 24  1  0
 23 28  1  0
 24 25  1  0
 25 26  1  0
 26 27  1  0
 28 29  2  0
 30 31  1  0
 31 32  2  0
M  CHG  1  27   1
M  END
