
     RDKit          3D

 32 32  0  0  0  0  0  0  0  0999 V2000
   -5.5790    1.6130    2.6420 C   0  0  0  0  0  0  0  0  0  0  0  0
   -5.2090    1.4500    1.4000 C   0  0  0  0  0  0  0  0  0  0  0  0
   -4.0240    0.6640    1.0470 C   0  0  0  0  0  0  0  0  0  0  0  0
   -3.5920    0.4530   -0.1760 C   0  0  0  0  0  0  0  0  0  0  0  0
   -2.3880   -0.3570   -0.3700 C   0  0  1  0  0  0  0  0  0  0  0  0
   -2.7570   -1.4670   -1.1540 O   0  0  0  0  0  0  0  0  0  0  0  0
   -1.2790    0.3530   -1.1040 C   0  0  0  0  0  0  0  0  0  0  0  0
   -0.1220   -0.5650   -1.2310 C   0  0  0  0  0  0  0  0  0  0  0  0
    0.5290   -0.5420   -2.3080 O   0  0  0  0  0  0  0  0  0  0  0  0
    0.2900   -1.4390   -0.2560 O   0  0  0  0  0  0  0  0  0  0  0  0
    1.4070   -2.2680   -0.4950 C   0  0  2  0  0  0  0  0  0  0  0  0
    1.1190   -3.0960   -1.6320 O   0  0  0  0  0  0  0  0  0  0  0  0
    1.5680   -3.1560    0.7120 C   0  0  0  0  0  0  0  0  0  0  0  0
    1.7440   -2.3370    1.9230 C   0  0  0  0  0  0  0  0  0  0  0  0
    1.6490   -1.0930    1.9250 O   0  0  0  0  0  0  0  0  0  0  0  0
    2.0370   -2.9340    3.1690 O   0  0  0  0  0  0  0  0  0  0  0  0
    2.6590   -1.6090   -0.8180 C   0  0  0  0  0  0  0  0  0  0  0  0
    3.3230   -1.8250   -1.8820 O   0  0  0  0  0  0  0  0  0  0  0  0
    3.2380   -0.6790    0.0170 O   0  0  0  0  0  0  0  0  0  0  0  0
    4.4370   -0.0090   -0.2290 C   0  0  2  0  0  0  0  0  0  0  0  0
    5.5160   -0.3500    0.7800 C   0  0  0  0  0  0  0  0  0  0  0  0
    4.2690    1.4610   -0.3720 C   0  0  0  0  0  0  0  0  0  0  0  0
    3.1300    2.0270   -0.2650 O   0  0  0  0  0  0  0  0  0  0  0  0
    5.3290    2.3120   -0.6280 O   0  0  0  0  0  0  0  0  0  0  0  0
    5.2360    3.6920   -0.7720 C   0  0  2  0  0  0  0  0  0  0  0  0
    5.5850    4.0330   -2.0960 O   0  0  0  0  0  0  0  0  0  0  0  0
    6.1410    4.3410    0.0580 O   0  0  0  0  0  0  0  0  0  0  0  0
   -4.3570    1.0490   -1.2610 C   0  0  0  0  0  0  0  0  0  0  0  0
   -3.9400    0.8510   -2.5460 O   0  0  0  0  0  0  0  0  0  0  0  0
   -5.4380    1.7740   -1.0470 C   0  0  0  0  0  0  0  0  0  0  0  0
   -5.9600    2.0380    0.3150 C   0  0  0  0  0  0  0  0  0  0  0  0
   -7.0170    2.7520    0.4750 N   0  0  0  0  0  0  0  0  0  0  0  0
  1  2  2  0
  2  3  1  0
  2 31  1  0
  3  4  2  0
  4  5  1  0
  4 28  1  0
  5  6  1  6
  5  7  1  0
  7  8  1  0
  8  9  2  0
  8 10  1  0
 10 11  1  0
 11 12  1  6
 11 13  1  0
 11 17  1  0
 13 14  1  0
 14 15  2  0
 14 16  1  0
 17 18  2  0
 17 19  1  0
 19 20  1  0
 20 21  1  1
 20 22  1  0
 22 23  2  0
 22 24  1  0
 24 25  1  0
 25 26  1  6
 25 27  1  0
 28 29  1  0
 28 30  2  0
 30 31  1  0
 31 32  2  0
M  CHG  2  26  -1  32   1
M  END
