
     RDKit          3D

 32 36  0  0  0  0  0  0  0  0999 V2000
    7.6910   -1.3370    1.1050 C   0  0  0  0  0  0  0  0  0  0  0  0
    7.6810   -0.5220    0.0720 C   0  0  0  0  0  0  0  0  0  0  0  0
    6.7160    0.6110    0.0540 C   0  0  0  0  0  0  0  0  0  0  0  0
    5.8780    0.4220   -1.1250 N   0  0  0  0  0  0  0  0  0  0  0  0
    5.0390   -0.7320   -0.9670 C   0  0  0  0  0  0  0  0  0  0  0  0
    3.7080   -0.5880   -1.7160 C   0  0  0  0  0  0  0  0  0  0  0  0
    3.0360    0.5300   -1.0400 N   0  0  0  0  0  0  0  0  0  0  0  0
    3.7780    1.6410   -0.8930 C   0  0  0  0  0  0  0  0  0  0  0  0
    3.2100    2.7340   -0.2600 C   0  0  0  0  0  0  0  0  0  0  0  0
    1.9080    2.6540    0.1990 C   0  0  0  0  0  0  0  0  0  0  0  0
    1.1420    1.5120    0.0490 C   0  0  0  0  0  0  0  0  0  0  0  0
   -0.0840    1.0880    0.3500 N   0  0  0  0  0  0  0  0  0  0  0  0
   -0.2850   -0.1770   -0.0570 C   0  0  0  0  0  0  0  0  0  0  0  0
   -1.5160   -0.9790    0.1100 C   0  0  0  0  0  0  0  0  0  0  0  0
   -1.7240   -2.2770   -0.3050 C   0  0  0  0  0  0  0  0  0  0  0  0
   -3.0050   -2.6360    0.0600 C   0  0  0  0  0  0  0  0  0  0  0  0
   -3.6070   -3.9690   -0.2130 C   0  0  0  0  0  0  0  0  0  0  0  0
   -4.6360   -3.8750   -1.2510 N   0  0  0  0  0  0  0  0  0  0  0  0
   -5.2700   -5.1830   -1.3250 C   0  0  0  0  0  0  0  0  0  0  0  0
   -3.5320   -1.5780    0.6710 N   0  0  0  0  0  0  0  0  0  0  0  0
   -2.6550   -0.5620    0.7160 C   0  0  0  0  0  0  0  0  0  0  0  0
   -2.8680    0.7760    1.3110 C   0  0  0  0  0  0  0  0  0  0  0  0
   -2.1270    1.1980    2.3920 C   0  0  0  0  0  0  0  0  0  0  0  0
   -2.3040    2.4410    2.9670 C   0  0  0  0  0  0  0  0  0  0  0  0
   -3.2570    3.2830    2.4330 C   0  0  0  0  0  0  0  0  0  0  0  0
   -4.0370    2.9060    1.3360 C   0  0  0  0  0  0  0  0  0  0  0  0
   -5.0040    3.7970    0.8160 N   0  0  0  0  0  0  0  0  0  0  0  0
   -5.8140    3.4380   -0.3190 C   0  0  0  0  0  0  0  0  0  0  0  0
   -3.8120    1.6460    0.8040 C   0  0  0  0  0  0  0  0  0  0  0  0
    0.8490   -0.5960   -0.6470 N   0  0  0  0  0  0  0  0  0  0  0  0
    1.7830    0.3770   -0.6280 C   0  0  0  0  0  0  0  0  0  0  0  0
    5.1690    1.6460   -1.4130 C   0  0  0  0  0  0  0  0  0  0  0  0
  1  2  2  0
  2  3  1  0
  3  4  1  0
  4  5  1  0
  4 32  1  0
  5  6  1  0
  6  7  1  0
  7  8  1  0
  7 31  1  0
  8  9  2  0
  8 32  1  0
  9 10  1  0
 10 11  2  0
 11 12  1  0
 11 31  1  0
 12 13  2  0
 13 14  1  0
 13 30  1  0
 14 15  1  0
 14 21  2  0
 15 16  2  0
 16 17  1  0
 16 20  1  0
 17 18  1  0
 18 19  1  0
 20 21  1  0
 21 22  1  0
 22 23  2  0
 22 29  1  0
 23 24  1  0
 24 25  2  0
 25 26  1  0
 26 27  1  0
 26 29  2  0
 27 28  1  0
 30 31  2  0
M  CHG  1  18   1
M  END
