
     RDKit          3D

 33 36  0  0  0  0  0  0  0  0999 V2000
    2.1050   -0.8710    0.9760 O   0  0  0  0  0  0  0  0  0  0  0  0
    3.0890   -0.0520    1.1110 C   0  0  0  0  0  0  0  0  0  0  0  0
    2.7830    1.1080    1.8300 N   0  0  0  0  0  0  0  0  0  0  0  0
    1.4500    1.3590    2.3800 C   0  0  0  0  0  0  0  0  0  0  0  0
    0.4980    1.3770    1.2350 C   0  0  0  0  0  0  0  0  0  0  0  0
   -0.5180    0.5210    1.1550 C   0  0  0  0  0  0  0  0  0  0  0  0
   -1.4230    0.5930   -0.0060 C   0  0  1  0  0  0  0  0  0  0  0  0
   -2.6350   -0.0780    0.2410 O   0  0  0  0  0  0  0  0  0  0  0  0
   -3.3920    0.3280   -0.8550 C   0  0  1  0  0  0  0  0  0  0  0  0
   -4.7500   -0.1210   -0.8120 N   0  0  0  0  0  0  0  0  0  0  0  0
   -5.7780    0.5310   -1.3850 C   0  0  0  0  0  0  0  0  0  0  0  0
   -6.9020   -0.1540   -1.1580 N   0  0  0  0  0  0  0  0  0  0  0  0
   -6.6250   -1.2610   -0.4340 C   0  0  0  0  0  0  0  0  0  0  0  0
   -7.3770   -2.2820    0.0630 C   0  0  0  0  0  0  0  0  0  0  0  0
   -6.7710   -3.2590    0.7640 N   0  0  0  0  0  0  0  0  0  0  0  0
   -5.4570   -3.2240    0.9670 C   0  0  0  0  0  0  0  0  0  0  0  0
   -4.7130   -2.2120    0.4740 N   0  0  0  0  0  0  0  0  0  0  0  0
   -5.2620   -1.2170   -0.2280 C   0  0  0  0  0  0  0  0  0  0  0  0
   -3.2720    1.8440   -0.7730 C   0  0  2  0  0  0  0  0  0  0  0  0
   -3.3900    2.4520   -2.0000 O   0  0  0  0  0  0  0  0  0  0  0  0
   -1.8660    2.0100   -0.2110 C   0  0  2  0  0  0  0  0  0  0  0  0
   -1.0610    2.6900   -1.1270 O   0  0  0  0  0  0  0  0  0  0  0  0
    4.3430   -0.4140    0.5260 C   0  0  0  0  0  0  0  0  0  0  0  0
    4.4490   -1.6400   -0.1670 C   0  0  0  0  0  0  0  0  0  0  0  0
    5.5960   -2.0560   -0.7470 C   0  0  0  0  0  0  0  0  0  0  0  0
    5.6480   -3.2880   -1.4260 N   0  0  0  0  0  0  0  0  0  0  0  0
    4.6270   -4.0020   -1.4930 O   0  0  0  0  0  0  0  0  0  0  0  0
    6.8250   -3.6970   -2.0120 O   0  0  0  0  0  0  0  0  0  0  0  0
    6.7070   -1.2680   -0.6690 C   0  0  0  0  0  0  0  0  0  0  0  0
    6.6270   -0.0610    0.0060 C   0  0  0  0  0  0  0  0  0  0  0  0
    7.7660    0.6890    0.0550 O   0  0  0  0  0  0  0  0  0  0  0  0
    5.4530    0.3900    0.6130 C   0  0  0  0  0  0  0  0  0  0  0  0
    5.4570    1.5940    1.2600 O   0  0  0  0  0  0  0  0  0  0  0  0
  1  2  2  0
  2  3  1  0
  2 23  1  0
  3  4  1  0
  4  5  1  0
  5  6  2  3
  7  6  1  1
  7  8  1  0
  7 21  1  0
  8  9  1  0
  9 10  1  1
  9 19  1  0
 10 11  1  0
 10 18  1  0
 11 12  2  0
 12 13  1  0
 13 14  2  0
 13 18  1  0
 14 15  1  0
 15 16  2  0
 16 17  1  0
 17 18  2  0
 19 20  1  6
 19 21  1  0
 21 22  1  6
 23 24  2  0
 23 32  1  0
 24 25  1  0
 25 26  1  0
 25 29  2  0
 26 27  2  0
 26 28  1  0
 29 30  1  0
 30 31  1  0
 30 32  2  0
 32 33  1  0
M  CHG  2  26   1  28  -1
M  END
