
     RDKit          3D

 31 35  0  0  0  0  0  0  0  0999 V2000
   -6.5380    0.9820   -1.9590 C   0  0  0  0  0  0  0  0  0  0  0  0
   -5.3710    0.8680   -1.0440 C   0  0  0  0  0  0  0  0  0  0  0  0
   -4.0710    0.8640   -1.4870 C   0  0  0  0  0  0  0  0  0  0  0  0
   -2.9960    0.7580   -0.6300 C   0  0  0  0  0  0  0  0  0  0  0  0
   -3.3020    0.6550    0.7130 C   0  0  0  0  0  0  0  0  0  0  0  0
   -4.5870    0.6540    1.2130 C   0  0  0  0  0  0  0  0  0  0  0  0
   -5.6380    0.7610    0.3390 C   0  0  0  0  0  0  0  0  0  0  0  0
   -7.0230    0.7650    0.8090 C   0  0  0  0  0  0  0  0  0  0  0  0
   -7.2800    0.6540    2.2510 C   0  0  0  0  0  0  0  0  0  0  0  0
   -6.0920    0.5430    3.1290 C   0  0  0  0  0  0  0  0  0  0  0  0
   -4.8690    0.5450    2.6390 C   0  0  0  0  0  0  0  0  0  0  0  0
   -2.1280    0.5440    1.6030 C   0  0  0  0  0  0  0  0  0  0  0  0
   -1.2810   -0.5790    1.0270 C   0  0  0  0  0  0  0  0  0  0  0  0
   -0.7970   -0.1180   -0.2720 N   0  0  0  0  0  0  0  0  0  0  0  0
    0.4910   -0.5700   -0.6730 C   0  0  0  0  0  0  0  0  0  0  0  0
    0.9940   -0.1570   -1.8920 C   0  0  0  0  0  0  0  0  0  0  0  0
    2.2490   -0.5830   -2.3080 C   0  0  0  0  0  0  0  0  0  0  0  0
    2.9980   -1.4190   -1.5080 C   0  0  0  0  0  0  0  0  0  0  0  0
    2.4770   -1.8220   -0.2910 C   0  0  0  0  0  0  0  0  0  0  0  0
    3.1830   -2.6770    0.5940 N   0  0  0  0  0  0  0  0  0  0  0  0
    4.4990   -3.1730    0.3010 C   0  0  0  0  0  0  0  0  0  0  0  0
    5.5070   -2.0920    0.1970 C   0  0  0  0  0  0  0  0  0  0  0  0
    5.2240   -0.7960    0.5760 C   0  0  0  0  0  0  0  0  0  0  0  0
    6.1610    0.1930    0.4740 N   0  0  0  0  0  0  0  0  0  0  0  0
    7.3890   -0.0790   -0.0030 C   0  0  0  0  0  0  0  0  0  0  0  0
    8.4530    0.9660   -0.1360 C   0  0  0  0  0  0  0  0  0  0  0  0
    7.9750    2.2420    0.2990 N   0  0  0  0  0  0  0  0  0  0  0  0
    7.6400   -1.3490   -0.3660 N   0  0  0  0  0  0  0  0  0  0  0  0
    6.7450   -2.3230   -0.2740 N   0  0  0  0  0  0  0  0  0  0  0  0
    1.2390   -1.3730    0.0690 N   0  0  0  0  0  0  0  0  0  0  0  0
   -1.5780    0.7540   -1.1200 C   0  0  0  0  0  0  0  0  0  0  0  0
  1  2  1  0
  2  3  2  0
  2  7  1  0
  3  4  1  0
  4  5  2  0
  4 31  1  0
  5  6  1  0
  5 12  1  0
  6  7  2  0
  6 11  1  0
  7  8  1  0
  8  9  1  0
  9 10  1  0
 10 11  2  0
 12 13  1  0
 13 14  1  0
 14 15  1  0
 14 31  1  0
 15 16  2  0
 15 30  1  0
 16 17  1  0
 17 18  2  0
 18 19  1  0
 19 20  1  0
 19 30  2  0
 20 21  1  0
 21 22  1  0
 22 23  2  0
 22 29  1  0
 23 24  1  0
 24 25  2  0
 25 26  1  0
 25 28  1  0
 26 27  1  0
 28 29  2  0
M  CHG  1  27   1
M  END
