
     RDKit          3D

 31 33  0  0  0  0  0  0  0  0999 V2000
   -0.5270   -3.1730   -1.7480 C   0  0  0  0  0  0  0  0  0  0  0  0
   -0.9710   -2.3540   -0.5450 C   0  0  0  0  0  0  0  0  0  0  0  0
   -2.2200   -1.8660   -0.4160 C   0  0  0  0  0  0  0  0  0  0  0  0
   -2.5690   -1.1430    0.6670 C   0  0  0  0  0  0  0  0  0  0  0  0
   -3.8020   -0.5150    1.0560 C   0  0  0  0  0  0  0  0  0  0  0  0
   -3.8840    0.1120    2.1270 O   0  0  0  0  0  0  0  0  0  0  0  0
   -4.9000   -0.6100    0.2340 O   0  0  0  0  0  0  0  0  0  0  0  0
   -6.1330   -0.0090    0.5760 C   0  0  0  0  0  0  0  0  0  0  0  0
   -5.9700    1.4480    0.7270 C   0  0  0  0  0  0  0  0  0  0  0  0
   -6.9900    2.3130    1.0570 C   0  0  0  0  0  0  0  0  0  0  0  0
   -6.4250    3.5740    1.0950 C   0  0  0  0  0  0  0  0  0  0  0  0
   -5.0890    3.4040    0.7850 C   0  0  0  0  0  0  0  0  0  0  0  0
   -4.1190    4.3940    0.7010 O   0  0  0  0  0  0  0  0  0  0  0  0
   -4.8830    2.1270    0.5780 O   0  0  0  0  0  0  0  0  0  0  0  0
   -1.0410   -1.1300    1.5990 S   0  0  0  0  0  0  0  0  0  0  0  0
   -0.0840   -2.0880    0.4570 C   0  0  0  0  0  0  0  0  0  0  0  0
    1.3080   -2.3940    0.7350 C   0  0  0  0  0  0  0  0  0  0  0  0
    1.8460   -1.9570    1.8290 O   0  0  0  0  0  0  0  0  0  0  0  0
    2.1240   -3.1430   -0.1110 N   0  0  0  0  0  0  0  0  0  0  0  0
    3.5000   -3.3620    0.2860 C   0  0  0  0  0  0  0  0  0  0  0  0
    4.3090   -2.1050    0.3530 C   0  0  0  0  0  0  0  0  0  0  0  0
    5.4950   -2.1790    0.7530 O   0  0  0  0  0  0  0  0  0  0  0  0
    3.7960   -0.8440   -0.0180 N   0  0  0  0  0  0  0  0  0  0  0  0
    4.4550    0.3970    0.0120 C   0  0  0  0  0  0  0  0  0  0  0  0
    5.7400    0.5920    0.4170 C   0  0  0  0  0  0  0  0  0  0  0  0
    6.3190    1.8760    0.4130 C   0  0  0  0  0  0  0  0  0  0  0  0
    5.6050    2.9700    0.0010 C   0  0  0  0  0  0  0  0  0  0  0  0
    4.3060    2.7860   -0.4100 C   0  0  0  0  0  0  0  0  0  0  0  0
    3.3110    4.2990   -0.9830 Br  0  0  0  0  0  0  0  0  0  0  0  0
    3.7520    1.5250   -0.4020 C   0  0  0  0  0  0  0  0  0  0  0  0
    2.3660    1.3770   -0.8480 C   0  0  0  0  0  0  0  0  0  0  0  0
  1  2  1  0
  2  3  1  0
  2 16  2  0
  3  4  2  0
  4  5  1  0
  4 15  1  0
  5  6  2  0
  5  7  1  0
  7  8  1  0
  8  9  1  0
  9 10  2  0
  9 14  1  0
 10 11  1  0
 11 12  2  0
 12 13  1  0
 12 14  1  0
 15 16  1  0
 16 17  1  0
 17 18  2  0
 17 19  1  0
 19 20  1  0
 20 21  1  0
 21 22  2  0
 21 23  1  0
 23 24  1  0
 24 25  2  0
 24 30  1  0
 25 26  1  0
 26 27  2  0
 27 28  1  0
 28 29  1  0
 28 30  2  0
 30 31  1  0
M  END
