
     RDKit          3D

 31 33  0  0  0  0  0  0  0  0999 V2000
   11.4010    2.0270    0.0890 C   0  0  0  0  0  0  0  0  0  0  0  0
   10.0150    1.7150    0.0530 O   0  0  0  0  0  0  0  0  0  0  0  0
    9.5770    0.3940   -0.0080 C   0  0  0  0  0  0  0  0  0  0  0  0
   10.4400   -0.4900   -0.0290 O   0  0  0  0  0  0  0  0  0  0  0  0
    8.1640    0.0530   -0.0450 C   0  0  0  0  0  0  0  0  0  0  0  0
    7.4850   -1.1320   -0.1000 C   0  0  0  0  0  0  0  0  0  0  0  0
    6.1390   -1.0850   -0.1240 C   0  0  0  0  0  0  0  0  0  0  0  0
    5.5180    0.0850   -0.0940 C   0  0  0  0  0  0  0  0  0  0  0  0
    4.0610    0.3990   -0.1080 C   0  0  0  0  0  0  0  0  0  0  0  0
    3.6870    1.5800   -0.0770 O   0  0  0  0  0  0  0  0  0  0  0  0
    3.1100   -0.6370   -0.1560 N   0  0  0  0  0  0  0  0  0  0  0  0
    1.7120   -0.5170   -0.1740 C   0  0  0  0  0  0  0  0  0  0  0  0
    0.9810    0.6160   -0.1670 C   0  0  0  0  0  0  0  0  0  0  0  0
   -0.4240    0.5960   -0.1830 C   0  0  0  0  0  0  0  0  0  0  0  0
   -1.1450   -0.5640   -0.2080 C   0  0  0  0  0  0  0  0  0  0  0  0
   -2.5560   -0.6870   -0.2120 N   0  0  0  0  0  0  0  0  0  0  0  0
   -3.5210    0.2980   -0.0630 C   0  0  0  0  0  0  0  0  0  0  0  0
   -3.0940    1.4960    0.0940 O   0  0  0  0  0  0  0  0  0  0  0  0
   -4.9660    0.0720   -0.0740 C   0  0  0  0  0  0  0  0  0  0  0  0
   -5.9060    1.1030   -0.2680 C   0  0  0  0  0  0  0  0  0  0  0  0
   -7.1470    0.5340   -0.2480 C   0  0  0  0  0  0  0  0  0  0  0  0
   -8.4740    1.1910   -0.4070 C   0  0  0  0  0  0  0  0  0  0  0  0
   -9.0110    1.6340    0.9540 C   0  0  0  0  0  0  0  0  0  0  0  0
   -9.1570    0.5370    1.8010 O   0  0  0  0  0  0  0  0  0  0  0  0
   -7.0130   -0.7450   -0.0580 O   0  0  0  0  0  0  0  0  0  0  0  0
   -5.7300   -1.0510    0.0490 C   0  0  0  0  0  0  0  0  0  0  0  0
   -5.2450   -2.4430    0.2750 C   0  0  0  0  0  0  0  0  0  0  0  0
   -0.3810   -1.7370   -0.2160 C   0  0  0  0  0  0  0  0  0  0  0  0
    0.9940   -1.7160   -0.2000 C   0  0  0  0  0  0  0  0  0  0  0  0
    1.9050   -3.4010   -0.2140 Br  0  0  0  0  0  0  0  0  0  0  0  0
    6.7830    1.2350   -0.0290 S   0  0  0  0  0  0  0  0  0  0  0  0
  1  2  1  0
  2  3  1  0
  3  4  2  0
  3  5  1  0
  5  6  2  0
  5 31  1  0
  6  7  1  0
  7  8  2  0
  8  9  1  0
  8 31  1  0
  9 10  2  0
  9 11  1  0
 11 12  1  0
 12 13  2  0
 12 29  1  0
 13 14  1  0
 14 15  2  0
 15 16  1  0
 15 28  1  0
 16 17  1  0
 17 18  2  0
 17 19  1  0
 19 20  1  0
 19 26  2  0
 20 21  2  0
 21 22  1  0
 21 25  1  0
 22 23  1  0
 23 24  1  0
 25 26  1  0
 26 27  1  0
 28 29  2  0
 29 30  1  0
M  END
