
     RDKit          3D

 31 33  0  0  0  0  0  0  0  0999 V2000
    5.9110   -3.0520   -2.2390 C   0  0  0  0  0  0  0  0  0  0  0  0
    5.4610   -2.2490   -1.1700 O   0  0  0  0  0  0  0  0  0  0  0  0
    4.2420   -2.5200   -0.5570 C   0  0  0  0  0  0  0  0  0  0  0  0
    3.5730   -3.4780   -0.9750 O   0  0  0  0  0  0  0  0  0  0  0  0
    3.8050   -1.6570    0.5590 C   0  0  0  0  0  0  0  0  0  0  0  0
    4.0640   -1.8340    1.9010 C   0  0  0  0  0  0  0  0  0  0  0  0
    4.8610   -2.9750    2.4610 C   0  0  0  0  0  0  0  0  0  0  0  0
    3.4910   -0.8320    2.5900 N   0  0  0  0  0  0  0  0  0  0  0  0
    2.8620    0.0010    1.7460 C   0  0  0  0  0  0  0  0  0  0  0  0
    2.1280    1.2040    2.1500 C   0  0  0  0  0  0  0  0  0  0  0  0
    2.0350    1.5510    3.3550 O   0  0  0  0  0  0  0  0  0  0  0  0
    1.4980    2.0240    1.2210 O   0  0  0  0  0  0  0  0  0  0  0  0
    0.7850    3.1840    1.5480 C   0  0  1  0  0  0  0  0  0  0  0  0
    1.3770    4.4300    0.9250 C   0  0  0  0  0  0  0  0  0  0  0  0
   -0.6420    3.1160    1.1640 C   0  0  0  0  0  0  0  0  0  0  0  0
   -1.3590    4.1180    1.4220 O   0  0  0  0  0  0  0  0  0  0  0  0
   -1.2450    2.0130    0.5350 N   0  0  0  0  0  0  0  0  0  0  0  0
   -2.6520    1.9770    0.1690 C   0  0  0  0  0  0  0  0  0  0  0  0
   -3.0020    0.6940   -0.4760 C   0  0  0  0  0  0  0  0  0  0  0  0
   -1.8080   -0.6040   -0.7430 S   0  0  0  0  0  0  0  0  0  0  0  0
   -3.0250   -1.7250   -1.5330 C   0  0  0  0  0  0  0  0  0  0  0  0
   -2.6180   -3.4660   -2.1990 Br  0  0  0  0  0  0  0  0  0  0  0  0
   -4.1990   -1.0060   -1.5120 C   0  0  0  0  0  0  0  0  0  0  0  0
   -4.1650    0.2200   -0.9710 C   0  0  0  0  0  0  0  0  0  0  0  0
   -5.4830    0.9850   -0.9820 C   0  0  0  0  0  0  0  0  0  0  0  0
   -6.6140    0.1060   -0.5070 C   0  0  0  0  0  0  0  0  0  0  0  0
   -6.7380   -1.1380   -1.3560 C   0  0  0  0  0  0  0  0  0  0  0  0
   -5.4970   -1.4870   -2.0420 C   0  0  0  0  0  0  0  0  0  0  0  0
   -5.5020   -2.1840   -3.0680 O   0  0  0  0  0  0  0  0  0  0  0  0
    3.0520   -0.5050    0.4800 C   0  0  0  0  0  0  0  0  0  0  0  0
    2.5270    0.0990   -0.7720 C   0  0  0  0  0  0  0  0  0  0  0  0
  1  2  1  0
  2  3  1  0
  3  4  2  0
  3  5  1  0
  5  6  2  0
  5 30  1  0
  6  7  1  0
  6  8  1  0
  8  9  1  0
  9 10  1  0
  9 30  2  0
 10 11  2  0
 10 12  1  0
 12 13  1  0
 13 14  1  6
 13 15  1  0
 15 16  2  0
 15 17  1  0
 17 18  1  0
 18 19  1  0
 19 20  1  0
 19 24  2  0
 20 21  1  0
 21 22  1  0
 21 23  2  0
 23 24  1  0
 23 28  1  0
 24 25  1  0
 25 26  1  0
 26 27  1  0
 27 28  1  0
 28 29  2  0
 30 31  1  0
M  END
