
     RDKit          3D

 30 32  0  0  0  0  0  0  0  0999 V2000
   -6.8070    1.8050    1.8000 C   0  0  0  0  0  0  0  0  0  0  0  0
   -7.2220    1.3530    0.4320 C   0  0  0  0  0  0  0  0  0  0  0  0
   -8.4500    1.6750   -0.0320 N   0  0  0  0  0  0  0  0  0  0  0  0
   -8.8670    1.2910   -1.2550 C   0  0  0  0  0  0  0  0  0  0  0  0
   -8.0360    0.5560   -2.0620 C   0  0  0  0  0  0  0  0  0  0  0  0
   -6.8110    0.2430   -1.5810 N   0  0  0  0  0  0  0  0  0  0  0  0
   -6.3860    0.6180   -0.3710 C   0  0  0  0  0  0  0  0  0  0  0  0
   -5.0820    0.2460    0.0560 N   0  0  0  0  0  0  0  0  0  0  0  0
   -4.2030   -0.5170   -0.7660 C   0  0  0  0  0  0  0  0  0  0  0  0
   -4.6300   -0.8610   -1.9120 O   0  0  0  0  0  0  0  0  0  0  0  0
   -2.9060   -0.8730   -0.3120 N   0  0  0  0  0  0  0  0  0  0  0  0
   -2.5070   -0.4400    0.9990 C   0  0  0  0  0  0  0  0  0  0  0  0
   -1.1450   -0.8410    1.4330 C   0  0  0  0  0  0  0  0  0  0  0  0
   -0.2360   -1.0910    0.2550 C   0  0  1  0  0  0  0  0  0  0  0  0
    1.0810   -1.4840    0.7150 N   0  0  0  0  0  0  0  0  0  0  0  0
    2.2420   -0.7370    0.3760 C   0  0  0  0  0  0  0  0  0  0  0  0
    2.1370    0.2930   -0.3380 O   0  0  0  0  0  0  0  0  0  0  0  0
    3.5600   -1.1970    0.8810 C   0  0  0  0  0  0  0  0  0  0  0  0
    4.6540   -0.3060    0.4350 C   0  0  0  0  0  0  0  0  0  0  0  0
    5.6530   -0.7450   -0.2970 C   0  0  0  0  0  0  0  0  0  0  0  0
    6.7630    0.1020   -0.7640 C   0  0  0  0  0  0  0  0  0  0  0  0
    7.7210   -0.3970   -1.4870 C   0  0  0  0  0  0  0  0  0  0  0  0
    8.7980    0.3860   -1.9500 N   0  0  0  0  0  0  0  0  0  0  0  0
    6.7170    1.4960   -0.3740 C   0  0  0  0  0  0  0  0  0  0  0  0
    7.6410    2.3470   -0.7250 N   0  0  0  0  0  0  0  0  0  0  0  0
    5.5830    1.9440    0.4440 C   0  0  0  0  0  0  0  0  0  0  0  0
    5.5730    3.2560    0.7910 F   0  0  0  0  0  0  0  0  0  0  0  0
    4.6450    1.0950    0.8040 C   0  0  0  0  0  0  0  0  0  0  0  0
   -0.8880   -2.2270   -0.5320 C   0  0  0  0  0  0  0  0  0  0  0  0
   -2.0800   -1.6460   -1.2120 C   0  0  0  0  0  0  0  0  0  0  0  0
  1  2  1  0
  2  3  2  0
  2  7  1  0
  3  4  1  0
  4  5  2  0
  5  6  1  0
  6  7  2  0
  7  8  1  0
  8  9  1  0
  9 10  2  0
  9 11  1  0
 11 12  1  0
 11 30  1  0
 12 13  1  0
 13 14  1  0
 14 15  1  1
 14 29  1  0
 15 16  1  0
 16 17  2  0
 16 18  1  0
 18 19  1  0
 19 20  2  0
 19 28  1  0
 20 21  1  0
 21 22  2  3
 21 24  1  0
 22 23  1  0
 24 25  2  0
 24 26  1  0
 26 27  1  0
 26 28  2  0
 29 30  1  0
M  CHG  1  23   1
M  END
