
     RDKit          3D

 31 33  0  0  0  0  0  0  0  0999 V2000
   -2.7070   -1.4500    1.5530 O   0  0  0  0  0  0  0  0  0  0  0  0
   -3.3930   -1.1170    0.5540 C   0  0  0  0  0  0  0  0  0  0  0  0
   -3.0520   -1.8550   -0.6380 N   0  0  0  0  0  0  0  0  0  0  0  0
   -2.0220   -2.8650   -0.6480 C   0  0  0  0  0  0  0  0  0  0  0  0
   -0.6870   -2.3280   -0.2650 C   0  0  0  0  0  0  0  0  0  0  0  0
    0.3750   -2.3700   -1.0580 C   0  0  0  0  0  0  0  0  0  0  0  0
    1.7050   -1.8410   -0.6900 C   0  0  1  0  0  0  0  0  0  0  0  0
    2.3740   -1.2550   -1.7610 O   0  0  0  0  0  0  0  0  0  0  0  0
    3.4480   -0.6400   -1.1050 C   0  0  1  0  0  0  0  0  0  0  0  0
    4.4200    0.3940   -2.2230 S   0  0  0  0  0  0  0  0  0  0  0  0
    5.7490    1.1190   -1.2810 C   0  0  0  0  0  0  0  0  0  0  0  0
    5.6180    2.3300   -0.6390 C   0  0  0  0  0  0  0  0  0  0  0  0
    6.7000    2.8470    0.0850 C   0  0  0  0  0  0  0  0  0  0  0  0
    7.8620    2.1730    0.1600 N   0  0  0  0  0  0  0  0  0  0  0  0
    8.0170    0.9890   -0.4570 C   0  0  0  0  0  0  0  0  0  0  0  0
    6.9470    0.4580   -1.1850 C   0  0  0  0  0  0  0  0  0  0  0  0
    2.7560    0.1540   -0.0350 C   0  0  2  0  0  0  0  0  0  0  0  0
    3.6760    0.3550    0.9960 O   0  0  0  0  0  0  0  0  0  0  0  0
    1.6510   -0.8060    0.3950 C   0  0  2  0  0  0  0  0  0  0  0  0
    1.9900   -1.3000    1.6400 O   0  0  0  0  0  0  0  0  0  0  0  0
   -4.4270   -0.0970    0.5810 C   0  0  0  0  0  0  0  0  0  0  0  0
   -5.1640    0.2500   -0.5220 C   0  0  0  0  0  0  0  0  0  0  0  0
   -6.1500    1.2370   -0.4550 C   0  0  0  0  0  0  0  0  0  0  0  0
   -6.9010    1.5810   -1.6080 N   0  0  0  0  0  0  0  0  0  0  0  0
   -7.7840    2.4660   -1.5430 O   0  0  0  0  0  0  0  0  0  0  0  0
   -6.6360    0.9200   -2.7950 O   0  0  0  0  0  0  0  0  0  0  0  0
   -6.4050    1.8870    0.7290 C   0  0  0  0  0  0  0  0  0  0  0  0
   -5.6850    1.5530    1.8250 C   0  0  0  0  0  0  0  0  0  0  0  0
   -5.9650    2.2270    3.0070 O   0  0  0  0  0  0  0  0  0  0  0  0
   -4.6890    0.5580    1.7590 C   0  0  0  0  0  0  0  0  0  0  0  0
   -4.0510    0.3380    2.9520 O   0  0  0  0  0  0  0  0  0  0  0  0
  1  2  2  0
  2  3  1  0
  2 21  1  0
  3  4  1  0
  4  5  1  0
  5  6  2  3
  7  6  1  6
  7  8  1  0
  7 19  1  0
  8  9  1  0
  9 10  1  6
  9 17  1  0
 10 11  1  0
 11 12  2  0
 11 16  1  0
 12 13  1  0
 13 14  2  0
 14 15  1  0
 15 16  2  0
 17 18  1  1
 17 19  1  0
 19 20  1  1
 21 22  2  0
 21 30  1  0
 22 23  1  0
 23 24  1  0
 23 27  2  0
 24 25  2  0
 24 26  1  0
 27 28  1  0
 28 29  1  0
 28 30  2  0
 30 31  1  0
M  CHG  2  24   1  26  -1
M  END
