
     RDKit          3D

 31 33  0  0  0  0  0  0  0  0999 V2000
    1.6550   -1.4000   -1.7270 O   0  0  0  0  0  0  0  0  0  0  0  0
    2.1110   -0.6750   -0.8070 C   0  0  0  0  0  0  0  0  0  0  0  0
    3.5030   -0.9020   -0.3790 C   0  0  0  0  0  0  0  0  0  0  0  0
    3.8960   -0.0220    0.6590 O   0  0  0  0  0  0  0  0  0  0  0  0
    5.2230   -0.1930    1.1070 C   0  0  0  0  0  0  0  0  0  0  0  0
    5.5770   -0.4030    2.3580 C   0  0  0  0  0  0  0  0  0  0  0  0
    7.0400   -0.5250    2.4000 C   0  0  0  0  0  0  0  0  0  0  0  0
    7.4990   -0.3590    1.0000 C   0  0  0  0  0  0  0  0  0  0  0  0
    6.4220   -0.1700    0.2890 C   0  0  0  0  0  0  0  0  0  0  0  0
    1.2720    0.3220   -0.2250 N   0  0  0  0  0  0  0  0  0  0  0  0
   -0.0810    0.5350   -0.6530 C   0  0  0  0  0  0  0  0  0  0  0  0
   -0.4880   -0.2090   -1.5700 O   0  0  0  0  0  0  0  0  0  0  0  0
   -1.1000    1.7750    0.0660 S   0  0  0  0  0  0  0  0  0  0  0  0
   -2.7800    1.5930   -0.4160 C   0  0  0  0  0  0  0  0  0  0  0  0
   -3.4320    2.7030   -0.7500 C   0  0  0  0  0  0  0  0  0  0  0  0
   -2.7970    4.0380   -0.7260 C   0  0  0  0  0  0  0  0  0  0  0  0
   -1.5260    4.3460   -1.1380 C   0  0  0  0  0  0  0  0  0  0  0  0
   -1.3430    5.6900   -0.9430 C   0  0  0  0  0  0  0  0  0  0  0  0
   -2.5260    6.1510   -0.4130 C   0  0  0  0  0  0  0  0  0  0  0  0
   -2.7970    7.9800    0.0460 Br  0  0  0  0  0  0  0  0  0  0  0  0
   -3.3490    5.1460   -0.3040 O   0  0  0  0  0  0  0  0  0  0  0  0
   -3.4910    0.3130   -0.5890 C   0  0  0  0  0  0  0  0  0  0  0  0
   -4.6330    0.3550   -1.1120 O   0  0  0  0  0  0  0  0  0  0  0  0
   -2.9680   -0.9370   -0.1980 N   0  0  0  0  0  0  0  0  0  0  0  0
   -3.5760   -2.1910   -0.3410 C   0  0  0  0  0  0  0  0  0  0  0  0
   -4.8340   -2.3720   -0.8750 C   0  0  0  0  0  0  0  0  0  0  0  0
   -5.4190   -3.6310   -1.0010 C   0  0  0  0  0  0  0  0  0  0  0  0
   -4.7110   -4.7210   -0.5760 C   0  0  0  0  0  0  0  0  0  0  0  0
   -3.4520   -4.5810   -0.0380 C   0  0  0  0  0  0  0  0  0  0  0  0
   -2.8760   -3.3180    0.0830 C   0  0  0  0  0  0  0  0  0  0  0  0
   -1.6190   -3.3030    0.6330 O   0  0  0  0  0  0  0  0  0  0  0  0
  1  2  2  0
  2  3  1  0
  2 10  1  0
  3  4  1  0
  4  5  1  0
  5  6  2  0
  5  9  1  0
  6  7  1  0
  7  8  1  0
  8  9  2  0
 10 11  1  0
 11 12  2  0
 11 13  1  0
 13 14  1  0
 14 15  2  3
 14 22  1  0
 15 16  1  0
 16 17  2  0
 16 21  1  0
 17 18  1  0
 18 19  2  0
 19 20  1  0
 19 21  1  0
 22 23  2  0
 22 24  1  0
 24 25  1  0
 25 26  2  0
 25 30  1  0
 26 27  1  0
 27 28  2  0
 28 29  1  0
 29 30  2  0
 30 31  1  0
M  END
