
     RDKit          3D

 30 33  0  0  0  0  0  0  0  0999 V2000
    1.6430    3.5230   -1.7240 O   0  0  0  0  0  0  0  0  0  0  0  0
    0.9700    2.5340   -1.1910 C   0  0  0  0  0  0  0  0  0  0  0  0
    0.1880    1.8360   -2.1180 N   0  0  0  0  0  0  0  0  0  0  0  0
   -1.1490    1.4850   -2.1190 N   0  0  0  0  0  0  0  0  0  0  0  0
   -2.2750    1.8240   -1.3610 C   0  0  0  0  0  0  0  0  0  0  0  0
   -3.0300    2.8010   -1.8790 O   0  0  0  0  0  0  0  0  0  0  0  0
   -2.8020    1.3170   -0.1030 C   0  0  0  0  0  0  0  0  0  0  0  0
   -4.0390    1.8400    0.3430 C   0  0  0  0  0  0  0  0  0  0  0  0
   -4.6730    1.4780    1.4510 N   0  0  0  0  0  0  0  0  0  0  0  0
   -4.1460    0.5490    2.2460 C   0  0  0  0  0  0  0  0  0  0  0  0
   -2.9490   -0.0090    1.8900 C   0  0  0  0  0  0  0  0  0  0  0  0
   -2.2530    0.3560    0.7190 C   0  0  0  0  0  0  0  0  0  0  0  0
   -0.9860   -0.3360    0.5640 C   0  0  0  0  0  0  0  0  0  0  0  0
   -0.9970   -1.6750    0.0110 N   0  0  0  0  0  0  0  0  0  0  0  0
   -1.7910   -2.6800    0.3940 C   0  0  0  0  0  0  0  0  0  0  0  0
   -1.5230   -3.8050   -0.3660 C   0  0  0  0  0  0  0  0  0  0  0  0
   -0.5240   -3.4000   -1.2210 C   0  0  0  0  0  0  0  0  0  0  0  0
   -0.1870   -2.0480   -0.9840 C   0  0  0  0  0  0  0  0  0  0  0  0
    0.8150   -1.2830   -1.7100 C   0  0  0  0  0  0  0  0  0  0  0  0
    0.4750   -1.1680   -3.0130 O   0  0  0  0  0  0  0  0  0  0  0  0
    2.0110   -0.6550   -1.4250 N   0  0  0  0  0  0  0  0  0  0  0  0
    2.9060   -0.4200   -0.3180 C   0  0  0  0  0  0  0  0  0  0  0  0
    4.0820   -1.2150   -0.3240 C   0  0  0  0  0  0  0  0  0  0  0  0
    5.0510   -1.2070    0.6200 C   0  0  0  0  0  0  0  0  0  0  0  0
    6.1570   -1.9750    0.5900 F   0  0  0  0  0  0  0  0  0  0  0  0
    4.8820   -0.3510    1.6810 C   0  0  0  0  0  0  0  0  0  0  0  0
    3.7810    0.4340    1.7380 C   0  0  0  0  0  0  0  0  0  0  0  0
    2.7770    0.4190    0.7450 C   0  0  0  0  0  0  0  0  0  0  0  0
    1.7090    1.3830    0.9570 N   0  0  0  0  0  0  0  0  0  0  0  0
    1.1740    2.3860    0.1800 N   0  0  0  0  0  0  0  0  0  0  0  0
  1  2  2  0
  2  3  1  0
  2 30  1  0
  3  4  1  0
  4  5  1  0
  5  6  2  0
  5  7  1  0
  7  8  2  0
  7 12  1  0
  8  9  1  0
  9 10  2  0
 10 11  1  0
 11 12  2  0
 12 13  1  0
 13 14  1  0
 14 15  1  0
 14 18  1  0
 15 16  2  0
 16 17  1  0
 17 18  2  0
 18 19  1  0
 19 20  2  0
 19 21  1  0
 21 22  1  0
 22 23  2  0
 22 28  1  0
 23 24  1  0
 24 25  1  0
 24 26  2  0
 26 27  1  0
 27 28  2  0
 28 29  1  0
 29 30  1  0
M  CHG  1   9   1
M  END
