
     RDKit          3D

 30 33  0  0  0  0  0  0  0  0999 V2000
    6.8530   -2.1600    1.0460 C   0  0  0  0  0  0  0  0  0  0  0  0
    5.6920   -1.2540    0.6880 C   0  0  0  0  0  0  0  0  0  0  0  0
    4.5480   -1.6580    0.9290 O   0  0  0  0  0  0  0  0  0  0  0  0
    5.9410   -0.0030    0.1040 N   0  0  0  0  0  0  0  0  0  0  0  0
    4.9410    0.9210   -0.2700 C   0  0  0  0  0  0  0  0  0  0  0  0
    3.5870    0.7660   -0.1310 C   0  0  0  0  0  0  0  0  0  0  0  0
    2.6820    1.7290   -0.5270 C   0  0  0  0  0  0  0  0  0  0  0  0
    1.2190    1.5600   -0.3860 C   0  0  0  0  0  0  0  0  0  0  0  0
    0.4780    2.5710   -0.4870 O   0  0  0  0  0  0  0  0  0  0  0  0
    0.6010    0.3110   -0.1420 N   0  0  0  0  0  0  0  0  0  0  0  0
   -0.7760    0.0510    0.0070 C   0  0  0  0  0  0  0  0  0  0  0  0
   -1.7960    0.9390   -0.0510 C   0  0  0  0  0  0  0  0  0  0  0  0
   -3.1170    0.5220    0.1180 C   0  0  0  0  0  0  0  0  0  0  0  0
   -4.1820    1.3940    0.0650 C   0  0  0  0  0  0  0  0  0  0  0  0
   -5.4740    0.9500    0.2370 C   0  0  0  0  0  0  0  0  0  0  0  0
   -6.6730    1.5480    0.2380 N   0  0  0  0  0  0  0  0  0  0  0  0
   -7.6460    0.6800    0.4500 N   0  0  0  0  0  0  0  0  0  0  0  0
   -7.1010   -0.5400    0.5980 C   0  0  0  0  0  0  0  0  0  0  0  0
   -5.7360   -0.4040    0.4700 C   0  0  0  0  0  0  0  0  0  0  0  0
   -4.6940   -1.2950    0.5270 C   0  0  0  0  0  0  0  0  0  0  0  0
   -4.9120   -2.7310    0.7700 C   0  0  0  0  0  0  0  0  0  0  0  0
   -3.7900   -3.6080    0.8190 N   0  0  0  0  0  0  0  0  0  0  0  0
   -6.0780   -3.1230    0.9230 O   0  0  0  0  0  0  0  0  0  0  0  0
   -3.4050   -0.8040    0.3490 C   0  0  0  0  0  0  0  0  0  0  0  0
   -2.3640   -1.6450    0.3980 N   0  0  0  0  0  0  0  0  0  0  0  0
   -1.1190   -1.2530    0.2390 N   0  0  0  0  0  0  0  0  0  0  0  0
    3.1010    2.9130   -1.0910 C   0  0  0  0  0  0  0  0  0  0  0  0
    4.4550    3.0860   -1.2380 C   0  0  0  0  0  0  0  0  0  0  0  0
    5.3490    2.1340   -0.8470 C   0  0  0  0  0  0  0  0  0  0  0  0
    6.6600    2.4030   -1.0360 F   0  0  0  0  0  0  0  0  0  0  0  0
  1  2  1  0
  2  3  2  0
  2  4  1  0
  4  5  1  0
  5  6  2  0
  5 29  1  0
  6  7  1  0
  7  8  1  0
  7 27  2  0
  8  9  2  0
  8 10  1  0
 10 11  1  0
 11 12  2  0
 11 26  1  0
 12 13  1  0
 13 14  2  0
 13 24  1  0
 14 15  1  0
 15 16  1  0
 15 19  2  0
 16 17  1  0
 17 18  2  0
 18 19  1  0
 19 20  1  0
 20 21  1  0
 20 24  2  0
 21 22  1  0
 21 23  2  0
 24 25  1  0
 25 26  2  0
 27 28  1  0
 28 29  2  0
 29 30  1  0
M  CHG  1  26   1
M  END
