
     RDKit          3D

 31 33  0  0  0  0  0  0  0  0999 V2000
   -5.9910   -1.1340   -1.3580 C   0  0  0  0  0  0  0  0  0  0  0  0
   -5.2840   -2.1250   -0.8560 C   0  0  0  0  0  0  0  0  0  0  0  0
   -5.2450   -3.7780   -1.7910 Br  0  0  0  0  0  0  0  0  0  0  0  0
   -4.5370   -1.9300    0.4210 C   0  0  0  0  0  0  0  0  0  0  0  0
   -3.8330   -3.0010    0.8700 C   0  0  0  0  0  0  0  0  0  0  0  0
   -3.0850   -2.8390    2.1300 C   0  0  0  0  0  0  0  0  0  0  0  0
   -4.5630   -0.8270    1.0480 O   0  0  0  0  0  0  0  0  0  0  0  0
   -4.5870    0.2970    1.6870 C   0  0  0  0  0  0  0  0  0  0  0  0
   -3.2830    1.0980    1.6590 C   0  0  0  0  0  0  0  0  0  0  0  0
   -3.2390    2.1830    2.2510 O   0  0  0  0  0  0  0  0  0  0  0  0
   -2.2190    0.5690    0.9710 N   0  0  0  0  0  0  0  0  0  0  0  0
   -0.9130    1.0950    0.7250 C   0  0  0  0  0  0  0  0  0  0  0  0
    0.4470   -0.0500    0.5120 S   0  0  0  0  0  0  0  0  0  0  0  0
    1.6980    1.1370    0.1990 C   0  0  0  0  0  0  0  0  0  0  0  0
    3.0570    0.6990   -0.0240 N   0  0  0  0  0  0  0  0  0  0  0  0
    4.1480    1.3570   -0.5640 C   0  0  0  0  0  0  0  0  0  0  0  0
    4.0320    2.5220   -0.9750 O   0  0  0  0  0  0  0  0  0  0  0  0
    5.5050    0.7070   -0.6750 C   0  0  0  0  0  0  0  0  0  0  0  0
    5.4940   -0.6200   -0.3290 O   0  0  0  0  0  0  0  0  0  0  0  0
    4.7480   -1.5850   -1.0150 C   0  0  0  0  0  0  0  0  0  0  0  0
    4.5120   -2.8300   -0.6430 C   0  0  0  0  0  0  0  0  0  0  0  0
    3.6840   -3.5270   -1.6390 C   0  0  0  0  0  0  0  0  0  0  0  0
    3.4540   -2.5100   -2.6730 C   0  0  0  0  0  0  0  0  0  0  0  0
    4.0730   -1.4070   -2.2940 C   0  0  0  0  0  0  0  0  0  0  0  0
    1.0430    2.2820    0.2730 C   0  0  0  0  0  0  0  0  0  0  0  0
   -0.3050    2.2740    0.5330 C   0  0  0  0  0  0  0  0  0  0  0  0
   -1.0070    3.5680    0.3420 C   0  0  0  0  0  0  0  0  0  0  0  0
   -2.2510    3.7120    0.5330 O   0  0  0  0  0  0  0  0  0  0  0  0
   -0.3880    4.7460   -0.0710 O   0  0  0  0  0  0  0  0  0  0  0  0
    0.8790    4.5420   -0.7270 C   0  0  0  0  0  0  0  0  0  0  0  0
    1.6060    3.6840    0.2860 C   0  0  0  0  0  0  0  0  0  0  0  0
  1  2  2  0
  2  3  1  0
  2  4  1  0
  4  5  2  3
  4  7  1  0
  5  6  1  0
  7  8  1  0
  8  9  1  0
  9 10  2  0
  9 11  1  0
 11 12  1  0
 12 13  1  0
 12 26  2  0
 13 14  1  0
 14 15  1  0
 14 25  2  0
 15 16  1  0
 16 17  2  0
 16 18  1  0
 18 19  1  0
 19 20  1  0
 20 21  2  0
 20 24  1  0
 21 22  1  0
 22 23  1  0
 23 24  2  0
 25 26  1  0
 25 31  1  0
 26 27  1  0
 27 28  2  0
 27 29  1  0
 29 30  1  0
 30 31  1  0
M  END
