
     RDKit          3D

 31 33  0  0  0  0  0  0  0  0999 V2000
   -8.2500   -0.5510   -2.3780 C   0  0  0  0  0  0  0  0  0  0  0  0
   -8.2010    0.6460   -1.4560 C   0  0  0  0  0  0  0  0  0  0  0  0
   -6.4980    1.1180   -1.1200 S   0  0  2  0  0  0  0  0  0  0  0  0
   -5.6820   -0.2270   -0.3610 N   0  0  0  0  0  0  0  0  0  0  0  0
   -5.4990   -0.3010    1.0430 C   0  0  0  0  0  0  0  0  0  0  0  0
   -4.9900   -1.5780    1.6510 C   0  0  0  0  0  0  0  0  0  0  0  0
   -3.7000   -1.9020    1.1210 O   0  0  0  0  0  0  0  0  0  0  0  0
   -2.6350   -1.0330    1.2790 C   0  0  0  0  0  0  0  0  0  0  0  0
   -2.8880    0.0430    1.9140 O   0  0  0  0  0  0  0  0  0  0  0  0
   -1.2770   -1.3310    0.7440 C   0  0  0  0  0  0  0  0  0  0  0  0
   -0.3870   -0.1870    1.0950 C   0  0  0  0  0  0  0  0  0  0  0  0
    1.0060   -0.3810    0.6040 C   0  0  0  0  0  0  0  0  0  0  0  0
    1.2420   -1.4330   -0.0140 O   0  0  0  0  0  0  0  0  0  0  0  0
    2.0240    0.5600    0.8150 N   0  0  0  0  0  0  0  0  0  0  0  0
    3.3760    0.4740    0.3920 C   0  0  0  0  0  0  0  0  0  0  0  0
    4.2540    1.5240    0.7120 C   0  0  0  0  0  0  0  0  0  0  0  0
    5.5730    1.5020    0.3320 C   0  0  0  0  0  0  0  0  0  0  0  0
    6.1120    0.4530   -0.3830 C   0  0  0  0  0  0  0  0  0  0  0  0
    7.5280    0.5070   -0.7490 C   0  0  0  0  0  0  0  0  0  0  0  0
    8.2360    1.5690   -1.2690 C   0  0  0  0  0  0  0  0  0  0  0  0
    9.5320    1.1410   -1.4490 C   0  0  0  0  0  0  0  0  0  0  0  0
   11.0050    2.1700   -2.1460 Br  0  0  0  0  0  0  0  0  0  0  0  0
    9.5960   -0.1080   -1.0580 O   0  0  0  0  0  0  0  0  0  0  0  0
    8.4380   -0.5320   -0.6350 C   0  0  0  0  0  0  0  0  0  0  0  0
    8.1010   -1.8840   -0.1120 C   0  0  0  0  0  0  0  0  0  0  0  0
    5.2770   -0.5770   -0.7050 C   0  0  0  0  0  0  0  0  0  0  0  0
    3.9280   -0.5540   -0.3150 C   0  0  0  0  0  0  0  0  0  0  0  0
   -5.7710    0.7340    1.8150 C   0  0  0  0  0  0  0  0  0  0  0  0
   -6.2640    2.0190    1.3800 C   0  0  0  0  0  0  0  0  0  0  0  0
   -6.4730    2.9060    2.2570 O   0  0  0  0  0  0  0  0  0  0  0  0
   -6.5340    2.3760    0.0790 O   0  0  0  0  0  0  0  0  0  0  0  0
  1  2  1  0
  3  2  1  1
  3  4  1  0
  3 31  1  0
  4  5  1  0
  5  6  1  0
  5 28  2  0
  6  7  1  0
  7  8  1  0
  8  9  2  0
  8 10  1  0
 10 11  1  0
 11 12  1  0
 12 13  2  0
 12 14  1  0
 14 15  1  0
 15 16  2  0
 15 27  1  0
 16 17  1  0
 17 18  2  0
 18 19  1  0
 18 26  1  0
 19 20  1  0
 19 24  2  0
 20 21  2  0
 21 22  1  0
 21 23  1  0
 23 24  1  0
 24 25  1  0
 26 27  2  0
 28 29  1  0
 29 30  2  0
 29 31  1  0
M  END
