
     RDKit          3D

 12 11  0  0  0  0  0  0  0  0999 V2000
    1.1000    2.4600   -0.2160 C   0  0  0  0  0  0  0  0  0  0  0  0
    0.8480    1.0890    0.3840 C   0  0  0  0  0  0  0  0  0  0  0  0
    0.8540   -0.2260   -0.8900 P   0  0  0  0  0  0  0  0  0  0  0  0
    2.4240   -0.6860   -1.4080 O   0  0  0  0  0  0  0  0  0  0  0  0
    3.2170   -1.0780   -0.4270 O   0  0  0  0  0  0  0  0  0  0  0  0
    4.5210   -0.6390   -0.3980 C   0  0  0  0  0  0  0  0  0  0  0  0
    4.9250    0.1300   -1.3110 O   0  0  0  0  0  0  0  0  0  0  0  0
   -0.0950   -1.6120   -0.4960 O   0  0  0  0  0  0  0  0  0  0  0  0
   -1.4520   -1.6470   -0.3130 C   0  0  0  0  0  0  0  0  0  0  0  0
   -2.0510   -2.9000   -0.1820 O   0  0  0  0  0  0  0  0  0  0  0  0
   -2.3890   -0.3050   -0.2430 S   0  0  0  0  0  0  0  0  0  0  0  0
   -4.1780   -0.4360    0.0010 C   0  0  0  0  0  0  0  0  0  0  0  0
  1  2  1  0
  2  3  1  0
  3  4  1  0
  3  8  1  0
  4  5  1  0
  5  6  1  0
  6  7  2  0
  8  9  1  0
  9 10  1  0
  9 11  2  3
 11 12  1  0
M  END
