
     RDKit          3D

 11 11  0  0  0  0  0  0  0  0999 V2000
   -1.1430    1.9930    0.3100 C   0  0  0  0  0  0  0  0  0  0  0  0
   -1.1420    0.5750   -0.1120 C   0  0  0  0  0  0  0  0  0  0  0  0
   -2.2380   -0.0600   -0.4670 C   0  0  0  0  0  0  0  0  0  0  0  0
   -2.1280   -1.3880   -0.8460 O   0  0  0  0  0  0  0  0  0  0  0  0
   -1.2700   -2.3110   -0.2140 C   0  0  0  0  0  0  0  0  0  0  0  0
    0.0660   -2.0180   -0.3580 O   0  0  0  0  0  0  0  0  0  0  0  0
    0.4200   -0.3390   -0.1480 P   0  0  0  0  0  0  0  0  0  0  0  0
    1.4060   -0.0330    1.2320 O   0  0  0  0  0  0  0  0  0  0  0  0
    2.6600   -0.2720    0.9060 O   0  0  0  0  0  0  0  0  0  0  0  0
    3.4050    1.1960    0.4890 S   0  0  0  0  0  0  0  0  0  0  0  0
    4.6490    0.9680   -0.6680 O   0  0  0  0  0  0  0  0  0  0  0  0
  1  2  1  0
  2  3  2  0
  2  7  1  0
  3  4  1  0
  4  5  1  0
  5  6  1  0
  6  7  1  0
  7  8  1  0
  8  9  1  0
  9 10  1  0
 10 11  1  0
M  END
