
     RDKit          3D

 12 11  0  0  0  0  0  0  0  0999 V2000
   -3.4400    0.5230    0.2570 C   0  0  0  0  0  0  0  0  0  0  0  0
   -2.1120    0.0050   -0.0550 C   0  0  2  0  0  0  0  0  0  0  0  0
   -1.0890    1.1290   -0.3340 C   0  0  0  0  0  0  0  0  0  0  0  0
    0.0540    0.4330   -0.6980 O   0  0  0  0  0  0  0  0  0  0  0  0
    1.0320    0.9460    0.2240 O   0  0  0  0  0  0  0  0  0  0  0  0
    1.7490   -0.2560    0.5600 C   0  0  0  0  0  0  0  0  0  0  0  0
    0.7960   -1.3120    0.8980 O   0  0  0  0  0  0  0  0  0  0  0  0
    3.2420   -0.5230    0.5750 S   0  0  0  0  0  0  0  0  0  0  0  0
    4.5440    0.7060    0.1260 C   0  0  0  0  0  0  0  0  0  0  0  0
    4.9250    0.9580   -0.9880 O   0  0  0  0  0  0  0  0  0  0  0  0
   -1.9950   -1.3790   -1.2730 P   0  0  0  0  0  0  0  0  0  0  0  0
   -1.6660   -1.2500   -2.7310 O   0  0  0  0  0  0  0  0  0  0  0  0
  2  1  1  6
  2  3  1  0
  2 11  1  0
  3  4  1  0
  4  5  1  0
  5  6  1  0
  6  7  1  0
  6  8  2  3
  8  9  1  0
  9 10  2  0
 11 12  2  0
M  END
