
     RDKit          3D

 12 11  0  0  0  0  0  0  0  0999 V2000
    2.9840    1.0370   -0.2850 C   0  0  0  0  0  0  0  0  0  0  0  0
    1.9520    0.4000   -0.8810 O   0  0  0  0  0  0  0  0  0  0  0  0
    0.9120   -0.5020   -0.3810 S   0  0  0  0  0  0  0  0  0  0  0  0
    0.8660   -1.2540   -1.6380 O   0  0  0  0  0  0  0  0  0  0  0  0
    1.3710   -2.1580    0.2690 O   0  0  0  0  0  0  0  0  0  0  0  0
    1.1490   -0.1150    1.0990 O   0  0  0  0  0  0  0  0  0  0  0  0
   -0.7580   -0.3210   -0.2200 C   0  0  2  0  0  0  0  0  0  0  0  0
   -1.3620   -1.1350    0.9390 C   0  0  0  0  0  0  0  0  0  0  0  0
   -1.8260   -0.7440   -1.6780 P   0  0  0  0  0  0  0  0  0  0  0  0
   -1.0310    1.0890    0.1120 C   0  0  0  0  0  0  0  0  0  0  0  0
   -2.4510    1.5030    0.2620 C   0  0  0  0  0  0  0  0  0  0  0  0
   -0.1660    1.9300    0.2700 O   0  0  0  0  0  0  0  0  0  0  0  0
  1  2  1  0
  2  3  1  0
  3  4  2  0
  3  5  1  0
  3  6  1  0
  3  7  1  0
  7  8  1  1
  7  9  1  0
  7 10  1  0
 10 11  1  0
 10 12  2  0
M  END
