
     RDKit          3D

 11 10  0  0  0  0  0  0  0  0999 V2000
    3.8830    0.6910    0.1010 C   0  0  0  0  0  0  0  0  0  0  0  0
    3.2200   -0.9890    0.3100 S   0  0  0  0  0  0  0  0  0  0  0  0
    1.5630   -0.8810    0.7430 O   0  0  0  0  0  0  0  0  0  0  0  0
    0.8380   -0.7650   -0.3470 O   0  0  0  0  0  0  0  0  0  0  0  0
   -0.5080   -0.9800   -0.1160 C   0  0  2  0  0  0  0  0  0  0  0  0
   -0.9920   -2.1090   -0.9530 C   0  0  0  0  0  0  0  0  0  0  0  0
   -2.1500   -2.4840   -0.9210 O   0  0  0  0  0  0  0  0  0  0  0  0
   -1.5240    0.5130   -0.5770 P   0  0  0  0  0  0  0  0  0  0  0  0
   -1.3750    1.8520    0.6900 C   0  0  0  0  0  0  0  0  0  0  0  0
   -3.1630    0.0300   -0.8110 O   0  0  0  0  0  0  0  0  0  0  0  0
   -3.5890   -0.5230    0.2980 O   0  0  0  0  0  0  0  0  0  0  0  0
  1  2  1  0
  2  3  1  0
  3  4  1  0
  5  4  1  6
  5  6  1  0
  5  8  1  0
  6  7  2  0
  8  9  1  0
  8 10  1  0
 10 11  1  0
M  END
