
     RDKit          3D

 12 12  0  0  0  0  0  0  0  0999 V2000
   -0.7950    3.1150   -0.6930 O   0  0  0  0  0  0  0  0  0  0  0  0
   -0.7840    1.8830   -0.3440 C   0  0  0  0  0  0  0  0  0  0  0  0
   -1.9680    1.4040   -0.0380 O   0  0  0  0  0  0  0  0  0  0  0  0
   -2.0330   -0.2020    0.4290 P   0  0  0  0  0  0  0  0  0  0  0  0
   -3.4710   -1.1530    0.5300 O   0  0  0  0  0  0  0  0  0  0  0  0
   -0.4670   -0.9610    0.4200 C   0  0  0  0  0  0  0  0  0  0  0  0
    0.5570   -0.1120    0.0310 C   0  0  0  0  0  0  0  0  0  0  0  0
    1.9080   -0.7040    0.0060 C   0  0  0  0  0  0  0  0  0  0  0  0
    3.0540    0.0790    0.0650 O   0  0  0  0  0  0  0  0  0  0  0  0
    2.1360   -2.3170   -0.0940 S   0  0  0  0  0  0  0  0  0  0  0  0
    0.3880    1.1940   -0.3160 C   0  0  0  0  0  0  0  0  0  0  0  0
    1.4380    1.8450   -0.6520 O   0  0  0  0  0  0  0  0  0  0  0  0
  1  2  2  0
  2  3  1  0
  2 11  1  0
  3  4  1  0
  4  5  1  0
  4  6  1  0
  6  7  2  0
  7  8  1  0
  7 11  1  0
  8  9  1  0
  8 10  2  0
 11 12  2  0
M  END
