
     RDKit          3D

 12 12  0  0  0  0  0  0  0  0999 V2000
   -2.1400    1.7090    1.2930 C   0  0  0  0  0  0  0  0  0  0  0  0
   -1.4840    0.4670    1.2310 O   0  0  0  0  0  0  0  0  0  0  0  0
   -0.4460    0.5080    0.3350 C   0  0  1  0  0  0  0  0  0  0  0  0
    0.7210    0.1140    0.9770 O   0  0  0  0  0  0  0  0  0  0  0  0
    1.6430   -0.6310   -0.3210 P   0  0  0  0  0  0  0  0  0  0  0  0
    3.1960    0.2570   -0.6680 C   0  0  0  0  0  0  0  0  0  0  0  0
    4.5460   -0.5610    0.2680 S   0  0  0  0  0  0  0  0  0  0  0  0
    0.4480   -0.4050   -1.5930 O   0  0  0  0  0  0  0  0  0  0  0  0
   -0.6950   -0.4780   -0.7800 C   0  0  2  0  0  0  0  0  0  0  0  0
   -1.8410   -0.1270   -1.4300 O   0  0  0  0  0  0  0  0  0  0  0  0
   -0.7900   -1.8890   -0.2640 C   0  0  0  0  0  0  0  0  0  0  0  0
   -1.8950   -2.0680    0.5560 O   0  0  0  0  0  0  0  0  0  0  0  0
  1  2  1  0
  3  2  1  1
  3  4  1  0
  3  9  1  0
  4  5  1  0
  5  6  1  0
  5  8  1  0
  6  7  1  0
  8  9  1  0
  9 10  1  6
  9 11  1  0
 11 12  1  0
M  END
