
     RDKit          3D

 23 22  0  0  0  0  0  0  0  0999 V2000
    3.8180   -0.0880   -3.1680 C   0  0  0  0  0  0  0  0  0  0  0  0
    2.9380    0.7840   -2.5490 O   0  0  0  0  0  0  0  0  0  0  0  0
    2.0720    0.2000   -1.6670 C   0  0  0  0  0  0  0  0  0  0  0  0
    2.6460   -0.1070   -0.3280 C   0  0  1  0  0  0  0  0  0  0  0  0
    1.7790   -0.9100    0.4280 O   0  0  0  0  0  0  0  0  0  0  0  0
    1.1810   -0.2750    1.4820 C   0  0  2  0  0  0  0  0  0  0  0  0
    1.8480   -0.8770    2.7460 C   0  0  0  0  0  0  0  0  0  0  0  0
    1.6430   -2.2370    2.8100 O   0  0  0  0  0  0  0  0  0  0  0  0
   -0.1540   -0.4740    1.6620 O   0  0  0  0  0  0  0  0  0  0  0  0
   -0.9180    0.6540    1.8840 C   0  0  2  0  0  0  0  0  0  0  0  0
   -1.6320    0.5550    3.2490 C   0  0  0  0  0  0  0  0  0  0  0  0
   -2.3720    1.7440    3.3650 O   0  0  0  0  0  0  0  0  0  0  0  0
   -2.0500    0.6160    0.8790 C   0  0  2  0  0  0  0  0  0  0  0  0
   -2.7680   -0.5480    1.1490 O   0  0  0  0  0  0  0  0  0  0  0  0
   -1.4630    0.6630   -0.4990 C   0  0  0  0  0  0  0  0  0  0  0  0
   -2.3410    0.6140   -1.5370 O   0  0  0  0  0  0  0  0  0  0  0  0
   -3.1260   -0.4820   -1.6880 C   0  0  2  0  0  0  0  0  0  0  0  0
   -2.8890   -1.0560   -2.9630 O   0  0  0  0  0  0  0  0  0  0  0  0
   -4.5780    0.0130   -1.7760 C   0  0  0  0  0  0  0  0  0  0  0  0
   -4.6910    0.8660   -2.8720 O   0  0  0  0  0  0  0  0  0  0  0  0
    4.0360   -0.4620   -0.2860 C   0  0  0  0  0  0  0  0  0  0  0  0
    4.4660   -1.5630    0.1480 O   0  0  0  0  0  0  0  0  0  0  0  0
    5.0340    0.4310   -0.7310 O   0  0  0  0  0  0  0  0  0  0  0  0
  1  2  1  0
  2  3  1  0
  4  3  1  6
  4  5  1  0
  4 21  1  0
  5  6  1  0
  6  7  1  1
  6  9  1  0
  7  8  1  0
  9 10  1  0
 10 11  1  1
 10 13  1  0
 11 12  1  0
 13 14  1  6
 13 15  1  0
 15 16  1  0
 16 17  1  0
 17 18  1  6
 17 19  1  0
 19 20  1  0
 21 22  2  0
 21 23  1  0
M  END
