
     RDKit          3D

 23 22  0  0  0  0  0  0  0  0999 V2000
    7.8620    0.0940    1.8980 O   0  0  0  0  0  0  0  0  0  0  0  0
    6.5590   -0.3240    1.5350 C   0  0  0  0  0  0  0  0  0  0  0  0
    5.9290    0.8450    0.8370 C   0  0  0  0  0  0  0  0  0  0  0  0
    4.6560    0.5570    0.4450 O   0  0  0  0  0  0  0  0  0  0  0  0
    4.6040   -0.5020   -0.4260 C   0  0  0  0  0  0  0  0  0  0  0  0
    3.2280   -0.6660   -0.7410 O   0  0  0  0  0  0  0  0  0  0  0  0
    2.7930    0.5090   -1.3180 C   0  0  0  0  0  0  0  0  0  0  0  0
    1.4590    0.4390   -1.6580 O   0  0  0  0  0  0  0  0  0  0  0  0
    0.6970    0.1950   -0.5330 C   0  0  1  0  0  0  0  0  0  0  0  0
    0.0420    1.4350   -0.2660 O   0  0  0  0  0  0  0  0  0  0  0  0
   -0.2990   -0.9000   -0.6580 C   0  0  1  0  0  0  0  0  0  0  0  0
    0.3810   -2.1990   -0.9970 C   0  0  0  0  0  0  0  0  0  0  0  0
    1.0590   -2.1610   -2.1930 O   0  0  0  0  0  0  0  0  0  0  0  0
   -1.0070   -1.0940    0.6760 C   0  0  0  0  0  0  0  0  0  0  0  0
   -1.7020   -0.0200    1.1190 O   0  0  0  0  0  0  0  0  0  0  0  0
   -2.7650    0.3910    0.3560 C   0  0  0  0  0  0  0  0  0  0  0  0
   -3.8440   -0.6590    0.2090 C   0  0  1  0  0  0  0  0  0  0  0  0
   -4.3750   -1.0330    1.4420 O   0  0  0  0  0  0  0  0  0  0  0  0
   -4.9760   -0.0130   -0.5670 C   0  0  0  0  0  0  0  0  0  0  0  0
   -5.3860    1.0950    0.2070 O   0  0  0  0  0  0  0  0  0  0  0  0
   -6.4180    1.7900   -0.3750 C   0  0  1  0  0  0  0  0  0  0  0  0
   -7.5670    1.8110    0.4320 O   0  0  0  0  0  0  0  0  0  0  0  0
   -6.0940    3.1350   -0.6150 O   0  0  0  0  0  0  0  0  0  0  0  0
  1  2  1  0
  2  3  1  0
  3  4  1  0
  4  5  1  0
  5  6  1  0
  6  7  1  0
  7  8  1  0
  8  9  1  0
  9 10  1  6
  9 11  1  0
 11 12  1  1
 11 14  1  0
 12 13  1  0
 14 15  1  0
 15 16  1  0
 16 17  1  0
 17 18  1  1
 17 19  1  0
 19 20  1  0
 20 21  1  0
 21 22  1  1
 21 23  1  0
M  END
