
     RDKit          3D

 23 22  0  0  0  0  0  0  0  0999 V2000
   -2.6300    0.5590    2.1690 O   0  0  0  0  0  0  0  0  0  0  0  0
   -3.8270    0.3650    1.9200 C   0  0  0  0  0  0  0  0  0  0  0  0
   -4.6920    0.0510    2.9560 O   0  0  0  0  0  0  0  0  0  0  0  0
   -4.3150    0.4710    0.5300 C   0  0  0  0  0  0  0  0  0  0  0  0
   -3.2200    0.8220   -0.4300 C   0  0  2  0  0  0  0  0  0  0  0  0
   -3.8320    0.9020   -1.8230 C   0  0  0  0  0  0  0  0  0  0  0  0
   -4.9150    1.7720   -1.8370 O   0  0  0  0  0  0  0  0  0  0  0  0
   -2.1300   -0.0470   -0.3910 O   0  0  0  0  0  0  0  0  0  0  0  0
   -0.8220    0.2890   -0.1270 C   0  0  0  0  0  0  0  0  0  0  0  0
   -0.5600    1.5060    0.1050 O   0  0  0  0  0  0  0  0  0  0  0  0
    0.2610   -0.7130   -0.1070 C   0  0  1  0  0  0  0  0  0  0  0  0
   -0.3400   -1.9880   -0.2660 O   0  0  0  0  0  0  0  0  0  0  0  0
    1.2790   -0.5230   -1.2060 C   0  0  2  0  0  0  0  0  0  0  0  0
    0.6740   -0.6280   -2.4040 O   0  0  0  0  0  0  0  0  0  0  0  0
    0.7030    0.3500   -3.3160 C   0  0  0  0  0  0  0  0  0  0  0  0
    0.1320    1.5200   -2.8420 O   0  0  0  0  0  0  0  0  0  0  0  0
    2.4310   -1.4820   -1.0010 C   0  0  2  0  0  0  0  0  0  0  0  0
    1.9970   -2.7850   -1.0970 O   0  0  0  0  0  0  0  0  0  0  0  0
    3.0890   -1.2700    0.3180 C   0  0  0  0  0  0  0  0  0  0  0  0
    3.5500    0.0210    0.5090 O   0  0  0  0  0  0  0  0  0  0  0  0
    4.1640    0.2610    1.7020 C   0  0  0  0  0  0  0  0  0  0  0  0
    3.3050    0.0300    2.9240 C   0  0  0  0  0  0  0  0  0  0  0  0
    4.0560    0.3160    4.0890 O   0  0  0  0  0  0  0  0  0  0  0  0
  1  2  2  0
  2  3  1  0
  2  4  1  0
  5  4  1  1
  5  6  1  0
  5  8  1  0
  6  7  1  0
  8  9  1  0
  9 10  2  0
  9 11  1  0
 11 12  1  6
 11 13  1  0
 13 14  1  6
 13 17  1  0
 14 15  1  0
 15 16  1  0
 17 18  1  1
 17 19  1  0
 19 20  1  0
 20 21  1  0
 21 22  1  0
 22 23  1  0
M  END
