
     RDKit          3D

 19 21  0  0  0  0  0  0  0  0999 V2000
   -0.5600   -3.3530   -1.2700 C   0  0  0  0  0  0  0  0  0  0  0  0
    0.3070   -2.5340   -0.3620 C   0  0  0  0  0  0  0  0  0  0  0  0
    0.1780   -1.1410   -0.8130 N   0  0  2  0  0  0  0  0  0  0  0  0
    1.2960   -0.4170   -0.3360 C   0  0  0  0  0  0  0  0  0  0  0  0
    2.1890   -0.9760    0.5730 C   0  0  0  0  0  0  0  0  0  0  0  0
    3.3360   -0.3120    1.0100 C   0  0  0  0  0  0  0  0  0  0  0  0
    3.6200    0.9420    0.5410 C   0  0  0  0  0  0  0  0  0  0  0  0
    4.6500    1.8560    0.7650 C   0  0  0  0  0  0  0  0  0  0  0  0
    4.3870    2.9670   -0.0030 C   0  0  0  0  0  0  0  0  0  0  0  0
    3.2420    2.7460   -0.6730 N   0  0  0  0  0  0  0  0  0  0  0  0
    2.7480    1.5170   -0.3620 C   0  0  0  0  0  0  0  0  0  0  0  0
    1.6140    0.8490   -0.7890 C   0  0  0  0  0  0  0  0  0  0  0  0
   -1.1120   -0.6270   -0.5050 C   0  0  1  0  0  0  0  0  0  0  0  0
   -1.8580   -1.3500    0.5900 C   0  0  0  0  0  0  0  0  0  0  0  0
   -3.3540   -1.0590    0.3490 C   0  0  0  0  0  0  0  0  0  0  0  0
   -3.5400    0.4320    0.1170 C   0  0  0  0  0  0  0  0  0  0  0  0
   -2.3760    1.1540    0.5990 N   0  0  0  0  0  0  0  0  0  0  0  0
   -2.6750    2.5730    0.4330 C   0  0  0  0  0  0  0  0  0  0  0  0
   -1.1710    0.8340   -0.1750 C   0  0  0  0  0  0  0  0  0  0  0  0
  1  2  1  0
  3  2  1  1
  3  4  1  0
  3 13  1  0
  4  5  2  0
  4 12  1  0
  5  6  1  0
  6  7  2  0
  7  8  1  0
  7 11  1  0
  8  9  2  0
  9 10  1  0
 10 11  1  0
 11 12  2  0
 13 14  1  1
 13 19  1  0
 14 15  1  0
 15 16  1  0
 16 17  1  0
 17 18  1  0
 17 19  1  0
M  CHG  1   3   1
M  END
