
     RDKit          3D

 23 22  0  0  0  0  0  0  0  0999 V2000
    0.4750   -0.0480   -2.2060 O   0  0  0  0  0  0  0  0  0  0  0  0
    0.0520   -0.4300   -1.0960 C   0  0  0  0  0  0  0  0  0  0  0  0
    0.6030    0.1240    0.0230 O   0  0  0  0  0  0  0  0  0  0  0  0
    1.6320    1.1100   -0.0160 C   0  0  0  0  0  0  0  0  0  0  0  0
    2.8660    0.6150   -0.6910 C   0  0  0  0  0  0  0  0  0  0  0  0
    3.8320    1.6000   -0.7100 O   0  0  0  0  0  0  0  0  0  0  0  0
    4.2360    2.0540    0.5180 C   0  0  0  0  0  0  0  0  0  0  0  0
    5.3140    3.1170    0.2430 C   0  0  0  0  0  0  0  0  0  0  0  0
    6.3510    2.5150   -0.4460 O   0  0  0  0  0  0  0  0  0  0  0  0
   -1.0080   -1.4510   -1.0070 C   0  0  2  0  0  0  0  0  0  0  0  0
   -1.1260   -1.8920   -2.3840 O   0  0  0  0  0  0  0  0  0  0  0  0
   -2.3440   -0.8610   -0.7280 C   0  0  0  0  0  0  0  0  0  0  0  0
   -2.7190   -0.4140    0.4450 O   0  0  0  0  0  0  0  0  0  0  0  0
   -2.1950    0.5500    1.1830 C   0  0  0  0  0  0  0  0  0  0  0  0
   -2.0980    1.9150    0.5440 C   0  0  2  0  0  0  0  0  0  0  0  0
   -1.5310    2.8410    1.4170 O   0  0  0  0  0  0  0  0  0  0  0  0
   -3.4510    2.4540    0.1420 C   0  0  0  0  0  0  0  0  0  0  0  0
   -4.2900    2.6290    1.2520 O   0  0  0  0  0  0  0  0  0  0  0  0
   -0.6230   -2.4970   -0.2200 O   0  0  0  0  0  0  0  0  0  0  0  0
   -1.4300   -3.5920   -0.1700 C   0  0  2  0  0  0  0  0  0  0  0  0
   -1.9010   -3.6950    1.1610 O   0  0  0  0  0  0  0  0  0  0  0  0
   -0.7090   -4.8950   -0.4420 C   0  0  0  0  0  0  0  0  0  0  0  0
   -1.6210   -5.9480   -0.3680 O   0  0  0  0  0  0  0  0  0  0  0  0
  1  2  2  0
  2  3  1  0
  2 10  1  0
  3  4  1  0
  4  5  1  0
  5  6  1  0
  6  7  1  0
  7  8  1  0
  8  9  1  0
 10 11  1  6
 10 12  1  0
 10 19  1  0
 12 13  1  0
 13 14  1  0
 14 15  1  0
 15 16  1  1
 15 17  1  0
 17 18  1  0
 19 20  1  0
 20 21  1  1
 20 22  1  0
 22 23  1  0
M  END
