
     RDKit          3D

 23 22  0  0  0  0  0  0  0  0999 V2000
    4.7330    4.0510   -1.1140 O   0  0  0  0  0  0  0  0  0  0  0  0
    4.1170    3.4800   -2.0210 C   0  0  0  0  0  0  0  0  0  0  0  0
    2.9340    2.8520   -1.8380 O   0  0  0  0  0  0  0  0  0  0  0  0
    2.1590    2.6410   -0.7440 C   0  0  0  0  0  0  0  0  0  0  0  0
    2.5000    1.5320    0.1630 C   0  0  2  0  0  0  0  0  0  0  0  0
    3.9160    1.7170    0.7630 C   0  0  0  0  0  0  0  0  0  0  0  0
    4.8350    1.4110   -0.2100 O   0  0  0  0  0  0  0  0  0  0  0  0
    2.3940    0.3120   -0.3750 O   0  0  0  0  0  0  0  0  0  0  0  0
    1.6410   -0.6990   -0.0270 C   0  0  0  0  0  0  0  0  0  0  0  0
    0.1540   -0.5650   -0.2280 C   0  0  2  0  0  0  0  0  0  0  0  0
   -0.4380    0.4240    0.7310 C   0  0  0  0  0  0  0  0  0  0  0  0
   -1.8760    0.2920    0.6200 O   0  0  0  0  0  0  0  0  0  0  0  0
   -2.4730    1.1870    1.4890 C   0  0  1  0  0  0  0  0  0  0  0  0
   -3.3380    2.0070    0.7870 O   0  0  0  0  0  0  0  0  0  0  0  0
   -3.2680    0.4570    2.5650 C   0  0  1  0  0  0  0  0  0  0  0  0
   -2.3540   -0.3620    3.2660 O   0  0  0  0  0  0  0  0  0  0  0  0
   -3.7980    1.3800    3.4550 O   0  0  0  0  0  0  0  0  0  0  0  0
   -0.4470   -1.7910    0.1540 O   0  0  0  0  0  0  0  0  0  0  0  0
   -1.1490   -2.4200   -0.8080 C   0  0  1  0  0  0  0  0  0  0  0  0
   -0.5910   -3.7470   -1.2570 C   0  0  0  0  0  0  0  0  0  0  0  0
   -1.4570   -4.2310   -2.2500 O   0  0  0  0  0  0  0  0  0  0  0  0
   -2.6190   -2.6300   -0.5480 C   0  0  0  0  0  0  0  0  0  0  0  0
   -2.8250   -3.3970    0.6130 O   0  0  0  0  0  0  0  0  0  0  0  0
  1  2  2  0
  2  3  1  0
  3  4  1  0
  5  4  1  6
  5  6  1  0
  5  8  1  0
  6  7  1  0
  8  9  1  0
 10  9  1  1
 10 11  1  0
 10 18  1  0
 11 12  1  0
 12 13  1  0
 13 14  1  6
 13 15  1  0
 15 16  1  1
 15 17  1  0
 18 19  1  0
 19 20  1  1
 19 22  1  0
 20 21  1  0
 22 23  1  0
M  END
