
     RDKit          3D

 26 29  0  0  0  0  0  0  0  0999 V2000
    4.8710   -0.2850   -2.1110 C   0  0  0  0  0  0  0  0  0  0  0  0
    3.9960   -1.1520   -1.2350 C   0  0  0  0  0  0  0  0  0  0  0  0
    3.0120   -0.3450   -0.4660 C   0  0  0  0  0  0  0  0  0  0  0  0
    1.6770   -0.2830   -0.8120 C   0  0  0  0  0  0  0  0  0  0  0  0
    0.7510    0.4660   -0.1020 C   0  0  0  0  0  0  0  0  0  0  0  0
    1.1390    1.1930    1.0010 C   0  0  0  0  0  0  0  0  0  0  0  0
    2.4850    1.1280    1.3470 C   0  0  0  0  0  0  0  0  0  0  0  0
    3.4040    0.3830    0.6390 C   0  0  0  0  0  0  0  0  0  0  0  0
    4.7470    0.3170    0.9820 O   0  0  0  0  0  0  0  0  0  0  0  0
    5.4160   -0.8160    2.0270 S   0  0  2  0  0  0  0  0  0  0  0  0
    6.9160   -1.3620    1.3150 N   0  0  0  0  0  0  0  0  0  0  0  0
    4.4890   -1.9460    2.2900 O   0  0  0  0  0  0  0  0  0  0  0  0
    5.7890   -0.2130    3.3680 O   0  0  0  0  0  0  0  0  0  0  0  0
    0.2250    2.0240    1.8260 C   0  0  0  0  0  0  0  0  0  0  0  0
   -1.1590    2.0430    1.2750 C   0  0  0  0  0  0  0  0  0  0  0  0
   -1.5360    0.6680    0.7050 C   0  0  2  0  0  0  0  0  0  0  0  0
   -0.6620    0.4940   -0.5200 C   0  0  2  0  0  0  0  0  0  0  0  0
   -1.0650   -0.6560   -1.3710 C   0  0  0  0  0  0  0  0  0  0  0  0
   -2.5150   -0.6200   -1.7140 C   0  0  0  0  0  0  0  0  0  0  0  0
   -3.3670   -0.5090   -0.5020 C   0  0  2  0  0  0  0  0  0  0  0  0
   -3.3610   -1.6980    0.3910 C   0  0  0  0  0  0  0  0  0  0  0  0
   -4.8050   -0.1400   -0.7940 C   0  0  1  0  0  0  0  0  0  0  0  0
   -5.5630   -1.2220   -1.1920 O   0  0  0  0  0  0  0  0  0  0  0  0
   -5.2510    0.4200    0.5400 C   0  0  0  0  0  0  0  0  0  0  0  0
   -3.9890    0.9260    1.2380 C   0  0  0  0  0  0  0  0  0  0  0  0
   -2.9320    0.7730    0.2220 C   0  0  1  0  0  0  0  0  0  0  0  0
  1  2  1  0
  2  3  1  0
  3  4  2  0
  3  8  1  0
  4  5  1  0
  5  6  2  0
  5 17  1  0
  6  7  1  0
  6 14  1  0
  7  8  2  0
  8  9  1  0
  9 10  1  0
 10 11  1  6
 10 12  2  0
 10 13  2  0
 14 15  1  0
 16 15  1  6
 16 17  1  0
 16 26  1  0
 17 18  1  1
 18 19  1  0
 19 20  1  0
 20 21  1  1
 20 22  1  0
 20 26  1  0
 22 23  1  1
 22 24  1  0
 24 25  1  0
 26 25  1  1
M  END
