
     RDKit          3D

 23 22  0  0  0  0  0  0  0  0999 V2000
    5.5930    0.8800    1.9190 O   0  0  0  0  0  0  0  0  0  0  0  0
    4.7550    1.4160    2.6790 C   0  0  0  0  0  0  0  0  0  0  0  0
    3.6520    0.7150    3.0400 O   0  0  0  0  0  0  0  0  0  0  0  0
    3.2240   -0.5390    2.7210 C   0  0  0  0  0  0  0  0  0  0  0  0
    2.8530   -0.8660    1.3160 C   0  0  2  0  0  0  0  0  0  0  0  0
    3.9490   -1.1570    0.3570 C   0  0  0  0  0  0  0  0  0  0  0  0
    4.9140   -1.9540    0.9690 O   0  0  0  0  0  0  0  0  0  0  0  0
    1.8490   -0.0500    0.8090 O   0  0  0  0  0  0  0  0  0  0  0  0
    0.7000   -0.7740    0.6620 C   0  0  0  0  0  0  0  0  0  0  0  0
   -0.4860   -0.0500    0.1260 C   0  0  2  0  0  0  0  0  0  0  0  0
   -1.6590   -1.0160    0.2160 C   0  0  0  0  0  0  0  0  0  0  0  0
   -2.8540   -0.4100   -0.0750 O   0  0  0  0  0  0  0  0  0  0  0  0
   -3.9020   -1.2840    0.0070 C   0  0  1  0  0  0  0  0  0  0  0  0
   -4.8490   -0.9500    0.9710 O   0  0  0  0  0  0  0  0  0  0  0  0
   -4.6320   -1.4840   -1.2980 C   0  0  1  0  0  0  0  0  0  0  0  0
   -3.7220   -1.9920   -2.2480 O   0  0  0  0  0  0  0  0  0  0  0  0
   -5.5820   -2.4850   -1.0940 O   0  0  0  0  0  0  0  0  0  0  0  0
   -0.3450    0.4950   -1.1180 O   0  0  0  0  0  0  0  0  0  0  0  0
   -0.5670    1.8490   -1.1690 C   0  0  1  0  0  0  0  0  0  0  0  0
    0.6020    2.6370   -1.7390 C   0  0  0  0  0  0  0  0  0  0  0  0
    1.7500    2.4590   -0.9740 O   0  0  0  0  0  0  0  0  0  0  0  0
   -1.7610    2.2120   -2.0320 C   0  0  0  0  0  0  0  0  0  0  0  0
   -1.8620    3.6230   -1.9900 O   0  0  0  0  0  0  0  0  0  0  0  0
  1  2  2  0
  2  3  1  0
  3  4  1  0
  5  4  1  1
  5  6  1  0
  5  8  1  0
  6  7  1  0
  8  9  1  0
 10  9  1  6
 10 11  1  0
 10 18  1  0
 11 12  1  0
 12 13  1  0
 13 14  1  1
 13 15  1  0
 15 16  1  6
 15 17  1  0
 18 19  1  0
 19 20  1  6
 19 22  1  0
 20 21  1  0
 22 23  1  0
M  END
