
     RDKit          3D

 23 22  0  0  0  0  0  0  0  0999 V2000
   -3.0900   -0.3500   -1.1070 C   0  0  0  0  0  0  0  0  0  0  0  0
   -2.0010   -1.1960   -0.5330 C   0  0  1  0  0  0  0  0  0  0  0  0
   -1.5160   -2.0210   -1.5720 O   0  0  0  0  0  0  0  0  0  0  0  0
   -0.9930   -0.4920    0.0830 O   0  0  0  0  0  0  0  0  0  0  0  0
   -0.2850    0.3470   -0.7290 C   0  0  2  0  0  0  0  0  0  0  0  0
    1.1830    0.0280   -0.8190 C   0  0  0  0  0  0  0  0  0  0  0  0
    1.8390    0.0820    0.3840 O   0  0  0  0  0  0  0  0  0  0  0  0
    3.1770   -0.2320    0.1590 C   0  0  2  0  0  0  0  0  0  0  0  0
    3.5120   -1.5180    0.9100 C   0  0  0  0  0  0  0  0  0  0  0  0
    4.8620   -1.8320    0.6820 O   0  0  0  0  0  0  0  0  0  0  0  0
    4.0960    0.8920    0.5800 C   0  0  0  0  0  0  0  0  0  0  0  0
    5.4270    0.5540    0.3440 O   0  0  0  0  0  0  0  0  0  0  0  0
   -0.4070    1.7810   -0.3330 C   0  0  0  0  0  0  0  0  0  0  0  0
    0.1950    2.6600   -0.9970 O   0  0  0  0  0  0  0  0  0  0  0  0
   -1.1610    2.2090    0.7460 O   0  0  0  0  0  0  0  0  0  0  0  0
   -1.2140    3.5760    1.0390 C   0  0  0  0  0  0  0  0  0  0  0  0
   -1.7660    4.3860   -0.0660 C   0  0  0  0  0  0  0  0  0  0  0  0
   -2.1530    3.9180   -1.1640 O   0  0  0  0  0  0  0  0  0  0  0  0
   -1.8640    5.7560    0.1210 O   0  0  0  0  0  0  0  0  0  0  0  0
   -2.6380   -2.1260    0.4730 C   0  0  1  0  0  0  0  0  0  0  0  0
   -3.6830   -2.8510   -0.0970 O   0  0  0  0  0  0  0  0  0  0  0  0
   -1.6550   -3.1070    1.0560 C   0  0  0  0  0  0  0  0  0  0  0  0
   -2.3360   -3.8540    2.0170 O   0  0  0  0  0  0  0  0  0  0  0  0
  2  1  1  6
  2  3  1  0
  2  4  1  0
  2 20  1  0
  4  5  1  0
  5  6  1  1
  5 13  1  0
  6  7  1  0
  7  8  1  0
  8  9  1  1
  8 11  1  0
  9 10  1  0
 11 12  1  0
 13 14  2  0
 13 15  1  0
 15 16  1  0
 16 17  1  0
 17 18  2  0
 17 19  1  0
 20 21  1  6
 20 22  1  0
 22 23  1  0
M  END
