
     RDKit          3D

 19 21  0  0  0  0  0  0  0  0999 V2000
   -5.1580    0.4740   -0.6000 C   0  0  0  0  0  0  0  0  0  0  0  0
   -3.9160   -0.3260   -0.5090 C   0  0  0  0  0  0  0  0  0  0  0  0
   -3.7290   -1.4010   -1.3370 C   0  0  0  0  0  0  0  0  0  0  0  0
   -2.6170   -2.1440   -1.2770 N   0  0  0  0  0  0  0  0  0  0  0  0
   -1.6340   -1.8430   -0.3810 C   0  0  0  0  0  0  0  0  0  0  0  0
   -1.7350   -0.7890    0.4850 C   0  0  0  0  0  0  0  0  0  0  0  0
   -0.7320   -0.3820    1.4780 C   0  0  0  0  0  0  0  0  0  0  0  0
    0.1780    0.6150    1.0020 N   0  0  0  0  0  0  0  0  0  0  0  0
   -0.1600    1.9420    1.0860 C   0  0  0  0  0  0  0  0  0  0  0  0
    0.8320    2.7120    0.5460 C   0  0  0  0  0  0  0  0  0  0  0  0
    0.9360    4.1860    0.4020 C   0  0  0  0  0  0  0  0  0  0  0  0
    1.7830    1.8110    0.1330 C   0  0  0  0  0  0  0  0  0  0  0  0
    1.3700    0.4890    0.4210 C   0  0  0  0  0  0  0  0  0  0  0  0
    2.1880   -0.6840    0.1250 C   0  0  0  0  0  0  0  0  0  0  0  0
    1.9890   -1.9300    0.4030 C   0  0  0  0  0  0  0  0  0  0  0  0
    3.1260   -2.8010   -0.1140 C   0  0  0  0  0  0  0  0  0  0  0  0
    4.1650   -1.8370   -0.4280 N   0  0  0  0  0  0  0  0  0  0  0  0
    3.4980   -0.5890   -0.6250 C   0  0  0  0  0  0  0  0  0  0  0  0
   -2.9170   -0.0390    0.3860 C   0  0  0  0  0  0  0  0  0  0  0  0
  1  2  1  0
  2  3  2  0
  2 19  1  0
  3  4  1  0
  4  5  2  0
  5  6  1  0
  6  7  1  0
  6 19  2  0
  7  8  1  0
  8  9  1  0
  8 13  1  0
  9 10  2  0
 10 11  1  0
 10 12  1  0
 12 13  2  0
 13 14  1  0
 14 15  2  0
 14 18  1  0
 15 16  1  0
 16 17  1  0
 17 18  1  0
M  CHG  1  17   1
M  END
