
     RDKit          3D

 19 21  0  0  0  0  0  0  0  0999 V2000
   -0.5650    0.3060    3.2750 C   0  0  0  0  0  0  0  0  0  0  0  0
    0.4620    0.4300    2.1900 C   0  0  0  0  0  0  0  0  0  0  0  0
    0.1280   -0.4430    1.0480 N   0  0  2  0  0  0  0  0  0  0  0  0
    1.2140   -0.4280    0.1420 C   0  0  0  0  0  0  0  0  0  0  0  0
    1.1830   -1.2150   -0.9750 C   0  0  0  0  0  0  0  0  0  0  0  0
    2.2240   -1.2180   -1.8900 C   0  0  0  0  0  0  0  0  0  0  0  0
    3.3220   -0.4150   -1.6820 C   0  0  0  0  0  0  0  0  0  0  0  0
    4.5000   -0.2050   -2.4060 C   0  0  0  0  0  0  0  0  0  0  0  0
    5.2350    0.7160   -1.7090 C   0  0  0  0  0  0  0  0  0  0  0  0
    4.5260    1.0500   -0.6020 N   0  0  0  0  0  0  0  0  0  0  0  0
    3.3690    0.3810   -0.5650 C   0  0  0  0  0  0  0  0  0  0  0  0
    2.3100    0.3730    0.3500 C   0  0  0  0  0  0  0  0  0  0  0  0
   -1.1240    0.0120    0.4960 C   0  0  1  0  0  0  0  0  0  0  0  0
   -1.0140    0.8370   -0.7410 C   0  0  0  0  0  0  0  0  0  0  0  0
   -1.9140    0.2410   -1.8160 C   0  0  0  0  0  0  0  0  0  0  0  0
   -3.3120    0.1670   -1.2870 C   0  0  0  0  0  0  0  0  0  0  0  0
   -3.3790   -0.6980   -0.1550 N   0  0  0  0  0  0  0  0  0  0  0  0
   -4.1850   -0.1630    0.9240 C   0  0  0  0  0  0  0  0  0  0  0  0
   -2.0890   -1.1400    0.3440 C   0  0  0  0  0  0  0  0  0  0  0  0
  1  2  1  0
  3  2  1  1
  3  4  1  0
  3 13  1  0
  4  5  2  0
  4 12  1  0
  5  6  1  0
  6  7  2  0
  7  8  1  0
  7 11  1  0
  8  9  2  0
  9 10  1  0
 10 11  1  0
 11 12  2  0
 13 14  1  6
 13 19  1  0
 14 15  1  0
 15 16  1  0
 16 17  1  0
 17 18  1  0
 17 19  1  0
M  CHG  1   3   1
M  END
