
     RDKit          3D

 18 20  0  0  0  0  0  0  0  0999 V2000
   -3.2860    2.3770    0.4750 C   0  0  0  0  0  0  0  0  0  0  0  0
   -2.7090    1.0200    0.7080 C   0  0  0  0  0  0  0  0  0  0  0  0
   -1.8290    0.4580   -0.1880 C   0  0  0  0  0  0  0  0  0  0  0  0
   -1.3060   -0.8160    0.0570 C   0  0  0  0  0  0  0  0  0  0  0  0
   -0.3740   -1.4330   -0.8550 C   0  0  0  0  0  0  0  0  0  0  0  0
   -0.8340   -2.2290   -1.8790 C   0  0  0  0  0  0  0  0  0  0  0  0
    0.0630   -2.8080   -2.7560 C   0  0  0  0  0  0  0  0  0  0  0  0
    1.3760   -2.5740   -2.5810 N   0  0  0  0  0  0  0  0  0  0  0  0
    1.8350   -1.7870   -1.5700 C   0  0  0  0  0  0  0  0  0  0  0  0
    0.9900   -1.1840   -0.6660 C   0  0  0  0  0  0  0  0  0  0  0  0
    1.4670   -0.3580    0.4300 C   0  0  0  0  0  0  0  0  0  0  0  0
    2.4070    0.5690    0.2930 C   0  0  0  0  0  0  0  0  0  0  0  0
    3.2800    1.1620   -0.7260 C   0  0  0  0  0  0  0  0  0  0  0  0
    4.2090    1.5280    0.3440 N   0  0  0  0  0  0  0  0  0  0  0  0
    3.0560    1.5080    1.2410 C   0  0  0  0  0  0  0  0  0  0  0  0
   -1.6960   -1.4640    1.1940 C   0  0  0  0  0  0  0  0  0  0  0  0
   -2.5890   -0.8920    2.1010 C   0  0  0  0  0  0  0  0  0  0  0  0
   -3.0540    0.3390    1.8030 N   0  0  0  0  0  0  0  0  0  0  0  0
  1  2  1  0
  2  3  2  0
  2 18  1  0
  3  4  1  0
  4  5  1  0
  4 16  2  0
  5  6  2  0
  5 10  1  0
  6  7  1  0
  7  8  2  0
  8  9  1  0
  9 10  2  0
 10 11  1  0
 11 12  2  3
 12 13  1  0
 12 15  1  0
 13 14  1  0
 14 15  1  0
 16 17  1  0
 17 18  2  0
M  CHG  1  18   1
M  END
