
     RDKit          3D

 29 30  0  0  0  0  0  0  0  0999 V2000
   -4.3260    1.5410    1.8760 C   0  0  0  0  0  0  0  0  0  0  0  0
   -4.5530    0.8910    0.5370 C   0  0  0  0  0  0  0  0  0  0  0  0
   -3.7160    0.0820   -0.1370 C   0  0  0  0  0  0  0  0  0  0  0  0
   -2.4400   -0.2590    0.3940 N   0  0  0  0  0  0  0  0  0  0  0  0
   -1.2720    0.5470    0.2810 C   0  0  0  0  0  0  0  0  0  0  0  0
   -0.6040    0.6420   -1.0340 C   0  0  1  0  0  0  0  0  0  0  0  0
    0.4570    1.6270   -0.9110 O   0  0  0  0  0  0  0  0  0  0  0  0
    0.2300   -0.6150   -1.3200 C   0  0  0  0  0  0  0  0  0  0  0  0
    1.2840   -0.8550   -0.3860 N   0  0  0  0  0  0  0  0  0  0  0  0
    1.0890   -1.6740    0.6550 C   0  0  0  0  0  0  0  0  0  0  0  0
    0.0100   -2.3050    0.8800 O   0  0  0  0  0  0  0  0  0  0  0  0
    2.1040   -1.8540    1.5290 N   0  0  0  0  0  0  0  0  0  0  0  0
    3.3060   -1.2490    1.4020 C   0  0  0  0  0  0  0  0  0  0  0  0
    3.5380   -0.4000    0.3390 C   0  0  0  0  0  0  0  0  0  0  0  0
    4.8210    0.2720    0.1580 C   0  0  0  0  0  0  0  0  0  0  0  0
    5.9770   -0.3070    0.4330 C   0  0  0  0  0  0  0  0  0  0  0  0
    5.9840   -1.5750    0.9030 F   0  0  0  0  0  0  0  0  0  0  0  0
    7.2740    0.3700    0.2510 C   0  0  1  0  0  0  0  0  0  0  0  0
    7.9800    0.4900    1.4430 F   0  0  0  0  0  0  0  0  0  0  0  0
    8.0710   -0.4660   -0.5420 F   0  0  0  0  0  0  0  0  0  0  0  0
    7.1640    1.5750   -0.3990 F   0  0  0  0  0  0  0  0  0  0  0  0
    2.4900   -0.2290   -0.5410 C   0  0  0  0  0  0  0  0  0  0  0  0
    2.7010    0.5430   -1.5110 O   0  0  0  0  0  0  0  0  0  0  0  0
   -4.3230   -0.3280   -1.3720 C   0  0  0  0  0  0  0  0  0  0  0  0
   -3.8970   -1.1280   -2.3380 C   0  0  0  0  0  0  0  0  0  0  0  0
   -4.7100   -1.3410   -3.4290 F   0  0  0  0  0  0  0  0  0  0  0  0
   -2.7230   -1.7750   -2.3450 F   0  0  0  0  0  0  0  0  0  0  0  0
   -5.6510    0.3270   -1.3960 C   0  0  0  0  0  0  0  0  0  0  0  0
   -5.7410    1.0150   -0.2830 C   0  0  0  0  0  0  0  0  0  0  0  0
  1  2  1  0
  2  3  2  0
  2 29  1  0
  3  4  1  0
  3 24  1  0
  4  5  1  0
  5  6  1  0
  6  7  1  1
  6  8  1  0
  8  9  1  0
  9 10  1  0
  9 22  1  0
 10 11  2  0
 10 12  1  0
 12 13  1  0
 13 14  2  0
 14 15  1  0
 14 22  1  0
 15 16  2  3
 16 17  1  0
 16 18  1  0
 18 19  1  1
 18 20  1  0
 18 21  1  0
 22 23  2  0
 24 25  2  3
 24 28  1  0
 25 26  1  0
 25 27  1  0
 28 29  2  0
M  END
