
     RDKit          3D

 31 32  0  0  0  0  0  0  0  0999 V2000
    6.6620    2.9940    2.1150 C   0  0  0  0  0  0  0  0  0  0  0  0
    6.5530    2.1170    1.0370 O   0  0  0  0  0  0  0  0  0  0  0  0
    5.5560    1.1800    0.8670 C   0  0  0  0  0  0  0  0  0  0  0  0
    4.6900    1.1350    1.7700 O   0  0  0  0  0  0  0  0  0  0  0  0
    5.4900    0.2630   -0.3130 C   0  0  0  0  0  0  0  0  0  0  0  0
    6.4440    0.3380   -1.2720 C   0  0  0  0  0  0  0  0  0  0  0  0
    7.6280    1.3120   -1.2620 C   0  0  0  0  0  0  0  0  0  0  0  0
    6.3390   -0.5240   -2.3290 C   0  0  0  0  0  0  0  0  0  0  0  0
    4.8840   -1.4460   -1.9680 S   0  0  0  0  0  0  0  0  0  0  0  0
    4.5050   -0.6310   -0.4360 C   0  0  0  0  0  0  0  0  0  0  0  0
    3.3780   -0.9500    0.3740 N   0  0  0  0  0  0  0  0  0  0  0  0
    2.4880   -1.9750   -0.0250 C   0  0  0  0  0  0  0  0  0  0  0  0
    2.7390   -2.5790   -1.1090 O   0  0  0  0  0  0  0  0  0  0  0  0
    1.2890   -2.3450    0.7920 C   0  0  0  0  0  0  0  0  0  0  0  0
    0.4320   -3.6970   -0.0490 S   0  0  0  0  0  0  0  0  0  0  0  0
   -0.2210   -3.0930   -1.6050 C   0  0  0  0  0  0  0  0  0  0  0  0
   -1.3110   -2.0740   -1.3880 C   0  0  0  0  0  0  0  0  0  0  0  0
   -2.4580   -2.6560   -0.6160 C   0  0  0  0  0  0  0  0  0  0  0  0
   -3.5340   -1.7270   -0.3910 N   0  0  0  0  0  0  0  0  0  0  0  0
   -3.3850   -0.5260    0.3250 C   0  0  0  0  0  0  0  0  0  0  0  0
   -2.2110   -0.3140    0.8000 O   0  0  0  0  0  0  0  0  0  0  0  0
   -4.4220    0.4490    0.5630 C   0  0  0  0  0  0  0  0  0  0  0  0
   -4.5500    1.0760    1.8250 C   0  0  0  0  0  0  0  0  0  0  0  0
   -3.7120    0.8210    3.0320 C   0  0  0  0  0  0  0  0  0  0  0  0
   -5.5600    1.9290    1.7110 N   0  0  0  0  0  0  0  0  0  0  0  0
   -6.0530    1.8610    0.4610 C   0  0  0  0  0  0  0  0  0  0  0  0
   -7.1430    2.6480    0.0100 N   0  0  0  0  0  0  0  0  0  0  0  0
   -5.3470    0.9390   -0.2680 N   0  0  0  0  0  0  0  0  0  0  0  0
   -5.6000    0.6700   -1.6340 C   0  0  0  0  0  0  0  0  0  0  0  0
   -6.7130    1.3340   -2.3460 C   0  0  0  0  0  0  0  0  0  0  0  0
   -4.9120   -0.1250   -2.2930 O   0  0  0  0  0  0  0  0  0  0  0  0
  1  2  1  0
  2  3  1  0
  3  4  2  0
  3  5  1  0
  5  6  1  0
  5 10  2  0
  6  7  1  0
  6  8  2  0
  8  9  1  0
  9 10  1  0
 10 11  1  0
 11 12  1  0
 12 13  2  0
 12 14  1  0
 14 15  1  0
 15 16  1  0
 16 17  1  0
 17 18  1  0
 18 19  1  0
 19 20  1  0
 20 21  2  0
 20 22  1  0
 22 23  2  0
 22 28  1  0
 23 24  1  0
 23 25  1  0
 25 26  2  0
 26 27  1  0
 26 28  1  0
 28 29  1  0
 29 30  1  0
 29 31  2  0
M  END
