
     RDKit          3D

 29 29  0  0  0  0  0  0  0  0999 V2000
   -3.9010    4.1210   -0.6710 C   0  0  0  0  0  0  0  0  0  0  0  0
   -3.0410    2.8100   -0.7320 C   0  0  0  0  0  0  0  0  0  0  0  0
   -3.9000    1.6780   -1.0270 C   0  0  0  0  0  0  0  0  0  0  0  0
   -3.7830    0.4120   -0.8260 C   0  0  0  0  0  0  0  0  0  0  0  0
   -4.8720   -0.4820   -1.2420 N   0  0  0  0  0  0  0  0  0  0  0  0
   -4.4660   -1.7820   -0.9400 C   0  0  0  0  0  0  0  0  0  0  0  0
   -5.1620   -2.7950   -1.1670 O   0  0  0  0  0  0  0  0  0  0  0  0
   -3.1470   -1.7230   -0.3430 C   0  0  0  0  0  0  0  0  0  0  0  0
   -2.4300   -2.8550    0.2620 C   0  0  0  0  0  0  0  0  0  0  0  0
   -3.3100   -3.8260    1.0500 C   0  0  1  0  0  0  0  0  0  0  0  0
   -4.2670   -4.4410    0.3270 F   0  0  0  0  0  0  0  0  0  0  0  0
   -2.4230   -4.8290    1.4840 F   0  0  0  0  0  0  0  0  0  0  0  0
   -3.7920   -3.2550    2.2190 F   0  0  0  0  0  0  0  0  0  0  0  0
   -2.7210   -0.4310   -0.2760 C   0  0  0  0  0  0  0  0  0  0  0  0
   -1.3820    0.0110    0.0220 C   0  0  0  0  0  0  0  0  0  0  0  0
   -1.1090    1.2170    0.1790 O   0  0  0  0  0  0  0  0  0  0  0  0
   -0.2750   -0.8460    0.1480 N   0  0  0  0  0  0  0  0  0  0  0  0
    0.9810   -0.2380    0.4650 N   0  0  0  0  0  0  0  0  0  0  0  0
    2.1510   -0.4590   -0.3010 C   0  0  0  0  0  0  0  0  0  0  0  0
    2.0510   -1.2240   -1.2880 O   0  0  0  0  0  0  0  0  0  0  0  0
    3.4660    0.1580   -0.0060 C   0  0  1  0  0  0  0  0  0  0  0  0
    3.7160    0.0280    1.4780 C   0  0  0  0  0  0  0  0  0  0  0  0
    4.5080   -0.6130   -0.7940 C   0  0  0  0  0  0  0  0  0  0  0  0
    4.5010   -2.0750   -0.3790 C   0  0  0  0  0  0  0  0  0  0  0  0
    3.3900    1.5930   -0.3860 C   0  0  0  0  0  0  0  0  0  0  0  0
    4.6140    2.4110   -0.1670 C   0  0  2  0  0  0  0  0  0  0  0  0
    4.2950    3.7100   -0.6040 F   0  0  0  0  0  0  0  0  0  0  0  0
    5.6410    1.9890   -0.9540 F   0  0  0  0  0  0  0  0  0  0  0  0
    4.9550    2.5540    1.1600 F   0  0  0  0  0  0  0  0  0  0  0  0
  1  2  1  0
  2  3  1  0
  3  4  2  3
  4  5  1  0
  4 14  1  0
  5  6  1  0
  6  7  2  0
  6  8  1  0
  8  9  1  0
  8 14  2  0
  9 10  1  0
 10 11  1  6
 10 12  1  0
 10 13  1  0
 14 15  1  0
 15 16  2  0
 15 17  1  0
 17 18  1  0
 18 19  1  0
 19 20  2  0
 19 21  1  0
 21 22  1  1
 21 23  1  0
 21 25  1  0
 23 24  1  0
 25 26  1  0
 26 27  1  6
 26 28  1  0
 26 29  1  0
M  END
