
     RDKit          3D

 41 42  0  0  0  0  0  0  0  0999 V2000
   10.4020    1.1810    1.1760 C   0  0  0  0  0  0  0  0  0  0  0  0
   10.5300   -0.1420    1.1700 C   0  0  0  0  0  0  0  0  0  0  0  0
   10.4440   -0.8900   -0.1000 C   0  0  0  0  0  0  0  0  0  0  0  0
    9.3730   -1.8520   -0.1080 N   0  0  0  0  0  0  0  0  0  0  0  0
    9.6350   -3.2180    0.3480 C   0  0  0  0  0  0  0  0  0  0  0  0
    8.0690   -1.5400   -0.5400 C   0  0  0  0  0  0  0  0  0  0  0  0
    7.1490   -2.4060   -0.5420 O   0  0  0  0  0  0  0  0  0  0  0  0
    7.7620   -0.2260   -0.9870 N   0  0  0  0  0  0  0  0  0  0  0  0
    6.4300    0.1230   -1.4370 C   0  0  0  0  0  0  0  0  0  0  0  0
    5.4940    0.2900   -0.3000 C   0  0  0  0  0  0  0  0  0  0  0  0
    5.9400    0.0690    0.9740 C   0  0  0  0  0  0  0  0  0  0  0  0
    5.0650    0.2270    2.0230 C   0  0  0  0  0  0  0  0  0  0  0  0
    3.7610    0.5980    1.8310 C   0  0  0  0  0  0  0  0  0  0  0  0
    3.2600    0.8340    0.5330 C   0  0  0  0  0  0  0  0  0  0  0  0
    1.9270    1.2910    0.3910 C   0  0  0  0  0  0  0  0  0  0  0  0
    1.4090    1.7950    1.4680 O   0  0  0  0  0  0  0  0  0  0  0  0
    1.0870    1.2830   -0.7140 N   0  0  0  0  0  0  0  0  0  0  0  0
    1.4730    0.6920   -1.9530 C   0  0  0  0  0  0  0  0  0  0  0  0
    0.3530    0.1880   -2.8420 C   0  0  0  0  0  0  0  0  0  0  0  0
   -0.7680    1.1320   -2.9690 C   0  0  0  0  0  0  0  0  0  0  0  0
   -0.9040    2.1780   -1.9310 C   0  0  0  0  0  0  0  0  0  0  0  0
   -0.2150    1.9510   -0.6310 C   0  0  1  0  0  0  0  0  0  0  0  0
   -1.0750    1.6010    0.5120 C   0  0  1  0  0  0  0  0  0  0  0  0
   -2.3000    2.3490    0.3270 O   0  0  0  0  0  0  0  0  0  0  0  0
   -1.4320    0.2120    0.8120 C   0  0  0  0  0  0  0  0  0  0  0  0
   -2.2060   -0.5770   -0.1730 C   0  0  1  0  0  0  0  0  0  0  0  0
   -2.4020   -1.9740    0.4660 C   0  0  0  0  0  0  0  0  0  0  0  0
   -3.5880   -0.0140   -0.3940 C   0  0  0  0  0  0  0  0  0  0  0  0
   -3.9660    0.3270   -1.5410 O   0  0  0  0  0  0  0  0  0  0  0  0
   -4.4890    0.1420    0.6850 N   0  0  0  0  0  0  0  0  0  0  0  0
   -5.8210    0.6550    0.5790 C   0  0  2  0  0  0  0  0  0  0  0  0
   -5.8600    2.0300   -0.0640 C   0  0  0  0  0  0  0  0  0  0  0  0
   -6.2900    0.9390    2.0030 C   0  0  0  0  0  0  0  0  0  0  0  0
   -7.6260    1.4840    2.2880 C   0  0  0  0  0  0  0  0  0  0  0  0
   -5.5160    0.6970    2.8940 O   0  0  0  0  0  0  0  0  0  0  0  0
   -6.8170   -0.3100    0.0490 C   0  0  1  0  0  0  0  0  0  0  0  0
   -6.5970   -0.8610   -1.3130 C   0  0  0  0  0  0  0  0  0  0  0  0
   -6.8700   -1.4590    1.0430 C   0  0  0  0  0  0  0  0  0  0  0  0
   -7.8370   -2.5290    0.6520 C   0  0  0  0  0  0  0  0  0  0  0  0
   -9.1930   -2.0920    0.5290 N   0  0  0  0  0  0  0  0  0  0  0  0
    4.1570    0.6710   -0.4940 C   0  0  0  0  0  0  0  0  0  0  0  0
  1  2  2  0
  2  3  1  0
  3  4  1  0
  4  5  1  0
  4  6  1  0
  6  7  2  0
  6  8  1  0
  8  9  1  0
  9 10  1  0
 10 11  2  0
 10 41  1  0
 11 12  1  0
 12 13  2  0
 13 14  1  0
 14 15  1  0
 14 41  2  0
 15 16  2  0
 15 17  1  0
 17 18  1  0
 17 22  1  0
 18 19  1  0
 19 20  1  0
 20 21  1  0
 22 21  1  6
 22 23  1  0
 23 24  1  6
 23 25  1  0
 25 26  1  0
 26 27  1  1
 26 28  1  0
 28 29  2  0
 28 30  1  0
 30 31  1  0
 31 32  1  6
 31 33  1  0
 31 36  1  0
 33 34  1  0
 33 35  2  0
 36 37  1  6
 36 38  1  0
 38 39  1  0
 39 40  1  0
M  CHG  1  40   1
M  END
