
     RDKit          3D

 41 43  0  0  0  0  0  0  0  0999 V2000
   10.5540    1.1170    1.3670 C   0  0  0  0  0  0  0  0  0  0  0  0
   11.2300    1.3920    0.2950 C   0  0  0  0  0  0  0  0  0  0  0  0
   10.6280    1.6210   -1.0210 C   0  0  0  0  0  0  0  0  0  0  0  0
    9.2060    1.2050   -1.1440 C   0  0  0  0  0  0  0  0  0  0  0  0
    9.0270   -0.2940   -1.0080 C   0  0  2  0  0  0  0  0  0  0  0  0
    9.8080   -1.0090   -2.0980 C   0  0  0  0  0  0  0  0  0  0  0  0
    7.6000   -0.5680   -1.1740 N   0  0  0  0  0  0  0  0  0  0  0  0
    6.8130   -0.9790   -0.0880 C   0  0  0  0  0  0  0  0  0  0  0  0
    7.3040   -1.1260    1.0570 O   0  0  0  0  0  0  0  0  0  0  0  0
    5.3360   -1.2540   -0.2790 C   0  0  0  0  0  0  0  0  0  0  0  0
    4.7140   -1.6210    0.9180 N   0  0  0  0  0  0  0  0  0  0  0  0
    5.1010   -2.8800    1.4270 C   0  0  0  0  0  0  0  0  0  0  0  0
    3.5260   -1.0400    1.3630 C   0  0  0  0  0  0  0  0  0  0  0  0
    2.2780   -1.3710    0.6160 C   0  0  1  0  0  0  0  0  0  0  0  0
    1.1370   -0.6320    1.2940 C   0  0  0  0  0  0  0  0  0  0  0  0
    0.3420    0.1530    0.4080 N   0  0  0  0  0  0  0  0  0  0  0  0
   -1.0850    0.1580    0.5820 C   0  0  0  0  0  0  0  0  0  0  0  0
   -1.5870   -0.5010    1.5120 O   0  0  0  0  0  0  0  0  0  0  0  0
   -1.9250    0.9430   -0.3430 C   0  0  0  0  0  0  0  0  0  0  0  0
   -3.3290    0.8370   -0.0160 N   0  0  0  0  0  0  0  0  0  0  0  0
   -4.0440   -0.4110   -0.1410 C   0  0  0  0  0  0  0  0  0  0  0  0
   -3.4180   -1.5340   -0.5710 C   0  0  0  0  0  0  0  0  0  0  0  0
   -4.0430   -2.7660   -0.7110 C   0  0  0  0  0  0  0  0  0  0  0  0
   -5.3630   -2.7980   -0.3880 C   0  0  0  0  0  0  0  0  0  0  0  0
   -6.0540   -1.6610    0.0600 C   0  0  0  0  0  0  0  0  0  0  0  0
   -5.4250   -0.4700    0.1900 C   0  0  0  0  0  0  0  0  0  0  0  0
   -6.0060    0.7970    0.6310 C   0  0  0  0  0  0  0  0  0  0  0  0
   -7.2960    1.0570    1.0100 N   0  0  2  0  0  0  0  0  0  0  0  0
   -8.1760    0.0680    1.4680 C   0  0  0  0  0  0  0  0  0  0  0  0
   -9.2440    0.6940    2.4070 C   0  0  0  0  0  0  0  0  0  0  0  0
   -9.8500    1.9000    1.7890 C   0  0  0  0  0  0  0  0  0  0  0  0
   -8.9260    2.8060    1.0670 C   0  0  0  0  0  0  0  0  0  0  0  0
   -8.0120    2.0110    0.1670 C   0  0  2  0  0  0  0  0  0  0  0  0
   -8.8160    1.4500   -0.9370 C   0  0  0  0  0  0  0  0  0  0  0  0
   -8.1200    0.6730   -1.9590 C   0  0  0  0  0  0  0  0  0  0  0  0
   -8.2140   -0.5790   -1.9990 O   0  0  0  0  0  0  0  0  0  0  0  0
   -7.3130    1.2420   -2.9510 O   0  0  0  0  0  0  0  0  0  0  0  0
    0.8830    0.9840   -0.6660 C   0  0  0  0  0  0  0  0  0  0  0  0
    2.2090    0.4240   -1.1500 C   0  0  0  0  0  0  0  0  0  0  0  0
    2.2590   -1.0620   -0.8370 C   0  0  2  0  0  0  0  0  0  0  0  0
    1.0220   -1.5690   -1.3310 O   0  0  0  0  0  0  0  0  0  0  0  0
  1  2  2  0
  2  3  1  0
  3  4  1  0
  4  5  1  0
  5  6  1  6
  5  7  1  0
  7  8  1  0
  8  9  2  0
  8 10  1  0
 10 11  1  0
 11 12  1  0
 11 13  1  0
 14 13  1  1
 14 15  1  0
 14 40  1  0
 15 16  1  0
 16 17  1  0
 16 38  1  0
 17 18  2  0
 17 19  1  0
 19 20  1  0
 20 21  1  0
 21 22  2  0
 21 26  1  0
 22 23  1  0
 23 24  2  0
 24 25  1  0
 25 26  2  0
 26 27  1  0
 28 27  1  6
 28 29  1  0
 28 33  1  0
 29 30  1  0
 30 31  1  0
 31 32  1  0
 32 33  1  0
 33 34  1  6
 34 35  1  0
 35 36  2  0
 35 37  1  0
 38 39  1  0
 39 40  1  0
 40 41  1  1
M  CHG  1  28   1
M  END
