
     RDKit          3D

 41 43  0  0  0  0  0  0  0  0999 V2000
   -2.9110    3.9910   -1.4910 C   0  0  0  0  0  0  0  0  0  0  0  0
   -2.4050    3.8120   -0.0720 C   0  0  0  0  0  0  0  0  0  0  0  0
   -1.8910    2.4950    0.0600 N   0  0  0  0  0  0  0  0  0  0  0  0
   -2.6700    1.6340    0.9690 C   0  0  1  0  0  0  0  0  0  0  0  0
   -4.0890    2.0340    0.9830 C   0  0  0  0  0  0  0  0  0  0  0  0
   -4.5760    2.4180    2.1700 C   0  0  0  0  0  0  0  0  0  0  0  0
   -5.8570    2.8620    2.5750 N   0  0  0  0  0  0  0  0  0  0  0  0
   -7.0500    3.0910    1.7960 C   0  0  0  0  0  0  0  0  0  0  0  0
   -7.1040    2.3870    0.5560 N   0  0  0  0  0  0  0  0  0  0  0  0
   -6.1120    2.1470   -0.4320 C   0  0  0  0  0  0  0  0  0  0  0  0
   -4.8480    2.0030   -0.2160 N   0  0  0  0  0  0  0  0  0  0  0  0
   -2.4510    0.1800    0.5590 C   0  0  1  0  0  0  0  0  0  0  0  0
   -1.1560   -0.2230    0.6060 O   0  0  0  0  0  0  0  0  0  0  0  0
   -0.2030   -0.3380    1.5400 C   0  0  0  0  0  0  0  0  0  0  0  0
   -0.3960   -0.1250    2.8660 C   0  0  0  0  0  0  0  0  0  0  0  0
    0.6050   -0.2460    3.8170 C   0  0  0  0  0  0  0  0  0  0  0  0
    1.8530   -0.5990    3.4080 C   0  0  0  0  0  0  0  0  0  0  0  0
    2.1060   -0.8310    2.0550 C   0  0  0  0  0  0  0  0  0  0  0  0
    1.0970   -0.7020    1.1290 C   0  0  0  0  0  0  0  0  0  0  0  0
    1.2900   -0.9070   -0.1880 O   0  0  0  0  0  0  0  0  0  0  0  0
    2.4350   -1.2210   -0.9220 C   0  0  0  0  0  0  0  0  0  0  0  0
    3.4850   -0.1800   -0.9080 C   0  0  0  0  0  0  0  0  0  0  0  0
    4.7450   -0.4430   -1.6680 C   0  0  1  0  0  0  0  0  0  0  0  0
    4.4590   -0.7060   -3.1370 C   0  0  0  0  0  0  0  0  0  0  0  0
    5.3990    0.8120   -1.6840 O   0  0  0  0  0  0  0  0  0  0  0  0
    6.6640    0.8780   -2.0740 C   0  0  1  0  0  0  0  0  0  0  0  0
    6.7100    1.7110   -3.3680 C   0  0  0  0  0  0  0  0  0  0  0  0
    7.4030    1.7620   -1.0490 C   0  0  0  0  0  0  0  0  0  0  0  0
    7.4720   -0.3280   -2.2820 C   0  0  0  0  0  0  0  0  0  0  0  0
    6.7650   -1.6360   -2.0670 C   0  0  0  0  0  0  0  0  0  0  0  0
    5.6870   -1.3650   -1.0180 C   0  0  2  0  0  0  0  0  0  0  0  0
    5.1960   -2.6190   -0.4000 C   0  0  0  0  0  0  0  0  0  0  0  0
   -3.5280   -0.7160    0.9140 C   0  0  0  0  0  0  0  0  0  0  0  0
   -4.6790   -0.2020    1.2670 O   0  0  0  0  0  0  0  0  0  0  0  0
   -3.5460   -2.1170    0.9390 N   0  0  0  0  0  0  0  0  0  0  0  0
   -2.4420   -2.9140    0.4920 C   0  0  0  0  0  0  0  0  0  0  0  0
   -2.5400   -3.2270   -0.9960 C   0  0  0  0  0  0  0  0  0  0  0  0
   -1.3950   -4.0070   -1.2830 O   0  0  0  0  0  0  0  0  0  0  0  0
   -4.7310   -2.8320    1.4630 C   0  0  2  0  0  0  0  0  0  0  0  0
   -5.9800   -2.4480    0.7510 C   0  0  0  0  0  0  0  0  0  0  0  0
   -4.9090   -2.5090    2.9360 C   0  0  0  0  0  0  0  0  0  0  0  0
  1  2  1  0
  2  3  1  0
  4  3  1  6
  4  5  1  0
  4 12  1  0
  5  6  2  0
  5 11  1  0
  6  7  1  0
  7  8  1  0
  8  9  1  0
  9 10  1  0
 10 11  2  0
 12 13  1  1
 12 33  1  0
 13 14  1  0
 14 15  2  0
 14 19  1  0
 15 16  1  0
 16 17  2  0
 17 18  1  0
 18 19  2  0
 19 20  1  0
 20 21  1  0
 21 22  1  0
 22 23  1  0
 23 24  1  6
 23 25  1  0
 23 31  1  0
 25 26  1  0
 26 27  1  6
 26 28  1  0
 26 29  1  0
 29 30  1  0
 30 31  1  0
 31 32  1  6
 33 34  2  0
 33 35  1  0
 35 36  1  0
 35 39  1  0
 36 37  1  0
 37 38  1  0
 39 40  1  6
 39 41  1  0
M  CHG  1   3   1
M  END
