
     RDKit          3D

 42 46  0  0  0  0  0  0  0  0999 V2000
   -5.6590    5.7320   -0.0780 C   0  0  0  0  0  0  0  0  0  0  0  0
   -6.3210    4.4860    0.0090 O   0  0  0  0  0  0  0  0  0  0  0  0
   -5.5400    3.3430    0.2340 C   0  0  0  0  0  0  0  0  0  0  0  0
   -4.1730    3.4200    0.3670 C   0  0  0  0  0  0  0  0  0  0  0  0
   -3.4100    2.2990    0.5880 C   0  0  0  0  0  0  0  0  0  0  0  0
   -3.9760    1.0180    0.6910 C   0  0  0  0  0  0  0  0  0  0  0  0
   -2.9890   -0.3800    0.9950 S   0  0  1  0  0  0  0  0  0  0  0  0
   -2.0010   -0.0090    2.0680 O   0  0  0  0  0  0  0  0  0  0  0  0
   -3.8810   -1.4320    1.6610 O   0  0  0  0  0  0  0  0  0  0  0  0
   -2.3100   -1.0800   -0.3550 N   0  0  0  0  0  0  0  0  0  0  0  0
   -3.0950   -1.6140   -1.3730 C   0  0  0  0  0  0  0  0  0  0  0  0
   -3.2990   -0.8610   -2.6360 C   0  0  2  0  0  0  0  0  0  0  0  0
   -2.0340   -0.5470   -3.4060 C   0  0  0  0  0  0  0  0  0  0  0  0
   -4.1210    0.3780   -2.5670 C   0  0  0  0  0  0  0  0  0  0  0  0
   -0.9100   -1.2100   -0.3950 C   0  0  0  0  0  0  0  0  0  0  0  0
   -0.3090   -2.4500    0.2020 C   0  0  1  0  0  0  0  0  0  0  0  0
   -0.7000   -3.6310   -0.3570 O   0  0  0  0  0  0  0  0  0  0  0  0
    1.1890   -2.3070    0.0460 C   0  0  2  0  0  0  0  0  0  0  0  0
    1.8750   -3.3180    0.9200 C   0  0  0  0  0  0  0  0  0  0  0  0
    1.5300   -4.7120    0.5990 C   0  0  0  0  0  0  0  0  0  0  0  0
    0.5150   -5.4100    1.2470 C   0  0  0  0  0  0  0  0  0  0  0  0
    0.2900   -6.7100    0.8560 C   0  0  0  0  0  0  0  0  0  0  0  0
    1.0230   -7.3230   -0.1350 C   0  0  0  0  0  0  0  0  0  0  0  0
    2.0240   -6.6290   -0.7720 C   0  0  0  0  0  0  0  0  0  0  0  0
    2.2730   -5.3320   -0.4040 C   0  0  0  0  0  0  0  0  0  0  0  0
    1.5430   -0.9960    0.6290 N   0  0  0  0  0  0  0  0  0  0  0  0
    2.1550    0.0040   -0.1530 C   0  0  0  0  0  0  0  0  0  0  0  0
    2.4100   -0.2130   -1.3660 O   0  0  0  0  0  0  0  0  0  0  0  0
    2.4930    1.2410    0.3790 O   0  0  0  0  0  0  0  0  0  0  0  0
    3.1080    2.2480   -0.4010 C   0  0  1  0  0  0  0  0  0  0  0  0
    2.2680    3.5050   -0.4040 C   0  0  0  0  0  0  0  0  0  0  0  0
    2.8340    4.2570    0.6190 O   0  0  0  0  0  0  0  0  0  0  0  0
    4.2250    4.1890    0.4030 C   0  0  1  0  0  0  0  0  0  0  0  0
    4.8380    4.5410    1.5690 O   0  0  0  0  0  0  0  0  0  0  0  0
    5.3240    3.4370    2.2140 C   0  0  2  0  0  0  0  0  0  0  0  0
    6.6010    3.1320    1.7510 O   0  0  0  0  0  0  0  0  0  0  0  0
    6.7930    1.7770    1.9890 C   0  0  0  0  0  0  0  0  0  0  0  0
    5.4550    1.1130    1.8480 C   0  0  0  0  0  0  0  0  0  0  0  0
    4.5240    2.2610    1.6640 C   0  0  2  0  0  0  0  0  0  0  0  0
    4.3920    2.6990    0.2080 C   0  0  1  0  0  0  0  0  0  0  0  0
   -5.3460    0.9730    0.5540 C   0  0  0  0  0  0  0  0  0  0  0  0
   -6.1170    2.0920    0.3320 C   0  0  0  0  0  0  0  0  0  0  0  0
  1  2  1  0
  2  3  1  0
  3  4  2  0
  3 42  1  0
  4  5  1  0
  5  6  2  0
  6  7  1  0
  6 41  1  0
  7  8  2  0
  7  9  2  0
  7 10  1  6
 10 11  1  0
 10 15  1  0
 11 12  1  0
 12 13  1  1
 12 14  1  0
 15 16  1  0
 16 17  1  6
 16 18  1  0
 18 19  1  1
 18 26  1  0
 19 20  1  0
 20 21  2  0
 20 25  1  0
 21 22  1  0
 22 23  2  0
 23 24  1  0
 24 25  2  0
 26 27  1  0
 27 28  2  0
 27 29  1  0
 30 29  1  1
 30 31  1  0
 40 30  1  1
 31 32  1  0
 33 32  1  1
 33 34  1  0
 33 40  1  0
 35 34  1  6
 35 36  1  0
 35 39  1  0
 36 37  1  0
 37 38  1  0
 39 38  1  6
 39 40  1  0
 41 42  2  0
M  END
