
     RDKit          3D

 41 46  0  0  0  0  0  0  0  0999 V2000
    2.3570    6.2350   -0.7690 C   0  0  0  0  0  0  0  0  0  0  0  0
    1.0130    5.6180   -0.4640 C   0  0  0  0  0  0  0  0  0  0  0  0
   -0.1990    6.2420   -0.4190 C   0  0  0  0  0  0  0  0  0  0  0  0
   -1.1600    5.3100   -0.1060 C   0  0  0  0  0  0  0  0  0  0  0  0
   -2.5130    5.3340    0.0440 C   0  0  0  0  0  0  0  0  0  0  0  0
   -3.0870    6.4580   -0.0970 O   0  0  0  0  0  0  0  0  0  0  0  0
   -3.2370    4.2460    0.3250 N   0  0  0  0  0  0  0  0  0  0  0  0
   -2.6050    3.0720    0.4690 C   0  0  0  0  0  0  0  0  0  0  0  0
   -3.0510    1.8270    0.7290 N   0  0  0  0  0  0  0  0  0  0  0  0
   -2.0630    0.9760    0.7680 N   0  0  0  0  0  0  0  0  0  0  0  0
   -2.2120   -0.4350    1.0360 C   0  0  0  0  0  0  0  0  0  0  0  0
   -2.4670   -1.2620   -0.2100 C   0  0  0  0  0  0  0  0  0  0  0  0
   -2.6220   -2.6590    0.0640 N   0  0  0  0  0  0  0  0  0  0  0  0
   -3.7110   -3.2900    0.6880 C   0  0  0  0  0  0  0  0  0  0  0  0
   -4.8630   -2.6400    1.0160 C   0  0  0  0  0  0  0  0  0  0  0  0
   -5.9310   -3.3140    1.6160 C   0  0  0  0  0  0  0  0  0  0  0  0
   -5.8390   -4.6600    1.8890 C   0  0  0  0  0  0  0  0  0  0  0  0
   -4.6900   -5.3190    1.5640 C   0  0  0  0  0  0  0  0  0  0  0  0
   -3.6510   -4.6360    0.9740 C   0  0  0  0  0  0  0  0  0  0  0  0
   -2.2000   -5.5310    0.5790 Cl  0  0  0  0  0  0  0  0  0  0  0  0
   -0.8950    1.6390    0.5300 C   0  0  0  0  0  0  0  0  0  0  0  0
    0.3890    1.0200    0.6700 C   0  0  0  0  0  0  0  0  0  0  0  0
    1.6240    1.6400    0.9320 N   0  0  0  0  0  0  0  0  0  0  0  0
    0.5120   -0.3000    0.6580 N   0  0  0  0  0  0  0  0  0  0  0  0
    1.7440   -0.9530    0.7980 C   0  0  0  0  0  0  0  0  0  0  0  0
    2.1260   -1.2750    2.0940 N   0  0  0  0  0  0  0  0  0  0  0  0
    3.2840   -1.9010    2.2840 C   0  0  0  0  0  0  0  0  0  0  0  0
    4.0990   -2.2290    1.2100 C   0  0  0  0  0  0  0  0  0  0  0  0
    3.7370   -1.9240   -0.0370 N   0  0  0  0  0  0  0  0  0  0  0  0
    2.5420   -1.2750   -0.2600 C   0  0  0  0  0  0  0  0  0  0  0  0
    2.2260   -0.9350   -1.6230 C   0  0  0  0  0  0  0  0  0  0  0  0
    0.8210    0.0720   -1.9940 Cl  0  0  0  0  0  0  0  0  0  0  0  0
    2.9360   -1.3290   -2.6420 C   0  0  0  0  0  0  0  0  0  0  0  0
    4.1300   -2.1530   -2.6740 C   0  0  0  0  0  0  0  0  0  0  0  0
    4.4010   -3.4050   -2.1920 C   0  0  0  0  0  0  0  0  0  0  0  0
    5.6750   -3.6890   -2.4710 N   0  0  0  0  0  0  0  0  0  0  0  0
    6.2270   -2.6700   -3.1120 C   0  0  0  0  0  0  0  0  0  0  0  0
    5.2970   -1.7250   -3.2440 N   0  0  0  0  0  0  0  0  0  0  0  0
   -1.2260    2.9420    0.3390 C   0  0  0  0  0  0  0  0  0  0  0  0
   -0.4890    4.1030    0.0390 C   0  0  0  0  0  0  0  0  0  0  0  0
    0.8000    4.2910   -0.1760 N   0  0  0  0  0  0  0  0  0  0  0  0
  1  2  1  0
  2  3  2  0
  2 41  1  0
  3  4  1  0
  4  5  1  0
  4 40  2  0
  5  6  2  0
  5  7  1  0
  7  8  1  0
  8  9  2  0
  8 39  1  0
  9 10  1  0
 10 11  1  0
 10 21  1  0
 11 12  1  0
 12 13  1  0
 13 14  1  0
 14 15  2  0
 14 19  1  0
 15 16  1  0
 16 17  2  0
 17 18  1  0
 18 19  2  0
 19 20  1  0
 21 22  1  0
 21 39  2  0
 22 23  1  0
 22 24  2  3
 24 25  1  0
 25 26  2  0
 25 30  1  0
 26 27  1  0
 27 28  2  0
 28 29  1  0
 29 30  2  0
 30 31  1  0
 31 32  1  0
 31 33  2  3
 33 34  1  0
 34 35  2  0
 34 38  1  0
 35 36  1  0
 36 37  1  0
 37 38  2  0
 39 40  1  0
 40 41  1  0
M  END
