
     RDKit          3D

 41 43  0  0  0  0  0  0  0  0999 V2000
    8.8820   -2.5620    0.4360 C   0  0  0  0  0  0  0  0  0  0  0  0
    7.9790   -2.6880    1.6120 C   0  0  0  0  0  0  0  0  0  0  0  0
    6.5580   -2.4810    1.2900 N   0  0  0  0  0  0  0  0  0  0  0  0
    6.1200   -3.6250    0.4640 C   0  0  0  0  0  0  0  0  0  0  0  0
    6.5000   -1.2840    0.4420 C   0  0  0  0  0  0  0  0  0  0  0  0
    5.1060   -0.8650    0.1910 C   0  0  0  0  0  0  0  0  0  0  0  0
    4.1160   -1.5520    0.8510 C   0  0  0  0  0  0  0  0  0  0  0  0
    2.7660   -1.2150    0.6880 C   0  0  0  0  0  0  0  0  0  0  0  0
    2.4430   -0.1810   -0.1450 C   0  0  0  0  0  0  0  0  0  0  0  0
    1.0950    0.1990   -0.3320 N   0  0  0  0  0  0  0  0  0  0  0  0
   -0.0060   -0.1130    0.4800 C   0  0  0  0  0  0  0  0  0  0  0  0
    0.1510   -0.8020    1.5330 O   0  0  0  0  0  0  0  0  0  0  0  0
   -1.3360    0.3630    0.1000 C   0  0  2  0  0  0  0  0  0  0  0  0
   -1.5110    1.8370    0.0030 C   0  0  0  0  0  0  0  0  0  0  0  0
   -2.9090    2.2190   -0.3120 C   0  0  1  0  0  0  0  0  0  0  0  0
   -2.9970    3.2040   -1.4720 C   0  0  0  0  0  0  0  0  0  0  0  0
   -2.4270    2.6450   -2.7430 C   0  0  0  0  0  0  0  0  0  0  0  0
   -2.5550    3.6150   -3.7340 O   0  0  0  0  0  0  0  0  0  0  0  0
   -3.8340    1.0810   -0.5280 C   0  0  0  0  0  0  0  0  0  0  0  0
   -4.7990    1.1850   -1.3690 O   0  0  0  0  0  0  0  0  0  0  0  0
   -3.6400   -0.1130    0.2010 N   0  0  0  0  0  0  0  0  0  0  0  0
   -4.6120   -1.1810    0.1360 C   0  0  0  0  0  0  0  0  0  0  0  0
   -4.8080   -1.6680   -1.0650 C   0  0  0  0  0  0  0  0  0  0  0  0
   -5.7100   -2.7310   -1.4560 C   0  0  0  0  0  0  0  0  0  0  0  0
   -6.4720   -3.3650   -0.6660 O   0  0  0  0  0  0  0  0  0  0  0  0
   -5.8040   -3.1580   -2.8340 N   0  0  0  0  0  0  0  0  0  0  0  0
   -6.7110   -4.2260   -3.2200 C   0  0  0  0  0  0  0  0  0  0  0  0
   -5.2300   -1.6570    1.3400 C   0  0  0  0  0  0  0  0  0  0  0  0
   -6.2340   -0.7650    2.0120 C   0  0  2  0  0  0  0  0  0  0  0  0
   -7.3990   -0.4220    1.1450 C   0  0  0  0  0  0  0  0  0  0  0  0
   -7.9290    0.8480    1.7680 C   0  0  0  0  0  0  0  0  0  0  0  0
   -6.7260    1.4850    2.3820 C   0  0  0  0  0  0  0  0  0  0  0  0
   -5.7250    0.4430    2.5380 N   0  0  0  0  0  0  0  0  0  0  0  0
   -2.4290   -0.2570    0.9910 C   0  0  0  0  0  0  0  0  0  0  0  0
    3.4600    0.5080   -0.8070 C   0  0  0  0  0  0  0  0  0  0  0  0
    4.7890    0.1770   -0.6490 C   0  0  0  0  0  0  0  0  0  0  0  0
    5.8170    0.9470   -1.3730 C   0  0  0  0  0  0  0  0  0  0  0  0
    6.4830    2.0250   -0.5840 C   0  0  0  0  0  0  0  0  0  0  0  0
    5.4690    3.0560   -0.0810 C   0  0  0  0  0  0  0  0  0  0  0  0
    6.2740    4.0920    0.7030 C   0  0  0  0  0  0  0  0  0  0  0  0
    5.4660    5.0940    1.2220 O   0  0  0  0  0  0  0  0  0  0  0  0
  1  2  1  0
  2  3  1  0
  3  4  1  0
  3  5  1  0
  5  6  1  0
  6  7  2  0
  6 36  1  0
  7  8  1  0
  8  9  2  0
  9 10  1  0
  9 35  1  0
 10 11  1  0
 11 12  2  0
 13 11  1  1
 13 14  1  0
 13 34  1  0
 14 15  1  0
 15 16  1  6
 15 19  1  0
 16 17  1  0
 17 18  1  0
 19 20  2  0
 19 21  1  0
 21 22  1  0
 21 34  1  0
 22 23  2  3
 22 28  1  0
 23 24  1  0
 24 25  2  0
 24 26  1  0
 26 27  1  0
 29 28  1  6
 29 30  1  0
 29 33  1  0
 30 31  1  0
 31 32  1  0
 32 33  1  0
 35 36  2  0
 36 37  1  0
 37 38  1  0
 38 39  1  0
 39 40  1  0
 40 41  1  0
M  CHG  1  33   1
M  END
