
     RDKit          3D

 41 43  0  0  0  0  0  0  0  0999 V2000
   -7.9400   -2.4180    0.5080 C   0  0  0  0  0  0  0  0  0  0  0  0
   -7.4170   -1.0970    0.9970 C   0  0  0  0  0  0  0  0  0  0  0  0
   -5.9480   -0.8850    0.7800 C   0  0  2  0  0  0  0  0  0  0  0  0
   -5.7270    0.4940    1.4880 C   0  0  0  0  0  0  0  0  0  0  0  0
   -6.1510    0.2270    2.8240 O   0  0  0  0  0  0  0  0  0  0  0  0
   -5.4620   -0.7720   -0.6240 C   0  0  0  0  0  0  0  0  0  0  0  0
   -5.8160    0.3160   -1.4340 N   0  0  0  0  0  0  0  0  0  0  0  0
   -5.0080    1.4960   -1.4670 C   0  0  0  0  0  0  0  0  0  0  0  0
   -5.5890    2.4640   -2.2160 O   0  0  0  0  0  0  0  0  0  0  0  0
   -3.7570    1.9140   -0.9270 C   0  0  0  0  0  0  0  0  0  0  0  0
   -2.8490    1.1670   -0.1800 N   0  0  0  0  0  0  0  0  0  0  0  0
   -1.6250    1.7960    0.3170 C   0  0  0  0  0  0  0  0  0  0  0  0
   -1.4640    2.9960    0.0560 O   0  0  0  0  0  0  0  0  0  0  0  0
   -0.6880    1.0720    1.0500 N   0  0  0  0  0  0  0  0  0  0  0  0
   -0.7860   -0.3730    1.3370 C   0  0  0  0  0  0  0  0  0  0  0  0
    0.6990   -0.7870    1.2750 C   0  0  0  0  0  0  0  0  0  0  0  0
    1.3580    0.3320    2.0490 C   0  0  1  0  0  0  0  0  0  0  0  0
    2.7460    0.5410    1.7470 N   0  0  0  0  0  0  0  0  0  0  0  0
    3.3600   -0.4670    0.9260 C   0  0  0  0  0  0  0  0  0  0  0  0
    4.7460   -0.8300    1.4180 C   0  0  1  0  0  0  0  0  0  0  0  0
    4.7470   -1.3500    2.6960 O   0  0  0  0  0  0  0  0  0  0  0  0
    5.4620   -1.6870    0.4290 C   0  0  0  0  0  0  0  0  0  0  0  0
    5.6680   -1.0050   -0.9070 C   0  0  0  0  0  0  0  0  0  0  0  0
    6.4490    0.1840   -0.6610 N   0  0  0  0  0  0  0  0  0  0  0  0
    7.7950    0.1110   -0.2530 C   0  0  0  0  0  0  0  0  0  0  0  0
    8.5670   -1.0090   -0.3780 C   0  0  0  0  0  0  0  0  0  0  0  0
    9.8960   -1.0650    0.0480 C   0  0  0  0  0  0  0  0  0  0  0  0
   10.7180   -2.2970   -0.1100 C   0  0  0  0  0  0  0  0  0  0  0  0
   10.4890    0.0420    0.6260 C   0  0  0  0  0  0  0  0  0  0  0  0
   11.9010    0.0110    1.0890 C   0  0  0  0  0  0  0  0  0  0  0  0
    9.7260    1.1820    0.7600 C   0  0  0  0  0  0  0  0  0  0  0  0
   10.3270    2.3970    1.3910 C   0  0  0  0  0  0  0  0  0  0  0  0
    8.4150    1.2250    0.3350 C   0  0  0  0  0  0  0  0  0  0  0  0
    0.5270    1.5460    1.6690 C   0  0  0  0  0  0  0  0  0  0  0  0
   -6.9550    0.3410   -2.3400 C   0  0  1  0  0  0  0  0  0  0  0  0
   -6.3390    0.7260   -3.7420 C   0  0  0  0  0  0  0  0  0  0  0  0
   -7.6530   -0.9530   -2.6020 C   0  0  0  0  0  0  0  0  0  0  0  0
   -9.1620   -0.7890   -2.4370 C   0  0  0  0  0  0  0  0  0  0  0  0
   -9.6540    0.1460   -3.3180 O   0  0  0  0  0  0  0  0  0  0  0  0
   -9.0540    1.3930   -3.1680 C   0  0  0  0  0  0  0  0  0  0  0  0
   -8.0030    1.3540   -2.0370 C   0  0  0  0  0  0  0  0  0  0  0  0
  1  2  1  0
  3  2  1  6
  3  4  1  0
  3  6  1  0
  4  5  1  0
  6  7  1  0
  7  8  1  0
  7 35  1  0
  8  9  2  0
  8 10  1  0
 10 11  1  0
 11 12  1  0
 12 13  2  0
 12 14  1  0
 14 15  1  0
 14 34  1  0
 15 16  1  0
 16 17  1  0
 17 18  1  6
 17 34  1  0
 18 19  1  0
 19 20  1  0
 20 21  1  1
 20 22  1  0
 22 23  1  0
 23 24  1  0
 24 25  1  0
 25 26  2  0
 25 33  1  0
 26 27  1  0
 27 28  1  0
 27 29  2  0
 29 30  1  0
 29 31  1  0
 31 32  1  0
 31 33  2  0
 35 36  1  6
 35 37  1  0
 35 41  1  0
 37 38  1  0
 38 39  1  0
 39 40  1  0
 40 41  1  0
M  CHG  1  18   1
M  END
