
     RDKit          3D

 33 34  0  0  0  0  0  0  0  0999 V2000
   -4.3540    4.3340    1.4960 C   0  0  0  0  0  0  0  0  0  0  0  0
   -3.5590    3.1140    1.4120 C   0  0  0  0  0  0  0  0  0  0  0  0
   -4.0170    1.8860    1.2670 C   0  0  0  0  0  0  0  0  0  0  0  0
   -3.1370    0.7650    1.1980 N   0  0  0  0  0  0  0  0  0  0  0  0
   -2.9790   -0.1130    0.1210 C   0  0  0  0  0  0  0  0  0  0  0  0
   -3.6930    0.0930   -0.9120 O   0  0  0  0  0  0  0  0  0  0  0  0
   -2.0170   -1.2790    0.1010 C   0  0  1  0  0  0  0  0  0  0  0  0
   -1.8100   -1.6040    1.6040 C   0  0  0  0  0  0  0  0  0  0  0  0
   -2.7030   -2.4210   -0.5010 C   0  0  0  0  0  0  0  0  0  0  0  0
   -3.8990   -3.0170    0.1610 C   0  0  0  0  0  0  0  0  0  0  0  0
   -5.0920   -2.1200    0.3390 C   0  0  0  0  0  0  0  0  0  0  0  0
   -0.8010   -0.8340   -0.4220 N   0  0  0  0  0  0  0  0  0  0  0  0
    0.2250   -1.6540   -0.9070 C   0  0  2  0  0  0  0  0  0  0  0  0
   -0.1310   -2.0610   -2.3260 C   0  0  0  0  0  0  0  0  0  0  0  0
    0.7170   -2.7700   -0.0610 C   0  0  0  0  0  0  0  0  0  0  0  0
    1.2360   -2.3160    1.1780 O   0  0  0  0  0  0  0  0  0  0  0  0
    1.4180   -0.7910   -1.0620 N   0  0  0  0  0  0  0  0  0  0  0  0
    2.5230   -1.4620   -1.6440 C   0  0  0  0  0  0  0  0  0  0  0  0
    3.4180   -0.5880   -2.4770 C   0  0  0  0  0  0  0  0  0  0  0  0
    3.6890    0.6480   -1.7770 N   0  0  0  0  0  0  0  0  0  0  0  0
    4.5920    0.3520   -0.7160 C   0  0  0  0  0  0  0  0  0  0  0  0
    5.0930    1.5630    0.0200 C   0  0  0  0  0  0  0  0  0  0  0  0
    4.8280    2.8320   -0.1970 C   0  0  0  0  0  0  0  0  0  0  0  0
    5.5560    3.6920    0.7930 C   0  0  0  0  0  0  0  0  0  0  0  0
    6.2790    2.7170    1.6060 C   0  0  0  0  0  0  0  0  0  0  0  0
    6.0210    1.5090    1.1740 C   0  0  0  0  0  0  0  0  0  0  0  0
    6.5450    0.3480    1.7230 O   0  0  0  0  0  0  0  0  0  0  0  0
    2.4800    1.2990   -1.4250 C   0  0  0  0  0  0  0  0  0  0  0  0
    1.2120    0.4580   -1.6550 C   0  0  0  0  0  0  0  0  0  0  0  0
   -5.4670    1.6480    1.1940 C   0  0  1  0  0  0  0  0  0  0  0  0
   -5.8570    0.8470    2.2810 F   0  0  0  0  0  0  0  0  0  0  0  0
   -6.2320    2.8020    1.2320 F   0  0  0  0  0  0  0  0  0  0  0  0
   -5.8750    0.9800    0.0550 F   0  0  0  0  0  0  0  0  0  0  0  0
  1  2  1  0
  2  3  2  3
  3  4  1  0
  3 30  1  0
  4  5  1  0
  5  6  2  0
  5  7  1  0
  7  8  1  1
  7  9  1  0
  7 12  1  0
  9 10  1  0
 10 11  1  0
 12 13  1  0
 13 14  1  6
 13 15  1  0
 13 17  1  0
 15 16  1  0
 17 18  1  0
 17 29  1  0
 18 19  1  0
 19 20  1  0
 20 21  1  0
 20 28  1  0
 21 22  1  0
 22 23  2  0
 22 26  1  0
 23 24  1  0
 24 25  1  0
 25 26  2  0
 26 27  1  0
 28 29  1  0
 30 31  1  1
 30 32  1  0
 30 33  1  0
M  CHG  1  12   1
M  END
