
     RDKit          3D

 33 33  0  0  0  0  0  0  0  0999 V2000
    3.5590    4.6910   -0.7480 C   0  0  0  0  0  0  0  0  0  0  0  0
    2.1810    4.7740   -0.7040 C   0  0  0  0  0  0  0  0  0  0  0  0
    1.6790    6.1340   -0.9090 C   0  0  0  0  0  0  0  0  0  0  0  0
    1.5100    3.5600   -0.4950 C   0  0  0  0  0  0  0  0  0  0  0  0
    0.2780    3.0860   -0.3640 C   0  0  0  0  0  0  0  0  0  0  0  0
    0.2290    1.6530   -0.1560 C   0  0  0  0  0  0  0  0  0  0  0  0
   -0.5850    0.7150    0.0020 C   0  0  0  0  0  0  0  0  0  0  0  0
   -1.9990    0.5100    0.0680 C   0  0  0  0  0  0  0  0  0  0  0  0
   -2.8660    1.3890   -0.0570 O   0  0  0  0  0  0  0  0  0  0  0  0
   -2.5530   -0.8030    0.2940 N   0  0  0  0  0  0  0  0  0  0  0  0
   -4.0300   -0.9490    0.3430 C   0  0  0  0  0  0  0  0  0  0  0  0
   -4.5530   -1.5870   -0.6420 C   0  0  0  0  0  0  0  0  0  0  0  0
   -5.8360   -2.0100   -1.1060 C   0  0  0  0  0  0  0  0  0  0  0  0
   -7.0530   -1.7280   -0.4280 N   0  0  0  0  0  0  0  0  0  0  0  0
   -4.6020   -0.3170    1.4920 C   0  0  0  0  0  0  0  0  0  0  0  0
   -3.8370    0.2700    2.4180 C   0  0  0  0  0  0  0  0  0  0  0  0
   -5.9910   -0.2790    1.7130 O   0  0  0  0  0  0  0  0  0  0  0  0
    0.1830   -0.6240    0.1660 N   0  0  0  0  0  0  0  0  0  0  0  0
    0.2590   -1.4260   -0.9810 C   0  0  0  0  0  0  0  0  0  0  0  0
    0.7070   -0.8320    1.4420 C   0  0  2  0  0  0  0  0  0  0  0  0
    0.5690    0.3810    2.3530 C   0  0  0  0  0  0  0  0  0  0  0  0
    2.2030   -1.1340    1.4190 C   0  0  0  0  0  0  0  0  0  0  0  0
    2.4650   -2.3810    0.7150 C   0  0  0  0  0  0  0  0  0  0  0  0
    1.6050   -3.3170    0.6380 O   0  0  0  0  0  0  0  0  0  0  0  0
    3.7100   -2.6030    0.0750 N   0  0  0  0  0  0  0  0  0  0  0  0
    4.7420   -1.6230    0.0920 C   0  0  0  0  0  0  0  0  0  0  0  0
    3.9010   -3.8950   -0.6000 C   0  0  1  0  0  0  0  0  0  0  0  0
    4.3550   -3.6980   -2.0560 C   0  0  0  0  0  0  0  0  0  0  0  0
    5.2290   -4.3130   -1.0310 C   0  0  0  0  0  0  0  0  0  0  0  0
   -0.9390    3.8880   -0.3860 C   0  0  1  0  0  0  0  0  0  0  0  0
   -1.7370    3.5300   -1.4420 F   0  0  0  0  0  0  0  0  0  0  0  0
   -1.6540    3.6670    0.8080 F   0  0  0  0  0  0  0  0  0  0  0  0
   -0.7660    5.2610   -0.3690 F   0  0  0  0  0  0  0  0  0  0  0  0
  1  2  2  0
  2  3  1  0
  2  4  1  0
  4  5  2  3
  5  6  1  0
  5 30  1  0
  6  7  2  3
  7  8  1  0
  7 18  1  0
  8  9  2  0
  8 10  1  0
 10 11  1  0
 11 12  2  3
 11 15  1  0
 12 13  1  0
 13 14  1  0
 15 16  2  0
 15 17  1  0
 18 19  1  0
 18 20  1  0
 20 21  1  1
 20 22  1  0
 22 23  1  0
 23 24  2  0
 23 25  1  0
 25 26  1  0
 27 25  1  1
 27 28  1  0
 27 29  1  0
 28 29  1  0
 30 31  1  6
 30 32  1  0
 30 33  1  0
M  CHG  1  14   1
M  END
