
     RDKit          3D

 32 35  0  0  0  0  0  0  0  0999 V2000
   -1.1640   -0.6150    2.6210 O   0  0  0  0  0  0  0  0  0  0  0  0
   -1.5570   -0.4070    1.4400 C   0  0  0  0  0  0  0  0  0  0  0  0
   -0.6830    0.2880    0.5750 N   0  0  0  0  0  0  0  0  0  0  0  0
    0.5970    0.7370    1.0360 C   0  0  2  0  0  0  0  0  0  0  0  0
    0.6250    2.2460    0.9150 C   0  0  0  0  0  0  0  0  0  0  0  0
   -0.4950    2.7890    1.7770 C   0  0  0  0  0  0  0  0  0  0  0  0
   -0.3090    2.4070    3.1150 O   0  0  0  0  0  0  0  0  0  0  0  0
    1.7200    0.1000    0.2940 C   0  0  0  0  0  0  0  0  0  0  0  0
    1.4270   -0.7220   -0.5820 O   0  0  0  0  0  0  0  0  0  0  0  0
    3.0560    0.4270    0.5880 N   0  0  0  0  0  0  0  0  0  0  0  0
    4.1850   -0.1320   -0.0540 C   0  0  0  0  0  0  0  0  0  0  0  0
    4.1560   -1.2400   -0.8490 C   0  0  0  0  0  0  0  0  0  0  0  0
    5.3240   -1.7090   -1.4520 C   0  0  0  0  0  0  0  0  0  0  0  0
    6.5250   -1.0340   -1.2350 C   0  0  0  0  0  0  0  0  0  0  0  0
    6.5460    0.0670   -0.4440 C   0  0  0  0  0  0  0  0  0  0  0  0
    5.3930    0.5140    0.1400 C   0  0  0  0  0  0  0  0  0  0  0  0
    7.8180    0.7920   -0.2070 C   0  0  0  0  0  0  0  0  0  0  0  0
    8.8110   -0.2100   -0.1100 O   0  0  0  0  0  0  0  0  0  0  0  0
    8.9930   -0.7840   -1.3570 C   0  0  0  0  0  0  0  0  0  0  0  0
    7.7870   -1.5050   -1.8640 C   0  0  0  0  0  0  0  0  0  0  0  0
   -2.8560   -0.8540    0.9590 C   0  0  0  0  0  0  0  0  0  0  0  0
   -3.1600   -2.1740    0.7310 C   0  0  0  0  0  0  0  0  0  0  0  0
   -4.4090   -2.5750    0.2820 C   0  0  0  0  0  0  0  0  0  0  0  0
   -5.3900   -1.6100    0.0530 C   0  0  0  0  0  0  0  0  0  0  0  0
   -5.1060   -0.2790    0.2760 C   0  0  0  0  0  0  0  0  0  0  0  0
   -6.0700    0.6810    0.0540 O   0  0  0  0  0  0  0  0  0  0  0  0
   -7.3640    0.4140   -0.3940 C   0  0  0  0  0  0  0  0  0  0  0  0
   -8.2180   -0.3770    0.2320 C   0  0  0  0  0  0  0  0  0  0  0  0
   -9.4750   -0.4070   -0.5500 C   0  0  0  0  0  0  0  0  0  0  0  0
   -9.1720    0.4880   -1.6920 C   0  0  0  0  0  0  0  0  0  0  0  0
   -7.9460    0.9580   -1.5920 C   0  0  0  0  0  0  0  0  0  0  0  0
   -3.8700    0.0740    0.7160 C   0  0  0  0  0  0  0  0  0  0  0  0
  1  2  2  0
  2  3  1  0
  2 21  1  0
  3  4  1  0
  4  5  1  6
  4  8  1  0
  5  6  1  0
  6  7  1  0
  8  9  2  0
  8 10  1  0
 10 11  1  0
 11 12  2  0
 11 16  1  0
 12 13  1  0
 13 14  2  0
 14 15  1  0
 14 20  1  0
 15 16  2  0
 15 17  1  0
 17 18  1  0
 18 19  1  0
 19 20  1  0
 21 22  2  0
 21 32  1  0
 22 23  1  0
 23 24  2  0
 24 25  1  0
 25 26  1  0
 25 32  2  0
 26 27  1  0
 27 28  2  0
 27 31  1  0
 28 29  1  0
 29 30  1  0
 30 31  2  0
M  END
