
     RDKit          3D

 32 34  0  0  0  0  0  0  0  0999 V2000
   -7.1510    2.2410    2.9620 C   0  0  0  0  0  0  0  0  0  0  0  0
   -6.3490    1.1890    2.2170 C   0  0  0  0  0  0  0  0  0  0  0  0
   -5.9010    1.7810    0.9120 C   0  0  0  0  0  0  0  0  0  0  0  0
   -5.0970    0.8200    0.1070 C   0  0  0  0  0  0  0  0  0  0  0  0
   -5.7240   -0.1910   -0.6030 C   0  0  0  0  0  0  0  0  0  0  0  0
   -7.2180   -0.3660   -0.5880 C   0  0  0  0  0  0  0  0  0  0  0  0
   -4.9470   -1.0600   -1.3270 C   0  0  0  0  0  0  0  0  0  0  0  0
   -5.5360   -2.1850   -2.1230 C   0  0  0  0  0  0  0  0  0  0  0  0
   -3.5680   -0.9700   -1.3750 C   0  0  0  0  0  0  0  0  0  0  0  0
   -2.9410    0.0420   -0.6560 C   0  0  0  0  0  0  0  0  0  0  0  0
   -1.5460    0.1250   -0.6820 O   0  0  0  0  0  0  0  0  0  0  0  0
   -0.7680   -0.7490   -1.4200 C   0  0  0  0  0  0  0  0  0  0  0  0
    0.6730   -0.7100   -1.3100 C   0  0  0  0  0  0  0  0  0  0  0  0
    1.2310   -1.6000   -2.1610 O   0  0  0  0  0  0  0  0  0  0  0  0
    1.5710    0.0250   -0.5180 N   0  0  0  0  0  0  0  0  0  0  0  0
    1.1900    1.0720    0.3350 C   0  0  0  0  0  0  0  0  0  0  0  0
    2.1680    2.2110    0.2830 C   0  0  0  0  0  0  0  0  0  0  0  0
    3.5520    1.7010    0.3730 C   0  0  0  0  0  0  0  0  0  0  0  0
    3.8880    0.4850   -0.0140 C   0  0  0  0  0  0  0  0  0  0  0  0
    2.9310   -0.4650   -0.5630 C   0  0  0  0  0  0  0  0  0  0  0  0
    5.3110   -0.0050    0.0750 C   0  0  0  0  0  0  0  0  0  0  0  0
    5.5980   -1.2110   -0.3030 C   0  0  0  0  0  0  0  0  0  0  0  0
    6.7160   -2.0800   -0.4130 C   0  0  0  0  0  0  0  0  0  0  0  0
    6.3400   -3.3680   -0.9200 C   0  0  0  0  0  0  0  0  0  0  0  0
    7.3790   -4.2410   -1.0410 O   0  0  0  0  0  0  0  0  0  0  0  0
    7.9630   -1.9400   -0.1540 O   0  0  0  0  0  0  0  0  0  0  0  0
    8.9900   -1.2180    0.2600 C   0  0  0  0  0  0  0  0  0  0  0  0
    6.2570    0.9430    0.6040 C   0  0  0  0  0  0  0  0  0  0  0  0
    5.8950    2.1770    0.9930 C   0  0  0  0  0  0  0  0  0  0  0  0
    4.5470    2.5630    0.8800 N   0  0  0  0  0  0  0  0  0  0  0  0
   -3.7270    0.9070    0.0610 C   0  0  0  0  0  0  0  0  0  0  0  0
   -3.0940    1.9440    0.7870 O   0  0  0  0  0  0  0  0  0  0  0  0
  1  2  1  0
  2  3  1  0
  3  4  1  0
  4  5  2  0
  4 31  1  0
  5  6  1  0
  5  7  1  0
  7  8  1  0
  7  9  2  0
  9 10  1  0
 10 11  1  0
 10 31  2  0
 11 12  1  0
 12 13  1  0
 13 14  2  0
 13 15  1  0
 15 16  1  0
 15 20  1  0
 16 17  1  0
 17 18  1  0
 18 19  2  0
 18 30  1  0
 19 20  1  0
 19 21  1  0
 21 22  2  3
 21 28  1  0
 22 23  1  0
 23 24  2  3
 23 26  1  0
 24 25  1  0
 26 27  1  0
 28 29  2  0
 29 30  1  0
 31 32  1  0
M  END
