
     RDKit          3D

 32 34  0  0  0  0  0  0  0  0999 V2000
   -4.4660   -4.1070    0.3120 C   0  0  0  0  0  0  0  0  0  0  0  0
   -3.7910   -3.1100   -0.5430 C   0  0  0  0  0  0  0  0  0  0  0  0
   -3.8840   -1.7980   -0.3450 C   0  0  0  0  0  0  0  0  0  0  0  0
   -3.1810   -0.8790   -1.2440 C   0  0  0  0  0  0  0  0  0  0  0  0
   -2.2350   -0.0700   -0.5100 N   0  0  0  0  0  0  0  0  0  0  0  0
   -0.9360   -0.3760   -0.2990 C   0  0  0  0  0  0  0  0  0  0  0  0
   -0.3340    0.6170    0.4280 C   0  0  0  0  0  0  0  0  0  0  0  0
    1.0760    0.7370    0.9140 C   0  0  1  0  0  0  0  0  0  0  0  0
    1.0580    1.1660    2.2440 O   0  0  0  0  0  0  0  0  0  0  0  0
    1.7240   -0.5880    0.8360 C   0  0  0  0  0  0  0  0  0  0  0  0
    1.0860   -1.7340    1.3110 C   0  0  0  0  0  0  0  0  0  0  0  0
    1.7400   -2.9390    1.2090 C   0  0  0  0  0  0  0  0  0  0  0  0
    2.9900   -3.0540    0.6600 C   0  0  0  0  0  0  0  0  0  0  0  0
    3.6990   -4.3520    0.5480 C   0  0  0  0  0  0  0  0  0  0  0  0
    3.6010   -1.9110    0.1970 C   0  0  0  0  0  0  0  0  0  0  0  0
    2.9840   -0.6650    0.2770 C   0  0  0  0  0  0  0  0  0  0  0  0
    3.6340    0.4800   -0.2030 O   0  0  0  0  0  0  0  0  0  0  0  0
    4.8990    0.4270   -0.7680 C   0  0  0  0  0  0  0  0  0  0  0  0
    5.5350    1.4960   -1.2290 C   0  0  0  0  0  0  0  0  0  0  0  0
    4.9740    2.8560   -1.1940 C   0  0  0  0  0  0  0  0  0  0  0  0
    5.8130    3.8260   -0.4090 C   0  0  0  0  0  0  0  0  0  0  0  0
    5.5280   -0.8920   -0.8410 C   0  0  0  0  0  0  0  0  0  0  0  0
    4.9330   -1.9870   -0.3950 C   0  0  0  0  0  0  0  0  0  0  0  0
   -1.2920    1.5620    0.6700 C   0  0  0  0  0  0  0  0  0  0  0  0
   -2.4590    1.1100    0.0780 C   0  0  0  0  0  0  0  0  0  0  0  0
   -3.6950    1.8460    0.1370 C   0  0  0  0  0  0  0  0  0  0  0  0
   -3.7450    2.9720    0.7370 O   0  0  0  0  0  0  0  0  0  0  0  0
   -4.8550    1.3430   -0.4560 O   0  0  0  0  0  0  0  0  0  0  0  0
   -6.0320    2.1200   -0.3560 C   0  0  0  0  0  0  0  0  0  0  0  0
   -5.8330    3.4450   -0.9950 C   0  0  0  0  0  0  0  0  0  0  0  0
   -6.9450    4.3360   -0.9640 N   0  0  0  0  0  0  0  0  0  0  0  0
   -4.7720    3.7960   -1.5380 O   0  0  0  0  0  0  0  0  0  0  0  0
  1  2  1  0
  2  3  2  3
  3  4  1  0
  4  5  1  0
  5  6  1  0
  5 25  1  0
  6  7  2  0
  7  8  1  0
  7 24  1  0
  8  9  1  1
  8 10  1  0
 10 11  2  0
 10 16  1  0
 11 12  1  0
 12 13  2  0
 13 14  1  0
 13 15  1  0
 15 16  2  0
 15 23  1  0
 16 17  1  0
 17 18  1  0
 18 19  2  3
 18 22  1  0
 19 20  1  0
 20 21  1  0
 22 23  2  0
 24 25  2  0
 25 26  1  0
 26 27  2  0
 26 28  1  0
 28 29  1  0
 29 30  1  0
 30 31  1  0
 30 32  2  0
M  END
