
     RDKit          3D

 33 34  0  0  0  0  0  0  0  0999 V2000
    4.7710   -1.5730    1.7660 C   0  0  0  0  0  0  0  0  0  0  0  0
    3.8620   -2.7230    1.4980 C   0  0  0  0  0  0  0  0  0  0  0  0
    3.4120   -2.9810    0.2870 C   0  0  0  0  0  0  0  0  0  0  0  0
    3.7890   -2.1420   -0.8590 C   0  0  0  0  0  0  0  0  0  0  0  0
    2.6800   -1.5070   -1.5280 N   0  0  0  0  0  0  0  0  0  0  0  0
    2.0550   -0.4910   -0.6830 C   0  0  0  0  0  0  0  0  0  0  0  0
    0.8960    0.1320   -1.4570 C   0  0  0  0  0  0  0  0  0  0  0  0
    0.2050    1.1510   -0.6960 N   0  0  0  0  0  0  0  0  0  0  0  0
   -0.9160    0.6870    0.0850 C   0  0  0  0  0  0  0  0  0  0  0  0
   -1.5150    1.4960    0.8040 O   0  0  0  0  0  0  0  0  0  0  0  0
   -1.3350   -0.7270    0.0200 C   0  0  0  0  0  0  0  0  0  0  0  0
   -2.5460   -1.0340    0.8940 C   0  0  1  0  0  0  0  0  0  0  0  0
   -2.2450   -0.6990    2.3400 C   0  0  0  0  0  0  0  0  0  0  0  0
   -3.7360   -0.2340    0.4630 C   0  0  0  0  0  0  0  0  0  0  0  0
   -4.9190   -0.8410    1.2430 C   0  0  0  0  0  0  0  0  0  0  0  0
   -5.2130   -2.0200    0.6310 O   0  0  0  0  0  0  0  0  0  0  0  0
   -4.2100   -2.9000    0.4410 C   0  0  1  0  0  0  0  0  0  0  0  0
   -4.2120   -3.2910   -1.0150 C   0  0  0  0  0  0  0  0  0  0  0  0
   -3.2530   -4.2170   -1.5080 N   0  0  0  0  0  0  0  0  0  0  0  0
   -5.0410   -2.8240   -1.8320 O   0  0  0  0  0  0  0  0  0  0  0  0
   -2.8320   -2.5130    0.8090 C   0  0  0  0  0  0  0  0  0  0  0  0
    0.5700    2.5380   -0.6430 C   0  0  1  0  0  0  0  0  0  0  0  0
    1.6770    2.9590   -1.5770 C   0  0  0  0  0  0  0  0  0  0  0  0
    1.4430    2.8200   -2.9650 N   0  0  0  0  0  0  0  0  0  0  0  0
   -0.6170    3.4790   -0.8050 C   0  0  0  0  0  0  0  0  0  0  0  0
   -0.7630    4.4750    0.2930 C   0  0  0  0  0  0  0  0  0  0  0  0
    0.5380    5.2180    0.5520 C   0  0  0  0  0  0  0  0  0  0  0  0
    1.5820    4.2210    0.9250 C   0  0  0  0  0  0  0  0  0  0  0  0
    1.1480    2.7870    0.7600 C   0  0  0  0  0  0  0  0  0  0  0  0
    2.5110   -4.1400    0.0770 C   0  0  1  0  0  0  0  0  0  0  0  0
    3.0690   -5.0230   -0.8290 F   0  0  0  0  0  0  0  0  0  0  0  0
    2.2730   -4.7890    1.2770 F   0  0  0  0  0  0  0  0  0  0  0  0
    1.3140   -3.7130   -0.4140 F   0  0  0  0  0  0  0  0  0  0  0  0
  1  2  1  0
  2  3  2  3
  3  4  1  0
  3 30  1  0
  4  5  1  0
  5  6  1  0
  6  7  1  0
  7  8  1  0
  8  9  1  0
  8 22  1  0
  9 10  2  0
  9 11  1  0
 11 12  1  0
 12 13  1  1
 12 14  1  0
 12 21  1  0
 14 15  1  0
 15 16  1  0
 16 17  1  0
 17 18  1  6
 17 21  1  0
 18 19  1  0
 18 20  2  0
 22 23  1  6
 22 25  1  0
 22 29  1  0
 23 24  1  0
 25 26  1  0
 26 27  1  0
 27 28  1  0
 28 29  1  0
 30 31  1  6
 30 32  1  0
 30 33  1  0
M  CHG  1  24   1
M  END
