
     RDKit          3D

 32 36  0  0  0  0  0  0  0  0999 V2000
    1.2150    1.9810   -1.0810 O   0  0  0  0  0  0  0  0  0  0  0  0
    0.8270    0.8940   -0.4800 C   0  0  0  0  0  0  0  0  0  0  0  0
    1.8250    0.0110   -0.0810 N   0  0  0  0  0  0  0  0  0  0  0  0
    3.2260    0.3190   -0.3290 C   0  0  2  0  0  0  0  0  0  0  0  0
    3.8630   -0.7200   -1.2270 C   0  0  0  0  0  0  0  0  0  0  0  0
    4.8640   -1.5210   -0.3950 C   0  0  0  0  0  0  0  0  0  0  0  0
    5.9740   -0.5460   -0.0300 C   0  0  0  0  0  0  0  0  0  0  0  0
    5.4120    0.5060    0.8970 C   0  0  0  0  0  0  0  0  0  0  0  0
    3.9170    0.4330    1.0050 C   0  0  0  0  0  0  0  0  0  0  0  0
   -0.6240    0.7140   -0.2850 C   0  0  2  0  0  0  0  0  0  0  0  0
   -1.1400    1.0540    1.0690 C   0  0  1  0  0  0  0  0  0  0  0  0
   -0.8200    2.5790    1.2980 C   0  0  0  0  0  0  0  0  0  0  0  0
   -1.9600    3.4250    0.7730 C   0  0  0  0  0  0  0  0  0  0  0  0
   -3.1030    3.2930    1.7670 C   0  0  0  0  0  0  0  0  0  0  0  0
   -3.0420    1.9050    2.3650 C   0  0  0  0  0  0  0  0  0  0  0  0
   -2.6050    0.9450    1.2490 C   0  0  0  0  0  0  0  0  0  0  0  0
   -1.2300   -0.3340   -1.0390 N   0  0  0  0  0  0  0  0  0  0  0  0
   -1.6660   -1.5330   -0.7400 C   0  0  0  0  0  0  0  0  0  0  0  0
   -1.7180   -2.2820    0.5030 C   0  0  0  0  0  0  0  0  0  0  0  0
   -0.9260   -2.1530    1.5970 C   0  0  0  0  0  0  0  0  0  0  0  0
   -1.1180   -2.8740    2.7870 C   0  0  0  0  0  0  0  0  0  0  0  0
   -2.1440   -3.7750    2.9150 C   0  0  0  0  0  0  0  0  0  0  0  0
   -2.3940   -4.6820    4.4000 Cl  0  0  0  0  0  0  0  0  0  0  0  0
   -2.9640   -3.9300    1.8230 C   0  0  0  0  0  0  0  0  0  0  0  0
   -2.7630   -3.2200    0.6720 C   0  0  0  0  0  0  0  0  0  0  0  0
   -2.2200   -2.0970   -1.8960 N   0  0  0  0  0  0  0  0  0  0  0  0
   -2.1210   -1.2460   -2.9000 C   0  0  0  0  0  0  0  0  0  0  0  0
   -2.5110   -1.3210   -4.2400 C   0  0  0  0  0  0  0  0  0  0  0  0
   -2.2730   -0.2590   -5.0700 C   0  0  0  0  0  0  0  0  0  0  0  0
   -1.6600    0.8610   -4.5840 C   0  0  0  0  0  0  0  0  0  0  0  0
   -1.2830    0.9150   -3.2590 C   0  0  0  0  0  0  0  0  0  0  0  0
   -1.5090   -0.1370   -2.4020 C   0  0  0  0  0  0  0  0  0  0  0  0
  1  2  2  0
  2  3  1  0
  2 10  1  0
  4  3  1  1
  4  5  1  0
  4  9  1  0
  5  6  1  0
  6  7  1  0
  7  8  1  0
  8  9  1  0
 10 11  1  0
 10 17  1  1
 11 12  1  6
 11 16  1  0
 12 13  1  0
 13 14  1  0
 14 15  1  0
 15 16  1  0
 17 18  1  0
 17 32  1  0
 18 19  1  0
 18 26  2  0
 19 20  2  0
 19 25  1  0
 20 21  1  0
 21 22  2  0
 22 23  1  0
 22 24  1  0
 24 25  2  0
 26 27  1  0
 27 28  2  0
 27 32  1  0
 28 29  1  0
 29 30  2  0
 30 31  1  0
 31 32  2  0
M  END
