
     RDKit          3D

 33 33  0  0  0  0  0  0  0  0999 V2000
   -4.1830   -4.1990   -1.0860 C   0  0  0  0  0  0  0  0  0  0  0  0
   -3.5080   -2.9010   -0.8890 C   0  0  0  0  0  0  0  0  0  0  0  0
   -2.4100   -2.8190    0.1130 C   0  0  2  0  0  0  0  0  0  0  0  0
   -1.2660   -3.7630   -0.1560 C   0  0  0  0  0  0  0  0  0  0  0  0
   -2.9340   -2.9870    1.5150 C   0  0  0  0  0  0  0  0  0  0  0  0
   -3.6110   -4.2710    1.8150 C   0  0  0  0  0  0  0  0  0  0  0  0
   -1.9070   -1.4280    0.0830 N   0  0  0  0  0  0  0  0  0  0  0  0
   -0.7860   -0.9930    0.8330 C   0  0  0  0  0  0  0  0  0  0  0  0
   -0.2220   -1.8670    1.5380 O   0  0  0  0  0  0  0  0  0  0  0  0
   -0.3270    0.4380    0.7620 C   0  0  1  0  0  0  0  0  0  0  0  0
    0.9470    0.4570   -0.0070 C   0  0  0  0  0  0  0  0  0  0  0  0
    2.0040   -0.3080    0.6760 C   0  0  0  0  0  0  0  0  0  0  0  0
    1.9240   -0.7670    1.8520 O   0  0  0  0  0  0  0  0  0  0  0  0
    3.2080   -0.5560   -0.0270 N   0  0  0  0  0  0  0  0  0  0  0  0
    3.3730   -0.0530   -1.3640 C   0  0  0  0  0  0  0  0  0  0  0  0
    4.7320    0.6410   -1.3860 C   0  0  0  0  0  0  0  0  0  0  0  0
    5.7520   -0.4490   -1.1550 C   0  0  0  0  0  0  0  0  0  0  0  0
    6.9580   -0.4150   -2.0050 C   0  0  0  0  0  0  0  0  0  0  0  0
    5.5110   -1.3550   -0.2250 C   0  0  0  0  0  0  0  0  0  0  0  0
    6.4680   -2.4330    0.0360 C   0  0  2  0  0  0  0  0  0  0  0  0
    6.8660   -2.4650    1.3690 F   0  0  0  0  0  0  0  0  0  0  0  0
    7.6000   -2.3190   -0.7080 F   0  0  0  0  0  0  0  0  0  0  0  0
    5.8490   -3.6480   -0.2330 F   0  0  0  0  0  0  0  0  0  0  0  0
    4.2610   -1.3040    0.5840 C   0  0  0  0  0  0  0  0  0  0  0  0
   -1.3820    1.1760    0.1500 N   0  0  0  0  0  0  0  0  0  0  0  0
   -1.2420    2.6440    0.3010 C   0  0  1  0  0  0  0  0  0  0  0  0
   -2.4680    3.2800   -0.2680 C   0  0  0  0  0  0  0  0  0  0  0  0
   -2.5980    4.7550   -0.2660 C   0  0  1  0  0  0  0  0  0  0  0  0
   -3.9330    5.1370   -0.9880 C   0  0  0  0  0  0  0  0  0  0  0  0
   -2.6920    5.3810    1.1190 C   0  0  0  0  0  0  0  0  0  0  0  0
   -0.9690    3.0160    1.6620 C   0  0  0  0  0  0  0  0  0  0  0  0
   -0.1300    4.1260    2.0110 N   0  0  0  0  0  0  0  0  0  0  0  0
   -1.4370    2.3960    2.6710 O   0  0  0  0  0  0  0  0  0  0  0  0
  1  2  1  0
  2  3  1  0
  3  4  1  6
  3  5  1  0
  3  7  1  0
  5  6  1  0
  7  8  1  0
  8  9  2  0
  8 10  1  0
 10 11  1  6
 10 25  1  0
 11 12  1  0
 12 13  2  0
 12 14  1  0
 14 15  1  0
 14 24  1  0
 15 16  1  0
 16 17  1  0
 17 18  1  0
 17 19  2  0
 19 20  1  0
 19 24  1  0
 20 21  1  1
 20 22  1  0
 20 23  1  0
 25 26  1  0
 26 27  1  1
 26 31  1  0
 27 28  1  0
 28 29  1  6
 28 30  1  0
 31 32  1  0
 31 33  2  0
M  CHG  1  25   1
M  END
