
     RDKit          3D

 26 28  0  0  0  0  0  0  0  0999 V2000
   -4.3000   -1.7920    2.3430 C   0  0  0  0  0  0  0  0  0  0  0  0
   -3.9710   -1.6920    0.9120 C   0  0  0  0  0  0  0  0  0  0  0  0
   -4.6380   -2.7390    0.0320 C   0  0  0  0  0  0  0  0  0  0  0  0
   -3.1950   -0.8580    0.3050 C   0  0  0  0  0  0  0  0  0  0  0  0
   -2.9370   -0.8580   -1.2200 C   0  0  0  0  0  0  0  0  0  0  0  0
   -3.0980    0.6350   -1.4040 C   0  0  2  0  0  0  0  0  0  0  0  0
   -4.5340    1.0410   -1.3140 C   0  0  0  0  0  0  0  0  0  0  0  0
   -2.3990    1.1820   -2.6280 C   0  0  0  0  0  0  0  0  0  0  0  0
   -1.8290    2.4590   -2.0690 C   0  0  0  0  0  0  0  0  0  0  0  0
   -1.7740    2.4290   -0.7450 C   0  0  0  0  0  0  0  0  0  0  0  0
   -2.2900    1.1550   -0.2620 C   0  0  0  0  0  0  0  0  0  0  0  0
   -2.3640    0.2450    0.7290 C   0  0  0  0  0  0  0  0  0  0  0  0
   -1.5180    0.4740    2.2080 S   0  0  2  0  0  0  0  0  0  0  0  0
   -2.1660   -0.1020    3.4010 O   0  0  0  0  0  0  0  0  0  0  0  0
   -1.3500    1.9560    2.4840 O   0  0  0  0  0  0  0  0  0  0  0  0
    0.0910   -0.2120    2.1440 N   0  0  0  0  0  0  0  0  0  0  0  0
    0.8480    0.4740    1.0870 C   0  0  0  0  0  0  0  0  0  0  0  0
    2.2380   -0.0780    0.9900 C   0  0  0  0  0  0  0  0  0  0  0  0
    2.9930    0.6430   -0.1020 C   0  0  2  0  0  0  0  0  0  0  0  0
    2.3810    0.4940   -1.3300 O   0  0  0  0  0  0  0  0  0  0  0  0
    4.4140    0.0920   -0.2080 C   0  0  2  0  0  0  0  0  0  0  0  0
    5.0680    0.2620    1.1640 C   0  0  0  0  0  0  0  0  0  0  0  0
    5.2330    0.8430   -1.2000 C   0  0  0  0  0  0  0  0  0  0  0  0
    5.3330   -0.1320   -2.3540 C   0  0  0  0  0  0  0  0  0  0  0  0
    5.1770   -1.4530   -1.6360 C   0  0  0  0  0  0  0  0  0  0  0  0
    4.3550   -1.2260   -0.5520 O   0  0  0  0  0  0  0  0  0  0  0  0
  1  2  1  0
  2  3  1  0
  2  4  2  3
  4  5  1  0
  4 12  1  0
  5  6  1  0
  6  7  1  1
  6  8  1  0
  6 11  1  0
  8  9  1  0
  9 10  2  0
 10 11  1  0
 11 12  2  0
 12 13  1  0
 13 14  2  0
 13 15  2  0
 13 16  1  6
 16 17  1  0
 17 18  1  0
 18 19  1  0
 19 20  1  6
 19 21  1  0
 21 22  1  1
 21 23  1  0
 21 26  1  0
 23 24  1  0
 24 25  1  0
 25 26  1  0
M  END
