
     RDKit          3D

 26 29  0  0  0  0  0  0  0  0999 V2000
    4.3300   -2.9130   -0.8130 C   0  0  0  0  0  0  0  0  0  0  0  0
    3.5060   -2.3890    0.3220 C   0  0  0  0  0  0  0  0  0  0  0  0
    2.6850   -1.2040   -0.0620 C   0  0  0  0  0  0  0  0  0  0  0  0
    1.3170   -1.3200   -0.2850 C   0  0  0  0  0  0  0  0  0  0  0  0
    0.5540   -0.2290   -0.6400 C   0  0  0  0  0  0  0  0  0  0  0  0
    1.1340    1.0200   -0.7840 C   0  0  0  0  0  0  0  0  0  0  0  0
    2.4780    1.1550   -0.5700 C   0  0  0  0  0  0  0  0  0  0  0  0
    3.2340    0.0510   -0.2140 C   0  0  0  0  0  0  0  0  0  0  0  0
    4.6040    0.2340   -0.0050 O   0  0  0  0  0  0  0  0  0  0  0  0
    5.2130    0.6290    1.5380 S   0  0  2  0  0  0  0  0  0  0  0  0
    5.8710    2.2280    1.5660 N   0  0  0  0  0  0  0  0  0  0  0  0
    6.2550   -0.3700    1.9200 O   0  0  0  0  0  0  0  0  0  0  0  0
    4.0740    0.5940    2.5150 O   0  0  0  0  0  0  0  0  0  0  0  0
    0.3550    2.2200   -1.1620 C   0  0  0  0  0  0  0  0  0  0  0  0
   -1.0590    2.1830   -0.7240 C   0  0  0  0  0  0  0  0  0  0  0  0
   -1.5050    0.8800   -0.1090 C   0  0  2  0  0  0  0  0  0  0  0  0
   -0.9130   -0.2860   -0.8920 C   0  0  2  0  0  0  0  0  0  0  0  0
   -1.4880   -1.5970   -0.4620 C   0  0  0  0  0  0  0  0  0  0  0  0
   -2.9990   -1.5760   -0.6750 C   0  0  0  0  0  0  0  0  0  0  0  0
   -3.5400   -0.5410    0.2650 C   0  0  2  0  0  0  0  0  0  0  0  0
   -3.2330   -0.7960    1.6950 C   0  0  0  0  0  0  0  0  0  0  0  0
   -4.9800   -0.2650    0.1080 C   0  0  0  0  0  0  0  0  0  0  0  0
   -5.8530   -1.0160   -0.2620 O   0  0  0  0  0  0  0  0  0  0  0  0
   -5.1750    1.1560    0.4990 C   0  0  0  0  0  0  0  0  0  0  0  0
   -3.7580    1.7340    0.6370 C   0  0  0  0  0  0  0  0  0  0  0  0
   -2.9780    0.8010   -0.2190 C   0  0  1  0  0  0  0  0  0  0  0  0
  1  2  1  0
  2  3  1  0
  3  4  2  0
  3  8  1  0
  4  5  1  0
  5  6  2  0
  5 17  1  0
  6  7  1  0
  6 14  1  0
  7  8  2  0
  8  9  1  0
  9 10  1  0
 10 11  1  6
 10 12  2  0
 10 13  2  0
 14 15  1  0
 16 15  1  6
 16 17  1  0
 16 26  1  0
 17 18  1  1
 18 19  1  0
 19 20  1  0
 20 21  1  1
 20 22  1  0
 20 26  1  0
 22 23  2  0
 22 24  1  0
 24 25  1  0
 26 25  1  1
M  END
