
     RDKit          3D

 26 28  0  0  0  0  0  0  0  0999 V2000
   -2.1810    3.5940   -1.1360 C   0  0  0  0  0  0  0  0  0  0  0  0
   -1.6100    2.7660   -0.2410 C   0  0  0  0  0  0  0  0  0  0  0  0
   -2.3090    1.4630   -0.1640 C   0  0  0  0  0  0  0  0  0  0  0  0
   -2.0020    0.4860   -1.2390 C   0  0  0  0  0  0  0  0  0  0  0  0
   -2.8810   -0.7380   -1.0150 C   0  0  0  0  0  0  0  0  0  0  0  0
   -2.5990   -1.3960    0.3260 C   0  0  1  0  0  0  0  0  0  0  0  0
   -3.3970   -2.5490    0.3500 O   0  0  0  0  0  0  0  0  0  0  0  0
   -2.7450   -3.4970    1.0890 C   0  0  0  0  0  0  0  0  0  0  0  0
   -1.2860   -3.2000    1.0680 C   0  0  0  0  0  0  0  0  0  0  0  0
   -1.1880   -1.8040    0.4540 C   0  0  2  0  0  0  0  0  0  0  0  0
   -0.3180   -0.9280    1.2730 C   0  0  0  0  0  0  0  0  0  0  0  0
   -0.8410   -0.5080    2.3670 O   0  0  0  0  0  0  0  0  0  0  0  0
    1.0090   -0.5320    0.9590 N   0  0  0  0  0  0  0  0  0  0  0  0
    1.5860    0.2570   -0.0530 C   0  0  0  0  0  0  0  0  0  0  0  0
    2.4330   -0.4630   -1.0540 C   0  0  0  0  0  0  0  0  0  0  0  0
    2.5710   -1.7500   -1.0070 C   0  0  0  0  0  0  0  0  0  0  0  0
    3.5490   -2.6500   -2.1520 S   0  0  1  0  0  0  0  0  0  0  0  0
    5.1770   -2.8720   -1.4500 C   0  0  0  0  0  0  0  0  0  0  0  0
    2.9670   -4.0120   -2.4010 O   0  0  0  0  0  0  0  0  0  0  0  0
    3.6440   -1.9100   -3.4520 O   0  0  0  0  0  0  0  0  0  0  0  0
    1.5130    1.5880   -0.1740 C   0  0  0  0  0  0  0  0  0  0  0  0
    0.9120    2.6800    0.5510 C   0  0  0  0  0  0  0  0  0  0  0  0
    1.6100    3.5250    1.3750 C   0  0  0  0  0  0  0  0  0  0  0  0
    0.7600    4.5170    1.9690 C   0  0  0  0  0  0  0  0  0  0  0  0
   -0.5220    4.3170    1.3210 C   0  0  0  0  0  0  0  0  0  0  0  0
   -0.4440    3.2240    0.5440 C   0  0  0  0  0  0  0  0  0  0  0  0
  1  2  2  0
  2  3  1  0
  2 26  1  0
  3  4  1  0
  4  5  1  0
  6  5  1  6
  6  7  1  0
  6 10  1  0
  7  8  1  0
  8  9  1  0
 10  9  1  1
 10 11  1  0
 11 12  2  0
 11 13  1  0
 13 14  1  0
 14 15  1  0
 14 21  2  0
 15 16  2  3
 16 17  1  0
 17 18  1  1
 17 19  2  0
 17 20  2  0
 21 22  1  0
 22 23  2  0
 22 26  1  0
 23 24  1  0
 24 25  1  0
 25 26  2  0
M  END
