
     RDKit          3D

 26 28  0  0  0  0  0  0  0  0999 V2000
   -5.3250   -0.3400   -2.4880 C   0  0  0  0  0  0  0  0  0  0  0  0
   -4.0090    0.1140   -2.2530 O   0  0  0  0  0  0  0  0  0  0  0  0
   -3.5380   -0.0940   -0.9060 C   0  0  0  0  0  0  0  0  0  0  0  0
   -3.1800   -1.3400   -0.6620 C   0  0  0  0  0  0  0  0  0  0  0  0
   -2.6630   -2.0110    0.4780 C   0  0  0  0  0  0  0  0  0  0  0  0
   -1.4760   -2.4050    0.8900 C   0  0  0  0  0  0  0  0  0  0  0  0
    0.0710   -2.2430    0.1080 S   0  0  1  0  0  0  0  0  0  0  0  0
    0.5820   -3.6630   -0.0750 O   0  0  0  0  0  0  0  0  0  0  0  0
    0.0220   -1.6390   -1.2440 O   0  0  0  0  0  0  0  0  0  0  0  0
    1.1510   -1.2730    1.1380 C   0  0  1  0  0  0  0  0  0  0  0  0
    2.1950   -2.3270    1.6370 C   0  0  0  0  0  0  0  0  0  0  0  0
    3.0940   -2.3280    0.4030 C   0  0  0  0  0  0  0  0  0  0  0  0
    3.0880   -0.8980    0.0280 C   0  0  0  0  0  0  0  0  0  0  0  0
    1.9820   -0.3110    0.4520 C   0  0  0  0  0  0  0  0  0  0  0  0
    1.9550    1.0660    0.1220 C   0  0  0  0  0  0  0  0  0  0  0  0
    3.1080    1.3270   -0.5450 C   0  0  0  0  0  0  0  0  0  0  0  0
    3.5970    2.6000   -1.1170 C   0  0  0  0  0  0  0  0  0  0  0  0
    3.9230    0.1030   -0.6680 C   0  0  2  0  0  0  0  0  0  0  0  0
    4.1750   -0.2690   -2.1120 C   0  0  0  0  0  0  0  0  0  0  0  0
    0.9490    2.0700    0.4350 C   0  0  0  0  0  0  0  0  0  0  0  0
    1.0910    3.2920    0.0290 O   0  0  0  0  0  0  0  0  0  0  0  0
   -0.2390    1.8800    1.1740 N   0  0  0  0  0  0  0  0  0  0  0  0
   -1.3010    0.9400    0.9160 C   0  0  0  0  0  0  0  0  0  0  0  0
   -2.6360    1.5870    0.7030 C   0  0  0  0  0  0  0  0  0  0  0  0
   -2.8120    2.8590    1.4980 C   0  0  0  0  0  0  0  0  0  0  0  0
   -3.5570    1.0950   -0.0940 C   0  0  0  0  0  0  0  0  0  0  0  0
  1  2  1  0
  2  3  1  0
  3  4  2  0
  3 26  1  0
  4  5  1  0
  5  6  2  0
  7  6  1  1
  7  8  2  0
  7  9  2  0
  7 10  1  0
 10 11  1  6
 10 14  1  0
 11 12  1  0
 12 13  1  0
 13 14  2  0
 13 18  1  0
 14 15  1  0
 15 16  2  0
 15 20  1  0
 16 17  1  0
 16 18  1  0
 18 19  1  6
 20 21  2  0
 20 22  1  0
 22 23  1  0
 23 24  1  0
 24 25  1  0
 24 26  2  0
M  END
