
     RDKit          3D

 26 29  0  0  0  0  0  0  0  0999 V2000
    4.0530    2.8580   -1.0600 C   0  0  0  0  0  0  0  0  0  0  0  0
    2.8270    2.3660   -1.7470 C   0  0  0  0  0  0  0  0  0  0  0  0
    2.0140    1.5570   -1.0080 O   0  0  0  0  0  0  0  0  0  0  0  0
    2.1650    0.3740   -0.3690 C   0  0  0  0  0  0  0  0  0  0  0  0
    3.3740   -0.2590   -0.3800 C   0  0  0  0  0  0  0  0  0  0  0  0
    3.5040   -1.4840    0.2760 C   0  0  0  0  0  0  0  0  0  0  0  0
    2.4230   -2.0350    0.9260 C   0  0  0  0  0  0  0  0  0  0  0  0
    1.1940   -1.3520    0.9180 C   0  0  0  0  0  0  0  0  0  0  0  0
    1.0260   -0.1680    0.2920 C   0  0  0  0  0  0  0  0  0  0  0  0
   -0.1490    0.6980    0.3220 C   0  0  1  0  0  0  0  0  0  0  0  0
    0.1610    1.9530   -0.2680 O   0  0  0  0  0  0  0  0  0  0  0  0
   -1.4530    0.1620   -0.1690 C   0  0  2  0  0  0  0  0  0  0  0  0
   -2.3210    1.4980   -0.2340 C   0  0  0  0  0  0  0  0  0  0  0  0
   -2.6940    1.9730    1.1180 C   0  0  0  0  0  0  0  0  0  0  0  0
   -4.2200    1.7780    1.2140 C   0  0  0  0  0  0  0  0  0  0  0  0
   -4.3760    0.2970    1.5220 C   0  0  0  0  0  0  0  0  0  0  0  0
   -3.7590   -0.5530    0.4650 C   0  0  0  0  0  0  0  0  0  0  0  0
   -2.2470   -0.7500    0.6210 C   0  0  1  0  0  0  0  0  0  0  0  0
   -1.9360   -2.5230    0.1400 S   0  0  0  0  0  0  0  0  0  0  0  0
   -2.1640   -2.5530   -1.6510 C   0  0  0  0  0  0  0  0  0  0  0  0
   -1.4260   -1.3910   -2.2000 C   0  0  0  0  0  0  0  0  0  0  0  0
   -0.8380   -1.5930   -3.3040 O   0  0  0  0  0  0  0  0  0  0  0  0
   -1.3370   -0.1380   -1.6050 N   0  0  0  0  0  0  0  0  0  0  0  0
    2.8910   -3.2980    1.5530 C   0  0  0  0  0  0  0  0  0  0  0  0
    4.2930   -3.1870    1.5500 O   0  0  0  0  0  0  0  0  0  0  0  0
    4.6310   -2.4330    0.4310 C   0  0  0  0  0  0  0  0  0  0  0  0
  1  2  1  0
  2  3  1  0
  3  4  1  0
  4  5  2  0
  4  9  1  0
  5  6  1  0
  6  7  2  0
  6 26  1  0
  7  8  1  0
  7 24  1  0
  8  9  2  0
  9 10  1  0
 10 11  1  6
 10 12  1  0
 12 13  1  6
 12 18  1  0
 12 23  1  0
 13 14  1  0
 14 15  1  0
 15 16  1  0
 16 17  1  0
 18 17  1  6
 18 19  1  0
 19 20  1  0
 20 21  1  0
 21 22  2  0
 21 23  1  0
 24 25  1  0
 25 26  1  0
M  END
