
     RDKit          3D

 11 11  0  0  0  0  0  0  0  0999 V2000
    2.7450   -0.2210    0.9340 O   0  0  0  0  0  0  0  0  0  0  0  0
    1.7880   -0.6570    0.0320 C   0  0  0  0  0  0  0  0  0  0  0  0
    0.7050    0.3400   -0.2320 C   0  0  1  0  0  0  0  0  0  0  0  0
    1.3070    1.4900   -0.7530 O   0  0  0  0  0  0  0  0  0  0  0  0
   -0.2420   -0.2670   -1.2480 C   0  0  0  0  0  0  0  0  0  0  0  0
   -1.6210   -0.4020   -0.6950 C   0  0  1  0  0  0  0  0  0  0  0  0
   -1.7940   -1.4780    0.1520 O   0  0  0  0  0  0  0  0  0  0  0  0
   -2.0330    0.9040   -0.0900 C   0  0  0  0  0  0  0  0  0  0  0  0
   -1.1630    1.4360    0.8050 O   0  0  0  0  0  0  0  0  0  0  0  0
   -0.0120    0.7380    1.0340 C   0  0  1  0  0  0  0  0  0  0  0  0
   -0.1790   -0.3470    1.9010 O   0  0  0  0  0  0  0  0  0  0  0  0
  1  2  1  0
  2  3  1  0
  3  4  1  6
  3  5  1  0
  3 10  1  0
  5  6  1  0
  6  7  1  1
  6  8  1  0
  8  9  1  0
  9 10  1  0
 10 11  1  6
M  END
