
     RDKit          3D

 11 11  0  0  0  0  0  0  0  0999 V2000
    2.9140   -0.4610    0.5470 O   0  0  0  0  0  0  0  0  0  0  0  0
    2.0770    0.5220    0.0450 C   0  0  0  0  0  0  0  0  0  0  0  0
    0.6940   -0.0160   -0.2010 C   0  0  2  0  0  0  0  0  0  0  0  0
    0.7680   -1.0580   -1.1240 O   0  0  0  0  0  0  0  0  0  0  0  0
   -0.2470    1.0520   -0.7080 C   0  0  0  0  0  0  0  0  0  0  0  0
   -1.5410    0.2940   -1.0350 C   0  0  0  0  0  0  0  0  0  0  0  0
   -2.0340   -0.1880    0.3350 C   0  0  1  0  0  0  0  0  0  0  0  0
   -3.2450   -0.8840    0.1450 O   0  0  0  0  0  0  0  0  0  0  0  0
   -1.1620   -1.0250    0.9520 O   0  0  0  0  0  0  0  0  0  0  0  0
    0.1260   -0.6000    1.0740 C   0  0  2  0  0  0  0  0  0  0  0  0
    0.3270    0.2410    2.1730 O   0  0  0  0  0  0  0  0  0  0  0  0
  1  2  1  0
  2  3  1  0
  3  4  1  6
  3  5  1  0
  3 10  1  0
  5  6  1  0
  6  7  1  0
  7  8  1  6
  7  9  1  0
  9 10  1  0
 10 11  1  1
M  END
