
     RDKit          3D

 11 11  0  0  0  0  0  0  0  0999 V2000
   -2.7420    1.0790    0.4020 O   0  0  0  0  0  0  0  0  0  0  0  0
   -2.1650   -0.1600    0.5680 C   0  0  0  0  0  0  0  0  0  0  0  0
   -0.6840   -0.1830    0.4110 C   0  0  2  0  0  0  0  0  0  0  0  0
   -0.2390   -1.4830    0.6030 O   0  0  0  0  0  0  0  0  0  0  0  0
    0.0210    0.6950    1.4060 C   0  0  0  0  0  0  0  0  0  0  0  0
    1.3530    0.7850    1.2170 O   0  0  0  0  0  0  0  0  0  0  0  0
    1.9430    0.0350    0.2680 C   0  0  2  0  0  0  0  0  0  0  0  0
    3.1940    0.6330   -0.0200 O   0  0  0  0  0  0  0  0  0  0  0  0
    1.2380   -0.1280   -1.0250 C   0  0  0  0  0  0  0  0  0  0  0  0
   -0.2300    0.2890   -0.9530 C   0  0  1  0  0  0  0  0  0  0  0  0
   -0.9730   -0.2090   -1.9850 O   0  0  0  0  0  0  0  0  0  0  0  0
  1  2  1  0
  2  3  1  0
  3  4  1  1
  3  5  1  0
  3 10  1  0
  5  6  1  0
  6  7  1  0
  7  8  1  6
  7  9  1  0
  9 10  1  0
 10 11  1  6
M  END
