
     RDKit          3D

 11 11  0  0  0  0  0  0  0  0999 V2000
    2.9860   -0.0610   -0.8450 O   0  0  0  0  0  0  0  0  0  0  0  0
    2.0850   -0.8760   -0.1870 C   0  0  0  0  0  0  0  0  0  0  0  0
    0.8460   -0.0960    0.2350 C   0  0  2  0  0  0  0  0  0  0  0  0
    1.3090    0.9210    1.0900 O   0  0  0  0  0  0  0  0  0  0  0  0
   -0.1360   -1.0000    0.9090 C   0  0  0  0  0  0  0  0  0  0  0  0
   -1.4450   -1.0340    0.1140 C   0  0  2  0  0  0  0  0  0  0  0  0
   -1.0940   -1.3970   -1.1970 O   0  0  0  0  0  0  0  0  0  0  0  0
   -1.9720    0.3840    0.0720 C   0  0  0  0  0  0  0  0  0  0  0  0
   -0.8180    1.2870   -0.3220 C   0  0  2  0  0  0  0  0  0  0  0  0
   -1.1910    2.2770   -1.2000 O   0  0  0  0  0  0  0  0  0  0  0  0
    0.2460    0.5320   -0.8430 O   0  0  0  0  0  0  0  0  0  0  0  0
  1  2  1  0
  2  3  1  0
  3  4  1  1
  3  5  1  0
  3 11  1  0
  5  6  1  0
  6  7  1  6
  6  8  1  0
  8  9  1  0
  9 10  1  6
  9 11  1  0
M  END
