
     RDKit          3D

 11 11  0  0  0  0  0  0  0  0999 V2000
    1.0700   -2.0860   -0.0450 O   0  0  0  0  0  0  0  0  0  0  0  0
    1.6230   -0.8850    0.3610 C   0  0  1  0  0  0  0  0  0  0  0  0
    2.7660   -0.6610   -0.4040 O   0  0  0  0  0  0  0  0  0  0  0  0
    0.6660    0.2700    0.1830 C   0  0  1  0  0  0  0  0  0  0  0  0
    1.3140    1.4280    0.6180 O   0  0  0  0  0  0  0  0  0  0  0  0
    0.2970    0.3780   -1.2660 C   0  0  0  0  0  0  0  0  0  0  0  0
   -1.1990    0.1480   -1.2960 C   0  0  0  0  0  0  0  0  0  0  0  0
   -1.6230    0.7640    0.0390 C   0  0  1  0  0  0  0  0  0  0  0  0
   -2.9130    0.4300    0.3830 O   0  0  0  0  0  0  0  0  0  0  0  0
   -0.5900    0.1180    0.9690 C   0  0  1  0  0  0  0  0  0  0  0  0
   -0.9200   -1.1910    1.2520 O   0  0  0  0  0  0  0  0  0  0  0  0
  2  1  1  6
  2  3  1  0
  2  4  1  0
  4  5  1  1
  4  6  1  0
  4 10  1  0
  6  7  1  0
  7  8  1  0
  8  9  1  1
  8 10  1  0
 10 11  1  6
M  END
