
     RDKit          3D

 15 14  0  0  0  0  0  0  0  0999 V2000
    4.2690   -0.5090    1.0320 C   0  0  0  0  0  0  0  0  0  0  0  0
    2.8340   -0.0310    0.8590 C   0  0  0  0  0  0  0  0  0  0  0  0
    2.2490   -0.5540   -0.3690 N   0  0  2  0  0  0  0  0  0  0  0  0
    3.0400   -1.6010   -0.7390 O   0  0  0  0  0  0  0  0  0  0  0  0
    2.3130    0.6540   -1.6200 S   0  0  0  0  0  0  0  0  0  0  0  0
    3.8790    1.5800   -1.4870 C   0  0  0  0  0  0  0  0  0  0  0  0
    0.6760   -1.1230   -0.1190 S   0  0  2  0  0  0  0  0  0  0  0  0
    0.4920   -2.1010    0.9680 O   0  0  0  0  0  0  0  0  0  0  0  0
    0.2020   -1.7370   -1.3670 O   0  0  0  0  0  0  0  0  0  0  0  0
   -0.2510    0.5330    0.6420 S   0  0  0  0  0  0  0  0  0  0  0  0
   -1.8070    1.2200   -0.4270 S   0  0  0  0  0  0  0  0  0  0  0  0
   -3.3280    0.3040   -0.0600 C   0  0  2  0  0  0  0  0  0  0  0  0
   -3.5080   -0.8480   -1.0350 C   0  0  0  0  0  0  0  0  0  0  0  0
   -4.5540    1.1630   -0.0770 C   0  0  0  0  0  0  0  0  0  0  0  0
   -3.1860   -0.3210    1.3200 C   0  0  0  0  0  0  0  0  0  0  0  0
  1  2  1  0
  2  3  1  0
  3  4  1  6
  3  5  1  0
  3  7  1  0
  5  6  1  0
  7  8  2  0
  7  9  2  0
  7 10  1  1
 10 11  1  0
 11 12  1  0
 12 13  1  6
 12 14  1  0
 12 15  1  0
M  CHG  2   3   1   4  -1
M  END
