
     RDKit          3D

 14 13  0  0  0  0  0  0  0  0999 V2000
   -4.0150    1.1580    0.1560 C   0  0  0  0  0  0  0  0  0  0  0  0
   -2.7330    0.3530   -0.0250 C   0  0  0  0  0  0  0  0  0  0  0  0
   -3.0590   -0.7930   -0.8800 C   0  0  0  0  0  0  0  0  0  0  0  0
   -4.2180   -1.0150   -1.2780 O   0  0  0  0  0  0  0  0  0  0  0  0
   -2.0510   -1.7550   -1.3370 C   0  0  0  0  0  0  0  0  0  0  0  0
   -0.7780   -1.6450   -0.7790 O   0  0  0  0  0  0  0  0  0  0  0  0
   -0.4040   -1.8960    0.5230 C   0  0  0  0  0  0  0  0  0  0  0  0
   -1.2850   -2.2860    1.3300 O   0  0  0  0  0  0  0  0  0  0  0  0
    1.2850   -1.6840    1.0910 S   0  0  0  0  0  0  0  0  0  0  0  0
    2.4580   -1.0240   -0.5380 S   0  0  0  0  0  0  0  0  0  0  0  0
    2.4510    0.6750   -0.5880 O   0  0  0  0  0  0  0  0  0  0  0  0
    3.0720    1.3930    0.8210 S   0  0  0  0  0  0  0  0  0  0  0  0
    4.9970    0.6470    1.3210 S   0  0  0  0  0  0  0  0  0  0  0  0
    6.2970    1.6370    0.5380 C   0  0  0  0  0  0  0  0  0  0  0  0
  1  2  1  0
  2  3  1  0
  3  4  2  0
  3  5  1  0
  5  6  1  0
  6  7  1  0
  7  8  2  0
  7  9  1  0
  9 10  1  0
 10 11  1  0
 11 12  1  0
 12 13  1  0
 13 14  1  0
M  END
