
     RDKit          3D

 10  9  0  0  0  0  0  0  0  0999 V2000
    2.5700   -1.1640    0.4730 O   0  0  0  0  0  0  0  0  0  0  0  0
    2.2960   -0.0030    0.0680 C   0  0  0  0  0  0  0  0  0  0  0  0
    3.3160    0.9270    0.0330 O   0  0  0  0  0  0  0  0  0  0  0  0
    0.9530    0.4220   -0.3720 C   0  0  0  0  0  0  0  0  0  0  0  0
    0.0000   -0.7500   -0.2480 C   0  0  0  0  0  0  0  0  0  0  0  0
   -1.3720   -0.3580   -0.6870 C   0  0  0  0  0  0  0  0  0  0  0  0
   -1.6490   -0.3260   -1.9300 O   0  0  0  0  0  0  0  0  0  0  0  0
   -2.4010   -0.0110    0.2590 C   0  0  0  0  0  0  0  0  0  0  0  0
   -2.1510   -0.0350    1.4760 O   0  0  0  0  0  0  0  0  0  0  0  0
   -3.6530    0.3460   -0.1700 O   0  0  0  0  0  0  0  0  0  0  0  0
  1  2  2  0
  2  3  1  0
  2  4  1  0
  4  5  1  0
  5  6  1  0
  6  7  2  0
  6  8  1  0
  8  9  2  0
  8 10  1  0
M  END
