
     RDKit          3D

 15 14  0  0  0  0  0  0  0  0999 V2000
   -4.7010   -0.2500   -1.6520 O   0  0  0  0  0  0  0  0  0  0  0  0
   -4.2700   -0.9760   -0.7230 C   0  0  0  0  0  0  0  0  0  0  0  0
   -5.1900   -1.7410   -0.0290 O   0  0  0  0  0  0  0  0  0  0  0  0
   -2.8120   -1.0010   -0.3880 C   0  0  0  0  0  0  0  0  0  0  0  0
   -2.0400   -0.0760   -1.3100 C   0  0  0  0  0  0  0  0  0  0  0  0
   -0.2930   -0.0860   -0.9270 S   0  0  0  0  0  0  0  0  0  0  0  0
   -0.0420    0.6510    0.6910 C   0  0  0  0  0  0  0  0  0  0  0  0
   -1.4320    1.2560    1.6200 S   0  0  0  0  0  0  0  0  0  0  0  0
    1.1370    0.7540    1.1990 N   0  0  0  0  0  0  0  0  0  0  0  0
    1.3610    1.4670    2.7580 S   0  0  0  0  0  0  0  0  0  0  0  0
    2.2820    0.2810    0.4860 C   0  0  0  0  0  0  0  0  0  0  0  0
    3.0170   -0.7720    1.2250 C   0  0  0  0  0  0  0  0  0  0  0  0
    2.6340   -1.1680    2.3380 O   0  0  0  0  0  0  0  0  0  0  0  0
    4.4790   -1.4720    0.4900 S   0  0  0  0  0  0  0  0  0  0  0  0
    4.8110   -0.5340   -1.3860 S   0  0  0  0  0  0  0  0  0  0  0  0
  1  2  2  0
  2  3  1  0
  2  4  1  0
  4  5  1  0
  5  6  1  0
  6  7  1  0
  7  8  1  0
  7  9  2  3
  9 10  1  0
  9 11  1  0
 11 12  1  0
 12 13  2  0
 12 14  1  0
 14 15  1  0
M  CHG  2   3  -1   9   1
M  END
