
     RDKit          3D

 15 14  0  0  0  0  0  0  0  0999 V2000
    7.2450    0.2990    0.7830 C   0  0  0  0  0  0  0  0  0  0  0  0
    6.6150    2.0100    0.8600 S   0  0  0  0  0  0  0  0  0  0  0  0
    4.7900    2.0670   -0.2390 S   0  0  0  0  0  0  0  0  0  0  0  0
    3.1260    1.6480    0.9940 S   0  0  0  0  0  0  0  0  0  0  0  0
    2.7620   -0.1070    1.0390 C   0  0  0  0  0  0  0  0  0  0  0  0
    2.2020   -0.7440   -0.5640 S   0  0  0  0  0  0  0  0  0  0  0  0
    0.3320    0.0690   -1.1250 S   0  0  0  0  0  0  0  0  0  0  0  0
   -0.9940   -0.9240   -0.5290 O   0  0  0  0  0  0  0  0  0  0  0  0
   -2.2260   -0.3380   -0.2920 C   0  0  0  0  0  0  0  0  0  0  0  0
   -2.3390    0.8930   -0.5180 O   0  0  0  0  0  0  0  0  0  0  0  0
   -3.4120   -1.0740    0.2100 C   0  0  0  0  0  0  0  0  0  0  0  0
   -4.6120   -0.1850    0.3200 C   0  0  0  0  0  0  0  0  0  0  0  0
   -5.0640    0.4070   -0.9410 C   0  0  0  0  0  0  0  0  0  0  0  0
   -4.5620    0.0140   -2.0490 N   0  0  0  0  0  0  0  0  0  0  0  0
   -6.0440    1.3950   -0.9220 O   0  0  0  0  0  0  0  0  0  0  0  0
  1  2  1  0
  2  3  1  0
  3  4  1  0
  4  5  1  0
  5  6  1  0
  6  7  1  0
  7  8  1  0
  8  9  1  0
  9 10  2  0
  9 11  1  0
 11 12  1  0
 12 13  1  0
 13 14  2  0
 13 15  1  0
M  CHG  2  14   1  15  -1
M  END
