
     RDKit          3D

 15 14  0  0  0  0  0  0  0  0999 V2000
   -2.9440    0.4590   -0.6490 C   0  0  0  0  0  0  0  0  0  0  0  0
   -1.5520    0.0340   -0.4260 C   0  0  0  0  0  0  0  0  0  0  0  0
   -1.0700   -0.1990    0.7650 C   0  0  0  0  0  0  0  0  0  0  0  0
    0.6530   -0.7140    0.9060 S   0  0  0  0  0  0  0  0  0  0  0  0
    1.3540   -0.7940   -0.7040 N   0  0  0  0  0  0  0  0  0  0  0  0
    2.4360   -0.1340   -0.9200 C   0  0  0  0  0  0  0  0  0  0  0  0
    3.2280    0.8340    0.3290 S   0  0  0  0  0  0  0  0  0  0  0  0
    2.2170    0.7860    2.1790 S   0  0  0  0  0  0  0  0  0  0  0  0
    2.7670   -0.5040    3.1790 O   0  0  0  0  0  0  0  0  0  0  0  0
    3.0150   -0.2020   -2.2570 C   0  0  0  0  0  0  0  0  0  0  0  0
    4.1780    0.4890   -2.5410 O   0  0  0  0  0  0  0  0  0  0  0  0
    2.3120   -1.0920   -3.4550 S   0  0  0  0  0  0  0  0  0  0  0  0
   -1.9000   -0.0470    1.9280 C   0  0  0  0  0  0  0  0  0  0  0  0
   -3.2070    0.3430    1.8290 O   0  0  0  0  0  0  0  0  0  0  0  0
   -1.2480   -0.3510    3.3900 S   0  0  0  0  0  0  0  0  0  0  0  0
  1  2  1  0
  2  3  2  3
  3  4  1  0
  3 13  1  0
  4  5  1  0
  5  6  2  3
  6  7  1  0
  6 10  1  0
  7  8  1  0
  8  9  1  0
 10 11  1  0
 10 12  2  0
 13 14  1  0
 13 15  2  0
M  CHG  1   9  -1
M  END
