
     RDKit          3D

 15 14  0  0  0  0  0  0  0  0999 V2000
    6.4240    1.3150    0.1280 C   0  0  0  0  0  0  0  0  0  0  0  0
    5.6740   -0.0220   -0.2070 C   0  0  0  0  0  0  0  0  0  0  0  0
    4.3830    0.3840   -0.5830 O   0  0  0  0  0  0  0  0  0  0  0  0
    3.1780   -0.0700    0.3870 S   0  0  0  0  0  0  0  0  0  0  0  0
    2.3300   -1.9040    0.5560 S   0  0  0  0  0  0  0  0  0  0  0  0
    0.6720   -2.1420   -0.7870 S   0  0  0  0  0  0  0  0  0  0  0  0
   -0.8220   -1.4980    0.0230 C   0  0  0  0  0  0  0  0  0  0  0  0
   -0.8000   -0.7300    0.9320 O   0  0  0  0  0  0  0  0  0  0  0  0
   -2.0640   -2.0590   -0.6180 C   0  0  0  0  0  0  0  0  0  0  0  0
   -3.5840   -1.5680    0.2190 S   0  0  0  0  0  0  0  0  0  0  0  0
   -3.7710    0.2040    0.1260 C   0  0  0  0  0  0  0  0  0  0  0  0
   -5.2430    0.5320    0.1690 C   0  0  0  0  0  0  0  0  0  0  0  0
   -5.3060    1.9920    0.1620 N   0  0  0  0  0  0  0  0  0  0  0  0
   -4.9100    2.6700   -0.9520 O   0  0  0  0  0  0  0  0  0  0  0  0
   -5.7450    2.7760    1.4870 S   0  0  0  0  0  0  0  0  0  0  0  0
  1  2  1  0
  2  3  1  0
  3  4  1  0
  4  5  1  0
  5  6  1  0
  6  7  1  0
  7  8  2  0
  7  9  1  0
  9 10  1  0
 10 11  1  0
 11 12  1  0
 12 13  1  0
 13 14  1  0
 13 15  2  0
M  CHG  2  13   1  14  -1
M  END
