
     RDKit          3D

 15 15  0  0  0  0  0  0  0  0999 V2000
   -4.5460   -1.5150   -0.2690 O   0  0  0  0  0  0  0  0  0  0  0  0
   -4.5110   -0.0030   -0.1560 S   0  0  2  0  0  0  0  0  0  0  0  0
   -5.6480    0.6540   -0.7920 O   0  0  0  0  0  0  0  0  0  0  0  0
   -3.0190    0.7040   -0.8090 C   0  0  0  0  0  0  0  0  0  0  0  0
   -2.4560    1.2190    0.2270 C   0  0  0  0  0  0  0  0  0  0  0  0
   -0.8270    2.0830    0.0790 S   0  0  0  0  0  0  0  0  0  0  0  0
    0.7480    0.8720    0.7800 S   0  0  0  0  0  0  0  0  0  0  0  0
    1.4330   -0.0220   -0.5740 C   0  0  0  0  0  0  0  0  0  0  0  0
    1.0650    0.3260   -1.9610 S   0  0  0  0  0  0  0  0  0  0  0  0
    2.3700   -1.1670   -0.4960 C   0  0  0  0  0  0  0  0  0  0  0  0
    3.0880   -1.2200    0.8670 C   0  0  0  0  0  0  0  0  0  0  0  0
    3.7130   -0.0210    1.0540 O   0  0  0  0  0  0  0  0  0  0  0  0
    5.2100   -0.0500    0.1710 S   0  0  0  0  0  0  0  0  0  0  0  0
   -3.1270    1.1000    1.4870 C   0  0  0  0  0  0  0  0  0  0  0  0
   -4.1960    0.4850    1.4540 N   0  0  0  0  0  0  0  0  0  0  0  0
  1  2  2  0
  2  3  2  0
  2  4  1  6
  2 15  1  0
  4  5  2  0
  5  6  1  0
  5 14  1  0
  6  7  1  0
  7  8  1  0
  8  9  2  0
  8 10  1  0
 10 11  1  0
 11 12  1  0
 12 13  1  0
 14 15  2  0
M  END
