
     RDKit          3D

 22 23  0  0  0  0  0  0  0  0999 V2000
   -3.3950   -0.6450    2.0800 C   0  0  0  0  0  0  0  0  0  0  0  0
   -3.6250   -0.8250    0.7880 C   0  0  0  0  0  0  0  0  0  0  0  0
   -4.8460   -1.5200    0.3060 C   0  0  0  0  0  0  0  0  0  0  0  0
   -5.0160   -1.2500   -1.1180 N   0  0  0  0  0  0  0  0  0  0  0  0
   -3.8030   -1.7410   -1.7890 C   0  0  0  0  0  0  0  0  0  0  0  0
   -2.7290   -0.7620   -1.4760 C   0  0  0  0  0  0  0  0  0  0  0  0
   -2.6700   -0.3370   -0.2140 C   0  0  0  0  0  0  0  0  0  0  0  0
   -1.6990    0.5890    0.2060 N   0  0  0  0  0  0  0  0  0  0  0  0
   -0.4660    0.5510   -0.0800 C   0  0  0  0  0  0  0  0  0  0  0  0
    0.2650   -0.7510   -1.1140 S   0  0  0  0  0  0  0  0  0  0  0  0
    1.9100   -0.5260   -0.3590 C   0  0  0  0  0  0  0  0  0  0  0  0
    2.8350   -1.4490   -0.3060 C   0  0  0  0  0  0  0  0  0  0  0  0
    4.1240   -1.2120    0.3080 C   0  0  0  0  0  0  0  0  0  0  0  0
    5.0080   -2.2100    0.3160 C   0  0  0  0  0  0  0  0  0  0  0  0
    6.3310   -1.9900    0.9370 C   0  0  0  0  0  0  0  0  0  0  0  0
    1.8940    0.8090    0.1050 C   0  0  0  0  0  0  0  0  0  0  0  0
    2.9690    1.4490    0.3690 O   0  0  0  0  0  0  0  0  0  0  0  0
    0.6180    1.3850    0.2550 N   0  0  0  0  0  0  0  0  0  0  0  0
    0.4030    2.7480    0.7230 C   0  0  0  0  0  0  0  0  0  0  0  0
    0.3720    3.7210   -0.3780 C   0  0  0  0  0  0  0  0  0  0  0  0
    0.1700    5.0950   -0.0900 N   0  0  0  0  0  0  0  0  0  0  0  0
    0.5120    3.4410   -1.5970 O   0  0  0  0  0  0  0  0  0  0  0  0
  1  2  2  0
  2  3  1  0
  2  7  1  0
  3  4  1  0
  4  5  1  0
  5  6  1  0
  6  7  2  0
  7  8  1  0
  8  9  2  3
  9 10  1  0
  9 18  1  0
 10 11  1  0
 11 12  2  3
 11 16  1  0
 12 13  1  0
 13 14  2  3
 14 15  1  0
 16 17  2  0
 16 18  1  0
 18 19  1  0
 19 20  1  0
 20 21  1  0
 20 22  2  0
M  END
