
     RDKit          3D

 22 24  0  0  0  0  0  0  0  0999 V2000
   -4.0700    2.5850   -0.5630 C   0  0  0  0  0  0  0  0  0  0  0  0
   -3.0820    1.4640   -0.3360 C   0  0  0  0  0  0  0  0  0  0  0  0
   -1.7640    1.7940   -0.4460 C   0  0  0  0  0  0  0  0  0  0  0  0
   -0.8450    0.8000   -0.2460 C   0  0  0  0  0  0  0  0  0  0  0  0
   -1.2090   -0.5230    0.0630 C   0  0  0  0  0  0  0  0  0  0  0  0
   -0.1730   -1.4720    0.2340 N   0  0  0  0  0  0  0  0  0  0  0  0
    1.1250   -1.1450   -0.0890 N   0  0  0  0  0  0  0  0  0  0  0  0
    2.2210   -0.9840    0.7970 C   0  0  0  0  0  0  0  0  0  0  0  0
    2.0020   -1.1470    2.0280 O   0  0  0  0  0  0  0  0  0  0  0  0
    3.5360   -0.6370    0.2450 C   0  0  0  0  0  0  0  0  0  0  0  0
    4.2060   -1.3590   -0.7160 C   0  0  0  0  0  0  0  0  0  0  0  0
    5.3760   -0.7230   -0.9910 N   0  0  0  0  0  0  0  0  0  0  0  0
    5.4970    0.3890   -0.2460 C   0  0  0  0  0  0  0  0  0  0  0  0
    6.5880    1.3600   -0.2380 C   0  0  0  0  0  0  0  0  0  0  0  0
    7.5740    1.2230   -0.9760 O   0  0  0  0  0  0  0  0  0  0  0  0
    4.3390    0.4410    0.5300 C   0  0  0  0  0  0  0  0  0  0  0  0
   -2.5700   -0.8210    0.1650 C   0  0  0  0  0  0  0  0  0  0  0  0
   -3.5290    0.1650   -0.0310 C   0  0  0  0  0  0  0  0  0  0  0  0
   -4.7740    0.0320    0.0400 N   0  0  0  0  0  0  0  0  0  0  0  0
   -5.6300   -1.0630    0.3130 C   0  0  0  0  0  0  0  0  0  0  0  0
   -4.6150   -2.5300    0.5680 S   0  0  0  0  0  0  0  0  0  0  0  0
   -2.9280   -2.0470    0.4210 C   0  0  0  0  0  0  0  0  0  0  0  0
  1  2  1  0
  2  3  2  0
  2 18  1  0
  3  4  1  0
  4  5  2  0
  5  6  1  0
  5 17  1  0
  6  7  1  0
  7  8  1  0
  8  9  2  0
  8 10  1  0
 10 11  2  0
 10 16  1  0
 11 12  1  0
 12 13  1  0
 13 14  1  0
 13 16  2  0
 14 15  2  0
 17 18  1  0
 17 22  2  0
 18 19  2  0
 19 20  1  0
 20 21  1  0
 21 22  1  0
M  END
