
     RDKit          3D

 12 13  0  0  0  0  0  0  0  0999 V2000
   -3.0910    0.7950   -0.8940 C   0  0  0  0  0  0  0  0  0  0  0  0
   -1.8730    0.2610   -0.3190 N   0  0  0  0  0  0  0  0  0  0  0  0
   -0.6370    0.6400   -0.6580 N   0  0  0  0  0  0  0  0  0  0  0  0
    0.2600   -0.0360    0.0490 C   0  0  0  0  0  0  0  0  0  0  0  0
    1.7020    0.0930   -0.0340 C   0  0  0  0  0  0  0  0  0  0  0  0
    2.5210    0.8560   -0.7720 C   0  0  0  0  0  0  0  0  0  0  0  0
    3.8550    0.7390   -0.6110 C   0  0  0  0  0  0  0  0  0  0  0  0
    4.3140   -0.1510    0.2960 C   0  0  0  0  0  0  0  0  0  0  0  0
    2.8670   -0.8560    0.9550 S   0  0  0  0  0  0  0  0  0  0  0  0
   -0.4600   -0.8780    0.8690 C   0  0  0  0  0  0  0  0  0  0  0  0
   -1.8180   -0.6960    0.6410 C   0  0  0  0  0  0  0  0  0  0  0  0
   -2.9040   -1.3540    1.2660 N   0  0  0  0  0  0  0  0  0  0  0  0
  1  2  1  0
  2  3  1  0
  2 11  1  0
  3  4  2  0
  4  5  1  0
  4 10  1  0
  5  6  2  0
  5  9  1  0
  6  7  1  0
  7  8  2  0
  8  9  1  0
 10 11  2  0
 11 12  1  0
M  END
