
     RDKit          3D

 22 24  0  0  0  0  0  0  0  0999 V2000
   -2.4140   -1.4470   -2.1020 N   0  0  0  0  0  0  0  0  0  0  0  0
   -2.4660   -0.1870   -1.4650 C   0  0  0  0  0  0  0  0  0  0  0  0
   -1.6900    0.0670   -0.4910 N   0  0  0  0  0  0  0  0  0  0  0  0
   -0.7640   -0.9100   -0.0330 C   0  0  0  0  0  0  0  0  0  0  0  0
    0.5110   -0.9070   -0.3960 C   0  0  0  0  0  0  0  0  0  0  0  0
    1.0780    0.3470   -1.4800 S   0  0  1  0  0  0  0  0  0  0  0  0
    2.2160   -0.1840   -2.3080 O   0  0  0  0  0  0  0  0  0  0  0  0
   -0.0370    0.6990   -2.4420 O   0  0  0  0  0  0  0  0  0  0  0  0
    1.6430    1.7230   -0.6400 N   0  0  0  0  0  0  0  0  0  0  0  0
    2.7490    1.5740    0.2410 C   0  0  0  0  0  0  0  0  0  0  0  0
    4.0060    1.2850   -0.0950 C   0  0  0  0  0  0  0  0  0  0  0  0
    4.8700    1.2140    1.0950 C   0  0  0  0  0  0  0  0  0  0  0  0
    3.9360    1.5050    2.1970 C   0  0  0  0  0  0  0  0  0  0  0  0
    2.7520    1.7040    1.6920 C   0  0  0  0  0  0  0  0  0  0  0  0
    1.5100   -1.8820    0.0410 C   0  0  0  0  0  0  0  0  0  0  0  0
    1.0870   -2.8310    1.0810 C   0  0  0  0  0  0  0  0  0  0  0  0
   -0.1980   -2.5230    1.7710 C   0  0  0  0  0  0  0  0  0  0  0  0
   -1.2570   -1.9540    0.8770 C   0  0  0  0  0  0  0  0  0  0  0  0
   -3.3630    0.8000   -1.9070 N   0  0  0  0  0  0  0  0  0  0  0  0
   -4.0460    1.6540   -1.0120 C   0  0  2  0  0  0  0  0  0  0  0  0
   -3.3560    2.5080   -0.0230 C   0  0  0  0  0  0  0  0  0  0  0  0
   -4.1080    1.3000    0.4650 C   0  0  0  0  0  0  0  0  0  0  0  0
  1  2  1  0
  2  3  2  3
  2 19  1  0
  3  4  1  0
  4  5  2  0
  4 18  1  0
  5  6  1  0
  5 15  1  0
  6  7  2  0
  6  8  2  0
  6  9  1  1
  9 10  1  0
 10 11  2  0
 10 14  1  0
 11 12  1  0
 12 13  1  0
 13 14  2  0
 15 16  1  0
 16 17  1  0
 17 18  1  0
 20 19  1  6
 20 21  1  0
 20 22  1  0
 21 22  1  0
M  END
