
     RDKit          3D

 22 24  0  0  0  0  0  0  0  0999 V2000
    4.9120   -2.7610   -1.3400 C   0  0  0  0  0  0  0  0  0  0  0  0
    4.3960   -1.4910   -0.7630 C   0  0  0  0  0  0  0  0  0  0  0  0
    4.5420   -0.9360    0.4490 C   0  0  0  0  0  0  0  0  0  0  0  0
    3.9490    0.2480    0.6970 C   0  0  0  0  0  0  0  0  0  0  0  0
    3.2310    0.8350   -0.2780 C   0  0  0  0  0  0  0  0  0  0  0  0
    2.4640    2.1070   -0.3430 C   0  0  0  0  0  0  0  0  0  0  0  0
    1.0310    1.9240    0.0320 C   0  0  0  0  0  0  0  0  0  0  0  0
    0.5700    2.0380    1.3210 C   0  0  0  0  0  0  0  0  0  0  0  0
   -0.7860    1.8020    1.2420 C   0  0  0  0  0  0  0  0  0  0  0  0
   -1.1470    1.5490   -0.0570 C   0  0  0  0  0  0  0  0  0  0  0  0
   -2.4470    1.2240   -0.6410 C   0  0  0  0  0  0  0  0  0  0  0  0
   -3.1920    0.2150   -0.2880 C   0  0  0  0  0  0  0  0  0  0  0  0
   -4.4930    0.0010   -0.9530 C   0  0  0  0  0  0  0  0  0  0  0  0
   -4.9260    0.8100   -1.8410 N   0  0  0  0  0  0  0  0  0  0  0  0
   -5.2990   -1.1190   -0.6110 N   0  0  0  0  0  0  0  0  0  0  0  0
   -4.9050   -2.0620    0.3590 C   0  0  0  0  0  0  0  0  0  0  0  0
   -5.6350   -3.0660    0.6610 O   0  0  0  0  0  0  0  0  0  0  0  0
   -3.6600   -1.8540    0.9920 N   0  0  0  0  0  0  0  0  0  0  0  0
   -2.7950   -0.7650    0.7100 C   0  0  0  0  0  0  0  0  0  0  0  0
   -1.7060   -0.6890    1.3390 O   0  0  0  0  0  0  0  0  0  0  0  0
    0.0140    1.6340   -0.7860 N   0  0  0  0  0  0  0  0  0  0  0  0
    3.3960   -0.3490   -1.6310 S   0  0  0  0  0  0  0  0  0  0  0  0
  1  2  1  0
  2  3  2  0
  2 22  1  0
  3  4  1  0
  4  5  2  0
  5  6  1  0
  5 22  1  0
  6  7  1  0
  7  8  2  0
  7 21  1  0
  8  9  1  0
  9 10  2  0
 10 11  1  0
 10 21  1  0
 11 12  2  3
 12 13  1  0
 12 19  1  0
 13 14  2  0
 13 15  1  0
 15 16  1  0
 16 17  2  0
 16 18  1  0
 18 19  1  0
 19 20  2  0
M  END
