
     RDKit          3D

 22 24  0  0  0  0  0  0  0  0999 V2000
    4.1120   -2.7390    1.5520 N   0  0  0  0  0  0  0  0  0  0  0  0
    4.1590   -2.3530    0.1720 C   0  0  0  0  0  0  0  0  0  0  0  0
    5.3050   -3.1360   -0.7120 S   0  0  0  0  0  0  0  0  0  0  0  0
    3.2400   -1.4710   -0.4570 C   0  0  0  0  0  0  0  0  0  0  0  0
    3.2770   -1.3320   -1.7470 O   0  0  0  0  0  0  0  0  0  0  0  0
    2.2190   -0.6740    0.1910 N   0  0  0  0  0  0  0  0  0  0  0  0
    1.3360    0.0700   -0.6270 C   0  0  0  0  0  0  0  0  0  0  0  0
    0.4080    1.0390   -0.0240 C   0  0  0  0  0  0  0  0  0  0  0  0
    0.7010    2.3100    0.3670 C   0  0  0  0  0  0  0  0  0  0  0  0
   -0.2700    3.2610    0.6750 C   0  0  0  0  0  0  0  0  0  0  0  0
   -0.2400    4.5620    1.0340 N   0  0  0  0  0  0  0  0  0  0  0  0
   -1.5100    5.0450    1.1910 C   0  0  0  0  0  0  0  0  0  0  0  0
   -2.3760    3.9990    0.9140 C   0  0  0  0  0  0  0  0  0  0  0  0
   -1.5890    2.9020    0.5940 C   0  0  0  0  0  0  0  0  0  0  0  0
   -1.9450    1.6320    0.2120 C   0  0  0  0  0  0  0  0  0  0  0  0
   -0.9910    0.6990   -0.0930 C   0  0  0  0  0  0  0  0  0  0  0  0
   -1.1690   -0.5600   -0.4450 O   0  0  0  0  0  0  0  0  0  0  0  0
   -1.8570   -1.6150   -0.7230 C   0  0  0  0  0  0  0  0  0  0  0  0
   -1.3440   -2.8230   -1.0860 C   0  0  0  0  0  0  0  0  0  0  0  0
   -2.4340   -3.7830   -1.3190 C   0  0  0  0  0  0  0  0  0  0  0  0
   -3.6140   -3.0190   -1.0590 N   0  0  0  0  0  0  0  0  0  0  0  0
   -3.3290   -1.8150   -0.7280 C   0  0  0  0  0  0  0  0  0  0  0  0
  1  2  1  0
  2  3  2  0
  2  4  1  0
  4  5  2  0
  4  6  1  0
  6  7  1  0
  7  8  1  0
  8  9  2  0
  8 16  1  0
  9 10  1  0
 10 11  1  0
 10 14  2  0
 11 12  1  0
 12 13  2  0
 13 14  1  0
 14 15  1  0
 15 16  2  0
 16 17  1  0
 17 18  1  0
 18 19  2  0
 18 22  1  0
 19 20  1  0
 20 21  1  0
 21 22  2  0
M  END
