
     RDKit          3D

 23 24  0  0  0  0  0  0  0  0999 V2000
    3.0680   -2.2360    1.6940 C   0  0  0  0  0  0  0  0  0  0  0  0
    3.8550   -1.6150    0.5940 C   0  0  0  0  0  0  0  0  0  0  0  0
    5.0900   -1.9820    0.4260 C   0  0  0  0  0  0  0  0  0  0  0  0
    5.9000   -1.4030   -0.6340 C   0  0  0  0  0  0  0  0  0  0  0  0
    5.4050   -0.4970   -1.4470 C   0  0  0  0  0  0  0  0  0  0  0  0
    4.0080   -0.0420   -1.3030 C   0  0  0  0  0  0  0  0  0  0  0  0
    3.5640    0.8150   -2.0830 O   0  0  0  0  0  0  0  0  0  0  0  0
    3.1830   -0.5950   -0.2650 C   0  0  0  0  0  0  0  0  0  0  0  0
    1.9340   -0.2900   -0.0160 C   0  0  0  0  0  0  0  0  0  0  0  0
    1.1620    0.6660   -0.7530 C   0  0  0  0  0  0  0  0  0  0  0  0
   -0.1350    0.9720   -0.4800 C   0  0  0  0  0  0  0  0  0  0  0  0
   -0.7400    1.9920   -1.3750 C   0  0  0  0  0  0  0  0  0  0  0  0
   -1.2280    3.1950   -0.6670 C   0  0  0  0  0  0  0  0  0  0  0  0
   -1.1410    3.4000    0.5680 O   0  0  0  0  0  0  0  0  0  0  0  0
   -1.8510    4.2210   -1.4250 N   0  0  0  0  0  0  0  0  0  0  0  0
   -2.3270    5.3540   -0.8670 O   0  0  0  0  0  0  0  0  0  0  0  0
   -0.8380    0.3500    0.6190 C   0  0  0  0  0  0  0  0  0  0  0  0
   -2.0660   -0.4560    0.2990 C   0  0  2  0  0  0  0  0  0  0  0  0
   -1.8420   -1.5880   -0.6370 C   0  0  0  0  0  0  0  0  0  0  0  0
   -3.2490    0.3930    0.0840 C   0  0  0  0  0  0  0  0  0  0  0  0
   -4.4240   -0.5200    0.3970 C   0  0  0  0  0  0  0  0  0  0  0  0
   -3.9210   -1.4230    1.4710 C   0  0  0  0  0  0  0  0  0  0  0  0
   -2.4590   -1.1430    1.6500 C   0  0  0  0  0  0  0  0  0  0  0  0
  1  2  1  0
  2  3  2  0
  2  8  1  0
  3  4  1  0
  4  5  2  0
  5  6  1  0
  6  7  2  0
  6  8  1  0
  8  9  2  3
  9 10  1  0
 10 11  2  3
 11 12  1  0
 11 17  1  0
 12 13  1  0
 13 14  2  0
 13 15  1  0
 15 16  1  0
 17 18  1  0
 18 19  1  6
 18 20  1  0
 18 23  1  0
 20 21  1  0
 21 22  1  0
 22 23  1  0
M  END
