
     RDKit          3D

 23 25  0  0  0  0  0  0  0  0999 V2000
   -5.1280   -0.6350   -2.2820 C   0  0  0  0  0  0  0  0  0  0  0  0
   -3.8870   -0.2630   -1.5550 C   0  0  0  0  0  0  0  0  0  0  0  0
   -3.6860   -0.6230   -0.2360 C   0  0  0  0  0  0  0  0  0  0  0  0
   -2.5540   -0.2970    0.4770 C   0  0  0  0  0  0  0  0  0  0  0  0
   -2.3860   -0.7170    1.9130 C   0  0  0  0  0  0  0  0  0  0  0  0
   -1.5630    0.4280   -0.1520 C   0  0  0  0  0  0  0  0  0  0  0  0
   -0.4120    0.7800    0.5200 O   0  0  0  0  0  0  0  0  0  0  0  0
    0.7420    0.0490    0.6080 C   0  0  0  0  0  0  0  0  0  0  0  0
    0.8670   -1.1770   -0.0020 C   0  0  0  0  0  0  0  0  0  0  0  0
    2.0330   -1.9190    0.0850 C   0  0  0  0  0  0  0  0  0  0  0  0
    3.1080   -1.4480    0.7900 C   0  0  0  0  0  0  0  0  0  0  0  0
    3.0200   -0.2220    1.4160 C   0  0  0  0  0  0  0  0  0  0  0  0
    1.8540    0.4900    1.3110 C   0  0  0  0  0  0  0  0  0  0  0  0
    1.6980    1.8380    1.9640 C   0  0  0  0  0  0  0  0  0  0  0  0
    1.8210    2.9030    0.9500 C   0  0  0  0  0  0  0  0  0  0  0  0
    1.7030    4.2720    1.2720 N   0  0  0  0  0  0  0  0  0  0  0  0
    2.0370    2.5800   -0.2420 O   0  0  0  0  0  0  0  0  0  0  0  0
    4.2040   -2.4690    0.7000 C   0  0  0  0  0  0  0  0  0  0  0  0
    3.7840   -3.2690   -0.5080 C   0  0  0  0  0  0  0  0  0  0  0  0
    2.3570   -3.1860   -0.4630 O   0  0  0  0  0  0  0  0  0  0  0  0
   -1.7520    0.8000   -1.4860 C   0  0  0  0  0  0  0  0  0  0  0  0
   -0.6960    1.5820   -2.1830 C   0  0  0  0  0  0  0  0  0  0  0  0
   -2.8970    0.4560   -2.1690 C   0  0  0  0  0  0  0  0  0  0  0  0
  1  2  1  0
  2  3  2  0
  2 23  1  0
  3  4  1  0
  4  5  1  0
  4  6  2  0
  6  7  1  0
  6 21  1  0
  7  8  1  0
  8  9  2  0
  8 13  1  0
  9 10  1  0
 10 11  2  0
 10 20  1  0
 11 12  1  0
 11 18  1  0
 12 13  2  0
 13 14  1  0
 14 15  1  0
 15 16  1  0
 15 17  2  0
 18 19  1  0
 19 20  1  0
 21 22  1  0
 21 23  2  0
M  END
