
     RDKit          3D

 28 31  0  0  0  0  0  0  0  0999 V2000
    2.5660    1.6920    1.3870 O   0  0  0  0  0  0  0  0  0  0  0  0
    2.3610    0.8090    0.4130 C   0  0  0  0  0  0  0  0  0  0  0  0
    0.9500    0.5830    0.0600 C   0  0  0  0  0  0  0  0  0  0  0  0
    0.6960   -0.2880   -0.8790 C   0  0  0  0  0  0  0  0  0  0  0  0
   -0.5440   -0.7560   -1.4690 C   0  0  0  0  0  0  0  0  0  0  0  0
   -1.5160   -1.4460   -0.8960 C   0  0  0  0  0  0  0  0  0  0  0  0
   -2.6490   -1.8330   -1.5730 F   0  0  0  0  0  0  0  0  0  0  0  0
   -1.4860   -1.8670    0.5260 C   0  0  0  0  0  0  0  0  0  0  0  0
   -2.8340   -1.7850    1.0720 N   0  0  0  0  0  0  0  0  0  0  0  0
   -3.4830   -2.6370    1.9880 C   0  0  0  0  0  0  0  0  0  0  0  0
   -4.6870   -2.2320    2.2390 C   0  0  0  0  0  0  0  0  0  0  0  0
   -4.9720   -1.0770    1.5250 N   0  0  0  0  0  0  0  0  0  0  0  0
   -3.7760   -0.7380    0.7330 C   0  0  0  0  0  0  0  0  0  0  0  0
   -3.5620    0.1690   -0.0070 N   0  0  0  0  0  0  0  0  0  0  0  0
   -3.1360    1.1200   -0.8700 C   0  0  0  0  0  0  0  0  0  0  0  0
   -3.8410    1.3110   -2.0450 N   0  0  0  0  0  0  0  0  0  0  0  0
   -3.5660    2.2290   -2.9360 C   0  0  0  0  0  0  0  0  0  0  0  0
   -4.2690    2.4100   -4.0940 F   0  0  0  0  0  0  0  0  0  0  0  0
   -2.4960    3.0860   -2.7130 C   0  0  0  0  0  0  0  0  0  0  0  0
   -1.8250    2.9040   -1.6010 N   0  0  0  0  0  0  0  0  0  0  0  0
   -2.0420    1.9850   -0.6360 C   0  0  0  0  0  0  0  0  0  0  0  0
   -1.1590    1.9580    0.5280 C   0  0  0  0  0  0  0  0  0  0  0  0
   -0.0060    1.4170    0.8090 C   0  0  0  0  0  0  0  0  0  0  0  0
    3.5500    0.2770   -0.0740 N   0  0  0  0  0  0  0  0  0  0  0  0
    3.8580   -0.6450   -1.0940 C   0  0  0  0  0  0  0  0  0  0  0  0
    5.3820   -0.6490   -1.2260 C   0  0  0  0  0  0  0  0  0  0  0  0
    5.8310   -0.3010    0.1770 C   0  0  0  0  0  0  0  0  0  0  0  0
    4.8320    0.7230    0.5960 C   0  0  0  0  0  0  0  0  0  0  0  0
  1  2  2  0
  2  3  1  0
  2 24  1  0
  3  4  2  0
  3 23  1  0
  4  5  1  0
  5  6  2  0
  6  7  1  0
  6  8  1  0
  8  9  1  0
  9 10  1  0
  9 13  1  0
 10 11  2  0
 11 12  1  0
 12 13  1  0
 13 14  2  0
 14 15  1  0
 15 16  2  0
 15 21  1  0
 16 17  1  0
 17 18  1  0
 17 19  2  0
 19 20  1  0
 20 21  2  0
 21 22  1  0
 22 23  2  0
 24 25  1  0
 24 28  1  0
 25 26  1  0
 26 27  1  0
 27 28  1  0
M  END
