
     RDKit          3D

 28 31  0  0  0  0  0  0  0  0999 V2000
   -4.3870    0.5340   -0.7340 C   0  0  0  0  0  0  0  0  0  0  0  0
   -4.0910   -0.8400   -0.9950 N   0  0  0  0  0  0  0  0  0  0  0  0
   -4.7950   -1.7430   -1.9370 C   0  0  0  0  0  0  0  0  0  0  0  0
   -5.0120   -2.9220   -0.9750 C   0  0  0  0  0  0  0  0  0  0  0  0
   -3.7280   -2.9930   -0.3070 N   0  0  0  0  0  0  0  0  0  0  0  0
   -3.1060   -1.6890   -0.4350 C   0  0  0  0  0  0  0  0  0  0  0  0
   -1.8530   -1.3890   -0.1010 C   0  0  0  0  0  0  0  0  0  0  0  0
   -1.2860   -0.0780   -0.2750 C   0  0  0  0  0  0  0  0  0  0  0  0
   -0.0960    0.3660    0.0030 C   0  0  0  0  0  0  0  0  0  0  0  0
    0.1980    1.7640   -0.2830 C   0  0  0  0  0  0  0  0  0  0  0  0
    1.3640    2.3260   -0.0490 C   0  0  0  0  0  0  0  0  0  0  0  0
    1.5260    3.7760   -0.3920 C   0  0  1  0  0  0  0  0  0  0  0  0
    0.8960    4.4860    0.6170 F   0  0  0  0  0  0  0  0  0  0  0  0
    2.8910    4.0550   -0.3810 F   0  0  0  0  0  0  0  0  0  0  0  0
    0.9450    4.1550   -1.7080 C   0  0  0  0  0  0  0  0  0  0  0  0
   -0.4200    3.5590   -1.9470 C   0  0  0  0  0  0  0  0  0  0  0  0
   -0.7830    2.6430   -0.8550 N   0  0  0  0  0  0  0  0  0  0  0  0
    0.9140   -0.5090    0.5660 C   0  0  0  0  0  0  0  0  0  0  0  0
    0.7370   -1.8190    0.8180 N   0  0  0  0  0  0  0  0  0  0  0  0
    1.7960   -2.3310    1.3100 O   0  0  0  0  0  0  0  0  0  0  0  0
    2.7040   -1.4010    1.4030 C   0  0  0  0  0  0  0  0  0  0  0  0
    4.0490   -1.6320    1.9260 C   0  0  0  0  0  0  0  0  0  0  0  0
    4.9130   -0.5790    1.9880 C   0  0  0  0  0  0  0  0  0  0  0  0
    6.1950   -0.7630    2.4760 C   0  0  0  0  0  0  0  0  0  0  0  0
    6.5710   -1.9720    2.8810 N   0  0  0  0  0  0  0  0  0  0  0  0
    5.7200   -3.0260    2.8240 C   0  0  0  0  0  0  0  0  0  0  0  0
    4.4360   -2.8810    2.3440 C   0  0  0  0  0  0  0  0  0  0  0  0
    2.1710   -0.2670    0.9450 N   0  0  0  0  0  0  0  0  0  0  0  0
  1  2  1  0
  2  3  1  0
  2  6  1  0
  3  4  1  0
  4  5  1  0
  5  6  1  0
  6  7  2  3
  7  8  1  0
  8  9  2  3
  9 10  1  0
  9 18  1  0
 10 11  2  0
 10 17  1  0
 11 12  1  0
 12 13  1  1
 12 14  1  0
 12 15  1  0
 15 16  1  0
 16 17  1  0
 18 19  2  0
 18 28  1  0
 19 20  1  0
 20 21  1  0
 21 22  1  0
 21 28  2  0
 22 23  2  0
 22 27  1  0
 23 24  1  0
 24 25  2  0
 25 26  1  0
 26 27  2  0
M  END
