
     RDKit          3D

 28 31  0  0  0  0  0  0  0  0999 V2000
   -4.1640    2.3430    2.7180 C   0  0  0  0  0  0  0  0  0  0  0  0
   -3.5110    1.7260    1.5680 C   0  0  0  0  0  0  0  0  0  0  0  0
   -3.9540    0.6960    0.8450 C   0  0  0  0  0  0  0  0  0  0  0  0
   -5.1240   -0.0030    1.0340 C   0  0  0  0  0  0  0  0  0  0  0  0
   -6.0930    0.1050    1.9060 C   0  0  0  0  0  0  0  0  0  0  0  0
   -7.1340   -0.7920    1.7810 F   0  0  0  0  0  0  0  0  0  0  0  0
   -5.1140   -0.9690    0.0300 N   0  0  0  0  0  0  0  0  0  0  0  0
   -4.0070   -0.8380   -0.6950 C   0  0  0  0  0  0  0  0  0  0  0  0
   -3.6310   -1.6650   -1.8490 C   0  0  0  0  0  0  0  0  0  0  0  0
   -4.0170   -2.8030   -2.3890 C   0  0  0  0  0  0  0  0  0  0  0  0
   -4.9610   -3.7300   -2.1000 F   0  0  0  0  0  0  0  0  0  0  0  0
   -3.0030   -2.6890   -3.4310 C   0  0  0  0  0  0  0  0  0  0  0  0
   -2.6390   -1.5720   -2.8860 N   0  0  0  0  0  0  0  0  0  0  0  0
   -3.2690    0.1780   -0.2240 N   0  0  0  0  0  0  0  0  0  0  0  0
   -2.0130    0.6780   -0.7300 C   0  0  0  0  0  0  0  0  0  0  0  0
   -0.8540   -0.0330   -0.2030 C   0  0  0  0  0  0  0  0  0  0  0  0
   -1.0800   -1.0230    0.5890 O   0  0  0  0  0  0  0  0  0  0  0  0
    0.4920    0.2530   -0.4760 N   0  0  0  0  0  0  0  0  0  0  0  0
    1.5280   -0.5570    0.0650 C   0  0  0  0  0  0  0  0  0  0  0  0
    1.3970   -1.6510    0.8460 N   0  0  0  0  0  0  0  0  0  0  0  0
    2.5800   -2.1580    1.1340 N   0  0  0  0  0  0  0  0  0  0  0  0
    3.5230   -1.4060    0.5450 C   0  0  0  0  0  0  0  0  0  0  0  0
    2.8600   -0.4050   -0.1210 C   0  0  0  0  0  0  0  0  0  0  0  0
    3.7290    0.5840   -0.8400 C   0  0  0  0  0  0  0  0  0  0  0  0
    4.7450    1.0540    0.1990 C   0  0  2  0  0  0  0  0  0  0  0  0
    5.6330    2.1500   -0.3160 C   0  0  0  0  0  0  0  0  0  0  0  0
    5.5480   -0.0820    0.7520 C   0  0  0  0  0  0  0  0  0  0  0  0
    5.0030   -1.4430    0.4590 C   0  0  0  0  0  0  0  0  0  0  0  0
  1  2  1  0
  2  3  2  3
  3  4  1  0
  3 14  1  0
  4  5  2  3
  4  7  1  0
  5  6  1  0
  7  8  2  0
  8  9  1  0
  8 14  1  0
  9 10  2  0
  9 13  1  0
 10 11  1  0
 10 12  1  0
 12 13  2  0
 14 15  1  0
 15 16  1  0
 16 17  2  0
 16 18  1  0
 18 19  1  0
 19 20  2  0
 19 23  1  0
 20 21  1  0
 21 22  1  0
 22 23  2  0
 22 28  1  0
 23 24  1  0
 24 25  1  0
 25 26  1  6
 25 27  1  0
 27 28  1  0
M  END
