
     RDKit          3D

 27 31  0  0  0  0  0  0  0  0999 V2000
    4.5320   -0.8880    3.3350 O   0  0  0  0  0  0  0  0  0  0  0  0
    4.4170   -0.6130    2.1250 C   0  0  0  0  0  0  0  0  0  0  0  0
    5.5090   -0.7120    1.1490 C   0  0  0  0  0  0  0  0  0  0  0  0
    5.0950   -1.5400   -0.0290 C   0  0  0  0  0  0  0  0  0  0  0  0
    3.8080   -1.0690   -0.5680 C   0  0  0  0  0  0  0  0  0  0  0  0
    3.2650   -1.1470   -1.8230 N   0  0  0  0  0  0  0  0  0  0  0  0
    2.0800   -0.5820   -1.7780 N   0  0  0  0  0  0  0  0  0  0  0  0
    1.8130   -0.1310   -0.5450 C   0  0  0  0  0  0  0  0  0  0  0  0
    0.5860    0.5570   -0.1040 C   0  0  0  0  0  0  0  0  0  0  0  0
    0.4940    1.4430    0.8280 N   0  0  0  0  0  0  0  0  0  0  0  0
   -0.8110    1.8780    0.9740 N   0  0  0  0  0  0  0  0  0  0  0  0
   -1.6020    2.6600    1.9130 C   0  0  0  0  0  0  0  0  0  0  0  0
   -2.4410    3.5880    1.0280 C   0  0  0  0  0  0  0  0  0  0  0  0
   -1.7540    3.8620   -0.3010 C   0  0  0  0  0  0  0  0  0  0  0  0
   -1.5940    2.5870   -1.1310 C   0  0  0  0  0  0  0  0  0  0  0  0
   -1.5420    1.3950   -0.1710 C   0  0  1  0  0  0  0  0  0  0  0  0
   -0.7050    0.3290   -0.6570 N   0  0  0  0  0  0  0  0  0  0  0  0
   -1.0570   -0.7780   -1.5290 C   0  0  0  0  0  0  0  0  0  0  0  0
   -2.0780   -1.6810   -0.9760 C   0  0  0  0  0  0  0  0  0  0  0  0
   -2.6900   -2.5580   -1.8480 C   0  0  0  0  0  0  0  0  0  0  0  0
   -3.6580   -3.4420   -1.3960 C   0  0  0  0  0  0  0  0  0  0  0  0
   -4.0400   -3.4780   -0.0820 C   0  0  0  0  0  0  0  0  0  0  0  0
   -4.9920   -4.3580    0.3240 F   0  0  0  0  0  0  0  0  0  0  0  0
   -3.4400   -2.6130    0.7910 C   0  0  0  0  0  0  0  0  0  0  0  0
   -2.4760   -1.7330    0.3410 C   0  0  0  0  0  0  0  0  0  0  0  0
    2.8980   -0.4300    0.2400 C   0  0  0  0  0  0  0  0  0  0  0  0
    3.1560   -0.1700    1.6290 N   0  0  0  0  0  0  0  0  0  0  0  0
  1  2  2  0
  2  3  1  0
  2 27  1  0
  3  4  1  0
  4  5  1  0
  5  6  1  0
  5 26  2  0
  6  7  1  0
  7  8  2  0
  8  9  1  0
  8 26  1  0
  9 10  2  0
  9 17  1  0
 10 11  1  0
 11 12  1  0
 11 16  1  0
 12 13  1  0
 13 14  1  0
 14 15  1  0
 16 15  1  6
 16 17  1  0
 17 18  1  0
 18 19  1  0
 19 20  2  0
 19 25  1  0
 20 21  1  0
 21 22  2  0
 22 23  1  0
 22 24  1  0
 24 25  2  0
 26 27  1  0
M  END
