
     RDKit          3D

 28 31  0  0  0  0  0  0  0  0999 V2000
    5.5260    2.2260   -0.4560 C   0  0  0  0  0  0  0  0  0  0  0  0
    5.3820    1.3080   -1.3800 C   0  0  0  0  0  0  0  0  0  0  0  0
    6.1280    1.4120   -2.5280 F   0  0  0  0  0  0  0  0  0  0  0  0
    4.4390    0.1820   -1.2790 C   0  0  0  0  0  0  0  0  0  0  0  0
    4.4390   -0.6670   -2.2770 C   0  0  0  0  0  0  0  0  0  0  0  0
    5.2780   -0.5080   -3.3550 F   0  0  0  0  0  0  0  0  0  0  0  0
    3.5660   -0.0090   -0.1130 C   0  0  1  0  0  0  0  0  0  0  0  0
    2.6500    1.1880    0.0930 C   0  0  0  0  0  0  0  0  0  0  0  0
    1.2250    0.9870   -0.3220 C   0  0  0  0  0  0  0  0  0  0  0  0
    0.6530   -0.2580   -0.1260 N   0  0  0  0  0  0  0  0  0  0  0  0
   -0.6650   -0.5340    0.1000 C   0  0  1  0  0  0  0  0  0  0  0  0
   -1.2570    0.0310    1.3510 C   0  0  0  0  0  0  0  0  0  0  0  0
   -0.9120    0.8680    2.3250 N   0  0  0  0  0  0  0  0  0  0  0  0
   -1.9090    0.9940    3.2240 C   0  0  0  0  0  0  0  0  0  0  0  0
   -1.9530    1.8180    4.4590 C   0  0  0  0  0  0  0  0  0  0  0  0
   -2.8930    0.1940    2.7640 N   0  0  0  0  0  0  0  0  0  0  0  0
   -2.4970   -0.3900    1.6280 N   0  0  0  0  0  0  0  0  0  0  0  0
   -3.1740   -1.3380    0.7300 C   0  0  1  0  0  0  0  0  0  0  0  0
   -4.6070   -1.4370    1.1290 C   0  0  0  0  0  0  0  0  0  0  0  0
   -2.9000   -1.1000   -0.7000 C   0  0  1  0  0  0  0  0  0  0  0  0
   -3.9850   -0.4370   -1.4450 C   0  0  0  0  0  0  0  0  0  0  0  0
   -5.1280   -0.2830   -1.0150 O   0  0  0  0  0  0  0  0  0  0  0  0
   -3.6260    0.0310   -2.7300 N   0  0  0  0  0  0  0  0  0  0  0  0
   -2.3380   -0.4820   -3.2290 C   0  0  0  0  0  0  0  0  0  0  0  0
   -1.2640   -0.3360   -2.3020 N   0  0  0  0  0  0  0  0  0  0  0  0
   -1.6800   -0.2000   -0.9630 C   0  0  2  0  0  0  0  0  0  0  0  0
    1.4590   -1.2760   -0.7380 C   0  0  0  0  0  0  0  0  0  0  0  0
    2.8420   -1.2940   -0.1230 C   0  0  0  0  0  0  0  0  0  0  0  0
  1  2  2  0
  2  3  1  0
  2  4  1  0
  4  5  2  3
  7  4  1  6
  5  6  1  0
  7  8  1  0
  7 28  1  0
  8  9  1  0
  9 10  1  0
 11 10  1  6
 10 27  1  0
 11 12  1  0
 11 26  1  0
 12 13  2  0
 12 17  1  0
 13 14  1  0
 14 15  1  0
 14 16  2  0
 16 17  1  0
 17 18  1  0
 18 19  1  6
 18 20  1  0
 20 21  1  1
 20 26  1  0
 21 22  2  0
 21 23  1  0
 23 24  1  0
 24 25  1  0
 26 25  1  6
 27 28  1  0
M  END
