
     RDKit          3D

 27 31  0  0  0  0  0  0  0  0999 V2000
   -6.2220   -0.4730   -3.0820 O   0  0  0  0  0  0  0  0  0  0  0  0
   -5.4830   -0.3030   -2.0730 C   0  0  0  0  0  0  0  0  0  0  0  0
   -4.1430   -0.3960   -2.1450 N   0  0  0  0  0  0  0  0  0  0  0  0
   -3.3270   -0.2210   -1.0920 C   0  0  0  0  0  0  0  0  0  0  0  0
   -1.9480   -0.3290   -1.2210 C   0  0  0  0  0  0  0  0  0  0  0  0
   -1.0840   -0.1540   -0.1600 C   0  0  0  0  0  0  0  0  0  0  0  0
    0.3190   -0.2750   -0.3440 N   0  0  0  0  0  0  0  0  0  0  0  0
    1.0310   -1.2750    0.4020 C   0  0  0  0  0  0  0  0  0  0  0  0
    2.5130   -1.2260    0.2630 C   0  0  0  0  0  0  0  0  0  0  0  0
    3.0520    0.0630   -0.0400 N   0  0  0  0  0  0  0  0  0  0  0  0
    4.4500    0.2630    0.0360 C   0  0  0  0  0  0  0  0  0  0  0  0
    5.2740   -0.7760    0.3860 C   0  0  0  0  0  0  0  0  0  0  0  0
    6.6430   -0.6020    0.4670 C   0  0  0  0  0  0  0  0  0  0  0  0
    7.2010    0.6220    0.1960 C   0  0  0  0  0  0  0  0  0  0  0  0
    6.3670    1.6540   -0.1530 C   0  0  0  0  0  0  0  0  0  0  0  0
    5.0260    1.4620   -0.2260 N   0  0  0  0  0  0  0  0  0  0  0  0
    2.2030    1.1740   -0.4250 C   0  0  0  0  0  0  0  0  0  0  0  0
    1.0670    0.5660   -1.2530 C   0  0  0  0  0  0  0  0  0  0  0  0
   -1.6340    0.1380    1.0690 C   0  0  0  0  0  0  0  0  0  0  0  0
   -0.7990    0.3120    2.1220 F   0  0  0  0  0  0  0  0  0  0  0  0
   -3.0060    0.2510    1.2270 C   0  0  0  0  0  0  0  0  0  0  0  0
   -3.8540    0.0710    0.1420 C   0  0  0  0  0  0  0  0  0  0  0  0
   -5.2260    0.1740    0.2500 C   0  0  0  0  0  0  0  0  0  0  0  0
   -6.0240    0.4420    1.2970 N   0  0  0  0  0  0  0  0  0  0  0  0
   -7.3010    0.4310    0.8930 C   0  0  0  0  0  0  0  0  0  0  0  0
   -7.3100    0.1550   -0.4150 N   0  0  0  0  0  0  0  0  0  0  0  0
   -6.0520   -0.0090   -0.8420 C   0  0  0  0  0  0  0  0  0  0  0  0
  1  2  2  0
  2  3  1  0
  2 27  1  0
  3  4  1  0
  4  5  2  0
  4 22  1  0
  5  6  1  0
  6  7  1  0
  6 19  2  0
  7  8  1  0
  7 18  1  0
  8  9  1  0
  9 10  1  0
 10 11  1  0
 10 17  1  0
 11 12  2  0
 11 16  1  0
 12 13  1  0
 13 14  2  0
 14 15  1  0
 15 16  2  0
 17 18  1  0
 19 20  1  0
 19 21  1  0
 21 22  2  0
 22 23  1  0
 23 24  1  0
 23 27  2  0
 24 25  1  0
 25 26  2  0
 26 27  1  0
M  END
