
     RDKit          3D

 21 24  0  0  0  0  0  0  0  0999 V2000
   -1.9320    2.7760    0.0680 C   0  0  0  0  0  0  0  0  0  0  0  0
   -1.3790    1.3760    0.0860 C   0  0  0  0  0  0  0  0  0  0  0  0
   -2.2640    0.3240    0.0610 C   0  0  0  0  0  0  0  0  0  0  0  0
   -3.6230    0.5740    0.0420 C   0  0  0  0  0  0  0  0  0  0  0  0
   -4.4980   -0.4780    0.0390 C   0  0  0  0  0  0  0  0  0  0  0  0
   -4.0090   -1.7170    0.0550 N   0  0  0  0  0  0  0  0  0  0  0  0
   -2.6720   -1.9900    0.0740 C   0  0  0  0  0  0  0  0  0  0  0  0
   -2.3070   -3.1880    0.0930 O   0  0  0  0  0  0  0  0  0  0  0  0
   -1.7520   -0.9810    0.0750 C   0  0  0  0  0  0  0  0  0  0  0  0
   -0.3930   -1.2260    0.1110 C   0  0  0  0  0  0  0  0  0  0  0  0
    0.1590   -2.5940    0.0310 C   0  0  0  0  0  0  0  0  0  0  0  0
    0.4700   -0.1170    0.1400 C   0  0  0  0  0  0  0  0  0  0  0  0
   -0.0370    1.1610    0.1260 C   0  0  0  0  0  0  0  0  0  0  0  0
    0.9750    2.0400    0.1730 N   0  0  0  0  0  0  0  0  0  0  0  0
    2.1230    1.3450    0.2210 C   0  0  0  0  0  0  0  0  0  0  0  0
    3.4110    1.7810    0.2920 C   0  0  0  0  0  0  0  0  0  0  0  0
    4.4490    0.8990    0.3500 C   0  0  0  0  0  0  0  0  0  0  0  0
    4.1690   -0.4740    0.3350 C   0  0  0  0  0  0  0  0  0  0  0  0
    5.2550   -1.3360    0.3960 O   0  0  0  0  0  0  0  0  0  0  0  0
    2.8740   -0.9330    0.2630 C   0  0  0  0  0  0  0  0  0  0  0  0
    1.8520   -0.0280    0.2040 C   0  0  0  0  0  0  0  0  0  0  0  0
  1  2  1  0
  2  3  2  0
  2 13  1  0
  3  4  1  0
  3  9  1  0
  4  5  2  0
  5  6  1  0
  6  7  1  0
  7  8  2  0
  7  9  1  0
  9 10  2  0
 10 11  1  0
 10 12  1  0
 12 13  2  0
 12 21  1  0
 13 14  1  0
 14 15  1  0
 15 16  2  0
 15 21  1  0
 16 17  1  0
 17 18  2  0
 18 19  1  0
 18 20  1  0
 20 21  2  0
M  END
