
     RDKit          3D

 28 31  0  0  0  0  0  0  0  0999 V2000
   -2.8890    1.7040    1.8410 C   0  0  0  0  0  0  0  0  0  0  0  0
   -2.8640    0.4850    0.9710 C   0  0  0  0  0  0  0  0  0  0  0  0
   -4.0050   -0.0790    0.8490 N   0  0  0  0  0  0  0  0  0  0  0  0
   -4.5450   -0.8320   -0.2560 C   0  0  0  0  0  0  0  0  0  0  0  0
   -5.7980   -1.1990   -0.1300 C   0  0  0  0  0  0  0  0  0  0  0  0
   -6.5320   -0.8810    0.9860 F   0  0  0  0  0  0  0  0  0  0  0  0
   -6.3710   -1.9090   -1.1280 F   0  0  0  0  0  0  0  0  0  0  0  0
   -3.8630   -1.2290   -1.4910 C   0  0  2  0  0  0  0  0  0  0  0  0
   -3.1990   -2.5880   -1.2570 C   0  0  0  0  0  0  0  0  0  0  0  0
   -1.9860   -2.1720   -0.4500 C   0  0  0  0  0  0  0  0  0  0  0  0
   -1.6910   -0.7340   -0.8560 C   0  0  2  0  0  0  0  0  0  0  0  0
   -1.5810    0.0910    0.3800 C   0  0  1  0  0  0  0  0  0  0  0  0
   -0.7040    1.2270    0.1210 N   0  0  0  0  0  0  0  0  0  0  0  0
    0.5650    1.3910    0.7410 C   0  0  0  0  0  0  0  0  0  0  0  0
    0.9350    0.5010    1.5500 O   0  0  0  0  0  0  0  0  0  0  0  0
    1.3900    2.5280    0.4530 N   0  0  0  0  0  0  0  0  0  0  0  0
    2.6710    2.7030    1.0660 C   0  0  0  0  0  0  0  0  0  0  0  0
    3.5970    1.5790    0.7310 C   0  0  0  0  0  0  0  0  0  0  0  0
    4.8340    1.4470    1.2410 N   0  0  0  0  0  0  0  0  0  0  0  0
    5.4340    0.3380    0.7540 C   0  0  0  0  0  0  0  0  0  0  0  0
    6.6860   -0.1990    0.9870 C   0  0  0  0  0  0  0  0  0  0  0  0
    7.0090   -1.3660    0.3250 C   0  0  0  0  0  0  0  0  0  0  0  0
    6.1130   -1.9660   -0.5320 C   0  0  0  0  0  0  0  0  0  0  0  0
    4.8650   -1.4080   -0.7480 C   0  0  0  0  0  0  0  0  0  0  0  0
    4.5190   -0.2420   -0.0980 C   0  0  0  0  0  0  0  0  0  0  0  0
    3.4220    0.5380   -0.0840 N   0  0  0  0  0  0  0  0  0  0  0  0
   -2.7230   -0.4190   -1.7430 N   0  0  0  0  0  0  0  0  0  0  0  0
   -2.9740    0.9370   -2.0460 C   0  0  0  0  0  0  0  0  0  0  0  0
  1  2  1  0
  2  3  2  0
  2 12  1  0
  3  4  1  0
  4  5  2  3
  4  8  1  0
  5  6  1  0
  5  7  1  0
  8  9  1  1
  8 27  1  0
  9 10  1  0
 11 10  1  1
 11 12  1  0
 11 27  1  0
 12 13  1  6
 13 14  1  0
 14 15  2  0
 14 16  1  0
 16 17  1  0
 17 18  1  0
 18 19  2  0
 18 26  1  0
 19 20  1  0
 20 21  2  0
 20 25  1  0
 21 22  1  0
 22 23  2  0
 23 24  1  0
 24 25  2  0
 25 26  1  0
 27 28  1  0
M  END
