
     RDKit          3D

 37 40  0  0  0  0  0  0  0  0999 V2000
    6.8490   -0.9150   -2.9680 C   0  0  0  0  0  0  0  0  0  0  0  0
    5.3640   -0.7640   -2.7420 C   0  0  0  0  0  0  0  0  0  0  0  0
    5.1330    0.5590   -2.2320 O   0  0  0  0  0  0  0  0  0  0  0  0
    5.8080    0.8040   -1.0070 C   0  0  0  0  0  0  0  0  0  0  0  0
    6.9570    1.4440   -1.0150 C   0  0  0  0  0  0  0  0  0  0  0  0
    7.7280    1.7420    0.1820 C   0  0  0  0  0  0  0  0  0  0  0  0
    7.2250    1.3330    1.3410 C   0  0  0  0  0  0  0  0  0  0  0  0
    7.9520    1.5980    2.6310 C   0  0  0  0  0  0  0  0  0  0  0  0
    6.0390    0.6650    1.3480 O   0  0  0  0  0  0  0  0  0  0  0  0
    5.2150    0.3430    0.2620 C   0  0  1  0  0  0  0  0  0  0  0  0
    3.8780    0.9740    0.4110 C   0  0  0  0  0  0  0  0  0  0  0  0
    3.6530    1.6690    1.4190 O   0  0  0  0  0  0  0  0  0  0  0  0
    2.8910    0.7920   -0.5590 N   0  0  0  0  0  0  0  0  0  0  0  0
    1.6000    1.4420   -0.3430 C   0  0  0  0  0  0  0  0  0  0  0  0
    0.8760    0.6040    0.6520 C   0  0  0  0  0  0  0  0  0  0  0  0
   -0.2210   -0.1320    0.2020 C   0  0  0  0  0  0  0  0  0  0  0  0
   -0.9050   -0.9210    1.0600 C   0  0  0  0  0  0  0  0  0  0  0  0
   -2.0240   -1.6900    0.7050 N   0  0  0  0  0  0  0  0  0  0  0  0
   -2.6620   -1.7790   -0.5390 C   0  0  0  0  0  0  0  0  0  0  0  0
   -2.2370   -1.0940   -1.4930 O   0  0  0  0  0  0  0  0  0  0  0  0
   -3.8380   -2.6420   -0.8350 C   0  0  0  0  0  0  0  0  0  0  0  0
   -4.9850   -1.8300   -1.2860 C   0  0  0  0  0  0  0  0  0  0  0  0
   -5.2810   -1.4360   -2.5640 C   0  0  0  0  0  0  0  0  0  0  0  0
   -6.4260   -0.7090   -2.5150 N   0  0  0  0  0  0  0  0  0  0  0  0
   -6.8440   -0.6430   -1.2430 C   0  0  0  0  0  0  0  0  0  0  0  0
   -8.0290    0.0350   -0.7110 C   0  0  0  0  0  0  0  0  0  0  0  0
   -8.9090    0.7170   -1.5140 C   0  0  0  0  0  0  0  0  0  0  0  0
  -10.0170    1.3490   -0.9610 C   0  0  0  0  0  0  0  0  0  0  0  0
  -10.2840    1.3230    0.3950 C   0  0  0  0  0  0  0  0  0  0  0  0
   -9.4060    0.6400    1.2070 C   0  0  0  0  0  0  0  0  0  0  0  0
   -9.7150    0.5910    2.9220 Cl  0  0  0  0  0  0  0  0  0  0  0  0
   -8.2980    0.0100    0.6410 C   0  0  0  0  0  0  0  0  0  0  0  0
   -5.9590   -1.3280   -0.5120 N   0  0  0  0  0  0  0  0  0  0  0  0
   -0.4670   -0.9450    2.3450 N   0  0  0  0  0  0  0  0  0  0  0  0
    0.5720   -0.2510    2.7890 C   0  0  0  0  0  0  0  0  0  0  0  0
    1.0450   -0.2830    4.1960 C   0  0  0  0  0  0  0  0  0  0  0  0
    1.2620    0.5400    1.9350 N   0  0  0  0  0  0  0  0  0  0  0  0
  1  2  1  0
  2  3  1  0
  3  4  1  0
  4  5  2  0
  4 10  1  0
  5  6  1  0
  6  7  2  0
  7  8  1  0
  7  9  1  0
  9 10  1  0
 10 11  1  1
 11 12  2  0
 11 13  1  0
 13 14  1  0
 14 15  1  0
 15 16  2  0
 15 37  1  0
 16 17  1  0
 17 18  1  0
 17 34  2  0
 18 19  1  0
 19 20  2  0
 19 21  1  0
 21 22  1  0
 22 23  2  0
 22 33  1  0
 23 24  1  0
 24 25  2  0
 25 26  1  0
 25 33  1  0
 26 27  2  0
 26 32  1  0
 27 28  1  0
 28 29  2  0
 29 30  1  0
 30 31  1  0
 30 32  2  0
 34 35  1  0
 35 36  1  0
 35 37  2  0
M  END
