
     RDKit          3D

 37 40  0  0  0  0  0  0  0  0999 V2000
   -6.1560   -4.6820   -1.3810 C   0  0  0  0  0  0  0  0  0  0  0  0
   -7.0540   -3.7990   -1.9610 O   0  0  0  0  0  0  0  0  0  0  0  0
   -7.8490   -3.2280   -0.9950 C   0  0  0  0  0  0  0  0  0  0  0  0
   -7.0370   -2.4730    0.0230 C   0  0  0  0  0  0  0  0  0  0  0  0
   -6.2820   -1.4270   -0.5490 O   0  0  0  0  0  0  0  0  0  0  0  0
   -5.4520   -0.6020    0.1830 C   0  0  0  0  0  0  0  0  0  0  0  0
   -5.3010   -0.7000    1.5490 C   0  0  0  0  0  0  0  0  0  0  0  0
   -4.4510    0.1470    2.2710 C   0  0  0  0  0  0  0  0  0  0  0  0
   -3.7430    1.1080    1.5890 C   0  0  0  0  0  0  0  0  0  0  0  0
   -2.8830    2.0260    2.3130 C   0  0  0  0  0  0  0  0  0  0  0  0
   -3.2470    2.7720    3.3590 N   0  0  0  0  0  0  0  0  0  0  0  0
   -2.2630    3.4960    3.8130 N   0  0  0  0  0  0  0  0  0  0  0  0
   -1.1850    3.2040    3.0130 C   0  0  0  0  0  0  0  0  0  0  0  0
    0.1700    3.7900    3.2140 C   0  0  0  0  0  0  0  0  0  0  0  0
   -1.5160    2.2920    2.0610 C   0  0  0  0  0  0  0  0  0  0  0  0
   -0.8330    1.5930    1.0450 N   0  0  0  0  0  0  0  0  0  0  0  0
    0.3220    1.9870    0.3310 C   0  0  0  0  0  0  0  0  0  0  0  0
    0.8020    3.1080    0.5650 O   0  0  0  0  0  0  0  0  0  0  0  0
    0.9420    1.1470   -0.6280 N   0  0  0  0  0  0  0  0  0  0  0  0
    2.0920    1.3590   -1.4160 C   0  0  0  0  0  0  0  0  0  0  0  0
    3.4200    1.5510   -0.7350 C   0  0  2  0  0  0  0  0  0  0  0  0
    4.4130    1.6660   -1.8920 C   0  0  0  0  0  0  0  0  0  0  0  0
    4.5830    0.3350   -2.5020 C   0  0  0  0  0  0  0  0  0  0  0  0
    5.0900   -0.7610   -1.8470 C   0  0  0  0  0  0  0  0  0  0  0  0
    5.1670   -1.9560   -2.6290 C   0  0  0  0  0  0  0  0  0  0  0  0
    5.5810   -3.1390   -2.3040 C   0  0  0  0  0  0  0  0  0  0  0  0
    5.5360   -4.2130   -3.3860 C   0  0  0  0  0  0  0  0  0  0  0  0
    6.1670   -3.6140   -0.7310 Cl  0  0  0  0  0  0  0  0  0  0  0  0
    5.5090   -0.6640   -0.4530 C   0  0  0  0  0  0  0  0  0  0  0  0
    4.3540   -0.3960    0.4830 C   0  0  0  0  0  0  0  0  0  0  0  0
    3.6080    0.7390    0.2990 N   0  0  0  0  0  0  0  0  0  0  0  0
    3.4870    1.4750    1.5480 C   0  0  0  0  0  0  0  0  0  0  0  0
    3.7450    2.8340    1.1890 N   0  0  0  0  0  0  0  0  0  0  0  0
    3.4420    2.9550   -0.1890 C   0  0  0  0  0  0  0  0  0  0  0  0
    3.2300    4.0160   -0.8590 O   0  0  0  0  0  0  0  0  0  0  0  0
   -3.8760    1.2260    0.2160 C   0  0  0  0  0  0  0  0  0  0  0  0
   -4.7290    0.3700   -0.4700 C   0  0  0  0  0  0  0  0  0  0  0  0
  1  2  1  0
  2  3  1  0
  3  4  1  0
  4  5  1  0
  5  6  1  0
  6  7  2  0
  6 37  1  0
  7  8  1  0
  8  9  2  0
  9 10  1  0
  9 36  1  0
 10 11  2  0
 10 15  1  0
 11 12  1  0
 12 13  1  0
 13 14  1  0
 13 15  2  0
 15 16  1  0
 16 17  1  0
 17 18  2  0
 17 19  1  0
 19 20  1  0
 21 20  1  6
 21 22  1  0
 21 31  1  0
 21 34  1  0
 22 23  1  0
 23 24  2  0
 24 25  1  0
 24 29  1  0
 25 26  2  3
 26 27  1  0
 26 28  1  0
 29 30  1  0
 30 31  1  0
 31 32  1  0
 32 33  1  0
 33 34  1  0
 34 35  2  0
 36 37  2  0
M  END
