
     RDKit          3D

 37 40  0  0  0  0  0  0  0  0999 V2000
   -8.4700   -1.7430    1.2780 C   0  0  0  0  0  0  0  0  0  0  0  0
   -7.9770   -0.5670    0.9510 C   0  0  0  0  0  0  0  0  0  0  0  0
   -6.7000   -0.1760    1.5070 N   0  0  0  0  0  0  0  0  0  0  0  0
   -6.7470    0.3140    2.8590 C   0  0  0  0  0  0  0  0  0  0  0  0
   -7.8250    1.7530    2.8390 Cl  0  0  0  0  0  0  0  0  0  0  0  0
   -5.5850   -0.3240    0.6550 C   0  0  1  0  0  0  0  0  0  0  0  0
   -5.6500    0.6110   -0.4890 C   0  0  0  0  0  0  0  0  0  0  0  0
   -5.1100    2.0030   -0.2530 C   0  0  0  0  0  0  0  0  0  0  0  0
   -3.6470    1.9610   -0.5470 C   0  0  0  0  0  0  0  0  0  0  0  0
   -3.1730    3.0340   -1.2070 N   0  0  0  0  0  0  0  0  0  0  0  0
   -1.8740    3.1280   -1.5460 C   0  0  0  0  0  0  0  0  0  0  0  0
   -1.4190    4.1350   -2.1680 O   0  0  0  0  0  0  0  0  0  0  0  0
   -1.0110    2.1150   -1.2180 C   0  0  0  0  0  0  0  0  0  0  0  0
   -1.4460    0.9770   -0.5330 C   0  0  0  0  0  0  0  0  0  0  0  0
   -0.5280   -0.0550   -0.1310 C   0  0  0  0  0  0  0  0  0  0  0  0
   -0.8210   -0.9920    0.6140 O   0  0  0  0  0  0  0  0  0  0  0  0
    0.8380   -0.0640   -0.6000 N   0  0  0  0  0  0  0  0  0  0  0  0
    1.6790   -1.1040   -0.2050 O   0  0  0  0  0  0  0  0  0  0  0  0
    2.5540   -1.7040   -1.0720 C   0  0  0  0  0  0  0  0  0  0  0  0
    2.1340   -2.7790   -1.7490 N   0  0  0  0  0  0  0  0  0  0  0  0
    2.8980   -3.4490   -2.6210 C   0  0  0  0  0  0  0  0  0  0  0  0
    4.1730   -3.0360   -2.8520 C   0  0  0  0  0  0  0  0  0  0  0  0
    4.6710   -1.9190   -2.1770 C   0  0  0  0  0  0  0  0  0  0  0  0
    3.8670   -1.2560   -1.2870 C   0  0  0  0  0  0  0  0  0  0  0  0
    4.2500   -0.0780   -0.5660 C   0  0  0  0  0  0  0  0  0  0  0  0
    5.3740    0.3610   -0.1030 C   0  0  0  0  0  0  0  0  0  0  0  0
    6.7040   -0.1340   -0.0940 C   0  0  0  0  0  0  0  0  0  0  0  0
    7.0400   -1.2560   -0.6000 O   0  0  0  0  0  0  0  0  0  0  0  0
    7.8480    0.5890    0.5040 C   0  0  0  0  0  0  0  0  0  0  0  0
    9.1180    0.0420    0.4850 C   0  0  0  0  0  0  0  0  0  0  0  0
   10.1810    0.7180    1.0740 C   0  0  0  0  0  0  0  0  0  0  0  0
    9.9320    1.9270    1.6650 C   0  0  0  0  0  0  0  0  0  0  0  0
    8.7110    2.4510    1.6820 N   0  0  0  0  0  0  0  0  0  0  0  0
    7.6570    1.7910    1.1040 C   0  0  0  0  0  0  0  0  0  0  0  0
   -2.7920    0.9260   -0.2070 C   0  0  0  0  0  0  0  0  0  0  0  0
   -3.1720   -0.3130    0.4410 N   0  0  0  0  0  0  0  0  0  0  0  0
   -4.2630   -0.3960    1.3830 C   0  0  0  0  0  0  0  0  0  0  0  0
  1  2  2  0
  2  3  1  0
  3  4  1  0
  6  3  1  1
  4  5  1  0
  6  7  1  0
  6 37  1  0
  7  8  1  0
  8  9  1  0
  9 10  1  0
  9 35  2  0
 10 11  1  0
 11 12  2  0
 11 13  1  0
 13 14  2  0
 14 15  1  0
 14 35  1  0
 15 16  2  0
 15 17  1  0
 17 18  1  0
 18 19  1  0
 19 20  2  0
 19 24  1  0
 20 21  1  0
 21 22  2  0
 22 23  1  0
 23 24  2  0
 24 25  1  0
 25 26  2  3
 26 27  1  0
 27 28  2  0
 27 29  1  0
 29 30  2  0
 29 34  1  0
 30 31  1  0
 31 32  2  0
 32 33  1  0
 33 34  2  0
 35 36  1  0
 36 37  1  0
M  END
