
     RDKit          3D

 49 52  0  0  0  0  0  0  0  0999 V2000
    7.8550    1.8930   -1.7130 C   0  0  0  0  0  0  0  0  0  0  0  0
    7.5150    0.4930   -2.2170 C   0  0  2  0  0  0  0  0  0  0  0  0
    6.4390    0.4640   -3.2420 C   0  0  0  0  0  0  0  0  0  0  0  0
    7.4300   -0.5120   -1.1340 C   0  0  0  0  0  0  0  0  0  0  0  0
    6.4960   -0.3080   -0.0850 N   0  0  0  0  0  0  0  0  0  0  0  0
    5.0930   -0.2310   -0.1630 C   0  0  0  0  0  0  0  0  0  0  0  0
    4.5170   -0.3450   -1.2430 O   0  0  0  0  0  0  0  0  0  0  0  0
    4.2210   -0.0060    1.0850 C   0  0  1  0  0  0  0  0  0  0  0  0
    3.0410    0.7550    0.6140 C   0  0  0  0  0  0  0  0  0  0  0  0
    1.9960    1.2120    1.5230 C   0  0  2  0  0  0  0  0  0  0  0  0
    2.6530    2.0300    2.5230 O   0  0  0  0  0  0  0  0  0  0  0  0
    1.0750    0.3010    2.2210 C   0  0  2  0  0  0  0  0  0  0  0  0
    0.3280   -0.5520    1.2180 C   0  0  0  0  0  0  0  0  0  0  0  0
    0.1930   -1.8560    1.6120 O   0  0  0  0  0  0  0  0  0  0  0  0
   -0.3020   -2.6990    0.6330 C   0  0  0  0  0  0  0  0  0  0  0  0
   -1.5260   -2.2130   -0.0650 C   0  0  0  0  0  0  0  0  0  0  0  0
   -1.1830   -1.6840   -1.3320 C   0  0  0  0  0  0  0  0  0  0  0  0
   -2.0890   -1.1720   -2.2170 C   0  0  0  0  0  0  0  0  0  0  0  0
   -3.3840   -1.2060   -1.7840 C   0  0  0  0  0  0  0  0  0  0  0  0
   -3.7830   -1.7240   -0.5240 C   0  0  0  0  0  0  0  0  0  0  0  0
   -2.8370   -2.2310    0.3420 C   0  0  0  0  0  0  0  0  0  0  0  0
   -5.2610   -1.6160   -0.4020 C   0  0  1  0  0  0  0  0  0  0  0  0
   -5.8520   -3.0040   -0.4380 C   0  0  0  0  0  0  0  0  0  0  0  0
   -6.2300   -3.6160   -1.6130 C   0  0  0  0  0  0  0  0  0  0  0  0
   -6.7740   -4.8820   -1.6620 C   0  0  0  0  0  0  0  0  0  0  0  0
   -6.9610   -5.5900   -0.4940 C   0  0  0  0  0  0  0  0  0  0  0  0
   -6.5850   -4.9840    0.6840 C   0  0  0  0  0  0  0  0  0  0  0  0
   -6.0390   -3.7150    0.7350 C   0  0  0  0  0  0  0  0  0  0  0  0
   -5.8110   -0.7990    0.6220 N   0  0  0  0  0  0  0  0  0  0  0  0
   -5.5140    0.5490    0.9280 C   0  0  0  0  0  0  0  0  0  0  0  0
   -6.6390    1.2610    1.0480 O   0  0  0  0  0  0  0  0  0  0  0  0
   -4.2520    1.2730    1.1250 C   0  0  0  0  0  0  0  0  0  0  0  0
   -3.1670    1.0130    1.9320 C   0  0  0  0  0  0  0  0  0  0  0  0
   -2.1250    1.9110    1.9490 C   0  0  0  0  0  0  0  0  0  0  0  0
   -2.1970    3.0700    1.1360 C   0  0  0  0  0  0  0  0  0  0  0  0
   -3.2540    3.3660    0.3180 C   0  0  0  0  0  0  0  0  0  0  0  0
   -3.2920    4.5370   -0.4900 N   0  0  0  0  0  0  0  0  0  0  0  0
   -3.8580    5.7520    0.0420 C   0  0  0  0  0  0  0  0  0  0  0  0
   -2.6730    4.5460   -2.1030 S   0  0  1  0  0  0  0  0  0  0  0  0
   -0.9400    4.1680   -2.0190 C   0  0  0  0  0  0  0  0  0  0  0  0
   -3.4390    3.5200   -2.8900 O   0  0  0  0  0  0  0  0  0  0  0  0
   -2.8450    5.8620   -2.7590 O   0  0  0  0  0  0  0  0  0  0  0  0
   -4.2680    2.4510    0.3330 C   0  0  0  0  0  0  0  0  0  0  0  0
   -0.8770    1.9390    2.7470 C   0  0  0  0  0  0  0  0  0  0  0  0
   -0.6010    3.1290    3.3100 O   0  0  0  0  0  0  0  0  0  0  0  0
    0.1110    1.0180    3.0710 N   0  0  0  0  0  0  0  0  0  0  0  0
    3.9860   -1.4090    1.5750 C   0  0  1  0  0  0  0  0  0  0  0  0
    3.2990   -2.2930    0.5740 C   0  0  0  0  0  0  0  0  0  0  0  0
    5.3520   -2.0870    1.8760 C   0  0  0  0  0  0  0  0  0  0  0  0
  2  1  1  1
  2  3  1  0
  2  4  1  0
  4  5  1  0
  5  6  1  0
  6  7  2  0
  6  8  1  0
  8  9  1  6
  8 47  1  0
  9 10  1  0
 10 11  1  1
 10 12  1  0
 12 13  1  6
 12 46  1  0
 13 14  1  0
 14 15  1  0
 15 16  1  0
 16 17  2  0
 16 21  1  0
 17 18  1  0
 18 19  2  0
 19 20  1  0
 20 21  2  0
 20 22  1  0
 22 23  1  1
 22 29  1  0
 23 24  2  0
 23 28  1  0
 24 25  1  0
 25 26  2  0
 26 27  1  0
 27 28  2  0
 29 30  1  0
 30 31  2  0
 30 32  1  0
 32 33  2  0
 32 43  1  0
 33 34  1  0
 34 35  2  0
 34 44  1  0
 35 36  1  0
 36 37  1  0
 36 43  2  0
 37 38  1  0
 37 39  1  0
 39 40  1  1
 39 41  2  0
 39 42  2  0
 44 45  2  0
 44 46  1  0
 47 48  1  6
 47 49  1  0
M  END
