
     RDKit          3D

 37 40  0  0  0  0  0  0  0  0999 V2000
    8.2480    1.8300   -0.6120 C   0  0  0  0  0  0  0  0  0  0  0  0
    8.3950    0.6710    0.2220 N   0  0  0  0  0  0  0  0  0  0  0  0
    9.1660    0.8480    1.4520 C   0  0  0  0  0  0  0  0  0  0  0  0
    7.8470   -0.5760   -0.0930 C   0  0  0  0  0  0  0  0  0  0  0  0
    8.0280   -1.5600    0.7010 O   0  0  0  0  0  0  0  0  0  0  0  0
    7.0660   -0.7830   -1.3190 C   0  0  0  0  0  0  0  0  0  0  0  0
    5.7480   -1.2470   -0.9780 N   0  0  0  0  0  0  0  0  0  0  0  0
    5.5530   -2.5740   -0.8750 C   0  0  0  0  0  0  0  0  0  0  0  0
    6.5060   -3.3550   -1.0700 O   0  0  0  0  0  0  0  0  0  0  0  0
    4.3320   -3.0190   -0.5650 N   0  0  0  0  0  0  0  0  0  0  0  0
    3.3190   -2.1680   -0.3600 C   0  0  0  0  0  0  0  0  0  0  0  0
    2.1730   -2.5970   -0.0690 O   0  0  0  0  0  0  0  0  0  0  0  0
    3.5010   -0.8450   -0.4600 N   0  0  0  0  0  0  0  0  0  0  0  0
    2.4020    0.1130   -0.2510 C   0  0  0  0  0  0  0  0  0  0  0  0
    1.7360    0.3830   -1.5720 C   0  0  0  0  0  0  0  0  0  0  0  0
    0.6530    1.3070   -1.3790 N   0  0  0  0  0  0  0  0  0  0  0  0
   -0.4490    0.9330   -0.5500 C   0  0  0  0  0  0  0  0  0  0  0  0
   -1.6010    0.3990   -1.0880 C   0  0  0  0  0  0  0  0  0  0  0  0
   -2.6820    0.0320   -0.3020 C   0  0  0  0  0  0  0  0  0  0  0  0
   -3.8730   -0.4980   -0.9420 C   0  0  0  0  0  0  0  0  0  0  0  0
   -4.9700    0.5460   -1.1470 C   0  0  0  0  0  0  0  0  0  0  0  0
   -6.1440   -0.0570   -1.8030 C   0  0  0  0  0  0  0  0  0  0  0  0
   -7.3150   -0.0480   -1.2340 C   0  0  0  0  0  0  0  0  0  0  0  0
   -7.6500    0.5180    0.0550 C   0  0  0  0  0  0  0  0  0  0  0  0
   -8.8640    0.1490    0.4240 C   0  0  0  0  0  0  0  0  0  0  0  0
   -9.6600    0.6040    1.9050 Cl  0  0  0  0  0  0  0  0  0  0  0  0
   -9.4620   -0.7230   -0.6230 C   0  0  0  0  0  0  0  0  0  0  0  0
   -8.5640   -0.6380   -1.8210 C   0  0  0  0  0  0  0  0  0  0  0  0
   -2.5990    0.2070    1.0540 C   0  0  0  0  0  0  0  0  0  0  0  0
   -1.4490    0.7460    1.6360 C   0  0  0  0  0  0  0  0  0  0  0  0
   -0.3790    1.1040    0.8130 C   0  0  0  0  0  0  0  0  0  0  0  0
   -1.3050    0.9620    3.0760 C   0  0  0  0  0  0  0  0  0  0  0  0
   -2.6010    0.8230    3.8300 C   0  0  0  0  0  0  0  0  0  0  0  0
   -3.4400   -0.3150    3.3600 C   0  0  0  0  0  0  0  0  0  0  0  0
   -3.6550   -0.1790    1.9090 N   0  0  0  0  0  0  0  0  0  0  0  0
    4.7300   -0.4080   -0.7710 C   0  0  0  0  0  0  0  0  0  0  0  0
    4.9070    0.8270   -0.8650 O   0  0  0  0  0  0  0  0  0  0  0  0
  1  2  1  0
  2  3  1  0
  2  4  1  0
  4  5  2  0
  4  6  1  0
  6  7  1  0
  7  8  1  0
  7 36  1  0
  8  9  2  0
  8 10  1  0
 10 11  1  0
 11 12  2  0
 11 13  1  0
 13 14  1  0
 13 36  1  0
 14 15  1  0
 15 16  1  0
 16 17  1  0
 17 18  2  0
 17 31  1  0
 18 19  1  0
 19 20  1  0
 19 29  2  0
 20 21  1  0
 21 22  1  0
 22 23  2  3
 23 24  1  0
 23 28  1  0
 24 25  2  0
 25 26  1  0
 25 27  1  0
 27 28  1  0
 29 30  1  0
 29 35  1  0
 30 31  2  0
 30 32  1  0
 32 33  1  0
 33 34  1  0
 34 35  1  0
 36 37  2  0
M  END
