
     RDKit          3D

 11 11  0  0  0  0  0  0  0  0999 V2000
    2.9850    0.9020   -0.6270 O   0  0  0  0  0  0  0  0  0  0  0  0
    2.9430   -0.4920   -0.5300 C   0  0  0  0  0  0  0  0  0  0  0  0
    1.9980   -0.8240    0.4550 O   0  0  0  0  0  0  0  0  0  0  0  0
    0.7570   -0.3240    0.0780 C   0  0  1  0  0  0  0  0  0  0  0  0
   -0.1880   -1.4770   -0.1230 C   0  0  0  0  0  0  0  0  0  0  0  0
   -1.5810   -1.0210   -0.4370 C   0  0  0  0  0  0  0  0  0  0  0  0
   -1.9580    0.0810    0.5390 C   0  0  2  0  0  0  0  0  0  0  0  0
   -3.2270    0.5700    0.3170 O   0  0  0  0  0  0  0  0  0  0  0  0
   -0.8910    1.1480    0.4240 C   0  0  1  0  0  0  0  0  0  0  0  0
   -1.2630    2.3510    0.9840 O   0  0  0  0  0  0  0  0  0  0  0  0
    0.2720    0.6170    0.9830 O   0  0  0  0  0  0  0  0  0  0  0  0
  1  2  1  0
  2  3  1  0
  4  3  1  1
  4  5  1  0
  4 11  1  0
  5  6  1  0
  6  7  1  0
  7  8  1  6
  7  9  1  0
  9 10  1  1
  9 11  1  0
M  END
