
     RDKit          3D

 11 11  0  0  0  0  0  0  0  0999 V2000
    2.5290    0.7270   -0.0680 C   0  0  0  0  0  0  0  0  0  0  0  0
    1.0920    0.2720   -0.1340 C   0  0  2  0  0  0  0  0  0  0  0  0
    0.2090    1.2950    0.2850 O   0  0  0  0  0  0  0  0  0  0  0  0
   -0.8220    1.3310   -0.6460 C   0  0  0  0  0  0  0  0  0  0  0  0
   -1.8780    0.3020   -0.4120 C   0  0  2  0  0  0  0  0  0  0  0  0
   -2.7470    0.7310    0.5950 O   0  0  0  0  0  0  0  0  0  0  0  0
   -1.3500   -1.0440   -0.0380 C   0  0  1  0  0  0  0  0  0  0  0  0
   -0.7020   -1.7010   -1.0670 O   0  0  0  0  0  0  0  0  0  0  0  0
   -0.5470   -0.9480    1.0750 O   0  0  0  0  0  0  0  0  0  0  0  0
    0.8170   -0.9120    0.7660 C   0  0  2  0  0  0  0  0  0  0  0  0
    1.4800   -0.7320    1.9940 O   0  0  0  0  0  0  0  0  0  0  0  0
  2  1  1  1
  2  3  1  0
  2 10  1  0
  3  4  1  0
  4  5  1  0
  5  6  1  1
  5  7  1  0
  7  8  1  6
  7  9  1  0
  9 10  1  0
 10 11  1  1
M  END
