
     RDKit          3D

 11 11  0  0  0  0  0  0  0  0999 V2000
    0.5570   -1.3660   -1.2890 C   0  0  0  0  0  0  0  0  0  0  0  0
    0.4750   -0.2770   -0.2310 C   0  0  2  0  0  0  0  0  0  0  0  0
    1.6370    0.6800   -0.4580 C   0  0  2  0  0  0  0  0  0  0  0  0
    2.8490    0.0050   -0.3230 O   0  0  0  0  0  0  0  0  0  0  0  0
    1.6420    1.6950    0.4990 O   0  0  0  0  0  0  0  0  0  0  0  0
    0.5880   -0.7850    1.0400 O   0  0  0  0  0  0  0  0  0  0  0  0
   -0.3600   -0.2220    1.8530 C   0  0  1  0  0  0  0  0  0  0  0  0
    0.0090    0.9700    2.4350 O   0  0  0  0  0  0  0  0  0  0  0  0
   -1.5460    0.0310    0.9640 C   0  0  0  0  0  0  0  0  0  0  0  0
   -0.8500    0.3900   -0.3560 C   0  0  2  0  0  0  0  0  0  0  0  0
   -1.6880   -0.1810   -1.4030 N   0  0  0  0  0  0  0  0  0  0  0  0
  2  1  1  6
  2  3  1  0
  2  6  1  0
  2 10  1  0
  3  4  1  1
  3  5  1  0
  6  7  1  0
  7  8  1  6
  7  9  1  0
  9 10  1  0
 10 11  1  6
M  CHG  1  11   1
M  END
