
     RDKit          3D

 11 11  0  0  0  0  0  0  0  0999 V2000
   -0.8500    0.8900   -1.7100 N   0  0  0  0  0  0  0  0  0  0  0  0
   -0.4560    0.4980   -0.3690 C   0  0  1  0  0  0  0  0  0  0  0  0
   -0.9040   -0.9280   -0.1660 C   0  0  2  0  0  0  0  0  0  0  0  0
   -2.0170   -0.9970    0.8230 C   0  0  0  0  0  0  0  0  0  0  0  0
   -1.7240   -0.5250    2.0770 O   0  0  0  0  0  0  0  0  0  0  0  0
    0.2260   -1.6490    0.1980 O   0  0  0  0  0  0  0  0  0  0  0  0
    1.2830   -1.0580   -0.5330 C   0  0  0  0  0  0  0  0  0  0  0  0
    1.0390    0.4010   -0.2220 C   0  0  1  0  0  0  0  0  0  0  0  0
    1.7150    1.2440   -1.0930 O   0  0  0  0  0  0  0  0  0  0  0  0
    1.4540    0.6300    1.2160 C   0  0  0  0  0  0  0  0  0  0  0  0
    2.8410    0.3910    1.3530 O   0  0  0  0  0  0  0  0  0  0  0  0
  2  1  1  6
  2  3  1  0
  2  8  1  0
  3  4  1  1
  3  6  1  0
  4  5  1  0
  6  7  1  0
  7  8  1  0
  8  9  1  6
  8 10  1  0
 10 11  1  0
M  CHG  1   1   1
M  END
