
     RDKit          3D

 11 11  0  0  0  0  0  0  0  0999 V2000
    1.7510   -1.5610    0.2970 N   0  0  0  0  0  0  0  0  0  0  0  0
    1.0960   -0.3350    0.0520 C   0  0  2  0  0  0  0  0  0  0  0  0
    1.8500    0.7610    0.8190 C   0  0  0  0  0  0  0  0  0  0  0  0
    3.1730    0.8470    0.3950 O   0  0  0  0  0  0  0  0  0  0  0  0
   -0.3320   -0.2520    0.4680 C   0  0  2  0  0  0  0  0  0  0  0  0
   -1.2510   -1.2250   -0.1700 C   0  0  0  0  0  0  0  0  0  0  0  0
   -2.1360   -0.5160   -0.9850 O   0  0  0  0  0  0  0  0  0  0  0  0
   -2.3500    0.6540   -0.2630 C   0  0  2  0  0  0  0  0  0  0  0  0
   -3.0650    1.6040   -0.9490 O   0  0  0  0  0  0  0  0  0  0  0  0
   -0.8970    1.0870   -0.0190 C   0  0  2  0  0  0  0  0  0  0  0  0
   -0.3670    1.4050   -1.2490 O   0  0  0  0  0  0  0  0  0  0  0  0
  2  1  1  1
  2  3  1  0
  2  5  1  0
  3  4  1  0
  5  6  1  6
  5 10  1  0
  6  7  1  0
  7  8  1  0
  8  9  1  6
  8 10  1  0
 10 11  1  6
M  CHG  1   1   1
M  END
