
     RDKit          3D

 19 20  0  0  0  0  0  0  0  0999 V2000
    6.3600    0.3910   -0.4310 C   0  0  0  0  0  0  0  0  0  0  0  0
    5.3620   -0.6010    0.0610 C   0  0  0  0  0  0  0  0  0  0  0  0
    4.1630   -0.0160    0.5620 N   0  0  0  0  0  0  0  0  0  0  0  0
    3.3540    0.6710   -0.1460 C   0  0  0  0  0  0  0  0  0  0  0  0
    3.6150    0.9220   -1.6080 C   0  0  0  0  0  0  0  0  0  0  0  0
    2.1250    1.2300    0.5000 C   0  0  0  0  0  0  0  0  0  0  0  0
    0.9120    0.7150   -0.0960 N   0  0  0  0  0  0  0  0  0  0  0  0
   -0.2230    1.2940    0.5640 C   0  0  0  0  0  0  0  0  0  0  0  0
   -0.9330    0.2630    1.4530 C   0  0  0  0  0  0  0  0  0  0  0  0
   -1.5190   -0.7330    0.5020 C   0  0  2  0  0  0  0  0  0  0  0  0
   -2.4330   -1.6510    1.1130 N   0  0  0  0  0  0  0  0  0  0  0  0
   -3.5940   -1.0440    1.6740 C   0  0  0  0  0  0  0  0  0  0  0  0
   -4.5230   -0.4670    0.6700 C   0  0  0  0  0  0  0  0  0  0  0  0
   -4.8740    0.7900    0.6030 C   0  0  0  0  0  0  0  0  0  0  0  0
   -5.8030    0.9770   -0.5170 C   0  0  0  0  0  0  0  0  0  0  0  0
   -5.9470   -0.3630   -1.1000 C   0  0  0  0  0  0  0  0  0  0  0  0
   -5.1950   -1.1880   -0.3950 C   0  0  0  0  0  0  0  0  0  0  0  0
   -0.4030   -1.3950   -0.2230 C   0  0  0  0  0  0  0  0  0  0  0  0
    0.8890   -0.7020   -0.2080 C   0  0  0  0  0  0  0  0  0  0  0  0
  1  2  1  0
  2  3  1  0
  3  4  2  3
  4  5  1  0
  4  6  1  0
  6  7  1  0
  7  8  1  0
  7 19  1  0
  8  9  1  0
  9 10  1  0
 10 11  1  1
 10 18  1  0
 11 12  1  0
 12 13  1  0
 13 14  2  0
 13 17  1  0
 14 15  1  0
 15 16  1  0
 16 17  2  0
 18 19  1  0
M  CHG  1   3   1
M  END
