
     RDKit          3D

 19 21  0  0  0  0  0  0  0  0999 V2000
   -4.3250   -0.0110    0.9830 C   0  0  0  0  0  0  0  0  0  0  0  0
   -4.3890   -1.0120   -0.1380 C   0  0  0  0  0  0  0  0  0  0  0  0
   -3.2310   -0.9690   -1.0020 N   0  0  1  0  0  0  0  0  0  0  0  0
   -3.4320   -0.1690   -2.1660 C   0  0  0  0  0  0  0  0  0  0  0  0
   -3.0750    1.2740   -1.9880 C   0  0  0  0  0  0  0  0  0  0  0  0
   -1.5980    1.4110   -1.6850 C   0  0  0  0  0  0  0  0  0  0  0  0
   -1.2580    0.4630   -0.5870 C   0  0  0  0  0  0  0  0  0  0  0  0
   -0.1000    0.7470    0.1410 C   0  0  0  0  0  0  0  0  0  0  0  0
    0.3070   -0.0540    1.1870 C   0  0  0  0  0  0  0  0  0  0  0  0
    1.4930    0.2200    1.9520 N   0  0  0  0  0  0  0  0  0  0  0  0
    2.6180   -0.5640    1.7770 N   0  0  0  0  0  0  0  0  0  0  0  0
    3.6300   -0.2700    1.0780 C   0  0  0  0  0  0  0  0  0  0  0  0
    3.8690    0.9540    0.2900 C   0  0  0  0  0  0  0  0  0  0  0  0
    5.4010    1.0140    0.3160 C   0  0  0  0  0  0  0  0  0  0  0  0
    5.7750   -0.4280    0.0820 C   0  0  0  0  0  0  0  0  0  0  0  0
    4.8080   -1.1840    0.9580 C   0  0  0  0  0  0  0  0  0  0  0  0
   -0.4880   -1.1520    1.4760 C   0  0  0  0  0  0  0  0  0  0  0  0
   -1.6280   -1.4260    0.7520 C   0  0  0  0  0  0  0  0  0  0  0  0
   -2.0420   -0.6280   -0.2950 C   0  0  0  0  0  0  0  0  0  0  0  0
  1  2  1  0
  3  2  1  1
  3  4  1  0
  3 19  1  0
  4  5  1  0
  5  6  1  0
  6  7  1  0
  7  8  2  0
  7 19  1  0
  8  9  1  0
  9 10  1  0
  9 17  2  0
 10 11  1  0
 11 12  2  3
 12 13  1  0
 12 16  1  0
 13 14  1  0
 14 15  1  0
 15 16  1  0
 17 18  1  0
 18 19  2  0
M  CHG  1   3   1
M  END
