
     RDKit          3D

 19 21  0  0  0  0  0  0  0  0999 V2000
   -6.2170    0.6880   -0.9970 C   0  0  0  0  0  0  0  0  0  0  0  0
   -4.8970    0.2350   -0.4780 C   0  0  0  0  0  0  0  0  0  0  0  0
   -4.6140   -1.1200   -0.5030 C   0  0  0  0  0  0  0  0  0  0  0  0
   -3.4100   -1.5710   -0.0330 C   0  0  0  0  0  0  0  0  0  0  0  0
   -2.4880   -0.6750    0.4610 C   0  0  0  0  0  0  0  0  0  0  0  0
   -1.2300   -1.1430    0.9520 N   0  0  0  0  0  0  0  0  0  0  0  0
   -0.2950   -0.2400    1.4530 N   0  0  0  0  0  0  0  0  0  0  0  0
    0.7770   -0.0180    0.7960 C   0  0  0  0  0  0  0  0  0  0  0  0
    1.0080   -0.7240   -0.4860 C   0  0  0  0  0  0  0  0  0  0  0  0
    2.4780   -0.9570   -0.5770 C   0  0  0  0  0  0  0  0  0  0  0  0
    3.1950   -1.9920   -0.9620 C   0  0  0  0  0  0  0  0  0  0  0  0
    4.6140   -1.6230   -0.8290 C   0  0  0  0  0  0  0  0  0  0  0  0
    4.6010   -0.2470   -0.3190 C   0  0  0  0  0  0  0  0  0  0  0  0
    3.3470    0.1350   -0.1740 C   0  0  0  0  0  0  0  0  0  0  0  0
    2.7170    1.3450    0.2750 N   0  0  2  0  0  0  0  0  0  0  0  0
    3.6470    2.2640    0.8580 C   0  0  0  0  0  0  0  0  0  0  0  0
    1.7690    0.9390    1.3240 C   0  0  0  0  0  0  0  0  0  0  0  0
   -2.7760    0.6690    0.4830 C   0  0  0  0  0  0  0  0  0  0  0  0
   -3.9690    1.1230    0.0190 C   0  0  0  0  0  0  0  0  0  0  0  0
  1  2  1  0
  2  3  2  0
  2 19  1  0
  3  4  1  0
  4  5  2  0
  5  6  1  0
  5 18  1  0
  6  7  1  0
  7  8  2  3
  8  9  1  0
  8 17  1  0
  9 10  1  0
 10 11  2  0
 10 14  1  0
 11 12  1  0
 12 13  1  0
 13 14  2  0
 14 15  1  0
 15 16  1  1
 15 17  1  0
 18 19  2  0
M  CHG  1  15   1
M  END
