
     RDKit          3D

 24 24  0  0  0  0  0  0  0  0999 V2000
    1.7260   -1.2820   -2.7350 O   0  0  0  0  0  0  0  0  0  0  0  0
    1.8480   -1.8180   -1.5790 C   0  0  0  0  0  0  0  0  0  0  0  0
    1.1690   -2.9940   -1.3470 O   0  0  0  0  0  0  0  0  0  0  0  0
    2.6980   -1.1500   -0.5900 C   0  0  2  0  0  0  0  0  0  0  0  0
    2.6620   -1.7680    0.6260 O   0  0  0  0  0  0  0  0  0  0  0  0
    2.5130    0.3300   -0.4560 C   0  0  1  0  0  0  0  0  0  0  0  0
    2.4650    0.8220   -1.7870 O   0  0  0  0  0  0  0  0  0  0  0  0
    1.3670    0.7880    0.3520 C   0  0  2  0  0  0  0  0  0  0  0  0
    0.1930    0.3270   -0.1970 O   0  0  0  0  0  0  0  0  0  0  0  0
   -0.6630   -0.3010    0.6400 C   0  0  2  0  0  0  0  0  0  0  0  0
   -0.9140   -1.5760    0.2970 O   0  0  0  0  0  0  0  0  0  0  0  0
   -1.9730   -1.7520   -0.5400 C   0  0  2  0  0  0  0  0  0  0  0  0
   -1.7800   -1.0290   -1.8260 C   0  0  0  0  0  0  0  0  0  0  0  0
   -2.9090   -1.2240   -2.6380 O   0  0  0  0  0  0  0  0  0  0  0  0
   -3.2620   -1.4510    0.1760 C   0  0  2  0  0  0  0  0  0  0  0  0
   -4.0240   -0.6380   -0.6770 O   0  0  0  0  0  0  0  0  0  0  0  0
   -2.9220   -0.6470    1.4040 C   0  0  2  0  0  0  0  0  0  0  0  0
   -4.0210   -0.1260    2.0430 O   0  0  0  0  0  0  0  0  0  0  0  0
   -1.9210    0.4270    1.0010 C   0  0  1  0  0  0  0  0  0  0  0  0
   -1.7760    1.2370    2.1280 O   0  0  0  0  0  0  0  0  0  0  0  0
    1.3700    2.3150    0.3720 C   0  0  2  0  0  0  0  0  0  0  0  0
    1.2980    2.8920   -0.8800 O   0  0  0  0  0  0  0  0  0  0  0  0
    2.4740    2.9250    1.1630 C   0  0  0  0  0  0  0  0  0  0  0  0
    3.7300    2.8660    0.6380 O   0  0  0  0  0  0  0  0  0  0  0  0
  1  2  2  0
  2  3  1  0
  2  4  1  0
  4  5  1  1
  4  6  1  0
  6  7  1  6
  6  8  1  0
  8  9  1  6
  8 21  1  0
 10  9  1  6
 10 11  1  0
 10 19  1  0
 11 12  1  0
 12 13  1  6
 12 15  1  0
 13 14  1  0
 15 16  1  6
 15 17  1  0
 17 18  1  6
 17 19  1  0
 19 20  1  1
 21 22  1  6
 21 23  1  0
 23 24  1  0
M  END
