
     RDKit          3D

 19 21  0  0  0  0  0  0  0  0999 V2000
    5.9030    0.0360   -0.3620 C   0  0  0  0  0  0  0  0  0  0  0  0
    4.9680   -0.7170   -1.3080 C   0  0  0  0  0  0  0  0  0  0  0  0
    3.6300   -0.7060   -0.6730 C   0  0  0  0  0  0  0  0  0  0  0  0
    3.2650   -1.7170    0.1780 C   0  0  0  0  0  0  0  0  0  0  0  0
    2.0180   -1.7110    0.7720 C   0  0  0  0  0  0  0  0  0  0  0  0
    1.0980   -0.7000    0.5370 C   0  0  0  0  0  0  0  0  0  0  0  0
   -0.2000   -0.8040    1.2340 C   0  0  0  0  0  0  0  0  0  0  0  0
   -1.2140    0.0810    0.7720 N   0  0  0  0  0  0  0  0  0  0  0  0
   -1.6940    0.0030   -0.5890 C   0  0  0  0  0  0  0  0  0  0  0  0
   -3.1940   -0.1910   -0.4930 C   0  0  2  0  0  0  0  0  0  0  0  0
   -3.8310   -0.0520   -1.7880 N   0  0  0  0  0  0  0  0  0  0  0  0
   -5.1930    0.2650   -1.4040 C   0  0  0  0  0  0  0  0  0  0  0  0
   -4.9560    1.2020   -0.2770 C   0  0  0  0  0  0  0  0  0  0  0  0
   -3.7720    0.9370    0.2690 C   0  0  0  0  0  0  0  0  0  0  0  0
   -3.0330    1.4800    1.3500 N   0  0  0  0  0  0  0  0  0  0  0  0
   -1.8170    1.0730    1.5900 C   0  0  0  0  0  0  0  0  0  0  0  0
   -1.0030    1.6220    2.7280 C   0  0  0  0  0  0  0  0  0  0  0  0
    1.4720    0.3060   -0.3150 C   0  0  0  0  0  0  0  0  0  0  0  0
    2.7230    0.3030   -0.9140 C   0  0  0  0  0  0  0  0  0  0  0  0
  1  2  1  0
  2  3  1  0
  3  4  2  0
  3 19  1  0
  4  5  1  0
  5  6  2  0
  6  7  1  0
  6 18  1  0
  7  8  1  0
  8  9  1  0
  8 16  1  0
 10  9  1  6
 10 11  1  0
 10 14  1  0
 11 12  1  0
 12 13  1  0
 13 14  2  0
 14 15  1  0
 15 16  2  0
 16 17  1  0
 18 19  2  0
M  CHG  1  11   1
M  END
