
     RDKit          3D

 19 19  0  0  0  0  0  0  0  0999 V2000
   -3.3420    0.4540    1.4240 C   0  0  0  0  0  0  0  0  0  0  0  0
   -2.3140    0.5540    0.6540 C   0  0  0  0  0  0  0  0  0  0  0  0
   -2.4730    0.5420   -0.7960 N   0  0  0  0  0  0  0  0  0  0  0  0
   -1.5160    1.0200   -1.7350 C   0  0  0  0  0  0  0  0  0  0  0  0
   -0.2670    1.5810   -1.1350 C   0  0  0  0  0  0  0  0  0  0  0  0
    0.0800    0.7830    0.0430 N   0  0  0  0  0  0  0  0  0  0  0  0
    1.3660    0.2050    0.1490 C   0  0  0  0  0  0  0  0  0  0  0  0
    1.7110   -0.8190   -0.8710 C   0  0  0  0  0  0  0  0  0  0  0  0
    1.0050   -2.0810   -0.9030 C   0  0  0  0  0  0  0  0  0  0  0  0
    0.0750   -2.4360   -0.0800 C   0  0  0  0  0  0  0  0  0  0  0  0
   -0.6040   -3.7450   -0.1810 C   0  0  0  0  0  0  0  0  0  0  0  0
   -1.4950   -4.0160    0.6540 O   0  0  0  0  0  0  0  0  0  0  0  0
    2.6420   -0.6600   -1.7700 C   0  0  0  0  0  0  0  0  0  0  0  0
    3.5020    0.4360   -1.9990 C   0  0  0  0  0  0  0  0  0  0  0  0
    3.5630    1.6520   -1.3000 N   0  0  0  0  0  0  0  0  0  0  0  0
    4.3780    0.3660   -2.9780 O   0  0  0  0  0  0  0  0  0  0  0  0
   -0.9280    0.6840    1.0800 C   0  0  0  0  0  0  0  0  0  0  0  0
   -0.4950    0.7100    2.2910 C   0  0  0  0  0  0  0  0  0  0  0  0
   -1.2970    0.6150    3.5190 C   0  0  0  0  0  0  0  0  0  0  0  0
  1  2  2  0
  2  3  1  0
  2 17  1  0
  3  4  1  0
  4  5  1  0
  5  6  1  0
  6  7  1  0
  6 17  1  0
  7  8  1  0
  8  9  1  0
  8 13  2  3
  9 10  2  3
 10 11  1  0
 11 12  2  0
 13 14  1  0
 14 15  1  0
 14 16  2  0
 17 18  2  3
 18 19  1  0
M  END
