
     RDKit          3D

 19 21  0  0  0  0  0  0  0  0999 V2000
   -3.6920   -2.1800    0.1040 C   0  0  0  0  0  0  0  0  0  0  0  0
   -3.0010   -1.7500   -1.1220 N   0  0  0  0  0  0  0  0  0  0  0  0
   -1.6750   -1.3930   -0.7980 C   0  0  0  0  0  0  0  0  0  0  0  0
   -1.4480   -0.0020   -0.4060 C   0  0  0  0  0  0  0  0  0  0  0  0
   -2.4200    0.9660   -0.3310 C   0  0  0  0  0  0  0  0  0  0  0  0
   -2.1670    2.2690    0.0440 C   0  0  0  0  0  0  0  0  0  0  0  0
   -3.2350    3.3070    0.1190 C   0  0  0  0  0  0  0  0  0  0  0  0
   -0.8880    2.6320    0.3600 C   0  0  0  0  0  0  0  0  0  0  0  0
    0.1190    1.6800    0.2960 C   0  0  0  0  0  0  0  0  0  0  0  0
   -0.1540    0.3680   -0.0840 C   0  0  0  0  0  0  0  0  0  0  0  0
    0.9420   -0.6350   -0.1460 C   0  0  0  0  0  0  0  0  0  0  0  0
    2.1690   -0.1780    0.5690 C   0  0  1  0  0  0  0  0  0  0  0  0
    3.2460   -1.0980    0.3500 N   0  0  0  0  0  0  0  0  0  0  0  0
    4.2940   -1.0050   -0.4920 C   0  0  0  0  0  0  0  0  0  0  0  0
    5.0690   -2.1410   -0.3470 C   0  0  0  0  0  0  0  0  0  0  0  0
    4.4820   -2.9070    0.5770 N   0  0  0  0  0  0  0  0  0  0  0  0
    3.3730   -2.2690    0.9990 C   0  0  0  0  0  0  0  0  0  0  0  0
    2.4970    1.2140    0.0110 C   0  0  0  0  0  0  0  0  0  0  0  0
    1.4840    2.1390    0.6530 C   0  0  0  0  0  0  0  0  0  0  0  0
  1  2  1  0
  2  3  1  0
  3  4  1  0
  4  5  2  0
  4 10  1  0
  5  6  1  0
  6  7  1  0
  6  8  2  0
  8  9  1  0
  9 10  2  0
  9 19  1  0
 10 11  1  0
 11 12  1  0
 12 13  1  6
 12 18  1  0
 13 14  1  0
 13 17  1  0
 14 15  2  0
 15 16  1  0
 16 17  2  0
 18 19  1  0
M  CHG  1   2   1
M  END
