
     RDKit          3D

 19 20  0  0  0  0  0  0  0  0999 V2000
    3.6480   -0.4530    2.2500 O   0  0  0  0  0  0  0  0  0  0  0  0
    3.2670   -0.2360    1.0560 C   0  0  0  0  0  0  0  0  0  0  0  0
    4.2020    0.3720    0.0920 C   0  0  0  0  0  0  0  0  0  0  0  0
    5.4230    0.6780    0.5010 C   0  0  0  0  0  0  0  0  0  0  0  0
    6.3810    1.2910   -0.4510 C   0  0  0  0  0  0  0  0  0  0  0  0
    7.4960    0.4440   -0.5630 O   0  0  0  0  0  0  0  0  0  0  0  0
    1.9590   -0.5650    0.6200 N   0  0  0  0  0  0  0  0  0  0  0  0
    1.0430   -1.1550    1.5460 C   0  0  0  0  0  0  0  0  0  0  0  0
   -0.3020   -1.4500    0.9520 C   0  0  0  0  0  0  0  0  0  0  0  0
   -0.9640   -0.2050    0.4430 C   0  0  0  0  0  0  0  0  0  0  0  0
   -0.3710    0.9280    0.5490 N   0  0  0  0  0  0  0  0  0  0  0  0
   -0.9540    2.1110    0.0870 N   0  0  0  0  0  0  0  0  0  0  0  0
   -2.2420    2.1270   -0.5280 C   0  0  0  0  0  0  0  0  0  0  0  0
   -2.8580    0.7800   -0.6120 C   0  0  0  0  0  0  0  0  0  0  0  0
   -2.2790   -0.3190   -0.1650 C   0  0  0  0  0  0  0  0  0  0  0  0
   -2.8920   -1.6690   -0.2480 C   0  0  0  0  0  0  0  0  0  0  0  0
   -4.3510   -1.6410   -0.5870 C   0  0  0  0  0  0  0  0  0  0  0  0
   -4.9960   -0.2890   -0.3720 C   0  0  0  0  0  0  0  0  0  0  0  0
   -4.2190    0.6940   -1.2450 C   0  0  0  0  0  0  0  0  0  0  0  0
  1  2  2  0
  2  3  1  0
  2  7  1  0
  3  4  2  3
  4  5  1  0
  5  6  1  0
  7  8  1  0
  8  9  1  0
  9 10  1  0
 10 11  2  0
 10 15  1  0
 11 12  1  0
 12 13  1  0
 13 14  1  0
 14 15  2  0
 14 19  1  0
 15 16  1  0
 16 17  1  0
 17 18  1  0
 18 19  1  0
M  END
