
     RDKit          3D

 19 18  0  0  0  0  0  0  0  0999 V2000
    6.5410   -2.2220   -0.0620 C   0  0  0  0  0  0  0  0  0  0  0  0
    6.0470   -1.0410   -0.3510 C   0  0  0  0  0  0  0  0  0  0  0  0
    4.7590   -0.6520    0.1950 C   0  0  0  0  0  0  0  0  0  0  0  0
    4.2380    0.5300   -0.0800 C   0  0  0  0  0  0  0  0  0  0  0  0
    2.9900    0.9070    0.4490 N   0  0  0  0  0  0  0  0  0  0  0  0
    1.8250    0.6270   -0.3370 C   0  0  0  0  0  0  0  0  0  0  0  0
    1.9860   -0.1030   -1.7870 S   0  0  0  0  0  0  0  0  0  0  0  0
    0.5280    0.9760    0.1260 N   0  0  0  0  0  0  0  0  0  0  0  0
   -0.5900    0.6640   -0.7170 C   0  0  0  0  0  0  0  0  0  0  0  0
   -1.8870    1.0610   -0.1550 C   0  0  0  0  0  0  0  0  0  0  0  0
   -2.8000    0.1560    0.0690 C   0  0  0  0  0  0  0  0  0  0  0  0
   -2.7100   -1.2690   -0.1720 C   0  0  0  0  0  0  0  0  0  0  0  0
   -3.7150   -2.0970    0.0980 C   0  0  0  0  0  0  0  0  0  0  0  0
   -3.6600   -3.5430   -0.1320 C   0  0  0  0  0  0  0  0  0  0  0  0
   -3.8510   -4.2000    1.0930 O   0  0  0  0  0  0  0  0  0  0  0  0
   -2.1050    2.4830    0.1350 C   0  0  0  0  0  0  0  0  0  0  0  0
   -1.2110    3.3340   -0.0890 O   0  0  0  0  0  0  0  0  0  0  0  0
   -3.3000    2.9500    0.6670 O   0  0  0  0  0  0  0  0  0  0  0  0
   -3.5030    4.3120    0.9430 C   0  0  0  0  0  0  0  0  0  0  0  0
  1  2  2  0
  2  3  1  0
  3  4  2  3
  4  5  1  0
  5  6  1  0
  6  7  2  0
  6  8  1  0
  8  9  1  0
  9 10  1  0
 10 11  2  3
 10 16  1  0
 11 12  1  0
 12 13  2  3
 13 14  1  0
 14 15  1  0
 16 17  2  0
 16 18  1  0
 18 19  1  0
M  END
