
     RDKit          3D

 19 19  0  0  0  0  0  0  0  0999 V2000
   -4.6360    1.9150   -1.1680 C   0  0  0  0  0  0  0  0  0  0  0  0
   -3.5970    1.1490   -0.9610 C   0  0  0  0  0  0  0  0  0  0  0  0
   -2.2910    1.4060   -1.2920 O   0  0  0  0  0  0  0  0  0  0  0  0
   -1.2400    0.8080   -0.4850 C   0  0  2  0  0  0  0  0  0  0  0  0
    0.0620    1.3640   -0.9230 C   0  0  0  0  0  0  0  0  0  0  0  0
    1.2670    0.9410   -0.3190 N   0  0  0  0  0  0  0  0  0  0  0  0
    1.8580   -0.3190   -0.3890 C   0  0  0  0  0  0  0  0  0  0  0  0
    1.3370   -1.2340   -1.0590 O   0  0  0  0  0  0  0  0  0  0  0  0
    3.1300   -0.6720    0.3130 C   0  0  0  0  0  0  0  0  0  0  0  0
    3.7920    0.7210    1.2420 S   0  0  0  0  0  0  0  0  0  0  0  0
    5.3300    0.1760    2.0460 C   0  0  0  0  0  0  0  0  0  0  0  0
    6.3180   -0.1000    0.9560 C   0  0  0  0  0  0  0  0  0  0  0  0
    6.0120    0.0690   -0.4220 N   0  0  0  0  0  0  0  0  0  0  0  0
    7.5010   -0.5060    1.2150 O   0  0  0  0  0  0  0  0  0  0  0  0
   -1.4540   -0.6430   -0.4430 C   0  0  0  0  0  0  0  0  0  0  0  0
   -2.8430   -0.9800   -0.0540 C   0  0  0  0  0  0  0  0  0  0  0  0
   -3.1350   -2.2930    0.6270 C   0  0  0  0  0  0  0  0  0  0  0  0
   -3.8220   -0.1510   -0.2980 C   0  0  0  0  0  0  0  0  0  0  0  0
   -5.2080   -0.5070    0.0960 C   0  0  0  0  0  0  0  0  0  0  0  0
  1  2  2  0
  2  3  1  0
  2 18  1  0
  3  4  1  0
  4  5  1  6
  4 15  1  0
  5  6  1  0
  6  7  1  0
  7  8  2  0
  7  9  1  0
  9 10  1  0
 10 11  1  0
 11 12  1  0
 12 13  1  0
 12 14  2  0
 15 16  1  0
 16 17  1  0
 16 18  2  0
 18 19  1  0
M  END
