
     RDKit          3D

 19 19  0  0  0  0  0  0  0  0999 V2000
   -4.2220    0.3080   -1.9510 C   0  0  0  0  0  0  0  0  0  0  0  0
   -4.1800    0.0460   -0.6480 C   0  0  0  0  0  0  0  0  0  0  0  0
   -5.5350   -0.2620   -0.0200 C   0  0  0  0  0  0  0  0  0  0  0  0
   -5.3710   -0.5780    1.3960 C   0  0  0  0  0  0  0  0  0  0  0  0
   -4.2350   -0.5730    2.0360 C   0  0  0  0  0  0  0  0  0  0  0  0
   -2.9740   -0.2440    1.3810 C   0  0  0  0  0  0  0  0  0  0  0  0
   -2.9410    0.0560    0.0930 C   0  0  0  0  0  0  0  0  0  0  0  0
   -1.6740    0.3990   -0.5310 C   0  0  0  0  0  0  0  0  0  0  0  0
   -1.5700    0.6960   -1.7450 O   0  0  0  0  0  0  0  0  0  0  0  0
   -0.4310    0.4280    0.1930 N   0  0  0  0  0  0  0  0  0  0  0  0
    0.7720    0.8020   -0.4990 C   0  0  0  0  0  0  0  0  0  0  0  0
    0.7620    1.0960   -1.7390 O   0  0  0  0  0  0  0  0  0  0  0  0
    2.0570    0.8520    0.2320 C   0  0  0  0  0  0  0  0  0  0  0  0
    3.1480    1.3380   -0.6990 C   0  0  0  0  0  0  0  0  0  0  0  0
    4.7530    1.4760    0.0490 S   0  0  0  0  0  0  0  0  0  0  0  0
    5.5410   -0.0450    0.5200 C   0  0  0  0  0  0  0  0  0  0  0  0
    5.9720   -0.8850   -0.6220 C   0  0  0  0  0  0  0  0  0  0  0  0
    5.2670   -2.0450   -1.0270 N   0  0  0  0  0  0  0  0  0  0  0  0
    7.0160   -0.5930   -1.2970 O   0  0  0  0  0  0  0  0  0  0  0  0
  1  2  2  0
  2  3  1  0
  2  7  1  0
  3  4  1  0
  4  5  2  0
  5  6  1  0
  6  7  2  0
  7  8  1  0
  8  9  2  0
  8 10  1  0
 10 11  1  0
 11 12  2  0
 11 13  1  0
 13 14  1  0
 14 15  1  0
 15 16  1  0
 16 17  1  0
 17 18  1  0
 17 19  2  0
M  END
