
     RDKit          3D

 19 19  0  0  0  0  0  0  0  0999 V2000
   -3.4550   -1.6600    0.8740 C   0  0  0  0  0  0  0  0  0  0  0  0
   -3.4850   -0.6760   -0.2580 C   0  0  1  0  0  0  0  0  0  0  0  0
   -3.7310   -1.3440   -1.4580 O   0  0  0  0  0  0  0  0  0  0  0  0
   -4.5840    0.3150   -0.0400 C   0  0  0  0  0  0  0  0  0  0  0  0
   -4.6170    1.2930   -1.1620 C   0  0  0  0  0  0  0  0  0  0  0  0
   -5.4370    2.1980   -1.1960 O   0  0  0  0  0  0  0  0  0  0  0  0
   -2.1270   -0.0270   -0.3770 C   0  0  0  0  0  0  0  0  0  0  0  0
   -1.7170    0.7020    0.8540 C   0  0  0  0  0  0  0  0  0  0  0  0
   -0.4310    1.3220    0.7460 N   0  0  0  0  0  0  0  0  0  0  0  0
    0.7520    0.5230    0.4990 C   0  0  0  0  0  0  0  0  0  0  0  0
    0.6490   -0.7220    0.3810 O   0  0  0  0  0  0  0  0  0  0  0  0
    2.0060    1.1440    0.3930 N   0  0  0  0  0  0  0  0  0  0  0  0
    3.2370    0.4970    0.1560 C   0  0  0  0  0  0  0  0  0  0  0  0
    4.3800    1.2830    0.0830 C   0  0  0  0  0  0  0  0  0  0  0  0
    5.6370    0.7890   -0.1420 C   0  0  0  0  0  0  0  0  0  0  0  0
    5.7740   -0.5720   -0.3050 C   0  0  0  0  0  0  0  0  0  0  0  0
    7.4100   -1.2550   -0.6010 S   0  0  0  0  0  0  0  0  0  0  0  0
    4.6710   -1.3730   -0.2380 C   0  0  0  0  0  0  0  0  0  0  0  0
    3.4060   -0.8390   -0.0090 C   0  0  0  0  0  0  0  0  0  0  0  0
  2  1  1  1
  2  3  1  0
  2  4  1  0
  2  7  1  0
  4  5  1  0
  5  6  2  0
  7  8  1  0
  8  9  1  0
  9 10  1  0
 10 11  2  0
 10 12  1  0
 12 13  1  0
 13 14  2  0
 13 19  1  0
 14 15  1  0
 15 16  2  0
 16 17  1  0
 16 18  1  0
 18 19  2  0
M  END
