
     RDKit          3D

 19 19  0  0  0  0  0  0  0  0999 V2000
   -4.9360   -1.5950   -0.7390 C   0  0  0  0  0  0  0  0  0  0  0  0
   -3.8500   -0.9290   -0.3390 C   0  0  0  0  0  0  0  0  0  0  0  0
   -2.6700   -1.6500    0.1440 C   0  0  0  0  0  0  0  0  0  0  0  0
   -1.6130   -0.8920    0.5360 C   0  0  0  0  0  0  0  0  0  0  0  0
   -0.3860   -1.5400    1.0270 C   0  0  0  0  0  0  0  0  0  0  0  0
    0.7900   -1.4470    0.2470 N   0  0  0  0  0  0  0  0  0  0  0  0
    1.5420   -0.3410   -0.1820 C   0  0  0  0  0  0  0  0  0  0  0  0
    1.1720    0.8000    0.1440 O   0  0  0  0  0  0  0  0  0  0  0  0
    2.7850   -0.5150   -1.0290 C   0  0  0  0  0  0  0  0  0  0  0  0
    3.4250    1.1190   -1.3940 S   0  0  0  0  0  0  0  0  0  0  0  0
    4.0410    2.0110    0.0300 C   0  0  0  0  0  0  0  0  0  0  0  0
    5.2690    1.4070    0.6260 C   0  0  0  0  0  0  0  0  0  0  0  0
    5.8750    0.2530    0.0710 N   0  0  0  0  0  0  0  0  0  0  0  0
    5.7450    1.9670    1.6440 O   0  0  0  0  0  0  0  0  0  0  0  0
   -1.7630    0.5480    0.5990 C   0  0  0  0  0  0  0  0  0  0  0  0
   -1.2730    1.2710    1.5010 O   0  0  0  0  0  0  0  0  0  0  0  0
   -2.5560    1.2220   -0.4660 C   0  0  0  0  0  0  0  0  0  0  0  0
   -3.8960    0.5250   -0.4040 C   0  0  0  0  0  0  0  0  0  0  0  0
   -4.9820    1.2560   -0.4160 C   0  0  0  0  0  0  0  0  0  0  0  0
  1  2  2  0
  2  3  1  0
  2 18  1  0
  3  4  2  0
  4  5  1  0
  4 15  1  0
  5  6  1  0
  6  7  1  0
  7  8  2  0
  7  9  1  0
  9 10  1  0
 10 11  1  0
 11 12  1  0
 12 13  1  0
 12 14  2  0
 15 16  2  0
 15 17  1  0
 17 18  1  0
 18 19  2  0
M  END
