
     RDKit          3D

 19 19  0  0  0  0  0  0  0  0999 V2000
    4.1990    0.6210   -1.6670 C   0  0  0  0  0  0  0  0  0  0  0  0
    4.3450    1.0930   -0.4070 O   0  0  0  0  0  0  0  0  0  0  0  0
    4.0720    0.3010    0.6420 C   0  0  2  0  0  0  0  0  0  0  0  0
    4.6110    0.9000    1.9240 C   0  0  0  0  0  0  0  0  0  0  0  0
    4.5190   -1.1130    0.5180 C   0  0  0  0  0  0  0  0  0  0  0  0
    2.5480    0.3330    0.9080 C   0  0  0  0  0  0  0  0  0  0  0  0
    1.5410   -0.2960   -0.4130 S   0  0  0  0  0  0  0  0  0  0  0  0
   -0.1650   -0.4310    0.2980 C   0  0  0  0  0  0  0  0  0  0  0  0
   -1.1470   -0.4280   -0.7260 C   0  0  0  0  0  0  0  0  0  0  0  0
   -0.7720   -0.2980   -1.9320 O   0  0  0  0  0  0  0  0  0  0  0  0
   -2.6050   -0.5150   -0.5060 C   0  0  0  0  0  0  0  0  0  0  0  0
   -3.4800   -1.5590   -0.6110 C   0  0  0  0  0  0  0  0  0  0  0  0
   -3.1190   -2.9510   -1.0030 C   0  0  0  0  0  0  0  0  0  0  0  0
   -4.7200   -1.1250   -0.3740 N   0  0  0  0  0  0  0  0  0  0  0  0
   -4.6690    0.2030   -0.1280 C   0  0  0  0  0  0  0  0  0  0  0  0
   -5.8060    1.0840    0.1800 N   0  0  0  0  0  0  0  0  0  0  0  0
   -3.3650    0.6140   -0.2020 C   0  0  0  0  0  0  0  0  0  0  0  0
   -2.7640    1.9130    0.2430 C   0  0  0  0  0  0  0  0  0  0  0  0
   -3.0280    2.9530   -0.6300 O   0  0  0  0  0  0  0  0  0  0  0  0
  1  2  1  0
  2  3  1  0
  3  4  1  1
  3  5  1  0
  3  6  1  0
  6  7  1  0
  7  8  1  0
  8  9  1  0
  9 10  2  0
  9 11  1  0
 11 12  2  0
 11 17  1  0
 12 13  1  0
 12 14  1  0
 14 15  1  0
 15 16  1  0
 15 17  2  0
 17 18  1  0
 18 19  1  0
M  END
