
     RDKit          3D

 19 19  0  0  0  0  0  0  0  0999 V2000
    5.9230    0.8430    0.8020 C   0  0  0  0  0  0  0  0  0  0  0  0
    4.4530    0.7180    0.4520 C   0  0  0  0  0  0  0  0  0  0  0  0
    4.0870   -0.6970    0.0740 C   0  0  2  0  0  0  0  0  0  0  0  0
    4.8890   -1.1640   -1.1370 C   0  0  0  0  0  0  0  0  0  0  0  0
    2.6410   -0.7170   -0.3160 C   0  0  0  0  0  0  0  0  0  0  0  0
    1.7230   -0.2760    0.7730 C   0  0  0  0  0  0  0  0  0  0  0  0
    0.3090   -0.3530    0.2250 C   0  0  0  0  0  0  0  0  0  0  0  0
    0.1060   -0.7340   -0.9460 O   0  0  0  0  0  0  0  0  0  0  0  0
   -0.7890    0.0090    1.0390 N   0  0  0  0  0  0  0  0  0  0  0  0
   -2.1400   -0.0150    0.6600 C   0  0  0  0  0  0  0  0  0  0  0  0
   -3.0830    0.3850    1.6210 C   0  0  0  0  0  0  0  0  0  0  0  0
   -4.4450    0.3970    1.3470 C   0  0  0  0  0  0  0  0  0  0  0  0
   -4.9150    0.0200    0.1280 C   0  0  0  0  0  0  0  0  0  0  0  0
   -6.6330    0.0480   -0.1850 S   0  0  2  0  0  0  0  0  0  0  0  0
   -7.1390    1.5790   -0.8150 N   0  0  0  0  0  0  0  0  0  0  0  0
   -7.3460   -0.1960    1.1300 O   0  0  0  0  0  0  0  0  0  0  0  0
   -7.0340   -1.0550   -1.1340 O   0  0  0  0  0  0  0  0  0  0  0  0
   -4.0310   -0.3730   -0.8280 C   0  0  0  0  0  0  0  0  0  0  0  0
   -2.6690   -0.3800   -0.5380 C   0  0  0  0  0  0  0  0  0  0  0  0
  1  2  1  0
  2  3  1  0
  3  4  1  6
  3  5  1  0
  5  6  1  0
  6  7  1  0
  7  8  2  0
  7  9  1  0
  9 10  1  0
 10 11  2  0
 10 19  1  0
 11 12  1  0
 12 13  2  0
 13 14  1  0
 13 18  1  0
 14 15  1  6
 14 16  2  0
 14 17  2  0
 18 19  2  0
M  END
