
     RDKit          3D

 22 22  0  0  0  0  0  0  0  0999 V2000
   -4.1400   -0.3590   -2.9380 O   0  0  0  0  0  0  0  0  0  0  0  0
   -3.4760   -0.6250   -1.7230 C   0  0  0  0  0  0  0  0  0  0  0  0
   -4.5300   -0.5830   -0.6430 C   0  0  0  0  0  0  0  0  0  0  0  0
   -4.0450   -0.8240    0.6130 O   0  0  0  0  0  0  0  0  0  0  0  0
   -3.0940    0.0410    1.0610 C   0  0  1  0  0  0  0  0  0  0  0  0
   -3.4440    0.7430    2.3450 C   0  0  0  0  0  0  0  0  0  0  0  0
   -3.6590   -0.1070    3.4030 O   0  0  0  0  0  0  0  0  0  0  0  0
   -1.8130   -0.7360    1.2940 C   0  0  2  0  0  0  0  0  0  0  0  0
   -2.1160   -1.7160    2.2590 O   0  0  0  0  0  0  0  0  0  0  0  0
   -0.7840    0.0710    1.7530 O   0  0  0  0  0  0  0  0  0  0  0  0
    0.2970   -0.0880    0.8960 C   0  0  0  0  0  0  0  0  0  0  0  0
    1.4180    0.7960    1.4020 C   0  0  1  0  0  0  0  0  0  0  0  0
    1.7130    0.3560    2.7000 O   0  0  0  0  0  0  0  0  0  0  0  0
    2.6230    0.6330    0.5070 C   0  0  2  0  0  0  0  0  0  0  0  0
    2.3150    1.2120   -0.8490 C   0  0  0  0  0  0  0  0  0  0  0  0
    3.4550    1.2240   -1.6570 O   0  0  0  0  0  0  0  0  0  0  0  0
    4.3530    0.2650   -1.2290 C   0  0  2  0  0  0  0  0  0  0  0  0
    5.3300   -0.1010   -2.2700 C   0  0  0  0  0  0  0  0  0  0  0  0
    6.1650    0.8700   -2.7930 O   0  0  0  0  0  0  0  0  0  0  0  0
    5.4520   -1.6220   -2.8210 S   0  0  0  0  0  0  0  0  0  0  0  0
    3.5530   -0.9650   -0.8100 C   0  0  0  0  0  0  0  0  0  0  0  0
    3.0100   -0.6910    0.4390 O   0  0  0  0  0  0  0  0  0  0  0  0
  1  2  1  0
  2  3  1  0
  3  4  1  0
  4  5  1  0
  5  6  1  1
  5  8  1  0
  6  7  1  0
  8  9  1  1
  8 10  1  0
 10 11  1  0
 11 12  1  0
 12 13  1  1
 12 14  1  0
 14 15  1  6
 14 22  1  0
 15 16  1  0
 16 17  1  0
 17 18  1  6
 17 21  1  0
 18 19  1  0
 18 20  2  0
 21 22  1  0
M  END
