
     RDKit          3D

 22 22  0  0  0  0  0  0  0  0999 V2000
   -5.3670   -2.9950    0.5780 O   0  0  0  0  0  0  0  0  0  0  0  0
   -4.7040   -2.4710   -0.3460 C   0  0  0  0  0  0  0  0  0  0  0  0
   -5.3010   -2.2270   -1.5650 O   0  0  0  0  0  0  0  0  0  0  0  0
   -3.2830   -2.1230   -0.1040 C   0  0  0  0  0  0  0  0  0  0  0  0
   -2.7690   -1.5680   -1.2500 O   0  0  0  0  0  0  0  0  0  0  0  0
   -1.4360   -1.2130   -1.1560 C   0  0  0  0  0  0  0  0  0  0  0  0
   -1.1720   -0.1840   -0.0790 C   0  0  1  0  0  0  0  0  0  0  0  0
    0.1940    0.0800   -0.1060 O   0  0  0  0  0  0  0  0  0  0  0  0
    0.7200   -0.2510    1.1350 C   0  0  0  0  0  0  0  0  0  0  0  0
    2.1960   -0.0390    1.2640 C   0  0  2  0  0  0  0  0  0  0  0  0
    2.5920   -0.4050    2.5800 O   0  0  0  0  0  0  0  0  0  0  0  0
    2.6400    1.3850    1.1040 C   0  0  0  0  0  0  0  0  0  0  0  0
    4.0260    1.4090    1.2730 O   0  0  0  0  0  0  0  0  0  0  0  0
    2.9860   -0.9740    0.3660 C   0  0  2  0  0  0  0  0  0  0  0  0
    4.3630   -0.7990    0.5530 O   0  0  0  0  0  0  0  0  0  0  0  0
    2.7050   -0.8080   -1.0910 C   0  0  0  0  0  0  0  0  0  0  0  0
    3.0760    0.4450   -1.5270 O   0  0  0  0  0  0  0  0  0  0  0  0
   -2.0270    0.9990   -0.3710 C   0  0  1  0  0  0  0  0  0  0  0  0
   -1.9240    2.0680    0.4590 O   0  0  0  0  0  0  0  0  0  0  0  0
   -0.9330    2.9240    0.0930 C   0  0  0  0  0  0  0  0  0  0  0  0
   -1.2130    3.3920   -1.3450 C   0  0  0  0  0  0  0  0  0  0  0  0
   -1.6460    1.7290   -2.0140 S   0  0  0  0  0  0  0  0  0  0  0  0
  1  2  2  0
  2  3  1  0
  2  4  1  0
  4  5  1  0
  5  6  1  0
  7  6  1  6
  7  8  1  0
  7 18  1  0
  8  9  1  0
  9 10  1  0
 10 11  1  1
 10 12  1  0
 10 14  1  0
 12 13  1  0
 14 15  1  6
 14 16  1  0
 16 17  1  0
 18 19  1  1
 18 22  1  0
 19 20  1  0
 20 21  1  0
 21 22  1  0
M  END
