
     RDKit          3D

 22 22  0  0  0  0  0  0  0  0999 V2000
   -0.1650   -3.1830    0.7450 C   0  0  0  0  0  0  0  0  0  0  0  0
    0.3630   -2.0720   -0.0870 C   0  0  2  0  0  0  0  0  0  0  0  0
    1.1380   -2.5480   -1.1350 O   0  0  0  0  0  0  0  0  0  0  0  0
    1.1910   -1.0710    0.6750 C   0  0  0  0  0  0  0  0  0  0  0  0
    0.9450    0.2020   -0.1130 C   0  0  1  0  0  0  0  0  0  0  0  0
    2.2300    0.6230   -0.7260 C   0  0  0  0  0  0  0  0  0  0  0  0
    2.3480    0.6680   -1.9570 O   0  0  0  0  0  0  0  0  0  0  0  0
    3.2970    0.9650    0.1010 O   0  0  0  0  0  0  0  0  0  0  0  0
    4.5110    1.3620   -0.5220 C   0  0  0  0  0  0  0  0  0  0  0  0
    5.5520    1.6950    0.5220 C   0  0  0  0  0  0  0  0  0  0  0  0
    5.0950    2.7290    1.3200 O   0  0  0  0  0  0  0  0  0  0  0  0
    0.0320   -0.0890   -1.0950 O   0  0  0  0  0  0  0  0  0  0  0  0
   -0.7160   -1.1880   -0.6750 C   0  0  1  0  0  0  0  0  0  0  0  0
   -1.3450   -1.7920   -1.7570 O   0  0  0  0  0  0  0  0  0  0  0  0
   -1.7050   -0.7120    0.3420 C   0  0  0  0  0  0  0  0  0  0  0  0
   -2.5250    0.2350   -0.2370 O   0  0  0  0  0  0  0  0  0  0  0  0
   -3.4740    0.7430    0.6090 C   0  0  2  0  0  0  0  0  0  0  0  0
   -4.8410    0.3770    0.0290 C   0  0  0  0  0  0  0  0  0  0  0  0
   -5.0180    1.1010   -1.6340 S   0  0  0  0  0  0  0  0  0  0  0  0
   -3.4030    2.2200    0.6190 C   0  0  0  0  0  0  0  0  0  0  0  0
   -4.2060    2.8860    1.3460 O   0  0  0  0  0  0  0  0  0  0  0  0
   -2.4620    2.8510   -0.1640 O   0  0  0  0  0  0  0  0  0  0  0  0
  2  1  1  1
  2  3  1  0
  2  4  1  0
  2 13  1  0
  4  5  1  0
  5  6  1  6
  5 12  1  0
  6  7  2  0
  6  8  1  0
  8  9  1  0
  9 10  1  0
 10 11  1  0
 12 13  1  0
 13 14  1  6
 13 15  1  0
 15 16  1  0
 16 17  1  0
 17 18  1  6
 17 20  1  0
 18 19  1  0
 20 21  2  0
 20 22  1  0
M  END
