
     RDKit          3D

 22 22  0  0  0  0  0  0  0  0999 V2000
    4.5070    1.4650    0.6280 O   0  0  0  0  0  0  0  0  0  0  0  0
    4.8490    0.3100   -0.0280 C   0  0  0  0  0  0  0  0  0  0  0  0
    4.2440    0.1290   -1.3840 C   0  0  2  0  0  0  0  0  0  0  0  0
    4.5490    1.1370   -2.2910 O   0  0  0  0  0  0  0  0  0  0  0  0
    2.8290   -0.3460   -1.4280 C   0  0  0  0  0  0  0  0  0  0  0  0
    1.8180    0.4750   -1.2740 O   0  0  0  0  0  0  0  0  0  0  0  0
    1.4660    1.2180   -0.2440 C   0  0  0  0  0  0  0  0  0  0  0  0
    1.1310    0.5360    1.0610 C   0  0  2  0  0  0  0  0  0  0  0  0
    2.1170   -0.2150    1.6190 O   0  0  0  0  0  0  0  0  0  0  0  0
   -0.1420   -0.2750    0.9560 C   0  0  0  0  0  0  0  0  0  0  0  0
   -1.1770    0.5030    0.3740 O   0  0  0  0  0  0  0  0  0  0  0  0
   -2.4480    0.0130    0.1590 C   0  0  0  0  0  0  0  0  0  0  0  0
   -2.7530   -0.5910   -0.9820 C   0  0  0  0  0  0  0  0  0  0  0  0
   -1.8170   -0.7570   -2.0010 O   0  0  0  0  0  0  0  0  0  0  0  0
   -4.1010   -1.0890   -1.1640 C   0  0  0  0  0  0  0  0  0  0  0  0
   -4.4660   -1.7360   -2.3590 O   0  0  0  0  0  0  0  0  0  0  0  0
   -5.0090   -0.9410   -0.2050 C   0  0  0  0  0  0  0  0  0  0  0  0
   -6.3080   -1.4180   -0.3740 O   0  0  0  0  0  0  0  0  0  0  0  0
   -4.7130   -0.3090    1.0040 O   0  0  0  0  0  0  0  0  0  0  0  0
   -3.4450    0.1730    1.2050 C   0  0  0  0  0  0  0  0  0  0  0  0
   -3.0910    0.7830    2.3230 C   0  0  0  0  0  0  0  0  0  0  0  0
   -4.3100    0.9900    3.6310 S   0  0  0  0  0  0  0  0  0  0  0  0
  1  2  1  0
  2  3  1  0
  3  4  1  1
  3  5  1  0
  5  6  1  0
  6  7  1  0
  7  8  1  0
  8  9  1  6
  8 10  1  0
 10 11  1  0
 11 12  1  0
 12 13  2  0
 12 20  1  0
 13 14  1  0
 13 15  1  0
 15 16  1  0
 15 17  2  0
 17 18  1  0
 17 19  1  0
 19 20  1  0
 20 21  2  3
 21 22  1  0
M  END
