
     RDKit          3D

 22 21  0  0  0  0  0  0  0  0999 V2000
    4.8870   -1.4730    0.9740 C   0  0  0  0  0  0  0  0  0  0  0  0
    3.5310   -1.0170    1.0740 O   0  0  0  0  0  0  0  0  0  0  0  0
    3.0100   -0.0960    0.1810 C   0  0  0  0  0  0  0  0  0  0  0  0
    3.7490    0.3340   -0.7220 O   0  0  0  0  0  0  0  0  0  0  0  0
    1.6200    0.3560    0.3010 C   0  0  2  0  0  0  0  0  0  0  0  0
    1.0650   -0.1850    1.4960 O   0  0  0  0  0  0  0  0  0  0  0  0
    0.6950   -0.0360   -0.7860 C   0  0  2  0  0  0  0  0  0  0  0  0
    0.7090   -1.5860   -0.7920 C   0  0  0  0  0  0  0  0  0  0  0  0
    1.0150    0.3750   -2.1710 C   0  0  0  0  0  0  0  0  0  0  0  0
    2.2120   -0.1180   -2.6820 O   0  0  0  0  0  0  0  0  0  0  0  0
   -0.7480    0.3120   -0.4320 C   0  0  1  0  0  0  0  0  0  0  0  0
   -1.0600   -0.3950    0.7230 O   0  0  0  0  0  0  0  0  0  0  0  0
   -2.0460   -1.3250    0.6190 C   0  0  2  0  0  0  0  0  0  0  0  0
   -3.1690   -0.8360    1.3530 O   0  0  0  0  0  0  0  0  0  0  0  0
   -1.7970   -2.6830    1.1650 C   0  0  0  0  0  0  0  0  0  0  0  0
   -2.9960   -3.4150    0.9320 O   0  0  0  0  0  0  0  0  0  0  0  0
   -0.8890    1.7900   -0.1560 C   0  0  1  0  0  0  0  0  0  0  0  0
   -0.6410    2.5950   -1.2580 O   0  0  0  0  0  0  0  0  0  0  0  0
   -2.2910    2.1040    0.3030 C   0  0  0  0  0  0  0  0  0  0  0  0
   -2.4360    3.5860    0.5530 C   0  0  0  0  0  0  0  0  0  0  0  0
   -1.4220    4.2920    0.3530 O   0  0  0  0  0  0  0  0  0  0  0  0
   -3.6000    4.1680    0.9790 O   0  0  0  0  0  0  0  0  0  0  0  0
  1  2  1  0
  2  3  1  0
  3  4  2  0
  3  5  1  0
  5  6  1  1
  5  7  1  0
  7  8  1  6
  7  9  1  0
  7 11  1  0
  9 10  1  0
 11 12  1  1
 11 17  1  0
 12 13  1  0
 13 14  1  1
 13 15  1  0
 15 16  1  0
 17 18  1  6
 17 19  1  0
 19 20  1  0
 20 21  2  0
 20 22  1  0
M  END
