
     RDKit          3D

 16 16  0  0  0  0  0  0  0  0999 V2000
    1.3140    0.8420   -1.7450 O   0  0  0  0  0  0  0  0  0  0  0  0
    1.8030    0.1930   -0.8490 C   0  0  0  0  0  0  0  0  0  0  0  0
    3.2410   -0.1470   -0.8690 C   0  0  0  0  0  0  0  0  0  0  0  0
    3.8450    0.3890   -2.0290 O   0  0  0  0  0  0  0  0  0  0  0  0
    5.1240    0.0810   -2.0370 O   0  0  0  0  0  0  0  0  0  0  0  0
    5.4660   -0.1840   -0.7890 O   0  0  0  0  0  0  0  0  0  0  0  0
    6.7530   -0.0930   -0.5980 O   0  0  0  0  0  0  0  0  0  0  0  0
    0.9570   -0.2610    0.2720 C   0  0  0  0  0  0  0  0  0  0  0  0
   -0.3550    0.1760    0.0760 O   0  0  0  0  0  0  0  0  0  0  0  0
   -1.3510   -0.1210    0.9940 C   0  0  0  0  0  0  0  0  0  0  0  0
   -1.1030   -0.7940    2.0310 O   0  0  0  0  0  0  0  0  0  0  0  0
   -2.7340    0.3580    0.7570 C   0  0  2  0  0  0  0  0  0  0  0  0
   -3.5780   -0.0340    1.7700 O   0  0  0  0  0  0  0  0  0  0  0  0
   -4.7900   -0.4050    1.1970 C   0  0  0  0  0  0  0  0  0  0  0  0
   -4.6430    0.1090   -0.2150 C   0  0  0  0  0  0  0  0  0  0  0  0
   -3.2680   -0.1390   -0.4370 O   0  0  0  0  0  0  0  0  0  0  0  0
  1  2  2  0
  2  3  1  0
  2  8  1  0
  3  4  1  0
  4  5  1  0
  5  6  1  0
  6  7  1  0
  8  9  1  0
  9 10  1  0
 10 11  2  0
 12 10  1  1
 12 13  1  0
 12 16  1  0
 13 14  1  0
 14 15  1  0
 15 16  1  0
M  END
