
     RDKit          3D

 16 16  0  0  0  0  0  0  0  0999 V2000
   -0.6700   -0.1580    1.9470 O   0  0  0  0  0  0  0  0  0  0  0  0
   -0.7400   -0.2710    0.6960 C   0  0  0  0  0  0  0  0  0  0  0  0
   -1.6190    0.5860    0.0520 O   0  0  0  0  0  0  0  0  0  0  0  0
   -2.3970    1.5360    0.7440 C   0  0  0  0  0  0  0  0  0  0  0  0
   -3.1780    2.2490   -0.1550 O   0  0  0  0  0  0  0  0  0  0  0  0
    0.0280   -1.2280   -0.1210 C   0  0  1  0  0  0  0  0  0  0  0  0
    0.6170   -0.5980   -1.3460 C   0  0  0  0  0  0  0  0  0  0  0  0
    1.7030    0.1960   -1.1780 O   0  0  0  0  0  0  0  0  0  0  0  0
    1.5740    1.2960   -0.4040 C   0  0  0  0  0  0  0  0  0  0  0  0
    2.8090    1.9910   -0.3730 O   0  0  0  0  0  0  0  0  0  0  0  0
    2.7250    3.0680    0.3690 O   0  0  0  0  0  0  0  0  0  0  0  0
    3.5050    4.0350   -0.0920 O   0  0  0  0  0  0  0  0  0  0  0  0
    0.9520   -1.9820    0.5560 O   0  0  0  0  0  0  0  0  0  0  0  0
    0.3670   -3.1490    1.0030 C   0  0  0  0  0  0  0  0  0  0  0  0
   -1.0900   -2.9300    0.6610 C   0  0  0  0  0  0  0  0  0  0  0  0
   -0.9600   -2.1880   -0.5340 O   0  0  0  0  0  0  0  0  0  0  0  0
  1  2  2  0
  2  3  1  0
  2  6  1  0
  3  4  1  0
  4  5  1  0
  6  7  1  6
  6 13  1  0
  6 16  1  0
  7  8  1  0
  8  9  1  0
  9 10  1  0
 10 11  1  0
 11 12  1  0
 13 14  1  0
 14 15  1  0
 15 16  1  0
M  END
