
     RDKit          3D

 16 16  0  0  0  0  0  0  0  0999 V2000
   -0.2280   -1.8200   -1.7030 O   0  0  0  0  0  0  0  0  0  0  0  0
   -0.8120   -1.0540   -0.8800 C   0  0  0  0  0  0  0  0  0  0  0  0
   -2.2930   -0.9730   -1.0000 C   0  0  0  0  0  0  0  0  0  0  0  0
   -2.8510   -0.0280    0.0380 C   0  0  0  0  0  0  0  0  0  0  0  0
   -2.3080    1.2330   -0.1550 O   0  0  0  0  0  0  0  0  0  0  0  0
   -2.7330    2.1120    0.6960 O   0  0  0  0  0  0  0  0  0  0  0  0
   -0.0770   -0.3690    0.0390 O   0  0  0  0  0  0  0  0  0  0  0  0
    1.3270   -0.4550    0.1420 C   0  0  2  0  0  0  0  0  0  0  0  0
    1.7790   -0.9870    1.4450 C   0  0  0  0  0  0  0  0  0  0  0  0
    0.9290   -1.3280    2.2900 O   0  0  0  0  0  0  0  0  0  0  0  0
    3.1440   -1.0670    1.6320 O   0  0  0  0  0  0  0  0  0  0  0  0
    4.0080   -0.2370    0.9710 O   0  0  0  0  0  0  0  0  0  0  0  0
    3.4560    0.6930    0.1010 C   0  0  0  0  0  0  0  0  0  0  0  0
    4.2030    1.4150   -0.6470 O   0  0  0  0  0  0  0  0  0  0  0  0
    1.9870    0.9000   -0.0090 C   0  0  1  0  0  0  0  0  0  0  0  0
    1.6360    1.5270   -1.1910 O   0  0  0  0  0  0  0  0  0  0  0  0
  1  2  2  0
  2  3  1  0
  2  7  1  0
  3  4  1  0
  4  5  1  0
  5  6  1  0
  8  7  1  1
  8  9  1  0
  8 15  1  0
  9 10  2  0
  9 11  1  0
 11 12  1  0
 12 13  1  0
 13 14  2  0
 13 15  1  0
 15 16  1  6
M  END
