
     RDKit          3D

 13 13  0  0  0  0  0  0  0  0999 V2000
    2.9940    0.8730   -0.6050 C   0  0  0  0  0  0  0  0  0  0  0  0
    1.9840    0.3540    0.2050 O   0  0  0  0  0  0  0  0  0  0  0  0
    0.8170    0.3820   -0.5190 C   0  0  0  0  0  0  0  0  0  0  0  0
   -0.3990   -0.1360    0.1740 C   0  0  2  0  0  0  0  0  0  0  0  0
   -0.2770   -1.5480    0.5760 C   0  0  0  0  0  0  0  0  0  0  0  0
    0.7470   -2.2270    0.2070 N   0  0  0  0  0  0  0  0  0  0  0  0
   -1.2430   -2.1920    1.3510 O   0  0  0  0  0  0  0  0  0  0  0  0
   -1.2800   -3.5290    1.2950 O   0  0  0  0  0  0  0  0  0  0  0  0
   -1.5290   -0.0990   -0.8690 C   0  0  0  0  0  0  0  0  0  0  0  0
   -1.6970    1.2260   -1.3400 O   0  0  0  0  0  0  0  0  0  0  0  0
   -2.5220    2.0300   -0.0110 P   0  0  0  0  0  0  0  0  0  0  0  0
   -2.0870    1.0820    1.4030 O   0  0  0  0  0  0  0  0  0  0  0  0
   -0.7320    0.7650    1.3420 C   0  0  0  0  0  0  0  0  0  0  0  0
  1  2  1  0
  2  3  1  0
  4  3  1  6
  4  5  1  0
  4  9  1  0
  4 13  1  0
  5  6  2  0
  5  7  1  0
  7  8  1  0
  9 10  1  0
 10 11  1  0
 11 12  1  0
 12 13  1  0
M  END
