
     RDKit          3D

 16 17  0  0  0  0  0  0  0  0999 V2000
    1.1560    0.4510   -1.5530 O   0  0  0  0  0  0  0  0  0  0  0  0
    0.3910   -0.3580   -0.9660 C   0  0  0  0  0  0  0  0  0  0  0  0
    0.9540   -1.0700    0.0840 O   0  0  0  0  0  0  0  0  0  0  0  0
    2.3080   -0.8860    0.4590 C   0  0  0  0  0  0  0  0  0  0  0  0
    3.1730   -1.1920   -0.6010 O   0  0  0  0  0  0  0  0  0  0  0  0
    4.3920   -0.9990   -0.1800 O   0  0  0  0  0  0  0  0  0  0  0  0
    4.5970    0.2890   -0.0750 O   0  0  0  0  0  0  0  0  0  0  0  0
    5.8770    0.5070    0.2090 O   0  0  0  0  0  0  0  0  0  0  0  0
   -1.0040   -0.5880   -1.3060 C   0  0  1  0  0  0  0  0  0  0  0  0
   -1.5580   -1.5440   -0.4610 O   0  0  0  0  0  0  0  0  0  0  0  0
   -1.7920   -1.1020    0.7380 O   0  0  0  0  0  0  0  0  0  0  0  0
   -2.7540   -0.1070    0.7890 C   0  0  1  0  0  0  0  0  0  0  0  0
   -2.0450    1.2170    0.9910 C   0  0  0  0  0  0  0  0  0  0  0  0
   -1.3870    1.4880   -0.1770 O   0  0  0  0  0  0  0  0  0  0  0  0
   -1.8670    0.6710   -1.1730 C   0  0  2  0  0  0  0  0  0  0  0  0
   -3.2100    0.1150   -0.6630 C   0  0  0  0  0  0  0  0  0  0  0  0
  1  2  2  0
  2  3  1  0
  9  2  1  1
  3  4  1  0
  4  5  1  0
  5  6  1  0
  6  7  1  0
  7  8  1  0
  9 10  1  0
  9 15  1  0
 10 11  1  0
 11 12  1  0
 12 13  1  6
 12 16  1  0
 13 14  1  0
 15 14  1  1
 15 16  1  0
M  END
