
     RDKit          3D

 16 16  0  0  0  0  0  0  0  0999 V2000
    2.0090   -1.3750   -1.3840 O   0  0  0  0  0  0  0  0  0  0  0  0
    1.6260   -1.2120   -0.2530 C   0  0  0  0  0  0  0  0  0  0  0  0
    1.2720   -2.3280    0.6250 C   0  0  0  0  0  0  0  0  0  0  0  0
   -0.1170   -2.3360    0.7570 O   0  0  0  0  0  0  0  0  0  0  0  0
   -0.6010   -1.9120   -0.4090 O   0  0  0  0  0  0  0  0  0  0  0  0
   -1.5190   -0.9130   -0.5530 C   0  0  0  0  0  0  0  0  0  0  0  0
   -1.9850   -0.7490   -1.7110 O   0  0  0  0  0  0  0  0  0  0  0  0
   -2.0050   -0.0180    0.5310 C   0  0  0  0  0  0  0  0  0  0  0  0
   -1.9550    1.3210    0.2730 O   0  0  0  0  0  0  0  0  0  0  0  0
   -1.3700    2.4380    0.7330 C   0  0  0  0  0  0  0  0  0  0  0  0
   -1.8810    3.2640    1.6000 O   0  0  0  0  0  0  0  0  0  0  0  0
   -0.0940    2.8340    0.2980 O   0  0  0  0  0  0  0  0  0  0  0  0
    0.6690    2.3140   -0.7090 C   0  0  0  0  0  0  0  0  0  0  0  0
    1.0790    3.0110   -1.7250 O   0  0  0  0  0  0  0  0  0  0  0  0
    1.0900    0.9950   -0.7600 O   0  0  0  0  0  0  0  0  0  0  0  0
    1.5050    0.1730    0.2760 C   0  0  0  0  0  0  0  0  0  0  0  0
  1  2  2  0
  2  3  1  0
  2 16  1  0
  3  4  1  0
  4  5  1  0
  5  6  1  0
  6  7  2  0
  6  8  1  0
  8  9  1  0
  9 10  1  0
 10 11  2  0
 10 12  1  0
 12 13  1  0
 13 14  2  0
 13 15  1  0
 15 16  1  0
M  END
