
     RDKit          3D

 16 16  0  0  0  0  0  0  0  0999 V2000
    4.0400   -0.7020    1.1310 O   0  0  0  0  0  0  0  0  0  0  0  0
    3.5470   -0.8530   -0.0100 C   0  0  0  0  0  0  0  0  0  0  0  0
    4.1100   -1.8470   -0.8100 O   0  0  0  0  0  0  0  0  0  0  0  0
    2.4880   -0.0580   -0.4410 O   0  0  0  0  0  0  0  0  0  0  0  0
    2.0150    0.9190    0.4840 C   0  0  0  0  0  0  0  0  0  0  0  0
    0.8790    1.7170   -0.0790 C   0  0  0  0  0  0  0  0  0  0  0  0
   -0.2510    0.9670   -0.4360 O   0  0  0  0  0  0  0  0  0  0  0  0
   -0.9800    0.2140    0.4640 C   0  0  0  0  0  0  0  0  0  0  0  0
   -0.6320    0.1890    1.6530 O   0  0  0  0  0  0  0  0  0  0  0  0
   -2.1740   -0.5500   -0.0440 C   0  0  1  0  0  0  0  0  0  0  0  0
   -2.7860   -1.2520    1.0010 O   0  0  0  0  0  0  0  0  0  0  0  0
   -4.1390   -1.3240    0.7000 C   0  0  0  0  0  0  0  0  0  0  0  0
   -5.0010   -2.1440    1.1680 O   0  0  0  0  0  0  0  0  0  0  0  0
   -4.4280   -0.3260   -0.2310 O   0  0  0  0  0  0  0  0  0  0  0  0
   -3.2370    0.3600   -0.4980 C   0  0  0  0  0  0  0  0  0  0  0  0
   -3.0490    1.4890   -1.0030 O   0  0  0  0  0  0  0  0  0  0  0  0
  1  2  2  0
  2  3  1  0
  2  4  1  0
  4  5  1  0
  5  6  1  0
  6  7  1  0
  7  8  1  0
  8  9  2  0
 10  8  1  1
 10 11  1  0
 10 15  1  0
 11 12  1  0
 12 13  2  0
 12 14  1  0
 14 15  1  0
 15 16  2  0
M  END
