
     RDKit          3D

 22 24  0  0  0  0  0  0  0  0999 V2000
    6.0890   -0.6990   -1.1270 C   0  0  0  0  0  0  0  0  0  0  0  0
    4.7230   -0.8960   -0.8080 O   0  0  0  0  0  0  0  0  0  0  0  0
    3.9730    0.0120   -0.0810 C   0  0  0  0  0  0  0  0  0  0  0  0
    4.5480    1.0590    0.3100 O   0  0  0  0  0  0  0  0  0  0  0  0
    2.5340   -0.2170    0.2430 C   0  0  2  0  0  0  0  0  0  0  0  0
    2.0240    0.9390    1.0310 C   0  0  0  0  0  0  0  0  0  0  0  0
    1.2220    1.8910    0.1910 C   0  0  0  0  0  0  0  0  0  0  0  0
    0.0240    2.2760    0.7300 O   0  0  0  0  0  0  0  0  0  0  0  0
   -0.8590    2.7310   -0.2340 C   0  0  0  0  0  0  0  0  0  0  0  0
   -2.2800    2.7860    0.1820 C   0  0  0  0  0  0  0  0  0  0  0  0
   -2.8600    1.5290    0.7290 C   0  0  0  0  0  0  0  0  0  0  0  0
   -2.6790    0.3360   -0.1020 C   0  0  2  0  0  0  0  0  0  0  0  0
   -3.9180   -0.1010   -0.8970 C   0  0  0  0  0  0  0  0  0  0  0  0
   -4.1250   -1.5750   -0.8940 C   0  0  0  0  0  0  0  0  0  0  0  0
   -2.9820   -2.3540   -1.0510 O   0  0  0  0  0  0  0  0  0  0  0  0
   -1.8480   -1.8080   -0.5920 C   0  0  2  0  0  0  0  0  0  0  0  0
   -0.8690   -2.5640   -0.0200 O   0  0  0  0  0  0  0  0  0  0  0  0
   -0.0590   -1.5270    0.5200 C   0  0  2  0  0  0  0  0  0  0  0  0
    1.0840   -1.9920    1.3220 C   0  0  0  0  0  0  0  0  0  0  0  0
    2.4320   -1.5400    0.9040 C   0  0  0  0  0  0  0  0  0  0  0  0
   -1.1210   -0.9220    1.4530 C   0  0  0  0  0  0  0  0  0  0  0  0
   -2.2840   -0.9180    0.5910 C   0  0  1  0  0  0  0  0  0  0  0  0
  1  2  1  0
  2  3  1  0
  3  4  2  0
  5  3  1  1
  5  6  1  0
  5 20  1  0
  6  7  1  0
  7  8  1  0
  8  9  1  0
  9 10  1  0
 10 11  1  0
 12 11  1  1
 12 13  1  0
 12 22  1  0
 13 14  1  0
 14 15  1  0
 16 15  1  1
 16 17  1  0
 16 22  1  0
 17 18  1  0
 18 19  1  1
 18 21  1  0
 19 20  1  0
 22 21  1  1
M  END
