
     RDKit          3D

 22 24  0  0  0  0  0  0  0  0999 V2000
   -3.0270    3.2560   -1.5510 O   0  0  0  0  0  0  0  0  0  0  0  0
   -2.2090    2.5190   -0.9400 C   0  0  0  0  0  0  0  0  0  0  0  0
   -2.7570    1.5720    0.0640 C   0  0  0  0  0  0  0  0  0  0  0  0
   -2.5630    0.1330   -0.3580 C   0  0  2  0  0  0  0  0  0  0  0  0
   -3.7520   -0.7270    0.0130 C   0  0  0  0  0  0  0  0  0  0  0  0
   -3.1680   -2.0560    0.4450 C   0  0  0  0  0  0  0  0  0  0  0  0
   -1.7940   -1.7530    0.9680 C   0  0  2  0  0  0  0  0  0  0  0  0
   -1.3880   -0.4110    0.3980 C   0  0  0  0  0  0  0  0  0  0  0  0
   -0.8400   -2.6980    0.5230 O   0  0  0  0  0  0  0  0  0  0  0  0
    0.4310   -2.2820    0.8300 C   0  0  0  0  0  0  0  0  0  0  0  0
    1.2890   -2.2840   -0.4000 C   0  0  2  0  0  0  0  0  0  0  0  0
    2.0090   -3.4610   -0.4230 O   0  0  0  0  0  0  0  0  0  0  0  0
    3.2040   -3.1690   -1.0870 C   0  0  0  0  0  0  0  0  0  0  0  0
    3.6170   -1.8900   -0.3860 C   0  0  0  0  0  0  0  0  0  0  0  0
    2.2780   -1.1390   -0.3880 C   0  0  2  0  0  0  0  0  0  0  0  0
    2.1410   -0.2750    0.7860 C   0  0  0  0  0  0  0  0  0  0  0  0
    1.7170    0.9830    0.7810 C   0  0  0  0  0  0  0  0  0  0  0  0
    1.3070    1.7260   -0.4410 C   0  0  0  0  0  0  0  0  0  0  0  0
    0.1280    2.6560   -0.1320 C   0  0  1  0  0  0  0  0  0  0  0  0
    0.6680    4.0900   -0.2200 C   0  0  0  0  0  0  0  0  0  0  0  0
    1.6510    4.2920    0.7680 O   0  0  0  0  0  0  0  0  0  0  0  0
   -0.8380    2.5260   -1.1350 O   0  0  0  0  0  0  0  0  0  0  0  0
  1  2  2  0
  2  3  1  0
  2 22  1  0
  4  3  1  1
  4  5  1  0
  4  8  1  0
  5  6  1  0
  7  6  1  6
  7  8  1  0
  7  9  1  0
  9 10  1  0
 11 10  1  1
 11 12  1  0
 11 15  1  0
 12 13  1  0
 13 14  1  0
 15 14  1  1
 15 16  1  0
 16 17  2  0
 17 18  1  0
 18 19  1  0
 19 20  1  6
 19 22  1  0
 20 21  1  0
M  END
