
     RDKit          3D

 21 23  0  0  0  0  0  0  0  0999 V2000
    5.9770   -1.0170    2.2450 C   0  0  0  0  0  0  0  0  0  0  0  0
    5.1550   -0.9700    1.1190 O   0  0  0  0  0  0  0  0  0  0  0  0
    4.0230   -0.1750    1.0490 C   0  0  0  0  0  0  0  0  0  0  0  0
    3.7470    0.5190    2.0470 O   0  0  0  0  0  0  0  0  0  0  0  0
    3.2340   -0.1980   -0.1690 C   0  0  0  0  0  0  0  0  0  0  0  0
    3.5830   -0.9270   -1.1280 O   0  0  0  0  0  0  0  0  0  0  0  0
    2.0800    0.5570   -0.3520 O   0  0  0  0  0  0  0  0  0  0  0  0
    1.3110    0.5420   -1.5250 C   0  0  2  0  0  0  0  0  0  0  0  0
    1.3570    1.9370   -2.1150 C   0  0  0  0  0  0  0  0  0  0  0  0
   -0.1210    0.1830   -1.3140 C   0  0  2  0  0  0  0  0  0  0  0  0
   -0.8410    1.1390   -0.3850 C   0  0  0  0  0  0  0  0  0  0  0  0
   -2.2830    0.7850   -0.4370 C   0  0  2  0  0  0  0  0  0  0  0  0
   -3.1670    1.4990    0.5130 C   0  0  0  0  0  0  0  0  0  0  0  0
   -4.3990    0.5880    0.5330 C   0  0  0  0  0  0  0  0  0  0  0  0
   -3.8790   -0.8060    0.1920 C   0  0  0  0  0  0  0  0  0  0  0  0
   -2.4260   -0.6570    0.0080 C   0  0  2  0  0  0  0  0  0  0  0  0
   -1.5880   -0.9320    1.2320 C   0  0  0  0  0  0  0  0  0  0  0  0
   -0.2180   -1.3010    0.6940 C   0  0  0  0  0  0  0  0  0  0  0  0
   -0.3280   -1.2360   -0.8370 C   0  0  1  0  0  0  0  0  0  0  0  0
   -1.7860   -1.5110   -0.9920 C   0  0  0  0  0  0  0  0  0  0  0  0
   -2.3530   -2.2590   -1.7570 O   0  0  0  0  0  0  0  0  0  0  0  0
  1  2  1  0
  2  3  1  0
  3  4  2  0
  3  5  1  0
  5  6  2  0
  5  7  1  0
  7  8  1  0
  8  9  1  1
  8 10  1  0
 10 11  1  1
 10 19  1  0
 12 11  1  1
 12 13  1  0
 12 16  1  0
 13 14  1  0
 14 15  1  0
 16 15  1  1
 16 17  1  0
 16 20  1  0
 17 18  1  0
 19 18  1  1
 19 20  1  0
 20 21  2  0
M  END
