
     RDKit          3D

 22 24  0  0  0  0  0  0  0  0999 V2000
    2.5820    1.6670   -1.8570 C   0  0  0  0  0  0  0  0  0  0  0  0
    1.4640    1.9760   -1.2260 C   0  0  0  0  0  0  0  0  0  0  0  0
    1.1320    3.3150   -0.7720 C   0  0  0  0  0  0  0  0  0  0  0  0
    1.8910    4.3280   -0.7020 O   0  0  0  0  0  0  0  0  0  0  0  0
   -0.2120    3.3020   -0.4140 O   0  0  0  0  0  0  0  0  0  0  0  0
   -0.5780    1.9740   -0.0810 C   0  0  1  0  0  0  0  0  0  0  0  0
   -2.0240    1.6670   -0.3100 C   0  0  0  0  0  0  0  0  0  0  0  0
   -2.3640    0.4050    0.4730 C   0  0  1  0  0  0  0  0  0  0  0  0
   -3.8480    0.2460    0.4950 C   0  0  0  0  0  0  0  0  0  0  0  0
   -1.6370   -0.7220   -0.1980 C   0  0  2  0  0  0  0  0  0  0  0  0
   -2.3040   -2.0290   -0.0510 C   0  0  0  0  0  0  0  0  0  0  0  0
   -1.3820   -2.9650   -0.0690 C   0  0  0  0  0  0  0  0  0  0  0  0
   -0.0480   -2.3550   -0.2260 C   0  0  0  0  0  0  0  0  0  0  0  0
    0.9630   -2.8570   -0.7190 O   0  0  0  0  0  0  0  0  0  0  0  0
   -0.2850   -0.9900    0.3750 C   0  0  2  0  0  0  0  0  0  0  0  0
   -0.4520   -1.2390    1.8670 C   0  0  0  0  0  0  0  0  0  0  0  0
    0.7810   -0.0240    0.0700 C   0  0  1  0  0  0  0  0  0  0  0  0
    1.9300   -0.7080   -0.3540 O   0  0  0  0  0  0  0  0  0  0  0  0
    3.1400   -0.6970    0.3620 C   0  0  0  0  0  0  0  0  0  0  0  0
    4.3440   -1.4150   -0.0850 C   0  0  0  0  0  0  0  0  0  0  0  0
    3.1350   -0.0250    1.4280 O   0  0  0  0  0  0  0  0  0  0  0  0
    0.3580    1.0870   -0.8570 C   0  0  2  0  0  0  0  0  0  0  0  0
  1  2  2  0
  2  3  1  0
 22  2  1  1
  3  4  2  0
  3  5  1  0
  5  6  1  0
  6  7  1  6
  6 22  1  0
  7  8  1  0
  8  9  1  6
  8 10  1  0
 10 11  1  1
 10 15  1  0
 11 12  2  0
 12 13  1  0
 13 14  2  0
 13 15  1  0
 15 16  1  1
 15 17  1  0
 17 18  1  6
 17 22  1  0
 18 19  1  0
 19 20  1  0
 19 21  2  0
M  END
