
     RDKit          3D

 22 23  0  0  0  0  0  0  0  0999 V2000
    3.9930   -0.5590    1.1310 C   0  0  0  0  0  0  0  0  0  0  0  0
    3.2540    0.3130    0.1820 C   0  0  1  0  0  0  0  0  0  0  0  0
    4.0930    0.4030   -1.0860 C   0  0  0  0  0  0  0  0  0  0  0  0
    1.8430   -0.1390   -0.1100 C   0  0  2  0  0  0  0  0  0  0  0  0
    1.0820   -0.1590    1.1650 C   0  0  0  0  0  0  0  0  0  0  0  0
    0.5540   -1.5450    1.4590 C   0  0  0  0  0  0  0  0  0  0  0  0
   -0.1300   -2.1010    0.2730 C   0  0  2  0  0  0  0  0  0  0  0  0
    0.7370   -2.1670   -0.8070 O   0  0  0  0  0  0  0  0  0  0  0  0
    1.9540   -1.5870   -0.6100 C   0  0  0  0  0  0  0  0  0  0  0  0
   -1.3850   -1.4530   -0.1640 C   0  0  1  0  0  0  0  0  0  0  0  0
   -2.2260   -2.5200   -0.8850 C   0  0  0  0  0  0  0  0  0  0  0  0
   -2.2080   -0.7880    0.8740 C   0  0  0  0  0  0  0  0  0  0  0  0
   -2.8070    0.5130    0.3210 C   0  0  2  0  0  0  0  0  0  0  0  0
   -4.1640    0.3010   -0.2660 C   0  0  0  0  0  0  0  0  0  0  0  0
   -1.9200    1.1440   -0.5640 O   0  0  0  0  0  0  0  0  0  0  0  0
   -1.5570    2.4060   -0.1130 C   0  0  2  0  0  0  0  0  0  0  0  0
   -2.4090    3.5070   -0.6520 C   0  0  0  0  0  0  0  0  0  0  0  0
   -0.0960    2.6620   -0.2870 C   0  0  0  0  0  0  0  0  0  0  0  0
    0.2660    3.6650    0.4130 O   0  0  0  0  0  0  0  0  0  0  0  0
    0.6270    1.8940   -1.0820 O   0  0  0  0  0  0  0  0  0  0  0  0
    1.3120    0.7610   -1.1610 C   0  0  0  0  0  0  0  0  0  0  0  0
    1.5810    0.3370   -2.3490 O   0  0  0  0  0  0  0  0  0  0  0  0
  2  1  1  1
  2  3  1  0
  2  4  1  0
  4  5  1  0
  4  9  1  6
  4 21  1  0
  5  6  1  0
  6  7  1  0
  7  8  1  6
  7 10  1  0
  8  9  1  0
 10 11  1  1
 10 12  1  0
 12 13  1  0
 13 14  1  6
 13 15  1  0
 15 16  1  0
 16 17  1  6
 16 18  1  0
 18 19  2  0
 18 20  1  0
 20 21  1  0
 21 22  2  0
M  END
