
     RDKit          3D

 22 24  0  0  0  0  0  0  0  0999 V2000
   -4.5120    2.0890   -1.6870 C   0  0  0  0  0  0  0  0  0  0  0  0
   -4.0810    1.5760   -0.3240 C   0  0  1  0  0  0  0  0  0  0  0  0
   -5.1270    0.7430    0.3290 C   0  0  0  0  0  0  0  0  0  0  0  0
   -4.3470   -0.4600    0.8580 C   0  0  0  0  0  0  0  0  0  0  0  0
   -3.1160   -0.4170    0.0110 C   0  0  2  0  0  0  0  0  0  0  0  0
   -3.1980   -1.4320   -1.1070 C   0  0  0  0  0  0  0  0  0  0  0  0
   -1.9010   -0.8040    0.8590 C   0  0  1  0  0  0  0  0  0  0  0  0
   -2.1390   -2.2180    1.3410 C   0  0  0  0  0  0  0  0  0  0  0  0
   -0.7480   -0.7070    0.0350 O   0  0  0  0  0  0  0  0  0  0  0  0
    0.3260    0.1120    0.3480 C   0  0  0  0  0  0  0  0  0  0  0  0
    0.2450    0.7840    1.4080 O   0  0  0  0  0  0  0  0  0  0  0  0
    1.5110    0.1800   -0.5440 C   0  0  2  0  0  0  0  0  0  0  0  0
    2.1340   -1.2080   -0.6570 C   0  0  0  0  0  0  0  0  0  0  0  0
    3.0660   -1.3380    0.5500 C   0  0  0  0  0  0  0  0  0  0  0  0
    4.3390   -0.5810    0.2190 C   0  0  2  0  0  0  0  0  0  0  0  0
    4.8990   -0.1490    1.4320 O   0  0  0  0  0  0  0  0  0  0  0  0
    6.1540    0.3420    1.1640 C   0  0  0  0  0  0  0  0  0  0  0  0
    6.2010    1.1900    0.0680 O   0  0  0  0  0  0  0  0  0  0  0  0
    4.9530    1.7370   -0.2270 C   0  0  0  0  0  0  0  0  0  0  0  0
    3.9250    0.6750   -0.5330 C   0  0  2  0  0  0  0  0  0  0  0  0
    2.5450    1.1410   -0.0640 C   0  0  0  0  0  0  0  0  0  0  0  0
   -2.9180    0.8660   -0.4190 O   0  0  0  0  0  0  0  0  0  0  0  0
  2  1  1  6
  2  3  1  0
  2 22  1  0
  3  4  1  0
  4  5  1  0
  5  6  1  6
  5  7  1  0
  5 22  1  0
  7  8  1  6
  7  9  1  0
  9 10  1  0
 10 11  2  0
 12 10  1  1
 12 13  1  0
 12 21  1  0
 13 14  1  0
 15 14  1  1
 15 16  1  0
 15 20  1  0
 16 17  1  0
 17 18  1  0
 18 19  1  0
 20 19  1  1
 20 21  1  0
M  END
