
     RDKit          3D

 22 24  0  0  0  0  0  0  0  0999 V2000
    4.6220   -0.0510    0.9190 C   0  0  0  0  0  0  0  0  0  0  0  0
    3.1770    0.3040    0.6860 C   0  0  1  0  0  0  0  0  0  0  0  0
    3.1100    1.2120   -0.5480 C   0  0  0  0  0  0  0  0  0  0  0  0
    1.7220    1.7590   -0.6180 C   0  0  0  0  0  0  0  0  0  0  0  0
    0.6520    0.8220   -0.2030 C   0  0  1  0  0  0  0  0  0  0  0  0
   -0.5720    0.9360   -1.0460 C   0  0  0  0  0  0  0  0  0  0  0  0
   -0.5350    1.6830   -1.9980 O   0  0  0  0  0  0  0  0  0  0  0  0
   -1.7480    0.1210   -0.6550 C   0  0  2  0  0  0  0  0  0  0  0  0
   -2.4250    0.8450    0.4700 C   0  0  0  0  0  0  0  0  0  0  0  0
   -2.8290    2.2190   -0.0870 C   0  0  0  0  0  0  0  0  0  0  0  0
   -3.5030    2.9610    1.0060 C   0  0  0  0  0  0  0  0  0  0  0  0
   -3.6770    2.5120    2.1220 O   0  0  0  0  0  0  0  0  0  0  0  0
   -1.3580   -1.2890   -0.3240 C   0  0  1  0  0  0  0  0  0  0  0  0
   -2.4390   -2.0670    0.3230 C   0  0  0  0  0  0  0  0  0  0  0  0
   -2.6120   -3.3220   -0.4950 C   0  0  0  0  0  0  0  0  0  0  0  0
   -3.5330   -4.1690   -0.3770 O   0  0  0  0  0  0  0  0  0  0  0  0
   -1.4910   -3.3140   -1.4250 C   0  0  0  0  0  0  0  0  0  0  0  0
   -1.0190   -4.3300   -2.0010 O   0  0  0  0  0  0  0  0  0  0  0  0
   -1.0640   -1.9770   -1.5370 O   0  0  0  0  0  0  0  0  0  0  0  0
   -0.0940   -1.3620    0.5140 C   0  0  0  0  0  0  0  0  0  0  0  0
    1.0340   -0.6280   -0.2260 C   0  0  2  0  0  0  0  0  0  0  0  0
    2.3710   -0.9290    0.3430 C   0  0  0  0  0  0  0  0  0  0  0  0
  2  1  1  6
  2  3  1  0
  2 22  1  0
  3  4  1  0
  5  4  1  6
  5  6  1  0
  5 21  1  0
  6  7  2  0
  6  8  1  0
  8  9  1  1
  8 13  1  0
  9 10  1  0
 10 11  1  0
 11 12  2  0
 13 14  1  1
 13 19  1  0
 13 20  1  0
 14 15  1  0
 15 16  2  0
 15 17  1  0
 17 18  2  0
 17 19  1  0
 21 20  1  1
 21 22  1  0
M  END
