
     RDKit          3D

 20 20  0  0  0  0  0  0  0  0999 V2000
    0.8040    0.2610   -1.7490 N   0  0  0  0  0  0  0  0  0  0  0  0
    0.6540   -0.3690   -0.4680 C   0  0  2  0  0  0  0  0  0  0  0  0
   -0.7160   -0.5890    0.0190 C   0  0  2  0  0  0  0  0  0  0  0  0
   -1.6520    0.5130    0.2370 C   0  0  0  0  0  0  0  0  0  0  0  0
   -2.0180    1.3650   -0.9500 C   0  0  1  0  0  0  0  0  0  0  0  0
   -2.6230    0.6260   -1.9660 O   0  0  0  0  0  0  0  0  0  0  0  0
   -3.0960    2.3930   -0.5500 C   0  0  0  0  0  0  0  0  0  0  0  0
   -3.4060    3.1670   -1.6570 O   0  0  0  0  0  0  0  0  0  0  0  0
   -0.6700   -1.4060    1.3240 C   0  0  1  0  0  0  0  0  0  0  0  0
   -1.9670   -1.6320    1.7900 O   0  0  0  0  0  0  0  0  0  0  0  0
   -2.3140   -2.9160    1.3930 C   0  0  0  0  0  0  0  0  0  0  0  0
   -1.0120   -3.5830    1.0280 C   0  0  0  0  0  0  0  0  0  0  0  0
   -0.0440   -2.6040    1.1400 O   0  0  0  0  0  0  0  0  0  0  0  0
    1.6850    0.1070    0.4960 C   0  0  2  0  0  0  0  0  0  0  0  0
    1.6750    1.5820    0.7890 C   0  0  0  0  0  0  0  0  0  0  0  0
    2.6960    1.9040    1.7190 O   0  0  0  0  0  0  0  0  0  0  0  0
    3.0720   -0.2150   -0.1200 C   0  0  2  0  0  0  0  0  0  0  0  0
    3.1990   -1.5840   -0.3240 O   0  0  0  0  0  0  0  0  0  0  0  0
    4.0790    0.1640    0.7570 O   0  0  0  0  0  0  0  0  0  0  0  0
    4.8560    1.0230    0.1650 O   0  0  0  0  0  0  0  0  0  0  0  0
  2  1  1  6
  2  3  1  0
  2 14  1  0
  3  4  1  1
  3  9  1  0
  4  5  1  0
  5  6  1  6
  5  7  1  0
  7  8  1  0
  9 10  1  6
  9 13  1  0
 10 11  1  0
 11 12  1  0
 12 13  1  0
 14 15  1  6
 14 17  1  0
 15 16  1  0
 17 18  1  1
 17 19  1  0
 19 20  1  0
M  CHG  1   1   1
M  END
