
     RDKit          3D

 19 19  0  0  0  0  0  0  0  0999 V2000
    3.3090    3.6610   -1.0140 N   0  0  0  0  0  0  0  0  0  0  0  0
    2.1660    2.8670   -0.6140 C   0  0  0  0  0  0  0  0  0  0  0  0
    2.5040    1.4000   -0.5090 C   0  0  0  0  0  0  0  0  0  0  0  0
    1.3810    0.7040   -0.1260 O   0  0  0  0  0  0  0  0  0  0  0  0
    1.5720   -0.6490    0.0010 C   0  0  0  0  0  0  0  0  0  0  0  0
    0.2320   -1.2570    0.4290 C   0  0  2  0  0  0  0  0  0  0  0  0
   -0.1400   -0.6880    1.6390 O   0  0  0  0  0  0  0  0  0  0  0  0
    0.4690   -2.7320    0.7150 C   0  0  0  0  0  0  0  0  0  0  0  0
    0.4550   -3.5540   -0.5480 C   0  0  1  0  0  0  0  0  0  0  0  0
    0.6100   -4.8850   -0.1810 O   0  0  0  0  0  0  0  0  0  0  0  0
   -0.6770   -3.3930   -1.3060 O   0  0  0  0  0  0  0  0  0  0  0  0
   -1.5390   -2.4830   -0.7430 C   0  0  0  0  0  0  0  0  0  0  0  0
   -0.7950   -1.1550   -0.6390 C   0  0  2  0  0  0  0  0  0  0  0  0
   -0.2090   -0.9130   -1.8790 O   0  0  0  0  0  0  0  0  0  0  0  0
   -1.8450   -0.0960   -0.3710 C   0  0  0  0  0  0  0  0  0  0  0  0
   -2.4690   -0.2600    0.8290 O   0  0  0  0  0  0  0  0  0  0  0  0
   -3.4490    0.6180    1.1670 C   0  0  0  0  0  0  0  0  0  0  0  0
   -2.9000    2.0180    1.2270 C   0  0  0  0  0  0  0  0  0  0  0  0
   -1.8850    2.0650    2.1780 O   0  0  0  0  0  0  0  0  0  0  0  0
  1  2  1  0
  2  3  1  0
  3  4  1  0
  4  5  1  0
  5  6  1  0
  6  7  1  1
  6  8  1  0
  6 13  1  0
  8  9  1  0
  9 10  1  1
  9 11  1  0
 11 12  1  0
 12 13  1  0
 13 14  1  6
 13 15  1  0
 15 16  1  0
 16 17  1  0
 17 18  1  0
 18 19  1  0
M  CHG  1   1   1
M  END
