
     RDKit          3D

 19 19  0  0  0  0  0  0  0  0999 V2000
    6.2800   -1.4720   -0.6110 O   0  0  0  0  0  0  0  0  0  0  0  0
    5.0250   -1.8520   -0.1290 C   0  0  0  0  0  0  0  0  0  0  0  0
    3.9150   -1.1960   -0.9270 C   0  0  0  0  0  0  0  0  0  0  0  0
    3.9310    0.1660   -0.9020 O   0  0  0  0  0  0  0  0  0  0  0  0
    3.8100    0.7910    0.2950 C   0  0  0  0  0  0  0  0  0  0  0  0
    2.5480    0.5640    1.0620 C   0  0  2  0  0  0  0  0  0  0  0  0
    2.3760   -0.7580    1.3730 O   0  0  0  0  0  0  0  0  0  0  0  0
    1.3390    1.0830    0.2960 C   0  0  0  0  0  0  0  0  0  0  0  0
    0.1760    0.9610    1.0480 O   0  0  0  0  0  0  0  0  0  0  0  0
   -0.8820    1.4360    0.3270 C   0  0  2  0  0  0  0  0  0  0  0  0
   -1.5320    2.4990    0.9510 O   0  0  0  0  0  0  0  0  0  0  0  0
   -1.9300    0.3520    0.0330 C   0  0  2  0  0  0  0  0  0  0  0  0
   -1.2990   -0.6650   -0.7050 O   0  0  0  0  0  0  0  0  0  0  0  0
   -2.9830    1.0120   -0.7910 C   0  0  0  0  0  0  0  0  0  0  0  0
   -4.1290    0.2280   -1.0920 N   0  0  0  0  0  0  0  0  0  0  0  0
   -4.2950   -0.9610   -0.3080 C   0  0  0  0  0  0  0  0  0  0  0  0
   -4.6490   -0.6770    1.1350 C   0  0  0  0  0  0  0  0  0  0  0  0
   -3.7100    0.1870    1.6470 O   0  0  0  0  0  0  0  0  0  0  0  0
   -2.4110   -0.1670    1.3430 C   0  0  0  0  0  0  0  0  0  0  0  0
  1  2  1  0
  2  3  1  0
  3  4  1  0
  4  5  1  0
  5  6  1  0
  6  7  1  6
  6  8  1  0
  8  9  1  0
  9 10  1  0
 10 11  1  1
 10 12  1  0
 12 13  1  6
 12 14  1  0
 12 19  1  0
 14 15  1  0
 15 16  1  0
 16 17  1  0
 17 18  1  0
 18 19  1  0
M  CHG  1  15   1
M  END
