
     RDKit          3D

 19 19  0  0  0  0  0  0  0  0999 V2000
   -3.6830    2.3780   -1.1270 N   0  0  0  0  0  0  0  0  0  0  0  0
   -4.1020    1.2650   -0.3260 C   0  0  0  0  0  0  0  0  0  0  0  0
   -3.1910    0.0830   -0.3910 C   0  0  1  0  0  0  0  0  0  0  0  0
   -3.7300   -1.0100    0.4830 C   0  0  0  0  0  0  0  0  0  0  0  0
   -3.8400   -0.6310    1.8150 O   0  0  0  0  0  0  0  0  0  0  0  0
   -2.9660   -0.4400   -1.7730 C   0  0  0  0  0  0  0  0  0  0  0  0
   -1.6070   -0.2380   -2.0730 O   0  0  0  0  0  0  0  0  0  0  0  0
   -1.0070   -0.5180   -0.8710 C   0  0  1  0  0  0  0  0  0  0  0  0
    0.3340   -0.3590   -0.8150 O   0  0  0  0  0  0  0  0  0  0  0  0
    1.0670   -1.4660   -0.4790 C   0  0  0  0  0  0  0  0  0  0  0  0
    2.5410   -1.0020   -0.4910 C   0  0  2  0  0  0  0  0  0  0  0  0
    3.3260   -2.0550   -0.1650 O   0  0  0  0  0  0  0  0  0  0  0  0
    2.5620    0.1980    0.4120 C   0  0  0  0  0  0  0  0  0  0  0  0
    3.5970    0.9320    0.6150 O   0  0  0  0  0  0  0  0  0  0  0  0
    4.7970    0.8310    1.1060 C   0  0  0  0  0  0  0  0  0  0  0  0
    5.8080   -0.0810    0.4750 C   0  0  0  0  0  0  0  0  0  0  0  0
    6.0460    0.2470   -0.8430 O   0  0  0  0  0  0  0  0  0  0  0  0
   -1.7840    0.3910    0.0750 C   0  0  2  0  0  0  0  0  0  0  0  0
   -1.5360   -0.0070    1.3630 O   0  0  0  0  0  0  0  0  0  0  0  0
  1  2  1  0
  3  2  1  6
  3  4  1  0
  3  6  1  0
  3 18  1  0
  4  5  1  0
  6  7  1  0
  7  8  1  0
  8  9  1  6
  8 18  1  0
  9 10  1  0
 10 11  1  0
 11 12  1  1
 11 13  1  0
 13 14  1  0
 14 15  1  0
 15 16  1  0
 16 17  1  0
 18 19  1  1
M  CHG  1   1   1
M  END
