
     RDKit          3D

 19 19  0  0  0  0  0  0  0  0999 V2000
    2.4420   -2.9700   -0.6870 C   0  0  0  0  0  0  0  0  0  0  0  0
    1.9000   -2.5400    0.4970 O   0  0  0  0  0  0  0  0  0  0  0  0
    2.0040   -1.1590    0.6540 C   0  0  0  0  0  0  0  0  0  0  0  0
    1.2900   -0.4560   -0.4480 C   0  0  2  0  0  0  0  0  0  0  0  0
    1.5220    1.0480   -0.1570 C   0  0  0  0  0  0  0  0  0  0  0  0
    2.9100    1.1930   -0.1930 O   0  0  0  0  0  0  0  0  0  0  0  0
    3.3360    2.4750    0.0430 C   0  0  2  0  0  0  0  0  0  0  0  0
    4.1120    2.8740   -1.0510 O   0  0  0  0  0  0  0  0  0  0  0  0
    4.1940    2.5490    1.1610 O   0  0  0  0  0  0  0  0  0  0  0  0
   -0.1510   -0.7260   -0.6500 C   0  0  2  0  0  0  0  0  0  0  0  0
   -0.5050    0.0600   -1.8220 O   0  0  0  0  0  0  0  0  0  0  0  0
   -1.0860   -0.2930    0.4500 C   0  0  2  0  0  0  0  0  0  0  0  0
   -0.9240   -1.0160    1.6730 N   0  0  0  0  0  0  0  0  0  0  0  0
   -2.5230   -0.3090    0.0350 C   0  0  2  0  0  0  0  0  0  0  0  0
   -3.0510   -1.5530   -0.1880 O   0  0  0  0  0  0  0  0  0  0  0  0
   -2.8430    0.7050   -1.0500 C   0  0  0  0  0  0  0  0  0  0  0  0
   -4.1170    1.3620   -0.5890 C   0  0  0  0  0  0  0  0  0  0  0  0
   -4.5130    0.7450    0.5570 O   0  0  0  0  0  0  0  0  0  0  0  0
   -3.3440    0.3000    1.1820 C   0  0  0  0  0  0  0  0  0  0  0  0
  1  2  1  0
  2  3  1  0
  4  3  1  1
  4  5  1  0
  4 10  1  0
  5  6  1  0
  6  7  1  0
  7  8  1  6
  7  9  1  0
 10 11  1  6
 10 12  1  0
 12 13  1  1
 12 14  1  0
 14 15  1  6
 14 16  1  0
 14 19  1  0
 16 17  1  0
 17 18  1  0
 18 19  1  0
M  CHG  1  13   1
M  END
