
     RDKit          3D

 19 19  0  0  0  0  0  0  0  0999 V2000
   -0.9190   -3.3950   -1.0550 N   0  0  0  0  0  0  0  0  0  0  0  0
    0.0870   -2.8160   -0.1990 C   0  0  0  0  0  0  0  0  0  0  0  0
   -0.4200   -1.8730    0.8260 C   0  0  1  0  0  0  0  0  0  0  0  0
    0.6360   -1.3980    1.5770 O   0  0  0  0  0  0  0  0  0  0  0  0
    1.7880   -1.1240    0.9410 C   0  0  0  0  0  0  0  0  0  0  0  0
    1.8330   -0.0970   -0.1020 C   0  0  2  0  0  0  0  0  0  0  0  0
    2.6540    0.9810    0.2540 O   0  0  0  0  0  0  0  0  0  0  0  0
    3.7420    1.1560   -0.5590 C   0  0  0  0  0  0  0  0  0  0  0  0
    4.5250    2.3380   -0.0610 C   0  0  0  0  0  0  0  0  0  0  0  0
    5.6540    2.5990   -0.8250 O   0  0  0  0  0  0  0  0  0  0  0  0
    0.5670    0.5050   -0.5670 C   0  0  0  0  0  0  0  0  0  0  0  0
   -0.4710   -0.3160   -0.8550 O   0  0  0  0  0  0  0  0  0  0  0  0
   -1.1250   -0.6640    0.2960 C   0  0  1  0  0  0  0  0  0  0  0  0
   -2.6090   -0.8350    0.1530 C   0  0  1  0  0  0  0  0  0  0  0  0
   -3.1890   -1.1920    1.3730 O   0  0  0  0  0  0  0  0  0  0  0  0
   -3.2880    0.4610   -0.2660 C   0  0  0  0  0  0  0  0  0  0  0  0
   -3.1080    1.4670    0.6490 O   0  0  0  0  0  0  0  0  0  0  0  0
   -3.7670    2.5990    0.1690 C   0  0  0  0  0  0  0  0  0  0  0  0
   -3.6330    3.6680    1.0400 O   0  0  0  0  0  0  0  0  0  0  0  0
  1  2  1  0
  3  2  1  6
  3  4  1  0
  3 13  1  0
  4  5  1  0
  5  6  1  0
  6  7  1  1
  6 11  1  0
  7  8  1  0
  8  9  1  0
  9 10  1  0
 11 12  1  0
 13 12  1  6
 13 14  1  0
 14 15  1  1
 14 16  1  0
 16 17  1  0
 17 18  1  0
 18 19  1  0
M  CHG  1   1   1
M  END
