
     RDKit          3D

 25 26  0  0  0  0  0  0  0  0999 V2000
   -1.7580   -2.1720    3.9740 C   0  0  0  0  0  0  0  0  0  0  0  0
   -1.2790   -1.2990    2.8830 C   0  0  0  0  0  0  0  0  0  0  0  0
   -0.1370   -0.7710    2.8650 O   0  0  0  0  0  0  0  0  0  0  0  0
   -2.1660   -1.0460    1.7960 N   0  0  0  0  0  0  0  0  0  0  0  0
   -1.7820   -0.2130    0.7020 C   0  0  1  0  0  0  0  0  0  0  0  0
   -1.7350   -0.9690   -0.5930 C   0  0  0  0  0  0  0  0  0  0  0  0
   -0.6660   -1.6190   -0.9490 N   0  0  0  0  0  0  0  0  0  0  0  0
    0.4470   -1.6250   -0.1430 O   0  0  0  0  0  0  0  0  0  0  0  0
    1.6260   -0.9780   -0.5930 C   0  0  0  0  0  0  0  0  0  0  0  0
    1.6420   -0.4120   -1.7100 O   0  0  0  0  0  0  0  0  0  0  0  0
    2.7750   -0.9780    0.2240 N   0  0  0  0  0  0  0  0  0  0  0  0
    4.0150   -0.3840   -0.0770 C   0  0  0  0  0  0  0  0  0  0  0  0
    4.3290    0.2990   -1.2130 C   0  0  0  0  0  0  0  0  0  0  0  0
    5.5960    0.8560   -1.4210 C   0  0  0  0  0  0  0  0  0  0  0  0
    6.5710    0.7330   -0.4840 C   0  0  0  0  0  0  0  0  0  0  0  0
    6.2790    0.0470    0.6720 C   0  0  0  0  0  0  0  0  0  0  0  0
    5.0280   -0.5010    0.8750 C   0  0  0  0  0  0  0  0  0  0  0  0
   -2.8840   -0.9290   -1.3650 O   0  0  0  0  0  0  0  0  0  0  0  0
   -3.5650    0.3140   -1.6100 C   0  0  2  0  0  0  0  0  0  0  0  0
   -3.4640    0.5200   -3.1250 C   0  0  0  0  0  0  0  0  0  0  0  0
   -4.0720    1.6790   -3.5380 O   0  0  0  0  0  0  0  0  0  0  0  0
   -2.7090    1.3730   -0.9240 C   0  0  1  0  0  0  0  0  0  0  0  0
   -3.1880    2.6500   -1.1310 O   0  0  0  0  0  0  0  0  0  0  0  0
   -2.6540    1.0100    0.5460 C   0  0  2  0  0  0  0  0  0  0  0  0
   -2.1410    2.0370    1.3240 O   0  0  0  0  0  0  0  0  0  0  0  0
  1  2  1  0
  2  3  2  0
  2  4  1  0
  5  4  1  1
  5  6  1  0
  5 24  1  0
  6  7  2  3
  6 18  1  0
  7  8  1  0
  8  9  1  0
  9 10  2  0
  9 11  1  0
 11 12  1  0
 12 13  2  0
 12 17  1  0
 13 14  1  0
 14 15  2  0
 15 16  1  0
 16 17  2  0
 18 19  1  0
 19 20  1  6
 19 22  1  0
 20 21  1  0
 22 23  1  1
 22 24  1  0
 24 25  1  1
M  END
