
     RDKit          3D

 20 20  0  0  0  0  0  0  0  0999 V2000
   -3.3140   -2.2630   -0.8770 N   0  0  0  0  0  0  0  0  0  0  0  0
   -2.3380   -1.6240   -0.0150 C   0  0  0  0  0  0  0  0  0  0  0  0
   -2.2060   -0.1530   -0.3720 C   0  0  2  0  0  0  0  0  0  0  0  0
   -3.4540    0.4060   -0.1920 O   0  0  0  0  0  0  0  0  0  0  0  0
   -1.9300   -0.0700   -1.7400 O   0  0  0  0  0  0  0  0  0  0  0  0
   -1.1920    0.5300    0.4680 C   0  0  2  0  0  0  0  0  0  0  0  0
   -1.0950    1.9950    0.2660 C   0  0  0  0  0  0  0  0  0  0  0  0
   -2.3140    2.8190    0.5470 C   0  0  0  0  0  0  0  0  0  0  0  0
   -2.0350    4.1920    0.3440 O   0  0  0  0  0  0  0  0  0  0  0  0
    0.0970   -0.0850    0.3420 O   0  0  0  0  0  0  0  0  0  0  0  0
    0.7480   -0.7200    1.3550 C   0  0  0  0  0  0  0  0  0  0  0  0
    0.2100   -0.7860    2.4790 O   0  0  0  0  0  0  0  0  0  0  0  0
    2.0810   -1.3190    1.1000 C   0  0  1  0  0  0  0  0  0  0  0  0
    2.5920   -1.9300    2.2620 O   0  0  0  0  0  0  0  0  0  0  0  0
    1.9510   -2.3100    0.1520 O   0  0  0  0  0  0  0  0  0  0  0  0
    2.5180   -1.9030   -1.0200 C   0  0  0  0  0  0  0  0  0  0  0  0
    2.9620   -0.4730   -0.8880 C   0  0  0  0  0  0  0  0  0  0  0  0
    3.1060   -0.3490    0.6250 C   0  0  1  0  0  0  0  0  0  0  0  0
    2.9160    1.0530    1.0990 C   0  0  0  0  0  0  0  0  0  0  0  0
    3.9690    1.8170    0.5560 O   0  0  0  0  0  0  0  0  0  0  0  0
  1  2  1  0
  2  3  1  0
  3  4  1  6
  3  5  1  0
  3  6  1  0
  6  7  1  6
  6 10  1  0
  7  8  1  0
  8  9  1  0
 10 11  1  0
 11 12  2  0
 11 13  1  0
 13 14  1  1
 13 15  1  0
 13 18  1  0
 15 16  1  0
 16 17  1  0
 17 18  1  0
 18 19  1  1
 19 20  1  0
M  CHG  1   1   1
M  END
