
     RDKit          3D

 25 27  0  0  0  0  0  0  0  0999 V2000
   -3.8470   -0.9980   -2.2020 C   0  0  0  0  0  0  0  0  0  0  0  0
   -3.9090    0.0030   -1.0490 C   0  0  1  0  0  0  0  0  0  0  0  0
   -4.8150   -0.6010    0.0070 C   0  0  0  0  0  0  0  0  0  0  0  0
   -2.6520    0.3170   -0.6050 O   0  0  0  0  0  0  0  0  0  0  0  0
   -1.9640    1.4990   -0.5660 C   0  0  0  0  0  0  0  0  0  0  0  0
   -2.5180    2.6760   -1.0130 C   0  0  0  0  0  0  0  0  0  0  0  0
   -1.8800    3.8980   -1.0080 C   0  0  0  0  0  0  0  0  0  0  0  0
   -0.6010    3.9480   -0.5220 C   0  0  0  0  0  0  0  0  0  0  0  0
   -0.0240    2.7830   -0.0670 C   0  0  0  0  0  0  0  0  0  0  0  0
   -0.6510    1.5600   -0.0700 C   0  0  0  0  0  0  0  0  0  0  0  0
   -0.0610    0.3890    0.5280 C   0  0  0  0  0  0  0  0  0  0  0  0
    1.2660    0.0380    0.5060 C   0  0  0  0  0  0  0  0  0  0  0  0
    2.3960    0.5000   -0.1420 C   0  0  0  0  0  0  0  0  0  0  0  0
    2.3740    1.4630   -0.9340 O   0  0  0  0  0  0  0  0  0  0  0  0
    3.5320   -0.0930    0.0730 O   0  0  0  0  0  0  0  0  0  0  0  0
    3.6690   -1.1340    0.8890 C   0  0  0  0  0  0  0  0  0  0  0  0
    4.9910   -1.7200    1.0560 C   0  0  0  0  0  0  0  0  0  0  0  0
    5.2390   -2.7540    1.8400 C   0  0  0  0  0  0  0  0  0  0  0  0
    6.6320   -3.2420    1.9110 C   0  0  0  0  0  0  0  0  0  0  0  0
    7.5430   -2.6890    1.2470 O   0  0  0  0  0  0  0  0  0  0  0  0
    2.5900   -1.6460    1.5600 C   0  0  0  0  0  0  0  0  0  0  0  0
    1.3550   -1.0600    1.3750 C   0  0  0  0  0  0  0  0  0  0  0  0
    0.1540   -1.2830    1.8290 O   0  0  0  0  0  0  0  0  0  0  0  0
   -0.7310   -0.4620    1.3670 N   0  0  0  0  0  0  0  0  0  0  0  0
   -2.0700   -0.4560    1.6950 O   0  0  0  0  0  0  0  0  0  0  0  0
  2  1  1  6
  2  3  1  0
  2  4  1  0
  4  5  1  0
  5  6  2  0
  5 10  1  0
  6  7  1  0
  7  8  2  0
  8  9  1  0
  9 10  2  0
 10 11  1  0
 11 12  1  0
 11 24  2  0
 12 13  1  0
 12 22  2  0
 13 14  2  0
 13 15  1  0
 15 16  1  0
 16 17  1  0
 16 21  2  0
 17 18  2  3
 18 19  1  0
 19 20  2  0
 21 22  1  0
 22 23  1  0
 23 24  1  0
 24 25  1  0
M  CHG  2  24   1  25  -1
M  END
