
     RDKit          3D

 18 18  0  0  0  0  0  0  0  0999 V2000
   -1.2100    2.7210    1.1710 N   0  0  0  0  0  0  0  0  0  0  0  0
   -2.1900    1.7340    0.9740 C   0  0  0  0  0  0  0  0  0  0  0  0
   -1.9200    0.4630    0.7230 C   0  0  0  0  0  0  0  0  0  0  0  0
   -0.5000    0.1760    0.6700 C   0  0  0  0  0  0  0  0  0  0  0  0
    0.2480   -0.6850    0.0110 C   0  0  0  0  0  0  0  0  0  0  0  0
    1.6660   -0.5420    0.3400 C   0  0  0  0  0  0  0  0  0  0  0  0
    2.0470    0.3110    1.1510 O   0  0  0  0  0  0  0  0  0  0  0  0
    2.6060   -1.3660   -0.2590 O   0  0  0  0  0  0  0  0  0  0  0  0
    3.9990   -1.2480    0.0430 C   0  0  0  0  0  0  0  0  0  0  0  0
    4.4840    0.1110   -0.3090 C   0  0  0  0  0  0  0  0  0  0  0  0
    5.6610    0.4420   -0.1300 O   0  0  0  0  0  0  0  0  0  0  0  0
    3.6030    1.0240   -0.8470 O   0  0  0  0  0  0  0  0  0  0  0  0
    0.0210   -1.7280   -0.9460 N   0  0  0  0  0  0  0  0  0  0  0  0
   -1.1090   -2.1910   -1.6940 C   0  0  0  0  0  0  0  0  0  0  0  0
   -0.7880   -2.7400   -2.7970 O   0  0  0  0  0  0  0  0  0  0  0  0
   -2.8570   -2.1640   -1.4150 S   0  0  0  0  0  0  0  0  0  0  0  0
   -3.4680   -0.5500   -0.9180 C   0  0  0  0  0  0  0  0  0  0  0  0
   -3.1480   -0.3670    0.5560 C   0  0  0  0  0  0  0  0  0  0  0  0
  1  2  1  0
  2  3  2  3
  3  4  1  0
  3 18  1  0
  4  5  2  0
  5  6  1  0
  5 13  1  0
  6  7  2  0
  6  8  1  0
  8  9  1  0
  9 10  1  0
 10 11  2  0
 10 12  1  0
 13 14  1  0
 14 15  2  0
 14 16  1  0
 16 17  1  0
 17 18  1  0
M  CHG  1   1   1
M  END
