
     RDKit          3D

 18 18  0  0  0  0  0  0  0  0999 V2000
   -3.3540   -0.5290    1.3010 C   0  0  0  0  0  0  0  0  0  0  0  0
   -2.4750   -0.6370    0.0750 C   0  0  2  0  0  0  0  0  0  0  0  0
   -1.1230   -0.1260    0.4210 C   0  0  0  0  0  0  0  0  0  0  0  0
   -0.2230   -0.1510   -0.6760 O   0  0  0  0  0  0  0  0  0  0  0  0
    1.0910    0.3540   -0.3060 C   0  0  0  0  0  0  0  0  0  0  0  0
    1.9230   -0.5090    0.2020 C   0  0  0  0  0  0  0  0  0  0  0  0
    3.2650   -0.4030    0.6760 C   0  0  0  0  0  0  0  0  0  0  0  0
    3.9610    0.6270    0.6960 O   0  0  0  0  0  0  0  0  0  0  0  0
    3.9320   -1.5430    1.1870 O   0  0  0  0  0  0  0  0  0  0  0  0
    5.2440   -1.4460    1.6510 N   0  0  0  0  0  0  0  0  0  0  0  0
    1.3400    1.7440   -0.5350 C   0  0  0  0  0  0  0  0  0  0  0  0
    2.5070    2.4800   -0.2720 N   0  0  0  0  0  0  0  0  0  0  0  0
    0.3150    2.4440   -1.0770 C   0  0  0  0  0  0  0  0  0  0  0  0
    0.5540    4.1720   -1.3880 S   0  0  0  0  0  0  0  0  0  0  0  0
   -3.0870    0.0990   -0.9330 O   0  0  0  0  0  0  0  0  0  0  0  0
   -4.1150   -0.7620   -1.3190 C   0  0  0  0  0  0  0  0  0  0  0  0
   -3.4280   -2.0960   -1.3160 C   0  0  0  0  0  0  0  0  0  0  0  0
   -2.4060   -1.9440   -0.3900 O   0  0  0  0  0  0  0  0  0  0  0  0
  2  1  1  1
  2  3  1  0
  2 15  1  0
  2 18  1  0
  3  4  1  0
  4  5  1  0
  5  6  2  3
  5 11  1  0
  6  7  1  0
  7  8  2  0
  7  9  1  0
  9 10  1  0
 11 12  1  0
 11 13  2  3
 13 14  1  0
 15 16  1  0
 16 17  1  0
 17 18  1  0
M  CHG  1  10   1
M  END
