
     RDKit          3D

 18 19  0  0  0  0  0  0  0  0999 V2000
   -1.5020    3.7350    0.9570 N   0  0  0  0  0  0  0  0  0  0  0  0
   -1.8390    2.3350    0.6980 C   0  0  0  0  0  0  0  0  0  0  0  0
   -3.0110    2.0800    0.8640 O   0  0  0  0  0  0  0  0  0  0  0  0
   -0.7450    1.4810    0.2910 C   0  0  0  0  0  0  0  0  0  0  0  0
   -0.6910    0.2210   -0.0110 C   0  0  0  0  0  0  0  0  0  0  0  0
   -1.7360   -0.8560   -0.0590 C   0  0  0  0  0  0  0  0  0  0  0  0
   -1.3060   -2.0800   -0.4250 C   0  0  0  0  0  0  0  0  0  0  0  0
   -2.6930   -3.1260   -0.4000 S   0  0  1  0  0  0  0  0  0  0  0  0
   -3.0030   -3.7130   -1.7370 O   0  0  0  0  0  0  0  0  0  0  0  0
   -2.5700   -4.1690    0.6690 O   0  0  0  0  0  0  0  0  0  0  0  0
   -3.8280   -1.9220    0.0950 C   0  0  0  0  0  0  0  0  0  0  0  0
   -3.1160   -0.7900    0.2200 C   0  0  0  0  0  0  0  0  0  0  0  0
    0.6670   -0.0500   -0.3340 O   0  0  0  0  0  0  0  0  0  0  0  0
    1.4280    1.0580   -0.2240 C   0  0  0  0  0  0  0  0  0  0  0  0
    2.7400    1.1030   -0.4650 C   0  0  0  0  0  0  0  0  0  0  0  0
    3.4750   -0.1090   -0.8860 C   0  0  0  0  0  0  0  0  0  0  0  0
    4.5300   -0.4640    0.0410 N   0  0  0  0  0  0  0  0  0  0  0  0
    0.5790    2.0420    0.1670 O   0  0  0  0  0  0  0  0  0  0  0  0
  1  2  1  0
  2  3  2  0
  2  4  1  0
  4  5  2  0
  4 18  1  0
  5  6  1  0
  5 13  1  0
  6  7  2  0
  6 12  1  0
  8  7  1  6
  8  9  2  0
  8 10  2  0
  8 11  1  0
 11 12  2  0
 13 14  1  0
 14 15  2  3
 14 18  1  0
 15 16  1  0
 16 17  1  0
M  CHG  1  17   1
M  END
