
     RDKit          3D

 25 27  0  0  0  0  0  0  0  0999 V2000
   -0.1090   -0.9920    2.4500 C   0  0  0  0  0  0  0  0  0  0  0  0
   -1.1220   -1.4240    1.4820 C   0  0  0  0  0  0  0  0  0  0  0  0
   -1.4810   -2.6410    1.5950 O   0  0  0  0  0  0  0  0  0  0  0  0
   -1.7590   -0.6400    0.4500 C   0  0  0  0  0  0  0  0  0  0  0  0
   -3.0430   -1.0880    0.0370 C   0  0  0  0  0  0  0  0  0  0  0  0
   -3.8780   -0.3440   -0.7530 C   0  0  0  0  0  0  0  0  0  0  0  0
   -3.5120    0.9050   -1.2000 C   0  0  0  0  0  0  0  0  0  0  0  0
   -2.2820    1.3510   -0.8190 C   0  0  0  0  0  0  0  0  0  0  0  0
   -1.4050    0.5870   -0.0040 C   0  0  0  0  0  0  0  0  0  0  0  0
   -0.0420    1.0860    0.0750 C   0  0  0  0  0  0  0  0  0  0  0  0
    1.0600    0.3830    0.1140 C   0  0  0  0  0  0  0  0  0  0  0  0
    2.3490    1.0540    0.2010 C   0  0  0  0  0  0  0  0  0  0  0  0
    2.4060    2.3320    0.2390 O   0  0  0  0  0  0  0  0  0  0  0  0
    3.6130    0.3420    0.2480 C   0  0  0  0  0  0  0  0  0  0  0  0
    3.6750   -1.0300    0.2140 C   0  0  0  0  0  0  0  0  0  0  0  0
    4.8960   -1.7110    0.2590 C   0  0  0  0  0  0  0  0  0  0  0  0
    6.0410   -0.9960    0.3390 N   0  0  0  0  0  0  0  0  0  0  0  0
    7.2410   -1.6940    0.3830 O   0  0  0  0  0  0  0  0  0  0  0  0
    6.0250    0.3470    0.3740 C   0  0  0  0  0  0  0  0  0  0  0  0
    7.2370    1.0200    0.4560 O   0  0  0  0  0  0  0  0  0  0  0  0
    4.8190    1.0130    0.3290 C   0  0  0  0  0  0  0  0  0  0  0  0
   -4.3900    1.6170   -1.9890 O   0  0  0  0  0  0  0  0  0  0  0  0
   -5.8110    1.4350   -1.8850 C   0  0  0  0  0  0  0  0  0  0  0  0
   -6.1240   -0.0140   -1.7380 C   0  0  0  0  0  0  0  0  0  0  0  0
   -5.1370   -0.7980   -1.1500 O   0  0  0  0  0  0  0  0  0  0  0  0
  1  2  1  0
  2  3  2  0
  2  4  1  0
  4  5  2  0
  4  9  1  0
  5  6  1  0
  6  7  2  0
  6 25  1  0
  7  8  1  0
  7 22  1  0
  8  9  2  0
  9 10  1  0
 10 11  2  3
 11 12  1  0
 12 13  2  0
 12 14  1  0
 14 15  2  0
 14 21  1  0
 15 16  1  0
 16 17  2  0
 17 18  1  0
 17 19  1  0
 19 20  1  0
 19 21  2  0
 22 23  1  0
 23 24  1  0
 24 25  1  0
M  CHG  2  17   1  18  -1
M  END
