
     RDKit          3D

 25 29  0  0  0  0  0  0  0  0999 V2000
    2.1800    3.6410    1.7070 O   0  0  0  0  0  0  0  0  0  0  0  0
    1.6030    2.6190    1.2220 C   0  0  0  0  0  0  0  0  0  0  0  0
    0.2330    2.5390    1.1040 O   0  0  0  0  0  0  0  0  0  0  0  0
   -0.3900    1.2600    1.1070 C   0  0  0  0  0  0  0  0  0  0  0  0
    0.3340    0.3790    0.1580 C   0  0  0  0  0  0  0  0  0  0  0  0
   -0.2740   -0.3850   -0.7110 C   0  0  0  0  0  0  0  0  0  0  0  0
   -1.7210   -0.4730   -0.8530 C   0  0  0  0  0  0  0  0  0  0  0  0
   -2.3870   -0.4120   -2.0420 C   0  0  0  0  0  0  0  0  0  0  0  0
   -3.7580   -0.5210   -2.1840 C   0  0  0  0  0  0  0  0  0  0  0  0
   -4.5330   -0.7060   -1.0430 C   0  0  0  0  0  0  0  0  0  0  0  0
   -3.8860   -0.7710    0.1680 C   0  0  0  0  0  0  0  0  0  0  0  0
   -2.4930   -0.6580    0.2870 C   0  0  0  0  0  0  0  0  0  0  0  0
   -4.8250   -0.9460    1.0690 O   0  0  0  0  0  0  0  0  0  0  0  0
   -5.9990   -0.9940    0.5060 C   0  0  0  0  0  0  0  0  0  0  0  0
   -5.8330   -0.8470   -0.7960 N   0  0  0  0  0  0  0  0  0  0  0  0
   -6.7920   -0.8290   -1.8090 O   0  0  0  0  0  0  0  0  0  0  0  0
    1.7930    0.3980    0.2550 C   0  0  0  0  0  0  0  0  0  0  0  0
    2.5040   -0.6930   -0.1750 C   0  0  0  0  0  0  0  0  0  0  0  0
    3.8890   -0.6810   -0.0780 C   0  0  0  0  0  0  0  0  0  0  0  0
    4.5170    0.4240    0.4460 C   0  0  0  0  0  0  0  0  0  0  0  0
    3.8100    1.5240    0.8800 C   0  0  0  0  0  0  0  0  0  0  0  0
    2.4400    1.5180    0.7870 C   0  0  0  0  0  0  0  0  0  0  0  0
    5.8730    0.1320    0.4080 O   0  0  0  0  0  0  0  0  0  0  0  0
    6.0890   -1.0140   -0.4030 C   0  0  0  0  0  0  0  0  0  0  0  0
    4.8220   -1.6440   -0.4370 O   0  0  0  0  0  0  0  0  0  0  0  0
  1  2  2  0
  2  3  1  0
  2 22  1  0
  3  4  1  0
  4  5  1  0
  5  6  2  3
  5 17  1  0
  6  7  1  0
  7  8  2  0
  7 12  1  0
  8  9  1  0
  9 10  2  0
 10 11  1  0
 10 15  1  0
 11 12  2  0
 11 13  1  0
 13 14  1  0
 14 15  2  0
 15 16  1  0
 17 18  2  0
 17 22  1  0
 18 19  1  0
 19 20  2  0
 19 25  1  0
 20 21  1  0
 20 23  1  0
 21 22  2  0
 23 24  1  0
 24 25  1  0
M  CHG  2  15   1  16  -1
M  END
