
     RDKit          3D

 24 25  0  0  0  0  0  0  0  0999 V2000
   -2.0430   -2.7190    0.7170 O   0  0  0  0  0  0  0  0  0  0  0  0
   -2.0310   -1.5350    0.2810 C   0  0  0  0  0  0  0  0  0  0  0  0
   -0.7190   -1.0020    0.0360 N   0  0  0  0  0  0  0  0  0  0  0  0
    0.4110   -1.8250    0.2970 C   0  0  0  0  0  0  0  0  0  0  0  0
    1.6850   -1.1650    0.0080 C   0  0  0  0  0  0  0  0  0  0  0  0
    1.8830    0.0550   -0.4490 C   0  0  0  0  0  0  0  0  0  0  0  0
    3.2650    0.5770   -0.6920 C   0  0  1  0  0  0  0  0  0  0  0  0
    3.2930    1.8700   -0.1940 O   0  0  0  0  0  0  0  0  0  0  0  0
    4.5780    2.1790    0.1550 C   0  0  0  0  0  0  0  0  0  0  0  0
    5.3620    0.9140    0.3010 C   0  0  2  0  0  0  0  0  0  0  0  0
    6.2870    0.8110   -0.7360 O   0  0  0  0  0  0  0  0  0  0  0  0
    4.2960   -0.1740    0.1100 C   0  0  2  0  0  0  0  0  0  0  0  0
    4.8710   -1.2230   -0.5720 O   0  0  0  0  0  0  0  0  0  0  0  0
   -3.2100   -0.7370    0.0310 C   0  0  0  0  0  0  0  0  0  0  0  0
   -3.1030    0.5500   -0.4470 C   0  0  0  0  0  0  0  0  0  0  0  0
   -4.2330    1.2970   -0.6800 C   0  0  0  0  0  0  0  0  0  0  0  0
   -4.0910    2.6230   -1.1740 N   0  0  0  0  0  0  0  0  0  0  0  0
   -5.1120    3.3310   -1.3960 O   0  0  0  0  0  0  0  0  0  0  0  0
   -2.8490    3.1630   -1.4180 O   0  0  0  0  0  0  0  0  0  0  0  0
   -5.4920    0.7920   -0.4480 C   0  0  0  0  0  0  0  0  0  0  0  0
   -5.5900   -0.4890    0.0270 C   0  0  0  0  0  0  0  0  0  0  0  0
   -6.8730   -0.9840    0.2570 O   0  0  0  0  0  0  0  0  0  0  0  0
   -4.4580   -1.2910    0.2800 C   0  0  0  0  0  0  0  0  0  0  0  0
   -4.7070   -2.5490    0.7520 O   0  0  0  0  0  0  0  0  0  0  0  0
  1  2  2  0
  2  3  1  0
  2 14  1  0
  3  4  1  0
  4  5  1  0
  5  6  2  3
  7  6  1  1
  7  8  1  0
  7 12  1  0
  8  9  1  0
  9 10  1  0
 10 11  1  6
 10 12  1  0
 12 13  1  6
 14 15  2  0
 14 23  1  0
 15 16  1  0
 16 17  1  0
 16 20  2  0
 17 18  2  0
 17 19  1  0
 20 21  1  0
 21 22  1  0
 21 23  2  0
 23 24  1  0
M  CHG  2  17   1  19  -1
M  END
