
     RDKit          3D

 32 33  0  0  0  0  0  0  0  0999 V2000
   -7.6810    2.2590   -0.6640 C   0  0  0  0  0  0  0  0  0  0  0  0
   -7.3610    1.0910   -1.1760 C   0  0  0  0  0  0  0  0  0  0  0  0
   -7.1450   -0.0020   -0.2420 N   0  0  0  0  0  0  0  0  0  0  0  0
   -8.2150   -0.8370    0.0920 C   0  0  0  0  0  0  0  0  0  0  0  0
   -8.0320   -1.7620    0.9820 C   0  0  0  0  0  0  0  0  0  0  0  0
   -9.1800   -2.9570    1.5890 Cl  0  0  0  0  0  0  0  0  0  0  0  0
   -6.3900   -1.5370    1.5940 S   0  0  0  0  0  0  0  0  0  0  0  0
   -5.9360   -0.2030    0.3800 C   0  0  0  0  0  0  0  0  0  0  0  0
   -4.6610    0.2080    0.3060 C   0  0  0  0  0  0  0  0  0  0  0  0
   -3.8210   -0.3900    1.2930 C   0  0  0  0  0  0  0  0  0  0  0  0
   -2.6010   -0.3090    1.5980 C   0  0  0  0  0  0  0  0  0  0  0  0
   -1.3020    0.6290    0.9090 S   0  0  0  0  0  0  0  0  0  0  0  0
    0.2840    0.0150    1.3020 C   0  0  0  0  0  0  0  0  0  0  0  0
    0.6630   -1.2290    1.1340 C   0  0  0  0  0  0  0  0  0  0  0  0
   -0.1930   -2.2460    0.5850 C   0  0  0  0  0  0  0  0  0  0  0  0
    0.3010   -3.6070    0.4800 N   0  0  0  0  0  0  0  0  0  0  0  0
   -1.3400   -2.0100    0.1890 O   0  0  0  0  0  0  0  0  0  0  0  0
    2.0890   -1.6210    1.5500 C   0  0  0  0  0  0  0  0  0  0  0  0
    2.9370   -0.6040    0.9400 N   0  0  0  0  0  0  0  0  0  0  0  0
    4.0830   -1.0380    0.2470 C   0  0  0  0  0  0  0  0  0  0  0  0
    4.3320   -2.2930    0.1750 O   0  0  0  0  0  0  0  0  0  0  0  0
    4.9870   -0.0780   -0.3890 C   0  0  0  0  0  0  0  0  0  0  0  0
    4.7690    1.1610   -0.3310 O   0  0  0  0  0  0  0  0  0  0  0  0
    6.1140   -0.6150   -1.0670 N   0  0  0  0  0  0  0  0  0  0  0  0
    7.0660    0.2370   -1.7200 C   0  0  0  0  0  0  0  0  0  0  0  0
    7.7280    1.1570   -0.7300 C   0  0  0  0  0  0  0  0  0  0  0  0
    8.7460    2.0570   -1.4280 C   0  0  0  0  0  0  0  0  0  0  0  0
    2.6280    0.7950    1.0350 C   0  0  0  0  0  0  0  0  0  0  0  0
    1.3090    1.0400    1.7320 C   0  0  0  0  0  0  0  0  0  0  0  0
   -4.1720    1.0780   -0.6950 C   0  0  0  0  0  0  0  0  0  0  0  0
   -4.7910    1.6770   -1.8160 N   0  0  0  0  0  0  0  0  0  0  0  0
   -2.9310    1.4370   -0.6490 O   0  0  0  0  0  0  0  0  0  0  0  0
  1  2  2  0
  2  3  1  0
  3  4  1  0
  3  8  1  0
  4  5  2  0
  5  6  1  0
  5  7  1  0
  7  8  1  0
  8  9  2  3
  9 10  1  0
  9 30  1  0
 10 11  2  3
 11 12  1  0
 12 13  1  0
 13 14  2  0
 13 29  1  0
 14 15  1  0
 14 18  1  0
 15 16  1  0
 15 17  2  0
 18 19  1  0
 19 20  1  0
 19 28  1  0
 20 21  2  0
 20 22  1  0
 22 23  2  0
 22 24  1  0
 24 25  1  0
 25 26  1  0
 26 27  1  0
 28 29  1  0
 30 31  1  0
 30 32  2  0
M  END
