
     RDKit          3D

 32 34  0  0  0  0  0  0  0  0999 V2000
    8.9940   -0.2620    0.4430 C   0  0  0  0  0  0  0  0  0  0  0  0
    7.8110    0.5610   -0.0830 C   0  0  1  0  0  0  0  0  0  0  0  0
    8.0380    0.6970   -1.5660 C   0  0  0  0  0  0  0  0  0  0  0  0
    6.5670   -0.2110    0.2170 C   0  0  0  0  0  0  0  0  0  0  0  0
    5.3110    0.4550   -0.2300 C   0  0  1  0  0  0  0  0  0  0  0  0
    5.2470    0.7520   -1.9810 Cl  0  0  0  0  0  0  0  0  0  0  0  0
    4.1610   -0.4730    0.0780 C   0  0  0  0  0  0  0  0  0  0  0  0
    4.3900   -1.5680    0.6270 O   0  0  0  0  0  0  0  0  0  0  0  0
    2.8410   -0.1100   -0.2480 N   0  0  0  0  0  0  0  0  0  0  0  0
    1.6730   -0.8700   -0.0270 C   0  0  0  0  0  0  0  0  0  0  0  0
    1.6480   -2.1920    0.3270 C   0  0  0  0  0  0  0  0  0  0  0  0
    0.4300   -2.8530    0.5380 C   0  0  0  0  0  0  0  0  0  0  0  0
   -0.7460   -2.1810    0.3900 C   0  0  0  0  0  0  0  0  0  0  0  0
   -0.7730   -0.8430    0.0330 C   0  0  0  0  0  0  0  0  0  0  0  0
   -2.0390   -0.2160   -0.1180 N   0  0  0  0  0  0  0  0  0  0  0  0
   -2.3260    1.1430   -0.2680 C   0  0  0  0  0  0  0  0  0  0  0  0
   -1.3340    1.9440   -0.2770 O   0  0  0  0  0  0  0  0  0  0  0  0
   -3.6120    1.7030   -0.4120 N   0  0  0  0  0  0  0  0  0  0  0  0
   -3.8090    3.1590   -0.6500 C   0  0  0  0  0  0  0  0  0  0  0  0
   -4.9190    3.0230   -1.6850 C   0  0  0  0  0  0  0  0  0  0  0  0
   -5.7030    1.8590   -1.0990 C   0  0  0  0  0  0  0  0  0  0  0  0
   -4.9270    1.1240   -0.3710 C   0  0  0  0  0  0  0  0  0  0  0  0
   -5.5730   -0.0050    0.2770 C   0  0  0  0  0  0  0  0  0  0  0  0
   -5.2170   -0.6790    1.3100 C   0  0  0  0  0  0  0  0  0  0  0  0
   -5.8520   -1.7950    1.9560 C   0  0  0  0  0  0  0  0  0  0  0  0
   -5.3210   -2.3620    2.9820 O   0  0  0  0  0  0  0  0  0  0  0  0
   -7.3760   -2.4750    1.4320 S   0  0  0  0  0  0  0  0  0  0  0  0
   -8.6570   -1.3430    1.2320 N   0  0  0  0  0  0  0  0  0  0  0  0
   -7.8380   -3.6370    2.2620 O   0  0  0  0  0  0  0  0  0  0  0  0
   -7.0330   -0.2550   -0.7180 S   0  0  0  0  0  0  0  0  0  0  0  0
   -7.0580    1.4730   -1.2300 N   0  0  0  0  0  0  0  0  0  0  0  0
    0.4310   -0.2290   -0.1650 C   0  0  0  0  0  0  0  0  0  0  0  0
  2  1  1  1
  2  3  1  0
  2  4  1  0
  4  5  1  0
  5  6  1  6
  5  7  1  0
  7  8  2  0
  7  9  1  0
  9 10  1  0
 10 11  2  0
 10 32  1  0
 11 12  1  0
 12 13  2  0
 13 14  1  0
 14 15  1  0
 14 32  2  0
 15 16  1  0
 16 17  2  0
 16 18  1  0
 18 19  1  0
 18 22  1  0
 19 20  1  0
 20 21  1  0
 21 22  2  0
 21 31  1  0
 22 23  1  0
 23 24  2  3
 23 30  1  0
 24 25  1  0
 25 26  2  0
 25 27  1  0
 27 28  1  1
 27 29  2  0
 30 31  1  0
M  END
