
     RDKit          3D

 32 34  0  0  0  0  0  0  0  0999 V2000
   -7.2740    1.9450    0.5290 C   0  0  0  0  0  0  0  0  0  0  0  0
   -6.2820    0.9900   -0.0800 C   0  0  1  0  0  0  0  0  0  0  0  0
   -5.7440    1.5170   -1.4020 C   0  0  0  0  0  0  0  0  0  0  0  0
   -7.0870    1.7620   -2.5730 S   0  0  0  0  0  0  0  0  0  0  0  0
   -6.4310    1.9850   -3.9520 O   0  0  0  0  0  0  0  0  0  0  0  0
   -5.1920    0.8410    0.8800 N   0  0  0  0  0  0  0  0  0  0  0  0
   -4.7870   -0.5050    1.2270 C   0  0  0  0  0  0  0  0  0  0  0  0
   -5.3880   -1.4650    0.6730 O   0  0  0  0  0  0  0  0  0  0  0  0
   -3.7170   -0.7020    2.1960 C   0  0  0  0  0  0  0  0  0  0  0  0
   -2.4790   -1.2290    1.6800 N   0  0  0  0  0  0  0  0  0  0  0  0
   -2.3520   -2.5820    1.6750 C   0  0  0  0  0  0  0  0  0  0  0  0
   -3.5760   -3.5420    2.2000 S   0  0  0  0  0  0  0  0  0  0  0  0
   -1.1960   -3.1030    1.2230 N   0  0  0  0  0  0  0  0  0  0  0  0
   -0.1680   -2.3370    0.7790 C   0  0  0  0  0  0  0  0  0  0  0  0
    1.0120   -2.8620    0.3270 C   0  0  0  0  0  0  0  0  0  0  0  0
    2.0760   -2.0590   -0.1250 C   0  0  0  0  0  0  0  0  0  0  0  0
    1.9720   -0.6890   -0.1310 C   0  0  0  0  0  0  0  0  0  0  0  0
    2.9750    0.2090   -0.5520 N   0  0  0  0  0  0  0  0  0  0  0  0
    4.3570   -0.0600   -0.6260 C   0  0  0  0  0  0  0  0  0  0  0  0
    4.7380   -1.1920   -0.2790 O   0  0  0  0  0  0  0  0  0  0  0  0
    5.2510    0.9560   -1.0840 N   0  0  0  0  0  0  0  0  0  0  0  0
    6.6260    0.7860   -1.1790 C   0  0  0  0  0  0  0  0  0  0  0  0
    7.3400   -0.3140   -0.8480 C   0  0  0  0  0  0  0  0  0  0  0  0
    8.7530   -0.3820   -0.9720 C   0  0  0  0  0  0  0  0  0  0  0  0
    9.4230    0.7210   -1.4520 C   0  0  0  0  0  0  0  0  0  0  0  0
    8.7160    1.8430   -1.7940 C   0  0  0  0  0  0  0  0  0  0  0  0
    7.3470    1.8910   -1.6660 C   0  0  0  0  0  0  0  0  0  0  0  0
    6.4780    3.3540   -2.1110 Cl  0  0  0  0  0  0  0  0  0  0  0  0
    0.7470   -0.1780    0.3410 C   0  0  0  0  0  0  0  0  0  0  0  0
   -0.2830   -0.9630    0.7790 C   0  0  0  0  0  0  0  0  0  0  0  0
   -1.4840   -0.4450    1.2490 C   0  0  0  0  0  0  0  0  0  0  0  0
   -1.5810    0.8240    1.2460 O   0  0  0  0  0  0  0  0  0  0  0  0
  2  1  1  1
  2  3  1  0
  2  6  1  0
  3  4  1  0
  4  5  2  0
  6  7  1  0
  7  8  2  0
  7  9  1  0
  9 10  1  0
 10 11  1  0
 10 31  1  0
 11 12  2  0
 11 13  1  0
 13 14  1  0
 14 15  2  0
 14 30  1  0
 15 16  1  0
 16 17  2  0
 17 18  1  0
 17 29  1  0
 18 19  1  0
 19 20  2  0
 19 21  1  0
 21 22  1  0
 22 23  2  0
 22 27  1  0
 23 24  1  0
 24 25  2  0
 25 26  1  0
 26 27  2  0
 27 28  1  0
 29 30  2  0
 30 31  1  0
 31 32  2  0
M  END
