
     RDKit          3D

 33 35  0  0  0  0  0  0  0  0999 V2000
   11.1160    1.4010    0.3930 C   0  0  0  0  0  0  0  0  0  0  0  0
   10.0920    0.6880   -0.4390 C   0  0  0  0  0  0  0  0  0  0  0  0
    8.9930    0.2350    0.3230 O   0  0  0  0  0  0  0  0  0  0  0  0
    7.9590   -0.4430   -0.3040 C   0  0  0  0  0  0  0  0  0  0  0  0
    8.0110   -0.6730   -1.6750 C   0  0  0  0  0  0  0  0  0  0  0  0
    6.9970   -1.3410   -2.3170 C   0  0  0  0  0  0  0  0  0  0  0  0
    5.8660   -1.8270   -1.6470 C   0  0  0  0  0  0  0  0  0  0  0  0
    4.8860   -2.5410   -2.3780 N   0  0  0  0  0  0  0  0  0  0  0  0
    3.5100   -2.3250   -2.1450 C   0  0  0  0  0  0  0  0  0  0  0  0
    3.0100   -1.2870   -1.4120 C   0  0  0  0  0  0  0  0  0  0  0  0
    1.6240   -1.0830   -1.2380 C   0  0  0  0  0  0  0  0  0  0  0  0
    0.6980   -1.9130   -1.7950 C   0  0  0  0  0  0  0  0  0  0  0  0
   -0.7070   -1.7580   -1.6750 N   0  0  0  0  0  0  0  0  0  0  0  0
   -1.4020   -0.6560   -1.1650 C   0  0  0  0  0  0  0  0  0  0  0  0
   -0.7610    0.3390   -0.7550 O   0  0  0  0  0  0  0  0  0  0  0  0
   -2.8700   -0.6520   -1.1050 C   0  0  0  0  0  0  0  0  0  0  0  0
   -3.5160   -1.6380   -1.5070 O   0  0  0  0  0  0  0  0  0  0  0  0
   -3.5380    0.4770   -0.5880 N   0  0  0  0  0  0  0  0  0  0  0  0
   -4.9690    0.4630   -0.5360 C   0  0  0  0  0  0  0  0  0  0  0  0
   -5.5200    1.7680    0.0520 C   0  0  1  0  0  0  0  0  0  0  0  0
   -5.0480    2.7590   -0.8460 O   0  0  0  0  0  0  0  0  0  0  0  0
   -6.9960    1.7320   -0.0690 C   0  0  0  0  0  0  0  0  0  0  0  0
   -7.7320    2.3830    1.0550 C   0  0  0  0  0  0  0  0  0  0  0  0
   -7.1750    2.1420    2.4100 C   0  0  0  0  0  0  0  0  0  0  0  0
   -5.8190    1.7640    2.5240 N   0  0  1  0  0  0  0  0  0  0  0  0
   -5.5700    0.4360    3.0090 C   0  0  0  0  0  0  0  0  0  0  0  0
   -6.7630   -0.4260    3.2100 C   0  0  0  0  0  0  0  0  0  0  0  0
   -4.9790    2.0930    1.3790 C   0  0  0  0  0  0  0  0  0  0  0  0
    1.2090   -2.9790   -2.5490 C   0  0  0  0  0  0  0  0  0  0  0  0
    2.5530   -3.1800   -2.7200 C   0  0  0  0  0  0  0  0  0  0  0  0
    3.1750   -4.5260   -3.6720 Cl  0  0  0  0  0  0  0  0  0  0  0  0
    5.8270   -1.5940   -0.2910 C   0  0  0  0  0  0  0  0  0  0  0  0
    6.8540   -0.9160    0.3620 C   0  0  0  0  0  0  0  0  0  0  0  0
  1  2  1  0
  2  3  1  0
  3  4  1  0
  4  5  2  0
  4 33  1  0
  5  6  1  0
  6  7  2  0
  7  8  1  0
  7 32  1  0
  8  9  1  0
  9 10  2  0
  9 30  1  0
 10 11  1  0
 11 12  2  0
 12 13  1  0
 12 29  1  0
 13 14  1  0
 14 15  2  0
 14 16  1  0
 16 17  2  0
 16 18  1  0
 18 19  1  0
 19 20  1  0
 20 21  1  6
 20 22  1  0
 20 28  1  0
 22 23  1  0
 23 24  1  0
 24 25  1  0
 25 26  1  6
 25 28  1  0
 26 27  1  0
 29 30  2  0
 30 31  1  0
 32 33  2  0
M  CHG  1  25   1
M  END
