
     RDKit          3D

 32 34  0  0  0  0  0  0  0  0999 V2000
  -11.4910    1.8050   -1.8470 C   0  0  0  0  0  0  0  0  0  0  0  0
  -10.1480    1.4790   -1.6110 C   0  0  0  0  0  0  0  0  0  0  0  0
   -8.7070    2.3300   -2.4900 S   0  0  0  0  0  0  0  0  0  0  0  0
   -7.4580    1.4630   -1.7360 C   0  0  0  0  0  0  0  0  0  0  0  0
   -6.0300    1.4030   -1.9880 C   0  0  0  0  0  0  0  0  0  0  0  0
   -5.4190    2.1240   -2.7380 O   0  0  0  0  0  0  0  0  0  0  0  0
   -5.1880    0.4020   -1.3520 N   0  0  0  0  0  0  0  0  0  0  0  0
   -3.8450    0.1350   -1.5190 C   0  0  0  0  0  0  0  0  0  0  0  0
   -3.1200   -1.5440   -0.9280 S   0  0  0  0  0  0  0  0  0  0  0  0
   -1.4190   -1.2580   -1.4890 C   0  0  0  0  0  0  0  0  0  0  0  0
   -0.2090   -2.0430   -1.2230 C   0  0  0  0  0  0  0  0  0  0  0  0
    0.9360   -1.2330   -1.5870 C   0  0  0  0  0  0  0  0  0  0  0  0
    2.2850   -1.3810   -1.2710 N   0  0  0  0  0  0  0  0  0  0  0  0
    2.6430   -1.2420    0.0440 C   0  0  0  0  0  0  0  0  0  0  0  0
    1.7610   -1.2470    0.9690 O   0  0  0  0  0  0  0  0  0  0  0  0
    3.9260   -1.0230    0.5580 N   0  0  0  0  0  0  0  0  0  0  0  0
    4.9110   -0.5890    1.3920 C   0  0  0  0  0  0  0  0  0  0  0  0
    4.5500   -0.4090    2.5840 O   0  0  0  0  0  0  0  0  0  0  0  0
    6.2060   -0.3210    0.9880 N   0  0  0  0  0  0  0  0  0  0  0  0
    7.1740    0.3460    1.6960 C   0  0  0  0  0  0  0  0  0  0  0  0
    7.8790   -0.1090    2.8710 C   0  0  0  0  0  0  0  0  0  0  0  0
    9.2610   -0.1660    2.7840 C   0  0  0  0  0  0  0  0  0  0  0  0
    9.8090   -0.6460    4.0120 C   0  0  0  0  0  0  0  0  0  0  0  0
    8.7570   -0.7570    4.9220 O   0  0  0  0  0  0  0  0  0  0  0  0
    7.5630   -0.5800    4.2150 C   0  0  0  0  0  0  0  0  0  0  0  0
   -1.5420    0.1350   -2.0810 C   0  0  0  0  0  0  0  0  0  0  0  0
   -2.7470    0.4140   -1.9210 C   0  0  0  0  0  0  0  0  0  0  0  0
   -2.9300    1.3390   -3.2020 C   0  0  0  0  0  0  0  0  0  0  0  0
   -3.0910    2.2120   -4.3840 N   0  0  0  0  0  0  0  0  0  0  0  0
   -8.0870    0.4700   -0.7310 C   0  0  0  0  0  0  0  0  0  0  0  0
   -9.3390    0.6690   -0.8550 C   0  0  0  0  0  0  0  0  0  0  0  0
  -10.4710   -0.3210    0.3090 Cl  0  0  0  0  0  0  0  0  0  0  0  0
  1  2  1  0
  2  3  1  0
  2 31  2  0
  3  4  1  0
  4  5  1  0
  4 30  2  0
  5  6  2  0
  5  7  1  0
  7  8  1  0
  8  9  1  0
  8 27  2  0
  9 10  1  0
 10 11  1  0
 10 26  2  0
 11 12  1  0
 12 13  1  0
 13 14  1  0
 14 15  2  0
 14 16  1  0
 16 17  1  0
 17 18  2  0
 17 19  1  0
 19 20  1  0
 20 21  1  0
 21 22  2  0
 21 25  1  0
 22 23  1  0
 23 24  1  0
 24 25  1  0
 26 27  1  0
 27 28  1  0
 28 29  3  0
 30 31  1  0
 31 32  1  0
M  END
