
     RDKit          3D

 33 35  0  0  0  0  0  0  0  0999 V2000
    5.7100   -0.6270   -2.2030 C   0  0  0  0  0  0  0  0  0  0  0  0
    5.9790   -0.6500   -0.7390 C   0  0  0  0  0  0  0  0  0  0  0  0
    5.9080    0.6790   -0.0530 C   0  0  1  0  0  0  0  0  0  0  0  0
    6.9440    1.6380   -0.6270 C   0  0  0  0  0  0  0  0  0  0  0  0
    6.9160    2.8920    0.2100 C   0  0  0  0  0  0  0  0  0  0  0  0
    5.5360    3.5250    0.1810 C   0  0  0  0  0  0  0  0  0  0  0  0
    4.5840    2.6720   -0.6440 C   0  0  0  0  0  0  0  0  0  0  0  0
    4.6470    1.3370   -0.0550 N   0  0  0  0  0  0  0  0  0  0  0  0
    3.4840    0.7890    0.5060 C   0  0  0  0  0  0  0  0  0  0  0  0
    2.4470    1.5740    0.4730 O   0  0  0  0  0  0  0  0  0  0  0  0
    3.3060   -0.5330    1.1120 C   0  0  0  0  0  0  0  0  0  0  0  0
    1.9060   -0.6910    1.7440 C   0  0  2  0  0  0  0  0  0  0  0  0
    1.9240   -2.0050    2.2890 O   0  0  0  0  0  0  0  0  0  0  0  0
    0.8480   -0.7590    0.6630 C   0  0  0  0  0  0  0  0  0  0  0  0
   -0.4320   -1.1350    1.2650 N   0  0  0  0  0  0  0  0  0  0  0  0
   -1.5280   -0.7060    0.4370 C   0  0  0  0  0  0  0  0  0  0  0  0
   -2.5220   -1.7610    0.1190 C   0  0  1  0  0  0  0  0  0  0  0  0
   -3.5710   -1.2310   -0.7170 N   0  0  0  0  0  0  0  0  0  0  0  0
   -4.4580   -0.1700   -0.3340 C   0  0  0  0  0  0  0  0  0  0  0  0
   -4.2890    0.2960    0.7960 O   0  0  0  0  0  0  0  0  0  0  0  0
   -5.4590    0.3190   -1.1790 N   0  0  0  0  0  0  0  0  0  0  0  0
   -6.3540    1.3520   -0.8500 C   0  0  0  0  0  0  0  0  0  0  0  0
   -7.1750    1.8110   -1.8880 C   0  0  0  0  0  0  0  0  0  0  0  0
   -8.1060    2.8070   -1.7470 C   0  0  0  0  0  0  0  0  0  0  0  0
   -8.2470    3.3950   -0.5140 C   0  0  0  0  0  0  0  0  0  0  0  0
   -9.4460    4.6750   -0.3470 Cl  0  0  0  0  0  0  0  0  0  0  0  0
   -7.4700    2.9760    0.5150 C   0  0  0  0  0  0  0  0  0  0  0  0
   -6.5180    1.9530    0.3600 C   0  0  0  0  0  0  0  0  0  0  0  0
   -1.9380   -2.9690   -0.5780 C   0  0  0  0  0  0  0  0  0  0  0  0
   -2.7570   -4.2160   -0.3130 C   0  0  0  0  0  0  0  0  0  0  0  0
   -4.0970   -3.7770   -0.2050 O   0  0  0  0  0  0  0  0  0  0  0  0
   -4.2880   -3.1550    1.0350 C   0  0  0  0  0  0  0  0  0  0  0  0
   -3.1050   -2.3190    1.4290 C   0  0  0  0  0  0  0  0  0  0  0  0
  1  2  1  0
  3  2  1  6
  3  4  1  0
  3  8  1  0
  4  5  1  0
  5  6  1  0
  6  7  1  0
  7  8  1  0
  8  9  1  0
  9 10  2  0
  9 11  1  0
 11 12  1  0
 12 13  1  6
 12 14  1  0
 14 15  1  0
 15 16  1  0
 17 16  1  1
 17 18  1  0
 17 29  1  0
 17 33  1  0
 18 19  1  0
 19 20  2  0
 19 21  1  0
 21 22  1  0
 22 23  2  0
 22 28  1  0
 23 24  1  0
 24 25  2  0
 25 26  1  0
 25 27  1  0
 27 28  2  0
 29 30  1  0
 30 31  1  0
 31 32  1  0
 32 33  1  0
M  CHG  1  15   1
M  END
