
     RDKit          3D

 33 35  0  0  0  0  0  0  0  0999 V2000
   -7.5470    0.6610    1.1830 C   0  0  0  0  0  0  0  0  0  0  0  0
   -6.6830    0.1210    0.0250 C   0  0  0  0  0  0  0  0  0  0  0  0
   -5.4670    0.9650   -0.1380 C   0  0  0  0  0  0  0  0  0  0  0  0
   -4.6090    0.4930   -1.2720 C   0  0  0  0  0  0  0  0  0  0  0  0
   -4.1480   -0.8920   -1.0930 C   0  0  0  0  0  0  0  0  0  0  0  0
   -3.0020   -1.3820   -0.6210 C   0  0  0  0  0  0  0  0  0  0  0  0
   -1.8800   -0.5360   -0.1390 C   0  0  0  0  0  0  0  0  0  0  0  0
   -2.1050    1.1880   -0.1630 Cl  0  0  0  0  0  0  0  0  0  0  0  0
   -0.7990   -1.1080    0.2940 C   0  0  0  0  0  0  0  0  0  0  0  0
    0.3850   -0.4740    0.7960 C   0  0  0  0  0  0  0  0  0  0  0  0
    1.3280   -1.2910    1.1690 O   0  0  0  0  0  0  0  0  0  0  0  0
    0.6930    0.8650    0.9510 N   0  0  0  0  0  0  0  0  0  0  0  0
    1.8840    1.4900    1.4470 C   0  0  0  0  0  0  0  0  0  0  0  0
    3.1140    1.2490    0.6800 C   0  0  1  0  0  0  0  0  0  0  0  0
    3.6210   -0.0890    0.5760 N   0  0  0  0  0  0  0  0  0  0  0  0
    4.2680   -0.6930    1.7270 C   0  0  0  0  0  0  0  0  0  0  0  0
    4.5830   -0.0210    2.7780 N   0  0  0  0  0  0  0  0  0  0  0  0
    5.2130   -0.8800    3.7620 C   0  0  0  0  0  0  0  0  0  0  0  0
    5.2020   -2.1930    3.0720 C   0  0  0  0  0  0  0  0  0  0  0  0
    4.6510   -2.1050    1.8760 C   0  0  0  0  0  0  0  0  0  0  0  0
    4.4290   -3.1540    0.8470 C   0  0  0  0  0  0  0  0  0  0  0  0
    3.0120    1.8120   -0.7260 C   0  0  0  0  0  0  0  0  0  0  0  0
    3.4560    3.0830   -1.0080 C   0  0  0  0  0  0  0  0  0  0  0  0
    3.3450    3.5710   -2.3150 C   0  0  0  0  0  0  0  0  0  0  0  0
    2.7960    2.7840   -3.3060 C   0  0  0  0  0  0  0  0  0  0  0  0
    2.7020    3.3080   -4.6000 O   0  0  0  0  0  0  0  0  0  0  0  0
    2.3520    1.5190   -3.0350 C   0  0  0  0  0  0  0  0  0  0  0  0
    2.4670    1.0470   -1.7350 C   0  0  0  0  0  0  0  0  0  0  0  0
   -2.9910   -2.8280   -0.6620 C   0  0  0  0  0  0  0  0  0  0  0  0
   -2.1080   -3.6320   -0.3100 O   0  0  0  0  0  0  0  0  0  0  0  0
   -4.2440   -3.2480   -1.2130 N   0  0  0  0  0  0  0  0  0  0  0  0
   -4.9590   -2.0780   -1.4810 C   0  0  0  0  0  0  0  0  0  0  0  0
   -6.1190   -2.0450   -1.9820 O   0  0  0  0  0  0  0  0  0  0  0  0
  1  2  1  0
  2  3  1  0
  3  4  1  0
  4  5  1  0
  5  6  2  0
  5 32  1  0
  6  7  1  0
  6 29  1  0
  7  8  1  0
  7  9  2  3
  9 10  1  0
 10 11  2  0
 10 12  1  0
 12 13  1  0
 14 13  1  6
 14 15  1  0
 14 22  1  0
 15 16  1  0
 16 17  2  0
 16 20  1  0
 17 18  1  0
 18 19  1  0
 19 20  2  0
 20 21  1  0
 22 23  2  0
 22 28  1  0
 23 24  1  0
 24 25  2  0
 25 26  1  0
 25 27  1  0
 27 28  2  0
 29 30  2  0
 29 31  1  0
 31 32  1  0
 32 33  2  0
M  CHG  1  17   1
M  END
