
     RDKit          3D

 29 33  0  0  0  0  0  0  0  0999 V2000
   -7.3460    2.6480    0.7190 C   0  0  0  0  0  0  0  0  0  0  0  0
   -6.5090    2.7470   -0.5350 C   0  0  0  0  0  0  0  0  0  0  0  0
   -5.3780    1.7820   -0.3840 C   0  0  0  0  0  0  0  0  0  0  0  0
   -5.4850    0.4920   -0.8070 N   0  0  0  0  0  0  0  0  0  0  0  0
   -4.4820   -0.3840   -0.6800 C   0  0  0  0  0  0  0  0  0  0  0  0
   -3.3320    0.0140   -0.1190 N   0  0  0  0  0  0  0  0  0  0  0  0
   -3.1800    1.2600    0.3090 C   0  0  0  0  0  0  0  0  0  0  0  0
   -1.9420    1.6790    0.9120 C   0  0  0  0  0  0  0  0  0  0  0  0
   -1.8730    2.9810    1.3220 N   0  0  0  0  0  0  0  0  0  0  0  0
   -0.7770    3.5110    1.8780 C   0  0  0  0  0  0  0  0  0  0  0  0
    0.3430    2.7160    2.0490 C   0  0  0  0  0  0  0  0  0  0  0  0
    0.2610    1.4640    1.6480 N   0  0  0  0  0  0  0  0  0  0  0  0
   -0.8470    0.8860    1.0740 C   0  0  0  0  0  0  0  0  0  0  0  0
   -0.8460   -0.4630    0.7120 N   0  0  0  0  0  0  0  0  0  0  0  0
   -1.5300   -1.4690    1.4570 C   0  0  0  0  0  0  0  0  0  0  0  0
   -0.4380   -2.3120    2.1120 C   0  0  0  0  0  0  0  0  0  0  0  0
    0.7540   -2.0690    1.5040 O   0  0  0  0  0  0  0  0  0  0  0  0
    0.7860   -2.0300    0.1360 C   0  0  2  0  0  0  0  0  0  0  0  0
    2.1890   -1.8040   -0.3040 C   0  0  0  0  0  0  0  0  0  0  0  0
    2.9740   -2.2730   -1.1810 N   0  0  0  0  0  0  0  0  0  0  0  0
    4.2030   -1.8760   -1.3620 C   0  0  0  0  0  0  0  0  0  0  0  0
    4.6840   -0.8970   -0.5630 C   0  0  0  0  0  0  0  0  0  0  0  0
    3.2480   -0.5680    0.4840 S   0  0  0  0  0  0  0  0  0  0  0  0
    6.0040   -0.2680   -0.5440 C   0  0  0  0  0  0  0  0  0  0  0  0
    6.8980   -0.9380   -1.5370 C   0  0  0  0  0  0  0  0  0  0  0  0
    6.0680   -1.2930   -2.7500 C   0  0  0  0  0  0  0  0  0  0  0  0
    5.1410   -2.4440   -2.4310 C   0  0  0  0  0  0  0  0  0  0  0  0
   -0.1240   -0.9210   -0.4440 C   0  0  0  0  0  0  0  0  0  0  0  0
   -4.1930    2.1200    0.1720 N   0  0  0  0  0  0  0  0  0  0  0  0
  1  2  1  0
  2  3  1  0
  3  4  2  0
  3 29  1  0
  4  5  1  0
  5  6  2  0
  6  7  1  0
  7  8  1  0
  7 29  2  0
  8  9  2  0
  8 13  1  0
  9 10  1  0
 10 11  2  0
 11 12  1  0
 12 13  2  0
 13 14  1  0
 14 15  1  0
 14 28  1  0
 15 16  1  0
 16 17  1  0
 17 18  1  0
 18 19  1  1
 18 28  1  0
 19 20  2  0
 19 23  1  0
 20 21  1  0
 21 22  2  0
 21 27  1  0
 22 23  1  0
 22 24  1  0
 24 25  1  0
 25 26  1  0
 26 27  1  0
M  END
