
     RDKit          3D

 28 31  0  0  0  0  0  0  0  0999 V2000
    5.0690    5.2470    0.9950 C   0  0  0  0  0  0  0  0  0  0  0  0
    4.0020    4.5910    1.6560 O   0  0  0  0  0  0  0  0  0  0  0  0
    3.9250    3.2250    1.7310 C   0  0  0  0  0  0  0  0  0  0  0  0
    2.8400    2.5620    1.2510 C   0  0  0  0  0  0  0  0  0  0  0  0
    2.7640    1.1450    1.3310 C   0  0  0  0  0  0  0  0  0  0  0  0
    1.8440    0.3230    0.9450 C   0  0  0  0  0  0  0  0  0  0  0  0
    2.1410   -1.0900    1.2080 N   0  0  0  0  0  0  0  0  0  0  0  0
    1.4710   -2.1490    0.9690 C   0  0  0  0  0  0  0  0  0  0  0  0
    2.0990   -3.4600    1.3850 C   0  0  1  0  0  0  0  0  0  0  0  0
    1.1560   -4.1160    2.3670 C   0  0  0  0  0  0  0  0  0  0  0  0
    2.2030   -4.3430    0.1630 C   0  0  0  0  0  0  0  0  0  0  0  0
    3.4700   -3.2220    1.9730 C   0  0  0  0  0  0  0  0  0  0  0  0
    0.1990   -2.2980    0.3610 N   0  0  0  0  0  0  0  0  0  0  0  0
   -0.6180   -1.4310   -0.1120 C   0  0  0  0  0  0  0  0  0  0  0  0
   -2.2070   -1.7590   -0.8600 S   0  0  0  0  0  0  0  0  0  0  0  0
   -2.5840   -0.0410   -1.1990 C   0  0  0  0  0  0  0  0  0  0  0  0
   -3.7790    0.4350   -1.8340 N   0  0  0  0  0  0  0  0  0  0  0  0
   -4.4380   -0.4640   -2.7460 C   0  0  0  0  0  0  0  0  0  0  0  0
   -5.6800    0.0460   -3.3340 C   0  0  0  0  0  0  0  0  0  0  0  0
   -6.3400    1.0550   -2.8080 C   0  0  0  0  0  0  0  0  0  0  0  0
   -5.8360    1.7160   -1.5840 C   0  0  0  0  0  0  0  0  0  0  0  0
   -4.2980    1.7320   -1.5830 C   0  0  0  0  0  0  0  0  0  0  0  0
   -1.5640    0.6520   -0.7560 C   0  0  0  0  0  0  0  0  0  0  0  0
   -1.4590    2.1010   -0.8330 N   0  0  0  0  0  0  0  0  0  0  0  0
   -0.4660    2.7370   -0.4020 N   0  0  0  0  0  0  0  0  0  0  0  0
    0.5700    2.0140    0.1710 N   0  0  0  0  0  0  0  0  0  0  0  0
    0.6160    0.7470    0.3050 C   0  0  0  0  0  0  0  0  0  0  0  0
   -0.5120   -0.0260   -0.1810 N   0  0  0  0  0  0  0  0  0  0  0  0
  1  2  1  0
  2  3  1  0
  3  4  2  3
  4  5  1  0
  5  6  2  3
  6  7  1  0
  6 27  1  0
  7  8  2  0
  8  9  1  0
  8 13  1  0
  9 10  1  1
  9 11  1  0
  9 12  1  0
 13 14  2  0
 14 15  1  0
 14 28  1  0
 15 16  1  0
 16 17  1  0
 16 23  2  0
 17 18  1  0
 17 22  1  0
 18 19  1  0
 19 20  2  0
 20 21  1  0
 21 22  1  0
 23 24  1  0
 23 28  1  0
 24 25  2  0
 25 26  1  0
 26 27  2  0
 27 28  1  0
M  END
