
     RDKit          3D

 29 33  0  0  0  0  0  0  0  0999 V2000
    4.0850    1.7830    1.9700 C   0  0  0  0  0  0  0  0  0  0  0  0
    3.6620    0.7940    0.9510 C   0  0  0  0  0  0  0  0  0  0  0  0
    4.4990    0.5390   -0.1110 C   0  0  0  0  0  0  0  0  0  0  0  0
    4.1050   -0.3750   -1.0600 C   0  0  0  0  0  0  0  0  0  0  0  0
    2.9050   -0.9700   -0.8870 N   0  0  0  0  0  0  0  0  0  0  0  0
    2.1150   -0.6930    0.1650 C   0  0  0  0  0  0  0  0  0  0  0  0
    0.8400   -1.1840    0.5480 C   0  0  0  0  0  0  0  0  0  0  0  0
    0.1610   -2.1970   -0.2680 C   0  0  0  0  0  0  0  0  0  0  0  0
    0.7570   -3.3280   -0.3510 O   0  0  0  0  0  0  0  0  0  0  0  0
   -1.0510   -2.0220   -0.9590 N   0  0  0  0  0  0  0  0  0  0  0  0
   -1.5380   -2.9780   -1.7700 N   0  0  0  0  0  0  0  0  0  0  0  0
   -2.6390   -2.5010   -2.3510 C   0  0  0  0  0  0  0  0  0  0  0  0
   -2.8610   -1.2620   -1.9210 N   0  0  0  0  0  0  0  0  0  0  0  0
   -1.8670   -0.9590   -1.0430 C   0  0  0  0  0  0  0  0  0  0  0  0
   -1.8260    0.5240   -0.0510 S   0  0  0  0  0  0  0  0  0  0  0  0
   -3.1110    0.5320    1.2330 C   0  0  2  0  0  0  0  0  0  0  0  0
   -3.0850   -0.6950    2.0500 C   0  0  0  0  0  0  0  0  0  0  0  0
   -4.4290    0.8880    0.6620 C   0  0  0  0  0  0  0  0  0  0  0  0
   -5.2350    0.0060   -0.0050 C   0  0  0  0  0  0  0  0  0  0  0  0
   -6.4510    0.4260   -0.5070 C   0  0  0  0  0  0  0  0  0  0  0  0
   -6.8630    1.7360   -0.3430 C   0  0  0  0  0  0  0  0  0  0  0  0
   -6.0080    2.6040    0.3460 C   0  0  0  0  0  0  0  0  0  0  0  0
   -4.8450    2.1740    0.8180 N   0  0  0  0  0  0  0  0  0  0  0  0
    0.4900   -0.5710    1.7100 C   0  0  0  0  0  0  0  0  0  0  0  0
    1.5150    0.2730    2.0310 N   0  0  0  0  0  0  0  0  0  0  0  0
    2.4540    0.1860    1.1150 N   0  0  0  0  0  0  0  0  0  0  0  0
    5.1810   -0.4740   -2.0880 C   0  0  0  0  0  0  0  0  0  0  0  0
    6.4040   -0.0970   -1.2650 C   0  0  0  0  0  0  0  0  0  0  0  0
    5.8510    1.0950   -0.4780 C   0  0  0  0  0  0  0  0  0  0  0  0
  1  2  1  0
  2  3  2  0
  2 26  1  0
  3  4  1  0
  3 29  1  0
  4  5  2  0
  4 27  1  0
  5  6  1  0
  6  7  2  0
  6 26  1  0
  7  8  1  0
  7 24  1  0
  8  9  2  0
  8 10  1  0
 10 11  1  0
 10 14  1  0
 11 12  2  0
 12 13  1  0
 13 14  2  0
 14 15  1  0
 15 16  1  0
 16 17  1  6
 16 18  1  0
 18 19  2  0
 18 23  1  0
 19 20  1  0
 20 21  2  0
 21 22  1  0
 22 23  2  0
 24 25  2  0
 25 26  1  0
 27 28  1  0
 28 29  1  0
M  END
