
     RDKit          3D

 29 33  0  0  0  0  0  0  0  0999 V2000
    6.8410   -1.5960   -0.0110 C   0  0  0  0  0  0  0  0  0  0  0  0
    5.3570   -1.5340   -0.3450 C   0  0  0  0  0  0  0  0  0  0  0  0
    5.0680   -0.1900   -0.9180 C   0  0  1  0  0  0  0  0  0  0  0  0
    3.6580    0.0610   -1.3080 C   0  0  0  0  0  0  0  0  0  0  0  0
    2.8490    0.4450   -0.2080 N   0  0  0  0  0  0  0  0  0  0  0  0
    1.4480    0.1620   -0.1370 C   0  0  0  0  0  0  0  0  0  0  0  0
    0.7880   -0.9980   -0.1110 N   0  0  0  0  0  0  0  0  0  0  0  0
   -0.5110   -0.8080   -0.0380 N   0  0  0  0  0  0  0  0  0  0  0  0
   -1.5820   -1.7580    0.0140 C   0  0  0  0  0  0  0  0  0  0  0  0
   -1.7640   -2.6580   -1.0160 C   0  0  0  0  0  0  0  0  0  0  0  0
   -2.7900   -3.5810   -0.9850 C   0  0  0  0  0  0  0  0  0  0  0  0
   -3.6520   -3.6080    0.0910 C   0  0  0  0  0  0  0  0  0  0  0  0
   -4.7570   -4.5990    0.1280 C   0  0  0  0  0  0  0  0  0  0  0  0
   -3.4630   -2.7200    1.0930 N   0  0  0  0  0  0  0  0  0  0  0  0
   -2.4600   -1.8200    1.0620 C   0  0  0  0  0  0  0  0  0  0  0  0
   -0.7210    0.5350   -0.0150 C   0  0  0  0  0  0  0  0  0  0  0  0
   -1.8600    1.2730    0.0550 N   0  0  0  0  0  0  0  0  0  0  0  0
   -1.7770    2.6160    0.0630 C   0  0  0  0  0  0  0  0  0  0  0  0
   -2.9620    3.4320    0.1380 N   0  0  0  0  0  0  0  0  0  0  0  0
   -4.2070    2.9980    0.3610 C   0  0  0  0  0  0  0  0  0  0  0  0
   -5.0920    4.0650    0.3660 C   0  0  0  0  0  0  0  0  0  0  0  0
   -4.3350    5.1970    0.1320 C   0  0  0  0  0  0  0  0  0  0  0  0
   -3.0510    4.7640    0.0010 C   0  0  0  0  0  0  0  0  0  0  0  0
   -0.5780    3.2210    0.0020 N   0  0  0  0  0  0  0  0  0  0  0  0
    0.5850    2.5590   -0.0690 C   0  0  0  0  0  0  0  0  0  0  0  0
    0.5010    1.1610   -0.0770 C   0  0  0  0  0  0  0  0  0  0  0  0
    3.5080    1.1360    0.8240 C   0  0  0  0  0  0  0  0  0  0  0  0
    3.0150    1.7190    1.7920 O   0  0  0  0  0  0  0  0  0  0  0  0
    5.2490    1.0130    0.4680 S   0  0  0  0  0  0  0  0  0  0  0  0
  1  2  1  0
  3  2  1  1
  3  4  1  0
  3 29  1  0
  4  5  1  0
  5  6  1  0
  5 27  1  0
  6  7  2  0
  6 26  1  0
  7  8  1  0
  8  9  1  0
  8 16  1  0
  9 10  2  0
  9 15  1  0
 10 11  1  0
 11 12  2  0
 12 13  1  0
 12 14  1  0
 14 15  2  0
 16 17  2  0
 16 26  1  0
 17 18  1  0
 18 19  1  0
 18 24  2  0
 19 20  1  0
 19 23  1  0
 20 21  2  0
 21 22  1  0
 22 23  2  0
 24 25  1  0
 25 26  2  0
 27 28  2  0
 27 29  1  0
M  END
