
     RDKit          3D

 29 33  0  0  0  0  0  0  0  0999 V2000
    7.0190   -0.4610    1.4370 C   0  0  0  0  0  0  0  0  0  0  0  0
    6.2900    0.6640    0.7340 C   0  0  1  0  0  0  0  0  0  0  0  0
    7.3440    1.5860    0.1590 C   0  0  0  0  0  0  0  0  0  0  0  0
    7.5330    1.1300   -1.2720 C   0  0  0  0  0  0  0  0  0  0  0  0
    6.5610   -0.0170   -1.4570 C   0  0  0  0  0  0  0  0  0  0  0  0
    5.5900    0.2210   -0.4340 N   0  0  0  0  0  0  0  0  0  0  0  0
    4.1990    0.0470   -0.5490 C   0  0  0  0  0  0  0  0  0  0  0  0
    3.6670   -0.4160   -1.7120 N   0  0  0  0  0  0  0  0  0  0  0  0
    2.3750   -0.6170   -1.9270 C   0  0  0  0  0  0  0  0  0  0  0  0
    1.4790   -0.3440   -0.9140 C   0  0  0  0  0  0  0  0  0  0  0  0
    0.1280   -0.5210   -1.0440 C   0  0  0  0  0  0  0  0  0  0  0  0
   -0.6620   -0.2270    0.0010 N   0  0  0  0  0  0  0  0  0  0  0  0
   -0.1790    0.2340    1.1680 C   0  0  0  0  0  0  0  0  0  0  0  0
   -1.1440    0.5320    2.2720 C   0  0  0  0  0  0  0  0  0  0  0  0
   -2.4400    0.0140    1.9890 N   0  0  0  0  0  0  0  0  0  0  0  0
   -2.5520   -1.3880    1.8290 C   0  0  0  0  0  0  0  0  0  0  0  0
   -3.6400   -1.8610    0.9330 C   0  0  0  0  0  0  0  0  0  0  0  0
   -4.7730   -1.0270    0.8130 N   0  0  0  0  0  0  0  0  0  0  0  0
   -5.6370   -1.3480   -0.2740 C   0  0  0  0  0  0  0  0  0  0  0  0
   -6.8230   -0.3980   -0.3250 C   0  0  0  0  0  0  0  0  0  0  0  0
   -7.0550    0.3490   -1.3570 C   0  0  0  0  0  0  0  0  0  0  0  0
   -8.2350    1.2370   -1.3040 C   0  0  0  0  0  0  0  0  0  0  0  0
   -9.0680    0.5570    0.1620 S   0  0  0  0  0  0  0  0  0  0  0  0
   -7.6780   -0.3200    0.7430 O   0  0  0  0  0  0  0  0  0  0  0  0
   -4.6430    0.3240    1.1710 C   0  0  0  0  0  0  0  0  0  0  0  0
   -3.2310    0.8010    1.0990 C   0  0  0  0  0  0  0  0  0  0  0  0
    1.1450    0.4140    1.3150 N   0  0  0  0  0  0  0  0  0  0  0  0
    1.9850    0.1280    0.2780 C   0  0  0  0  0  0  0  0  0  0  0  0
    3.3260    0.3110    0.4310 N   0  0  0  0  0  0  0  0  0  0  0  0
  2  1  1  6
  2  3  1  0
  2  6  1  0
  3  4  1  0
  4  5  1  0
  5  6  1  0
  6  7  1  0
  7  8  2  0
  7 29  1  0
  8  9  1  0
  9 10  2  0
 10 11  1  0
 10 28  1  0
 11 12  2  0
 12 13  1  0
 13 14  1  0
 13 27  2  0
 14 15  1  0
 15 16  1  0
 15 26  1  0
 16 17  1  0
 17 18  1  0
 18 19  1  0
 18 25  1  0
 19 20  1  0
 20 21  2  0
 20 24  1  0
 21 22  1  0
 22 23  1  0
 23 24  1  0
 25 26  1  0
 27 28  1  0
 28 29  2  0
M  END
