
     RDKit          3D

 24 26  0  0  0  0  0  0  0  0999 V2000
    5.8400   -0.9400    0.4870 C   0  0  0  0  0  0  0  0  0  0  0  0
    5.5780   -0.5100   -0.7890 O   0  0  0  0  0  0  0  0  0  0  0  0
    4.3090   -0.0020   -0.8990 C   0  0  0  0  0  0  0  0  0  0  0  0
    3.2640   -1.0200   -0.5660 C   0  0  0  0  0  0  0  0  0  0  0  0
    1.9490   -0.3940   -0.7460 N   0  0  0  0  0  0  0  0  0  0  0  0
    1.7290    0.6100    0.2500 C   0  0  0  0  0  0  0  0  0  0  0  0
    0.2860    1.0540    0.2210 C   0  0  0  0  0  0  0  0  0  0  0  0
   -0.3690    2.2430    0.1440 C   0  0  0  0  0  0  0  0  0  0  0  0
    0.3190    3.5620    0.0710 C   0  0  0  0  0  0  0  0  0  0  0  0
   -0.7990    4.9060   -0.0290 Cl  0  0  0  0  0  0  0  0  0  0  0  0
   -1.7090    1.9410    0.1520 C   0  0  0  0  0  0  0  0  0  0  0  0
   -2.8090    2.9300    0.0850 C   0  0  0  0  0  0  0  0  0  0  0  0
   -1.8340    0.5910    0.2330 N   0  0  0  0  0  0  0  0  0  0  0  0
   -3.0700   -0.1610    0.2620 C   0  0  0  0  0  0  0  0  0  0  0  0
   -3.6180   -0.8310   -0.7190 C   0  0  0  0  0  0  0  0  0  0  0  0
   -2.9140   -0.9480   -2.3480 Cl  0  0  0  0  0  0  0  0  0  0  0  0
   -4.8660   -1.4420   -0.2510 C   0  0  0  0  0  0  0  0  0  0  0  0
   -4.9740   -1.0310    1.1540 C   0  0  0  0  0  0  0  0  0  0  0  0
   -3.9240   -0.2930    1.4240 C   0  0  0  0  0  0  0  0  0  0  0  0
   -3.6650    0.4110    3.0280 Cl  0  0  0  0  0  0  0  0  0  0  0  0
   -0.6410    0.0180    0.2770 C   0  0  0  0  0  0  0  0  0  0  0  0
   -0.0390   -1.3270    0.3640 C   0  0  1  0  0  0  0  0  0  0  0  0
   -0.9830   -2.4660    0.3500 C   0  0  0  0  0  0  0  0  0  0  0  0
    0.9240   -1.4040   -0.8220 C   0  0  0  0  0  0  0  0  0  0  0  0
  1  2  1  0
  2  3  1  0
  3  4  1  0
  4  5  1  0
  5  6  1  0
  5 24  1  0
  6  7  1  0
  7  8  1  0
  7 21  2  0
  8  9  1  0
  8 11  2  0
  9 10  1  0
 11 12  1  0
 11 13  1  0
 13 14  1  0
 13 21  1  0
 14 15  2  0
 14 19  1  0
 15 16  1  0
 15 17  1  0
 17 18  1  0
 18 19  2  0
 19 20  1  0
 21 22  1  0
 22 23  1  6
 22 24  1  0
M  END
