
     RDKit          3D

 24 26  0  0  0  0  0  0  0  0999 V2000
   -1.8380   -1.6180   -2.7520 C   0  0  0  0  0  0  0  0  0  0  0  0
   -1.9690   -2.0490   -1.5120 C   0  0  0  0  0  0  0  0  0  0  0  0
   -1.7020   -1.2480   -0.3200 C   0  0  0  0  0  0  0  0  0  0  0  0
   -1.8820   -1.8310    0.8410 C   0  0  0  0  0  0  0  0  0  0  0  0
   -2.3380   -3.2390    0.9810 C   0  0  2  0  0  0  0  0  0  0  0  0
   -4.0010   -3.4840    0.4720 Cl  0  0  0  0  0  0  0  0  0  0  0  0
   -2.2070   -3.7760    2.6830 Cl  0  0  0  0  0  0  0  0  0  0  0  0
   -1.2410    0.1260   -0.5370 C   0  0  1  0  0  0  0  0  0  0  0  0
   -1.3320    1.0440    0.5390 N   0  0  0  0  0  0  0  0  0  0  0  0
   -2.1290    1.1450    1.7370 C   0  0  0  0  0  0  0  0  0  0  0  0
   -0.3660    2.0840    0.2300 C   0  0  0  0  0  0  0  0  0  0  0  0
   -0.2410    3.4070    0.6100 C   0  0  0  0  0  0  0  0  0  0  0  0
    0.8020    4.2060    0.1630 C   0  0  0  0  0  0  0  0  0  0  0  0
    0.9370    5.8850    0.6620 Cl  0  0  0  0  0  0  0  0  0  0  0  0
    1.7260    3.6360   -0.6840 C   0  0  0  0  0  0  0  0  0  0  0  0
    1.6190    2.3180   -1.0750 C   0  0  0  0  0  0  0  0  0  0  0  0
    0.5630    1.5220   -0.6180 C   0  0  0  0  0  0  0  0  0  0  0  0
    0.1960    0.1670   -0.8390 N   0  0  0  0  0  0  0  0  0  0  0  0
    1.1000   -0.8610   -1.2600 C   0  0  0  0  0  0  0  0  0  0  0  0
    2.2370   -1.0200   -0.2820 C   0  0  0  0  0  0  0  0  0  0  0  0
    2.4200   -0.2990    0.8710 C   0  0  0  0  0  0  0  0  0  0  0  0
    3.5830   -0.7640    1.4680 C   0  0  0  0  0  0  0  0  0  0  0  0
    4.0340   -1.7590    0.6130 C   0  0  0  0  0  0  0  0  0  0  0  0
    3.1980   -1.8680   -0.4080 O   0  0  0  0  0  0  0  0  0  0  0  0
  1  2  2  0
  2  3  1  0
  3  4  2  3
  8  3  1  1
  4  5  1  0
  5  6  1  1
  5  7  1  0
  8  9  1  0
  8 18  1  0
  9 10  1  0
  9 11  1  0
 11 12  2  0
 11 17  1  0
 12 13  1  0
 13 14  1  0
 13 15  2  0
 15 16  1  0
 16 17  2  0
 17 18  1  0
 18 19  1  0
 19 20  1  0
 20 21  2  0
 20 24  1  0
 21 22  1  0
 22 23  2  0
 23 24  1  0
M  END
