
     RDKit          3D

 24 26  0  0  0  0  0  0  0  0999 V2000
   -2.5740    3.2790    1.6420 C   0  0  0  0  0  0  0  0  0  0  0  0
   -1.4950    3.4890    0.6360 C   0  0  1  0  0  0  0  0  0  0  0  0
   -0.6430    5.0370    1.0590 Cl  0  0  0  0  0  0  0  0  0  0  0  0
   -0.4610    2.4520    0.4870 C   0  0  0  0  0  0  0  0  0  0  0  0
   -0.8080    1.0710    0.0320 C   0  0  2  0  0  0  0  0  0  0  0  0
   -1.7550    0.3960    0.9300 C   0  0  0  0  0  0  0  0  0  0  0  0
   -2.1450   -0.9990    0.5500 C   0  0  0  0  0  0  0  0  0  0  0  0
   -1.9570   -1.6850   -0.5400 C   0  0  0  0  0  0  0  0  0  0  0  0
   -1.1420   -1.1640   -2.0050 Cl  0  0  0  0  0  0  0  0  0  0  0  0
   -2.5360   -3.0450   -0.4210 C   0  0  0  0  0  0  0  0  0  0  0  0
   -3.1000   -3.0420    0.9330 C   0  0  0  0  0  0  0  0  0  0  0  0
   -2.8780   -1.8820    1.4840 C   0  0  0  0  0  0  0  0  0  0  0  0
   -3.3870   -1.4540    3.1030 Cl  0  0  0  0  0  0  0  0  0  0  0  0
    0.4540    0.2720    0.0350 N   0  0  0  0  0  0  0  0  0  0  0  0
    0.5740   -0.7320    0.8870 N   0  0  0  0  0  0  0  0  0  0  0  0
    1.6640   -1.5020    0.9900 C   0  0  0  0  0  0  0  0  0  0  0  0
    2.7330   -1.2380    0.1590 C   0  0  0  0  0  0  0  0  0  0  0  0
    3.8590   -2.0320    0.2650 C   0  0  0  0  0  0  0  0  0  0  0  0
    4.9450   -1.7940   -0.5530 C   0  0  0  0  0  0  0  0  0  0  0  0
    4.8620   -0.7470   -1.4650 C   0  0  0  0  0  0  0  0  0  0  0  0
    3.7120    0.0430   -1.5530 C   0  0  0  0  0  0  0  0  0  0  0  0
    2.6470   -0.2020   -0.7420 C   0  0  0  0  0  0  0  0  0  0  0  0
    1.4780    0.5450   -0.7810 C   0  0  0  0  0  0  0  0  0  0  0  0
    1.4160    1.4780   -1.6030 O   0  0  0  0  0  0  0  0  0  0  0  0
  2  1  1  1
  2  3  1  0
  2  4  1  0
  5  4  1  1
  5  6  1  0
  5 14  1  0
  6  7  1  0
  7  8  2  0
  7 12  1  0
  8  9  1  0
  8 10  1  0
 10 11  1  0
 11 12  2  0
 12 13  1  0
 14 15  1  0
 14 23  1  0
 15 16  2  0
 16 17  1  0
 17 18  2  0
 17 22  1  0
 18 19  1  0
 19 20  2  0
 20 21  1  0
 21 22  2  0
 22 23  1  0
 23 24  2  0
M  END
