
     RDKit          3D

 24 26  0  0  0  0  0  0  0  0999 V2000
    6.5310    3.2330    1.0250 Cl  0  0  0  0  0  0  0  0  0  0  0  0
    5.4080    3.5420   -0.3000 C   0  0  0  0  0  0  0  0  0  0  0  0
    4.3630    2.4620   -0.3400 C   0  0  0  0  0  0  0  0  0  0  0  0
    4.4020    1.4870    0.5460 C   0  0  0  0  0  0  0  0  0  0  0  0
    3.3860    0.4450    0.5000 C   0  0  0  0  0  0  0  0  0  0  0  0
    3.3160   -0.6230    1.3650 C   0  0  0  0  0  0  0  0  0  0  0  0
    2.2140   -1.3360    0.9510 C   0  0  0  0  0  0  0  0  0  0  0  0
    1.6830   -0.6720   -0.1260 C   0  0  0  0  0  0  0  0  0  0  0  0
    0.4760   -1.1110   -0.8780 C   0  0  1  0  0  0  0  0  0  0  0  0
    0.7430   -2.2890   -1.7590 C   0  0  0  0  0  0  0  0  0  0  0  0
    0.3500   -3.4450   -0.8800 C   0  0  0  0  0  0  0  0  0  0  0  0
   -0.6100   -2.9220    0.1340 C   0  0  0  0  0  0  0  0  0  0  0  0
   -0.6220   -1.5060   -0.0540 N   0  0  0  0  0  0  0  0  0  0  0  0
   -1.5700   -0.6390    0.4890 N   0  0  0  0  0  0  0  0  0  0  0  0
   -2.7150   -0.5510   -0.1330 C   0  0  0  0  0  0  0  0  0  0  0  0
   -3.7200    0.3570    0.4300 C   0  0  0  0  0  0  0  0  0  0  0  0
   -3.4790    1.0900    1.5660 C   0  0  0  0  0  0  0  0  0  0  0  0
   -4.4040    1.9350    2.0960 C   0  0  0  0  0  0  0  0  0  0  0  0
   -3.9830    2.8230    3.5540 Cl  0  0  0  0  0  0  0  0  0  0  0  0
   -5.6200    2.0630    1.4800 C   0  0  0  0  0  0  0  0  0  0  0  0
   -5.9040    1.3350    0.3250 C   0  0  0  0  0  0  0  0  0  0  0  0
   -7.4660    1.5190   -0.4380 Cl  0  0  0  0  0  0  0  0  0  0  0  0
   -4.9450    0.4930   -0.1790 C   0  0  0  0  0  0  0  0  0  0  0  0
    2.4190    0.3790   -0.3510 O   0  0  0  0  0  0  0  0  0  0  0  0
  1  2  1  0
  2  3  1  0
  3  4  2  3
  4  5  1  0
  5  6  2  0
  5 24  1  0
  6  7  1  0
  7  8  2  0
  9  8  1  1
  8 24  1  0
  9 10  1  0
  9 13  1  0
 10 11  1  0
 11 12  1  0
 12 13  1  0
 13 14  1  0
 14 15  2  3
 15 16  1  0
 16 17  2  0
 16 23  1  0
 17 18  1  0
 18 19  1  0
 18 20  2  0
 20 21  1  0
 21 22  1  0
 21 23  2  0
M  END
