
     RDKit          3D

 17 16  0  0  0  0  0  0  0  0999 V2000
   -1.0790   -0.7700    0.8140 C   0  0  0  0  0  0  0  0  0  0  0  0
   -1.1710    0.2400   -0.2970 C   0  0  2  0  0  0  0  0  0  0  0  0
    0.2060   -0.1990   -1.4320 S   0  0  0  0  0  0  0  0  0  0  0  0
    1.8110    0.0630   -0.6500 C   0  0  0  0  0  0  0  0  0  0  0  0
    2.8580   -0.3350   -1.6620 C   0  0  0  0  0  0  0  0  0  0  0  0
    4.1440   -0.1960   -1.2410 O   0  0  0  0  0  0  0  0  0  0  0  0
    4.4340   -0.9960   -0.1560 C   0  0  1  0  0  0  0  0  0  0  0  0
    5.5390   -1.7960   -0.4740 O   0  0  0  0  0  0  0  0  0  0  0  0
    4.8310   -0.1180    0.8800 O   0  0  0  0  0  0  0  0  0  0  0  0
    4.1020   -0.3010    1.9460 O   0  0  0  0  0  0  0  0  0  0  0  0
   -0.9570    1.5640    0.3000 C   0  0  0  0  0  0  0  0  0  0  0  0
   -1.7850    2.0560    1.3280 N   0  0  0  0  0  0  0  0  0  0  0  0
   -0.0230    2.2790   -0.1050 O   0  0  0  0  0  0  0  0  0  0  0  0
   -2.4090    0.1570   -1.1360 C   0  0  2  0  0  0  0  0  0  0  0  0
   -2.2600    1.1840   -2.1050 O   0  0  0  0  0  0  0  0  0  0  0  0
   -3.7070    0.3180   -0.4540 C   0  0  0  0  0  0  0  0  0  0  0  0
   -4.0540   -0.6350    0.5490 N   0  0  0  0  0  0  0  0  0  0  0  0
  2  1  1  1
  2  3  1  0
  2 11  1  0
  2 14  1  0
  3  4  1  0
  4  5  1  0
  5  6  1  0
  6  7  1  0
  7  8  1  6
  7  9  1  0
  9 10  1  0
 11 12  1  0
 11 13  2  0
 14 15  1  6
 14 16  1  0
 16 17  1  0
M  CHG  1  17   1
M  END
