
     RDKit          3D

 26 28  0  0  0  0  0  0  0  0999 V2000
    5.2480   -2.3760    1.3580 C   0  0  0  0  0  0  0  0  0  0  0  0
    3.9580   -1.9300    0.7900 C   0  0  0  0  0  0  0  0  0  0  0  0
    2.8450   -2.6990    0.9370 C   0  0  0  0  0  0  0  0  0  0  0  0
    1.6200   -2.3230    0.4240 C   0  0  0  0  0  0  0  0  0  0  0  0
    0.4620   -3.2260    0.6330 C   0  0  0  0  0  0  0  0  0  0  0  0
    1.4960   -1.1750   -0.2390 N   0  0  0  0  0  0  0  0  0  0  0  0
    0.2710   -0.7220   -0.7940 C   0  0  0  0  0  0  0  0  0  0  0  0
   -0.5520    0.0970    0.0830 C   0  0  0  0  0  0  0  0  0  0  0  0
   -0.1800    0.3690    1.2480 O   0  0  0  0  0  0  0  0  0  0  0  0
   -1.7890    0.6000   -0.3700 N   0  0  0  0  0  0  0  0  0  0  0  0
   -2.3410    0.3650   -1.6870 C   0  0  0  0  0  0  0  0  0  0  0  0
   -3.7550    0.9050   -1.6700 C   0  0  0  0  0  0  0  0  0  0  0  0
   -4.0540    0.9050   -0.1860 C   0  0  1  0  0  0  0  0  0  0  0  0
   -5.2180    1.7930    0.1620 C   0  0  0  0  0  0  0  0  0  0  0  0
   -6.4680    0.9220    0.1210 C   0  0  0  0  0  0  0  0  0  0  0  0
   -6.4160   -0.1520    1.1910 C   0  0  0  0  0  0  0  0  0  0  0  0
   -5.0560   -0.5310    1.4530 N   0  0  0  0  0  0  0  0  0  0  0  0
   -4.2170   -0.5080    0.2700 C   0  0  0  0  0  0  0  0  0  0  0  0
   -2.7440    1.4380    0.3760 C   0  0  0  0  0  0  0  0  0  0  0  0
    2.6020   -0.3940   -0.3930 C   0  0  0  0  0  0  0  0  0  0  0  0
    2.4720    0.7000   -1.0290 O   0  0  0  0  0  0  0  0  0  0  0  0
    3.8370   -0.7160    0.0920 C   0  0  0  0  0  0  0  0  0  0  0  0
    5.0080    0.0920   -0.0600 C   0  0  0  0  0  0  0  0  0  0  0  0
    5.1020    1.2460   -0.6730 C   0  0  0  0  0  0  0  0  0  0  0  0
    6.4490    1.9480   -0.7230 C   0  0  0  0  0  0  0  0  0  0  0  0
    6.3150    3.2240   -0.0820 N   0  0  0  0  0  0  0  0  0  0  0  0
  1  2  1  0
  2  3  1  0
  2 22  2  0
  3  4  2  0
  4  5  1  0
  4  6  1  0
  6  7  1  0
  6 20  1  0
  7  8  1  0
  8  9  2  0
  8 10  1  0
 10 11  1  0
 10 19  1  0
 11 12  1  0
 13 12  1  6
 13 14  1  0
 13 18  1  0
 13 19  1  0
 14 15  1  0
 15 16  1  0
 16 17  1  0
 17 18  1  0
 20 21  2  0
 20 22  1  0
 22 23  1  0
 23 24  2  3
 24 25  1  0
 25 26  1  0
M  CHG  1  26   1
M  END
