
     RDKit          3D

 26 28  0  0  0  0  0  0  0  0999 V2000
   -5.9120    0.4840    0.9530 C   0  0  0  0  0  0  0  0  0  0  0  0
   -4.6990    1.0770    1.6200 C   0  0  0  0  0  0  0  0  0  0  0  0
   -3.5450    0.3160    1.4660 N   0  0  0  0  0  0  0  0  0  0  0  0
   -2.8930    0.2190    0.1920 C   0  0  2  0  0  0  0  0  0  0  0  0
   -2.4220    1.6180   -0.1920 C   0  0  0  0  0  0  0  0  0  0  0  0
   -3.8160   -0.1730   -0.8190 N   0  0  0  0  0  0  0  0  0  0  0  0
   -3.8720   -1.4280   -1.4390 C   0  0  0  0  0  0  0  0  0  0  0  0
   -4.9200   -2.0100   -1.8870 N   0  0  0  0  0  0  0  0  0  0  0  0
   -2.5510   -2.1310   -1.5740 C   0  0  0  0  0  0  0  0  0  0  0  0
   -1.9040   -2.0170   -0.2460 C   0  0  0  0  0  0  0  0  0  0  0  0
   -1.5230   -3.0730    0.3110 O   0  0  0  0  0  0  0  0  0  0  0  0
   -1.7180   -0.7120    0.3910 C   0  0  1  0  0  0  0  0  0  0  0  0
   -0.4120   -0.0880    0.1760 C   0  0  0  0  0  0  0  0  0  0  0  0
    0.3750   -0.4690   -0.8690 C   0  0  0  0  0  0  0  0  0  0  0  0
    1.6050    0.1300   -1.0870 C   0  0  0  0  0  0  0  0  0  0  0  0
    2.0350    1.1230   -0.2350 C   0  0  0  0  0  0  0  0  0  0  0  0
    3.2720    1.6880   -0.5000 O   0  0  0  0  0  0  0  0  0  0  0  0
    4.4590    1.1120   -0.0150 C   0  0  0  0  0  0  0  0  0  0  0  0
    4.9790    1.4330    1.2200 C   0  0  0  0  0  0  0  0  0  0  0  0
    6.1430    0.8670    1.6930 C   0  0  0  0  0  0  0  0  0  0  0  0
    6.8450   -0.0630    0.9280 C   0  0  0  0  0  0  0  0  0  0  0  0
    8.0980   -0.6540    1.4640 C   0  0  0  0  0  0  0  0  0  0  0  0
    6.3300   -0.3820   -0.2970 C   0  0  0  0  0  0  0  0  0  0  0  0
    5.1470    0.1930   -0.7770 C   0  0  0  0  0  0  0  0  0  0  0  0
    1.2350    1.4660    0.7770 N   0  0  0  0  0  0  0  0  0  0  0  0
    0.0410    0.9050    1.0120 C   0  0  0  0  0  0  0  0  0  0  0  0
  1  2  1  0
  2  3  1  0
  3  4  1  0
  4  5  1  6
  4  6  1  0
  4 12  1  0
  6  7  1  0
  7  8  2  0
  7  9  1  0
  9 10  1  0
 10 11  2  0
 10 12  1  0
 12 13  1  6
 13 14  2  0
 13 26  1  0
 14 15  1  0
 15 16  2  0
 16 17  1  0
 16 25  1  0
 17 18  1  0
 18 19  2  0
 18 24  1  0
 19 20  1  0
 20 21  2  0
 21 22  1  0
 21 23  1  0
 23 24  2  0
 25 26  2  0
M  CHG  1   8   1
M  END
