
     RDKit          3D

 26 28  0  0  0  0  0  0  0  0999 V2000
   -4.9200    3.4610   -0.2950 C   0  0  0  0  0  0  0  0  0  0  0  0
   -4.6630    2.4190    0.7150 C   0  0  0  0  0  0  0  0  0  0  0  0
   -3.5670    1.4560    0.4820 C   0  0  0  0  0  0  0  0  0  0  0  0
   -2.3050    1.6940    0.8490 N   0  0  0  0  0  0  0  0  0  0  0  0
   -1.5760    0.6910    0.5260 O   0  0  0  0  0  0  0  0  0  0  0  0
   -2.2630   -0.2640   -0.0620 C   0  0  0  0  0  0  0  0  0  0  0  0
   -1.6780   -1.5080   -0.5710 C   0  0  2  0  0  0  0  0  0  0  0  0
   -2.4350   -2.5660   -0.2540 O   0  0  0  0  0  0  0  0  0  0  0  0
   -2.2650   -3.8620   -0.3630 C   0  0  0  0  0  0  0  0  0  0  0  0
   -0.3370   -1.8070    0.3060 C   0  0  1  0  0  0  0  0  0  0  0  0
    0.1820   -3.0840   -0.4360 C   0  0  0  0  0  0  0  0  0  0  0  0
    0.7540   -0.8760    0.2970 C   0  0  0  0  0  0  0  0  0  0  0  0
    0.6770    0.4040    0.7760 N   0  0  0  0  0  0  0  0  0  0  0  0
    1.7640    1.2420    0.7670 C   0  0  0  0  0  0  0  0  0  0  0  0
    2.9430    0.7480    0.2350 C   0  0  0  0  0  0  0  0  0  0  0  0
    3.0270   -0.4540   -0.2450 C   0  0  0  0  0  0  0  0  0  0  0  0
    1.9590   -1.2580   -0.2100 N   0  0  0  0  0  0  0  0  0  0  0  0
    4.3360   -0.9380   -0.8330 C   0  0  0  0  0  0  0  0  0  0  0  0
    5.3830   -0.6650    0.2430 C   0  0  0  0  0  0  0  0  0  0  0  0
    5.4400    0.8150    0.5390 C   0  0  0  0  0  0  0  0  0  0  0  0
    4.1970    1.6000    0.3050 C   0  0  1  0  0  0  0  0  0  0  0  0
    4.3340    2.3660   -0.9580 C   0  0  0  0  0  0  0  0  0  0  0  0
    4.1010    2.5870    1.4640 C   0  0  0  0  0  0  0  0  0  0  0  0
   -3.5730    0.1850   -0.1070 C   0  0  0  0  0  0  0  0  0  0  0  0
   -4.7660   -0.3470   -0.7120 C   0  0  0  0  0  0  0  0  0  0  0  0
   -5.1620   -1.6310   -0.1390 N   0  0  0  0  0  0  0  0  0  0  0  0
  1  2  1  0
  2  3  1  0
  3  4  2  0
  3 24  1  0
  4  5  1  0
  5  6  1  0
  6  7  1  0
  6 24  2  0
  7  8  1  1
  7 10  1  0
  8  9  1  0
 10 11  1  6
 10 12  1  0
 12 13  2  0
 12 17  1  0
 13 14  1  0
 14 15  2  0
 15 16  1  0
 15 21  1  0
 16 17  2  0
 16 18  1  0
 18 19  1  0
 19 20  1  0
 20 21  1  0
 21 22  1  6
 21 23  1  0
 24 25  1  0
 25 26  1  0
M  CHG  1  26   1
M  END
