
     RDKit          3D

 26 28  0  0  0  0  0  0  0  0999 V2000
   -0.2750   -3.2880   -1.2730 C   0  0  0  0  0  0  0  0  0  0  0  0
   -0.8780   -3.1740    0.0900 C   0  0  0  0  0  0  0  0  0  0  0  0
   -0.7530   -1.7510    0.6540 C   0  0  2  0  0  0  0  0  0  0  0  0
   -1.4200   -0.8290   -0.1990 N   0  0  0  0  0  0  0  0  0  0  0  0
   -1.8870    0.3540    0.4780 C   0  0  2  0  0  0  0  0  0  0  0  0
   -1.6450    0.2810    1.9880 C   0  0  0  0  0  0  0  0  0  0  0  0
   -3.2940    0.6530    0.2820 C   0  0  0  0  0  0  0  0  0  0  0  0
   -3.6830    1.9440   -0.0050 C   0  0  0  0  0  0  0  0  0  0  0  0
   -5.0000    2.2960   -0.2020 C   0  0  0  0  0  0  0  0  0  0  0  0
   -6.0000    1.3510   -0.1180 C   0  0  0  0  0  0  0  0  0  0  0  0
   -7.4250    1.7300   -0.3310 C   0  0  0  0  0  0  0  0  0  0  0  0
   -5.6340    0.0510    0.1680 C   0  0  0  0  0  0  0  0  0  0  0  0
   -4.3010   -0.2870    0.3640 C   0  0  0  0  0  0  0  0  0  0  0  0
    0.6990   -1.5190    0.8450 C   0  0  0  0  0  0  0  0  0  0  0  0
    1.2660   -2.3400    1.5860 O   0  0  0  0  0  0  0  0  0  0  0  0
    1.4260   -0.4750    0.2610 N   0  0  0  0  0  0  0  0  0  0  0  0
    2.8040   -0.2090    0.4080 C   0  0  0  0  0  0  0  0  0  0  0  0
    3.3650    0.8580   -0.2340 N   0  0  0  0  0  0  0  0  0  0  0  0
    4.6490    1.1870   -0.1560 C   0  0  0  0  0  0  0  0  0  0  0  0
    5.4920    0.4220    0.6130 C   0  0  0  0  0  0  0  0  0  0  0  0
    4.9610   -0.6430    1.2610 C   0  0  0  0  0  0  0  0  0  0  0  0
    5.7060   -1.3760    1.9820 O   0  0  0  0  0  0  0  0  0  0  0  0
    3.6310   -0.9360    1.1460 N   0  0  0  0  0  0  0  0  0  0  0  0
    6.8710    0.9650    0.5560 C   0  0  0  0  0  0  0  0  0  0  0  0
    6.8770    1.8990   -0.6420 C   0  0  0  0  0  0  0  0  0  0  0  0
    5.4290    2.2890   -0.7700 C   0  0  0  0  0  0  0  0  0  0  0  0
  1  2  1  0
  3  2  1  6
  3  4  1  0
  3 14  1  0
  4  5  1  0
  5  6  1  1
  5  7  1  0
  7  8  2  0
  7 13  1  0
  8  9  1  0
  9 10  2  0
 10 11  1  0
 10 12  1  0
 12 13  2  0
 14 15  2  0
 14 16  1  0
 16 17  1  0
 17 18  2  0
 17 23  1  0
 18 19  1  0
 19 20  2  0
 19 26  1  0
 20 21  1  0
 20 24  1  0
 21 22  2  0
 21 23  1  0
 24 25  1  0
 25 26  1  0
M  CHG  1   4   1
M  END
