
     RDKit          3D

 26 28  0  0  0  0  0  0  0  0999 V2000
   -7.4120    2.2640    0.6310 C   0  0  0  0  0  0  0  0  0  0  0  0
   -6.6140    1.2880    1.3400 N   0  0  0  0  0  0  0  0  0  0  0  0
   -5.3450    0.8990    0.7830 C   0  0  0  0  0  0  0  0  0  0  0  0
   -4.5490   -0.0230    1.4160 C   0  0  0  0  0  0  0  0  0  0  0  0
   -3.3320   -0.3760    0.8550 C   0  0  0  0  0  0  0  0  0  0  0  0
   -2.8390    0.1430   -0.3310 C   0  0  0  0  0  0  0  0  0  0  0  0
   -1.5280   -0.2090   -0.8540 C   0  0  0  0  0  0  0  0  0  0  0  0
   -1.0470    0.5940   -1.7530 O   0  0  0  0  0  0  0  0  0  0  0  0
   -0.7230   -1.3080   -0.5080 N   0  0  0  0  0  0  0  0  0  0  0  0
   -0.9170   -2.3990    0.3850 C   0  0  0  0  0  0  0  0  0  0  0  0
    0.1190   -3.4820   -0.0190 C   0  0  0  0  0  0  0  0  0  0  0  0
    0.6430   -2.9650   -1.3400 C   0  0  0  0  0  0  0  0  0  0  0  0
    0.6130   -1.4830   -1.0820 C   0  0  2  0  0  0  0  0  0  0  0  0
    1.6690   -1.0450   -0.0640 C   0  0  0  0  0  0  0  0  0  0  0  0
    2.9910   -1.2050   -0.5970 N   0  0  2  0  0  0  0  0  0  0  0  0
    3.8720   -1.9960    0.2260 C   0  0  0  0  0  0  0  0  0  0  0  0
    3.5940    0.0520   -0.9840 C   0  0  0  0  0  0  0  0  0  0  0  0
    3.8540    0.9680    0.1420 C   0  0  0  0  0  0  0  0  0  0  0  0
    3.5960    0.7710    1.4750 C   0  0  0  0  0  0  0  0  0  0  0  0
    3.9800    1.8420    2.1630 N   0  0  0  0  0  0  0  0  0  0  0  0
    4.4870    2.7450    1.3090 C   0  0  0  0  0  0  0  0  0  0  0  0
    4.4210    2.2240    0.0350 C   0  0  0  0  0  0  0  0  0  0  0  0
    4.8820    2.9170   -1.1770 C   0  0  0  0  0  0  0  0  0  0  0  0
   -3.6450    1.0720   -0.9640 C   0  0  0  0  0  0  0  0  0  0  0  0
   -3.3560    1.7000   -2.1360 O   0  0  0  0  0  0  0  0  0  0  0  0
   -4.8830    1.4280   -0.3880 C   0  0  0  0  0  0  0  0  0  0  0  0
  1  2  1  0
  2  3  1  0
  3  4  2  0
  3 26  1  0
  4  5  1  0
  5  6  2  0
  6  7  1  0
  6 24  1  0
  7  8  2  0
  7  9  1  0
  9 10  1  0
  9 13  1  0
 10 11  1  0
 11 12  1  0
 12 13  1  0
 13 14  1  1
 14 15  1  0
 15 16  1  1
 15 17  1  0
 17 18  1  0
 18 19  2  0
 18 22  1  0
 19 20  1  0
 20 21  1  0
 21 22  2  0
 22 23  1  0
 24 25  1  0
 24 26  2  0
M  CHG  1  15   1
M  END
