
     RDKit          3D

 26 28  0  0  0  0  0  0  0  0999 V2000
    6.6580    2.4430    1.5050 C   0  0  0  0  0  0  0  0  0  0  0  0
    5.7350    1.4540    0.7760 C   0  0  0  0  0  0  0  0  0  0  0  0
    4.3140    1.7940    1.1470 C   0  0  0  0  0  0  0  0  0  0  0  0
    3.4390    0.9050    0.5070 O   0  0  0  0  0  0  0  0  0  0  0  0
    3.3030    0.7550   -0.8500 C   0  0  0  0  0  0  0  0  0  0  0  0
    3.9970    1.4480   -1.6230 O   0  0  0  0  0  0  0  0  0  0  0  0
    2.3510   -0.2130   -1.4930 C   0  0  0  0  0  0  0  0  0  0  0  0
    1.5840   -0.9190   -0.4990 N   0  0  0  0  0  0  0  0  0  0  0  0
    2.2880   -1.8750    0.3210 C   0  0  0  0  0  0  0  0  0  0  0  0
    2.7240   -3.0960   -0.4790 C   0  0  0  0  0  0  0  0  0  0  0  0
    3.4220   -4.0410    0.3710 N   0  0  0  0  0  0  0  0  0  0  0  0
    0.2010   -0.6380   -0.3370 C   0  0  0  0  0  0  0  0  0  0  0  0
   -0.6090   -1.4600    0.4170 C   0  0  0  0  0  0  0  0  0  0  0  0
   -1.9700   -1.2140    0.6300 C   0  0  0  0  0  0  0  0  0  0  0  0
   -2.8480   -2.0960    1.4340 C   0  0  0  0  0  0  0  0  0  0  0  0
   -2.4990   -0.0880    0.0450 C   0  0  0  0  0  0  0  0  0  0  0  0
   -1.6890    0.7570   -0.7240 C   0  0  0  0  0  0  0  0  0  0  0  0
   -0.3630    0.4980   -0.9190 C   0  0  0  0  0  0  0  0  0  0  0  0
   -2.2400    1.9810   -1.3720 C   0  0  1  0  0  0  0  0  0  0  0  0
   -2.3120    1.7040   -2.7860 N   0  0  0  0  0  0  0  0  0  0  0  0
   -3.6130    2.3610   -0.8680 C   0  0  0  0  0  0  0  0  0  0  0  0
   -4.4250    1.1020   -0.8070 C   0  0  2  0  0  0  0  0  0  0  0  0
   -5.8650    1.2850   -0.4610 C   0  0  0  0  0  0  0  0  0  0  0  0
   -6.1320   -0.0730    0.2180 C   0  0  0  0  0  0  0  0  0  0  0  0
   -4.8710   -0.0790    1.1230 C   0  0  0  0  0  0  0  0  0  0  0  0
   -3.8760    0.2070    0.2390 N   0  0  0  0  0  0  0  0  0  0  0  0
  1  2  1  0
  2  3  1  0
  3  4  1  0
  4  5  1  0
  5  6  2  0
  5  7  1  0
  7  8  1  0
  8  9  1  0
  8 12  1  0
  9 10  1  0
 10 11  1  0
 12 13  2  0
 12 18  1  0
 13 14  1  0
 14 15  1  0
 14 16  2  0
 16 17  1  0
 16 26  1  0
 17 18  2  0
 17 19  1  0
 19 20  1  6
 19 21  1  0
 22 21  1  1
 22 23  1  0
 22 26  1  0
 23 24  1  0
 24 25  1  0
 25 26  1  0
M  CHG  1  11   1
M  END
