
     RDKit          3D

 26 28  0  0  0  0  0  0  0  0999 V2000
   -5.6850   -0.1310    1.6940 C   0  0  0  0  0  0  0  0  0  0  0  0
   -4.2290    0.2240    1.8340 C   0  0  0  0  0  0  0  0  0  0  0  0
   -3.3910   -0.1230    0.6490 C   0  0  0  0  0  0  0  0  0  0  0  0
   -3.7980    0.5450   -0.6250 C   0  0  2  0  0  0  0  0  0  0  0  0
   -5.1350    0.2470   -1.0550 N   0  0  0  0  0  0  0  0  0  0  0  0
   -5.3680    0.9650   -2.2980 C   0  0  0  0  0  0  0  0  0  0  0  0
   -2.8610    0.0510   -1.7250 C   0  0  2  0  0  0  0  0  0  0  0  0
   -2.9530   -1.3640   -1.8700 N   0  0  0  0  0  0  0  0  0  0  0  0
   -1.6950   -1.9150   -1.5600 C   0  0  0  0  0  0  0  0  0  0  0  0
   -1.3790   -3.1330   -1.5730 O   0  0  0  0  0  0  0  0  0  0  0  0
   -0.7940   -0.7830   -1.2090 C   0  0  0  0  0  0  0  0  0  0  0  0
    0.5880   -0.9900   -0.8350 C   0  0  0  0  0  0  0  0  0  0  0  0
    1.5160   -0.1450   -0.4990 C   0  0  0  0  0  0  0  0  0  0  0  0
    1.4710    1.2440   -0.3910 N   0  0  0  0  0  0  0  0  0  0  0  0
    2.7940    1.6800    0.0210 C   0  0  0  0  0  0  0  0  0  0  0  0
    3.1430    2.8730    0.2220 O   0  0  0  0  0  0  0  0  0  0  0  0
    3.6190    0.4970    0.1520 C   0  0  0  0  0  0  0  0  0  0  0  0
    5.0460    0.4930    0.5430 C   0  0  0  0  0  0  0  0  0  0  0  0
    5.9660   -0.3090   -0.0550 C   0  0  0  0  0  0  0  0  0  0  0  0
    7.2780   -0.2530    0.3820 C   0  0  0  0  0  0  0  0  0  0  0  0
    7.6470    0.5880    1.3920 C   0  0  0  0  0  0  0  0  0  0  0  0
    6.7350    1.4140    2.0190 C   0  0  0  0  0  0  0  0  0  0  0  0
    5.4340    1.3440    1.5700 C   0  0  0  0  0  0  0  0  0  0  0  0
    2.8950   -0.5520   -0.1440 C   0  0  0  0  0  0  0  0  0  0  0  0
    3.4500   -1.9520   -0.0970 C   0  0  0  0  0  0  0  0  0  0  0  0
   -1.4800    0.2830   -1.3130 N   0  0  0  0  0  0  0  0  0  0  0  0
  1  2  1  0
  2  3  1  0
  4  3  1  1
  4  5  1  0
  4  7  1  0
  5  6  1  0
  7  8  1  1
  7 26  1  0
  8  9  1  0
  9 10  2  0
  9 11  1  0
 11 12  1  0
 11 26  2  0
 12 13  2  3
 13 14  1  0
 13 24  1  0
 14 15  1  0
 15 16  2  0
 15 17  1  0
 17 18  1  0
 17 24  2  0
 18 19  2  0
 18 23  1  0
 19 20  1  0
 20 21  2  0
 21 22  1  0
 22 23  2  0
 24 25  1  0
M  CHG  1  26   1
M  END
