
     RDKit          3D

 26 28  0  0  0  0  0  0  0  0999 V2000
    3.0430   -0.9570   -0.7570 N   0  0  0  0  0  0  0  0  0  0  0  0
    2.0130    0.0190   -0.6730 C   0  0  2  0  0  0  0  0  0  0  0  0
    2.2500    1.0010    0.4730 C   0  0  0  0  0  0  0  0  0  0  0  0
    3.5460    1.7260    0.2810 C   0  0  0  0  0  0  0  0  0  0  0  0
    4.7210    1.2250    0.7960 C   0  0  0  0  0  0  0  0  0  0  0  0
    5.9150    1.8850    0.6240 C   0  0  0  0  0  0  0  0  0  0  0  0
    5.9800    3.0730   -0.0700 C   0  0  0  0  0  0  0  0  0  0  0  0
    4.7980    3.5690   -0.5840 C   0  0  0  0  0  0  0  0  0  0  0  0
    3.5970    2.9120   -0.4150 C   0  0  0  0  0  0  0  0  0  0  0  0
    0.6240   -0.4250   -0.7270 C   0  0  0  0  0  0  0  0  0  0  0  0
   -0.2180    0.5660   -0.8140 O   0  0  0  0  0  0  0  0  0  0  0  0
    0.0970   -1.7520   -0.7000 N   0  0  0  0  0  0  0  0  0  0  0  0
    0.8350   -2.9520   -0.5800 C   0  0  0  0  0  0  0  0  0  0  0  0
   -0.2090   -3.9610   -0.0530 C   0  0  0  0  0  0  0  0  0  0  0  0
   -1.4660   -3.5060   -0.8130 C   0  0  0  0  0  0  0  0  0  0  0  0
   -1.2990   -2.0200   -0.8110 C   0  0  1  0  0  0  0  0  0  0  0  0
   -2.1080   -1.3580    0.2400 C   0  0  0  0  0  0  0  0  0  0  0  0
   -1.5260   -0.6740    1.1050 O   0  0  0  0  0  0  0  0  0  0  0  0
   -3.5130   -1.4790    0.2910 N   0  0  0  0  0  0  0  0  0  0  0  0
   -4.3540   -0.8460    1.3060 C   0  0  0  0  0  0  0  0  0  0  0  0
   -4.5320    0.5900    1.0800 C   0  0  0  0  0  0  0  0  0  0  0  0
   -5.4830    1.0590    0.2000 C   0  0  0  0  0  0  0  0  0  0  0  0
   -5.6620    2.4100   -0.0210 C   0  0  0  0  0  0  0  0  0  0  0  0
   -4.8600    3.2980    0.6640 C   0  0  0  0  0  0  0  0  0  0  0  0
   -3.9360    2.8310    1.5180 N   0  0  0  0  0  0  0  0  0  0  0  0
   -3.7560    1.5140    1.7400 C   0  0  0  0  0  0  0  0  0  0  0  0
  2  1  1  1
  2  3  1  0
  2 10  1  0
  3  4  1  0
  4  5  2  0
  4  9  1  0
  5  6  1  0
  6  7  2  0
  7  8  1  0
  8  9  2  0
 10 11  2  0
 10 12  1  0
 12 13  1  0
 12 16  1  0
 13 14  1  0
 14 15  1  0
 15 16  1  0
 16 17  1  1
 17 18  2  0
 17 19  1  0
 19 20  1  0
 20 21  1  0
 21 22  2  0
 21 26  1  0
 22 23  1  0
 23 24  2  0
 24 25  1  0
 25 26  2  0
M  CHG  1   1   1
M  END
