
     RDKit          3D

 26 28  0  0  0  0  0  0  0  0999 V2000
    5.5370   -0.2430    2.4410 N   0  0  0  0  0  0  0  0  0  0  0  0
    5.0750   -0.0740    1.0400 C   0  0  0  0  0  0  0  0  0  0  0  0
    6.1920    0.3590    0.1760 C   0  0  0  0  0  0  0  0  0  0  0  0
    5.8810    0.5280   -1.2450 C   0  0  0  0  0  0  0  0  0  0  0  0
    4.9290    1.5310   -1.7260 C   0  0  0  0  0  0  0  0  0  0  0  0
    3.5080    1.5160   -1.2990 C   0  0  0  0  0  0  0  0  0  0  0  0
    2.8490    0.2400   -1.6310 C   0  0  0  0  0  0  0  0  0  0  0  0
    3.4140   -0.6830   -2.2700 O   0  0  0  0  0  0  0  0  0  0  0  0
    1.5090    0.0200   -1.2190 N   0  0  0  0  0  0  0  0  0  0  0  0
    0.9250   -1.2760   -1.5910 C   0  0  0  0  0  0  0  0  0  0  0  0
    0.8710   -2.1900   -0.3790 C   0  0  0  0  0  0  0  0  0  0  0  0
    0.6150   -1.3290    0.8210 C   0  0  0  0  0  0  0  0  0  0  0  0
   -0.5590   -0.4880    0.4860 N   0  0  0  0  0  0  0  0  0  0  0  0
   -1.7540   -1.0580    0.9140 C   0  0  0  0  0  0  0  0  0  0  0  0
   -1.6190   -2.2070    1.5240 O   0  0  0  0  0  0  0  0  0  0  0  0
   -3.0810   -0.5210    0.7560 C   0  0  0  0  0  0  0  0  0  0  0  0
   -3.5360    0.6200    0.1780 C   0  0  0  0  0  0  0  0  0  0  0  0
   -4.9410    0.6750    0.2890 C   0  0  0  0  0  0  0  0  0  0  0  0
   -5.2590   -0.4680    0.9460 C   0  0  0  0  0  0  0  0  0  0  0  0
   -4.1740   -1.1980    1.2360 N   0  0  0  0  0  0  0  0  0  0  0  0
   -6.7100   -0.7120    1.2240 C   0  0  0  0  0  0  0  0  0  0  0  0
   -7.4420   -0.2530   -0.0400 C   0  0  0  0  0  0  0  0  0  0  0  0
   -7.3010    1.2510   -0.0770 C   0  0  0  0  0  0  0  0  0  0  0  0
   -5.8860    1.7130   -0.1830 C   0  0  0  0  0  0  0  0  0  0  0  0
   -0.5390    0.7590   -0.1880 C   0  0  0  0  0  0  0  0  0  0  0  0
    0.9250    1.1200   -0.4900 C   0  0  0  0  0  0  0  0  0  0  0  0
  1  2  1  0
  2  3  1  0
  3  4  1  0
  4  5  1  0
  5  6  1  0
  6  7  1  0
  7  8  2  0
  7  9  1  0
  9 10  1  0
  9 26  1  0
 10 11  1  0
 11 12  1  0
 12 13  1  0
 13 14  1  0
 13 25  1  0
 14 15  2  0
 14 16  1  0
 16 17  2  0
 16 20  1  0
 17 18  1  0
 18 19  2  0
 18 24  1  0
 19 20  1  0
 19 21  1  0
 21 22  1  0
 22 23  1  0
 23 24  1  0
 25 26  1  0
M  CHG  1   1   1
M  END
