
     RDKit          3D

 26 27  0  0  0  0  0  0  0  0999 V2000
    7.7290    0.0600    0.2570 C   0  0  0  0  0  0  0  0  0  0  0  0
    7.4810    1.1730   -0.4870 O   0  0  0  0  0  0  0  0  0  0  0  0
    6.3280    1.8490   -0.2200 C   0  0  0  0  0  0  0  0  0  0  0  0
    5.0770    1.0500   -0.5120 C   0  0  0  0  0  0  0  0  0  0  0  0
    5.1460   -0.0750   -1.0100 O   0  0  0  0  0  0  0  0  0  0  0  0
    3.8720    1.6680   -0.1800 N   0  0  0  0  0  0  0  0  0  0  0  0
    2.5460    1.1940   -0.3250 C   0  0  0  0  0  0  0  0  0  0  0  0
    1.9320    0.1600   -0.7510 C   0  0  0  0  0  0  0  0  0  0  0  0
    2.6020   -1.0060   -1.2990 N   0  0  0  0  0  0  0  0  0  0  0  0
    0.4620    0.0920   -0.7010 C   0  0  0  0  0  0  0  0  0  0  0  0
   -0.0280    0.9910    0.3850 C   0  0  2  0  0  0  0  0  0  0  0  0
   -0.0410    0.4020    1.6800 N   0  0  0  0  0  0  0  0  0  0  0  0
   -1.1980   -0.3170    2.0890 C   0  0  0  0  0  0  0  0  0  0  0  0
   -1.1430   -1.2300    2.9540 O   0  0  0  0  0  0  0  0  0  0  0  0
   -2.5120    0.0050    1.4930 C   0  0  2  0  0  0  0  0  0  0  0  0
   -3.4830    0.1730    2.6520 C   0  0  0  0  0  0  0  0  0  0  0  0
   -2.9660   -1.1030    0.5650 C   0  0  0  0  0  0  0  0  0  0  0  0
   -4.2770   -0.8070   -0.0440 C   0  0  0  0  0  0  0  0  0  0  0  0
   -4.9000    0.2550    0.2150 O   0  0  0  0  0  0  0  0  0  0  0  0
   -4.8680   -1.7300   -0.9480 N   0  0  0  0  0  0  0  0  0  0  0  0
   -6.1430   -1.4160   -1.5250 C   0  0  0  0  0  0  0  0  0  0  0  0
   -6.6390   -2.4130   -2.4160 N   0  0  0  0  0  0  0  0  0  0  0  0
   -2.4880    1.2330    0.7420 N   0  0  0  0  0  0  0  0  0  0  0  0
   -1.3440    1.5380   -0.0240 C   0  0  0  0  0  0  0  0  0  0  0  0
   -1.4010    2.2570   -1.0420 O   0  0  0  0  0  0  0  0  0  0  0  0
    1.1770    2.3330    0.2220 S   0  0  0  0  0  0  0  0  0  0  0  0
  1  2  1  0
  2  3  1  0
  3  4  1  0
  4  5  2  0
  4  6  1  0
  6  7  1  0
  7  8  2  0
  7 26  1  0
  8  9  1  0
  8 10  1  0
 11 10  1  6
 11 12  1  0
 11 24  1  0
 11 26  1  0
 12 13  1  0
 13 14  2  0
 13 15  1  0
 15 16  1  1
 15 17  1  0
 15 23  1  0
 17 18  1  0
 18 19  2  0
 18 20  1  0
 20 21  1  0
 21 22  1  0
 23 24  1  0
 24 25  2  0
M  CHG  1   9   1
M  END
