
     RDKit          3D

 26 27  0  0  0  0  0  0  0  0999 V2000
   -2.3950    1.6090    2.2410 C   0  0  0  0  0  0  0  0  0  0  0  0
   -2.5830    1.7600    0.7750 C   0  0  2  0  0  0  0  0  0  0  0  0
   -1.6460    2.7880    0.1730 C   0  0  0  0  0  0  0  0  0  0  0  0
   -3.8790    2.1910    0.4680 O   0  0  0  0  0  0  0  0  0  0  0  0
   -4.0950    1.8340   -0.8670 C   0  0  0  0  0  0  0  0  0  0  0  0
   -3.0570    0.9760   -1.2400 O   0  0  0  0  0  0  0  0  0  0  0  0
   -2.5890    0.4690   -0.0100 C   0  0  2  0  0  0  0  0  0  0  0  0
   -3.6720   -0.4120    0.5260 C   0  0  0  0  0  0  0  0  0  0  0  0
   -3.9380   -1.4820   -0.4160 N   0  0  0  0  0  0  0  0  0  0  0  0
   -1.2820   -0.1770   -0.0950 C   0  0  0  0  0  0  0  0  0  0  0  0
   -0.1200    0.2600   -0.5970 N   0  0  0  0  0  0  0  0  0  0  0  0
    0.8370   -0.6670   -0.4620 C   0  0  0  0  0  0  0  0  0  0  0  0
    2.2590   -0.6150   -0.8980 C   0  0  2  0  0  0  0  0  0  0  0  0
    3.0500   -0.8950    0.2120 O   0  0  0  0  0  0  0  0  0  0  0  0
    2.6570    0.6900   -1.4820 C   0  0  0  0  0  0  0  0  0  0  0  0
    2.5010    2.1080   -0.3900 S   0  0  0  0  0  0  0  0  0  0  0  0
    3.6890    2.1220    0.9560 C   0  0  0  0  0  0  0  0  0  0  0  0
    5.0930    2.3020    0.4360 C   0  0  0  0  0  0  0  0  0  0  0  0
    5.9140    1.1960    0.1010 N   0  0  0  0  0  0  0  0  0  0  0  0
    5.5300    3.4580    0.3050 O   0  0  0  0  0  0  0  0  0  0  0  0
    0.2790   -1.7220    0.1380 N   0  0  0  0  0  0  0  0  0  0  0  0
    0.8980   -3.0080    0.5060 C   0  0  0  0  0  0  0  0  0  0  0  0
    0.7830   -3.9710   -0.6140 C   0  0  0  0  0  0  0  0  0  0  0  0
    1.3220   -5.2690   -0.4470 N   0  0  0  0  0  0  0  0  0  0  0  0
    0.2310   -3.6870   -1.6970 O   0  0  0  0  0  0  0  0  0  0  0  0
   -1.0100   -1.4100    0.3550 N   0  0  0  0  0  0  0  0  0  0  0  0
  2  1  1  1
  2  3  1  0
  2  4  1  0
  2  7  1  0
  4  5  1  0
  5  6  1  0
  6  7  1  0
  7  8  1  1
  7 10  1  0
  8  9  1  0
 10 11  1  0
 10 26  2  0
 11 12  2  0
 12 13  1  0
 12 21  1  0
 13 14  1  1
 13 15  1  0
 15 16  1  0
 16 17  1  0
 17 18  1  0
 18 19  1  0
 18 20  2  0
 21 22  1  0
 21 26  1  0
 22 23  1  0
 23 24  1  0
 23 25  2  0
M  CHG  1   9   1
M  END
