
     RDKit          3D

 26 28  0  0  0  0  0  0  0  0999 V2000
   -3.8190   -1.3500    0.6600 C   0  0  0  0  0  0  0  0  0  0  0  0
   -4.3970   -0.0220    0.3030 C   0  0  1  0  0  0  0  0  0  0  0  0
   -5.7750   -0.2610   -0.2310 C   0  0  0  0  0  0  0  0  0  0  0  0
   -5.9150   -0.9480   -1.4680 N   0  0  0  0  0  0  0  0  0  0  0  0
   -6.7960    0.1130    0.3580 O   0  0  0  0  0  0  0  0  0  0  0  0
   -4.5980    0.6970    1.5750 N   0  0  0  0  0  0  0  0  0  0  0  0
   -3.8550    1.8580    1.8530 C   0  0  0  0  0  0  0  0  0  0  0  0
   -3.6740    2.2200    3.0290 O   0  0  0  0  0  0  0  0  0  0  0  0
   -3.3000    2.6320    0.7330 C   0  0  0  0  0  0  0  0  0  0  0  0
   -3.8730    2.1530   -0.4400 O   0  0  0  0  0  0  0  0  0  0  0  0
   -3.6140    0.8000   -0.6630 C   0  0  1  0  0  0  0  0  0  0  0  0
   -2.1820    0.5830   -0.5980 C   0  0  0  0  0  0  0  0  0  0  0  0
   -1.2450    1.3850   -1.2020 C   0  0  0  0  0  0  0  0  0  0  0  0
    0.0550    1.0730   -1.0610 C   0  0  0  0  0  0  0  0  0  0  0  0
    0.3710   -0.0380   -0.3180 C   0  0  0  0  0  0  0  0  0  0  0  0
    1.6260   -0.6520    0.0330 N   0  0  0  0  0  0  0  0  0  0  0  0
    2.8170   -0.0920   -0.4180 C   0  0  0  0  0  0  0  0  0  0  0  0
    2.9380    0.9220   -1.1190 O   0  0  0  0  0  0  0  0  0  0  0  0
    4.0420   -0.7590   -0.0300 N   0  0  0  0  0  0  0  0  0  0  0  0
    5.3000   -0.1880   -0.4920 C   0  0  1  0  0  0  0  0  0  0  0  0
    6.2400    0.0570    0.6800 C   0  0  0  0  0  0  0  0  0  0  0  0
    6.5720   -1.3050    1.0620 N   0  0  0  0  0  0  0  0  0  0  0  0
    6.7630   -1.9300   -0.2140 C   0  0  0  0  0  0  0  0  0  0  0  0
    7.4670   -2.9360   -0.4560 O   0  0  0  0  0  0  0  0  0  0  0  0
    6.0200   -1.2300   -1.2040 N   0  0  0  0  0  0  0  0  0  0  0  0
   -1.2020   -0.6210    0.1720 S   0  0  0  0  0  0  0  0  0  0  0  0
  2  1  1  1
  2  3  1  0
  2  6  1  0
  2 11  1  0
  3  4  1  0
  3  5  2  0
  6  7  1  0
  7  8  2  0
  7  9  1  0
  9 10  1  0
 10 11  1  0
 11 12  1  1
 12 13  2  0
 12 26  1  0
 13 14  1  0
 14 15  2  0
 15 16  1  0
 15 26  1  0
 16 17  1  0
 17 18  2  0
 17 19  1  0
 20 19  1  1
 20 21  1  0
 20 25  1  0
 21 22  1  0
 22 23  1  0
 23 24  2  0
 23 25  1  0
M  CHG  1  22   1
M  END
