
     RDKit          3D

 26 27  0  0  0  0  0  0  0  0999 V2000
   -8.4580    1.1650    0.8590 C   0  0  0  0  0  0  0  0  0  0  0  0
   -7.5830    1.4520   -0.3630 C   0  0  1  0  0  0  0  0  0  0  0  0
   -7.1470    2.7800   -0.3120 O   0  0  0  0  0  0  0  0  0  0  0  0
   -6.4230    0.5450   -0.2880 C   0  0  0  0  0  0  0  0  0  0  0  0
   -6.3220   -0.5070   -1.1560 C   0  0  0  0  0  0  0  0  0  0  0  0
   -5.1860   -1.3310   -1.0390 C   0  0  0  0  0  0  0  0  0  0  0  0
   -4.2390   -1.0700   -0.0910 C   0  0  0  0  0  0  0  0  0  0  0  0
   -3.0670   -1.9050    0.0130 N   0  0  0  0  0  0  0  0  0  0  0  0
   -1.8340   -1.2580    0.0680 N   0  0  0  0  0  0  0  0  0  0  0  0
   -0.6350   -1.9850    0.1480 C   0  0  0  0  0  0  0  0  0  0  0  0
   -0.6220   -3.2290    0.1840 O   0  0  0  0  0  0  0  0  0  0  0  0
    0.6430   -1.2420    0.1900 C   0  0  0  0  0  0  0  0  0  0  0  0
    0.5950    0.0390    0.1510 O   0  0  0  0  0  0  0  0  0  0  0  0
    1.9080   -1.8470    0.2700 N   0  0  0  0  0  0  0  0  0  0  0  0
    3.0840   -0.9670    0.2900 C   0  0  1  0  0  0  0  0  0  0  0  0
    4.3080   -1.5430    0.9870 C   0  0  0  0  0  0  0  0  0  0  0  0
    4.3310   -1.4160   -0.4560 C   0  0  2  0  0  0  0  0  0  0  0  0
    5.2290   -0.3060   -1.4500 S   0  0  0  0  0  0  0  0  0  0  0  0
    4.6060   -0.0200   -2.8010 O   0  0  0  0  0  0  0  0  0  0  0  0
    5.9500    1.1270   -0.7970 C   0  0  2  0  0  0  0  0  0  0  0  0
    6.9910    0.9430    0.2830 C   0  0  0  0  0  0  0  0  0  0  0  0
    8.0560    0.1610   -0.2600 N   0  0  0  0  0  0  0  0  0  0  0  0
    4.9700    2.1870   -0.2940 C   0  0  0  0  0  0  0  0  0  0  0  0
    4.1210    2.6360   -1.2750 O   0  0  0  0  0  0  0  0  0  0  0  0
   -4.4030   -0.0310    0.7200 N   0  0  0  0  0  0  0  0  0  0  0  0
   -5.4660    0.7570    0.6240 N   0  0  0  0  0  0  0  0  0  0  0  0
  2  1  1  1
  2  3  1  0
  2  4  1  0
  4  5  2  0
  4 26  1  0
  5  6  1  0
  6  7  2  0
  7  8  1  0
  7 25  1  0
  8  9  1  0
  9 10  1  0
 10 11  2  0
 10 12  1  0
 12 13  2  0
 12 14  1  0
 15 14  1  6
 15 16  1  0
 15 17  1  0
 17 16  1  1
 17 18  1  0
 18 19  2  0
 18 20  1  1
 20 21  1  1
 20 23  1  0
 21 22  1  0
 23 24  1  0
 25 26  2  0
M  CHG  1  25   1
M  END
