
     RDKit          3D

 26 27  0  0  0  0  0  0  0  0999 V2000
    5.5540   -0.3630    0.1710 C   0  0  0  0  0  0  0  0  0  0  0  0
    4.0560   -0.0070    0.1040 C   0  0  1  0  0  0  0  0  0  0  0  0
    3.8830    1.4370   -0.0940 C   0  0  0  0  0  0  0  0  0  0  0  0
    4.3830    2.0670   -1.2520 N   0  0  0  0  0  0  0  0  0  0  0  0
    3.2900    2.1320    0.7590 O   0  0  0  0  0  0  0  0  0  0  0  0
    3.5060   -0.8150   -1.0500 C   0  0  0  0  0  0  0  0  0  0  0  0
    2.0190   -0.7970   -1.1210 C   0  0  0  0  0  0  0  0  0  0  0  0
    1.3300   -0.2520    0.0820 C   0  0  1  0  0  0  0  0  0  0  0  0
    0.0640   -0.9470    0.2610 N   0  0  0  0  0  0  0  0  0  0  0  0
   -1.1870   -0.2880    0.1410 C   0  0  0  0  0  0  0  0  0  0  0  0
   -1.1710    0.9280   -0.1270 O   0  0  0  0  0  0  0  0  0  0  0  0
   -2.4370   -0.9500    0.3130 N   0  0  0  0  0  0  0  0  0  0  0  0
   -3.6910   -0.3220    0.2100 C   0  0  0  0  0  0  0  0  0  0  0  0
   -4.5060   -0.7150   -0.7460 C   0  0  0  0  0  0  0  0  0  0  0  0
   -4.1890   -1.7510   -1.6940 C   0  0  0  0  0  0  0  0  0  0  0  0
   -5.1260   -2.1120   -2.6890 N   0  0  0  0  0  0  0  0  0  0  0  0
   -3.0780   -2.3300   -1.6320 O   0  0  0  0  0  0  0  0  0  0  0  0
   -4.0500    0.7400    1.1630 C   0  0  0  0  0  0  0  0  0  0  0  0
   -3.2070    1.0960    2.1090 C   0  0  0  0  0  0  0  0  0  0  0  0
   -3.9820    2.3850    3.0430 S   0  0  0  0  0  0  0  0  0  0  0  0
   -3.1770    3.6600    2.8750 O   0  0  0  0  0  0  0  0  0  0  0  0
   -5.4690    2.4050    2.1010 C   0  0  0  0  0  0  0  0  0  0  0  0
   -6.4440    3.1330    2.2810 O   0  0  0  0  0  0  0  0  0  0  0  0
   -5.2700    1.4170    1.1270 N   0  0  0  0  0  0  0  0  0  0  0  0
    2.0860   -0.2700    1.3450 C   0  0  0  0  0  0  0  0  0  0  0  0
    3.4760   -0.5330    1.3030 N   0  0  0  0  0  0  0  0  0  0  0  0
  2  1  1  1
  2  3  1  0
  2  6  1  0
  2 26  1  0
  3  4  1  0
  3  5  2  0
  6  7  1  0
  7  8  1  0
  8  9  1  1
  8 25  1  0
  9 10  1  0
 10 11  2  0
 10 12  1  0
 12 13  1  0
 13 14  2  3
 13 18  1  0
 14 15  1  0
 15 16  1  0
 15 17  2  0
 18 19  2  0
 18 24  1  0
 20 19  1  6
 20 21  2  0
 20 22  1  0
 22 23  2  0
 22 24  1  0
 25 26  1  0
M  CHG  1  26   1
M  END
