
     RDKit          3D

 26 27  0  0  0  0  0  0  0  0999 V2000
    4.3120   -2.2880   -0.3300 N   0  0  0  0  0  0  0  0  0  0  0  0
    3.9080   -1.7710    0.8460 C   0  0  0  0  0  0  0  0  0  0  0  0
    3.9490   -2.3540    1.8800 O   0  0  0  0  0  0  0  0  0  0  0  0
    3.3910   -0.4190    0.7690 C   0  0  2  0  0  0  0  0  0  0  0  0
    2.1770   -0.3370    0.0820 N   0  0  0  0  0  0  0  0  0  0  0  0
    0.7550   -0.4390    1.0040 C   0  0  0  0  0  0  0  0  0  0  0  0
    1.0920   -0.5500    2.1200 O   0  0  0  0  0  0  0  0  0  0  0  0
   -0.0400   -0.2960   -0.1290 N   0  0  0  0  0  0  0  0  0  0  0  0
   -1.5500   -0.7220    0.7850 C   0  0  0  0  0  0  0  0  0  0  0  0
   -1.2730   -0.7600    1.8170 O   0  0  0  0  0  0  0  0  0  0  0  0
   -2.5460   -0.8070   -0.1560 N   0  0  0  0  0  0  0  0  0  0  0  0
   -3.5660   -1.8870    0.2180 C   0  0  0  0  0  0  0  0  0  0  0  0
   -4.8270   -1.2970    0.5260 C   0  0  0  0  0  0  0  0  0  0  0  0
   -4.8000    0.0040    1.0220 O   0  0  0  0  0  0  0  0  0  0  0  0
   -4.5670    0.9260    0.0280 C   0  0  2  0  0  0  0  0  0  0  0  0
   -5.6620    1.9640   -0.0160 C   0  0  0  0  0  0  0  0  0  0  0  0
   -6.9830    1.4190   -0.1760 N   0  0  0  0  0  0  0  0  0  0  0  0
   -4.2410    0.4410   -1.3200 C   0  0  0  0  0  0  0  0  0  0  0  0
   -2.7760   -0.0550   -1.3880 C   0  0  0  0  0  0  0  0  0  0  0  0
    4.1880    0.6040   -0.0210 C   0  0  2  0  0  0  0  0  0  0  0  0
    4.1600   -0.0220   -1.4410 N   0  0  0  0  0  0  0  0  0  0  0  0
    5.5440    0.8900    0.1410 C   0  0  0  0  0  0  0  0  0  0  0  0
    6.3250    1.8830    0.1130 C   0  0  0  0  0  0  0  0  0  0  0  0
    7.5490    1.8660    0.2390 O   0  0  0  0  0  0  0  0  0  0  0  0
    8.1880    0.6160    0.6550 C   0  0  0  0  0  0  0  0  0  0  0  0
    6.6780   -0.4400    0.8340 S   0  0  0  0  0  0  0  0  0  0  0  0
  1  2  1  0
  2  3  2  0
  2  4  1  0
  4  5  1  6
  4 20  1  0
  5  6  1  0
  6  7  2  0
  6  8  1  0
  8  9  1  0
  9 10  2  0
  9 11  1  0
 11 12  1  0
 11 19  1  0
 12 13  1  0
 13 14  1  0
 14 15  1  0
 15 16  1  6
 15 18  1  0
 16 17  1  0
 18 19  1  0
 20 21  1  6
 20 22  1  0
 22 23  2  0
 22 26  1  0
 23 24  1  0
 24 25  1  0
 25 26  1  0
M  CHG  1  17   1
M  END
