
     RDKit          3D

 14 14  0  0  0  0  0  0  0  0999 V2000
   -1.8280    2.4180    1.1720 C   0  0  0  0  0  0  0  0  0  0  0  0
   -1.1210    1.5540    0.4010 O   0  0  0  0  0  0  0  0  0  0  0  0
   -1.5750    0.2890    0.2360 C   0  0  1  0  0  0  0  0  0  0  0  0
   -1.9700    0.1490   -1.2300 C   0  0  0  0  0  0  0  0  0  0  0  0
   -2.5080   -1.5480   -1.5560 S   0  0  0  0  0  0  0  0  0  0  0  0
   -1.7680   -2.6920   -0.3460 C   0  0  0  0  0  0  0  0  0  0  0  0
   -1.3790   -1.9830    0.9090 C   0  0  0  0  0  0  0  0  0  0  0  0
   -0.6410   -0.7360    0.6620 N   0  0  0  0  0  0  0  0  0  0  0  0
    0.4170   -0.9960   -0.2860 C   0  0  0  0  0  0  0  0  0  0  0  0
    1.4090    0.0740   -0.4010 C   0  0  0  0  0  0  0  0  0  0  0  0
    1.0900    1.3600   -0.7780 O   0  0  0  0  0  0  0  0  0  0  0  0
    2.6940   -0.1750   -0.1370 C   0  0  0  0  0  0  0  0  0  0  0  0
    3.7490    0.8640   -0.2360 C   0  0  0  0  0  0  0  0  0  0  0  0
    4.4000    1.0650    0.9940 O   0  0  0  0  0  0  0  0  0  0  0  0
  1  2  1  0
  3  2  1  6
  3  4  1  0
  3  8  1  0
  4  5  1  0
  5  6  1  0
  6  7  1  0
  7  8  1  0
  8  9  1  0
  9 10  1  0
 10 11  1  0
 10 12  2  3
 12 13  1  0
 13 14  1  0
M  END
