
     RDKit          3D

 14 14  0  0  0  0  0  0  0  0999 V2000
    1.4000   -2.4500   -0.1020 C   0  0  0  0  0  0  0  0  0  0  0  0
    1.9710   -1.2660   -0.0040 C   0  0  0  0  0  0  0  0  0  0  0  0
    3.3110   -1.1860   -0.3640 O   0  0  0  0  0  0  0  0  0  0  0  0
    1.1950   -0.1330    0.4640 C   0  0  0  0  0  0  0  0  0  0  0  0
    1.7220    1.0570    0.5760 C   0  0  0  0  0  0  0  0  0  0  0  0
    3.1260    1.2940    0.2320 C   0  0  0  0  0  0  0  0  0  0  0  0
   -0.1660   -0.3240    0.8060 N   0  0  0  0  0  0  0  0  0  0  0  0
   -1.1840   -0.1900   -0.2010 C   0  0  2  0  0  0  0  0  0  0  0  0
   -1.1400    1.2020   -0.7660 C   0  0  0  0  0  0  0  0  0  0  0  0
   -2.4840    1.4540   -1.9640 S   0  0  0  0  0  0  0  0  0  0  0  0
   -3.8330    0.3400   -1.4520 C   0  0  0  0  0  0  0  0  0  0  0  0
   -3.6320    0.0040   -0.0190 C   0  0  0  0  0  0  0  0  0  0  0  0
   -4.5480    0.2270    0.8390 O   0  0  0  0  0  0  0  0  0  0  0  0
   -2.4140   -0.5550    0.3270 O   0  0  0  0  0  0  0  0  0  0  0  0
  1  2  2  0
  2  3  1  0
  2  4  1  0
  4  5  2  3
  4  7  1  0
  5  6  1  0
  8  7  1  1
  8  9  1  0
  8 14  1  0
  9 10  1  0
 10 11  1  0
 11 12  1  0
 12 13  2  0
 12 14  1  0
M  END
