
     RDKit          3D

 27 29  0  0  0  0  0  0  0  0999 V2000
   -3.0630    3.6470   -1.3580 C   0  0  0  0  0  0  0  0  0  0  0  0
   -2.8190    2.2640   -0.8020 C   0  0  0  0  0  0  0  0  0  0  0  0
   -1.6160    1.6750   -0.7990 C   0  0  0  0  0  0  0  0  0  0  0  0
   -1.4450    0.4160   -0.2830 C   0  0  0  0  0  0  0  0  0  0  0  0
   -0.1780   -0.1580   -0.2970 C   0  0  0  0  0  0  0  0  0  0  0  0
    0.0820   -1.3860    0.1890 C   0  0  0  0  0  0  0  0  0  0  0  0
    1.3910   -1.9770    0.1810 C   0  0  0  0  0  0  0  0  0  0  0  0
    1.4310   -3.1790    0.6780 O   0  0  0  0  0  0  0  0  0  0  0  0
    2.6320   -1.5050   -0.2610 N   0  0  0  0  0  0  0  0  0  0  0  0
    3.8180   -2.4010   -0.1250 C   0  0  0  0  0  0  0  0  0  0  0  0
    4.9420   -1.7540    0.6060 C   0  0  0  0  0  0  0  0  0  0  0  0
    5.1970   -0.4000    0.0930 N   0  0  0  0  0  0  0  0  0  0  0  0
    5.0110    0.5870    1.1040 C   0  0  0  0  0  0  0  0  0  0  0  0
    5.2830    1.9600    0.5510 C   0  0  0  0  0  0  0  0  0  0  0  0
    6.5910    2.0400    0.0670 O   0  0  0  0  0  0  0  0  0  0  0  0
    4.4560   -0.1930   -1.1210 C   0  0  0  0  0  0  0  0  0  0  0  0
    2.9440   -0.2310   -0.8470 C   0  0  0  0  0  0  0  0  0  0  0  0
   -1.0070   -2.0720    0.7210 C   0  0  0  0  0  0  0  0  0  0  0  0
   -2.3190   -1.5620    0.7730 C   0  0  0  0  0  0  0  0  0  0  0  0
   -3.3790   -2.3660    1.3750 C   0  0  0  0  0  0  0  0  0  0  0  0
   -2.5250   -0.3140    0.2650 C   0  0  0  0  0  0  0  0  0  0  0  0
   -3.7970    0.2780    0.2740 C   0  0  0  0  0  0  0  0  0  0  0  0
   -4.9230   -0.4580    0.7900 C   0  0  1  0  0  0  0  0  0  0  0  0
   -6.0690    0.5850    1.0010 C   0  0  0  0  0  0  0  0  0  0  0  0
   -5.5910   -1.1840   -0.2630 O   0  0  0  0  0  0  0  0  0  0  0  0
   -3.8780    1.5550   -0.2680 C   0  0  0  0  0  0  0  0  0  0  0  0
   -5.1290    2.1530   -0.2690 O   0  0  0  0  0  0  0  0  0  0  0  0
  1  2  1  0
  2  3  2  0
  2 26  1  0
  3  4  1  0
  4  5  2  0
  4 21  1  0
  5  6  1  0
  6  7  1  0
  6 18  2  0
  7  8  2  0
  7  9  1  0
  9 10  1  0
  9 17  1  0
 10 11  1  0
 11 12  1  0
 12 13  1  0
 12 16  1  0
 13 14  1  0
 14 15  1  0
 16 17  1  0
 18 19  1  0
 19 20  1  0
 19 21  2  0
 21 22  1  0
 22 23  1  0
 22 26  2  0
 23 24  1  6
 23 25  1  0
 26 27  1  0
M  END
