
     RDKit          3D

 14 14  0  0  0  0  0  0  0  0999 V2000
    4.3570    0.1270    0.2610 C   0  0  0  0  0  0  0  0  0  0  0  0
    3.9160   -1.2540   -0.2090 C   0  0  0  0  0  0  0  0  0  0  0  0
    2.5990   -1.4400    0.2570 O   0  0  0  0  0  0  0  0  0  0  0  0
    1.5480   -0.6120   -0.0980 C   0  0  0  0  0  0  0  0  0  0  0  0
    1.8120    0.3400   -0.8710 O   0  0  0  0  0  0  0  0  0  0  0  0
    0.1820   -0.8560    0.4230 C   0  0  0  0  0  0  0  0  0  0  0  0
   -0.7100    0.1050   -0.0350 N   0  0  0  0  0  0  0  0  0  0  0  0
   -0.5850    1.4220    0.4230 C   0  0  0  0  0  0  0  0  0  0  0  0
   -1.7050    2.3440    0.1410 C   0  0  0  0  0  0  0  0  0  0  0  0
   -2.2500    2.0070   -1.1120 O   0  0  0  0  0  0  0  0  0  0  0  0
   -2.8940    0.7830   -0.8950 C   0  0  0  0  0  0  0  0  0  0  0  0
   -1.9300   -0.3220   -0.5930 C   0  0  2  0  0  0  0  0  0  0  0  0
   -2.6300   -1.2500    0.3940 C   0  0  0  0  0  0  0  0  0  0  0  0
   -1.5160   -1.2690   -2.1120 S   0  0  0  0  0  0  0  0  0  0  0  0
  1  2  1  0
  2  3  1  0
  3  4  1  0
  4  5  2  0
  4  6  1  0
  6  7  1  0
  7  8  1  0
  7 12  1  0
  8  9  1  0
  9 10  1  0
 10 11  1  0
 11 12  1  0
 12 13  1  1
 12 14  1  0
M  END
