
     RDKit          3D

 14 14  0  0  0  0  0  0  0  0999 V2000
    5.9200    0.3740    0.1630 C   0  0  0  0  0  0  0  0  0  0  0  0
    4.7730    0.2060   -0.6300 O   0  0  0  0  0  0  0  0  0  0  0  0
    3.5120    0.5740   -0.1980 C   0  0  0  0  0  0  0  0  0  0  0  0
    3.3250    1.0610    0.9300 O   0  0  0  0  0  0  0  0  0  0  0  0
    2.3880    0.3420   -1.1920 C   0  0  0  0  0  0  0  0  0  0  0  0
    0.8050    0.8080   -0.5110 S   0  0  0  0  0  0  0  0  0  0  0  0
   -0.3360   -0.5670   -0.5060 C   0  0  1  0  0  0  0  0  0  0  0  0
    0.1480   -1.7400    0.3440 C   0  0  0  0  0  0  0  0  0  0  0  0
   -1.7200   -0.2190    0.0080 C   0  0  1  0  0  0  0  0  0  0  0  0
   -1.7190    0.2370    1.3530 N   0  0  0  0  0  0  0  0  0  0  0  0
   -2.9670    0.9710    1.4570 C   0  0  0  0  0  0  0  0  0  0  0  0
   -3.5370    0.9220    0.0340 C   0  0  2  0  0  0  0  0  0  0  0  0
   -4.4110   -0.2850   -0.1320 C   0  0  0  0  0  0  0  0  0  0  0  0
   -2.3300    0.8150   -0.6970 O   0  0  0  0  0  0  0  0  0  0  0  0
  1  2  1  0
  2  3  1  0
  3  4  2  0
  3  5  1  0
  5  6  1  0
  6  7  1  0
  7  8  1  1
  7  9  1  0
  9 10  1  1
  9 14  1  0
 10 11  1  0
 11 12  1  0
 12 13  1  1
 12 14  1  0
M  END
