
     RDKit          3D

 19 20  0  0  0  0  0  0  0  0999 V2000
    4.4630   -0.1780    0.3240 C   0  0  0  0  0  0  0  0  0  0  0  0
    3.1160    0.0680   -0.2970 C   0  0  0  0  0  0  0  0  0  0  0  0
    2.1350   -0.0650    0.7270 O   0  0  0  0  0  0  0  0  0  0  0  0
    0.7820    0.0980    0.4380 C   0  0  0  0  0  0  0  0  0  0  0  0
    0.2110    1.3360    0.5460 C   0  0  0  0  0  0  0  0  0  0  0  0
    1.0010    2.5390    0.9790 C   0  0  0  0  0  0  0  0  0  0  0  0
   -1.1380    1.4730    0.2510 C   0  0  0  0  0  0  0  0  0  0  0  0
   -1.7660    2.8190    0.3670 C   0  0  0  0  0  0  0  0  0  0  0  0
   -1.9460    0.4240   -0.1490 C   0  0  0  0  0  0  0  0  0  0  0  0
   -3.3310    0.6320   -0.4490 N   0  0  0  0  0  0  0  0  0  0  0  0
   -3.5780    1.2230   -1.5220 O   0  0  0  0  0  0  0  0  0  0  0  0
   -4.3560    0.2350    0.3530 O   0  0  0  0  0  0  0  0  0  0  0  0
   -1.3450   -0.8140   -0.2490 C   0  0  0  0  0  0  0  0  0  0  0  0
   -0.0110   -0.9650    0.0400 C   0  0  0  0  0  0  0  0  0  0  0  0
    0.6010   -2.2170   -0.0590 O   0  0  0  0  0  0  0  0  0  0  0  0
   -0.1400   -3.3070   -0.4480 C   0  0  0  0  0  0  0  0  0  0  0  0
    0.4500   -4.4040   -0.7440 O   0  0  0  0  0  0  0  0  0  0  0  0
   -1.6010   -3.2800   -0.5450 C   0  0  0  0  0  0  0  0  0  0  0  0
   -2.2110   -1.9370   -0.6860 C   0  0  0  0  0  0  0  0  0  0  0  0
  1  2  1  0
  2  3  1  0
  3  4  1  0
  4  5  2  0
  4 14  1  0
  5  6  1  0
  5  7  1  0
  7  8  1  0
  7  9  2  0
  9 10  1  0
  9 13  1  0
 10 11  2  0
 10 12  1  0
 13 14  2  0
 13 19  1  0
 14 15  1  0
 15 16  1  0
 16 17  2  0
 16 18  1  0
 18 19  1  0
M  CHG  2  10   1  12  -1
M  END
