
     RDKit          3D

 20 21  0  0  0  0  0  0  0  0999 V2000
   -0.9510    2.1940   -1.4720 O   0  0  0  0  0  0  0  0  0  0  0  0
   -0.7490    1.1010   -0.8050 C   0  0  0  0  0  0  0  0  0  0  0  0
    0.6070    0.7280   -0.4670 C   0  0  0  0  0  0  0  0  0  0  0  0
    1.5810    1.7210   -0.4660 C   0  0  0  0  0  0  0  0  0  0  0  0
    2.8860    1.4430   -0.1410 C   0  0  0  0  0  0  0  0  0  0  0  0
    3.8470    2.4400   -0.1420 O   0  0  0  0  0  0  0  0  0  0  0  0
    3.2500    0.1220    0.1980 C   0  0  0  0  0  0  0  0  0  0  0  0
    4.5700   -0.1120    0.5140 O   0  0  0  0  0  0  0  0  0  0  0  0
    2.3170   -0.8850    0.2070 C   0  0  0  0  0  0  0  0  0  0  0  0
    2.6030   -2.2430    0.5290 N   0  0  0  0  0  0  0  0  0  0  0  0
    1.9320   -3.1840    0.0380 O   0  0  0  0  0  0  0  0  0  0  0  0
    3.6170   -2.5600    1.3820 O   0  0  0  0  0  0  0  0  0  0  0  0
    0.9990   -0.5310   -0.1350 C   0  0  0  0  0  0  0  0  0  0  0  0
   -1.9570    0.3810   -0.4760 C   0  0  0  0  0  0  0  0  0  0  0  0
   -2.8060    0.9600    0.4600 C   0  0  0  0  0  0  0  0  0  0  0  0
   -3.9680    0.3340    0.8550 C   0  0  0  0  0  0  0  0  0  0  0  0
   -4.3270   -0.9010    0.3260 C   0  0  0  0  0  0  0  0  0  0  0  0
   -3.4920   -1.4810   -0.6020 C   0  0  0  0  0  0  0  0  0  0  0  0
   -2.3260   -0.8270   -0.9830 C   0  0  0  0  0  0  0  0  0  0  0  0
   -1.5480   -1.4160   -1.9210 F   0  0  0  0  0  0  0  0  0  0  0  0
  1  2  2  0
  2  3  1  0
  2 14  1  0
  3  4  2  0
  3 13  1  0
  4  5  1  0
  5  6  1  0
  5  7  2  0
  7  8  1  0
  7  9  1  0
  9 10  1  0
  9 13  2  0
 10 11  2  0
 10 12  1  0
 14 15  2  0
 14 19  1  0
 15 16  1  0
 16 17  2  0
 17 18  1  0
 18 19  2  0
 19 20  1  0
M  CHG  2  10   1  12  -1
M  END
