
     RDKit          3D

 20 21  0  0  0  0  0  0  0  0999 V2000
    0.6770   -0.6490    1.4100 O   0  0  0  0  0  0  0  0  0  0  0  0
    1.2510   -0.8630    0.3160 C   0  0  0  0  0  0  0  0  0  0  0  0
    0.5660   -1.5470   -0.6650 O   0  0  0  0  0  0  0  0  0  0  0  0
   -0.7830   -1.9700   -0.3640 C   0  0  0  0  0  0  0  0  0  0  0  0
   -1.6500   -1.0500   -0.0960 O   0  0  0  0  0  0  0  0  0  0  0  0
   -2.5100   -0.1370    0.1700 C   0  0  0  0  0  0  0  0  0  0  0  0
   -2.4550    0.7950    1.2240 C   0  0  0  0  0  0  0  0  0  0  0  0
   -3.4190    1.7410    1.4370 C   0  0  0  0  0  0  0  0  0  0  0  0
   -4.5030    1.8090    0.6020 C   0  0  0  0  0  0  0  0  0  0  0  0
   -5.4410    2.7550    0.8380 F   0  0  0  0  0  0  0  0  0  0  0  0
   -4.6200    0.9340   -0.4430 C   0  0  0  0  0  0  0  0  0  0  0  0
   -3.6530   -0.0070   -0.6480 C   0  0  0  0  0  0  0  0  0  0  0  0
   -3.8030   -0.8760   -1.7130 O   0  0  0  0  0  0  0  0  0  0  0  0
    2.6320   -0.3840    0.1070 C   0  0  0  0  0  0  0  0  0  0  0  0
    3.2800   -0.6020   -1.0710 C   0  0  0  0  0  0  0  0  0  0  0  0
    4.5840   -0.1080   -1.1700 C   0  0  0  0  0  0  0  0  0  0  0  0
    5.1870    0.5530   -0.1620 N   0  0  0  0  0  0  0  0  0  0  0  0
    6.4910    0.9930   -0.3900 O   0  0  0  0  0  0  0  0  0  0  0  0
    4.5550    0.7730    1.0060 C   0  0  0  0  0  0  0  0  0  0  0  0
    3.2680    0.2870    1.1060 C   0  0  0  0  0  0  0  0  0  0  0  0
  1  2  2  0
  2  3  1  0
  2 14  1  0
  3  4  1  0
  4  5  1  0
  5  6  1  0
  6  7  2  0
  6 12  1  0
  7  8  1  0
  8  9  2  0
  9 10  1  0
  9 11  1  0
 11 12  2  0
 12 13  1  0
 14 15  2  0
 14 20  1  0
 15 16  1  0
 16 17  2  0
 17 18  1  0
 17 19  1  0
 19 20  2  0
M  CHG  2  17   1  18  -1
M  END
