
     RDKit          3D

 20 21  0  0  0  0  0  0  0  0999 V2000
    1.3050    3.1370    2.2620 C   0  0  0  0  0  0  0  0  0  0  0  0
    0.8980    2.0370    1.3140 C   0  0  0  0  0  0  0  0  0  0  0  0
   -0.3320    1.7000    0.8710 C   0  0  0  0  0  0  0  0  0  0  0  0
   -0.1530    0.5920   -0.0040 C   0  0  0  0  0  0  0  0  0  0  0  0
   -1.3020   -0.0390   -0.6140 C   0  0  0  0  0  0  0  0  0  0  0  0
   -1.2930   -0.7220   -1.6930 C   0  0  0  0  0  0  0  0  0  0  0  0
   -2.5290   -1.3000   -2.1790 N   0  0  0  0  0  0  0  0  0  0  0  0
   -2.8230   -2.4960   -2.0100 O   0  0  0  0  0  0  0  0  0  0  0  0
   -3.4240   -0.5100   -2.8550 O   0  0  0  0  0  0  0  0  0  0  0  0
   -2.6400    0.0960    0.0900 C   0  0  0  0  0  0  0  0  0  0  0  0
   -2.6360   -0.6170    1.4090 C   0  0  0  0  0  0  0  0  0  0  0  0
   -1.7060   -0.1880    2.3110 O   0  0  0  0  0  0  0  0  0  0  0  0
    1.1790    0.3370   -0.0230 C   0  0  0  0  0  0  0  0  0  0  0  0
    1.9030   -0.7000   -0.7420 C   0  0  0  0  0  0  0  0  0  0  0  0
    1.5610   -1.7240   -1.4420 O   0  0  0  0  0  0  0  0  0  0  0  0
    2.5640   -2.4050   -1.9200 C   0  0  0  0  0  0  0  0  0  0  0  0
    3.7290   -1.7920   -1.5100 C   0  0  0  0  0  0  0  0  0  0  0  0
    3.3020   -0.7150   -0.7650 C   0  0  0  0  0  0  0  0  0  0  0  0
    4.1530    0.1710   -0.1660 F   0  0  0  0  0  0  0  0  0  0  0  0
    1.7450    1.2380    0.7840 O   0  0  0  0  0  0  0  0  0  0  0  0
  1  2  1  0
  2  3  2  0
  2 20  1  0
  3  4  1  0
  4  5  1  0
  4 13  2  0
  5  6  2  3
  5 10  1  0
  6  7  1  0
  7  8  2  0
  7  9  1  0
 10 11  1  0
 11 12  1  0
 13 14  1  0
 13 20  1  0
 14 15  1  0
 14 18  2  0
 15 16  1  0
 16 17  2  0
 17 18  1  0
 18 19  1  0
M  CHG  2   7   1   9  -1
M  END
