
     RDKit          3D

 20 21  0  0  0  0  0  0  0  0999 V2000
   -5.6500    0.2280   -1.4350 C   0  0  0  0  0  0  0  0  0  0  0  0
   -4.6130   -0.0650   -0.7290 O   0  0  0  0  0  0  0  0  0  0  0  0
   -3.5370   -0.3480   -0.0660 C   0  0  0  0  0  0  0  0  0  0  0  0
   -2.2920   -0.2500   -0.7190 C   0  0  0  0  0  0  0  0  0  0  0  0
   -1.1000   -0.5260   -0.1140 C   0  0  0  0  0  0  0  0  0  0  0  0
    0.1810   -0.4230   -0.8040 C   0  0  0  0  0  0  0  0  0  0  0  0
    1.2830    0.0280   -0.2290 C   0  0  0  0  0  0  0  0  0  0  0  0
    1.3570    0.4630    1.1160 O   0  0  0  0  0  0  0  0  0  0  0  0
    2.2840    1.5330    1.1770 C   0  0  0  0  0  0  0  0  0  0  0  0
    3.3060    1.1130    0.1440 C   0  0  0  0  0  0  0  0  0  0  0  0
    2.6170    0.1860   -0.7850 C   0  0  0  0  0  0  0  0  0  0  0  0
    3.0680   -0.3700   -1.8480 N   0  0  0  0  0  0  0  0  0  0  0  0
    2.3100   -1.2260   -2.6300 O   0  0  0  0  0  0  0  0  0  0  0  0
    4.3400   -0.1740   -2.3240 O   0  0  0  0  0  0  0  0  0  0  0  0
    5.4990    0.0240   -1.5980 C   0  0  0  0  0  0  0  0  0  0  0  0
   -1.1230   -0.9200    1.2040 C   0  0  0  0  0  0  0  0  0  0  0  0
   -2.3120   -1.0390    1.9110 C   0  0  0  0  0  0  0  0  0  0  0  0
   -2.3250   -1.4350    3.2250 F   0  0  0  0  0  0  0  0  0  0  0  0
   -3.4780   -0.7530    1.2660 C   0  0  0  0  0  0  0  0  0  0  0  0
   -4.6690   -0.8700    1.9640 O   0  0  0  0  0  0  0  0  0  0  0  0
  1  2  1  0
  2  3  1  0
  3  4  2  0
  3 19  1  0
  4  5  1  0
  5  6  1  0
  5 16  2  0
  6  7  2  3
  7  8  1  0
  7 11  1  0
  8  9  1  0
  9 10  1  0
 10 11  1  0
 11 12  2  3
 12 13  1  0
 12 14  1  0
 14 15  1  0
 16 17  1  0
 17 18  1  0
 17 19  2  0
 19 20  1  0
M  CHG  2  12   1  13  -1
M  END
