
     RDKit          3D

 12 12  0  0  0  0  0  0  0  0999 V2000
    1.9430   -1.0650    0.8820 O   0  0  0  0  0  0  0  0  0  0  0  0
    2.0950   -0.1260    0.0610 C   0  0  0  0  0  0  0  0  0  0  0  0
    0.9280    0.3500   -0.6920 C   0  0  0  0  0  0  0  0  0  0  0  0
   -0.3360   -0.3750   -0.3700 C   0  0  2  0  0  0  0  0  0  0  0  0
   -0.2460   -1.7360   -0.6400 O   0  0  0  0  0  0  0  0  0  0  0  0
   -1.4380    0.2330   -1.2420 C   0  0  0  0  0  0  0  0  0  0  0  0
   -2.3740    0.8350   -0.2040 C   0  0  0  0  0  0  0  0  0  0  0  0
   -2.2290   -0.0750    0.8440 O   0  0  0  0  0  0  0  0  0  0  0  0
   -0.8450   -0.1280    1.0090 C   0  0  1  0  0  0  0  0  0  0  0  0
   -0.5880   -1.1870    1.8810 O   0  0  0  0  0  0  0  0  0  0  0  0
    3.3690    0.3980   -0.0740 O   0  0  0  0  0  0  0  0  0  0  0  0
    4.4060   -0.0860    0.6520 O   0  0  0  0  0  0  0  0  0  0  0  0
  1  2  2  0
  2  3  1  0
  2 11  1  0
  3  4  1  0
  4  5  1  6
  4  6  1  0
  4  9  1  0
  6  7  1  0
  7  8  1  0
  8  9  1  0
  9 10  1  1
 11 12  1  0
M  END
