
     RDKit          3D

 11 11  0  0  0  0  0  0  0  0999 V2000
    3.3870   -0.2090    0.4150 C   0  0  0  0  0  0  0  0  0  0  0  0
    2.3210   -0.2470   -0.4970 O   0  0  0  0  0  0  0  0  0  0  0  0
    1.2050    0.2470    0.1470 C   0  0  2  0  0  0  0  0  0  0  0  0
    0.1250   -0.8100    0.2330 C   0  0  0  0  0  0  0  0  0  0  0  0
   -1.1090    0.0670    0.2110 C   0  0  2  0  0  0  0  0  0  0  0  0
   -1.2960    0.6360    1.4460 O   0  0  0  0  0  0  0  0  0  0  0  0
   -2.3130   -0.6330   -0.3410 C   0  0  0  0  0  0  0  0  0  0  0  0
   -3.3330    0.3180   -0.4500 O   0  0  0  0  0  0  0  0  0  0  0  0
   -0.6310    1.1370   -0.7740 C   0  0  2  0  0  0  0  0  0  0  0  0
   -0.8170    0.6430   -2.0850 O   0  0  0  0  0  0  0  0  0  0  0  0
    0.7060    1.3110   -0.5480 O   0  0  0  0  0  0  0  0  0  0  0  0
  1  2  1  0
  3  2  1  6
  3  4  1  0
  3 11  1  0
  4  5  1  0
  5  6  1  1
  5  7  1  0
  5  9  1  0
  7  8  1  0
  9 10  1  6
  9 11  1  0
M  END
