
     RDKit          3D

 11 11  0  0  0  0  0  0  0  0999 V2000
    3.8730    0.9210   -0.5790 O   0  0  0  0  0  0  0  0  0  0  0  0
    2.8620    0.3310    0.1630 C   0  0  0  0  0  0  0  0  0  0  0  0
    1.7460    0.2150   -0.6560 O   0  0  0  0  0  0  0  0  0  0  0  0
    0.6710   -0.3720    0.0110 C   0  0  1  0  0  0  0  0  0  0  0  0
   -0.5120    0.5880   -0.0080 C   0  0  0  0  0  0  0  0  0  0  0  0
   -1.5700   -0.2460   -0.6770 C   0  0  2  0  0  0  0  0  0  0  0  0
   -2.9580    0.0320   -0.1520 C   0  0  0  0  0  0  0  0  0  0  0  0
   -3.3850    1.3090   -0.4460 O   0  0  0  0  0  0  0  0  0  0  0  0
   -1.2240   -1.5550   -0.3340 O   0  0  0  0  0  0  0  0  0  0  0  0
    0.1330   -1.5680   -0.7070 C   0  0  1  0  0  0  0  0  0  0  0  0
    0.1670   -1.2960   -2.0770 O   0  0  0  0  0  0  0  0  0  0  0  0
  1  2  1  0
  2  3  1  0
  4  3  1  6
  4  5  1  0
  4 10  1  0
  5  6  1  0
  6  7  1  1
  6  9  1  0
  7  8  1  0
  9 10  1  0
 10 11  1  6
M  END
