
     RDKit          3D

 11 11  0  0  0  0  0  0  0  0999 V2000
    2.9820    0.4290    0.9730 O   0  0  0  0  0  0  0  0  0  0  0  0
    2.4960   -0.7290    0.3450 C   0  0  0  0  0  0  0  0  0  0  0  0
    1.5670   -0.2880   -0.7610 C   0  0  2  0  0  0  0  0  0  0  0  0
    2.2670    0.5110   -1.6850 O   0  0  0  0  0  0  0  0  0  0  0  0
    0.4610    0.3780   -0.2780 O   0  0  0  0  0  0  0  0  0  0  0  0
   -0.7430   -0.2200   -0.6400 C   0  0  2  0  0  0  0  0  0  0  0  0
   -1.6490    0.8330   -1.2970 C   0  0  0  0  0  0  0  0  0  0  0  0
   -1.7600    1.7290   -0.2210 O   0  0  0  0  0  0  0  0  0  0  0  0
   -2.0610    0.9620    0.8780 C   0  0  0  0  0  0  0  0  0  0  0  0
   -1.6050   -0.4470    0.6080 C   0  0  2  0  0  0  0  0  0  0  0  0
   -0.9120   -1.0250    1.6310 O   0  0  0  0  0  0  0  0  0  0  0  0
  1  2  1  0
  2  3  1  0
  3  4  1  6
  3  5  1  0
  6  5  1  1
  6  7  1  0
  6 10  1  0
  7  8  1  0
  8  9  1  0
  9 10  1  0
 10 11  1  1
M  END
