
     RDKit          3D

 11 11  0  0  0  0  0  0  0  0999 V2000
    2.2700   -1.1080   -0.8620 O   0  0  0  0  0  0  0  0  0  0  0  0
    2.1580    0.2580   -1.0960 C   0  0  0  0  0  0  0  0  0  0  0  0
    1.2800    0.9080   -0.0620 C   0  0  1  0  0  0  0  0  0  0  0  0
    1.2230    2.2950   -0.3620 O   0  0  0  0  0  0  0  0  0  0  0  0
   -0.1270    0.4380   -0.0340 C   0  0  2  0  0  0  0  0  0  0  0  0
   -0.7770    1.1950    0.9750 O   0  0  0  0  0  0  0  0  0  0  0  0
   -0.3190   -0.9970    0.4180 C   0  0  0  0  0  0  0  0  0  0  0  0
   -1.8320   -1.0780    0.1280 C   0  0  1  0  0  0  0  0  0  0  0  0
   -2.4940   -0.2580    1.0170 O   0  0  0  0  0  0  0  0  0  0  0  0
   -1.8300   -0.3890   -1.2220 C   0  0  0  0  0  0  0  0  0  0  0  0
   -0.8140    0.5310   -1.2310 O   0  0  0  0  0  0  0  0  0  0  0  0
  1  2  1  0
  2  3  1  0
  3  4  1  6
  3  5  1  0
  5  6  1  1
  5  7  1  0
  5 11  1  0
  7  8  1  0
  8  9  1  1
  8 10  1  0
 10 11  1  0
M  END
