
     RDKit          3D

 11 11  0  0  0  0  0  0  0  0999 V2000
    2.0730   -1.0980   -1.0780 O   0  0  0  0  0  0  0  0  0  0  0  0
    2.1130    0.2380   -0.6980 C   0  0  2  0  0  0  0  0  0  0  0  0
    2.7720    0.4390    0.4940 O   0  0  0  0  0  0  0  0  0  0  0  0
    0.7370    0.8460   -0.7060 C   0  0  0  0  0  0  0  0  0  0  0  0
   -0.1670    0.1030    0.2600 C   0  0  2  0  0  0  0  0  0  0  0  0
    0.3320    0.1650    1.5400 O   0  0  0  0  0  0  0  0  0  0  0  0
   -0.4640   -1.3040   -0.2130 C   0  0  0  0  0  0  0  0  0  0  0  0
   -1.9590   -1.3790   -0.0460 C   0  0  0  0  0  0  0  0  0  0  0  0
   -2.2920   -0.3470    0.8310 O   0  0  0  0  0  0  0  0  0  0  0  0
   -1.5620    0.7050    0.2520 C   0  0  1  0  0  0  0  0  0  0  0  0
   -1.6510    1.8750    0.9430 O   0  0  0  0  0  0  0  0  0  0  0  0
  2  1  1  1
  2  3  1  0
  2  4  1  0
  4  5  1  0
  5  6  1  1
  5  7  1  0
  5 10  1  0
  7  8  1  0
  8  9  1  0
  9 10  1  0
 10 11  1  1
M  END
