
     RDKit          3D

 18 19  0  0  0  0  0  0  0  0999 V2000
    6.9620   -0.7680   -1.5460 F   0  0  0  0  0  0  0  0  0  0  0  0
    5.6190   -0.7640   -1.8350 C   0  0  0  0  0  0  0  0  0  0  0  0
    4.8610    0.1180   -0.8630 C   0  0  0  0  0  0  0  0  0  0  0  0
    5.0100   -0.3380    0.5470 C   0  0  0  0  0  0  0  0  0  0  0  0
    4.2410    0.5390    1.4660 C   0  0  0  0  0  0  0  0  0  0  0  0
    2.7840    0.5300    1.2630 C   0  0  0  0  0  0  0  0  0  0  0  0
    1.9390   -0.2090    0.4910 C   0  0  0  0  0  0  0  0  0  0  0  0
    0.6490    0.2330    0.6800 C   0  0  0  0  0  0  0  0  0  0  0  0
   -0.6110   -0.2390    0.0770 C   0  0  0  0  0  0  0  0  0  0  0  0
   -1.7110    0.4770    0.5330 O   0  0  0  0  0  0  0  0  0  0  0  0
   -2.8540   -0.0110   -0.0660 C   0  0  1  0  0  0  0  0  0  0  0  0
   -3.8860   -0.4550    0.9660 C   0  0  0  0  0  0  0  0  0  0  0  0
   -5.1670    0.3140    0.8070 C   0  0  0  0  0  0  0  0  0  0  0  0
   -5.7240    0.1280   -0.5850 C   0  0  0  0  0  0  0  0  0  0  0  0
   -4.6640    0.3880   -1.6430 C   0  0  0  0  0  0  0  0  0  0  0  0
   -3.5020    1.0660   -0.9460 C   0  0  0  0  0  0  0  0  0  0  0  0
    0.7460    1.2280    1.5620 N   0  0  0  0  0  0  0  0  0  0  0  0
    1.9820    1.4220    1.9190 N   0  0  0  0  0  0  0  0  0  0  0  0
  1  2  1  0
  2  3  1  0
  3  4  1  0
  4  5  1  0
  5  6  1  0
  6  7  2  0
  6 18  1  0
  7  8  1  0
  8  9  1  0
  8 17  2  0
  9 10  1  0
 11 10  1  1
 11 12  1  0
 11 16  1  0
 12 13  1  0
 13 14  1  0
 14 15  1  0
 15 16  1  0
 17 18  1  0
M  END
