
     RDKit          3D

 18 19  0  0  0  0  0  0  0  0999 V2000
    6.4150    0.6800   -0.1380 C   0  0  0  0  0  0  0  0  0  0  0  0
    5.0070    0.2340   -0.4710 C   0  0  0  0  0  0  0  0  0  0  0  0
    4.1390    0.4490    0.6640 N   0  0  0  0  0  0  0  0  0  0  0  0
    2.7620    0.1040    0.5890 C   0  0  0  0  0  0  0  0  0  0  0  0
    1.9420    0.3130    1.6780 C   0  0  0  0  0  0  0  0  0  0  0  0
    0.6140   -0.0350    1.5660 C   0  0  0  0  0  0  0  0  0  0  0  0
    0.1590   -0.5730    0.3810 C   0  0  0  0  0  0  0  0  0  0  0  0
   -1.1600   -0.9150    0.2760 O   0  0  0  0  0  0  0  0  0  0  0  0
   -1.7600   -1.4710   -0.8670 C   0  0  0  0  0  0  0  0  0  0  0  0
   -3.2310   -1.7130   -0.5990 C   0  0  0  0  0  0  0  0  0  0  0  0
   -3.8820   -0.4160   -0.2710 C   0  0  0  0  0  0  0  0  0  0  0  0
   -4.5020   -0.1340    0.8560 C   0  0  0  0  0  0  0  0  0  0  0  0
   -4.9980    1.2510    0.7630 C   0  0  0  0  0  0  0  0  0  0  0  0
   -4.5780    1.7120   -0.5610 C   0  0  0  0  0  0  0  0  0  0  0  0
   -4.8500    2.9590   -1.0320 F   0  0  0  0  0  0  0  0  0  0  0  0
   -3.9290    0.7350   -1.1570 C   0  0  0  0  0  0  0  0  0  0  0  0
    1.0030   -0.7740   -0.7020 C   0  0  0  0  0  0  0  0  0  0  0  0
    2.2740   -0.4280   -0.5580 N   0  0  0  0  0  0  0  0  0  0  0  0
  1  2  1  0
  2  3  1  0
  3  4  1  0
  4  5  2  0
  4 18  1  0
  5  6  1  0
  6  7  2  0
  7  8  1  0
  7 17  1  0
  8  9  1  0
  9 10  1  0
 10 11  1  0
 11 12  2  0
 11 16  1  0
 12 13  1  0
 13 14  1  0
 14 15  1  0
 14 16  2  0
 17 18  2  0
M  END
