
     RDKit          3D

 18 18  0  0  0  0  0  0  0  0999 V2000
    0.0240    2.7130   -1.2300 C   0  0  0  0  0  0  0  0  0  0  0  0
    0.0120    1.2060   -1.5400 C   0  0  0  0  0  0  0  0  0  0  0  0
    0.0910    0.4010   -0.3780 N   0  0  0  0  0  0  0  0  0  0  0  0
    1.5110    0.0900   -0.0230 C   0  0  0  0  0  0  0  0  0  0  0  0
    1.9990   -1.1370   -0.6680 C   0  0  0  0  0  0  0  0  0  0  0  0
    3.4360   -1.3620   -0.2480 C   0  0  2  0  0  0  0  0  0  0  0  0
    3.5820   -1.5160    1.2360 C   0  0  0  0  0  0  0  0  0  0  0  0
    4.3380   -0.2470   -0.7250 C   0  0  0  0  0  0  0  0  0  0  0  0
   -0.9160   -0.1060    0.4310 C   0  0  0  0  0  0  0  0  0  0  0  0
   -0.4970   -0.8910    1.4100 O   0  0  0  0  0  0  0  0  0  0  0  0
   -2.3400    0.0540    0.4170 C   0  0  0  0  0  0  0  0  0  0  0  0
   -2.9280    0.8330   -0.4520 C   0  0  0  0  0  0  0  0  0  0  0  0
   -4.3640    1.0440   -0.5300 C   0  0  0  0  0  0  0  0  0  0  0  0
   -5.1500    0.4210    0.3200 C   0  0  0  0  0  0  0  0  0  0  0  0
   -4.6160   -0.4370    1.2900 N   0  0  0  0  0  0  0  0  0  0  0  0
   -3.1940   -0.6640    1.3890 C   0  0  0  0  0  0  0  0  0  0  0  0
   -2.7500   -1.4860    2.3100 C   0  0  0  0  0  0  0  0  0  0  0  0
   -3.7040   -2.0660    3.1310 F   0  0  0  0  0  0  0  0  0  0  0  0
  1  2  1  0
  2  3  1  0
  3  4  1  0
  3  9  1  0
  4  5  1  0
  5  6  1  0
  6  7  1  1
  6  8  1  0
  9 10  2  0
  9 11  1  0
 11 12  2  0
 11 16  1  0
 12 13  1  0
 13 14  2  0
 14 15  1  0
 15 16  1  0
 16 17  2  3
 17 18  1  0
M  END
