
     RDKit          3D

 18 18  0  0  0  0  0  0  0  0999 V2000
   -3.3520    2.4640   -0.0500 C   0  0  0  0  0  0  0  0  0  0  0  0
   -3.0110    1.0020    0.0090 C   0  0  0  0  0  0  0  0  0  0  0  0
   -1.7370    0.6760    0.2530 C   0  0  0  0  0  0  0  0  0  0  0  0
   -0.8800    1.8620    0.4230 C   0  0  0  0  0  0  0  0  0  0  0  0
   -1.1530   -0.6270    0.3650 N   0  0  0  0  0  0  0  0  0  0  0  0
    0.1950   -0.6510    0.8270 C   0  0  0  0  0  0  0  0  0  0  0  0
    1.1940   -0.1100   -0.1250 C   0  0  0  0  0  0  0  0  0  0  0  0
    0.9720    0.3400   -1.2530 O   0  0  0  0  0  0  0  0  0  0  0  0
    2.5600   -0.1160    0.3210 N   0  0  0  0  0  0  0  0  0  0  0  0
    3.6030    0.4030   -0.5680 C   0  0  1  0  0  0  0  0  0  0  0  0
    4.2350    1.5850    0.1360 C   0  0  0  0  0  0  0  0  0  0  0  0
    4.6840   -0.6290   -0.7940 C   0  0  0  0  0  0  0  0  0  0  0  0
   -1.7820   -1.8660    0.0600 C   0  0  0  0  0  0  0  0  0  0  0  0
   -0.8540   -3.0250    0.0630 C   0  0  0  0  0  0  0  0  0  0  0  0
   -3.0690   -2.1290   -0.2270 C   0  0  0  0  0  0  0  0  0  0  0  0
   -3.3300   -3.4240   -0.4690 F   0  0  0  0  0  0  0  0  0  0  0  0
   -4.1990   -1.2140   -0.3110 C   0  0  0  0  0  0  0  0  0  0  0  0
   -4.1400    0.0870   -0.2090 C   0  0  0  0  0  0  0  0  0  0  0  0
  1  2  1  0
  2  3  2  0
  2 18  1  0
  3  4  1  0
  3  5  1  0
  5  6  1  0
  5 13  1  0
  6  7  1  0
  7  8  2  0
  7  9  1  0
  9 10  1  0
 10 11  1  1
 10 12  1  0
 13 14  1  0
 13 15  2  0
 15 16  1  0
 15 17  1  0
 17 18  2  0
M  END
