
     RDKit          3D

 17 17  0  0  0  0  0  0  0  0999 V2000
    6.7340    0.7300   -0.4100 C   0  0  0  0  0  0  0  0  0  0  0  0
    5.4790    0.0210   -0.7750 C   0  0  0  0  0  0  0  0  0  0  0  0
    4.5170   -0.0880    0.1380 C   0  0  0  0  0  0  0  0  0  0  0  0
    3.2310   -0.7920   -0.1760 C   0  0  0  0  0  0  0  0  0  0  0  0
    2.1480    0.1250   -0.0140 N   0  0  0  0  0  0  0  0  0  0  0  0
    1.8760    0.5270    1.3310 C   0  0  0  0  0  0  0  0  0  0  0  0
    0.9150   -0.3200   -0.6210 C   0  0  0  0  0  0  0  0  0  0  0  0
   -0.1290    0.7610   -0.3900 C   0  0  0  0  0  0  0  0  0  0  0  0
   -1.3450    0.3930   -0.9610 O   0  0  0  0  0  0  0  0  0  0  0  0
   -2.0990   -0.7230   -0.6640 C   0  0  0  0  0  0  0  0  0  0  0  0
   -1.8940   -1.9920   -0.9560 C   0  0  0  0  0  0  0  0  0  0  0  0
   -2.9840   -2.8460   -0.4250 C   0  0  0  0  0  0  0  0  0  0  0  0
   -3.8370   -1.8700    0.2100 N   0  0  0  0  0  0  0  0  0  0  0  0
   -3.3570   -0.6780    0.0870 C   0  0  0  0  0  0  0  0  0  0  0  0
   -3.9960    0.5430    0.6320 C   0  0  1  0  0  0  0  0  0  0  0  0
   -4.2800    1.4700   -0.5280 C   0  0  0  0  0  0  0  0  0  0  0  0
   -5.2510    0.1690    1.3780 C   0  0  0  0  0  0  0  0  0  0  0  0
  1  2  1  0
  2  3  2  3
  3  4  1  0
  4  5  1  0
  5  6  1  0
  5  7  1  0
  7  8  1  0
  8  9  1  0
  9 10  1  0
 10 11  2  0
 10 14  1  0
 11 12  1  0
 12 13  1  0
 13 14  2  0
 14 15  1  0
 15 16  1  6
 15 17  1  0
M  END
