
     RDKit          3D

 17 18  0  0  0  0  0  0  0  0999 V2000
    1.3810    1.8520    0.5100 C   0  0  0  0  0  0  0  0  0  0  0  0
    1.3730    0.6700   -0.1940 O   0  0  0  0  0  0  0  0  0  0  0  0
    2.2510   -0.2980    0.2370 C   0  0  0  0  0  0  0  0  0  0  0  0
    2.0730   -1.5060   -0.6340 C   0  0  1  0  0  0  0  0  0  0  0  0
    0.7200   -2.1900   -0.6140 C   0  0  0  0  0  0  0  0  0  0  0  0
   -0.3270   -1.1120   -0.9000 C   0  0  0  0  0  0  0  0  0  0  0  0
   -0.5470   -0.4300   -2.0270 C   0  0  0  0  0  0  0  0  0  0  0  0
   -1.4830    0.6520   -1.5660 N   0  0  0  0  0  0  0  0  0  0  0  0
   -1.7240    0.5100   -0.3180 C   0  0  0  0  0  0  0  0  0  0  0  0
   -2.4910    1.4880    0.5430 C   0  0  1  0  0  0  0  0  0  0  0  0
   -3.8890    1.1720    0.8620 C   0  0  0  0  0  0  0  0  0  0  0  0
   -1.7290    1.9730    1.7110 C   0  0  0  0  0  0  0  0  0  0  0  0
   -1.0390   -0.5700    0.1580 C   0  0  0  0  0  0  0  0  0  0  0  0
   -1.1450   -1.1640    1.4100 C   0  0  0  0  0  0  0  0  0  0  0  0
   -1.2530   -1.6880    2.5510 N   0  0  0  0  0  0  0  0  0  0  0  0
    2.9340   -1.6450   -1.8380 C   0  0  0  0  0  0  0  0  0  0  0  0
    3.2310   -2.5190   -0.6970 C   0  0  0  0  0  0  0  0  0  0  0  0
  1  2  1  0
  2  3  1  0
  4  3  1  1
  4  5  1  0
  4 16  1  0
  4 17  1  0
  5  6  1  0
  6  7  2  0
  6 13  1  0
  7  8  1  0
  8  9  1  0
  9 10  1  0
  9 13  2  0
 10 11  1  1
 10 12  1  0
 13 14  1  0
 14 15  3  0
 16 17  1  0
M  END
