
     RDKit          3D

 18 19  0  0  0  0  0  0  0  0999 V2000
   -1.9800   -0.5610    1.6430 C   0  0  0  0  0  0  0  0  0  0  0  0
   -2.5750    0.2080    0.5010 C   0  0  0  0  0  0  0  0  0  0  0  0
   -3.9150    0.3270    0.2710 N   0  0  0  0  0  0  0  0  0  0  0  0
   -4.1290    1.0780   -0.7880 N   0  0  0  0  0  0  0  0  0  0  0  0
   -2.9690    1.4850   -1.3000 C   0  0  0  0  0  0  0  0  0  0  0  0
   -2.8160    2.3460   -2.4940 C   0  0  0  0  0  0  0  0  0  0  0  0
   -1.9610    0.9330   -0.4820 C   0  0  0  0  0  0  0  0  0  0  0  0
   -0.5400    1.1370   -0.7410 C   0  0  0  0  0  0  0  0  0  0  0  0
    0.1670    0.0450   -1.4860 C   0  0  0  0  0  0  0  0  0  0  0  0
    0.1920   -1.2630   -0.7930 C   0  0  0  0  0  0  0  0  0  0  0  0
    0.8070   -1.3710    0.4130 O   0  0  0  0  0  0  0  0  0  0  0  0
    2.0410   -1.2090    0.9070 C   0  0  0  0  0  0  0  0  0  0  0  0
    3.0880   -0.8390    0.0960 C   0  0  0  0  0  0  0  0  0  0  0  0
    4.3870   -0.6620    0.5780 C   0  0  0  0  0  0  0  0  0  0  0  0
    4.5830   -0.8760    1.9250 C   0  0  0  0  0  0  0  0  0  0  0  0
    3.5370   -1.2470    2.7400 C   0  0  0  0  0  0  0  0  0  0  0  0
    2.2570   -1.4230    2.2760 C   0  0  0  0  0  0  0  0  0  0  0  0
    1.2420   -1.7890    3.0990 F   0  0  0  0  0  0  0  0  0  0  0  0
  1  2  1  0
  2  3  2  0
  2  7  1  0
  3  4  1  0
  4  5  1  0
  5  6  1  0
  5  7  2  0
  7  8  1  0
  8  9  1  0
  9 10  1  0
 10 11  1  0
 11 12  1  0
 12 13  2  0
 12 17  1  0
 13 14  1  0
 14 15  2  0
 15 16  1  0
 16 17  2  0
 17 18  1  0
M  END
