
     RDKit          3D

 18 19  0  0  0  0  0  0  0  0999 V2000
    4.1110    1.3120   -1.9770 C   0  0  0  0  0  0  0  0  0  0  0  0
    3.5220    0.0930   -1.3240 C   0  0  0  0  0  0  0  0  0  0  0  0
    2.2060    0.3510   -0.8280 O   0  0  0  0  0  0  0  0  0  0  0  0
    1.4850   -0.6600   -0.2090 C   0  0  0  0  0  0  0  0  0  0  0  0
    2.0190   -1.9150   -0.0640 C   0  0  0  0  0  0  0  0  0  0  0  0
    1.2900   -2.9060    0.5490 C   0  0  0  0  0  0  0  0  0  0  0  0
    1.8050   -4.1710    0.7120 F   0  0  0  0  0  0  0  0  0  0  0  0
    0.0230   -2.6840    1.0300 C   0  0  0  0  0  0  0  0  0  0  0  0
   -0.5220   -1.4070    0.8820 C   0  0  0  0  0  0  0  0  0  0  0  0
   -1.8700   -1.0990    1.4070 C   0  0  0  0  0  0  0  0  0  0  0  0
   -2.0780    0.3440    1.5220 C   0  0  0  0  0  0  0  0  0  0  0  0
   -1.7760    1.0960    2.6740 C   0  0  0  0  0  0  0  0  0  0  0  0
   -2.0510    2.3750    2.4040 N   0  0  0  0  0  0  0  0  0  0  0  0
   -2.4900    2.4460    1.1900 N   0  0  0  0  0  0  0  0  0  0  0  0
   -2.5330    1.2450    0.5960 C   0  0  0  0  0  0  0  0  0  0  0  0
   -3.0300    1.0470   -0.7540 C   0  0  0  0  0  0  0  0  0  0  0  0
   -2.0750    0.8280   -1.8560 C   0  0  0  0  0  0  0  0  0  0  0  0
    0.1950   -0.4090    0.2750 C   0  0  0  0  0  0  0  0  0  0  0  0
  1  2  1  0
  2  3  1  0
  3  4  1  0
  4  5  2  0
  4 18  1  0
  5  6  1  0
  6  7  1  0
  6  8  2  0
  8  9  1  0
  9 10  1  0
  9 18  2  0
 10 11  1  0
 11 12  2  0
 11 15  1  0
 12 13  1  0
 13 14  1  0
 14 15  2  0
 15 16  1  0
 16 17  1  0
M  END
