
     RDKit          3D

 19 20  0  0  0  0  0  0  0  0999 V2000
   -2.5980   -2.3530    2.0760 C   0  0  0  0  0  0  0  0  0  0  0  0
   -1.9010   -1.0830    1.6980 C   0  0  0  0  0  0  0  0  0  0  0  0
   -1.8880   -0.9860    0.3140 O   0  0  0  0  0  0  0  0  0  0  0  0
   -1.2670    0.1520   -0.1510 C   0  0  1  0  0  0  0  0  0  0  0  0
   -0.0550   -0.2650   -0.9480 C   0  0  2  0  0  0  0  0  0  0  0  0
   -0.5080   -1.1410   -2.0850 C   0  0  0  0  0  0  0  0  0  0  0  0
   -1.1680   -2.3560   -1.6600 N   0  0  0  0  0  0  0  0  0  0  0  0
    0.8540   -0.9800   -0.1600 O   0  0  0  0  0  0  0  0  0  0  0  0
    2.0640   -0.2940   -0.2200 C   0  0  0  0  0  0  0  0  0  0  0  0
    3.1480   -0.9510    0.5860 C   0  0  1  0  0  0  0  0  0  0  0  0
    4.3430    0.0020    0.5760 C   0  0  0  0  0  0  0  0  0  0  0  0
    4.2580    0.7490    1.8830 C   0  0  0  0  0  0  0  0  0  0  0  0
    2.9360    0.2690    2.4410 C   0  0  0  0  0  0  0  0  0  0  0  0
    2.7830   -1.0240    1.9320 O   0  0  0  0  0  0  0  0  0  0  0  0
   -2.1160    1.0440   -0.9990 C   0  0  2  0  0  0  0  0  0  0  0  0
   -1.3060    2.2420   -1.4160 C   0  0  0  0  0  0  0  0  0  0  0  0
   -2.2670    3.3030   -1.3790 N   0  0  0  0  0  0  0  0  0  0  0  0
   -3.2450    2.8910   -0.4210 C   0  0  0  0  0  0  0  0  0  0  0  0
   -3.2370    1.5230   -0.3260 O   0  0  0  0  0  0  0  0  0  0  0  0
  1  2  1  0
  2  3  1  0
  4  3  1  6
  4  5  1  0
  4 15  1  0
  5  6  1  6
  5  8  1  0
  6  7  1  0
  8  9  1  0
 10  9  1  6
 10 11  1  0
 10 14  1  0
 11 12  1  0
 12 13  1  0
 13 14  1  0
 15 16  1  1
 15 19  1  0
 16 17  1  0
 17 18  1  0
 18 19  1  0
M  CHG  1   7   1
M  END
