
     RDKit          3D

 22 23  0  0  0  0  0  0  0  0999 V2000
    5.4130    1.7980    0.3830 N   0  0  0  0  0  0  0  0  0  0  0  0
    5.6910    0.3910    0.3300 C   0  0  0  0  0  0  0  0  0  0  0  0
    4.4740   -0.3100   -0.1630 C   0  0  0  0  0  0  0  0  0  0  0  0
    3.5380   -0.7450    0.7330 C   0  0  0  0  0  0  0  0  0  0  0  0
    2.3810   -1.4060    0.3490 C   0  0  0  0  0  0  0  0  0  0  0  0
    1.4890   -1.8310    1.3350 N   0  0  0  0  0  0  0  0  0  0  0  0
    0.1510   -2.2510    1.1680 C   0  0  0  0  0  0  0  0  0  0  0  0
   -0.6560   -2.7290    2.5460 S   0  0  0  0  0  0  0  0  0  0  0  0
   -0.5660   -2.3190    0.0170 O   0  0  0  0  0  0  0  0  0  0  0  0
   -1.2990   -1.3740   -0.6650 C   0  0  0  0  0  0  0  0  0  0  0  0
   -2.4360   -0.7260    0.0350 C   0  0  1  0  0  0  0  0  0  0  0  0
   -1.9560    0.0440    1.2630 C   0  0  0  0  0  0  0  0  0  0  0  0
   -2.2290    1.4120    1.0910 O   0  0  0  0  0  0  0  0  0  0  0  0
   -3.5720    1.6530    0.9500 C   0  0  0  0  0  0  0  0  0  0  0  0
   -4.1460    0.7150   -0.0790 C   0  0  1  0  0  0  0  0  0  0  0  0
   -5.1400    1.4460   -0.9200 C   0  0  0  0  0  0  0  0  0  0  0  0
   -6.2300    1.9610   -0.0660 C   0  0  0  0  0  0  0  0  0  0  0  0
   -6.2070    1.7480    1.1250 O   0  0  0  0  0  0  0  0  0  0  0  0
   -3.1050    0.1740   -0.8200 O   0  0  0  0  0  0  0  0  0  0  0  0
    2.1820   -1.6240   -0.9880 C   0  0  0  0  0  0  0  0  0  0  0  0
    3.1580   -1.1660   -1.8700 C   0  0  0  0  0  0  0  0  0  0  0  0
    4.2630   -0.5310   -1.4520 N   0  0  0  0  0  0  0  0  0  0  0  0
  1  2  1  0
  2  3  1  0
  3  4  2  0
  3 22  1  0
  4  5  1  0
  5  6  1  0
  5 20  2  0
  6  7  1  0
  7  8  2  0
  7  9  1  0
  9 10  1  0
 11 10  1  6
 11 12  1  0
 11 19  1  0
 12 13  1  0
 13 14  1  0
 14 15  1  0
 15 16  1  6
 15 19  1  0
 16 17  1  0
 17 18  2  0
 20 21  1  0
 21 22  2  0
M  CHG  2   1   1  22   1
M  END
