
     RDKit          3D

 19 19  0  0  0  0  0  0  0  0999 V2000
   -2.8430   -0.5720   -3.2190 N   0  0  0  0  0  0  0  0  0  0  0  0
   -2.4910   -0.2090   -2.1470 C   0  0  0  0  0  0  0  0  0  0  0  0
   -2.0380    0.2220   -0.8180 C   0  0  1  0  0  0  0  0  0  0  0  0
   -2.1750    1.6570   -0.7480 N   0  0  0  0  0  0  0  0  0  0  0  0
   -1.5240    2.4750   -1.6980 C   0  0  0  0  0  0  0  0  0  0  0  0
   -0.8270    2.0000   -2.6150 O   0  0  0  0  0  0  0  0  0  0  0  0
   -1.6510    3.9760   -1.6350 C   0  0  0  0  0  0  0  0  0  0  0  0
   -0.9410    4.5450   -2.6820 O   0  0  0  0  0  0  0  0  0  0  0  0
   -2.8890   -0.4420    0.2590 C   0  0  0  0  0  0  0  0  0  0  0  0
   -2.2990   -1.8270    0.5220 C   0  0  0  0  0  0  0  0  0  0  0  0
   -1.0130   -1.6720    1.2980 C   0  0  2  0  0  0  0  0  0  0  0  0
   -1.3140   -1.4030    2.6450 O   0  0  0  0  0  0  0  0  0  0  0  0
   -0.1750   -0.5980    0.6800 C   0  0  1  0  0  0  0  0  0  0  0  0
    1.2530   -1.1540    0.5790 C   0  0  0  0  0  0  0  0  0  0  0  0
    2.2050   -0.1700   -0.0370 C   0  0  0  0  0  0  0  0  0  0  0  0
    3.5830   -0.7710   -0.0970 C   0  0  0  0  0  0  0  0  0  0  0  0
    4.1280   -1.1240    1.2500 C   0  0  0  0  0  0  0  0  0  0  0  0
    5.4090   -1.6560    1.0600 O   0  0  0  0  0  0  0  0  0  0  0  0
   -0.5890   -0.1500   -0.6810 C   0  0  0  0  0  0  0  0  0  0  0  0
  1  2  3  0
  3  2  1  6
  3  4  1  0
  3  9  1  0
  3 19  1  0
  4  5  1  0
  5  6  2  0
  5  7  1  0
  7  8  1  0
  9 10  1  0
 10 11  1  0
 11 12  1  1
 11 13  1  0
 13 14  1  6
 13 19  1  0
 14 15  1  0
 15 16  1  0
 16 17  1  0
 17 18  1  0
M  END
