
     RDKit          3D

 22 23  0  0  0  0  0  0  0  0999 V2000
    5.4090   -0.5820   -0.7280 C   0  0  0  0  0  0  0  0  0  0  0  0
    4.6360    0.6790   -0.8730 C   0  0  0  0  0  0  0  0  0  0  0  0
    3.1130    0.4650   -0.8170 C   0  0  0  0  0  0  0  0  0  0  0  0
    2.7020   -0.0870    0.6520 S   0  0  0  0  0  0  0  0  0  0  0  0
    3.8180   -0.8130    1.6580 O   0  0  0  0  0  0  0  0  0  0  0  0
    2.2040   -1.5710    0.2410 C   0  0  0  0  0  0  0  0  0  0  0  0
    0.9590   -1.3650   -0.5520 C   0  0  0  0  0  0  0  0  0  0  0  0
    0.2120   -0.1250   -0.0520 C   0  0  1  0  0  0  0  0  0  0  0  0
    0.2100    0.9730   -1.0040 C   0  0  0  0  0  0  0  0  0  0  0  0
   -1.1690   -0.4880    0.3900 C   0  0  0  0  0  0  0  0  0  0  0  0
   -2.2090    0.5260    0.4870 C   0  0  0  0  0  0  0  0  0  0  0  0
   -3.4200    0.2410   -0.2200 C   0  0  0  0  0  0  0  0  0  0  0  0
   -3.4300   -1.0220   -1.0050 C   0  0  0  0  0  0  0  0  0  0  0  0
   -4.3140   -1.9090   -0.2830 N   0  0  0  0  0  0  0  0  0  0  0  0
   -4.4530    1.0210   -0.2460 N   0  0  0  0  0  0  0  0  0  0  0  0
   -4.4530    2.2220    0.4160 C   0  0  0  0  0  0  0  0  0  0  0  0
   -5.4730    2.9720    0.4060 O   0  0  0  0  0  0  0  0  0  0  0  0
   -3.3320    2.5410    1.0790 N   0  0  0  0  0  0  0  0  0  0  0  0
   -2.2370    1.7080    1.1130 C   0  0  0  0  0  0  0  0  0  0  0  0
   -1.2860    2.1700    1.7650 O   0  0  0  0  0  0  0  0  0  0  0  0
    1.0620    0.1000    1.2310 C   0  0  0  0  0  0  0  0  0  0  0  0
    0.6490    0.3130    2.2730 O   0  0  0  0  0  0  0  0  0  0  0  0
  1  2  1  0
  2  3  1  0
  3  4  1  0
  4  5  2  0
  4  6  1  0
  4 21  1  0
  6  7  1  0
  7  8  1  0
  8  9  1  6
  8 10  1  0
  8 21  1  0
 10 11  1  0
 11 12  2  0
 11 19  1  0
 12 13  1  0
 12 15  1  0
 13 14  1  0
 15 16  1  0
 16 17  2  0
 16 18  1  0
 18 19  1  0
 19 20  2  0
 21 22  2  0
M  CHG  1  14   1
M  END
