
     RDKit          3D

 19 19  0  0  0  0  0  0  0  0999 V2000
   -4.3460   -0.5240    1.3370 C   0  0  0  0  0  0  0  0  0  0  0  0
   -4.2780   -1.0600   -0.0400 C   0  0  1  0  0  0  0  0  0  0  0  0
   -4.5700    0.0250   -1.0930 C   0  0  0  0  0  0  0  0  0  0  0  0
   -5.9400    0.6120   -0.9270 C   0  0  0  0  0  0  0  0  0  0  0  0
   -6.1760    1.2180    0.2830 O   0  0  0  0  0  0  0  0  0  0  0  0
   -3.0650   -1.7970   -0.4590 C   0  0  1  0  0  0  0  0  0  0  0  0
   -3.3230   -2.2210   -1.8140 O   0  0  0  0  0  0  0  0  0  0  0  0
   -1.7600   -1.0670   -0.4680 C   0  0  0  0  0  0  0  0  0  0  0  0
   -1.3130   -0.5260    0.8430 C   0  0  0  0  0  0  0  0  0  0  0  0
   -0.0110    0.1210    0.7520 N   0  0  0  0  0  0  0  0  0  0  0  0
    1.1750   -0.5380    0.3470 C   0  0  0  0  0  0  0  0  0  0  0  0
    1.1260   -1.7740    0.0420 O   0  0  0  0  0  0  0  0  0  0  0  0
    2.4140    0.1670    0.2800 N   0  0  0  0  0  0  0  0  0  0  0  0
    3.5830   -0.5660   -0.1400 C   0  0  0  0  0  0  0  0  0  0  0  0
    4.8190    0.3020   -0.1650 C   0  0  2  0  0  0  0  0  0  0  0  0
    6.0670   -0.5110   -0.4340 C   0  0  0  0  0  0  0  0  0  0  0  0
    7.1460    0.4330    0.0690 C   0  0  0  0  0  0  0  0  0  0  0  0
    6.4020    1.2340    1.1020 C   0  0  0  0  0  0  0  0  0  0  0  0
    5.0940    0.8270    1.0900 O   0  0  0  0  0  0  0  0  0  0  0  0
  2  1  1  1
  2  3  1  0
  2  6  1  0
  3  4  1  0
  4  5  1  0
  6  7  1  6
  6  8  1  0
  8  9  1  0
  9 10  1  0
 10 11  1  0
 11 12  2  0
 11 13  1  0
 13 14  1  0
 15 14  1  1
 15 16  1  0
 15 19  1  0
 16 17  1  0
 17 18  1  0
 18 19  1  0
M  END
