
     RDKit          3D

 22 22  0  0  0  0  0  0  0  0999 V2000
    7.2340   -0.8410   -0.1590 C   0  0  0  0  0  0  0  0  0  0  0  0
    5.8370   -0.6030   -0.1080 O   0  0  0  0  0  0  0  0  0  0  0  0
    5.2390    0.5420   -0.5550 C   0  0  0  0  0  0  0  0  0  0  0  0
    5.9270    1.4570   -1.0440 O   0  0  0  0  0  0  0  0  0  0  0  0
    3.7850    0.7380   -0.4780 C   0  0  0  0  0  0  0  0  0  0  0  0
    3.0570   -0.2450    0.0460 C   0  0  0  0  0  0  0  0  0  0  0  0
    1.6180   -0.2050    0.1910 C   0  0  0  0  0  0  0  0  0  0  0  0
    1.0390   -1.2000    0.7030 O   0  0  0  0  0  0  0  0  0  0  0  0
    0.8180    0.8930   -0.2120 N   0  0  0  0  0  0  0  0  0  0  0  0
   -0.6170    0.8220   -0.0140 C   0  0  1  0  0  0  0  0  0  0  0  0
   -1.2640   -0.1580   -0.9270 C   0  0  0  0  0  0  0  0  0  0  0  0
   -2.7080   -0.2230   -0.7230 C   0  0  0  0  0  0  0  0  0  0  0  0
   -3.5190    0.6510   -1.4380 C   0  0  0  0  0  0  0  0  0  0  0  0
   -4.8960    0.6170   -1.2860 C   0  0  0  0  0  0  0  0  0  0  0  0
   -5.4700   -0.2900   -0.4180 C   0  0  0  0  0  0  0  0  0  0  0  0
   -6.8590   -0.3040   -0.2820 O   0  0  0  0  0  0  0  0  0  0  0  0
   -4.6390   -1.1340    0.2690 C   0  0  0  0  0  0  0  0  0  0  0  0
   -5.3670   -2.2930    1.3780 Cl  0  0  0  0  0  0  0  0  0  0  0  0
   -3.2640   -1.1340    0.1470 C   0  0  0  0  0  0  0  0  0  0  0  0
   -0.9360    0.6840    1.4110 C   0  0  0  0  0  0  0  0  0  0  0  0
    0.0240    0.6420    2.2410 O   0  0  0  0  0  0  0  0  0  0  0  0
   -2.1980    0.5940    1.9600 O   0  0  0  0  0  0  0  0  0  0  0  0
  1  2  1  0
  2  3  1  0
  3  4  2  0
  3  5  1  0
  5  6  2  3
  6  7  1  0
  7  8  2  0
  7  9  1  0
  9 10  1  0
 10 11  1  6
 10 20  1  0
 11 12  1  0
 12 13  2  0
 12 19  1  0
 13 14  1  0
 14 15  2  0
 15 16  1  0
 15 17  1  0
 17 18  1  0
 17 19  2  0
 20 21  2  0
 20 22  1  0
M  END
