
     RDKit          3D

 25 28  0  0  0  0  0  0  0  0999 V2000
    4.1110    0.3720    3.3110 C   0  0  0  0  0  0  0  0  0  0  0  0
    3.9370    0.5610    1.8510 C   0  0  0  0  0  0  0  0  0  0  0  0
    4.6060    1.2880    0.9940 O   0  0  0  0  0  0  0  0  0  0  0  0
    4.1050    1.1590   -0.2100 C   0  0  0  0  0  0  0  0  0  0  0  0
    4.6150    1.8410   -1.4330 C   0  0  0  0  0  0  0  0  0  0  0  0
    3.0320    0.2930   -0.1690 C   0  0  0  0  0  0  0  0  0  0  0  0
    2.2100   -0.0980   -1.3500 C   0  0  0  0  0  0  0  0  0  0  0  0
    2.1220    0.0920   -2.5000 N   0  0  0  0  0  0  0  0  0  0  0  0
    1.2300   -0.4460   -3.2790 N   0  0  0  0  0  0  0  0  0  0  0  0
    0.4020   -1.1830   -2.9560 C   0  0  0  0  0  0  0  0  0  0  0  0
   -0.9840   -2.1460   -3.6100 S   0  0  0  0  0  0  0  0  0  0  0  0
   -2.4330   -1.0660   -3.4950 C   0  0  0  0  0  0  0  0  0  0  0  0
   -2.7970   -0.7900   -2.1010 C   0  0  0  0  0  0  0  0  0  0  0  0
   -3.6540   -1.5120   -1.3450 N   0  0  0  0  0  0  0  0  0  0  0  0
   -3.7590   -0.9870   -0.1190 C   0  0  0  0  0  0  0  0  0  0  0  0
   -4.4750   -1.3120    1.0270 C   0  0  0  0  0  0  0  0  0  0  0  0
   -4.3880   -0.5780    2.1750 C   0  0  0  0  0  0  0  0  0  0  0  0
   -5.3440   -1.0790    3.5810 S   0  0  0  0  0  0  0  0  0  0  0  0
   -3.5500    0.5190    2.1600 C   0  0  0  0  0  0  0  0  0  0  0  0
   -2.8140    0.8900    1.0490 C   0  0  0  0  0  0  0  0  0  0  0  0
   -2.9370    0.1120   -0.0890 C   0  0  0  0  0  0  0  0  0  0  0  0
   -2.3650    0.2060   -1.3130 N   0  0  0  0  0  0  0  0  0  0  0  0
    0.7960   -1.2880   -1.0960 S   0  0  0  0  0  0  0  0  0  0  0  0
    2.9240   -0.0870    1.1350 C   0  0  0  0  0  0  0  0  0  0  0  0
    1.7140   -1.1900    1.7470 Cl  0  0  0  0  0  0  0  0  0  0  0  0
  1  2  1  0
  2  3  1  0
  2 24  2  0
  3  4  1  0
  4  5  1  0
  4  6  2  0
  6  7  1  0
  6 24  1  0
  7  8  2  0
  7 23  1  0
  8  9  1  0
  9 10  2  0
 10 11  1  0
 10 23  1  0
 11 12  1  0
 12 13  1  0
 13 14  2  0
 13 22  1  0
 14 15  1  0
 15 16  2  0
 15 21  1  0
 16 17  1  0
 17 18  1  0
 17 19  2  0
 19 20  1  0
 20 21  2  0
 21 22  1  0
 24 25  1  0
M  END
