
     RDKit          3D

 12 12  0  0  0  0  0  0  0  0999 V2000
    4.6180   -0.8100   -0.1770 C   0  0  0  0  0  0  0  0  0  0  0  0
    3.4690    0.0610   -0.4800 C   0  0  0  0  0  0  0  0  0  0  0  0
    2.2610   -0.3220   -0.1620 C   0  0  0  0  0  0  0  0  0  0  0  0
    1.0660    0.5170   -0.4440 C   0  0  0  0  0  0  0  0  0  0  0  0
    1.1970    1.7870   -1.0790 C   0  0  0  0  0  0  0  0  0  0  0  0
   -0.4200    2.4200   -1.2150 S   0  0  0  0  0  0  0  0  0  0  0  0
   -1.2310    0.9980   -0.4310 C   0  0  0  0  0  0  0  0  0  0  0  0
   -2.6820    0.9030   -0.2270 C   0  0  0  0  0  0  0  0  0  0  0  0
   -3.1040   -0.3400    0.3260 N   0  0  0  0  0  0  0  0  0  0  0  0
   -2.7530   -1.4470   -0.5360 C   0  0  0  0  0  0  0  0  0  0  0  0
   -4.8390   -0.3860    0.6360 S   0  0  0  0  0  0  0  0  0  0  0  0
   -0.2030    0.1940   -0.1490 C   0  0  0  0  0  0  0  0  0  0  0  0
  1  2  1  0
  2  3  2  3
  3  4  1  0
  4  5  2  0
  4 12  1  0
  5  6  1  0
  6  7  1  0
  7  8  1  0
  7 12  2  0
  8  9  1  0
  9 10  1  0
  9 11  1  0
M  END
