
     RDKit          3D

 12 12  0  0  0  0  0  0  0  0999 V2000
    3.6720    0.7940   -0.7730 C   0  0  0  0  0  0  0  0  0  0  0  0
    3.0910    0.1700    0.5410 C   0  0  0  0  0  0  0  0  0  0  0  0
    1.6330   -0.1470    0.2920 C   0  0  0  0  0  0  0  0  0  0  0  0
    0.9800   -1.2630   -0.1340 C   0  0  0  0  0  0  0  0  0  0  0  0
   -0.3630   -1.2320   -0.2780 C   0  0  0  0  0  0  0  0  0  0  0  0
   -1.0530   -0.1110    0.0010 C   0  0  0  0  0  0  0  0  0  0  0  0
   -2.3450    0.4360    0.0170 C   0  0  0  0  0  0  0  0  0  0  0  0
   -3.5020    0.0000    0.4560 C   0  0  0  0  0  0  0  0  0  0  0  0
   -4.0490   -1.3920    1.2080 S   0  0  0  0  0  0  0  0  0  0  0  0
   -4.3740    1.2790    0.6840 C   0  0  0  0  0  0  0  0  0  0  0  0
   -5.0560    2.2790    0.8410 N   0  0  0  0  0  0  0  0  0  0  0  0
    0.3740    0.9890    0.5190 S   0  0  0  0  0  0  0  0  0  0  0  0
  1  2  1  0
  2  3  1  0
  3  4  2  0
  3 12  1  0
  4  5  1  0
  5  6  2  0
  6  7  1  0
  6 12  1  0
  7  8  2  3
  8  9  1  0
  8 10  1  0
 10 11  3  0
M  END
