
     RDKit          3D

 12 12  0  0  0  0  0  0  0  0999 V2000
    1.7290    0.8590    1.1540 C   0  0  0  0  0  0  0  0  0  0  0  0
    1.6580    0.1500   -0.0960 N   0  0  0  0  0  0  0  0  0  0  0  0
    0.5710    0.4010   -0.9980 C   0  0  0  0  0  0  0  0  0  0  0  0
   -0.7590    0.1050   -0.4520 C   0  0  0  0  0  0  0  0  0  0  0  0
   -1.8510    0.3880   -1.2450 C   0  0  0  0  0  0  0  0  0  0  0  0
   -3.1480    0.1510   -0.8380 C   0  0  0  0  0  0  0  0  0  0  0  0
   -3.3900   -0.3870    0.3990 C   0  0  0  0  0  0  0  0  0  0  0  0
   -2.3080   -0.6710    1.1950 C   0  0  0  0  0  0  0  0  0  0  0  0
   -1.0030   -0.4340    0.7870 C   0  0  0  0  0  0  0  0  0  0  0  0
    2.6690   -0.7880   -0.4160 C   0  0  0  0  0  0  0  0  0  0  0  0
    2.6540   -1.6350   -1.8230 S   0  0  0  0  0  0  0  0  0  0  0  0
    4.0390   -1.1290    0.6800 S   0  0  0  0  0  0  0  0  0  0  0  0
  1  2  1  0
  2  3  1  0
  2 10  1  0
  3  4  1  0
  4  5  2  0
  4  9  1  0
  5  6  1  0
  6  7  2  0
  7  8  1  0
  8  9  2  0
 10 11  2  0
 10 12  1  0
M  END
