
     RDKit          3D

 12 12  0  0  0  0  0  0  0  0999 V2000
    4.4200   -0.6380   -0.6940 C   0  0  0  0  0  0  0  0  0  0  0  0
    3.0810   -0.4050   -0.1530 C   0  0  0  0  0  0  0  0  0  0  0  0
    2.6390   -0.1900    1.1370 C   0  0  0  0  0  0  0  0  0  0  0  0
    1.3370    0.0000    1.3610 C   0  0  0  0  0  0  0  0  0  0  0  0
    0.4800   -0.0280    0.2820 C   0  0  0  0  0  0  0  0  0  0  0  0
   -0.9680    0.1630    0.3700 C   0  0  1  0  0  0  0  0  0  0  0  0
   -1.2590    1.5950    0.0000 C   0  0  0  0  0  0  0  0  0  0  0  0
   -2.9780    2.0660    0.0490 S   0  0  0  0  0  0  0  0  0  0  0  0
   -1.7340   -0.7300   -0.3840 N   0  0  0  0  0  0  0  0  0  0  0  0
   -3.1570   -0.6740   -0.2080 C   0  0  0  0  0  0  0  0  0  0  0  0
   -1.4030   -0.9400   -1.7410 C   0  0  0  0  0  0  0  0  0  0  0  0
    1.5270   -0.3230   -1.0440 S   0  0  0  0  0  0  0  0  0  0  0  0
  1  2  1  0
  2  3  2  0
  2 12  1  0
  3  4  1  0
  4  5  2  0
  5  6  1  0
  5 12  1  0
  6  7  1  6
  6  9  1  0
  7  8  1  0
  9 10  1  0
  9 11  1  0
M  END
