
     RDKit          3D

 12 12  0  0  0  0  0  0  0  0999 V2000
   -1.7000   -1.1800   -1.2310 C   0  0  0  0  0  0  0  0  0  0  0  0
   -1.8330   -0.0000   -0.3010 C   0  0  2  0  0  0  0  0  0  0  0  0
   -2.2780   -0.4590    1.0770 C   0  0  0  0  0  0  0  0  0  0  0  0
   -2.9840    0.8720   -0.8290 C   0  0  0  0  0  0  0  0  0  0  0  0
   -0.6440    0.8830   -0.2630 C   0  0  0  0  0  0  0  0  0  0  0  0
    0.6070    0.1780    0.2050 C   0  0  0  0  0  0  0  0  0  0  0  0
    0.5320   -1.1390    0.5990 C   0  0  0  0  0  0  0  0  0  0  0  0
    2.3330   -1.4680    1.0500 S   0  0  0  0  0  0  0  0  0  0  0  0
    2.8090    0.2590    0.6060 C   0  0  0  0  0  0  0  0  0  0  0  0
    4.2840    0.5850    0.7910 C   0  0  0  0  0  0  0  0  0  0  0  0
    5.0950    0.1900   -0.7740 S   0  0  0  0  0  0  0  0  0  0  0  0
    1.8070    0.7120    0.2720 N   0  0  0  0  0  0  0  0  0  0  0  0
  2  1  1  6
  2  3  1  0
  2  4  1  0
  2  5  1  0
  5  6  1  0
  6  7  2  0
  6 12  1  0
  7  8  1  0
  8  9  1  0
  9 10  1  0
  9 12  2  0
 10 11  1  0
M  END
