
     RDKit          3D

 17 18  0  0  0  0  0  0  0  0999 V2000
    5.2030   -1.2350   -1.2330 C   0  0  0  0  0  0  0  0  0  0  0  0
    4.3660   -0.4250   -0.4300 N   0  0  0  0  0  0  0  0  0  0  0  0
    4.9190    0.7570    0.1290 C   0  0  0  0  0  0  0  0  0  0  0  0
    3.9390    1.8920   -0.0670 C   0  0  0  0  0  0  0  0  0  0  0  0
    2.2070    1.3770   -0.0980 S   0  0  0  0  0  0  0  0  0  0  0  0
    2.0940   -0.3950    0.0880 C   0  0  0  0  0  0  0  0  0  0  0  0
    1.0110   -1.1180   -0.0370 C   0  0  0  0  0  0  0  0  0  0  0  0
   -0.2970   -0.6480   -0.3460 C   0  0  0  0  0  0  0  0  0  0  0  0
   -0.8740    0.0290   -1.4010 C   0  0  0  0  0  0  0  0  0  0  0  0
   -2.1370    0.3410   -1.3130 N   0  0  0  0  0  0  0  0  0  0  0  0
   -2.9030    0.1210   -0.4140 C   0  0  0  0  0  0  0  0  0  0  0  0
   -4.2750    0.2470    0.0600 C   0  0  1  0  0  0  0  0  0  0  0  0
   -4.3290    1.1530    1.2680 C   0  0  0  0  0  0  0  0  0  0  0  0
   -5.0870    0.8300   -1.0630 C   0  0  0  0  0  0  0  0  0  0  0  0
   -4.8830   -1.1020    0.3980 C   0  0  0  0  0  0  0  0  0  0  0  0
   -1.7770   -0.7680    0.7710 S   0  0  0  0  0  0  0  0  0  0  0  0
    3.4060   -1.0900    0.3980 C   0  0  0  0  0  0  0  0  0  0  0  0
  1  2  1  0
  2  3  1  0
  2 17  1  0
  3  4  1  0
  4  5  1  0
  5  6  1  0
  6  7  2  3
  6 17  1  0
  7  8  1  0
  8  9  2  0
  8 16  1  0
  9 10  1  0
 10 11  2  0
 11 12  1  0
 11 16  1  0
 12 13  1  1
 12 14  1  0
 12 15  1  0
M  END
