
     RDKit          3D

 17 18  0  0  0  0  0  0  0  0999 V2000
   -5.8250    1.3950   -0.8870 C   0  0  0  0  0  0  0  0  0  0  0  0
   -4.6000    0.6590   -0.4830 C   0  0  0  0  0  0  0  0  0  0  0  0
   -3.7520    1.1700    0.3640 C   0  0  0  0  0  0  0  0  0  0  0  0
   -2.5590    0.4610    0.7630 C   0  0  0  0  0  0  0  0  0  0  0  0
   -2.1520   -0.7140    0.3800 C   0  0  0  0  0  0  0  0  0  0  0  0
   -0.8930   -1.2400    0.9250 N   0  0  0  0  0  0  0  0  0  0  0  0
    0.2910   -0.4450    0.6640 C   0  0  2  0  0  0  0  0  0  0  0  0
    0.4430   -0.3560   -0.8320 C   0  0  0  0  0  0  0  0  0  0  0  0
    1.7810    0.1920   -1.2580 C   0  0  0  0  0  0  0  0  0  0  0  0
    2.8770   -0.3400   -0.5030 N   0  0  0  0  0  0  0  0  0  0  0  0
    3.6360    0.6420    0.2180 C   0  0  2  0  0  0  0  0  0  0  0  0
    4.3090    1.6500   -0.6440 C   0  0  0  0  0  0  0  0  0  0  0  0
    4.8520   -0.2430    1.2480 S   0  0  0  0  0  0  0  0  0  0  0  0
    2.5200   -1.4790    0.3050 C   0  0  0  0  0  0  0  0  0  0  0  0
    1.4570   -1.1460    1.3220 C   0  0  0  0  0  0  0  0  0  0  0  0
   -2.8100   -1.6190   -0.5620 C   0  0  0  0  0  0  0  0  0  0  0  0
   -4.3300   -0.9320   -1.1860 S   0  0  0  0  0  0  0  0  0  0  0  0
  1  2  1  0
  2  3  2  0
  2 17  1  0
  3  4  1  0
  4  5  2  0
  5  6  1  0
  5 16  1  0
  7  6  1  6
  7  8  1  0
  7 15  1  0
  8  9  1  0
  9 10  1  0
 10 11  1  0
 10 14  1  0
 11 12  1  6
 11 13  1  0
 14 15  1  0
 16 17  1  0
M  END
