
     RDKit          3D

 17 18  0  0  0  0  0  0  0  0999 V2000
    4.1320    1.4910    0.8290 C   0  0  0  0  0  0  0  0  0  0  0  0
    4.2640    0.5370   -0.3270 C   0  0  0  0  0  0  0  0  0  0  0  0
    3.5680   -0.7620   -0.1900 C   0  0  0  0  0  0  0  0  0  0  0  0
    2.1280   -0.7760   -0.0400 C   0  0  0  0  0  0  0  0  0  0  0  0
    1.3920   -1.4020   -0.9850 C   0  0  0  0  0  0  0  0  0  0  0  0
   -0.0670   -1.4120   -0.8270 C   0  0  0  0  0  0  0  0  0  0  0  0
   -0.5850   -0.1340   -0.4050 N   0  0  0  0  0  0  0  0  0  0  0  0
   -1.8140    0.4240   -0.9500 C   0  0  0  0  0  0  0  0  0  0  0  0
   -1.9440    0.7140   -2.1540 N   0  0  0  0  0  0  0  0  0  0  0  0
   -3.1340    1.2430   -2.6330 C   0  0  0  0  0  0  0  0  0  0  0  0
   -3.4870    1.7240   -4.1280 S   0  0  0  0  0  0  0  0  0  0  0  0
   -4.2090    1.2810   -1.2160 S   0  0  0  0  0  0  0  0  0  0  0  0
   -2.9620    0.6630   -0.0500 C   0  0  1  0  0  0  0  0  0  0  0  0
   -3.4940   -0.6150    0.5510 C   0  0  0  0  0  0  0  0  0  0  0  0
   -4.6680   -0.3490    1.4690 C   0  0  0  0  0  0  0  0  0  0  0  0
    0.1630    0.5940    0.5950 C   0  0  0  0  0  0  0  0  0  0  0  0
    1.3700   -0.1930    1.0650 C   0  0  0  0  0  0  0  0  0  0  0  0
  1  2  1  0
  2  3  1  0
  3  4  1  0
  4  5  2  0
  4 17  1  0
  5  6  1  0
  6  7  1  0
  7  8  1  0
  7 16  1  0
  8  9  2  0
  8 13  1  0
  9 10  1  0
 10 11  2  0
 10 12  1  0
 12 13  1  0
 13 14  1  6
 14 15  1  0
 16 17  1  0
M  END
