
     RDKit          3D

 17 18  0  0  0  0  0  0  0  0999 V2000
    4.6350    2.0710    3.0360 C   0  0  0  0  0  0  0  0  0  0  0  0
    3.2180    3.1100    2.6730 S   0  0  0  0  0  0  0  0  0  0  0  0
    1.9000    2.1180    1.9800 C   0  0  0  0  0  0  0  0  0  0  0  0
    2.1320    1.0670    1.2140 C   0  0  0  0  0  0  0  0  0  0  0  0
    1.0210    0.2790    0.6650 C   0  0  1  0  0  0  0  0  0  0  0  0
    0.9250    0.3180   -0.8450 C   0  0  0  0  0  0  0  0  0  0  0  0
    0.6140   -1.0370   -1.4210 C   0  0  0  0  0  0  0  0  0  0  0  0
   -0.3160   -1.8130   -0.7080 N   0  0  0  0  0  0  0  0  0  0  0  0
   -1.5930   -2.0580   -1.2490 C   0  0  0  0  0  0  0  0  0  0  0  0
   -2.4530   -0.8990   -1.4470 N   0  0  0  0  0  0  0  0  0  0  0  0
   -2.3070    0.2040   -2.3220 C   0  0  0  0  0  0  0  0  0  0  0  0
   -3.3150    1.0590   -2.1860 C   0  0  0  0  0  0  0  0  0  0  0  0
   -4.2550    0.5700   -1.1600 C   0  0  0  0  0  0  0  0  0  0  0  0
   -3.6590   -0.6960   -0.7130 C   0  0  0  0  0  0  0  0  0  0  0  0
   -4.2990   -1.6830    0.4360 S   0  0  0  0  0  0  0  0  0  0  0  0
   -0.2430   -1.7950    0.7120 C   0  0  0  0  0  0  0  0  0  0  0  0
    1.0690   -1.1760    1.1260 C   0  0  0  0  0  0  0  0  0  0  0  0
  1  2  1  0
  2  3  1  0
  3  4  2  3
  5  4  1  6
  5  6  1  0
  5 17  1  0
  6  7  1  0
  7  8  1  0
  8  9  1  0
  8 16  1  0
  9 10  1  0
 10 11  1  0
 10 14  1  0
 11 12  2  0
 12 13  1  0
 13 14  1  0
 14 15  2  0
 16 17  1  0
M  END
