
     RDKit          3D

 17 18  0  0  0  0  0  0  0  0999 V2000
   -3.6030   -2.4270    0.8640 C   0  0  0  0  0  0  0  0  0  0  0  0
   -3.3260   -1.1400    1.6070 C   0  0  0  0  0  0  0  0  0  0  0  0
   -1.9090   -0.6250    1.3380 C   0  0  0  0  0  0  0  0  0  0  0  0
   -1.8060   -0.3890   -0.1250 C   0  0  0  0  0  0  0  0  0  0  0  0
   -0.5460    0.1290   -0.6020 N   0  0  0  0  0  0  0  0  0  0  0  0
   -0.5160    1.4340   -1.1730 C   0  0  0  0  0  0  0  0  0  0  0  0
   -1.9270    2.5190   -1.0250 S   0  0  0  0  0  0  0  0  0  0  0  0
   -1.6640    4.1010   -1.8130 C   0  0  0  0  0  0  0  0  0  0  0  0
    0.5590    1.8530   -1.8180 C   0  0  0  0  0  0  0  0  0  0  0  0
    1.7250    1.0490   -1.9630 N   0  0  0  0  0  0  0  0  0  0  0  0
    1.7510   -0.1160   -1.4350 C   0  0  0  0  0  0  0  0  0  0  0  0
    3.2930   -0.9360   -1.7680 S   0  0  0  0  0  0  0  0  0  0  0  0
    4.4530   -0.9290   -0.4150 C   0  0  0  0  0  0  0  0  0  0  0  0
    3.7540   -0.9550    0.9460 C   0  0  0  0  0  0  0  0  0  0  0  0
    2.5970    0.0400    0.9270 C   0  0  0  0  0  0  0  0  0  0  0  0
    1.2640   -0.6300    0.8490 C   0  0  0  0  0  0  0  0  0  0  0  0
    0.6710   -0.6540   -0.5590 C   0  0  1  0  0  0  0  0  0  0  0  0
  1  2  1  0
  2  3  1  0
  3  4  1  0
  4  5  1  0
  5  6  1  0
  5 17  1  0
  6  7  1  0
  6  9  2  0
  7  8  1  0
  9 10  1  0
 10 11  2  0
 11 12  1  0
 11 17  1  0
 12 13  1  0
 13 14  1  0
 14 15  1  0
 15 16  1  0
 17 16  1  1
M  END
