
     RDKit          3D

 17 18  0  0  0  0  0  0  0  0999 V2000
    2.1760    3.5570   -0.7700 C   0  0  0  0  0  0  0  0  0  0  0  0
    2.4340    2.1000   -0.4720 C   0  0  0  0  0  0  0  0  0  0  0  0
    1.3600    1.3510   -0.3260 C   0  0  0  0  0  0  0  0  0  0  0  0
   -0.3320    2.0110   -0.4730 S   0  0  0  0  0  0  0  0  0  0  0  0
   -1.0620    0.2930   -0.1740 C   0  0  0  0  0  0  0  0  0  0  0  0
   -2.5360    0.1820   -0.1920 N   0  0  0  0  0  0  0  0  0  0  0  0
   -3.0000   -0.6440   -1.2810 C   0  0  0  0  0  0  0  0  0  0  0  0
   -4.4520   -0.9250   -1.3060 C   0  0  0  0  0  0  0  0  0  0  0  0
   -5.0110   -1.3030    0.3880 S   0  0  0  0  0  0  0  0  0  0  0  0
   -4.4100    0.0570    1.4290 C   0  0  0  0  0  0  0  0  0  0  0  0
   -3.3140    0.8560    0.7820 C   0  0  0  0  0  0  0  0  0  0  0  0
   -0.1130   -0.3130   -0.0470 N   0  0  0  0  0  0  0  0  0  0  0  0
    1.1700    0.0010   -0.0820 C   0  0  0  0  0  0  0  0  0  0  0  0
    2.1260   -0.8880    0.1450 C   0  0  0  0  0  0  0  0  0  0  0  0
    1.7310   -2.3320    0.3830 C   0  0  0  0  0  0  0  0  0  0  0  0
    3.5670   -0.6380    0.2130 C   0  0  0  0  0  0  0  0  0  0  0  0
    4.2750   -1.8830    0.7860 C   0  0  0  0  0  0  0  0  0  0  0  0
  1  2  1  0
  2  3  2  3
  3  4  1  0
  3 13  1  0
  4  5  1  0
  5  6  1  0
  5 12  2  0
  6  7  1  0
  6 11  1  0
  7  8  1  0
  8  9  1  0
  9 10  1  0
 10 11  1  0
 12 13  1  0
 13 14  2  3
 14 15  1  0
 14 16  1  0
 16 17  1  0
M  END
