
     RDKit          3D

 16 17  0  0  0  0  0  0  0  0999 V2000
   -4.4710   -1.2480   -0.1220 C   0  0  0  0  0  0  0  0  0  0  0  0
   -3.6730   -0.0120    0.0270 C   0  0  2  0  0  0  0  0  0  0  0  0
   -3.8840    0.7050    1.3160 C   0  0  0  0  0  0  0  0  0  0  0  0
   -3.8520    0.9500   -1.1670 C   0  0  0  0  0  0  0  0  0  0  0  0
   -2.1600   -0.3320   -0.0040 C   0  0  0  0  0  0  0  0  0  0  0  0
   -1.1420    0.2000    0.2350 N   0  0  0  0  0  0  0  0  0  0  0  0
    0.0630   -0.2880    0.0290 C   0  0  0  0  0  0  0  0  0  0  0  0
    1.2500    0.5550    0.4470 C   0  0  0  0  0  0  0  0  0  0  0  0
    2.4710    0.1700   -0.1300 N   0  0  0  0  0  0  0  0  0  0  0  0
    3.0090   -1.0900    0.2120 C   0  0  0  0  0  0  0  0  0  0  0  0
    4.3330   -0.9780    0.9900 C   0  0  0  0  0  0  0  0  0  0  0  0
    5.5010   -0.2790   -0.2120 S   0  0  0  0  0  0  0  0  0  0  0  0
    4.5700    1.1090   -0.9750 C   0  0  0  0  0  0  0  0  0  0  0  0
    3.3650    1.3050   -0.0620 C   0  0  0  0  0  0  0  0  0  0  0  0
    0.1550   -1.5110   -0.4890 C   0  0  0  0  0  0  0  0  0  0  0  0
   -1.6200   -1.9640   -0.6780 S   0  0  0  0  0  0  0  0  0  0  0  0
  2  1  1  6
  2  3  1  0
  2  4  1  0
  2  5  1  0
  5  6  2  0
  5 16  1  0
  6  7  1  0
  7  8  1  0
  7 15  2  0
  8  9  1  0
  9 10  1  0
  9 14  1  0
 10 11  1  0
 11 12  1  0
 12 13  1  0
 13 14  1  0
 15 16  1  0
M  END
