
     RDKit          3D

 31 34  0  0  0  0  0  0  0  0999 V2000
   -3.3110   -1.1530   -4.5150 C   0  0  0  0  0  0  0  0  0  0  0  0
   -2.9050   -1.2490   -3.0720 C   0  0  0  0  0  0  0  0  0  0  0  0
   -3.6130   -0.6530   -2.1040 N   0  0  0  0  0  0  0  0  0  0  0  0
   -3.2720   -0.7190   -0.7730 C   0  0  0  0  0  0  0  0  0  0  0  0
   -4.0550    0.0840    0.1600 C   0  0  0  0  0  0  0  0  0  0  0  0
   -3.7610    0.5800    1.3860 C   0  0  0  0  0  0  0  0  0  0  0  0
   -4.8950    1.2910    1.8240 C   0  0  0  0  0  0  0  0  0  0  0  0
   -5.8190    1.1810    0.8200 C   0  0  0  0  0  0  0  0  0  0  0  0
   -7.1960    1.7960    0.8610 C   0  0  2  0  0  0  0  0  0  0  0  0
   -8.2180    0.7180    0.5730 C   0  0  0  0  0  0  0  0  0  0  0  0
   -7.2470    2.7630   -0.3290 C   0  0  0  0  0  0  0  0  0  0  0  0
   -5.3110    0.4730   -0.1440 O   0  0  0  0  0  0  0  0  0  0  0  0
   -2.1630   -1.4370   -0.4800 C   0  0  0  0  0  0  0  0  0  0  0  0
   -1.7750   -1.6980    0.8350 N   0  0  0  0  0  0  0  0  0  0  0  0
   -0.4820   -2.2740    1.1170 C   0  0  0  0  0  0  0  0  0  0  0  0
    0.5010   -1.3390    0.6090 N   0  0  0  0  0  0  0  0  0  0  0  0
    0.4160   -0.0520    1.2230 C   0  0  0  0  0  0  0  0  0  0  0  0
    1.8110    0.3870    1.5920 C   0  0  0  0  0  0  0  0  0  0  0  0
    2.6950    0.3770    0.4570 N   0  0  1  0  0  0  0  0  0  0  0  0
    4.0500    0.5490    0.9300 C   0  0  0  0  0  0  0  0  0  0  0  0
    4.6410    1.7850    0.2790 C   0  0  0  0  0  0  0  0  0  0  0  0
    5.9880    1.9400    0.7600 N   0  0  0  0  0  0  0  0  0  0  0  0
    7.0030    1.0160    0.4030 C   0  0  0  0  0  0  0  0  0  0  0  0
    7.3110   -0.0490    1.1190 C   0  0  0  0  0  0  0  0  0  0  0  0
    8.4080   -0.7640    0.4330 C   0  0  0  0  0  0  0  0  0  0  0  0
    8.6720    0.0560   -0.7730 C   0  0  0  0  0  0  0  0  0  0  0  0
    7.8450    1.0950   -0.7820 C   0  0  0  0  0  0  0  0  0  0  0  0
    2.6250   -0.8340   -0.3140 C   0  0  0  0  0  0  0  0  0  0  0  0
    1.8210   -1.8690    0.4770 C   0  0  0  0  0  0  0  0  0  0  0  0
   -1.4250   -2.0550   -1.4910 C   0  0  0  0  0  0  0  0  0  0  0  0
   -1.8110   -1.9470   -2.7510 N   0  0  0  0  0  0  0  0  0  0  0  0
  1  2  1  0
  2  3  2  0
  2 31  1  0
  3  4  1  0
  4  5  1  0
  4 13  2  0
  5  6  2  0
  5 12  1  0
  6  7  1  0
  7  8  2  0
  8  9  1  0
  8 12  1  0
  9 10  1  6
  9 11  1  0
 13 14  1  0
 13 30  1  0
 14 15  1  0
 15 16  1  0
 16 17  1  0
 16 29  1  0
 17 18  1  0
 18 19  1  0
 19 20  1  1
 19 28  1  0
 20 21  1  0
 21 22  1  0
 22 23  1  0
 23 24  2  0
 23 27  1  0
 24 25  1  0
 25 26  1  0
 26 27  2  0
 28 29  1  0
 30 31  2  0
M  CHG  2  19   1  31   1
M  END
