
     RDKit          3D

 31 34  0  0  0  0  0  0  0  0999 V2000
   -4.4350    1.1610    3.6650 C   0  0  0  0  0  0  0  0  0  0  0  0
   -5.0420    0.0940    2.8330 C   0  0  0  0  0  0  0  0  0  0  0  0
   -4.3590   -0.4240    1.7990 C   0  0  0  0  0  0  0  0  0  0  0  0
   -3.0490    0.0720    1.5260 N   0  0  0  0  0  0  0  0  0  0  0  0
   -2.6930    1.4130    1.4680 N   0  0  0  0  0  0  0  0  0  0  0  0
   -1.4180    1.5270    1.2280 C   0  0  0  0  0  0  0  0  0  0  0  0
   -0.3330    2.4900    1.0310 C   0  0  0  0  0  0  0  0  0  0  0  0
   -0.4260    3.7340    1.0620 O   0  0  0  0  0  0  0  0  0  0  0  0
    0.8160    1.7020    0.8030 N   0  0  0  0  0  0  0  0  0  0  0  0
    2.1080    2.2700    0.5630 C   0  0  0  0  0  0  0  0  0  0  0  0
    2.8030    2.9110    1.5780 C   0  0  0  0  0  0  0  0  0  0  0  0
    4.0440    3.4710    1.3760 C   0  0  0  0  0  0  0  0  0  0  0  0
    4.6550    3.4150    0.1380 C   0  0  0  0  0  0  0  0  0  0  0  0
    5.9980    4.0190   -0.0940 C   0  0  0  0  0  0  0  0  0  0  0  0
    3.9610    2.7760   -0.8730 C   0  0  0  0  0  0  0  0  0  0  0  0
    2.7130    2.2130   -0.6720 C   0  0  0  0  0  0  0  0  0  0  0  0
    0.4830    0.3050    0.8510 C   0  0  0  0  0  0  0  0  0  0  0  0
    1.4360   -0.6900    0.6660 N   0  0  0  0  0  0  0  0  0  0  0  0
    1.6180   -1.5220   -0.2460 C   0  0  0  0  0  0  0  0  0  0  0  0
    2.7240   -2.4670   -0.1720 C   0  0  0  0  0  0  0  0  0  0  0  0
    2.9760   -3.3640   -1.0850 C   0  0  0  0  0  0  0  0  0  0  0  0
    2.2610   -3.5930   -2.2790 N   0  0  0  0  0  0  0  0  0  0  0  0
   -0.8120    0.2150    1.0970 C   0  0  0  0  0  0  0  0  0  0  0  0
   -1.8990   -0.7910    1.2730 C   0  0  2  0  0  0  0  0  0  0  0  0
   -2.1080   -1.5140    0.0060 C   0  0  0  0  0  0  0  0  0  0  0  0
   -1.8850   -2.8580   -0.0690 C   0  0  0  0  0  0  0  0  0  0  0  0
   -2.0810   -3.5220   -1.2720 C   0  0  0  0  0  0  0  0  0  0  0  0
   -2.4890   -2.8540   -2.3670 N   0  0  0  0  0  0  0  0  0  0  0  0
   -2.7160   -1.5240   -2.3160 C   0  0  0  0  0  0  0  0  0  0  0  0
   -3.1610   -0.8470   -3.5550 C   0  0  0  0  0  0  0  0  0  0  0  0
   -2.5230   -0.8360   -1.1090 C   0  0  0  0  0  0  0  0  0  0  0  0
  1  2  1  0
  2  3  2  3
  3  4  1  0
  4  5  1  0
  4 24  1  0
  5  6  2  0
  6  7  1  0
  6 23  1  0
  7  8  2  0
  7  9  1  0
  9 10  1  0
  9 17  1  0
 10 11  2  0
 10 16  1  0
 11 12  1  0
 12 13  2  0
 13 14  1  0
 13 15  1  0
 15 16  2  0
 17 18  1  0
 17 23  2  0
 18 19  2  3
 19 20  1  0
 20 21  2  3
 21 22  1  0
 23 24  1  0
 24 25  1  6
 25 26  2  0
 25 31  1  0
 26 27  1  0
 27 28  2  0
 28 29  1  0
 29 30  1  0
 29 31  2  0
M  CHG  2  22   1  28   1
M  END
