
     RDKit          3D

 31 34  0  0  0  0  0  0  0  0999 V2000
   -4.4090    0.0200   -1.9060 C   0  0  0  0  0  0  0  0  0  0  0  0
   -3.3170   -0.4200   -0.9670 C   0  0  0  0  0  0  0  0  0  0  0  0
   -2.6770   -1.5340   -1.1570 C   0  0  0  0  0  0  0  0  0  0  0  0
   -3.1500   -2.5220   -2.5940 Cl  0  0  0  0  0  0  0  0  0  0  0  0
   -1.6280   -2.0580   -0.2790 C   0  0  2  0  0  0  0  0  0  0  0  0
   -1.9890   -3.4150    0.2110 C   0  0  0  0  0  0  0  0  0  0  0  0
   -2.1660   -3.7790    1.4560 C   0  0  0  0  0  0  0  0  0  0  0  0
   -2.5060   -5.1940    1.4550 C   0  0  0  0  0  0  0  0  0  0  0  0
   -2.7000   -6.0340    2.5170 O   0  0  0  0  0  0  0  0  0  0  0  0
   -2.5940   -5.5270    0.2020 C   0  0  0  0  0  0  0  0  0  0  0  0
   -2.2120   -4.5670   -0.6290 C   0  0  0  0  0  0  0  0  0  0  0  0
   -1.2340   -1.1790    0.7500 N   0  0  0  0  0  0  0  0  0  0  0  0
   -0.0890   -1.4670    1.6330 C   0  0  0  0  0  0  0  0  0  0  0  0
    1.1490   -0.8790    0.9920 C   0  0  0  0  0  0  0  0  0  0  0  0
    2.0260   -1.0900    0.2630 N   0  0  0  0  0  0  0  0  0  0  0  0
    3.0160   -0.3200   -0.1180 C   0  0  0  0  0  0  0  0  0  0  0  0
    3.0550    0.9420    0.4080 C   0  0  0  0  0  0  0  0  0  0  0  0
    1.5880    0.9090    1.4570 S   0  0  0  0  0  0  0  0  0  0  0  0
    3.9830    2.0100    0.2060 C   0  0  0  0  0  0  0  0  0  0  0  0
    5.1290    1.6300   -0.7040 C   0  0  2  0  0  0  0  0  0  0  0  0
    6.4150    2.2940   -0.2410 C   0  0  0  0  0  0  0  0  0  0  0  0
    4.8520    2.1090   -2.0980 C   0  0  0  0  0  0  0  0  0  0  0  0
    5.3490    0.1360   -0.6410 C   0  0  0  0  0  0  0  0  0  0  0  0
    4.1440   -0.6440   -1.0790 C   0  0  0  0  0  0  0  0  0  0  0  0
   -1.9010    0.0310    1.0020 C   0  0  0  0  0  0  0  0  0  0  0  0
   -1.6000    0.7840    1.9680 O   0  0  0  0  0  0  0  0  0  0  0  0
   -3.0150    0.5090    0.1420 C   0  0  0  0  0  0  0  0  0  0  0  0
   -3.6210    1.5320    0.3050 N   0  0  0  0  0  0  0  0  0  0  0  0
   -4.2010    2.6410    0.5690 N   0  0  0  0  0  0  0  0  0  0  0  0
   -3.6330    3.6220    1.5080 C   0  0  0  0  0  0  0  0  0  0  0  0
   -5.4810    3.0650   -0.0210 C   0  0  0  0  0  0  0  0  0  0  0  0
  1  2  1  0
  2  3  2  0
  2 27  1  0
  3  4  1  0
  3  5  1  0
  5  6  1  1
  5 12  1  0
  6  7  2  0
  6 11  1  0
  7  8  1  0
  8  9  1  0
  8 10  2  0
 10 11  2  0
 12 13  1  0
 12 25  1  0
 13 14  1  0
 14 15  2  0
 14 18  1  0
 15 16  1  0
 16 17  2  0
 16 24  1  0
 17 18  1  0
 17 19  1  0
 19 20  1  0
 20 21  1  1
 20 22  1  0
 20 23  1  0
 23 24  1  0
 25 26  2  0
 25 27  1  0
 27 28  2  3
 28 29  1  0
 29 30  1  0
 29 31  1  0
M  END
