
     RDKit          3D

 31 35  0  0  0  0  0  0  0  0999 V2000
    6.2320   -3.0740   -0.5930 C   0  0  0  0  0  0  0  0  0  0  0  0
    6.8310   -1.9410    0.1560 C   0  0  0  0  0  0  0  0  0  0  0  0
    6.4660   -0.5560   -0.1610 C   0  0  0  0  0  0  0  0  0  0  0  0
    7.3090    0.3240   -0.7510 N   0  0  0  0  0  0  0  0  0  0  0  0
    6.7710    1.4590   -0.8610 O   0  0  0  0  0  0  0  0  0  0  0  0
    5.5410    1.4460   -0.3700 C   0  0  0  0  0  0  0  0  0  0  0  0
    4.6510    2.6660   -0.3440 C   0  0  0  0  0  0  0  0  0  0  0  0
    5.2990    0.1800    0.0830 C   0  0  0  0  0  0  0  0  0  0  0  0
    4.1520   -0.4240    0.7610 C   0  0  0  0  0  0  0  0  0  0  0  0
    2.9130    0.3230    0.7120 N   0  0  1  0  0  0  0  0  0  0  0  0
    2.4530    0.1660   -0.6870 C   0  0  0  0  0  0  0  0  0  0  0  0
    1.2110    0.8840   -0.9360 C   0  0  0  0  0  0  0  0  0  0  0  0
    0.1420    0.4860    0.0080 N   0  0  0  0  0  0  0  0  0  0  0  0
   -0.9490    1.2940   -0.3470 C   0  0  0  0  0  0  0  0  0  0  0  0
   -2.2820    1.0310    0.1320 C   0  0  0  0  0  0  0  0  0  0  0  0
   -3.0980    1.9040    0.7840 C   0  0  0  0  0  0  0  0  0  0  0  0
   -4.4820    1.6920    0.9770 C   0  0  0  0  0  0  0  0  0  0  0  0
   -5.2620    2.5350    1.6360 N   0  0  0  0  0  0  0  0  0  0  0  0
   -6.5860    2.2680    1.8370 C   0  0  0  0  0  0  0  0  0  0  0  0
   -7.1480    1.1140    1.3620 C   0  0  0  0  0  0  0  0  0  0  0  0
   -6.3620    0.2160    0.6640 C   0  0  0  0  0  0  0  0  0  0  0  0
   -5.0430    0.5160    0.4650 C   0  0  0  0  0  0  0  0  0  0  0  0
   -4.2380   -0.3510   -0.2010 C   0  0  0  0  0  0  0  0  0  0  0  0
   -2.8600   -0.1250   -0.3690 C   0  0  0  0  0  0  0  0  0  0  0  0
   -2.0060   -1.2110   -0.8720 C   0  0  0  0  0  0  0  0  0  0  0  0
   -2.7430   -2.4740   -0.8340 N   0  0  0  0  0  0  0  0  0  0  0  0
   -3.9680   -2.3980   -1.5450 C   0  0  0  0  0  0  0  0  0  0  0  0
   -4.8340   -1.3250   -1.0890 N   0  0  0  0  0  0  0  0  0  0  0  0
   -6.1510   -1.1450   -1.6100 C   0  0  0  0  0  0  0  0  0  0  0  0
    0.5830    0.4120    1.3280 C   0  0  0  0  0  0  0  0  0  0  0  0
    1.8850   -0.3850    1.4690 C   0  0  0  0  0  0  0  0  0  0  0  0
  1  2  1  0
  2  3  1  0
  3  4  2  0
  3  8  1  0
  4  5  1  0
  5  6  1  0
  6  7  1  0
  6  8  2  0
  8  9  1  0
 10  9  1  6
 10 11  1  0
 10 31  1  0
 11 12  1  0
 12 13  1  0
 13 14  1  0
 13 30  1  0
 14 15  1  0
 15 16  2  0
 15 24  1  0
 16 17  1  0
 17 18  2  0
 17 22  1  0
 18 19  1  0
 19 20  2  0
 20 21  1  0
 21 22  2  0
 22 23  1  0
 23 24  2  0
 23 28  1  0
 24 25  1  0
 25 26  1  0
 26 27  1  0
 27 28  1  0
 28 29  1  0
 30 31  1  0
M  CHG  2  10   1  18   1
M  END
