
     RDKit          3D

 31 35  0  0  0  0  0  0  0  0999 V2000
    6.1390   -0.6350    2.1350 C   0  0  0  0  0  0  0  0  0  0  0  0
    6.0230   -0.6890    0.6330 C   0  0  1  0  0  0  0  0  0  0  0  0
    7.2550   -0.2690   -0.0090 N   0  0  0  0  0  0  0  0  0  0  0  0
    8.1150   -1.4230   -0.0880 C   0  0  0  0  0  0  0  0  0  0  0  0
    7.2410   -2.6120    0.2260 C   0  0  0  0  0  0  0  0  0  0  0  0
    5.8780   -2.1030    0.2660 N   0  0  0  0  0  0  0  0  0  0  0  0
    5.2250   -2.2370   -1.0160 C   0  0  0  0  0  0  0  0  0  0  0  0
    3.8360   -1.7210   -0.9110 C   0  0  0  0  0  0  0  0  0  0  0  0
    3.3770   -0.4810   -1.2320 N   0  0  0  0  0  0  0  0  0  0  0  0
    2.0610   -0.3950   -0.9970 C   0  0  0  0  0  0  0  0  0  0  0  0
    1.1820    0.7440   -1.2010 C   0  0  0  0  0  0  0  0  0  0  0  0
    1.6930    1.9290   -1.6980 C   0  0  0  0  0  0  0  0  0  0  0  0
    0.8840    3.0270   -1.9020 C   0  0  0  0  0  0  0  0  0  0  0  0
   -0.4600    2.9410   -1.6060 C   0  0  0  0  0  0  0  0  0  0  0  0
   -1.0110    1.7700   -1.1050 C   0  0  0  0  0  0  0  0  0  0  0  0
   -2.4200    1.7130   -0.8060 C   0  0  0  0  0  0  0  0  0  0  0  0
   -3.3340    2.4440   -1.5370 C   0  0  0  0  0  0  0  0  0  0  0  0
   -4.6820    2.4320   -1.3010 C   0  0  0  0  0  0  0  0  0  0  0  0
   -5.1910    1.6530   -0.2780 C   0  0  0  0  0  0  0  0  0  0  0  0
   -6.5560    1.6200    0.0420 N   0  0  0  0  0  0  0  0  0  0  0  0
   -7.1410    0.4730    0.6300 C   0  0  0  0  0  0  0  0  0  0  0  0
   -6.6670   -0.8130    0.4790 C   0  0  0  0  0  0  0  0  0  0  0  0
   -7.2480   -1.9210    1.0940 C   0  0  0  0  0  0  0  0  0  0  0  0
   -8.3120   -1.7210    1.8590 N   0  0  0  0  0  0  0  0  0  0  0  0
   -8.8350   -0.5020    2.0550 C   0  0  0  0  0  0  0  0  0  0  0  0
   -8.2670    0.5920    1.4540 C   0  0  0  0  0  0  0  0  0  0  0  0
   -4.3080    0.9150    0.4700 C   0  0  0  0  0  0  0  0  0  0  0  0
   -2.9580    0.9450    0.2110 C   0  0  0  0  0  0  0  0  0  0  0  0
   -0.1670    0.7060   -0.9190 C   0  0  0  0  0  0  0  0  0  0  0  0
    1.7160   -1.6040   -0.5270 N   0  0  0  0  0  0  0  0  0  0  0  0
    2.7660   -2.3680   -0.4820 O   0  0  0  0  0  0  0  0  0  0  0  0
  2  1  1  1
  2  3  1  0
  2  6  1  0
  3  4  1  0
  4  5  1  0
  5  6  1  0
  6  7  1  0
  7  8  1  0
  8  9  2  0
  8 31  1  0
  9 10  1  0
 10 11  1  0
 10 30  2  0
 11 12  2  0
 11 29  1  0
 12 13  1  0
 13 14  2  0
 14 15  1  0
 15 16  1  0
 15 29  2  0
 16 17  2  0
 16 28  1  0
 17 18  1  0
 18 19  2  0
 19 20  1  0
 19 27  1  0
 20 21  1  0
 21 22  2  0
 21 26  1  0
 22 23  1  0
 23 24  2  0
 24 25  1  0
 25 26  2  0
 27 28  2  0
 30 31  1  0
M  CHG  1  24   1
M  END
