
     RDKit          3D

 31 35  0  0  0  0  0  0  0  0999 V2000
   -8.4020    2.6570    0.0970 O   0  0  0  0  0  0  0  0  0  0  0  0
   -7.9680    1.3450    0.0270 C   0  0  0  0  0  0  0  0  0  0  0  0
   -8.7240    0.3310    0.5560 C   0  0  0  0  0  0  0  0  0  0  0  0
   -8.2280   -0.9570    0.4500 C   0  0  0  0  0  0  0  0  0  0  0  0
   -7.0540   -1.2400   -0.1420 N   0  0  0  0  0  0  0  0  0  0  0  0
   -6.2920   -0.2460   -0.6710 C   0  0  0  0  0  0  0  0  0  0  0  0
   -4.9930   -0.5480   -1.3310 C   0  0  0  0  0  0  0  0  0  0  0  0
   -3.8970   -0.6500   -0.4170 N   0  0  0  0  0  0  0  0  0  0  0  0
   -2.6910   -0.9430   -1.1120 C   0  0  0  0  0  0  0  0  0  0  0  0
   -1.6400    0.1450   -1.0470 C   0  0  0  0  0  0  0  0  0  0  0  0
   -1.3960    0.4200    0.3910 C   0  0  0  0  0  0  0  0  0  0  0  0
   -2.5170    0.5530    1.1800 C   0  0  0  0  0  0  0  0  0  0  0  0
   -2.0700    0.7990    2.4490 C   0  0  0  0  0  0  0  0  0  0  0  0
   -0.7270    0.8050    2.3800 N   0  0  0  0  0  0  0  0  0  0  0  0
   -0.3100    0.5780    1.1480 N   0  0  0  0  0  0  0  0  0  0  0  0
    1.0730    0.5170    0.7290 C   0  0  0  0  0  0  0  0  0  0  0  0
    2.0120   -0.1150    1.5190 C   0  0  0  0  0  0  0  0  0  0  0  0
    3.3430   -0.1990    1.1620 C   0  0  0  0  0  0  0  0  0  0  0  0
    3.7480    0.3800   -0.0440 C   0  0  0  0  0  0  0  0  0  0  0  0
    5.1160    0.3010   -0.4220 N   0  0  0  0  0  0  0  0  0  0  0  0
    6.0920   -0.3650    0.4140 C   0  0  0  0  0  0  0  0  0  0  0  0
    7.4470   -0.3150   -0.1910 C   0  0  0  0  0  0  0  0  0  0  0  0
    7.8360   -1.3330   -1.0420 C   0  0  0  0  0  0  0  0  0  0  0  0
    9.0770   -1.2890   -1.5970 C   0  0  0  0  0  0  0  0  0  0  0  0
    9.9240   -0.2950   -1.3420 N   0  0  0  0  0  0  0  0  0  0  0  0
    9.5770    0.7110   -0.5170 C   0  0  0  0  0  0  0  0  0  0  0  0
    8.3330    0.7120    0.0680 C   0  0  0  0  0  0  0  0  0  0  0  0
    2.7990    1.0070   -0.8210 C   0  0  0  0  0  0  0  0  0  0  0  0
    1.4720    1.0850   -0.4560 C   0  0  0  0  0  0  0  0  0  0  0  0
   -3.8580    0.4120    0.5290 C   0  0  0  0  0  0  0  0  0  0  0  0
   -6.7710    1.0280   -0.5730 C   0  0  0  0  0  0  0  0  0  0  0  0
  1  2  1  0
  2  3  2  0
  2 31  1  0
  3  4  1  0
  4  5  2  0
  5  6  1  0
  6  7  1  0
  6 31  2  0
  7  8  1  0
  8  9  1  0
  8 30  1  0
  9 10  1  0
 10 11  1  0
 11 12  2  0
 11 15  1  0
 12 13  1  0
 12 30  1  0
 13 14  2  0
 14 15  1  0
 15 16  1  0
 16 17  2  0
 16 29  1  0
 17 18  1  0
 18 19  2  0
 19 20  1  0
 19 28  1  0
 20 21  1  0
 21 22  1  0
 22 23  2  0
 22 27  1  0
 23 24  1  0
 24 25  2  0
 25 26  1  0
 26 27  2  0
 28 29  2  0
M  CHG  1  14   1
M  END
