
     RDKit          3D

 22 22  0  0  0  0  0  0  0  0999 V2000
    3.4850   -3.8400   -1.6910 C   0  0  0  0  0  0  0  0  0  0  0  0
    2.4620   -3.4660   -0.7840 O   0  0  0  0  0  0  0  0  0  0  0  0
    2.4180   -2.1940   -0.2390 C   0  0  0  0  0  0  0  0  0  0  0  0
    3.3500   -1.4030   -0.6110 O   0  0  0  0  0  0  0  0  0  0  0  0
    1.4260   -1.7620    0.6680 N   0  0  0  0  0  0  0  0  0  0  0  0
    1.4720   -0.4200    1.1740 C   0  0  2  0  0  0  0  0  0  0  0  0
    1.5310   -0.5250    2.5710 F   0  0  0  0  0  0  0  0  0  0  0  0
    0.1990    0.3540    0.8800 C   0  0  1  0  0  0  0  0  0  0  0  0
    0.4140    1.7510    1.4400 C   0  0  0  0  0  0  0  0  0  0  0  0
   -0.7230    2.5670    1.2380 O   0  0  0  0  0  0  0  0  0  0  0  0
   -0.6480    3.8710    1.7090 C   0  0  0  0  0  0  0  0  0  0  0  0
    0.3980    4.2830    2.2850 O   0  0  0  0  0  0  0  0  0  0  0  0
   -1.7000    4.7780    1.5740 O   0  0  0  0  0  0  0  0  0  0  0  0
   -0.0510    0.4540   -0.4980 O   0  0  0  0  0  0  0  0  0  0  0  0
   -1.4220    0.1950   -0.7480 C   0  0  0  0  0  0  0  0  0  0  0  0
   -2.0370    0.3480   -1.8990 C   0  0  0  0  0  0  0  0  0  0  0  0
   -3.4360    0.0800   -2.1440 C   0  0  0  0  0  0  0  0  0  0  0  0
   -4.1910   -0.3310   -1.2460 O   0  0  0  0  0  0  0  0  0  0  0  0
   -4.0210    0.2680   -3.4030 O   0  0  0  0  0  0  0  0  0  0  0  0
   -1.9890   -0.2520    0.4560 N   0  0  0  0  0  0  0  0  0  0  0  0
   -0.9850   -0.2780    1.4740 C   0  0  0  0  0  0  0  0  0  0  0  0
   -1.1250   -0.7450    2.6080 O   0  0  0  0  0  0  0  0  0  0  0  0
  1  2  1  0
  2  3  1  0
  3  4  2  0
  3  5  1  0
  5  6  1  0
  6  7  1  1
  6  8  1  0
  8  9  1  1
  8 14  1  0
  8 21  1  0
  9 10  1  0
 10 11  1  0
 11 12  2  0
 11 13  1  0
 14 15  1  0
 15 16  2  3
 15 20  1  0
 16 17  1  0
 17 18  2  0
 17 19  1  0
 20 21  1  0
 21 22  2  0
M  END
