
     RDKit          3D

 22 23  0  0  0  0  0  0  0  0999 V2000
    4.3820    1.6610    2.3860 O   0  0  0  0  0  0  0  0  0  0  0  0
    4.8490    1.3980    1.2360 C   0  0  0  0  0  0  0  0  0  0  0  0
    6.1560    1.7430    0.9380 O   0  0  0  0  0  0  0  0  0  0  0  0
    4.0470    0.7520    0.2470 N   0  0  0  0  0  0  0  0  0  0  0  0
    2.7060    0.3950    0.5470 C   0  0  0  0  0  0  0  0  0  0  0  0
    2.2640    0.6640    1.6900 O   0  0  0  0  0  0  0  0  0  0  0  0
    1.9150   -0.2730   -0.5130 C   0  0  0  0  0  0  0  0  0  0  0  0
    0.5090   -0.5930   -0.0510 C   0  0  1  0  0  0  0  0  0  0  0  0
   -0.2660    0.6030    0.3480 C   0  0  0  0  0  0  0  0  0  0  0  0
   -1.6820    0.3630   -0.2090 C   0  0  2  0  0  0  0  0  0  0  0  0
   -2.3730   -0.2640    0.7710 O   0  0  0  0  0  0  0  0  0  0  0  0
   -3.5340    0.3680    1.1070 C   0  0  0  0  0  0  0  0  0  0  0  0
   -4.5940    0.4620    0.0550 C   0  0  0  0  0  0  0  0  0  0  0  0
   -4.2710    1.1230   -1.0940 O   0  0  0  0  0  0  0  0  0  0  0  0
   -1.3800   -0.5020   -1.3820 C   0  0  0  0  0  0  0  0  0  0  0  0
   -2.0460   -0.5080   -2.4730 O   0  0  0  0  0  0  0  0  0  0  0  0
   -0.2590   -1.2690   -1.0420 N   0  0  0  0  0  0  0  0  0  0  0  0
    0.2210   -2.5490   -1.5000 C   0  0  1  0  0  0  0  0  0  0  0  0
    1.0450   -2.3780   -2.6130 F   0  0  0  0  0  0  0  0  0  0  0  0
    0.9340   -3.1070   -0.4380 O   0  0  0  0  0  0  0  0  0  0  0  0
    0.2990   -2.7220    0.6650 O   0  0  0  0  0  0  0  0  0  0  0  0
    0.6590   -1.5110    1.0240 O   0  0  0  0  0  0  0  0  0  0  0  0
  1  2  2  0
  2  3  1  0
  2  4  1  0
  4  5  1  0
  5  6  2  0
  5  7  1  0
  8  7  1  6
  8  9  1  0
  8 17  1  0
  8 22  1  0
  9 10  1  0
 10 11  1  1
 10 15  1  0
 11 12  1  0
 12 13  1  0
 13 14  1  0
 15 16  2  0
 15 17  1  0
 17 18  1  0
 18 19  1  6
 18 20  1  0
 20 21  1  0
 21 22  1  0
M  END
