
     RDKit          3D

 22 22  0  0  0  0  0  0  0  0999 V2000
   -0.7950   -3.4160   -1.3470 O   0  0  0  0  0  0  0  0  0  0  0  0
   -1.1400   -2.2750   -0.8080 C   0  0  0  0  0  0  0  0  0  0  0  0
   -2.5120   -2.1870   -0.2600 C   0  0  0  0  0  0  0  0  0  0  0  0
   -3.0650   -0.9630   -0.5290 O   0  0  0  0  0  0  0  0  0  0  0  0
   -3.5980   -0.3850    0.6130 C   0  0  0  0  0  0  0  0  0  0  0  0
   -4.1390    0.9600    0.2900 C   0  0  0  0  0  0  0  0  0  0  0  0
   -4.0700    1.3070   -1.1430 N   0  0  0  0  0  0  0  0  0  0  0  0
   -2.8790    1.3050   -1.9100 C   0  0  0  0  0  0  0  0  0  0  0  0
   -2.9290    0.9190   -3.1500 O   0  0  0  0  0  0  0  0  0  0  0  0
   -1.5950    1.6510   -1.4350 O   0  0  0  0  0  0  0  0  0  0  0  0
   -1.2670    1.4870   -0.1870 O   0  0  0  0  0  0  0  0  0  0  0  0
    0.0930    1.1150   -0.0840 C   0  0  0  0  0  0  0  0  0  0  0  0
    0.2670   -0.3320    0.1830 C   0  0  2  0  0  0  0  0  0  0  0  0
   -0.1570   -0.6500    1.4860 F   0  0  0  0  0  0  0  0  0  0  0  0
    1.8080   -0.5300    0.2730 C   0  0  0  0  0  0  0  0  0  0  0  0
    2.3110   -1.6410    0.4810 O   0  0  0  0  0  0  0  0  0  0  0  0
    2.6460    0.4980    0.1260 O   0  0  0  0  0  0  0  0  0  0  0  0
    3.9350    0.7890    0.1250 C   0  0  0  0  0  0  0  0  0  0  0  0
    5.0110   -0.3290    0.1030 C   0  0  0  0  0  0  0  0  0  0  0  0
    6.1490    0.3580   -0.0440 O   0  0  0  0  0  0  0  0  0  0  0  0
    6.6250    0.9390    1.0940 O   0  0  0  0  0  0  0  0  0  0  0  0
   -0.1680   -1.2730   -0.7940 N   0  0  0  0  0  0  0  0  0  0  0  0
  1  2  2  0
  2  3  1  0
  2 22  1  0
  3  4  1  0
  4  5  1  0
  5  6  1  0
  6  7  1  0
  7  8  1  0
  8  9  2  0
  8 10  1  0
 10 11  1  0
 11 12  1  0
 12 13  1  0
 13 14  1  1
 13 15  1  0
 13 22  1  0
 15 16  2  0
 15 17  1  0
 17 18  1  0
 18 19  1  0
 19 20  1  0
 20 21  1  0
M  END
