
     RDKit          3D

 22 22  0  0  0  0  0  0  0  0999 V2000
   -2.2590    1.6200    2.7220 O   0  0  0  0  0  0  0  0  0  0  0  0
   -2.0660    1.4550    1.4600 C   0  0  0  0  0  0  0  0  0  0  0  0
   -3.2220    1.0280    0.7490 N   0  0  0  0  0  0  0  0  0  0  0  0
   -3.2100    0.0820   -0.3400 C   0  0  0  0  0  0  0  0  0  0  0  0
   -2.4160   -1.1530   -0.0880 C   0  0  0  0  0  0  0  0  0  0  0  0
   -1.4560   -1.0230    0.9200 O   0  0  0  0  0  0  0  0  0  0  0  0
   -0.4260   -1.8930    1.1950 C   0  0  0  0  0  0  0  0  0  0  0  0
   -0.2210   -2.3370    2.3880 O   0  0  0  0  0  0  0  0  0  0  0  0
    0.4910   -2.3770    0.2180 N   0  0  0  0  0  0  0  0  0  0  0  0
    1.1830   -1.6060   -0.7390 C   0  0  0  0  0  0  0  0  0  0  0  0
    1.1760   -1.9970   -1.9350 O   0  0  0  0  0  0  0  0  0  0  0  0
    1.9220   -0.3570   -0.4170 C   0  0  1  0  0  0  0  0  0  0  0  0
    3.2900   -0.6730    0.1760 C   0  0  0  0  0  0  0  0  0  0  0  0
    3.1110   -1.5120    1.2810 O   0  0  0  0  0  0  0  0  0  0  0  0
    4.2520   -1.8080    1.8200 O   0  0  0  0  0  0  0  0  0  0  0  0
    2.1310    0.4720   -1.5060 O   0  0  0  0  0  0  0  0  0  0  0  0
    1.3450    1.6030   -1.6840 C   0  0  0  0  0  0  0  0  0  0  0  0
    1.8300    2.7150   -2.0910 O   0  0  0  0  0  0  0  0  0  0  0  0
   -0.1200    1.6170   -1.4180 C   0  0  2  0  0  0  0  0  0  0  0  0
   -0.8040    2.0580   -2.5550 F   0  0  0  0  0  0  0  0  0  0  0  0
   -0.5070    2.4180   -0.2180 C   0  0  0  0  0  0  0  0  0  0  0  0
   -0.8390    1.6850    0.9020 O   0  0  0  0  0  0  0  0  0  0  0  0
  1  2  2  0
  2  3  1  0
  2 22  1  0
  3  4  1  0
  4  5  1  0
  5  6  1  0
  6  7  1  0
  7  8  2  0
  7  9  1  0
  9 10  1  0
 10 11  2  0
 10 12  1  0
 12 13  1  6
 12 16  1  0
 13 14  1  0
 14 15  1  0
 16 17  1  0
 17 18  2  0
 17 19  1  0
 19 20  1  6
 19 21  1  0
 21 22  1  0
M  END
