
     RDKit          3D

 22 22  0  0  0  0  0  0  0  0999 V2000
    4.6970   -1.0390    1.3480 O   0  0  0  0  0  0  0  0  0  0  0  0
    4.9280    0.0810    1.4830 C   0  0  0  0  0  0  0  0  0  0  0  0
    3.6940    1.1890    0.9740 N   0  0  0  0  0  0  0  0  0  0  0  0
    2.7590    0.1310    0.5210 C   0  0  0  0  0  0  0  0  0  0  0  0
    2.8420   -1.0340    0.3990 O   0  0  0  0  0  0  0  0  0  0  0  0
    1.4840    0.8070    0.1930 N   0  0  0  0  0  0  0  0  0  0  0  0
    0.3520    0.1280   -0.2100 C   0  0  0  0  0  0  0  0  0  0  0  0
   -0.8410    0.6140   -0.5330 C   0  0  0  0  0  0  0  0  0  0  0  0
   -1.2330    2.0450   -0.5340 C   0  0  1  0  0  0  0  0  0  0  0  0
   -2.2590    2.2610    0.4120 F   0  0  0  0  0  0  0  0  0  0  0  0
   -0.2380    2.9570   -0.2690 O   0  0  0  0  0  0  0  0  0  0  0  0
    0.0520    4.0070   -1.1000 C   0  0  0  0  0  0  0  0  0  0  0  0
   -0.6440    4.1120   -2.1720 O   0  0  0  0  0  0  0  0  0  0  0  0
    1.0170    4.9540   -0.8940 O   0  0  0  0  0  0  0  0  0  0  0  0
   -1.6700   -0.4680   -0.8720 O   0  0  0  0  0  0  0  0  0  0  0  0
   -1.1860   -1.6060   -0.1930 C   0  0  1  0  0  0  0  0  0  0  0  0
   -1.6460   -2.8990   -0.7450 C   0  0  0  0  0  0  0  0  0  0  0  0
   -3.0530   -2.9770   -0.6670 O   0  0  0  0  0  0  0  0  0  0  0  0
   -3.7270   -2.9710    0.5120 C   0  0  0  0  0  0  0  0  0  0  0  0
   -3.1310   -2.8940    1.6010 O   0  0  0  0  0  0  0  0  0  0  0  0
   -5.1380   -3.0480    0.5860 O   0  0  0  0  0  0  0  0  0  0  0  0
    0.3050   -1.3830   -0.3240 C   0  0  0  0  0  0  0  0  0  0  0  0
  1  2  2  0
  2  3  1  0
  3  4  1  0
  4  5  2  0
  4  6  1  0
  6  7  1  0
  7  8  2  0
  7 22  1  0
  8  9  1  0
  8 15  1  0
  9 10  1  1
  9 11  1  0
 11 12  1  0
 12 13  2  0
 12 14  1  0
 15 16  1  0
 16 17  1  6
 16 22  1  0
 17 18  1  0
 18 19  1  0
 19 20  2  0
 19 21  1  0
M  END
