
     RDKit          3D

  7  6  0  0  0  0  0  0  0  0999 V2000
    1.7160    0.6050    0.7640 N   0  0  0  0  0  0  0  0  0  0  0  0
    1.5170   -0.5430   -0.0600 C   0  0  0  0  0  0  0  0  0  0  0  0
    0.3330   -0.3930   -1.0190 C   0  0  0  0  0  0  0  0  0  0  0  0
   -1.2260   -0.1360   -0.3520 P   0  0  0  0  0  0  0  0  0  0  0  0
   -1.7780    1.4540   -0.1560 O   0  0  0  0  0  0  0  0  0  0  0  0
   -0.8970   -0.1530    1.1400 O   0  0  0  0  0  0  0  0  0  0  0  0
   -2.2800   -1.3980   -0.1410 O   0  0  0  0  0  0  0  0  0  0  0  0
  1  2  1  0
  2  3  1  0
  3  4  1  0
  4  5  1  0
  4  6  1  0
  4  7  1  0
M  CHG  1   1   1
M  END
