
     RDKit          3D

 22 23  0  0  0  0  0  0  0  0999 V2000
   -4.2340   -1.7670    0.1430 O   0  0  0  0  0  0  0  0  0  0  0  0
   -3.9380   -0.5970   -0.1230 C   0  0  0  0  0  0  0  0  0  0  0  0
   -4.8290    0.3460   -0.6750 O   0  0  0  0  0  0  0  0  0  0  0  0
   -4.4940    1.7270   -0.6940 C   0  0  0  0  0  0  0  0  0  0  0  0
   -3.0090    1.9770   -0.6620 C   0  0  0  0  0  0  0  0  0  0  0  0
   -2.3190    0.8030   -0.9530 O   0  0  0  0  0  0  0  0  0  0  0  0
   -2.5730   -0.0780    0.1250 C   0  0  1  0  0  0  0  0  0  0  0  0
   -2.5370    0.6910    1.2670 F   0  0  0  0  0  0  0  0  0  0  0  0
   -1.5120   -1.1480    0.1070 C   0  0  0  0  0  0  0  0  0  0  0  0
   -0.3030   -0.5440    0.2470 O   0  0  0  0  0  0  0  0  0  0  0  0
    0.8060   -1.2930    0.2630 C   0  0  2  0  0  0  0  0  0  0  0  0
    1.9660   -0.4410    0.4210 N   0  0  0  0  0  0  0  0  0  0  0  0
    2.2080    0.4380   -0.6850 C   0  0  0  0  0  0  0  0  0  0  0  0
    3.4480    1.2550   -0.3420 C   0  0  0  0  0  0  0  0  0  0  0  0
    3.1810    1.9560    0.8100 O   0  0  0  0  0  0  0  0  0  0  0  0
    4.2470    2.6660    1.1140 O   0  0  0  0  0  0  0  0  0  0  0  0
    4.4000    3.6270    0.2210 O   0  0  0  0  0  0  0  0  0  0  0  0
    1.0250   -2.1990   -0.9290 C   0  0  0  0  0  0  0  0  0  0  0  0
    2.1400   -2.9400   -0.4720 O   0  0  0  0  0  0  0  0  0  0  0  0
    1.8640   -3.2370    0.8340 N   0  0  0  0  0  0  0  0  0  0  0  0
    0.8950   -2.3060    1.3480 C   0  0  0  0  0  0  0  0  0  0  0  0
    0.3400   -2.4290    2.4410 O   0  0  0  0  0  0  0  0  0  0  0  0
  1  2  2  0
  2  3  1  0
  2  7  1  0
  3  4  1  0
  4  5  1  0
  5  6  1  0
  6  7  1  0
  7  8  1  1
  7  9  1  0
  9 10  1  0
 10 11  1  0
 11 12  1  1
 11 18  1  0
 11 21  1  0
 12 13  1  0
 13 14  1  0
 14 15  1  0
 15 16  1  0
 16 17  1  0
 18 19  1  0
 19 20  1  0
 20 21  1  0
 21 22  2  0
M  END
