
     RDKit          3D

 22 22  0  0  0  0  0  0  0  0999 V2000
   -2.2710    3.6580    0.0600 O   0  0  0  0  0  0  0  0  0  0  0  0
   -2.4900    3.0030   -0.9920 C   0  0  0  0  0  0  0  0  0  0  0  0
   -3.0080    3.6480   -2.1000 O   0  0  0  0  0  0  0  0  0  0  0  0
   -2.1870    1.6540   -0.9560 O   0  0  0  0  0  0  0  0  0  0  0  0
   -1.6650    0.9880    0.1520 C   0  0  1  0  0  0  0  0  0  0  0  0
   -2.6830    0.0190    0.5850 N   0  0  0  0  0  0  0  0  0  0  0  0
   -2.2760   -0.5800    1.8190 C   0  0  0  0  0  0  0  0  0  0  0  0
   -1.7510   -1.9670    1.5210 C   0  0  1  0  0  0  0  0  0  0  0  0
   -2.8020   -2.8650    0.9820 C   0  0  0  0  0  0  0  0  0  0  0  0
   -2.5870   -3.4880   -0.0860 O   0  0  0  0  0  0  0  0  0  0  0  0
   -4.0220   -3.0500    1.6090 O   0  0  0  0  0  0  0  0  0  0  0  0
   -0.6210   -1.9560    0.7070 O   0  0  0  0  0  0  0  0  0  0  0  0
    0.0770   -0.9150    0.1070 C   0  0  0  0  0  0  0  0  0  0  0  0
    1.4320   -1.2030   -0.3110 C   0  0  0  0  0  0  0  0  0  0  0  0
    1.9510   -2.4360   -0.1100 F   0  0  0  0  0  0  0  0  0  0  0  0
    2.1820   -0.3240   -0.8780 N   0  0  0  0  0  0  0  0  0  0  0  0
    3.5250   -0.5880   -1.3000 C   0  0  0  0  0  0  0  0  0  0  0  0
    4.4210    0.6260   -1.1440 C   0  0  0  0  0  0  0  0  0  0  0  0
    4.4140    0.9650    0.2230 O   0  0  0  0  0  0  0  0  0  0  0  0
    5.1810    2.0180    0.4050 O   0  0  0  0  0  0  0  0  0  0  0  0
   -0.3740    0.3070   -0.1160 C   0  0  0  0  0  0  0  0  0  0  0  0
    0.5550    1.1320   -0.7330 O   0  0  0  0  0  0  0  0  0  0  0  0
  1  2  2  0
  2  3  1  0
  2  4  1  0
  5  4  1  6
  5  6  1  0
  5 21  1  0
  6  7  1  0
  7  8  1  0
  8  9  1  6
  8 12  1  0
  9 10  2  0
  9 11  1  0
 12 13  1  0
 13 14  1  0
 13 21  2  0
 14 15  1  0
 14 16  2  3
 16 17  1  0
 17 18  1  0
 18 19  1  0
 19 20  1  0
 21 22  1  0
M  END
