
     RDKit          3D

 15 14  0  0  0  0  0  0  0  0999 V2000
   -0.1100    3.9570    1.8210 C   0  0  0  0  0  0  0  0  0  0  0  0
   -0.1880    2.8900    0.7150 C   0  0  0  0  0  0  0  0  0  0  0  0
   -0.6620    1.7030    1.2290 O   0  0  0  0  0  0  0  0  0  0  0  0
   -0.7810    0.6800    0.2790 C   0  0  1  0  0  0  0  0  0  0  0  0
   -0.2670   -0.5910    0.7340 C   0  0  0  0  0  0  0  0  0  0  0  0
    0.7550   -1.2810    0.4310 C   0  0  0  0  0  0  0  0  0  0  0  0
    1.8050   -1.0290   -0.5110 C   0  0  0  0  0  0  0  0  0  0  0  0
    1.8390    0.1730   -1.3070 N   0  0  0  0  0  0  0  0  0  0  0  0
    2.8200   -1.8830   -0.7090 C   0  0  0  0  0  0  0  0  0  0  0  0
    3.0000   -3.1530   -0.0160 C   0  0  0  0  0  0  0  0  0  0  0  0
    4.2420   -3.1170    0.6880 N   0  0  0  0  0  0  0  0  0  0  0  0
   -2.3280    0.4830    0.1390 C   0  0  1  0  0  0  0  0  0  0  0  0
   -2.8900    1.6700   -0.2860 O   0  0  0  0  0  0  0  0  0  0  0  0
   -2.6210   -0.5860   -0.8800 C   0  0  0  0  0  0  0  0  0  0  0  0
   -4.0650   -0.6900   -0.9650 N   0  0  0  0  0  0  0  0  0  0  0  0
  1  2  1  0
  2  3  1  0
  4  3  1  1
  4  5  1  0
  4 12  1  0
  5  6  2  3
  6  7  1  0
  7  8  1  0
  7  9  2  3
  9 10  1  0
 10 11  1  0
 12 13  1  6
 12 14  1  0
 14 15  1  0
M  CHG  2   8   1  15   1
M  END
