
     RDKit          3D

 24 25  0  0  0  0  0  0  0  0999 V2000
    7.6550    0.9950   -1.1900 C   0  0  0  0  0  0  0  0  0  0  0  0
    6.8540   -0.0600   -0.7240 O   0  0  0  0  0  0  0  0  0  0  0  0
    5.4890    0.0870   -0.6710 C   0  0  0  0  0  0  0  0  0  0  0  0
    4.9120    1.2640   -1.0740 C   0  0  0  0  0  0  0  0  0  0  0  0
    3.5150    1.4200   -1.0220 C   0  0  0  0  0  0  0  0  0  0  0  0
    2.7060    0.4050   -0.5710 C   0  0  0  0  0  0  0  0  0  0  0  0
    1.3030    0.5770   -0.5250 N   0  0  0  0  0  0  0  0  0  0  0  0
    0.5320    1.6750   -0.8810 C   0  0  0  0  0  0  0  0  0  0  0  0
    1.0660    2.7130   -1.3190 O   0  0  0  0  0  0  0  0  0  0  0  0
   -0.9580    1.6220   -0.7420 C   0  0  0  0  0  0  0  0  0  0  0  0
   -1.3510    0.3700   -0.2350 O   0  0  0  0  0  0  0  0  0  0  0  0
   -2.7030    0.1240   -0.0340 C   0  0  0  0  0  0  0  0  0  0  0  0
   -3.6770    1.0750   -0.3180 C   0  0  0  0  0  0  0  0  0  0  0  0
   -5.0180    0.8350   -0.1200 C   0  0  0  0  0  0  0  0  0  0  0  0
   -6.0410    1.8640   -0.4300 C   0  0  0  0  0  0  0  0  0  0  0  0
   -5.4470   -0.3750    0.3750 C   0  0  0  0  0  0  0  0  0  0  0  0
   -6.7920   -0.6570    0.5890 O   0  0  0  0  0  0  0  0  0  0  0  0
   -4.4900   -1.3260    0.6600 C   0  0  0  0  0  0  0  0  0  0  0  0
   -4.9160   -2.6610    1.2020 C   0  0  0  0  0  0  0  0  0  0  0  0
   -3.1500   -1.0840    0.4610 C   0  0  0  0  0  0  0  0  0  0  0  0
    3.2870   -0.7900   -0.1620 C   0  0  0  0  0  0  0  0  0  0  0  0
    2.4580   -1.8070    0.2910 O   0  0  0  0  0  0  0  0  0  0  0  0
    2.9020   -3.0500    0.7290 C   0  0  0  0  0  0  0  0  0  0  0  0
    4.6470   -0.9020   -0.2280 C   0  0  0  0  0  0  0  0  0  0  0  0
  1  2  1  0
  2  3  1  0
  3  4  2  0
  3 24  1  0
  4  5  1  0
  5  6  2  0
  6  7  1  0
  6 21  1  0
  7  8  1  0
  8  9  2  0
  8 10  1  0
 10 11  1  0
 11 12  1  0
 12 13  2  0
 12 20  1  0
 13 14  1  0
 14 15  1  0
 14 16  2  0
 16 17  1  0
 16 18  1  0
 18 19  1  0
 18 20  2  0
 21 22  1  0
 21 24  2  0
 22 23  1  0
M  END
