
     RDKit          3D

 24 25  0  0  0  0  0  0  0  0999 V2000
    9.0880    0.4010   -0.4600 C   0  0  0  0  0  0  0  0  0  0  0  0
    8.4780   -0.1790    0.7940 C   0  0  0  0  0  0  0  0  0  0  0  0
    7.0740   -0.2570    0.7210 O   0  0  0  0  0  0  0  0  0  0  0  0
    6.2640    0.8550    0.5410 C   0  0  0  0  0  0  0  0  0  0  0  0
    6.7860    1.9700    0.4380 O   0  0  0  0  0  0  0  0  0  0  0  0
    4.8010    0.6890    0.4750 C   0  0  0  0  0  0  0  0  0  0  0  0
    4.2720   -0.4990    0.5860 C   0  0  0  0  0  0  0  0  0  0  0  0
    2.8550   -0.8120    0.5400 C   0  0  0  0  0  0  0  0  0  0  0  0
    2.4540   -2.0050    0.6590 O   0  0  0  0  0  0  0  0  0  0  0  0
    1.8910    0.1880    0.3640 N   0  0  0  0  0  0  0  0  0  0  0  0
    0.4910    0.0630    0.3010 C   0  0  0  0  0  0  0  0  0  0  0  0
   -0.2550    1.1900   -0.0510 C   0  0  0  0  0  0  0  0  0  0  0  0
   -1.6030    1.1480   -0.1230 C   0  0  0  0  0  0  0  0  0  0  0  0
   -2.2850   -0.0530    0.1600 C   0  0  0  0  0  0  0  0  0  0  0  0
   -3.6440   -0.0540    0.0750 O   0  0  0  0  0  0  0  0  0  0  0  0
   -4.6260   -0.9710    0.2620 C   0  0  2  0  0  0  0  0  0  0  0  0
   -5.4070   -1.1080   -1.0660 C   0  0  0  0  0  0  0  0  0  0  0  0
   -6.0610    0.1700   -1.4560 C   0  0  0  0  0  0  0  0  0  0  0  0
   -5.7130    1.3440   -0.6100 C   0  0  0  0  0  0  0  0  0  0  0  0
   -5.7830    1.0810    0.8680 C   0  0  0  0  0  0  0  0  0  0  0  0
   -5.7020   -0.3850    1.2090 C   0  0  0  0  0  0  0  0  0  0  0  0
   -1.5910   -1.1730    0.5060 C   0  0  0  0  0  0  0  0  0  0  0  0
   -2.2070   -2.3890    0.7970 O   0  0  0  0  0  0  0  0  0  0  0  0
   -0.1820   -1.0820    0.5690 C   0  0  0  0  0  0  0  0  0  0  0  0
  1  2  1  0
  2  3  1  0
  3  4  1  0
  4  5  2  0
  4  6  1  0
  6  7  2  3
  7  8  1  0
  8  9  2  0
  8 10  1  0
 10 11  1  0
 11 12  2  0
 11 24  1  0
 12 13  1  0
 13 14  2  0
 14 15  1  0
 14 22  1  0
 16 15  1  6
 16 17  1  0
 16 21  1  0
 17 18  1  0
 18 19  1  0
 19 20  1  0
 20 21  1  0
 22 23  1  0
 22 24  2  0
M  END
