
     RDKit          3D

 24 25  0  0  0  0  0  0  0  0999 V2000
    4.7530    2.4960    2.1240 C   0  0  0  0  0  0  0  0  0  0  0  0
    5.0280    1.3510    1.1970 C   0  0  0  0  0  0  0  0  0  0  0  0
    3.8570    0.6320    0.8730 O   0  0  0  0  0  0  0  0  0  0  0  0
    3.9760   -0.4570    0.0190 C   0  0  0  0  0  0  0  0  0  0  0  0
    5.0970   -0.7770   -0.4420 O   0  0  0  0  0  0  0  0  0  0  0  0
    2.8060   -1.2440   -0.3560 C   0  0  0  0  0  0  0  0  0  0  0  0
    1.5470   -0.8970    0.1520 C   0  0  0  0  0  0  0  0  0  0  0  0
    0.4120   -1.6020   -0.1680 C   0  0  0  0  0  0  0  0  0  0  0  0
   -0.9040   -1.2020    0.3910 C   0  0  0  0  0  0  0  0  0  0  0  0
   -1.5600   -0.2720   -0.4510 O   0  0  0  0  0  0  0  0  0  0  0  0
   -2.8010    0.2110   -0.0860 C   0  0  0  0  0  0  0  0  0  0  0  0
   -3.4430   -0.1710    1.0710 C   0  0  0  0  0  0  0  0  0  0  0  0
   -4.6760    0.3230    1.4130 C   0  0  0  0  0  0  0  0  0  0  0  0
   -5.2860    1.2340    0.5580 C   0  0  0  0  0  0  0  0  0  0  0  0
   -6.5960    1.7870    0.8780 C   0  0  0  0  0  0  0  0  0  0  0  0
   -7.1530    2.6050    0.1220 O   0  0  0  0  0  0  0  0  0  0  0  0
   -4.6770    1.6430   -0.6090 C   0  0  0  0  0  0  0  0  0  0  0  0
   -5.2780    2.5740   -1.5010 N   0  0  0  0  0  0  0  0  0  0  0  0
   -3.4440    1.1200   -0.9060 C   0  0  0  0  0  0  0  0  0  0  0  0
   -2.8110    1.5140   -2.0730 O   0  0  0  0  0  0  0  0  0  0  0  0
    0.5720   -2.6790   -1.0210 C   0  0  0  0  0  0  0  0  0  0  0  0
    1.8000   -3.0350   -1.5300 C   0  0  0  0  0  0  0  0  0  0  0  0
    2.9450   -2.3210   -1.2050 C   0  0  0  0  0  0  0  0  0  0  0  0
    4.2790   -2.7190   -1.7670 C   0  0  0  0  0  0  0  0  0  0  0  0
  1  2  1  0
  2  3  1  0
  3  4  1  0
  4  5  2  0
  4  6  1  0
  6  7  2  0
  6 23  1  0
  7  8  1  0
  8  9  1  0
  8 21  2  0
  9 10  1  0
 10 11  1  0
 11 12  2  0
 11 19  1  0
 12 13  1  0
 13 14  2  0
 14 15  1  0
 14 17  1  0
 15 16  2  0
 17 18  1  0
 17 19  2  0
 19 20  1  0
 21 22  1  0
 22 23  2  0
 23 24  1  0
M  END
