
     RDKit          3D

 23 24  0  0  0  0  0  0  0  0999 V2000
    5.9070   -1.7550    0.8280 C   0  0  0  0  0  0  0  0  0  0  0  0
    4.5580   -1.6240    0.5090 O   0  0  0  0  0  0  0  0  0  0  0  0
    3.9610   -0.3890    0.3720 C   0  0  0  0  0  0  0  0  0  0  0  0
    4.6240    0.8170    0.5370 C   0  0  0  0  0  0  0  0  0  0  0  0
    3.9300    1.9940    0.3770 C   0  0  0  0  0  0  0  0  0  0  0  0
    4.6600    3.1880    0.5360 O   0  0  0  0  0  0  0  0  0  0  0  0
    2.5850    2.0510    0.0460 C   0  0  0  0  0  0  0  0  0  0  0  0
    1.8720    3.2590   -0.0590 N   0  0  0  0  0  0  0  0  0  0  0  0
    1.9270    0.8710   -0.1200 C   0  0  0  0  0  0  0  0  0  0  0  0
    0.5210    0.7850   -0.6770 C   0  0  0  0  0  0  0  0  0  0  0  0
    0.2160   -0.5740   -0.6060 O   0  0  0  0  0  0  0  0  0  0  0  0
   -0.5050   -0.8800    0.5970 C   0  0  0  0  0  0  0  0  0  0  0  0
   -1.8820   -0.3680    0.2580 C   0  0  0  0  0  0  0  0  0  0  0  0
   -2.5780    0.6140    0.8720 C   0  0  0  0  0  0  0  0  0  0  0  0
   -3.8620    0.9560    0.5020 C   0  0  0  0  0  0  0  0  0  0  0  0
   -4.6020    2.0010    1.2200 C   0  0  0  0  0  0  0  0  0  0  0  0
   -4.4710    0.2640   -0.5580 C   0  0  0  0  0  0  0  0  0  0  0  0
   -3.8050   -0.7380   -1.2160 C   0  0  0  0  0  0  0  0  0  0  0  0
   -4.3660   -1.4510   -2.4180 C   0  0  0  0  0  0  0  0  0  0  0  0
   -2.5240   -1.0390   -0.7910 C   0  0  0  0  0  0  0  0  0  0  0  0
   -1.8170   -2.0490   -1.4190 O   0  0  0  0  0  0  0  0  0  0  0  0
   -1.7570   -3.3820   -1.0900 C   0  0  0  0  0  0  0  0  0  0  0  0
    2.6000   -0.3180    0.0470 C   0  0  0  0  0  0  0  0  0  0  0  0
  1  2  1  0
  2  3  1  0
  3  4  2  0
  3 23  1  0
  4  5  1  0
  5  6  1  0
  5  7  2  0
  7  8  1  0
  7  9  1  0
  9 10  1  0
  9 23  2  0
 10 11  1  0
 11 12  1  0
 12 13  1  0
 13 14  2  0
 13 20  1  0
 14 15  1  0
 15 16  1  0
 15 17  2  0
 17 18  1  0
 18 19  1  0
 18 20  2  0
 20 21  1  0
 21 22  1  0
M  END
