
     RDKit          3D

 33 36  0  0  0  0  0  0  0  0999 V2000
   -5.3150    4.2930    0.1640 C   0  0  0  0  0  0  0  0  0  0  0  0
   -4.1000    4.1620   -0.3200 C   0  0  0  0  0  0  0  0  0  0  0  0
   -3.7740    3.3710   -1.5310 C   0  0  0  0  0  0  0  0  0  0  0  0
   -2.8450    2.2870   -1.2780 N   0  0  0  0  0  0  0  0  0  0  0  0
   -3.3030    1.3540   -0.2860 C   0  0  2  0  0  0  0  0  0  0  0  0
   -2.8250    1.6470    1.0940 C   0  0  0  0  0  0  0  0  0  0  0  0
   -1.3950    1.8600    1.3310 C   0  0  0  0  0  0  0  0  0  0  0  0
   -0.5320    0.7650    0.8280 N   0  0  0  0  0  0  0  0  0  0  0  0
    0.8400    1.0260    0.7460 C   0  0  0  0  0  0  0  0  0  0  0  0
    1.2710    2.0570    1.3050 O   0  0  0  0  0  0  0  0  0  0  0  0
    1.7500    0.2220    0.0720 N   0  0  0  0  0  0  0  0  0  0  0  0
    3.1970    0.5460    0.0230 C   0  0  1  0  0  0  0  0  0  0  0  0
    4.0060   -0.5810    0.6030 C   0  0  0  0  0  0  0  0  0  0  0  0
    5.2590   -0.0760    1.2690 C   0  0  0  0  0  0  0  0  0  0  0  0
    6.3240    0.0960    0.2140 C   0  0  0  0  0  0  0  0  0  0  0  0
    5.8990    1.1550   -0.7960 C   0  0  0  0  0  0  0  0  0  0  0  0
    4.9460    0.5190   -1.7760 C   0  0  0  0  0  0  0  0  0  0  0  0
    3.5170    0.8080   -1.4220 C   0  0  0  0  0  0  0  0  0  0  0  0
   -1.0100   -0.5350    0.4930 C   0  0  0  0  0  0  0  0  0  0  0  0
   -2.0800   -0.9340   -0.1800 C   0  0  0  0  0  0  0  0  0  0  0  0
   -2.5960   -2.1900   -0.5400 N   0  0  0  0  0  0  0  0  0  0  0  0
   -2.2460   -3.4680   -0.0400 C   0  0  0  0  0  0  0  0  0  0  0  0
   -3.3020   -4.3850   -0.1710 C   0  0  0  0  0  0  0  0  0  0  0  0
   -3.2220   -5.6920    0.2330 C   0  0  0  0  0  0  0  0  0  0  0  0
   -4.3000   -6.5060    0.0640 F   0  0  0  0  0  0  0  0  0  0  0  0
   -2.0560   -6.1510    0.8000 C   0  0  0  0  0  0  0  0  0  0  0  0
   -1.0060   -5.2520    0.9340 C   0  0  0  0  0  0  0  0  0  0  0  0
    0.4720   -5.8660    1.6610 Cl  0  0  0  0  0  0  0  0  0  0  0  0
   -1.1050   -3.9440    0.5220 C   0  0  0  0  0  0  0  0  0  0  0  0
    0.4270   -3.0830    0.8490 S   0  0  0  0  0  0  0  0  0  0  0  0
    0.0060   -1.3830    1.1300 C   0  0  0  0  0  0  0  0  0  0  0  0
    0.6600   -0.7390    2.0230 O   0  0  0  0  0  0  0  0  0  0  0  0
   -3.0480    0.0040   -0.7150 N   0  0  0  0  0  0  0  0  0  0  0  0
  1  2  2  0
  2  3  1  0
  3  4  1  0
  5  4  1  6
  5  6  1  0
  5 33  1  0
  6  7  1  0
  7  8  1  0
  8  9  1  0
  8 19  1  0
  9 10  2  0
  9 11  1  0
 12 11  1  6
 12 13  1  0
 12 18  1  0
 13 14  1  0
 14 15  1  0
 15 16  1  0
 16 17  1  0
 17 18  1  0
 19 20  2  0
 19 31  1  0
 20 21  1  0
 20 33  1  0
 21 22  1  0
 22 23  2  0
 22 29  1  0
 23 24  1  0
 24 25  1  0
 24 26  2  0
 26 27  1  0
 27 28  1  0
 27 29  2  0
 29 30  1  0
 30 31  1  0
 31 32  2  0
M  CHG  1   4   1
M  END
