
     RDKit          3D

 34 37  0  0  0  0  0  0  0  0999 V2000
    7.6570   -0.1060    1.6790 C   0  0  0  0  0  0  0  0  0  0  0  0
    7.1610    0.0650    0.2690 C   0  0  0  0  0  0  0  0  0  0  0  0
    6.2130   -1.0140   -0.1430 C   0  0  0  0  0  0  0  0  0  0  0  0
    5.0220   -1.1170    0.6530 N   0  0  0  0  0  0  0  0  0  0  0  0
    5.1060   -1.7060    2.0030 C   0  0  0  0  0  0  0  0  0  0  0  0
    3.9060   -1.7080    2.5190 C   0  0  0  0  0  0  0  0  0  0  0  0
    2.9760   -1.1600    1.6280 N   0  0  0  0  0  0  0  0  0  0  0  0
    3.6800   -0.7700    0.4240 C   0  0  0  0  0  0  0  0  0  0  0  0
    3.1520   -0.1850   -0.6210 C   0  0  0  0  0  0  0  0  0  0  0  0
    3.8610    0.2650   -1.8540 C   0  0  0  0  0  0  0  0  0  0  0  0
    3.3810   -0.6160   -2.9550 C   0  0  0  0  0  0  0  0  0  0  0  0
    1.9660   -1.0100   -2.7980 C   0  0  0  0  0  0  0  0  0  0  0  0
    1.1360   -0.3540   -1.7880 C   0  0  0  0  0  0  0  0  0  0  0  0
    1.6810    0.0880   -0.6560 C   0  0  0  0  0  0  0  0  0  0  0  0
    0.8060    0.7190    0.2560 C   0  0  0  0  0  0  0  0  0  0  0  0
    1.1560    1.2120    1.3980 O   0  0  0  0  0  0  0  0  0  0  0  0
   -0.5380    0.7950   -0.1610 N   0  0  0  0  0  0  0  0  0  0  0  0
   -1.6530    1.4100    0.5200 C   0  0  1  0  0  0  0  0  0  0  0  0
   -2.2290    2.5980   -0.1720 C   0  0  0  0  0  0  0  0  0  0  0  0
   -3.3480    3.1700    0.6670 C   0  0  0  0  0  0  0  0  0  0  0  0
   -2.6780    0.4230    0.9010 C   0  0  0  0  0  0  0  0  0  0  0  0
   -2.4110   -0.4550    1.7680 O   0  0  0  0  0  0  0  0  0  0  0  0
   -3.9560    0.4400    0.3120 N   0  0  0  0  0  0  0  0  0  0  0  0
   -5.0450   -0.4030    0.5610 C   0  0  0  0  0  0  0  0  0  0  0  0
   -5.0340   -1.4670    1.4210 C   0  0  0  0  0  0  0  0  0  0  0  0
   -6.1510   -2.2730    1.6260 C   0  0  0  0  0  0  0  0  0  0  0  0
   -7.3140   -2.0200    0.9600 C   0  0  0  0  0  0  0  0  0  0  0  0
   -7.3420   -0.9470    0.0860 C   0  0  0  0  0  0  0  0  0  0  0  0
   -6.2300   -0.1650   -0.1020 C   0  0  0  0  0  0  0  0  0  0  0  0
   -6.3060    0.8910   -0.9820 O   0  0  0  0  0  0  0  0  0  0  0  0
   -7.4630    1.2340   -1.7150 C   0  0  0  0  0  0  0  0  0  0  0  0
   -0.5720    0.0030   -1.7090 S   0  0  2  0  0  0  0  0  0  0  0  0
   -1.4110   -1.2280   -1.6890 O   0  0  0  0  0  0  0  0  0  0  0  0
   -0.9960    0.9730   -2.7620 O   0  0  0  0  0  0  0  0  0  0  0  0
  1  2  1  0
  2  3  1  0
  3  4  1  0
  4  5  1  0
  4  8  1  0
  5  6  2  0
  6  7  1  0
  7  8  1  0
  8  9  2  3
  9 10  1  0
  9 14  1  0
 10 11  1  0
 11 12  1  0
 12 13  1  0
 13 14  2  0
 13 32  1  0
 14 15  1  0
 15 16  2  0
 15 17  1  0
 17 18  1  0
 32 17  1  1
 18 19  1  6
 18 21  1  0
 19 20  1  0
 21 22  2  0
 21 23  1  0
 23 24  1  0
 24 25  2  0
 24 29  1  0
 25 26  1  0
 26 27  2  0
 27 28  1  0
 28 29  2  0
 29 30  1  0
 30 31  1  0
 32 33  2  0
 32 34  2  0
M  END
