
     RDKit          3D

 34 37  0  0  0  0  0  0  0  0999 V2000
    7.9800   -0.0190   -1.0570 C   0  0  0  0  0  0  0  0  0  0  0  0
    7.6550   -0.3330    0.2640 O   0  0  0  0  0  0  0  0  0  0  0  0
    6.3860   -0.5020    0.7500 C   0  0  0  0  0  0  0  0  0  0  0  0
    5.2990   -0.3640   -0.0850 C   0  0  0  0  0  0  0  0  0  0  0  0
    3.9790   -0.5260    0.3600 C   0  0  0  0  0  0  0  0  0  0  0  0
    2.9130   -0.3850   -0.5320 N   0  0  0  0  0  0  0  0  0  0  0  0
    1.5370   -0.3210   -0.2110 C   0  0  0  0  0  0  0  0  0  0  0  0
    1.1330   -0.3850    0.9620 O   0  0  0  0  0  0  0  0  0  0  0  0
    0.5660   -0.1720   -1.3400 C   0  0  0  0  0  0  0  0  0  0  0  0
   -0.8270   -0.1270   -0.8400 C   0  0  0  0  0  0  0  0  0  0  0  0
   -1.6360   -1.1320   -0.3780 C   0  0  0  0  0  0  0  0  0  0  0  0
   -1.2950   -2.5420   -0.2580 C   0  0  0  0  0  0  0  0  0  0  0  0
   -0.7630   -3.2950   -1.2540 C   0  0  0  0  0  0  0  0  0  0  0  0
   -0.4580   -4.6400   -1.0230 C   0  0  0  0  0  0  0  0  0  0  0  0
   -0.6850   -5.2280    0.2010 C   0  0  0  0  0  0  0  0  0  0  0  0
   -0.4000   -6.5310    0.4590 F   0  0  0  0  0  0  0  0  0  0  0  0
   -1.2260   -4.4730    1.2180 C   0  0  0  0  0  0  0  0  0  0  0  0
   -1.4660   -5.0210    2.4430 F   0  0  0  0  0  0  0  0  0  0  0  0
   -1.5150   -3.1730    0.9780 C   0  0  0  0  0  0  0  0  0  0  0  0
   -2.8030   -0.5380   -0.0320 N   0  0  0  0  0  0  0  0  0  0  0  0
   -2.7410    0.7530   -0.2590 N   0  0  0  0  0  0  0  0  0  0  0  0
   -1.5320    1.0790   -0.7640 C   0  0  0  0  0  0  0  0  0  0  0  0
   -0.9240    2.6830   -1.2370 S   0  0  0  0  0  0  0  0  0  0  0  0
   -1.8470    3.9200   -0.2380 C   0  0  0  0  0  0  0  0  0  0  0  0
   -3.2190    4.0160   -0.8000 C   0  0  0  0  0  0  0  0  0  0  0  0
   -4.0630    2.8820   -0.6190 N   0  0  0  0  0  0  0  0  0  0  0  0
   -3.8590    1.6350    0.0310 C   0  0  0  0  0  0  0  0  0  0  0  0
   -4.6770    1.1660    0.9150 C   0  0  0  0  0  0  0  0  0  0  0  0
   -5.8850    1.7400    1.4680 C   0  0  0  0  0  0  0  0  0  0  0  0
   -6.2260    3.0480    1.0400 N   0  0  0  0  0  0  0  0  0  0  0  0
    3.8170   -0.8300    1.6680 C   0  0  0  0  0  0  0  0  0  0  0  0
    4.8960   -0.9800    2.5500 C   0  0  0  0  0  0  0  0  0  0  0  0
    6.1770   -0.8130    2.0790 C   0  0  0  0  0  0  0  0  0  0  0  0
    7.4990   -1.0080    3.2100 Cl  0  0  0  0  0  0  0  0  0  0  0  0
  1  2  1  0
  2  3  1  0
  3  4  2  0
  3 33  1  0
  4  5  1  0
  5  6  1  0
  5 31  2  0
  6  7  1  0
  7  8  2  0
  7  9  1  0
  9 10  1  0
 10 11  1  0
 10 22  2  0
 11 12  1  0
 11 20  2  0
 12 13  2  0
 12 19  1  0
 13 14  1  0
 14 15  2  0
 15 16  1  0
 15 17  1  0
 17 18  1  0
 17 19  2  0
 20 21  1  0
 21 22  1  0
 21 27  1  0
 22 23  1  0
 23 24  1  0
 24 25  1  0
 25 26  1  0
 26 27  1  0
 27 28  2  3
 28 29  1  0
 29 30  1  0
 31 32  1  0
 32 33  2  0
 33 34  1  0
M  CHG  1  30   1
M  END
