
     RDKit          3D

 34 37  0  0  0  0  0  0  0  0999 V2000
    4.1460   -1.6180    1.2080 C   0  0  0  0  0  0  0  0  0  0  0  0
    3.6510   -0.8480    0.0650 N   0  0  0  0  0  0  0  0  0  0  0  0
    4.3390   -0.5490   -1.0350 C   0  0  0  0  0  0  0  0  0  0  0  0
    5.7460   -0.9560   -1.2760 C   0  0  0  0  0  0  0  0  0  0  0  0
    6.7170    0.0950   -0.7650 C   0  0  0  0  0  0  0  0  0  0  0  0
    8.1340   -0.3340   -1.0200 C   0  0  0  0  0  0  0  0  0  0  0  0
    9.2730    0.8870   -0.4300 S   0  0  2  0  0  0  0  0  0  0  0  0
   10.1450    1.3220   -1.5720 O   0  0  0  0  0  0  0  0  0  0  0  0
   10.0850    0.3150    0.6970 O   0  0  0  0  0  0  0  0  0  0  0  0
    3.5140    0.1620   -1.8160 N   0  0  0  0  0  0  0  0  0  0  0  0
    2.3120    0.2980   -1.1870 C   0  0  0  0  0  0  0  0  0  0  0  0
    1.1350    0.9200   -1.5310 C   0  0  0  0  0  0  0  0  0  0  0  0
    0.0600    0.8900   -0.6710 C   0  0  0  0  0  0  0  0  0  0  0  0
    0.1240    0.2470    0.5430 C   0  0  0  0  0  0  0  0  0  0  0  0
   -0.9550    0.2010    1.4310 N   0  0  0  0  0  0  0  0  0  0  0  0
   -1.6670   -1.0640    1.5180 C   0  0  0  0  0  0  0  0  0  0  0  0
   -2.0040   -1.6870    0.2450 C   0  0  0  0  0  0  0  0  0  0  0  0
   -1.1640   -1.5830   -0.7230 O   0  0  0  0  0  0  0  0  0  0  0  0
   -3.1520   -2.3680    0.0360 O   0  0  0  0  0  0  0  0  0  0  0  0
   -4.4430   -1.8590    0.3210 C   0  0  0  0  0  0  0  0  0  0  0  0
   -4.8000   -0.9390   -0.7750 C   0  0  0  0  0  0  0  0  0  0  0  0
   -5.8680    0.0640   -0.5730 C   0  0  0  0  0  0  0  0  0  0  0  0
   -7.0590   -0.2100   -1.2120 C   0  0  0  0  0  0  0  0  0  0  0  0
   -8.1220    0.6640   -1.2200 C   0  0  0  0  0  0  0  0  0  0  0  0
   -8.0000    1.8680   -0.5650 C   0  0  0  0  0  0  0  0  0  0  0  0
   -6.8270    2.1470    0.0710 C   0  0  0  0  0  0  0  0  0  0  0  0
   -5.7170    1.2790    0.1070 C   0  0  0  0  0  0  0  0  0  0  0  0
   -4.4770    1.6460    0.8530 C   0  0  0  0  0  0  0  0  0  0  0  0
   -3.8950    1.2180    1.9210 C   0  0  0  0  0  0  0  0  0  0  0  0
   -2.7060    1.5370    2.6450 N   0  0  0  0  0  0  0  0  0  0  0  0
   -1.3330    1.3600    2.2090 C   0  0  0  0  0  0  0  0  0  0  0  0
   -0.4070    2.1680    2.4640 O   0  0  0  0  0  0  0  0  0  0  0  0
    1.3050   -0.3720    0.8790 C   0  0  0  0  0  0  0  0  0  0  0  0
    2.4040   -0.3460    0.0090 C   0  0  0  0  0  0  0  0  0  0  0  0
  1  2  1  0
  2  3  1  0
  2 34  1  0
  3  4  1  0
  3 10  2  0
  4  5  1  0
  5  6  1  0
  7  6  1  6
  7  8  2  0
  7  9  2  0
 10 11  1  0
 11 12  2  0
 11 34  1  0
 12 13  1  0
 13 14  2  0
 14 15  1  0
 14 33  1  0
 15 16  1  0
 15 31  1  0
 16 17  1  0
 17 18  2  0
 17 19  1  0
 19 20  1  0
 20 21  1  0
 21 22  1  0
 22 23  2  0
 22 27  1  0
 23 24  1  0
 24 25  2  0
 25 26  1  0
 26 27  2  0
 27 28  1  0
 28 29  2  0
 29 30  1  0
 30 31  1  0
 31 32  2  0
 33 34  2  0
M  END
