
     RDKit          3D

 22 23  0  0  0  0  0  0  0  0999 V2000
   -5.5940    2.1440    2.1190 C   0  0  0  0  0  0  0  0  0  0  0  0
   -5.5710    1.2180    1.0640 O   0  0  0  0  0  0  0  0  0  0  0  0
   -4.3450    0.8450    0.5350 C   0  0  0  0  0  0  0  0  0  0  0  0
   -3.1680    1.3650    1.0230 C   0  0  0  0  0  0  0  0  0  0  0  0
   -1.9120    1.0120    0.5130 C   0  0  0  0  0  0  0  0  0  0  0  0
   -1.8730    0.1120   -0.5120 C   0  0  0  0  0  0  0  0  0  0  0  0
   -0.6930   -0.3540   -1.1150 N   0  0  0  0  0  0  0  0  0  0  0  0
    0.6250   -0.2560   -0.6450 C   0  0  0  0  0  0  0  0  0  0  0  0
    1.0780    0.4300    0.7530 S   0  0  0  0  0  0  0  0  0  0  0  0
    1.6760   -0.8110   -1.4600 N   0  0  0  0  0  0  0  0  0  0  0  0
    3.0570   -0.7630   -1.0520 C   0  0  0  0  0  0  0  0  0  0  0  0
    3.3460   -1.6630    0.1170 C   0  0  0  0  0  0  0  0  0  0  0  0
    4.8040   -1.5770    0.4750 C   0  0  0  0  0  0  0  0  0  0  0  0
    5.1320   -0.2000    0.8360 N   0  0  0  0  0  0  0  0  0  0  0  0
    5.5650    0.7720    0.0500 C   0  0  0  0  0  0  0  0  0  0  0  0
    5.7440    1.8970    0.8030 C   0  0  0  0  0  0  0  0  0  0  0  0
    5.4060    1.5660    2.0570 N   0  0  0  0  0  0  0  0  0  0  0  0
    5.0300    0.2810    2.0820 C   0  0  0  0  0  0  0  0  0  0  0  0
   -3.0860   -0.4100   -1.0000 C   0  0  0  0  0  0  0  0  0  0  0  0
   -4.3150   -0.0650   -0.5020 C   0  0  0  0  0  0  0  0  0  0  0  0
   -5.4960   -0.5980   -1.0060 O   0  0  0  0  0  0  0  0  0  0  0  0
   -5.4810   -1.5320   -2.0690 C   0  0  0  0  0  0  0  0  0  0  0  0
  1  2  1  0
  2  3  1  0
  3  4  2  0
  3 20  1  0
  4  5  1  0
  5  6  2  0
  6  7  1  0
  6 19  1  0
  7  8  1  0
  8  9  2  0
  8 10  1  0
 10 11  1  0
 11 12  1  0
 12 13  1  0
 13 14  1  0
 14 15  1  0
 14 18  1  0
 15 16  2  0
 16 17  1  0
 17 18  2  0
 19 20  2  0
 20 21  1  0
 21 22  1  0
M  END
