
     RDKit          3D

 25 27  0  0  0  0  0  0  0  0999 V2000
   -2.5830    1.0900    2.5870 O   0  0  0  0  0  0  0  0  0  0  0  0
   -2.3400    0.1910    1.7100 C   0  0  0  0  0  0  0  0  0  0  0  0
   -1.0250   -0.0800    1.2680 N   0  0  0  0  0  0  0  0  0  0  0  0
   -0.7490    0.0250    0.0180 C   0  0  0  0  0  0  0  0  0  0  0  0
    0.6110   -0.2720   -0.3270 N   0  0  0  0  0  0  0  0  0  0  0  0
    1.7270    0.2040    0.3940 C   0  0  0  0  0  0  0  0  0  0  0  0
    1.6360    1.0390    1.4830 C   0  0  0  0  0  0  0  0  0  0  0  0
    2.8090    1.4570    2.1230 C   0  0  0  0  0  0  0  0  0  0  0  0
    4.0120    1.0580    1.6920 N   0  0  0  0  0  0  0  0  0  0  0  0
    4.1590    0.2300    0.6150 C   0  0  0  0  0  0  0  0  0  0  0  0
    3.0090   -0.1800   -0.0110 C   0  0  0  0  0  0  0  0  0  0  0  0
    3.3660   -0.9920   -1.0510 O   0  0  0  0  0  0  0  0  0  0  0  0
    4.7600   -1.1650   -1.0530 C   0  0  1  0  0  0  0  0  0  0  0  0
    5.3130   -0.8340   -2.3660 N   0  0  0  0  0  0  0  0  0  0  0  0
    6.6390   -0.9950   -2.3820 O   0  0  0  0  0  0  0  0  0  0  0  0
    5.2960   -0.3220   -0.0280 N   0  0  0  0  0  0  0  0  0  0  0  0
   -1.7140    0.4180   -1.0020 C   0  0  0  0  0  0  0  0  0  0  0  0
   -2.7020    1.3530   -0.8190 C   0  0  0  0  0  0  0  0  0  0  0  0
   -3.4260    1.4580   -2.0180 C   0  0  0  0  0  0  0  0  0  0  0  0
   -2.8080    0.5570   -2.8610 C   0  0  0  0  0  0  0  0  0  0  0  0
   -1.8210   -0.0260   -2.2350 O   0  0  0  0  0  0  0  0  0  0  0  0
   -3.4860   -0.5070    1.2220 N   0  0  0  0  0  0  0  0  0  0  0  0
   -4.8250   -0.1880    1.7110 C   0  0  0  0  0  0  0  0  0  0  0  0
   -5.8730   -1.0360    1.0700 C   0  0  0  0  0  0  0  0  0  0  0  0
   -7.4510   -0.5340    1.7630 Cl  0  0  0  0  0  0  0  0  0  0  0  0
  1  2  2  0
  2  3  1  0
  2 22  1  0
  3  4  2  3
  4  5  1  0
  4 17  1  0
  5  6  1  0
  6  7  2  0
  6 11  1  0
  7  8  1  0
  8  9  2  0
  9 10  1  0
 10 11  2  0
 10 16  1  0
 11 12  1  0
 12 13  1  0
 13 14  1  6
 13 16  1  0
 14 15  1  0
 17 18  2  0
 17 21  1  0
 18 19  1  0
 19 20  2  0
 20 21  1  0
 22 23  1  0
 23 24  1  0
 24 25  1  0
M  CHG  1  16   1
M  END
