
     RDKit          3D

 25 26  0  0  0  0  0  0  0  0999 V2000
   -2.4210   -2.6910    0.4680 C   0  0  0  0  0  0  0  0  0  0  0  0
   -1.1280   -2.2940   -0.1790 C   0  0  0  0  0  0  0  0  0  0  0  0
   -0.5750   -1.0040    0.3480 C   0  0  2  0  0  0  0  0  0  0  0  0
    0.6680   -0.6930   -0.3240 N   0  0  0  0  0  0  0  0  0  0  0  0
    1.8160   -1.0500    0.5030 C   0  0  0  0  0  0  0  0  0  0  0  0
    3.0540   -0.4120    0.0000 C   0  0  0  0  0  0  0  0  0  0  0  0
    3.7120    0.3960    0.7580 N   0  0  0  0  0  0  0  0  0  0  0  0
    4.8950    1.0680    0.4130 C   0  0  0  0  0  0  0  0  0  0  0  0
    5.5330    1.8940    1.2400 C   0  0  0  0  0  0  0  0  0  0  0  0
    6.9930    2.6890    0.7390 Cl  0  0  0  0  0  0  0  0  0  0  0  0
    5.4250    0.8420   -0.8960 N   0  0  0  0  0  0  0  0  0  0  0  0
    4.7260   -0.0430   -1.7600 C   0  0  0  0  0  0  0  0  0  0  0  0
    5.1560   -0.2670   -2.9110 O   0  0  0  0  0  0  0  0  0  0  0  0
    3.5350   -0.6820   -1.3290 N   0  0  0  0  0  0  0  0  0  0  0  0
   -0.2900   -1.1250    1.8000 C   0  0  0  0  0  0  0  0  0  0  0  0
   -0.0540   -2.1970    2.4570 O   0  0  0  0  0  0  0  0  0  0  0  0
   -0.3330    0.1690    2.2990 O   0  0  0  0  0  0  0  0  0  0  0  0
   -1.0870    0.9590    1.4330 C   0  0  0  0  0  0  0  0  0  0  0  0
   -1.3130    2.2050    1.6170 O   0  0  0  0  0  0  0  0  0  0  0  0
   -1.5390    0.1110    0.3330 C   0  0  0  0  0  0  0  0  0  0  0  0
   -2.5690    0.3750   -0.4220 C   0  0  0  0  0  0  0  0  0  0  0  0
   -3.0200   -0.4300   -1.4870 N   0  0  0  0  0  0  0  0  0  0  0  0
   -3.3530    1.5690   -0.2040 N   0  0  0  0  0  0  0  0  0  0  0  0
   -4.4250    1.4430    0.7650 C   0  0  0  0  0  0  0  0  0  0  0  0
   -3.0980    2.8020   -0.8930 C   0  0  0  0  0  0  0  0  0  0  0  0
  1  2  1  0
  3  2  1  6
  3  4  1  0
  3 15  1  0
  3 20  1  0
  4  5  1  0
  5  6  1  0
  6  7  2  0
  6 14  1  0
  7  8  1  0
  8  9  2  3
  8 11  1  0
  9 10  1  0
 11 12  1  0
 12 13  2  0
 12 14  1  0
 15 16  2  0
 15 17  1  0
 17 18  1  0
 18 19  2  0
 18 20  1  0
 20 21  2  3
 21 22  1  0
 21 23  1  0
 23 24  1  0
 23 25  1  0
M  CHG  1   4   1
M  END
