
     RDKit          3D

 25 26  0  0  0  0  0  0  0  0999 V2000
   -0.3150   -2.8110    1.7200 O   0  0  0  0  0  0  0  0  0  0  0  0
    0.7140   -2.2930    1.5920 C   0  0  0  0  0  0  0  0  0  0  0  0
    2.0710   -2.6700    1.8630 C   0  0  0  0  0  0  0  0  0  0  0  0
    3.1090   -1.7420    1.4500 N   0  0  0  0  0  0  0  0  0  0  0  0
    3.3940   -1.4030    0.1040 C   0  0  0  0  0  0  0  0  0  0  0  0
    2.6970   -1.9980   -0.7850 O   0  0  0  0  0  0  0  0  0  0  0  0
    4.3980   -0.4410   -0.3080 C   0  0  0  0  0  0  0  0  0  0  0  0
    4.7060   -0.1020   -1.5650 C   0  0  0  0  0  0  0  0  0  0  0  0
    5.6990    0.8370   -1.5740 O   0  0  0  0  0  0  0  0  0  0  0  0
    5.7390    1.4470   -0.3180 C   0  0  2  0  0  0  0  0  0  0  0  0
    7.1890    1.6780    0.0390 C   0  0  0  0  0  0  0  0  0  0  0  0
    7.9220    2.7420   -1.2040 Cl  0  0  0  0  0  0  0  0  0  0  0  0
    5.2280    0.3490    0.5220 N   0  0  0  0  0  0  0  0  0  0  0  0
    0.5660   -0.6910    0.9210 N   0  0  0  0  0  0  0  0  0  0  0  0
   -0.8430   -0.7090    0.7220 C   0  0  0  0  0  0  0  0  0  0  0  0
   -1.7380   -1.4330    0.9770 O   0  0  0  0  0  0  0  0  0  0  0  0
   -1.2030    0.5480   -0.0140 N   0  0  0  0  0  0  0  0  0  0  0  0
   -2.5040    0.8710   -0.3880 C   0  0  0  0  0  0  0  0  0  0  0  0
   -3.1640   -0.1830   -1.2750 C   0  0  0  0  0  0  0  0  0  0  0  0
   -4.4980    0.3060   -1.6760 C   0  0  0  0  0  0  0  0  0  0  0  0
   -5.4180    0.6260   -0.6320 N   0  0  0  0  0  0  0  0  0  0  0  0
   -5.5510    1.8130    0.0290 C   0  0  0  0  0  0  0  0  0  0  0  0
   -6.6170    1.6760    0.8960 C   0  0  0  0  0  0  0  0  0  0  0  0
   -7.0950    0.4620    0.7580 N   0  0  0  0  0  0  0  0  0  0  0  0
   -6.3910   -0.1980   -0.1570 C   0  0  0  0  0  0  0  0  0  0  0  0
  1  2  2  0
  2  3  1  0
  2 14  1  0
  3  4  1  0
  4  5  1  0
  5  6  2  0
  5  7  1  0
  7  8  2  0
  7 13  1  0
  8  9  1  0
  9 10  1  0
 10 11  1  1
 10 13  1  0
 11 12  1  0
 14 15  1  0
 15 16  2  0
 15 17  1  0
 17 18  1  0
 18 19  1  0
 19 20  1  0
 20 21  1  0
 21 22  1  0
 21 25  1  0
 22 23  2  0
 23 24  1  0
 24 25  2  0
M  CHG  1  24   1
M  END
