
     RDKit          3D

 23 26  0  0  0  0  0  0  0  0999 V2000
    6.1470    1.7730   -2.1510 Cl  0  0  0  0  0  0  0  0  0  0  0  0
    5.5720    0.6700   -0.9180 C   0  0  0  0  0  0  0  0  0  0  0  0
    4.3300    0.2420   -0.9160 C   0  0  0  0  0  0  0  0  0  0  0  0
    3.2590    0.7930   -2.1660 Cl  0  0  0  0  0  0  0  0  0  0  0  0
    3.8420   -0.6620    0.1060 C   0  0  0  0  0  0  0  0  0  0  0  0
    4.6740   -1.0970    1.1470 C   0  0  0  0  0  0  0  0  0  0  0  0
    3.9100   -1.9200    1.9250 C   0  0  0  0  0  0  0  0  0  0  0  0
    2.6650   -1.9600    1.3450 C   0  0  0  0  0  0  0  0  0  0  0  0
    2.6160   -1.1900    0.2270 N   0  0  0  0  0  0  0  0  0  0  0  0
    1.4400   -1.0330   -0.6270 C   0  0  0  0  0  0  0  0  0  0  0  0
    0.6230    0.0750   -0.2870 N   0  0  0  0  0  0  0  0  0  0  0  0
    0.0820    0.0640    1.0200 C   0  0  0  0  0  0  0  0  0  0  0  0
   -0.9640    1.1250    1.2060 C   0  0  0  0  0  0  0  0  0  0  0  0
   -2.0660    0.8240    0.2470 C   0  0  0  0  0  0  0  0  0  0  0  0
   -1.6740    0.4580   -1.0310 C   0  0  0  0  0  0  0  0  0  0  0  0
   -2.8030    0.2300   -1.7350 N   0  0  0  0  0  0  0  0  0  0  0  0
   -3.8500    0.4380   -0.9510 C   0  0  0  0  0  0  0  0  0  0  0  0
   -5.2010    0.3410   -1.1930 C   0  0  0  0  0  0  0  0  0  0  0  0
   -6.1310    0.6160   -0.1890 C   0  0  0  0  0  0  0  0  0  0  0  0
   -5.6410    0.9840    1.0390 C   0  0  0  0  0  0  0  0  0  0  0  0
   -4.3000    1.0780    1.2710 N   0  0  0  0  0  0  0  0  0  0  0  0
   -3.4320    0.8110    0.2970 C   0  0  0  0  0  0  0  0  0  0  0  0
   -0.2530    0.3930   -1.3520 C   0  0  0  0  0  0  0  0  0  0  0  0
  1  2  1  0
  2  3  2  3
  3  4  1  0
  3  5  1  0
  5  6  2  0
  5  9  1  0
  6  7  1  0
  7  8  2  0
  8  9  1  0
  9 10  1  0
 10 11  1  0
 11 12  1  0
 11 23  1  0
 12 13  1  0
 13 14  1  0
 14 15  2  0
 14 22  1  0
 15 16  1  0
 15 23  1  0
 16 17  1  0
 17 18  2  0
 17 22  1  0
 18 19  1  0
 19 20  2  0
 20 21  1  0
 21 22  2  0
M  END
