
     RDKit          3D

 25 27  0  0  0  0  0  0  0  0999 V2000
   -4.5930    2.4540    0.4430 C   0  0  0  0  0  0  0  0  0  0  0  0
   -3.8570    1.3870    0.3570 C   0  0  0  0  0  0  0  0  0  0  0  0
   -2.4800    1.5370   -0.0420 N   0  0  0  0  0  0  0  0  0  0  0  0
   -1.5390    0.4960    0.1500 C   0  0  2  0  0  0  0  0  0  0  0  0
   -0.3570    0.5210   -0.7220 C   0  0  0  0  0  0  0  0  0  0  0  0
   -0.0180    1.5700   -1.3390 O   0  0  0  0  0  0  0  0  0  0  0  0
    0.4230   -0.6380   -0.8880 N   0  0  0  0  0  0  0  0  0  0  0  0
    1.7740   -0.7040   -1.3560 C   0  0  0  0  0  0  0  0  0  0  0  0
    2.8220   -0.6990   -0.2980 C   0  0  1  0  0  0  0  0  0  0  0  0
    4.1410   -0.8080   -0.9750 N   0  0  0  0  0  0  0  0  0  0  0  0
    2.9430    0.5560    0.4840 C   0  0  0  0  0  0  0  0  0  0  0  0
    2.8250    1.7660    0.0350 C   0  0  0  0  0  0  0  0  0  0  0  0
    2.9960    3.1350    1.0970 Cl  0  0  0  0  0  0  0  0  0  0  0  0
    3.2200    0.3800    1.8510 O   0  0  0  0  0  0  0  0  0  0  0  0
    4.5230    0.6010    2.3640 C   0  0  0  0  0  0  0  0  0  0  0  0
   -0.1670   -1.9110   -0.5260 C   0  0  0  0  0  0  0  0  0  0  0  0
    0.4810   -2.9720   -0.6680 O   0  0  0  0  0  0  0  0  0  0  0  0
   -1.4890   -1.9270   -0.0090 N   0  0  0  0  0  0  0  0  0  0  0  0
   -2.3180   -2.9760    0.2560 C   0  0  0  0  0  0  0  0  0  0  0  0
   -1.9910   -4.1850    0.1990 O   0  0  0  0  0  0  0  0  0  0  0  0
   -3.5030   -2.4070    0.5750 N   0  0  0  0  0  0  0  0  0  0  0  0
   -3.3940   -1.0600    0.5050 C   0  0  0  0  0  0  0  0  0  0  0  0
   -2.1350   -0.8140    0.1490 N   0  0  0  0  0  0  0  0  0  0  0  0
   -4.3300    0.0450    0.6360 C   0  0  0  0  0  0  0  0  0  0  0  0
   -5.5690   -0.1780    0.9980 C   0  0  0  0  0  0  0  0  0  0  0  0
  1  2  2  0
  2  3  1  0
  2 24  1  0
  4  3  1  6
  4  5  1  0
  4 23  1  0
  5  6  2  0
  5  7  1  0
  7  8  1  0
  7 16  1  0
  8  9  1  0
  9 10  1  6
  9 11  1  0
 11 12  2  3
 11 14  1  0
 12 13  1  0
 14 15  1  0
 16 17  2  0
 16 18  1  0
 18 19  1  0
 18 23  1  0
 19 20  2  0
 19 21  1  0
 21 22  2  0
 22 23  1  0
 22 24  1  0
 24 25  2  0
M  CHG  1  10   1
M  END
