
     RDKit          3D

 11 11  0  0  0  0  0  0  0  0999 V2000
    3.6440    0.2420   -0.2510 C   0  0  0  0  0  0  0  0  0  0  0  0
    2.3690    1.0670    0.0070 C   0  0  0  0  0  0  0  0  0  0  0  0
    1.2870    0.1170    0.2500 N   0  0  0  0  0  0  0  0  0  0  0  0
   -0.0680    0.4960    0.2820 C   0  0  0  0  0  0  0  0  0  0  0  0
   -1.0240   -0.3830    0.0320 C   0  0  0  0  0  0  0  0  0  0  0  0
   -0.8930   -1.7940   -0.2980 C   0  0  0  0  0  0  0  0  0  0  0  0
    0.1750   -2.4470   -0.3860 O   0  0  0  0  0  0  0  0  0  0  0  0
   -2.2040   -2.2980   -0.5030 N   0  0  0  0  0  0  0  0  0  0  0  0
   -3.0790   -1.2530   -0.3090 N   0  0  0  0  0  0  0  0  0  0  0  0
   -2.4660   -0.1490   -0.0080 C   0  0  0  0  0  0  0  0  0  0  0  0
   -3.1610    1.1560    0.2240 C   0  0  0  0  0  0  0  0  0  0  0  0
  1  2  1  0
  2  3  1  0
  3  4  1  0
  4  5  2  3
  5  6  1  0
  5 10  1  0
  6  7  2  0
  6  8  1  0
  8  9  1  0
  9 10  2  0
 10 11  1  0
M  END
