
     RDKit          3D

 11 11  0  0  0  0  0  0  0  0999 V2000
    4.0230    0.4910   -0.1910 C   0  0  0  0  0  0  0  0  0  0  0  0
    2.5660    0.4090   -0.1450 N   0  0  0  0  0  0  0  0  0  0  0  0
    1.9230   -0.8120    0.1260 C   0  0  0  0  0  0  0  0  0  0  0  0
    2.6710   -1.8370    0.3270 O   0  0  0  0  0  0  0  0  0  0  0  0
    0.4830   -1.0580    0.2060 C   0  0  0  0  0  0  0  0  0  0  0  0
   -0.3510    0.0770   -0.0180 N   0  0  0  0  0  0  0  0  0  0  0  0
   -1.7710    0.0200    0.0430 C   0  0  0  0  0  0  0  0  0  0  0  0
   -2.5030   -1.0730   -0.0870 C   0  0  0  0  0  0  0  0  0  0  0  0
   -3.8820   -0.7390    0.0310 N   0  0  0  0  0  0  0  0  0  0  0  0
   -4.0590    0.5190    0.2310 C   0  0  0  0  0  0  0  0  0  0  0  0
   -2.7120    1.1410    0.2590 C   0  0  0  0  0  0  0  0  0  0  0  0
  1  2  1  0
  2  3  1  0
  3  4  2  0
  3  5  1  0
  5  6  1  0
  6  7  1  0
  7  8  2  0
  7 11  1  0
  8  9  1  0
  9 10  2  0
 10 11  1  0
M  END
