
     RDKit          3D

 11 11  0  0  0  0  0  0  0  0999 V2000
   -2.6170    1.5950   -0.3820 C   0  0  0  0  0  0  0  0  0  0  0  0
   -1.9250    0.7000   -0.9950 N   0  0  0  0  0  0  0  0  0  0  0  0
   -1.1640   -0.2570   -0.3740 N   0  0  0  0  0  0  0  0  0  0  0  0
   -1.7990   -1.4090    0.2160 C   0  0  0  0  0  0  0  0  0  0  0  0
    0.2470   -0.1530   -0.2890 C   0  0  0  0  0  0  0  0  0  0  0  0
    0.9990   -0.1080    0.8130 C   0  0  0  0  0  0  0  0  0  0  0  0
    0.5080   -0.1570    2.1390 N   0  0  0  0  0  0  0  0  0  0  0  0
    2.4100    0.0020    0.4270 C   0  0  0  0  0  0  0  0  0  0  0  0
    3.3690   -0.3120    1.1680 O   0  0  0  0  0  0  0  0  0  0  0  0
    2.3730    0.5400   -0.9580 C   0  0  0  0  0  0  0  0  0  0  0  0
    1.1180   -0.0800   -1.4880 C   0  0  0  0  0  0  0  0  0  0  0  0
  1  2  2  0
  2  3  1  0
  3  4  1  0
  3  5  1  0
  5  6  2  0
  5 11  1  0
  6  7  1  0
  6  8  1  0
  8  9  2  0
  8 10  1  0
 10 11  1  0
M  END
