
     RDKit          3D

 11 11  0  0  0  0  0  0  0  0999 V2000
   -2.8460   -1.9280   -1.0040 C   0  0  0  0  0  0  0  0  0  0  0  0
   -2.1140   -0.6450   -0.9110 C   0  0  0  0  0  0  0  0  0  0  0  0
   -2.6970    0.5010   -1.4340 C   0  0  0  0  0  0  0  0  0  0  0  0
   -2.0910    1.6890   -1.3820 N   0  0  0  0  0  0  0  0  0  0  0  0
   -0.8770    1.7540   -0.8010 C   0  0  0  0  0  0  0  0  0  0  0  0
   -0.2570    0.6450   -0.2670 C   0  0  0  0  0  0  0  0  0  0  0  0
    1.0180    0.7630    0.3340 N   0  0  0  0  0  0  0  0  0  0  0  0
    1.7130   -0.3660    0.9090 C   0  0  0  0  0  0  0  0  0  0  0  0
    3.0450    0.0460    1.4770 C   0  0  0  0  0  0  0  0  0  0  0  0
    3.8890    0.5920    0.5330 O   0  0  0  0  0  0  0  0  0  0  0  0
   -0.9020   -0.5330   -0.3400 N   0  0  0  0  0  0  0  0  0  0  0  0
  1  2  1  0
  2  3  2  0
  2 11  1  0
  3  4  1  0
  4  5  2  0
  5  6  1  0
  6  7  1  0
  6 11  2  0
  7  8  1  0
  8  9  1  0
  9 10  1  0
M  END
