
     RDKit          3D

 11 11  0  0  0  0  0  0  0  0999 V2000
    4.0950    0.2880    0.2460 C   0  0  0  0  0  0  0  0  0  0  0  0
    2.6270    0.3270   -0.0170 C   0  0  0  0  0  0  0  0  0  0  0  0
    2.0730    1.3310   -0.5330 O   0  0  0  0  0  0  0  0  0  0  0  0
    1.7910   -0.7750    0.3050 N   0  0  0  0  0  0  0  0  0  0  0  0
    0.3920   -0.7660    0.0680 C   0  0  0  0  0  0  0  0  0  0  0  0
   -0.3900    0.3020    0.7700 C   0  0  0  0  0  0  0  0  0  0  0  0
   -1.8170    0.1330    0.3890 C   0  0  0  0  0  0  0  0  0  0  0  0
   -2.4640    0.7140   -0.6850 C   0  0  0  0  0  0  0  0  0  0  0  0
   -3.7500    0.3310   -0.7140 N   0  0  0  0  0  0  0  0  0  0  0  0
   -3.9410   -0.4910    0.3300 C   0  0  0  0  0  0  0  0  0  0  0  0
   -2.7580   -0.6090    1.0010 N   0  0  0  0  0  0  0  0  0  0  0  0
  1  2  1  0
  2  3  2  0
  2  4  1  0
  4  5  1  0
  5  6  1  0
  6  7  1  0
  7  8  2  0
  7 11  1  0
  8  9  1  0
  9 10  1  0
 10 11  2  0
M  END
