
     RDKit          3D

 19 20  0  0  0  0  0  0  0  0999 V2000
   -3.0270   -2.3850   -1.3410 N   0  0  0  0  0  0  0  0  0  0  0  0
   -2.8470   -0.9830   -1.2240 C   0  0  0  0  0  0  0  0  0  0  0  0
   -3.4140   -0.0920   -2.0670 N   0  0  0  0  0  0  0  0  0  0  0  0
   -3.2400    1.2380   -1.9530 C   0  0  0  0  0  0  0  0  0  0  0  0
   -2.4700    1.7080   -0.9590 N   0  0  0  0  0  0  0  0  0  0  0  0
   -1.8810    0.8730   -0.0910 C   0  0  0  0  0  0  0  0  0  0  0  0
   -2.0590   -0.4980   -0.2080 C   0  0  0  0  0  0  0  0  0  0  0  0
   -1.4530   -1.4040    0.6920 N   0  0  0  0  0  0  0  0  0  0  0  0
   -0.3940   -0.9180    1.9440 S   0  0  1  0  0  0  0  0  0  0  0  0
   -1.0320    0.0750    2.8600 O   0  0  0  0  0  0  0  0  0  0  0  0
    0.0730   -2.1310    2.6900 O   0  0  0  0  0  0  0  0  0  0  0  0
    1.0280   -0.1360    1.2810 C   0  0  0  0  0  0  0  0  0  0  0  0
    1.5160    1.1000    1.4630 C   0  0  0  0  0  0  0  0  0  0  0  0
    2.6350    1.4740    0.8400 C   0  0  0  0  0  0  0  0  0  0  0  0
    3.2420    0.5480    0.0250 C   0  0  0  0  0  0  0  0  0  0  0  0
    4.7190    0.7080   -0.9380 S   0  0  2  0  0  0  0  0  0  0  0  0
    5.4380    1.8920   -0.4020 O   0  0  0  0  0  0  0  0  0  0  0  0
    4.3400    0.9810   -2.3640 O   0  0  0  0  0  0  0  0  0  0  0  0
    2.1930   -0.8460    0.1670 S   0  0  0  0  0  0  0  0  0  0  0  0
  1  2  1  0
  2  3  2  0
  2  7  1  0
  3  4  1  0
  4  5  2  0
  5  6  1  0
  6  7  2  0
  7  8  1  0
  9  8  1  6
  9 10  2  0
  9 11  2  0
  9 12  1  0
 12 13  2  0
 12 19  1  0
 13 14  1  0
 14 15  2  0
 16 15  1  1
 15 19  1  0
 16 17  2  0
 16 18  2  0
M  END
