
     RDKit          3D

 11 11  0  0  0  0  0  0  0  0999 V2000
   -1.5930    1.5470    1.0710 C   0  0  0  0  0  0  0  0  0  0  0  0
   -1.9450    0.2250    0.5540 C   0  0  0  0  0  0  0  0  0  0  0  0
   -1.2040   -0.5930   -0.1790 C   0  0  0  0  0  0  0  0  0  0  0  0
   -1.7340   -1.9430   -0.6330 C   0  0  0  0  0  0  0  0  0  0  0  0
   -0.6450   -2.4970   -1.3730 N   0  0  0  0  0  0  0  0  0  0  0  0
    0.3740   -1.7410   -1.4260 C   0  0  0  0  0  0  0  0  0  0  0  0
    0.0960   -0.5250   -0.6970 N   0  0  0  0  0  0  0  0  0  0  0  0
    1.0250    0.5720   -0.5290 C   0  0  0  0  0  0  0  0  0  0  0  0
    2.1470    0.1790    0.3530 C   0  0  0  0  0  0  0  0  0  0  0  0
    3.1470    1.1390    0.6260 N   0  0  0  0  0  0  0  0  0  0  0  0
    2.2450   -0.9560    0.8630 O   0  0  0  0  0  0  0  0  0  0  0  0
  1  2  1  0
  2  3  2  3
  3  4  1  0
  3  7  1  0
  4  5  1  0
  5  6  2  0
  6  7  1  0
  7  8  1  0
  8  9  1  0
  9 10  1  0
  9 11  2  0
M  END
