
     RDKit          3D

 11 11  0  0  0  0  0  0  0  0999 V2000
    2.8540    0.3560   -1.2040 C   0  0  0  0  0  0  0  0  0  0  0  0
    2.6900    0.5080    0.2900 C   0  0  0  0  0  0  0  0  0  0  0  0
    1.5180   -0.2410    0.6830 N   0  0  0  0  0  0  0  0  0  0  0  0
    0.2330    0.1080    0.1220 C   0  0  0  0  0  0  0  0  0  0  0  0
    0.1650    1.0650   -0.7030 O   0  0  0  0  0  0  0  0  0  0  0  0
   -0.9140   -0.6040    0.4870 N   0  0  0  0  0  0  0  0  0  0  0  0
   -2.2090   -0.3420   -0.0030 C   0  0  0  0  0  0  0  0  0  0  0  0
   -2.6090    0.5700   -0.8580 C   0  0  0  0  0  0  0  0  0  0  0  0
   -4.0260    0.4530   -1.0520 N   0  0  0  0  0  0  0  0  0  0  0  0
   -4.3910   -0.4690   -0.2550 C   0  0  0  0  0  0  0  0  0  0  0  0
   -3.4260   -1.0740    0.3650 C   0  0  0  0  0  0  0  0  0  0  0  0
  1  2  1  0
  2  3  1  0
  3  4  1  0
  4  5  2  0
  4  6  1  0
  6  7  1  0
  7  8  2  0
  7 11  1  0
  8  9  1  0
  9 10  2  0
 10 11  2  0
M  END
