
     RDKit          3D

 18 18  0  0  0  0  0  0  0  0999 V2000
    5.3490   -0.7610   -0.7740 C   0  0  0  0  0  0  0  0  0  0  0  0
    4.8740   -0.8630    0.6130 C   0  0  0  0  0  0  0  0  0  0  0  0
    3.7270   -0.4350    1.0600 C   0  0  0  0  0  0  0  0  0  0  0  0
    3.4320   -0.6470    2.5630 C   0  0  0  0  0  0  0  0  0  0  0  0
    2.6710    0.2210    0.3450 C   0  0  0  0  0  0  0  0  0  0  0  0
    1.4510    0.6660    0.8700 C   0  0  0  0  0  0  0  0  0  0  0  0
    0.7020    1.2350   -0.0880 N   0  0  0  0  0  0  0  0  0  0  0  0
   -0.6110    1.8010    0.1000 C   0  0  0  0  0  0  0  0  0  0  0  0
   -1.6110    0.7170   -0.1310 C   0  0  0  0  0  0  0  0  0  0  0  0
   -1.2670   -0.4600   -0.4350 O   0  0  0  0  0  0  0  0  0  0  0  0
   -2.9770    0.9490   -0.0240 O   0  0  0  0  0  0  0  0  0  0  0  0
   -3.9080   -0.1050   -0.2500 C   0  0  1  0  0  0  0  0  0  0  0  0
   -3.8020   -0.6750   -1.6240 C   0  0  0  0  0  0  0  0  0  0  0  0
   -3.6990   -1.1160    0.8480 C   0  0  0  0  0  0  0  0  0  0  0  0
   -5.2940    0.5420   -0.1280 C   0  0  0  0  0  0  0  0  0  0  0  0
    1.4090    1.1610   -1.1970 C   0  0  0  0  0  0  0  0  0  0  0  0
    1.0610    1.5830   -2.3280 O   0  0  0  0  0  0  0  0  0  0  0  0
    2.6070    0.5460   -0.9400 N   0  0  0  0  0  0  0  0  0  0  0  0
  1  2  1  0
  2  3  2  3
  3  4  1  0
  3  5  1  0
  5  6  2  0
  5 18  1  0
  6  7  1  0
  7  8  1  0
  7 16  1  0
  8  9  1  0
  9 10  2  0
  9 11  1  0
 11 12  1  0
 12 13  1  6
 12 14  1  0
 12 15  1  0
 16 17  2  0
 16 18  1  0
M  END
