
     RDKit          3D

 12 13  0  0  0  0  0  0  0  0999 V2000
   -3.1500   -0.6220   -0.1080 C   0  0  0  0  0  0  0  0  0  0  0  0
   -2.7590    0.6860   -0.0700 C   0  0  0  0  0  0  0  0  0  0  0  0
   -1.4750    1.0240    0.3330 C   0  0  0  0  0  0  0  0  0  0  0  0
   -0.5930    0.0330    0.6950 C   0  0  0  0  0  0  0  0  0  0  0  0
    0.7620    0.3860    1.1200 C   0  0  0  0  0  0  0  0  0  0  0  0
    1.6970    0.4320    0.0160 N   0  0  0  0  0  0  0  0  0  0  0  0
    2.4280   -0.6040   -0.4260 C   0  0  0  0  0  0  0  0  0  0  0  0
    3.2050   -0.1870   -1.4920 C   0  0  0  0  0  0  0  0  0  0  0  0
    2.9380    1.0950   -1.6860 N   0  0  0  0  0  0  0  0  0  0  0  0
    2.0160    1.4600   -0.7580 C   0  0  0  0  0  0  0  0  0  0  0  0
   -0.9890   -1.2830    0.6560 C   0  0  0  0  0  0  0  0  0  0  0  0
   -2.2650   -1.6270    0.2560 C   0  0  0  0  0  0  0  0  0  0  0  0
  1  2  2  0
  1 12  1  0
  2  3  1  0
  3  4  2  0
  4  5  1  0
  4 11  1  0
  5  6  1  0
  6  7  1  0
  6 10  1  0
  7  8  2  0
  8  9  1  0
  9 10  2  0
 11 12  2  0
M  END
