
     RDKit          3D

 18 19  0  0  0  0  0  0  0  0999 V2000
   -2.7360   -2.7490   -1.2040 C   0  0  0  0  0  0  0  0  0  0  0  0
   -2.3250   -1.4580   -0.5900 C   0  0  0  0  0  0  0  0  0  0  0  0
   -3.2310   -0.4790   -0.2740 C   0  0  0  0  0  0  0  0  0  0  0  0
   -2.8520    0.7060    0.2890 C   0  0  0  0  0  0  0  0  0  0  0  0
   -1.5280    0.9560    0.5600 C   0  0  0  0  0  0  0  0  0  0  0  0
   -0.5690   -0.0210    0.2510 C   0  0  0  0  0  0  0  0  0  0  0  0
    0.7840    0.2410    0.5310 N   0  0  0  0  0  0  0  0  0  0  0  0
    1.8900   -0.5910    0.3030 C   0  0  0  0  0  0  0  0  0  0  0  0
    1.7520   -1.7030   -0.2000 O   0  0  0  0  0  0  0  0  0  0  0  0
    3.2300   -0.1700    0.6510 N   0  0  0  0  0  0  0  0  0  0  0  0
    4.3400   -1.0280    0.4130 C   0  0  0  0  0  0  0  0  0  0  0  0
    5.3210   -0.6450   -0.3820 C   0  0  0  0  0  0  0  0  0  0  0  0
    5.2750    0.6620   -1.0210 C   0  0  0  0  0  0  0  0  0  0  0  0
    6.1770    1.0660   -1.7790 O   0  0  0  0  0  0  0  0  0  0  0  0
   -0.9790   -1.1880   -0.3080 C   0  0  0  0  0  0  0  0  0  0  0  0
   -1.3890    2.2350    1.1340 O   0  0  0  0  0  0  0  0  0  0  0  0
   -2.5100    2.9830    0.6520 C   0  0  0  0  0  0  0  0  0  0  0  0
   -3.5970    1.9350    0.7360 C   0  0  0  0  0  0  0  0  0  0  0  0
  1  2  1  0
  2  3  2  0
  2 15  1  0
  3  4  1  0
  4  5  2  0
  4 18  1  0
  5  6  1  0
  5 16  1  0
  6  7  1  0
  6 15  2  0
  7  8  1  0
  8  9  2  0
  8 10  1  0
 10 11  1  0
 11 12  2  3
 12 13  1  0
 13 14  2  0
 16 17  1  0
 17 18  1  0
M  END
