
     RDKit          3D

 18 19  0  0  0  0  0  0  0  0999 V2000
    4.6770   -1.4400   -0.1550 C   0  0  0  0  0  0  0  0  0  0  0  0
    3.4470   -0.6590    0.1150 C   0  0  0  0  0  0  0  0  0  0  0  0
    3.3970    0.6080    0.3850 O   0  0  0  0  0  0  0  0  0  0  0  0
    2.1730    1.0370    0.5800 C   0  0  0  0  0  0  0  0  0  0  0  0
    1.8400    2.4290    0.9010 C   0  0  0  0  0  0  0  0  0  0  0  0
    1.3200   -0.0310    0.4290 C   0  0  0  0  0  0  0  0  0  0  0  0
   -0.1350   -0.0490    0.5520 C   0  0  0  0  0  0  0  0  0  0  0  0
   -0.8270    0.5580   -0.6630 C   0  0  0  0  0  0  0  0  0  0  0  0
   -2.3090    0.5200   -0.4980 C   0  0  0  0  0  0  0  0  0  0  0  0
   -3.0870   -0.4160   -1.1710 C   0  0  0  0  0  0  0  0  0  0  0  0
   -4.4250   -0.4790   -1.0410 N   0  0  0  0  0  0  0  0  0  0  0  0
   -5.0220    0.4000   -0.2290 C   0  0  0  0  0  0  0  0  0  0  0  0
   -6.2700    0.3420   -0.1070 O   0  0  0  0  0  0  0  0  0  0  0  0
   -4.2920    1.3230    0.4410 N   0  0  0  0  0  0  0  0  0  0  0  0
   -2.9540    1.3970    0.3210 C   0  0  0  0  0  0  0  0  0  0  0  0
   -2.3250    2.2760    0.9670 O   0  0  0  0  0  0  0  0  0  0  0  0
    2.1200   -1.1090    0.1340 C   0  0  0  0  0  0  0  0  0  0  0  0
    1.7630   -2.5090   -0.1300 C   0  0  0  0  0  0  0  0  0  0  0  0
  1  2  1  0
  2  3  1  0
  2 17  2  0
  3  4  1  0
  4  5  1  0
  4  6  2  0
  6  7  1  0
  6 17  1  0
  7  8  1  0
  8  9  1  0
  9 10  2  0
  9 15  1  0
 10 11  1  0
 11 12  1  0
 12 13  2  0
 12 14  1  0
 14 15  1  0
 15 16  2  0
 17 18  1  0
M  END
