
     RDKit          3D

 18 19  0  0  0  0  0  0  0  0999 V2000
   -4.0760    0.5940   -2.1860 C   0  0  0  0  0  0  0  0  0  0  0  0
   -4.2260    0.2840   -0.7190 C   0  0  0  0  0  0  0  0  0  0  0  0
   -5.4200    0.1720   -0.2010 C   0  0  0  0  0  0  0  0  0  0  0  0
   -5.5910   -0.1100    1.1320 O   0  0  0  0  0  0  0  0  0  0  0  0
   -4.5370   -0.2890    2.0140 C   0  0  0  0  0  0  0  0  0  0  0  0
   -3.1900   -0.1620    1.4200 C   0  0  0  0  0  0  0  0  0  0  0  0
   -3.0490    0.1050    0.1440 C   0  0  0  0  0  0  0  0  0  0  0  0
   -1.7920    0.2360   -0.4620 N   0  0  0  0  0  0  0  0  0  0  0  0
   -0.5230    0.1100    0.1420 C   0  0  0  0  0  0  0  0  0  0  0  0
   -0.3940   -0.1470    1.3520 O   0  0  0  0  0  0  0  0  0  0  0  0
    0.7230    0.2840   -0.6570 C   0  0  0  0  0  0  0  0  0  0  0  0
    1.8460    0.1050    0.1930 N   0  0  0  0  0  0  0  0  0  0  0  0
    2.0190   -1.2210    0.6620 C   0  0  0  0  0  0  0  0  0  0  0  0
    3.5100   -1.5170    0.6700 C   0  0  0  0  0  0  0  0  0  0  0  0
    3.9730   -1.2110   -0.6040 O   0  0  0  0  0  0  0  0  0  0  0  0
    4.1630    0.1630   -0.6740 C   0  0  2  0  0  0  0  0  0  0  0  0
    5.4620    0.5770   -0.0070 C   0  0  0  0  0  0  0  0  0  0  0  0
    3.0010    0.8750   -0.0710 C   0  0  0  0  0  0  0  0  0  0  0  0
  1  2  1  0
  2  3  2  0
  2  7  1  0
  3  4  1  0
  4  5  1  0
  5  6  1  0
  6  7  2  0
  7  8  1  0
  8  9  1  0
  9 10  2  0
  9 11  1  0
 11 12  1  0
 12 13  1  0
 12 18  1  0
 13 14  1  0
 14 15  1  0
 15 16  1  0
 16 17  1  1
 16 18  1  0
M  END
