
     RDKit          3D

 22 23  0  0  0  0  0  0  0  0999 V2000
    5.7940    1.2530   -0.3470 C   0  0  0  0  0  0  0  0  0  0  0  0
    5.3600    0.8810   -1.5420 C   0  0  0  0  0  0  0  0  0  0  0  0
    4.7400   -0.7410   -1.7480 S   0  0  1  0  0  0  0  0  0  0  0  0
    4.0700   -0.9070   -3.0790 O   0  0  0  0  0  0  0  0  0  0  0  0
    5.8410   -1.7650   -1.6780 O   0  0  0  0  0  0  0  0  0  0  0  0
    3.5940   -1.1450   -0.5230 N   0  0  0  0  0  0  0  0  0  0  0  0
    2.4410   -0.2380   -0.5920 C   0  0  0  0  0  0  0  0  0  0  0  0
    1.4680   -0.6010    0.4680 C   0  0  0  0  0  0  0  0  0  0  0  0
    1.7050   -1.6450    1.3310 C   0  0  0  0  0  0  0  0  0  0  0  0
    0.7820   -1.9200    2.2680 N   0  0  0  0  0  0  0  0  0  0  0  0
   -0.3630   -1.2050    2.3840 C   0  0  0  0  0  0  0  0  0  0  0  0
   -0.6490   -0.1510    1.5450 C   0  0  0  0  0  0  0  0  0  0  0  0
   -1.9050    0.6200    1.6810 C   0  0  0  0  0  0  0  0  0  0  0  0
   -2.9460    0.1610    0.8190 N   0  0  0  0  0  0  0  0  0  0  0  0
   -3.3830   -1.1750    0.9730 C   0  0  0  0  0  0  0  0  0  0  0  0
   -4.0870   -1.9200    0.1010 C   0  0  0  0  0  0  0  0  0  0  0  0
   -4.5590   -1.5380   -1.1850 N   0  0  0  0  0  0  0  0  0  0  0  0
   -4.6000   -0.3840   -1.7770 C   0  0  0  0  0  0  0  0  0  0  0  0
   -4.1410    0.8880   -1.2300 C   0  0  0  0  0  0  0  0  0  0  0  0
   -3.4280    1.1150   -0.1110 C   0  0  0  0  0  0  0  0  0  0  0  0
   -3.0870    2.5160    0.2280 C   0  0  0  0  0  0  0  0  0  0  0  0
    0.3060    0.1360    0.5740 C   0  0  0  0  0  0  0  0  0  0  0  0
  1  2  2  0
  2  3  1  0
  3  4  2  0
  3  5  2  0
  3  6  1  1
  6  7  1  0
  7  8  1  0
  8  9  2  0
  8 22  1  0
  9 10  1  0
 10 11  2  0
 11 12  1  0
 12 13  1  0
 12 22  2  0
 13 14  1  0
 14 15  1  0
 14 20  1  0
 15 16  2  0
 16 17  1  0
 17 18  2  0
 18 19  1  0
 19 20  2  0
 20 21  1  0
M  END
