
     RDKit          3D

 22 22  0  0  0  0  0  0  0  0999 V2000
    4.2470   -1.9920   -2.2820 C   0  0  0  0  0  0  0  0  0  0  0  0
    3.7040   -1.4840   -1.1730 C   0  0  0  0  0  0  0  0  0  0  0  0
    2.6910   -0.5230   -1.3110 N   0  0  0  0  0  0  0  0  0  0  0  0
    2.0810    0.0670   -0.3760 C   0  0  0  0  0  0  0  0  0  0  0  0
    1.0380    1.0560   -0.7490 C   0  0  0  0  0  0  0  0  0  0  0  0
    0.0730    1.1980    0.2940 N   0  0  0  0  0  0  0  0  0  0  0  0
   -0.7930    0.1520    0.5750 C   0  0  0  0  0  0  0  0  0  0  0  0
   -1.8420   -0.1560   -0.4600 C   0  0  0  0  0  0  0  0  0  0  0  0
   -2.7190   -1.2340   -0.0920 N   0  0  0  0  0  0  0  0  0  0  0  0
   -3.5850   -0.9090    1.0120 C   0  0  0  0  0  0  0  0  0  0  0  0
   -3.4370   -1.8050   -1.2010 C   0  0  0  0  0  0  0  0  0  0  0  0
   -4.3050   -2.9170   -0.5970 C   0  0  0  0  0  0  0  0  0  0  0  0
   -0.4050    2.5370    0.4070 C   0  0  1  0  0  0  0  0  0  0  0  0
    0.8200    3.3910    0.7700 C   0  0  0  0  0  0  0  0  0  0  0  0
   -0.8880    3.0030   -0.9370 C   0  0  0  0  0  0  0  0  0  0  0  0
   -1.4400    2.8070    1.4270 C   0  0  0  0  0  0  0  0  0  0  0  0
    2.3670   -0.1410    1.0100 N   0  0  0  0  0  0  0  0  0  0  0  0
    3.6610   -1.1350    1.5470 S   0  0  2  0  0  0  0  0  0  0  0  0
    3.2050   -2.1390    2.5700 O   0  0  0  0  0  0  0  0  0  0  0  0
    4.7920   -0.3040    2.0500 O   0  0  0  0  0  0  0  0  0  0  0  0
    4.2320   -1.9720    0.0920 C   0  0  0  0  0  0  0  0  0  0  0  0
    5.0790   -2.9610    0.2060 C   0  0  0  0  0  0  0  0  0  0  0  0
  1  2  2  0
  2  3  1  0
  2 21  1  0
  3  4  2  0
  4  5  1  0
  4 17  1  0
  5  6  1  0
  6  7  1  0
  6 13  1  0
  7  8  1  0
  8  9  1  0
  9 10  1  0
  9 11  1  0
 11 12  1  0
 13 14  1  1
 13 15  1  0
 13 16  1  0
 18 17  1  6
 18 19  2  0
 18 20  2  0
 18 21  1  0
 21 22  2  0
M  END
