
     RDKit          3D

 22 23  0  0  0  0  0  0  0  0999 V2000
    5.2430   -1.1460    0.2180 C   0  0  0  0  0  0  0  0  0  0  0  0
    4.8130   -0.2940   -0.7650 O   0  0  0  0  0  0  0  0  0  0  0  0
    3.4490   -0.2480   -0.9330 C   0  0  0  0  0  0  0  0  0  0  0  0
    2.7000    0.1990    0.2920 C   0  0  0  0  0  0  0  0  0  0  0  0
    1.2700    0.2380    0.0820 N   0  0  0  0  0  0  0  0  0  0  0  0
    0.5500    1.2860   -0.3610 C   0  0  0  0  0  0  0  0  0  0  0  0
   -0.7710    0.9000   -0.4160 C   0  0  0  0  0  0  0  0  0  0  0  0
   -1.9210    1.7350   -0.8580 C   0  0  0  0  0  0  0  0  0  0  0  0
   -1.5800    3.0640   -1.2270 N   0  0  0  0  0  0  0  0  0  0  0  0
   -1.0160    3.9510   -0.2710 C   0  0  0  0  0  0  0  0  0  0  0  0
   -0.8080    3.5910    0.9210 O   0  0  0  0  0  0  0  0  0  0  0  0
   -0.6790    5.2880   -0.6800 N   0  0  0  0  0  0  0  0  0  0  0  0
    0.0170    6.3600    0.5310 S   0  0  0  0  0  0  0  0  0  0  0  0
   -0.8870   -0.4300    0.0040 C   0  0  0  0  0  0  0  0  0  0  0  0
   -2.1150   -1.1710    0.0780 C   0  0  0  0  0  0  0  0  0  0  0  0
   -2.2950   -2.3970    0.4560 C   0  0  0  0  0  0  0  0  0  0  0  0
   -3.6380   -2.9980    0.4680 C   0  0  0  0  0  0  0  0  0  0  0  0
   -4.2340   -4.1380    0.7600 C   0  0  0  0  0  0  0  0  0  0  0  0
   -5.5420   -3.6040    0.4040 C   0  0  0  0  0  0  0  0  0  0  0  0
   -4.9470   -2.4970    0.1220 N   0  0  0  0  0  0  0  0  0  0  0  0
    0.4200   -0.7970    0.3040 C   0  0  0  0  0  0  0  0  0  0  0  0
    0.8280   -2.1230    0.7940 C   0  0  0  0  0  0  0  0  0  0  0  0
  1  2  1  0
  2  3  1  0
  3  4  1  0
  4  5  1  0
  5  6  1  0
  5 21  1  0
  6  7  2  0
  7  8  1  0
  7 14  1  0
  8  9  1  0
  9 10  1  0
 10 11  2  0
 10 12  1  0
 12 13  1  0
 14 15  1  0
 14 21  2  0
 15 16  2  3
 16 17  1  0
 17 18  2  0
 17 20  1  0
 18 19  1  0
 19 20  2  0
 21 22  1  0
M  END
