
     RDKit          3D

 22 22  0  0  0  0  0  0  0  0999 V2000
   -4.9500    3.4730   -0.8780 C   0  0  0  0  0  0  0  0  0  0  0  0
   -4.6660    2.2050   -0.9630 C   0  0  0  0  0  0  0  0  0  0  0  0
   -3.4490    1.6810   -0.4880 N   0  0  0  0  0  0  0  0  0  0  0  0
   -2.4410    2.4950    0.1170 C   0  0  0  0  0  0  0  0  0  0  0  0
   -3.2650    0.2440   -0.6480 C   0  0  0  0  0  0  0  0  0  0  0  0
   -4.1550   -0.4300   -1.1740 O   0  0  0  0  0  0  0  0  0  0  0  0
   -2.0150   -0.4000   -0.1800 C   0  0  0  0  0  0  0  0  0  0  0  0
   -1.1590    0.3570    0.3480 N   0  0  0  0  0  0  0  0  0  0  0  0
    0.0300    0.4030    0.9060 N   0  0  0  0  0  0  0  0  0  0  0  0
    1.3030    0.4010    0.2230 C   0  0  0  0  0  0  0  0  0  0  0  0
    1.2440    0.3480   -1.0320 O   0  0  0  0  0  0  0  0  0  0  0  0
    2.5790    0.4550    0.9400 C   0  0  0  0  0  0  0  0  0  0  0  0
    3.7730    0.4420    0.0440 C   0  0  0  0  0  0  0  0  0  0  0  0
    5.0210    0.5020    0.8980 C   0  0  0  0  0  0  0  0  0  0  0  0
    6.2760    0.4930    0.0530 C   0  0  0  0  0  0  0  0  0  0  0  0
   -1.7620   -1.8240   -0.2780 C   0  0  0  0  0  0  0  0  0  0  0  0
   -2.6010   -2.6510   -0.8650 C   0  0  0  0  0  0  0  0  0  0  0  0
   -2.5900   -4.0980   -1.0990 C   0  0  0  0  0  0  0  0  0  0  0  0
   -1.5990   -4.8760   -1.3000 N   0  0  0  0  0  0  0  0  0  0  0  0
    0.1250   -4.3700   -1.3480 S   0  0  0  0  0  0  0  0  0  0  0  0
    0.3170   -3.2600    0.0610 C   0  0  0  0  0  0  0  0  0  0  0  0
   -0.5200   -2.2830    0.3700 C   0  0  0  0  0  0  0  0  0  0  0  0
  1  2  2  0
  2  3  1  0
  3  4  1  0
  3  5  1  0
  5  6  2  0
  5  7  1  0
  7  8  2  3
  7 16  1  0
  8  9  1  0
  9 10  1  0
 10 11  2  0
 10 12  1  0
 12 13  1  0
 13 14  1  0
 14 15  1  0
 16 17  2  0
 16 22  1  0
 17 18  1  0
 18 19  2  0
 19 20  1  0
 20 21  1  0
 21 22  2  0
M  END
