
     RDKit          3D

 22 23  0  0  0  0  0  0  0  0999 V2000
    3.1250   -3.8450   -3.3720 C   0  0  0  0  0  0  0  0  0  0  0  0
    1.7260   -3.6770   -3.8930 C   0  0  0  0  0  0  0  0  0  0  0  0
    1.3940   -2.2520   -4.2370 C   0  0  0  0  0  0  0  0  0  0  0  0
    1.4530   -1.3030   -3.2160 N   0  0  0  0  0  0  0  0  0  0  0  0
    0.5840   -1.0810   -2.1290 C   0  0  0  0  0  0  0  0  0  0  0  0
    0.8150   -0.1220   -1.1240 N   0  0  0  0  0  0  0  0  0  0  0  0
   -0.2060   -0.0950   -0.2950 C   0  0  0  0  0  0  0  0  0  0  0  0
   -0.4540    0.7760    0.8680 C   0  0  0  0  0  0  0  0  0  0  0  0
   -1.6720    0.7040    1.5720 C   0  0  0  0  0  0  0  0  0  0  0  0
   -1.9980    1.5120    2.6210 C   0  0  0  0  0  0  0  0  0  0  0  0
   -3.1060    1.5350    3.3790 O   0  0  0  0  0  0  0  0  0  0  0  0
   -4.1840    0.6220    3.4160 C   0  0  0  0  0  0  0  0  0  0  0  0
   -0.9640    2.4810    2.9760 C   0  0  0  0  0  0  0  0  0  0  0  0
   -1.2730    3.2560    3.9810 O   0  0  0  0  0  0  0  0  0  0  0  0
   -0.9710    4.1950    4.8300 C   0  0  0  0  0  0  0  0  0  0  0  0
    0.2090    2.5330    2.2950 C   0  0  0  0  0  0  0  0  0  0  0  0
    0.4790    1.6830    1.2320 C   0  0  0  0  0  0  0  0  0  0  0  0
    1.7320    1.7830    0.5480 O   0  0  0  0  0  0  0  0  0  0  0  0
    2.5690    2.7510    1.0720 C   0  0  0  0  0  0  0  0  0  0  0  0
   -1.0910   -1.0060   -0.7120 N   0  0  0  0  0  0  0  0  0  0  0  0
   -0.5950   -1.5880   -1.8170 N   0  0  0  0  0  0  0  0  0  0  0  0
   -1.3840   -2.6050   -2.4970 C   0  0  0  0  0  0  0  0  0  0  0  0
  1  2  1  0
  2  3  1  0
  3  4  1  0
  4  5  1  0
  5  6  2  0
  5 21  1  0
  6  7  1  0
  7  8  1  0
  7 20  2  0
  8  9  2  0
  8 17  1  0
  9 10  1  0
 10 11  1  0
 10 13  2  0
 11 12  1  0
 13 14  1  0
 13 16  1  0
 14 15  1  0
 16 17  2  0
 17 18  1  0
 18 19  1  0
 20 21  1  0
 21 22  1  0
M  END
