
     RDKit          3D

 22 23  0  0  0  0  0  0  0  0999 V2000
    3.3500    1.8120    1.5980 C   0  0  0  0  0  0  0  0  0  0  0  0
    4.4120    1.4880    0.6330 C   0  0  0  0  0  0  0  0  0  0  0  0
    4.4960    0.1780   -0.0210 C   0  0  0  0  0  0  0  0  0  0  0  0
    3.3750   -0.2890   -0.8760 C   0  0  0  0  0  0  0  0  0  0  0  0
    2.1330   -0.5500   -0.1410 C   0  0  0  0  0  0  0  0  0  0  0  0
    2.0170   -0.6540    1.0940 O   0  0  0  0  0  0  0  0  0  0  0  0
    0.9160   -0.7020   -0.9240 N   0  0  0  0  0  0  0  0  0  0  0  0
   -0.3170   -0.9550   -0.2700 C   0  0  0  0  0  0  0  0  0  0  0  0
   -1.1040    0.1070    0.1120 C   0  0  0  0  0  0  0  0  0  0  0  0
   -0.7140    1.4890   -0.1380 C   0  0  0  0  0  0  0  0  0  0  0  0
    0.3900    1.7300   -0.7320 O   0  0  0  0  0  0  0  0  0  0  0  0
   -2.3180   -0.0990    0.7590 C   0  0  0  0  0  0  0  0  0  0  0  0
   -3.3360    1.2560    1.2470 S   0  0  0  0  0  0  0  0  0  0  0  0
   -4.5160    1.7610   -0.0010 C   0  0  0  0  0  0  0  0  0  0  0  0
   -3.8550    2.3400   -1.2320 C   0  0  0  0  0  0  0  0  0  0  0  0
   -2.7210   -1.3410    1.0120 N   0  0  0  0  0  0  0  0  0  0  0  0
   -3.8060   -1.8440    1.6010 C   0  0  0  0  0  0  0  0  0  0  0  0
   -3.7070   -3.1890    1.5920 N   0  0  0  0  0  0  0  0  0  0  0  0
   -2.5820   -3.5360    1.0080 N   0  0  0  0  0  0  0  0  0  0  0  0
   -1.9620   -2.3750    0.6440 C   0  0  0  0  0  0  0  0  0  0  0  0
   -0.7510   -2.2360   -0.0000 C   0  0  0  0  0  0  0  0  0  0  0  0
    0.0750   -3.4320   -0.3990 C   0  0  0  0  0  0  0  0  0  0  0  0
  1  2  1  0
  2  3  1  0
  3  4  1  0
  4  5  1  0
  5  6  2  0
  5  7  1  0
  7  8  1  0
  8  9  1  0
  8 21  2  0
  9 10  1  0
  9 12  2  0
 10 11  2  0
 12 13  1  0
 12 16  1  0
 13 14  1  0
 14 15  1  0
 16 17  1  0
 16 20  1  0
 17 18  2  0
 18 19  1  0
 19 20  2  0
 20 21  1  0
 21 22  1  0
M  END
