
     RDKit          3D

 17 16  0  0  0  0  0  0  0  0999 V2000
   -4.1960   -0.8120   -1.3040 C   0  0  0  0  0  0  0  0  0  0  0  0
   -3.3660   -0.1050   -0.5460 C   0  0  0  0  0  0  0  0  0  0  0  0
   -3.8780    0.4840    0.7000 C   0  0  0  0  0  0  0  0  0  0  0  0
   -3.2340    0.0070    1.9030 N   0  0  0  0  0  0  0  0  0  0  0  0
   -1.9950    0.0840   -0.9930 C   0  0  2  0  0  0  0  0  0  0  0  0
   -1.7600   -0.5580   -2.2310 O   0  0  0  0  0  0  0  0  0  0  0  0
   -0.9130   -0.4150   -0.0650 C   0  0  0  0  0  0  0  0  0  0  0  0
    0.3400   -0.0280   -0.7370 N   0  0  0  0  0  0  0  0  0  0  0  0
    1.4750   -0.1530    0.1310 C   0  0  1  0  0  0  0  0  0  0  0  0
    2.0220   -1.5650    0.1430 C   0  0  0  0  0  0  0  0  0  0  0  0
    1.0690   -2.4790    0.5790 O   0  0  0  0  0  0  0  0  0  0  0  0
    2.5100    0.8430   -0.3220 C   0  0  0  0  0  0  0  0  0  0  0  0
    3.7630    0.8070    0.5220 C   0  0  0  0  0  0  0  0  0  0  0  0
    4.7030    1.8570   -0.0520 C   0  0  1  0  0  0  0  0  0  0  0  0
    4.0960    3.0970    0.0140 F   0  0  0  0  0  0  0  0  0  0  0  0
    5.9350    1.8360    0.5580 F   0  0  0  0  0  0  0  0  0  0  0  0
    4.8250    1.5590   -1.4090 F   0  0  0  0  0  0  0  0  0  0  0  0
  1  2  2  0
  2  3  1  0
  2  5  1  0
  3  4  1  0
  5  6  1  6
  5  7  1  0
  7  8  1  0
  8  9  1  0
  9 10  1  6
  9 12  1  0
 10 11  1  0
 12 13  1  0
 13 14  1  0
 14 15  1  6
 14 16  1  0
 14 17  1  0
M  CHG  2   4   1   8   1
M  END
