
     RDKit          3D

 16 15  0  0  0  0  0  0  0  0999 V2000
   -1.0010    1.7170   -0.1780 C   0  0  0  0  0  0  0  0  0  0  0  0
   -1.2160    0.2220   -0.3260 C   0  0  2  0  0  0  0  0  0  0  0  0
   -2.0330    0.0690   -1.5460 N   0  0  0  0  0  0  0  0  0  0  0  0
   -2.1790   -0.0800    0.8190 C   0  0  0  0  0  0  0  0  0  0  0  0
   -3.4010    0.7220    0.6080 N   0  0  0  0  0  0  0  0  0  0  0  0
   -0.0240   -0.6070   -0.4110 C   0  0  2  0  0  0  0  0  0  0  0  0
   -0.1410   -2.0740   -0.6480 C   0  0  0  0  0  0  0  0  0  0  0  0
   -0.8690   -2.9410    0.2870 C   0  0  0  0  0  0  0  0  0  0  0  0
   -0.4310   -2.8940    1.5960 O   0  0  0  0  0  0  0  0  0  0  0  0
    1.0690   -0.4370    0.6090 C   0  0  0  0  0  0  0  0  0  0  0  0
    1.7920    0.8570    0.6870 C   0  0  0  0  0  0  0  0  0  0  0  0
    2.5050    1.2080   -0.6120 C   0  0  0  0  0  0  0  0  0  0  0  0
    3.4580    0.2720   -0.9760 O   0  0  0  0  0  0  0  0  0  0  0  0
    4.4930    0.1330   -0.0850 C   0  0  1  0  0  0  0  0  0  0  0  0
    4.5730   -1.1710    0.3990 F   0  0  0  0  0  0  0  0  0  0  0  0
    5.7270    0.3710   -0.6850 F   0  0  0  0  0  0  0  0  0  0  0  0
  2  1  1  1
  2  3  1  0
  2  4  1  0
  2  6  1  0
  4  5  1  0
  6  7  1  1
  6 10  1  0
  7  8  1  0
  8  9  1  0
 10 11  1  0
 11 12  1  0
 12 13  1  0
 13 14  1  0
 14 15  1  6
 14 16  1  0
M  CHG  2   3   1   5   1
M  END
