
     RDKit          3D

 17 16  0  0  0  0  0  0  0  0999 V2000
    0.8540    4.0280    0.8390 C   0  0  0  0  0  0  0  0  0  0  0  0
    0.5840    2.8960    0.0840 O   0  0  0  0  0  0  0  0  0  0  0  0
    1.6370    1.9950    0.1700 C   0  0  0  0  0  0  0  0  0  0  0  0
    1.4230    0.7490   -0.6150 C   0  0  1  0  0  0  0  0  0  0  0  0
    2.6410   -0.1620   -0.2940 C   0  0  0  0  0  0  0  0  0  0  0  0
    2.5070   -1.3170   -1.0220 O   0  0  0  0  0  0  0  0  0  0  0  0
    3.5070   -2.2160   -0.9220 C   0  0  0  0  0  0  0  0  0  0  0  0
    3.7550   -2.7290    0.4710 C   0  0  1  0  0  0  0  0  0  0  0  0
    4.8010   -3.6580    0.3430 F   0  0  0  0  0  0  0  0  0  0  0  0
    4.2240   -1.6860    1.2850 F   0  0  0  0  0  0  0  0  0  0  0  0
    2.6540   -3.3350    0.9950 F   0  0  0  0  0  0  0  0  0  0  0  0
    0.2680   -0.0060   -0.2230 N   0  0  0  0  0  0  0  0  0  0  0  0
   -0.9730    0.6800   -0.3860 C   0  0  0  0  0  0  0  0  0  0  0  0
   -2.0690   -0.3640   -0.4690 C   0  0  0  0  0  0  0  0  0  0  0  0
   -3.4290    0.2730   -0.6430 C   0  0  0  0  0  0  0  0  0  0  0  0
   -4.4800   -0.8130   -0.7200 C   0  0  0  0  0  0  0  0  0  0  0  0
   -4.4780   -1.6090    0.5000 N   0  0  0  0  0  0  0  0  0  0  0  0
  1  2  1  0
  2  3  1  0
  4  3  1  1
  4  5  1  0
  4 12  1  0
  5  6  1  0
  6  7  1  0
  7  8  1  0
  8  9  1  6
  8 10  1  0
  8 11  1  0
 12 13  1  0
 13 14  1  0
 14 15  1  0
 15 16  1  0
 16 17  1  0
M  CHG  2  12   1  17   1
M  END
