
     RDKit          3D

 17 16  0  0  0  0  0  0  0  0999 V2000
    4.8920   -0.0100   -0.2510 C   0  0  0  0  0  0  0  0  0  0  0  0
    3.5570    0.5520    0.1910 C   0  0  0  0  0  0  0  0  0  0  0  0
    2.8300   -0.4300    1.0890 C   0  0  0  0  0  0  0  0  0  0  0  0
    1.6580   -0.0820    1.5500 O   0  0  0  0  0  0  0  0  0  0  0  0
    0.5340    0.2840    1.0030 C   0  0  0  0  0  0  0  0  0  0  0  0
   -0.2180   -0.6590    0.0480 C   0  0  2  0  0  0  0  0  0  0  0  0
   -0.4780   -1.7840    0.8200 O   0  0  0  0  0  0  0  0  0  0  0  0
    0.6170   -0.8670   -1.1550 C   0  0  0  0  0  0  0  0  0  0  0  0
    0.0030   -1.8220   -2.0480 N   0  0  0  0  0  0  0  0  0  0  0  0
   -1.5670   -0.0200   -0.2770 C   0  0  1  0  0  0  0  0  0  0  0  0
   -2.4980   -0.9000   -0.8930 N   0  0  0  0  0  0  0  0  0  0  0  0
   -2.1230    0.6460    0.9140 C   0  0  0  0  0  0  0  0  0  0  0  0
   -3.4850    1.2960    0.7150 C   0  0  0  0  0  0  0  0  0  0  0  0
   -3.4990    2.3620   -0.3270 C   0  0  2  0  0  0  0  0  0  0  0  0
   -4.8150    2.8430   -0.3790 F   0  0  0  0  0  0  0  0  0  0  0  0
   -3.1540    1.9820   -1.5830 F   0  0  0  0  0  0  0  0  0  0  0  0
   -2.7550    3.4480    0.1190 F   0  0  0  0  0  0  0  0  0  0  0  0
  1  2  1  0
  2  3  1  0
  3  4  1  0
  4  5  1  0
  5  6  1  0
  6  7  1  1
  6  8  1  0
  6 10  1  0
  8  9  1  0
 10 11  1  1
 10 12  1  0
 12 13  1  0
 13 14  1  0
 14 15  1  6
 14 16  1  0
 14 17  1  0
M  CHG  2   9   1  11   1
M  END
