
     RDKit          3D

 17 16  0  0  0  0  0  0  0  0999 V2000
   -0.5330   -2.5700   -0.9250 N   0  0  0  0  0  0  0  0  0  0  0  0
   -1.0670   -1.2500   -0.8860 C   0  0  0  0  0  0  0  0  0  0  0  0
   -0.7190   -0.3740    0.2410 C   0  0  2  0  0  0  0  0  0  0  0  0
   -1.3760    0.9710    0.1080 C   0  0  0  0  0  0  0  0  0  0  0  0
   -2.8980    0.8860    0.0800 C   0  0  0  0  0  0  0  0  0  0  0  0
   -3.4750    2.3040   -0.0500 C   0  0  2  0  0  0  0  0  0  0  0  0
   -3.0870    3.0940    1.0160 F   0  0  0  0  0  0  0  0  0  0  0  0
   -4.8380    2.2230   -0.1370 F   0  0  0  0  0  0  0  0  0  0  0  0
   -3.0060    2.9000   -1.1970 F   0  0  0  0  0  0  0  0  0  0  0  0
    0.6660   -0.2770    0.7190 C   0  0  1  0  0  0  0  0  0  0  0  0
    0.6620    0.6930    1.7660 O   0  0  0  0  0  0  0  0  0  0  0  0
    1.1130   -1.5500    1.5030 C   0  0  0  0  0  0  0  0  0  0  0  0
    0.2050   -1.8800    2.5500 N   0  0  0  0  0  0  0  0  0  0  0  0
    1.7650   -0.0060   -0.2110 C   0  0  0  0  0  0  0  0  0  0  0  0
    1.7590    1.2440   -1.0070 C   0  0  0  0  0  0  0  0  0  0  0  0
    3.0710    1.1990   -1.8300 C   0  0  0  0  0  0  0  0  0  0  0  0
    3.1820    2.3260   -2.6230 O   0  0  0  0  0  0  0  0  0  0  0  0
  1  2  1  0
  3  2  1  6
  3  4  1  0
  3 10  1  0
  4  5  1  0
  5  6  1  0
  6  7  1  1
  6  8  1  0
  6  9  1  0
 10 11  1  1
 10 12  1  0
 10 14  1  0
 12 13  1  0
 14 15  1  0
 15 16  1  0
 16 17  1  0
M  CHG  2   1   1  13   1
M  END
