
     RDKit          3D

 17 16  0  0  0  0  0  0  0  0999 V2000
   -2.7780    0.9310    1.2530 C   0  0  0  0  0  0  0  0  0  0  0  0
   -1.6660    0.0980    0.5850 C   0  0  1  0  0  0  0  0  0  0  0  0
   -1.9050   -1.3160    0.9730 C   0  0  0  0  0  0  0  0  0  0  0  0
   -1.7480    0.3000   -0.8970 C   0  0  0  0  0  0  0  0  0  0  0  0
   -3.0440   -0.1280   -1.4100 N   0  0  0  0  0  0  0  0  0  0  0  0
   -0.4090    0.6560    1.0870 N   0  0  0  0  0  0  0  0  0  0  0  0
    0.6410   -0.3000    1.1320 C   0  0  0  0  0  0  0  0  0  0  0  0
    1.6860   -0.0720    0.0650 C   0  0  0  0  0  0  0  0  0  0  0  0
    1.8130   -0.9910   -0.8720 C   0  0  0  0  0  0  0  0  0  0  0  0
    0.9180   -2.1170   -0.7470 O   0  0  0  0  0  0  0  0  0  0  0  0
    2.6870   -1.0950   -2.0220 C   0  0  0  0  0  0  0  0  0  0  0  0
    3.4600   -2.2600   -1.8660 F   0  0  0  0  0  0  0  0  0  0  0  0
    2.5290    1.0940    0.0770 C   0  0  0  0  0  0  0  0  0  0  0  0
    3.4930    1.3100   -0.9430 O   0  0  0  0  0  0  0  0  0  0  0  0
    2.5130    2.0520    0.9850 C   0  0  0  0  0  0  0  0  0  0  0  0
    1.7110    2.0970    2.0540 F   0  0  0  0  0  0  0  0  0  0  0  0
    3.3720    3.1290    0.8870 F   0  0  0  0  0  0  0  0  0  0  0  0
  2  1  1  1
  2  3  1  0
  2  4  1  0
  2  6  1  0
  4  5  1  0
  6  7  1  0
  7  8  1  0
  8  9  2  3
  8 13  1  0
  9 10  1  0
  9 11  1  0
 11 12  1  0
 13 14  1  0
 13 15  2  3
 15 16  1  0
 15 17  1  0
M  CHG  1   6   1
M  END
