
     RDKit          3D

 17 16  0  0  0  0  0  0  0  0999 V2000
    4.6380    0.4420   -0.5260 C   0  0  0  0  0  0  0  0  0  0  0  0
    3.8020   -0.2620   -1.5870 C   0  0  0  0  0  0  0  0  0  0  0  0
    2.6650   -0.8070   -1.0070 O   0  0  0  0  0  0  0  0  0  0  0  0
    1.8600    0.1600   -0.4040 C   0  0  0  0  0  0  0  0  0  0  0  0
    0.6760   -0.6010    0.1710 C   0  0  1  0  0  0  0  0  0  0  0  0
    0.1630   -1.4780   -0.9170 C   0  0  0  0  0  0  0  0  0  0  0  0
    1.3000   -1.5280    1.2250 C   0  0  0  0  0  0  0  0  0  0  0  0
    0.3000   -2.2780    1.7910 O   0  0  0  0  0  0  0  0  0  0  0  0
   -0.2620    0.2280    0.8320 N   0  0  0  0  0  0  0  0  0  0  0  0
   -1.6140   -0.1610    0.8700 C   0  0  0  0  0  0  0  0  0  0  0  0
   -2.4780    0.1870   -0.2920 C   0  0  1  0  0  0  0  0  0  0  0  0
   -3.8610   -0.2980   -0.0890 N   0  0  0  0  0  0  0  0  0  0  0  0
   -2.5440    1.6710   -0.4770 C   0  0  0  0  0  0  0  0  0  0  0  0
   -3.0910    2.4260    0.6980 C   0  0  2  0  0  0  0  0  0  0  0  0
   -3.0710    3.7780    0.3170 F   0  0  0  0  0  0  0  0  0  0  0  0
   -2.2430    2.3770    1.7990 F   0  0  0  0  0  0  0  0  0  0  0  0
   -4.3790    2.1180    1.0150 F   0  0  0  0  0  0  0  0  0  0  0  0
  1  2  1  0
  2  3  1  0
  3  4  1  0
  4  5  1  0
  5  6  1  6
  5  7  1  0
  5  9  1  0
  7  8  1  0
  9 10  1  0
 10 11  1  0
 11 12  1  1
 11 13  1  0
 13 14  1  0
 14 15  1  6
 14 16  1  0
 14 17  1  0
M  CHG  2   9   1  12   1
M  END
