
     RDKit          3D

 17 16  0  0  0  0  0  0  0  0999 V2000
   -1.8770    1.2020   -1.8330 C   0  0  0  0  0  0  0  0  0  0  0  0
   -0.7270    1.0620   -0.8350 C   0  0  1  0  0  0  0  0  0  0  0  0
    0.0240    2.2350   -1.1780 O   0  0  0  0  0  0  0  0  0  0  0  0
   -1.2730    1.4350    0.5010 C   0  0  0  0  0  0  0  0  0  0  0  0
   -2.1110    2.6540    0.3160 N   0  0  0  0  0  0  0  0  0  0  0  0
    0.0360   -0.1580   -1.0230 C   0  0  2  0  0  0  0  0  0  0  0  0
   -0.6180   -1.4930   -0.9570 C   0  0  0  0  0  0  0  0  0  0  0  0
   -1.3100   -1.9050    0.2790 C   0  0  0  0  0  0  0  0  0  0  0  0
   -1.8460   -3.3540    0.0920 C   0  0  0  0  0  0  0  0  0  0  0  0
   -0.8150   -4.2270   -0.1620 O   0  0  0  0  0  0  0  0  0  0  0  0
    1.4140   -0.2510   -0.4450 C   0  0  0  0  0  0  0  0  0  0  0  0
    1.6340   -0.1210    0.9290 N   0  0  0  0  0  0  0  0  0  0  0  0
    2.5710    0.9680    1.2690 C   0  0  0  0  0  0  0  0  0  0  0  0
    4.0160    0.4660    1.1570 C   0  0  2  0  0  0  0  0  0  0  0  0
    4.8140    1.5400    1.4890 F   0  0  0  0  0  0  0  0  0  0  0  0
    4.2980    0.1150   -0.1580 F   0  0  0  0  0  0  0  0  0  0  0  0
    4.2480   -0.6040    1.9760 F   0  0  0  0  0  0  0  0  0  0  0  0
  2  1  1  6
  2  3  1  0
  2  4  1  0
  2  6  1  0
  4  5  1  0
  6  7  1  1
  6 11  1  0
  7  8  1  0
  8  9  1  0
  9 10  1  0
 11 12  1  0
 12 13  1  0
 13 14  1  0
 14 15  1  1
 14 16  1  0
 14 17  1  0
M  CHG  2   5   1  12   1
M  END
