
     RDKit          3D

 17 18  0  0  0  0  0  0  0  0999 V2000
   -0.1780    0.8990   -1.2540 O   0  0  0  0  0  0  0  0  0  0  0  0
   -0.1150    0.0710   -0.3380 C   0  0  0  0  0  0  0  0  0  0  0  0
   -1.1890   -0.5720    0.4150 C   0  0  0  0  0  0  0  0  0  0  0  0
   -2.5720   -0.2550    0.1130 C   0  0  0  0  0  0  0  0  0  0  0  0
   -3.0050    0.5610   -0.7840 C   0  0  0  0  0  0  0  0  0  0  0  0
   -4.3660    0.8450   -1.0500 O   0  0  0  0  0  0  0  0  0  0  0  0
   -5.3360    0.0380   -0.4360 C   0  0  0  0  0  0  0  0  0  0  0  0
   -4.8650   -0.1110    1.0190 C   0  0  0  0  0  0  0  0  0  0  0  0
   -3.6380   -0.9710    0.9530 C   0  0  0  0  0  0  0  0  0  0  0  0
    1.2220   -0.3150    0.0400 N   0  0  0  0  0  0  0  0  0  0  0  0
    2.3820    0.2450   -0.6240 C   0  0  1  0  0  0  0  0  0  0  0  0
    3.2060    0.9270    0.4400 C   0  0  0  0  0  0  0  0  0  0  0  0
    4.6270    1.1330    0.0990 C   0  0  0  0  0  0  0  0  0  0  0  0
    5.5090   -0.0540    0.0820 C   0  0  0  0  0  0  0  0  0  0  0  0
    4.5040   -1.5200   -0.2840 S   0  0  0  0  0  0  0  0  0  0  0  0
    3.1150   -0.9040   -1.2220 C   0  0  0  0  0  0  0  0  0  0  0  0
    2.7750   -1.3690   -2.2660 O   0  0  0  0  0  0  0  0  0  0  0  0
  1  2  2  0
  2  3  1  0
  2 10  1  0
  3  4  1  0
  4  5  2  0
  4  9  1  0
  5  6  1  0
  6  7  1  0
  7  8  1  0
  8  9  1  0
 11 10  1  1
 11 12  1  0
 11 16  1  0
 12 13  1  0
 13 14  1  0
 14 15  1  0
 15 16  1  0
 16 17  2  0
M  END
