
     RDKit          3D

 11 11  0  0  0  0  0  0  0  0999 V2000
   -2.9970   -0.7140   -0.7290 O   0  0  0  0  0  0  0  0  0  0  0  0
   -2.3440    0.0840   -0.0160 C   0  0  0  0  0  0  0  0  0  0  0  0
   -3.0540    0.9790    0.7530 O   0  0  0  0  0  0  0  0  0  0  0  0
   -0.8960    0.0140   -0.0480 C   0  0  0  0  0  0  0  0  0  0  0  0
   -0.0850    0.8440    0.6960 C   0  0  0  0  0  0  0  0  0  0  0  0
    1.2920    0.7430    0.6360 C   0  0  0  0  0  0  0  0  0  0  0  0
    1.8980   -0.1940   -0.1720 C   0  0  0  0  0  0  0  0  0  0  0  0
    3.2960   -0.2940   -0.2310 O   0  0  0  0  0  0  0  0  0  0  0  0
    1.0930   -1.0230   -0.9170 C   0  0  0  0  0  0  0  0  0  0  0  0
    1.6720   -1.9580   -1.7240 F   0  0  0  0  0  0  0  0  0  0  0  0
   -0.2780   -0.9160   -0.8510 C   0  0  0  0  0  0  0  0  0  0  0  0
  1  2  2  0
  2  3  1  0
  2  4  1  0
  4  5  2  0
  4 11  1  0
  5  6  1  0
  6  7  2  0
  7  8  1  0
  7  9  1  0
  9 10  1  0
  9 11  2  0
M  END
