
     RDKit          3D

 18 19  0  0  0  0  0  0  0  0999 V2000
   -6.3370    0.0290   -0.4680 C   0  0  0  0  0  0  0  0  0  0  0  0
   -5.3060   -1.0020   -0.0490 C   0  0  0  0  0  0  0  0  0  0  0  0
   -4.0710   -0.9000   -0.8530 C   0  0  0  0  0  0  0  0  0  0  0  0
   -2.9140   -0.6450   -0.2440 C   0  0  0  0  0  0  0  0  0  0  0  0
   -2.6760   -0.4020    1.5130 S   0  0  0  0  0  0  0  0  0  0  0  0
   -0.8760   -0.1160    1.4280 C   0  0  2  0  0  0  0  0  0  0  0  0
   -0.6170    1.0620    2.3010 C   0  0  0  0  0  0  0  0  0  0  0  0
    0.2680    2.2050    1.2040 S   0  0  0  0  0  0  0  0  0  0  0  0
    0.4780    1.0430   -0.1820 C   0  0  1  0  0  0  0  0  0  0  0  0
    1.6700    0.1830   -0.0180 C   0  0  0  0  0  0  0  0  0  0  0  0
    1.5800   -1.0300    0.2860 O   0  0  0  0  0  0  0  0  0  0  0  0
    2.9650    0.6520   -0.1870 O   0  0  0  0  0  0  0  0  0  0  0  0
    4.0980   -0.2170   -0.0180 C   0  0  0  0  0  0  0  0  0  0  0  0
    5.2990    0.6610   -0.2870 C   0  0  0  0  0  0  0  0  0  0  0  0
    6.6010   -0.0520   -0.1640 C   0  0  0  0  0  0  0  0  0  0  0  0
   -0.6740    0.1530    0.0630 N   0  0  0  0  0  0  0  0  0  0  0  0
   -1.5920   -0.5000   -0.8050 C   0  0  0  0  0  0  0  0  0  0  0  0
   -1.3490   -0.9470   -1.9870 O   0  0  0  0  0  0  0  0  0  0  0  0
  1  2  1  0
  2  3  1  0
  3  4  2  3
  4  5  1  0
  4 17  1  0
  5  6  1  0
  6  7  1  1
  6 16  1  0
  7  8  1  0
  8  9  1  0
  9 10  1  1
  9 16  1  0
 10 11  2  0
 10 12  1  0
 12 13  1  0
 13 14  1  0
 14 15  1  0
 16 17  1  0
 17 18  2  0
M  END
