
     RDKit          3D

 18 19  0  0  0  0  0  0  0  0999 V2000
   -2.1770    1.3500    0.4520 O   0  0  0  0  0  0  0  0  0  0  0  0
   -2.8520    0.3460    0.1450 C   0  0  0  0  0  0  0  0  0  0  0  0
   -2.4460   -0.9360    0.5850 N   0  0  0  0  0  0  0  0  0  0  0  0
   -1.2500   -1.1080    1.3930 C   0  0  0  0  0  0  0  0  0  0  0  0
   -0.0100   -0.6310    0.6690 C   0  0  0  0  0  0  0  0  0  0  0  0
    1.1270   -0.7990    1.4470 O   0  0  0  0  0  0  0  0  0  0  0  0
    2.2800   -0.3870    0.8490 C   0  0  1  0  0  0  0  0  0  0  0  0
    2.9770    0.7430    1.5590 C   0  0  0  0  0  0  0  0  0  0  0  0
    3.8060    1.4710    0.4930 C   0  0  0  0  0  0  0  0  0  0  0  0
    4.4550    0.4660   -0.4420 C   0  0  0  0  0  0  0  0  0  0  0  0
    4.5960   -0.8830    0.2380 C   0  0  0  0  0  0  0  0  0  0  0  0
    3.2790   -1.4860    0.6140 C   0  0  0  0  0  0  0  0  0  0  0  0
   -4.0540    0.5390   -0.6720 C   0  0  0  0  0  0  0  0  0  0  0  0
   -4.8240   -0.4530   -1.0430 C   0  0  0  0  0  0  0  0  0  0  0  0
   -6.2110    0.0030   -2.0170 S   0  0  0  0  0  0  0  0  0  0  0  0
   -5.9440   -0.3290   -3.4810 O   0  0  0  0  0  0  0  0  0  0  0  0
   -6.3320    1.7770   -1.7580 C   0  0  0  0  0  0  0  0  0  0  0  0
   -4.6060    2.1290   -1.2480 S   0  0  0  0  0  0  0  0  0  0  0  0
  1  2  2  0
  2  3  1  0
  2 13  1  0
  3  4  1  0
  4  5  1  0
  5  6  1  0
  7  6  1  1
  7  8  1  0
  7 12  1  0
  8  9  1  0
  9 10  1  0
 10 11  1  0
 11 12  1  0
 13 14  2  0
 13 18  1  0
 14 15  1  0
 15 16  2  0
 15 17  1  6
 17 18  1  0
M  END
