
     RDKit          3D

 17 18  0  0  0  0  0  0  0  0999 V2000
    5.5880    1.6930   -1.0750 C   0  0  0  0  0  0  0  0  0  0  0  0
    4.3250    1.2830   -0.6140 O   0  0  0  0  0  0  0  0  0  0  0  0
    4.0840   -0.0530   -0.4090 C   0  0  0  0  0  0  0  0  0  0  0  0
    5.0090   -0.8720   -0.6420 O   0  0  0  0  0  0  0  0  0  0  0  0
    2.7900   -0.5520    0.0710 C   0  0  0  0  0  0  0  0  0  0  0  0
    2.4700   -1.8830    0.3020 C   0  0  0  0  0  0  0  0  0  0  0  0
    1.1660   -1.9480    0.7440 C   0  0  0  0  0  0  0  0  0  0  0  0
    0.7350   -0.6380    0.7660 C   0  0  0  0  0  0  0  0  0  0  0  0
   -0.6250   -0.1410    1.1740 C   0  0  0  0  0  0  0  0  0  0  0  0
   -1.5450   -0.0640    0.1190 N   0  0  0  0  0  0  0  0  0  0  0  0
   -1.8730   -1.2240   -0.5880 C   0  0  0  0  0  0  0  0  0  0  0  0
   -3.3480   -1.4000   -0.8980 C   0  0  0  0  0  0  0  0  0  0  0  0
   -3.7720   -0.0350   -2.0450 S   0  0  0  0  0  0  0  0  0  0  0  0
   -2.6830    1.3510   -1.5350 C   0  0  0  0  0  0  0  0  0  0  0  0
   -2.2290    1.1240   -0.1170 C   0  0  1  0  0  0  0  0  0  0  0  0
   -3.4840    1.1660    0.7590 C   0  0  0  0  0  0  0  0  0  0  0  0
    1.7150    0.1240    0.3670 O   0  0  0  0  0  0  0  0  0  0  0  0
  1  2  1  0
  2  3  1  0
  3  4  2  0
  3  5  1  0
  5  6  2  0
  5 17  1  0
  6  7  1  0
  7  8  2  0
  8  9  1  0
  8 17  1  0
  9 10  1  0
 10 11  1  0
 10 15  1  0
 11 12  1  0
 12 13  1  0
 13 14  1  0
 14 15  1  0
 15 16  1  1
M  END
