
     RDKit          3D

 18 19  0  0  0  0  0  0  0  0999 V2000
    6.1800    1.0350    0.3140 C   0  0  0  0  0  0  0  0  0  0  0  0
    5.0120    0.1190    0.1640 C   0  0  2  0  0  0  0  0  0  0  0  0
    4.4610   -0.0420   -1.5540 S   0  0  0  0  0  0  0  0  0  0  0  0
    2.7320   -0.5760   -1.2560 C   0  0  0  0  0  0  0  0  0  0  0  0
    2.1390   -1.4330   -2.2820 C   0  0  0  0  0  0  0  0  0  0  0  0
    2.8800   -1.7320   -3.2920 O   0  0  0  0  0  0  0  0  0  0  0  0
    2.2440   -0.1200   -0.1580 C   0  0  0  0  0  0  0  0  0  0  0  0
    0.9550   -0.2950    0.4350 C   0  0  0  0  0  0  0  0  0  0  0  0
    0.7820    0.3150    1.5710 O   0  0  0  0  0  0  0  0  0  0  0  0
   -0.1790   -1.0060    0.0240 N   0  0  0  0  0  0  0  0  0  0  0  0
   -1.4250   -1.0480    0.7950 C   0  0  0  0  0  0  0  0  0  0  0  0
   -2.0600    0.3050    0.9670 C   0  0  1  0  0  0  0  0  0  0  0  0
   -2.2310    1.0410   -0.3200 C   0  0  0  0  0  0  0  0  0  0  0  0
   -3.5010    0.7390   -1.0610 C   0  0  0  0  0  0  0  0  0  0  0  0
   -4.6770    0.5540   -0.1280 C   0  0  0  0  0  0  0  0  0  0  0  0
   -4.2530   -0.3800    1.0130 C   0  0  0  0  0  0  0  0  0  0  0  0
   -3.2260    0.2160    1.6860 O   0  0  0  0  0  0  0  0  0  0  0  0
    3.4610    0.9040    0.7650 S   0  0  0  0  0  0  0  0  0  0  0  0
  2  1  1  6
  2  3  1  0
  2 18  1  0
  3  4  1  0
  4  5  1  0
  4  7  2  0
  5  6  2  0
  7  8  1  0
  7 18  1  0
  8  9  2  0
  8 10  1  0
 10 11  1  0
 12 11  1  6
 12 13  1  0
 12 17  1  0
 13 14  1  0
 14 15  1  0
 15 16  1  0
 16 17  1  0
M  END
