
     RDKit          3D

 20 22  0  0  0  0  0  0  0  0999 V2000
    4.8990   -1.9270   -0.2780 O   0  0  0  0  0  0  0  0  0  0  0  0
    4.6430   -0.7220   -0.0700 C   0  0  0  0  0  0  0  0  0  0  0  0
    5.6610    0.0970    0.2470 N   0  0  0  0  0  0  0  0  0  0  0  0
    5.4390    1.4250    0.4850 C   0  0  0  0  0  0  0  0  0  0  0  0
    4.1980    1.8850    0.3970 N   0  0  0  0  0  0  0  0  0  0  0  0
    3.1450    1.0840    0.0780 C   0  0  0  0  0  0  0  0  0  0  0  0
    1.8690    1.5930   -0.0050 C   0  0  0  0  0  0  0  0  0  0  0  0
    0.7940    0.8170   -0.3220 C   0  0  0  0  0  0  0  0  0  0  0  0
    0.9990   -0.5240   -0.5660 C   0  0  0  0  0  0  0  0  0  0  0  0
   -0.1260   -1.3230   -0.8940 N   0  0  0  0  0  0  0  0  0  0  0  0
   -1.4180   -0.7550   -0.9680 C   0  0  0  0  0  0  0  0  0  0  0  0
   -2.1160   -0.4710    0.1120 C   0  0  0  0  0  0  0  0  0  0  0  0
   -1.7220   -0.6740    1.5310 C   0  0  0  0  0  0  0  0  0  0  0  0
   -3.0510   -0.9930    2.1750 C   0  0  0  0  0  0  0  0  0  0  0  0
   -3.9960   -0.1810    1.3660 C   0  0  0  0  0  0  0  0  0  0  0  0
   -3.4500    0.1130    0.1840 C   0  0  0  0  0  0  0  0  0  0  0  0
   -4.0640    0.9130   -0.9340 C   0  0  0  0  0  0  0  0  0  0  0  0
   -5.3280    1.3450   -0.6030 O   0  0  0  0  0  0  0  0  0  0  0  0
    2.2850   -1.0560   -0.4850 C   0  0  0  0  0  0  0  0  0  0  0  0
    3.3600   -0.2570   -0.1640 C   0  0  0  0  0  0  0  0  0  0  0  0
  1  2  2  0
  2  3  1  0
  2 20  1  0
  3  4  1  0
  4  5  2  0
  5  6  1  0
  6  7  2  0
  6 20  1  0
  7  8  1  0
  8  9  2  0
  9 10  1  0
  9 19  1  0
 10 11  1  0
 11 12  2  3
 12 13  1  0
 12 16  1  0
 13 14  1  0
 14 15  1  0
 15 16  2  0
 16 17  1  0
 17 18  1  0
 19 20  2  0
M  END
