
     RDKit          3D

 20 21  0  0  0  0  0  0  0  0999 V2000
    4.2280   -0.3690   -0.8920 N   0  0  0  0  0  0  0  0  0  0  0  0
    3.2820    0.1050    0.0590 C   0  0  0  0  0  0  0  0  0  0  0  0
    2.0590   -0.7020    0.2710 C   0  0  0  0  0  0  0  0  0  0  0  0
    1.1390   -0.1160    1.3200 C   0  0  0  0  0  0  0  0  0  0  0  0
   -0.0410   -1.0010    1.4380 C   0  0  0  0  0  0  0  0  0  0  0  0
   -0.9370   -1.2740    0.3190 C   0  0  1  0  0  0  0  0  0  0  0  0
   -1.9870   -2.2330    0.7130 N   0  0  0  0  0  0  0  0  0  0  0  0
   -1.5600   -0.0690   -0.3350 C   0  0  1  0  0  0  0  0  0  0  0  0
   -0.6960    0.7640   -0.9100 N   0  0  0  0  0  0  0  0  0  0  0  0
    0.2700    1.6350   -1.2310 C   0  0  0  0  0  0  0  0  0  0  0  0
   -1.0190    1.6680   -2.0060 C   0  0  0  0  0  0  0  0  0  0  0  0
   -2.5230   -0.6690   -1.3980 C   0  0  0  0  0  0  0  0  0  0  0  0
   -3.8960   -0.6250   -0.8860 C   0  0  0  0  0  0  0  0  0  0  0  0
   -3.9230    0.4980    0.0880 C   0  0  0  0  0  0  0  0  0  0  0  0
   -2.5460    0.5770    0.6380 C   0  0  0  0  0  0  0  0  0  0  0  0
    3.4560    1.1710    0.7160 N   0  0  0  0  0  0  0  0  0  0  0  0
    4.6670    1.9290    0.4790 C   0  0  2  0  0  0  0  0  0  0  0  0
    5.7250    1.3190    1.1270 F   0  0  0  0  0  0  0  0  0  0  0  0
    4.5440    3.2000    0.9740 F   0  0  0  0  0  0  0  0  0  0  0  0
    4.9410    2.0170   -0.8850 F   0  0  0  0  0  0  0  0  0  0  0  0
  1  2  1  0
  2  3  1  0
  2 16  2  3
  3  4  1  0
  4  5  1  0
  5  6  1  0
  6  7  1  1
  6  8  1  0
  8  9  1  6
  8 12  1  0
  8 15  1  0
  9 10  1  0
  9 11  1  0
 10 11  1  0
 12 13  1  0
 13 14  1  0
 14 15  1  0
 16 17  1  0
 17 18  1  1
 17 19  1  0
 17 20  1  0
M  CHG  2   1   1   7   1
M  END
