
     RDKit          3D

 11 11  0  0  0  0  0  0  0  0999 V2000
   -2.8490    1.2510    0.2640 O   0  0  0  0  0  0  0  0  0  0  0  0
   -2.6190    0.1850   -0.3470 C   0  0  0  0  0  0  0  0  0  0  0  0
   -3.2720    0.0070   -1.5750 O   0  0  0  0  0  0  0  0  0  0  0  0
   -1.6960   -0.8450    0.1960 C   0  0  0  0  0  0  0  0  0  0  0  0
   -0.2570   -0.4030    0.1320 C   0  0  0  0  0  0  0  0  0  0  0  0
    0.4940   -0.1580    1.2600 C   0  0  0  0  0  0  0  0  0  0  0  0
    1.8150    0.2640    1.1720 C   0  0  0  0  0  0  0  0  0  0  0  0
    2.3310    0.4260   -0.0980 C   0  0  0  0  0  0  0  0  0  0  0  0
    3.6530    0.8560   -0.2750 O   0  0  0  0  0  0  0  0  0  0  0  0
    1.5800    0.1760   -1.2320 C   0  0  0  0  0  0  0  0  0  0  0  0
    0.2840   -0.2370   -1.1320 C   0  0  0  0  0  0  0  0  0  0  0  0
  1  2  2  0
  2  3  1  0
  2  4  1  0
  4  5  1  0
  5  6  2  0
  5 11  1  0
  6  7  1  0
  7  8  2  0
  8  9  1  0
  8 10  1  0
 10 11  2  0
M  END
