
     RDKit          3D

 20 21  0  0  0  0  0  0  0  0999 V2000
   -2.4130   -1.3820   -1.8310 C   0  0  0  0  0  0  0  0  0  0  0  0
   -2.7900   -0.6760   -0.8390 C   0  0  0  0  0  0  0  0  0  0  0  0
   -2.1890   -0.0670    0.2770 C   0  0  0  0  0  0  0  0  0  0  0  0
   -3.0890    0.5970    1.0930 C   0  0  0  0  0  0  0  0  0  0  0  0
   -4.5090    0.6680    0.8410 C   0  0  2  0  0  0  0  0  0  0  0  0
   -5.0870    1.4790    1.8480 F   0  0  0  0  0  0  0  0  0  0  0  0
   -5.0880   -0.5730    0.8820 F   0  0  0  0  0  0  0  0  0  0  0  0
   -4.8080    1.3240   -0.3400 F   0  0  0  0  0  0  0  0  0  0  0  0
   -0.7960   -0.0070    0.7620 C   0  0  0  0  0  0  0  0  0  0  0  0
    0.3060   -0.4780    0.2620 C   0  0  0  0  0  0  0  0  0  0  0  0
    0.5370   -1.2010   -0.9250 N   0  0  0  0  0  0  0  0  0  0  0  0
    0.9480   -0.5820   -2.1700 C   0  0  0  0  0  0  0  0  0  0  0  0
    2.3500   -0.0420   -2.0400 C   0  0  0  0  0  0  0  0  0  0  0  0
    2.7580    0.5610   -3.3220 N   0  0  0  0  0  0  0  0  0  0  0  0
    1.4550   -0.2070    1.1760 C   0  0  0  0  0  0  0  0  0  0  0  0
    2.7360   -0.0840    1.3980 C   0  0  0  0  0  0  0  0  0  0  0  0
    2.9930    0.2370    2.7560 N   0  0  0  0  0  0  0  0  0  0  0  0
    1.7440    0.8600    3.2110 C   0  0  0  0  0  0  0  0  0  0  0  0
    0.7480    0.0210    2.4980 C   0  0  1  0  0  0  0  0  0  0  0  0
   -0.4120    0.6810    1.9970 N   0  0  0  0  0  0  0  0  0  0  0  0
  1  2  2  0
  2  3  1  0
  3  4  2  3
  3  9  1  0
  4  5  1  0
  5  6  1  1
  5  7  1  0
  5  8  1  0
  9 10  2  0
  9 20  1  0
 10 11  1  0
 10 15  1  0
 11 12  1  0
 12 13  1  0
 13 14  1  0
 15 16  2  0
 15 19  1  0
 16 17  1  0
 17 18  1  0
 19 18  1  1
 19 20  1  0
M  CHG  1  14   1
M  END
