
     RDKit          3D

 20 20  0  0  0  0  0  0  0  0999 V2000
    4.8950    0.7970    1.7270 C   0  0  0  0  0  0  0  0  0  0  0  0
    4.6740   -0.1550    0.8480 C   0  0  0  0  0  0  0  0  0  0  0  0
    5.6340   -1.0790    0.5780 F   0  0  0  0  0  0  0  0  0  0  0  0
    3.3570   -0.1930    0.1590 C   0  0  0  0  0  0  0  0  0  0  0  0
    3.2050   -1.1640   -0.6980 C   0  0  0  0  0  0  0  0  0  0  0  0
    2.0240   -1.4590   -1.5250 C   0  0  2  0  0  0  0  0  0  0  0  0
    2.0620   -2.8200   -1.8900 F   0  0  0  0  0  0  0  0  0  0  0  0
    2.0750   -0.8090   -2.7680 F   0  0  0  0  0  0  0  0  0  0  0  0
    2.4220    0.8480    0.5250 C   0  0  0  0  0  0  0  0  0  0  0  0
    1.1310    0.8680   -0.0960 N   0  0  0  0  0  0  0  0  0  0  0  0
    0.0260    0.7750    0.5770 C   0  0  0  0  0  0  0  0  0  0  0  0
    0.1390    0.6500    1.9820 N   0  0  0  0  0  0  0  0  0  0  0  0
   -1.2570    0.7960    0.0150 N   0  0  0  0  0  0  0  0  0  0  0  0
   -1.4700    1.5980   -1.1740 C   0  0  0  0  0  0  0  0  0  0  0  0
   -2.2530    0.7390   -2.1430 C   0  0  0  0  0  0  0  0  0  0  0  0
   -3.6550    0.6190   -1.6010 C   0  0  0  0  0  0  0  0  0  0  0  0
   -3.6970    0.5950   -0.0960 C   0  0  0  0  0  0  0  0  0  0  0  0
   -2.4090    0.0930    0.5130 C   0  0  1  0  0  0  0  0  0  0  0  0
   -2.3460   -1.3900    0.4640 C   0  0  0  0  0  0  0  0  0  0  0  0
   -1.2690   -1.9810    1.2260 N   0  0  0  0  0  0  0  0  0  0  0  0
  1  2  2  0
  2  3  1  0
  2  4  1  0
  4  5  2  3
  4  9  1  0
  5  6  1  0
  6  7  1  6
  6  8  1  0
  9 10  1  0
 10 11  2  3
 11 12  1  0
 11 13  1  0
 13 14  1  0
 13 18  1  0
 14 15  1  0
 15 16  1  0
 16 17  1  0
 17 18  1  0
 18 19  1  6
 19 20  1  0
M  CHG  2  10   1  20   1
M  END
