
     RDKit          3D

 20 21  0  0  0  0  0  0  0  0999 V2000
    3.7820    1.6340   -0.7540 C   0  0  0  0  0  0  0  0  0  0  0  0
    3.1120    1.2360    0.5360 C   0  0  1  0  0  0  0  0  0  0  0  0
    1.7200    1.7360    0.6180 C   0  0  0  0  0  0  0  0  0  0  0  0
    0.6570    0.8300    0.0360 C   0  0  0  0  0  0  0  0  0  0  0  0
    0.8700   -0.5400    0.0920 N   0  0  0  0  0  0  0  0  0  0  0  0
   -0.0980   -1.4600    0.4670 C   0  0  1  0  0  0  0  0  0  0  0  0
   -1.2540   -1.4800   -0.4870 C   0  0  1  0  0  0  0  0  0  0  0  0
   -2.2450   -2.5030   -0.1210 N   0  0  0  0  0  0  0  0  0  0  0  0
   -2.0730   -0.2230   -0.4870 C   0  0  0  0  0  0  0  0  0  0  0  0
   -2.1920    0.5710   -1.5340 C   0  0  0  0  0  0  0  0  0  0  0  0
   -2.9940    1.7980   -1.5260 C   0  0  0  0  0  0  0  0  0  0  0  0
   -3.6960    2.0770   -0.3190 N   0  0  0  0  0  0  0  0  0  0  0  0
   -3.5090    1.1910    0.7150 N   0  0  0  0  0  0  0  0  0  0  0  0
   -2.8040    0.1370    0.7340 C   0  0  0  0  0  0  0  0  0  0  0  0
    0.4180   -2.8360    0.7840 C   0  0  2  0  0  0  0  0  0  0  0  0
   -0.6170   -3.6920    1.1940 F   0  0  0  0  0  0  0  0  0  0  0  0
    1.2980   -2.8210    1.8320 F   0  0  0  0  0  0  0  0  0  0  0  0
    0.9220   -3.4950   -0.3460 F   0  0  0  0  0  0  0  0  0  0  0  0
    2.2110   -0.9210   -0.1290 C   0  0  0  0  0  0  0  0  0  0  0  0
    3.2200   -0.2540    0.7930 C   0  0  0  0  0  0  0  0  0  0  0  0
  2  1  1  6
  2  3  1  0
  2 20  1  0
  3  4  1  0
  4  5  1  0
  6  5  1  6
  5 19  1  0
  6  7  1  0
  6 15  1  0
  7  8  1  1
  7  9  1  0
  9 10  2  0
  9 14  1  0
 10 11  1  0
 11 12  1  0
 12 13  1  0
 13 14  2  0
 15 16  1  1
 15 17  1  0
 15 18  1  0
 19 20  1  0
M  CHG  2   8   1  12   1
M  END
