
     RDKit          3D

 11 11  0  0  0  0  0  0  0  0999 V2000
   -2.1910   -1.8900    0.2940 N   0  0  0  0  0  0  0  0  0  0  0  0
   -1.6790   -0.5960    0.0220 C   0  0  0  0  0  0  0  0  0  0  0  0
   -0.3830   -0.3930   -0.0920 C   0  0  0  0  0  0  0  0  0  0  0  0
    0.5620   -1.5300    0.0640 C   0  0  0  0  0  0  0  0  0  0  0  0
    0.1180   -2.6740    0.3040 O   0  0  0  0  0  0  0  0  0  0  0  0
    1.9310   -1.2870   -0.0610 O   0  0  0  0  0  0  0  0  0  0  0  0
    2.4500    0.0240    0.2150 C   0  0  0  0  0  0  0  0  0  0  0  0
    1.6420    0.9580   -0.4650 O   0  0  0  0  0  0  0  0  0  0  0  0
    0.2480    0.8870   -0.3690 C   0  0  0  0  0  0  0  0  0  0  0  0
   -0.4990    1.9550   -0.5240 C   0  0  0  0  0  0  0  0  0  0  0  0
    0.0710    3.1920   -0.7880 O   0  0  0  0  0  0  0  0  0  0  0  0
  1  2  1  0
  2  3  2  3
  3  4  1  0
  3  9  1  0
  4  5  2  0
  4  6  1  0
  6  7  1  0
  7  8  1  0
  8  9  1  0
  9 10  2  3
 10 11  1  0
M  END
