
     RDKit          3D

 11 11  0  0  0  0  0  0  0  0999 V2000
   -0.9260    1.8350    0.2970 C   0  0  0  0  0  0  0  0  0  0  0  0
   -0.0010    0.7300    0.0570 C   0  0  0  0  0  0  0  0  0  0  0  0
   -0.5270   -0.4820    0.0710 C   0  0  0  0  0  0  0  0  0  0  0  0
   -1.9790   -0.5430    0.3290 C   0  0  0  0  0  0  0  0  0  0  0  0
   -2.6660   -1.1360   -0.7310 O   0  0  0  0  0  0  0  0  0  0  0  0
    0.1690   -1.6590   -0.1340 O   0  0  0  0  0  0  0  0  0  0  0  0
    1.5310   -1.9990    0.0590 C   0  0  0  0  0  0  0  0  0  0  0  0
    2.4100   -1.1240   -0.6180 O   0  0  0  0  0  0  0  0  0  0  0  0
    2.4350    0.2590   -0.5310 C   0  0  0  0  0  0  0  0  0  0  0  0
    3.5450    0.7750   -0.8160 O   0  0  0  0  0  0  0  0  0  0  0  0
    1.3690    1.1250   -0.1640 N   0  0  0  0  0  0  0  0  0  0  0  0
  1  2  1  0
  2  3  2  0
  2 11  1  0
  3  4  1  0
  3  6  1  0
  4  5  1  0
  6  7  1  0
  7  8  1  0
  8  9  1  0
  9 10  2  0
  9 11  1  0
M  END
