
     RDKit          3D

 11 11  0  0  0  0  0  0  0  0999 V2000
    2.4230   -0.9960   -0.8290 C   0  0  0  0  0  0  0  0  0  0  0  0
    1.6570    0.1700   -0.7160 O   0  0  0  0  0  0  0  0  0  0  0  0
    0.7690    0.4650    0.2760 C   0  0  0  0  0  0  0  0  0  0  0  0
    1.2550    1.0740    1.4600 N   0  0  0  0  0  0  0  0  0  0  0  0
   -0.5230    0.2160    0.2000 C   0  0  0  0  0  0  0  0  0  0  0  0
   -1.2420   -0.4010   -0.9160 C   0  0  0  0  0  0  0  0  0  0  0  0
   -0.7230   -1.0900   -1.8070 O   0  0  0  0  0  0  0  0  0  0  0  0
   -2.6630   -0.0160   -0.7210 C   0  0  0  0  0  0  0  0  0  0  0  0
   -2.7750    0.0560    0.6810 O   0  0  0  0  0  0  0  0  0  0  0  0
   -1.5630    0.4900    1.2020 C   0  0  0  0  0  0  0  0  0  0  0  0
   -1.3320    1.0300    2.3260 O   0  0  0  0  0  0  0  0  0  0  0  0
  1  2  1  0
  2  3  1  0
  3  4  1  0
  3  5  2  3
  5  6  1  0
  5 10  1  0
  6  7  2  0
  6  8  1  0
  8  9  1  0
  9 10  1  0
 10 11  2  0
M  END
