
     RDKit          3D

 11 11  0  0  0  0  0  0  0  0999 V2000
    3.6890   -0.4610   -0.4500 O   0  0  0  0  0  0  0  0  0  0  0  0
    2.4980   -0.2720   -0.0590 C   0  0  0  0  0  0  0  0  0  0  0  0
    1.8850    1.0510   -0.0190 C   0  0  0  0  0  0  0  0  0  0  0  0
    0.5680    1.1910   -0.0930 C   0  0  0  0  0  0  0  0  0  0  0  0
    0.0600    2.4790   -0.0470 O   0  0  0  0  0  0  0  0  0  0  0  0
   -0.2670    0.0140   -0.2150 C   0  0  0  0  0  0  0  0  0  0  0  0
   -1.5620    0.1430   -0.2890 C   0  0  0  0  0  0  0  0  0  0  0  0
   -2.4720   -0.9380   -0.4100 N   0  0  0  0  0  0  0  0  0  0  0  0
   -3.7410   -0.8530    0.0540 O   0  0  0  0  0  0  0  0  0  0  0  0
    0.3820   -1.2180   -0.2490 O   0  0  0  0  0  0  0  0  0  0  0  0
    1.6320   -1.4100    0.3920 C   0  0  0  0  0  0  0  0  0  0  0  0
  1  2  2  0
  2  3  1  0
  2 11  1  0
  3  4  2  0
  4  5  1  0
  4  6  1  0
  6  7  2  3
  6 10  1  0
  7  8  1  0
  8  9  1  0
 10 11  1  0
M  END
