
     RDKit          3D

 11 11  0  0  0  0  0  0  0  0999 V2000
    2.6210    1.0020    1.2490 O   0  0  0  0  0  0  0  0  0  0  0  0
    2.2510    0.3390    0.2440 C   0  0  0  0  0  0  0  0  0  0  0  0
    3.2250   -0.2100   -0.5770 O   0  0  0  0  0  0  0  0  0  0  0  0
    0.8200    0.1620   -0.0350 C   0  0  0  0  0  0  0  0  0  0  0  0
    0.4470   -0.5690   -1.1410 C   0  0  0  0  0  0  0  0  0  0  0  0
   -0.9230   -0.7200   -1.3800 C   0  0  0  0  0  0  0  0  0  0  0  0
   -1.8430   -0.1680   -0.5540 N   0  0  0  0  0  0  0  0  0  0  0  0
   -3.1730   -0.3520   -0.8440 O   0  0  0  0  0  0  0  0  0  0  0  0
   -1.4610    0.5430    0.5220 C   0  0  0  0  0  0  0  0  0  0  0  0
   -2.3140    1.0550    1.2890 O   0  0  0  0  0  0  0  0  0  0  0  0
   -0.1220    0.7220    0.8030 C   0  0  0  0  0  0  0  0  0  0  0  0
  1  2  2  0
  2  3  1  0
  2  4  1  0
  4  5  1  0
  4 11  2  0
  5  6  2  0
  6  7  1  0
  7  8  1  0
  7  9  1  0
  9 10  2  0
  9 11  1  0
M  END
