
     RDKit          3D

 26 28  0  0  0  0  0  0  0  0999 V2000
    8.9950    0.3540    0.3570 C   0  0  0  0  0  0  0  0  0  0  0  0
    7.9520   -0.6490    0.5060 N   0  0  0  0  0  0  0  0  0  0  0  0
    6.5840   -0.2530    0.5000 C   0  0  0  0  0  0  0  0  0  0  0  0
    6.3340    0.9690    0.3640 O   0  0  0  0  0  0  0  0  0  0  0  0
    5.4820   -1.2090    0.6450 C   0  0  0  0  0  0  0  0  0  0  0  0
    4.1570   -0.4820    0.5990 C   0  0  2  0  0  0  0  0  0  0  0  0
    2.9910   -1.4350    0.7450 C   0  0  0  0  0  0  0  0  0  0  0  0
    1.8910   -0.6440    0.0990 C   0  0  0  0  0  0  0  0  0  0  0  0
    0.5250   -0.6700    0.2280 C   0  0  0  0  0  0  0  0  0  0  0  0
   -0.3280    0.1890   -0.5000 C   0  0  0  0  0  0  0  0  0  0  0  0
   -1.7240    0.0610   -0.2860 N   0  0  0  0  0  0  0  0  0  0  0  0
   -2.7510    0.8730   -0.7590 C   0  0  0  0  0  0  0  0  0  0  0  0
   -2.4420    1.8620   -1.4720 O   0  0  0  0  0  0  0  0  0  0  0  0
   -4.1800    0.6370   -0.4710 C   0  0  0  0  0  0  0  0  0  0  0  0
   -5.1170    1.4930   -0.9800 C   0  0  0  0  0  0  0  0  0  0  0  0
   -6.4470    1.3750   -0.7830 N   0  0  0  0  0  0  0  0  0  0  0  0
   -6.9060    0.3560   -0.0390 C   0  0  0  0  0  0  0  0  0  0  0  0
   -8.2740    0.1670    0.2100 O   0  0  0  0  0  0  0  0  0  0  0  0
   -9.1710    1.1020   -0.3560 C   0  0  0  0  0  0  0  0  0  0  0  0
   -5.9920   -0.5270    0.4890 C   0  0  0  0  0  0  0  0  0  0  0  0
   -6.4860   -1.6020    1.2740 N   0  0  0  0  0  0  0  0  0  0  0  0
   -4.6100   -0.4020    0.2830 C   0  0  0  0  0  0  0  0  0  0  0  0
    0.2510    1.0790   -1.3670 C   0  0  0  0  0  0  0  0  0  0  0  0
    1.6420    1.0840   -1.4780 C   0  0  0  0  0  0  0  0  0  0  0  0
    2.4730    0.2510   -0.7730 C   0  0  0  0  0  0  0  0  0  0  0  0
    3.9000    0.0750   -0.7190 N   0  0  0  0  0  0  0  0  0  0  0  0
  1  2  1  0
  2  3  1  0
  3  4  2  0
  3  5  1  0
  6  5  1  6
  6  7  1  0
  6 26  1  0
  7  8  1  0
  8  9  2  0
  8 25  1  0
  9 10  1  0
 10 11  1  0
 10 23  2  0
 11 12  1  0
 12 13  2  0
 12 14  1  0
 14 15  2  0
 14 22  1  0
 15 16  1  0
 16 17  2  0
 17 18  1  0
 17 20  1  0
 18 19  1  0
 20 21  1  0
 20 22  2  0
 23 24  1  0
 24 25  2  0
 25 26  1  0
M  END
