
     RDKit          3D

 26 28  0  0  0  0  0  0  0  0999 V2000
    3.4230    0.8570    2.3740 C   0  0  0  0  0  0  0  0  0  0  0  0
    2.6030    0.8300    1.2400 O   0  0  0  0  0  0  0  0  0  0  0  0
    2.5600   -0.1740    0.2950 C   0  0  0  0  0  0  0  0  0  0  0  0
    3.4020   -1.2760    0.4170 C   0  0  0  0  0  0  0  0  0  0  0  0
    3.3890   -2.2690   -0.5110 C   0  0  0  0  0  0  0  0  0  0  0  0
    2.5300   -2.1770   -1.5850 C   0  0  0  0  0  0  0  0  0  0  0  0
    2.4800   -3.1860   -2.5790 N   0  0  0  0  0  0  0  0  0  0  0  0
    1.6810   -1.0620   -1.7050 C   0  0  0  0  0  0  0  0  0  0  0  0
    0.7900   -0.9950   -2.8890 C   0  0  0  0  0  0  0  0  0  0  0  0
    1.6680   -0.0500   -0.7880 C   0  0  0  0  0  0  0  0  0  0  0  0
    0.7150    1.0460   -0.8530 C   0  0  0  0  0  0  0  0  0  0  0  0
    0.5000    1.6860   -2.0440 N   0  0  0  0  0  0  0  0  0  0  0  0
   -0.3860    2.6460   -1.8580 N   0  0  0  0  0  0  0  0  0  0  0  0
   -0.7920    2.6930   -0.5910 C   0  0  0  0  0  0  0  0  0  0  0  0
   -1.7450    3.5800    0.0890 C   0  0  0  0  0  0  0  0  0  0  0  0
   -0.0940    1.6630    0.0680 C   0  0  0  0  0  0  0  0  0  0  0  0
   -0.3520    1.2220    1.4210 C   0  0  0  0  0  0  0  0  0  0  0  0
   -1.6390    0.6520    1.8300 C   0  0  0  0  0  0  0  0  0  0  0  0
   -2.1990   -0.5370    1.1450 C   0  0  1  0  0  0  0  0  0  0  0  0
   -1.3540   -1.7650    1.1650 C   0  0  0  0  0  0  0  0  0  0  0  0
   -3.4220   -0.9190    1.9340 N   0  0  0  0  0  0  0  0  0  0  0  0
   -4.4710   -0.1240    1.4130 C   0  0  0  0  0  0  0  0  0  0  0  0
   -5.5250    0.1480    2.0660 O   0  0  0  0  0  0  0  0  0  0  0  0
   -4.1350    0.2880    0.0960 N   0  0  0  0  0  0  0  0  0  0  0  0
   -2.8670   -0.2800   -0.1540 C   0  0  0  0  0  0  0  0  0  0  0  0
   -2.3880   -0.5230   -1.2790 O   0  0  0  0  0  0  0  0  0  0  0  0
  1  2  1  0
  2  3  1  0
  3  4  2  0
  3 10  1  0
  4  5  1  0
  5  6  2  0
  6  7  1  0
  6  8  1  0
  8  9  1  0
  8 10  2  0
 10 11  1  0
 11 12  1  0
 11 16  2  0
 12 13  1  0
 13 14  2  0
 14 15  1  0
 14 16  1  0
 16 17  1  0
 17 18  1  0
 18 19  1  0
 19 20  1  6
 19 21  1  0
 19 25  1  0
 21 22  1  0
 22 23  2  0
 22 24  1  0
 24 25  1  0
 25 26  2  0
M  END
