
     RDKit          3D

 26 28  0  0  0  0  0  0  0  0999 V2000
    6.9570   -2.2500   -0.4780 C   0  0  0  0  0  0  0  0  0  0  0  0
    6.3030   -0.9460   -0.1270 C   0  0  0  0  0  0  0  0  0  0  0  0
    6.8610    0.1610    0.2390 O   0  0  0  0  0  0  0  0  0  0  0  0
    5.9800    1.1090    0.4700 C   0  0  0  0  0  0  0  0  0  0  0  0
    6.2580    2.5040    0.9050 C   0  0  0  0  0  0  0  0  0  0  0  0
    4.7330    0.5910    0.2390 C   0  0  0  0  0  0  0  0  0  0  0  0
    3.4400    1.0790    0.3060 C   0  0  0  0  0  0  0  0  0  0  0  0
    2.3970    0.2420   -0.0080 C   0  0  0  0  0  0  0  0  0  0  0  0
    1.0700    0.7370    0.0590 N   0  0  0  0  0  0  0  0  0  0  0  0
    0.0130   -0.1460   -0.2700 C   0  0  0  0  0  0  0  0  0  0  0  0
    0.2540   -1.3540   -0.6180 O   0  0  0  0  0  0  0  0  0  0  0  0
   -1.3590    0.3010   -0.2200 C   0  0  0  0  0  0  0  0  0  0  0  0
   -2.4070   -0.5710   -0.5450 C   0  0  0  0  0  0  0  0  0  0  0  0
   -3.7080   -0.1360   -0.4940 C   0  0  0  0  0  0  0  0  0  0  0  0
   -4.6730   -0.9160   -0.7860 N   0  0  0  0  0  0  0  0  0  0  0  0
   -6.0580   -0.5840   -0.7710 C   0  0  1  0  0  0  0  0  0  0  0  0
   -6.9280   -1.5520   -1.5110 C   0  0  0  0  0  0  0  0  0  0  0  0
   -6.6150   -0.3910    0.5790 C   0  0  0  0  0  0  0  0  0  0  0  0
   -5.8720   -0.5140    1.7820 N   0  0  0  0  0  0  0  0  0  0  0  0
   -7.8320   -0.0960    0.6820 O   0  0  0  0  0  0  0  0  0  0  0  0
   -3.9790    1.1560   -0.1230 C   0  0  0  0  0  0  0  0  0  0  0  0
   -2.9400    1.9880    0.1900 C   0  0  0  0  0  0  0  0  0  0  0  0
   -1.6450    1.5570    0.1390 N   0  0  0  0  0  0  0  0  0  0  0  0
    2.6070   -1.0270   -0.3760 N   0  0  0  0  0  0  0  0  0  0  0  0
    3.8730   -1.5330   -0.4510 C   0  0  0  0  0  0  0  0  0  0  0  0
    4.9420   -0.7320   -0.1450 C   0  0  0  0  0  0  0  0  0  0  0  0
  1  2  1  0
  2  3  1  0
  2 26  2  0
  3  4  1  0
  4  5  1  0
  4  6  2  0
  6  7  1  0
  6 26  1  0
  7  8  2  0
  8  9  1  0
  8 24  1  0
  9 10  1  0
 10 11  2  0
 10 12  1  0
 12 13  2  0
 12 23  1  0
 13 14  1  0
 14 15  2  3
 14 21  1  0
 15 16  1  0
 16 17  1  1
 16 18  1  0
 18 19  1  0
 18 20  2  0
 21 22  2  0
 22 23  1  0
 24 25  2  0
 25 26  1  0
M  END
