
     RDKit          3D

 25 27  0  0  0  0  0  0  0  0999 V2000
   -5.3800    1.1940   -1.9600 C   0  0  0  0  0  0  0  0  0  0  0  0
   -4.4750    1.7500   -0.8700 C   0  0  0  0  0  0  0  0  0  0  0  0
   -3.9830    0.6700    0.0160 C   0  0  0  0  0  0  0  0  0  0  0  0
   -4.6910    0.0250    1.0020 C   0  0  0  0  0  0  0  0  0  0  0  0
   -6.1070    0.3220    1.3420 C   0  0  0  0  0  0  0  0  0  0  0  0
   -3.8810   -0.8860    1.5690 N   0  0  0  0  0  0  0  0  0  0  0  0
   -2.6530   -0.8520    0.9750 C   0  0  0  0  0  0  0  0  0  0  0  0
   -1.4950   -1.5710    1.1860 C   0  0  0  0  0  0  0  0  0  0  0  0
   -0.3990   -1.2840    0.3890 C   0  0  0  0  0  0  0  0  0  0  0  0
    0.7640   -1.9660    0.5600 N   0  0  0  0  0  0  0  0  0  0  0  0
    1.8410   -1.7000   -0.2050 C   0  0  0  0  0  0  0  0  0  0  0  0
    3.0790   -2.4730    0.0260 C   0  0  2  0  0  0  0  0  0  0  0  0
    3.2940   -2.5310    1.4230 O   0  0  0  0  0  0  0  0  0  0  0  0
    4.2990   -1.7600   -0.5330 C   0  0  0  0  0  0  0  0  0  0  0  0
    4.3570   -0.4420    0.0660 N   0  0  0  0  0  0  0  0  0  0  0  0
    5.3720    0.5090   -0.2270 C   0  0  0  0  0  0  0  0  0  0  0  0
    6.2690    0.2220   -1.0320 O   0  0  0  0  0  0  0  0  0  0  0  0
    5.3980    1.8010    0.3830 N   0  0  0  0  0  0  0  0  0  0  0  0
    6.4240    2.7850    0.0990 C   0  0  0  0  0  0  0  0  0  0  0  0
    1.7580   -0.7500   -1.1440 N   0  0  0  0  0  0  0  0  0  0  0  0
    0.6180   -0.0350   -1.3590 C   0  0  0  0  0  0  0  0  0  0  0  0
    0.5330    0.8460   -2.2260 O   0  0  0  0  0  0  0  0  0  0  0  0
   -0.4790   -0.3110   -0.5750 C   0  0  0  0  0  0  0  0  0  0  0  0
   -1.6230    0.4010   -0.7840 C   0  0  0  0  0  0  0  0  0  0  0  0
   -2.7230    0.1270   -0.0000 C   0  0  0  0  0  0  0  0  0  0  0  0
  1  2  1  0
  2  3  1  0
  3  4  2  0
  3 25  1  0
  4  5  1  0
  4  6  1  0
  6  7  1  0
  7  8  2  0
  7 25  1  0
  8  9  1  0
  9 10  1  0
  9 23  2  0
 10 11  2  0
 11 12  1  0
 11 20  1  0
 12 13  1  1
 12 14  1  0
 14 15  1  0
 15 16  1  0
 16 17  2  0
 16 18  1  0
 18 19  1  0
 20 21  1  0
 21 22  2  0
 21 23  1  0
 23 24  1  0
 24 25  2  0
M  END
