
     RDKit          3D

 26 28  0  0  0  0  0  0  0  0999 V2000
   -5.4730   -1.7560   -0.3530 C   0  0  0  0  0  0  0  0  0  0  0  0
   -4.1660   -1.0820   -0.2890 C   0  0  0  0  0  0  0  0  0  0  0  0
   -4.1100    0.1800   -0.7310 C   0  0  0  0  0  0  0  0  0  0  0  0
   -5.3330    0.5970   -1.1680 C   0  0  0  0  0  0  0  0  0  0  0  0
   -5.4960    1.8740   -1.6660 C   0  0  0  0  0  0  0  0  0  0  0  0
   -4.4130    2.7240   -1.7180 C   0  0  0  0  0  0  0  0  0  0  0  0
   -3.1790    2.3450   -1.2920 C   0  0  0  0  0  0  0  0  0  0  0  0
   -3.0220    1.0580   -0.7910 C   0  0  0  0  0  0  0  0  0  0  0  0
   -1.8050    0.8380   -0.4270 N   0  0  0  0  0  0  0  0  0  0  0  0
   -1.1370   -0.2800    0.1320 C   0  0  0  0  0  0  0  0  0  0  0  0
    0.2810   -0.1060    0.4030 C   0  0  0  0  0  0  0  0  0  0  0  0
    0.8020    1.0320    0.1150 O   0  0  0  0  0  0  0  0  0  0  0  0
    1.0800   -1.0990    0.9490 N   0  0  0  0  0  0  0  0  0  0  0  0
    2.5310   -0.8280    1.1590 C   0  0  0  0  0  0  0  0  0  0  0  0
    3.0950   -0.2040    0.2090 C   0  0  0  0  0  0  0  0  0  0  0  0
    4.3860    0.3200   -0.1500 C   0  0  0  0  0  0  0  0  0  0  0  0
    4.5140    0.9550   -1.3430 C   0  0  0  0  0  0  0  0  0  0  0  0
    5.7580    1.5450   -1.8610 C   0  0  0  0  0  0  0  0  0  0  0  0
    6.8340    1.3990   -1.0040 O   0  0  0  0  0  0  0  0  0  0  0  0
    6.7300    0.7790    0.1730 N   0  0  0  0  0  0  0  0  0  0  0  0
    5.6050    0.2600    0.6120 C   0  0  0  0  0  0  0  0  0  0  0  0
    2.9810   -1.3330    2.4040 C   0  0  0  0  0  0  0  0  0  0  0  0
    4.2180   -1.3350    3.0480 N   0  0  0  0  0  0  0  0  0  0  0  0
    2.0740   -1.9420    3.1550 O   0  0  0  0  0  0  0  0  0  0  0  0
   -1.6840   -1.4350    0.4200 C   0  0  0  0  0  0  0  0  0  0  0  0
   -3.0620   -1.8150    0.2340 N   0  0  0  0  0  0  0  0  0  0  0  0
  1  2  1  0
  2  3  2  0
  2 26  1  0
  3  4  1  0
  3  8  1  0
  4  5  2  0
  5  6  1  0
  6  7  2  0
  7  8  1  0
  8  9  2  0
  9 10  1  0
 10 11  1  0
 10 25  2  0
 11 12  2  0
 11 13  1  0
 13 14  1  0
 14 15  2  3
 14 22  1  0
 15 16  1  0
 16 17  2  0
 16 21  1  0
 17 18  1  0
 18 19  1  0
 19 20  1  0
 20 21  2  0
 22 23  1  0
 22 24  2  0
 25 26  1  0
M  END
