
     RDKit          3D

 26 28  0  0  0  0  0  0  0  0999 V2000
   -6.1290    0.1080    1.4970 C   0  0  0  0  0  0  0  0  0  0  0  0
   -5.3950    0.3080    0.1450 C   0  0  1  0  0  0  0  0  0  0  0  0
   -5.4220    1.8100    0.0690 N   0  0  0  0  0  0  0  0  0  0  0  0
   -5.7860    2.5000   -1.0700 C   0  0  0  0  0  0  0  0  0  0  0  0
   -6.1330    1.8820   -2.1230 O   0  0  0  0  0  0  0  0  0  0  0  0
   -3.9360    0.0080    0.3600 C   0  0  0  0  0  0  0  0  0  0  0  0
   -3.2440    0.5950    1.3800 C   0  0  0  0  0  0  0  0  0  0  0  0
   -1.8670    0.4750    1.4250 C   0  0  0  0  0  0  0  0  0  0  0  0
   -1.2110   -0.2450    0.4290 C   0  0  0  0  0  0  0  0  0  0  0  0
    0.2020   -0.2450    0.4700 N   0  0  0  0  0  0  0  0  0  0  0  0
    1.0650   -1.1440   -0.2260 C   0  0  0  0  0  0  0  0  0  0  0  0
    0.5870   -2.0310   -0.9330 O   0  0  0  0  0  0  0  0  0  0  0  0
    2.5190   -0.9120   -0.0350 C   0  0  0  0  0  0  0  0  0  0  0  0
    3.0320   -0.6010    1.1960 C   0  0  0  0  0  0  0  0  0  0  0  0
    4.3570   -0.2920    1.3600 C   0  0  0  0  0  0  0  0  0  0  0  0
    5.1950   -0.2990    0.2540 C   0  0  0  0  0  0  0  0  0  0  0  0
    4.6900   -0.6100   -0.9860 C   0  0  0  0  0  0  0  0  0  0  0  0
    3.3350   -0.9210   -1.1260 C   0  0  0  0  0  0  0  0  0  0  0  0
    5.7140   -0.5050   -1.8140 N   0  0  0  0  0  0  0  0  0  0  0  0
    6.8000   -0.1450   -1.1450 C   0  0  0  0  0  0  0  0  0  0  0  0
    7.9510    0.0540   -1.6470 O   0  0  0  0  0  0  0  0  0  0  0  0
    6.5030   -0.0080    0.1820 N   0  0  0  0  0  0  0  0  0  0  0  0
    7.3970    0.3990    1.2010 C   0  0  0  0  0  0  0  0  0  0  0  0
   -1.8990   -0.8450   -0.6010 C   0  0  0  0  0  0  0  0  0  0  0  0
   -3.3040   -0.7260   -0.6520 C   0  0  0  0  0  0  0  0  0  0  0  0
   -3.9910   -1.3970   -1.6860 N   0  0  0  0  0  0  0  0  0  0  0  0
  2  1  1  1
  2  3  1  0
  2  6  1  0
  3  4  1  0
  4  5  2  0
  6  7  2  0
  6 25  1  0
  7  8  1  0
  8  9  2  0
  9 10  1  0
  9 24  1  0
 10 11  1  0
 11 12  2  0
 11 13  1  0
 13 14  2  0
 13 18  1  0
 14 15  1  0
 15 16  2  0
 16 17  1  0
 16 22  1  0
 17 18  2  0
 17 19  1  0
 19 20  1  0
 20 21  2  0
 20 22  1  0
 22 23  1  0
 24 25  2  0
 25 26  1  0
M  END
