
     RDKit          3D

 26 28  0  0  0  0  0  0  0  0999 V2000
   -5.0650    0.5620   -3.1160 C   0  0  0  0  0  0  0  0  0  0  0  0
   -4.2640    0.2550   -2.0070 O   0  0  0  0  0  0  0  0  0  0  0  0
   -4.8860   -0.1790   -0.8430 C   0  0  0  0  0  0  0  0  0  0  0  0
   -6.2480   -0.3120   -0.7570 C   0  0  0  0  0  0  0  0  0  0  0  0
   -6.8290   -0.7460    0.4150 C   0  0  0  0  0  0  0  0  0  0  0  0
   -6.0150   -1.0380    1.4820 C   0  0  0  0  0  0  0  0  0  0  0  0
   -4.6200   -0.9150    1.4320 C   0  0  0  0  0  0  0  0  0  0  0  0
   -4.0650   -0.4810    0.2530 C   0  0  0  0  0  0  0  0  0  0  0  0
   -2.6720   -0.3220    0.0950 N   0  0  0  0  0  0  0  0  0  0  0  0
   -1.6750   -0.5740    1.0840 C   0  0  0  0  0  0  0  0  0  0  0  0
   -1.9870   -0.9680    2.1970 O   0  0  0  0  0  0  0  0  0  0  0  0
   -0.2840   -0.3680    0.7830 N   0  0  0  0  0  0  0  0  0  0  0  0
    0.8020   -0.5750    1.6610 C   0  0  0  0  0  0  0  0  0  0  0  0
    0.6690   -0.9430    2.9810 C   0  0  0  0  0  0  0  0  0  0  0  0
    1.7460   -1.1180    3.8160 C   0  0  0  0  0  0  0  0  0  0  0  0
    3.0210   -0.9220    3.3310 C   0  0  0  0  0  0  0  0  0  0  0  0
    3.1620   -0.5520    2.0080 C   0  0  0  0  0  0  0  0  0  0  0  0
    2.0860   -0.3700    1.1450 C   0  0  0  0  0  0  0  0  0  0  0  0
    2.2810   -0.0230   -0.2090 N   0  0  0  0  0  0  0  0  0  0  0  0
    3.6420    0.2960   -0.6200 C   0  0  2  0  0  0  0  0  0  0  0  0
    4.1760    1.5590   -0.0160 C   0  0  0  0  0  0  0  0  0  0  0  0
    5.6120    1.6030   -0.2010 N   0  0  0  0  0  0  0  0  0  0  0  0
    6.0210    1.2900   -1.5310 C   0  0  0  0  0  0  0  0  0  0  0  0
    4.9200    1.2210   -2.4930 N   0  0  0  0  0  0  0  0  0  0  0  0
    3.7870    0.4600   -2.0880 C   0  0  0  0  0  0  0  0  0  0  0  0
    3.0090   -0.0080   -2.9450 O   0  0  0  0  0  0  0  0  0  0  0  0
  1  2  1  0
  2  3  1  0
  3  4  2  0
  3  8  1  0
  4  5  1  0
  5  6  2  0
  6  7  1  0
  7  8  2  0
  8  9  1  0
  9 10  1  0
 10 11  2  0
 10 12  1  0
 12 13  1  0
 13 14  2  0
 13 18  1  0
 14 15  1  0
 15 16  2  0
 16 17  1  0
 17 18  2  0
 18 19  1  0
 20 19  1  6
 20 21  1  0
 20 25  1  0
 21 22  1  0
 22 23  1  0
 23 24  1  0
 24 25  1  0
 25 26  2  0
M  END
