
     RDKit          3D

 11 11  0  0  0  0  0  0  0  0999 V2000
   -2.5440    1.2620   -0.8480 O   0  0  0  0  0  0  0  0  0  0  0  0
   -2.1860    0.2390   -0.2150 C   0  0  0  0  0  0  0  0  0  0  0  0
   -3.1490   -0.5960    0.3180 O   0  0  0  0  0  0  0  0  0  0  0  0
   -0.7570   -0.0050   -0.0820 C   0  0  0  0  0  0  0  0  0  0  0  0
   -0.3340   -1.1400    0.6200 C   0  0  0  0  0  0  0  0  0  0  0  0
    1.0250   -1.3520    0.7330 C   0  0  0  0  0  0  0  0  0  0  0  0
    1.9230   -0.4680    0.1700 C   0  0  0  0  0  0  0  0  0  0  0  0
    3.1680   -0.6480    0.2650 O   0  0  0  0  0  0  0  0  0  0  0  0
    1.5030    0.6070   -0.4950 N   0  0  0  0  0  0  0  0  0  0  0  0
    2.4270    1.4780   -1.0510 O   0  0  0  0  0  0  0  0  0  0  0  0
    0.1810    0.8430   -0.6240 C   0  0  0  0  0  0  0  0  0  0  0  0
  1  2  2  0
  2  3  1  0
  2  4  1  0
  4  5  1  0
  4 11  2  0
  5  6  2  0
  6  7  1  0
  7  8  2  0
  7  9  1  0
  9 10  1  0
  9 11  1  0
M  END
