
     RDKit          3D

 19 20  0  0  0  0  0  0  0  0999 V2000
   -0.0730    2.1360   -1.5000 N   0  0  0  0  0  0  0  0  0  0  0  0
    0.7850    1.2720   -0.7670 C   0  0  0  0  0  0  0  0  0  0  0  0
    2.1790    1.3820   -1.0000 N   0  0  0  0  0  0  0  0  0  0  0  0
    3.0540    0.5110   -0.2930 C   0  0  0  0  0  0  0  0  0  0  0  0
    3.3850   -0.6980   -0.7060 C   0  0  0  0  0  0  0  0  0  0  0  0
    4.2990   -1.5930    0.0440 C   0  0  0  0  0  0  0  0  0  0  0  0
    4.7840   -1.0430    1.2360 O   0  0  0  0  0  0  0  0  0  0  0  0
    4.4540    0.2230    1.6960 C   0  0  0  0  0  0  0  0  0  0  0  0
    3.6320    0.9590    0.9680 C   0  0  0  0  0  0  0  0  0  0  0  0
    0.3630    0.4120    0.0810 N   0  0  0  0  0  0  0  0  0  0  0  0
   -1.0350    0.2830    0.3320 C   0  0  1  0  0  0  0  0  0  0  0  0
   -1.8460    0.0750   -0.9300 C   0  0  0  0  0  0  0  0  0  0  0  0
   -3.0400   -0.7390   -0.4950 C   0  0  2  0  0  0  0  0  0  0  0  0
   -3.2140   -1.8770   -1.2600 O   0  0  0  0  0  0  0  0  0  0  0  0
   -4.2850    0.1150   -0.5750 C   0  0  0  0  0  0  0  0  0  0  0  0
   -5.4110   -0.5530   -0.1320 O   0  0  0  0  0  0  0  0  0  0  0  0
   -2.7660   -1.1630    0.8610 N   0  0  0  0  0  0  0  0  0  0  0  0
   -1.3950   -0.8980    1.1310 C   0  0  0  0  0  0  0  0  0  0  0  0
   -0.6940   -1.5980    1.9250 O   0  0  0  0  0  0  0  0  0  0  0  0
  1  2  1  0
  2  3  1  0
  2 10  2  3
  3  4  1  0
  4  5  2  0
  4  9  1  0
  5  6  1  0
  6  7  1  0
  7  8  1  0
  8  9  2  0
 11 10  1  6
 11 12  1  0
 11 18  1  0
 12 13  1  0
 13 14  1  6
 13 15  1  0
 13 17  1  0
 15 16  1  0
 17 18  1  0
 18 19  2  0
M  CHG  1  10   1
M  END
