
     RDKit          3D

 19 20  0  0  0  0  0  0  0  0999 V2000
    0.2140    0.4310    1.8130 C   0  0  0  0  0  0  0  0  0  0  0  0
    0.1690    0.0380    0.3260 C   0  0  2  0  0  0  0  0  0  0  0  0
   -0.8820   -0.9740    0.0670 C   0  0  2  0  0  0  0  0  0  0  0  0
   -0.8370   -1.3820   -1.2820 O   0  0  0  0  0  0  0  0  0  0  0  0
   -2.2780   -0.5040    0.3720 C   0  0  0  0  0  0  0  0  0  0  0  0
   -2.9430   -1.0660    1.3780 C   0  0  0  0  0  0  0  0  0  0  0  0
   -4.3120   -0.6620    1.7400 C   0  0  0  0  0  0  0  0  0  0  0  0
   -4.7880    0.3830    0.9500 O   0  0  0  0  0  0  0  0  0  0  0  0
   -4.1280    0.9580   -0.0720 N   0  0  0  0  0  0  0  0  0  0  0  0
   -2.9210    0.5630   -0.3840 C   0  0  0  0  0  0  0  0  0  0  0  0
   -2.2420    1.1720   -1.4840 N   0  0  0  0  0  0  0  0  0  0  0  0
    1.5480   -0.5120    0.0640 C   0  0  0  0  0  0  0  0  0  0  0  0
    2.2920    0.3860   -0.5500 C   0  0  0  0  0  0  0  0  0  0  0  0
    3.6420    0.2950   -0.9830 N   0  0  0  0  0  0  0  0  0  0  0  0
    4.4860   -0.8210   -0.8360 C   0  0  0  0  0  0  0  0  0  0  0  0
    5.8450   -0.8220   -1.3090 N   0  0  0  0  0  0  0  0  0  0  0  0
    4.0190   -1.8370   -0.2730 O   0  0  0  0  0  0  0  0  0  0  0  0
    1.4070    1.5710   -0.7090 C   0  0  0  0  0  0  0  0  0  0  0  0
    0.1260    1.1920   -0.4020 O   0  0  0  0  0  0  0  0  0  0  0  0
  2  1  1  1
  2  3  1  0
  2 12  1  0
  2 19  1  0
  3  4  1  6
  3  5  1  0
  5  6  2  0
  5 10  1  0
  6  7  1  0
  7  8  1  0
  8  9  1  0
  9 10  2  0
 10 11  1  0
 12 13  2  0
 13 14  1  0
 13 18  1  0
 14 15  1  0
 15 16  1  0
 15 17  2  0
 18 19  1  0
M  CHG  1   9   1
M  END
