
     RDKit          3D

 19 20  0  0  0  0  0  0  0  0999 V2000
   -4.5250   -0.4770    1.4700 C   0  0  0  0  0  0  0  0  0  0  0  0
   -3.8530   -0.5300    0.2340 O   0  0  0  0  0  0  0  0  0  0  0  0
   -2.7630    0.2560   -0.0850 C   0  0  0  0  0  0  0  0  0  0  0  0
   -2.9490    1.4560   -0.5600 C   0  0  0  0  0  0  0  0  0  0  0  0
   -4.2350    1.9350   -0.7420 O   0  0  0  0  0  0  0  0  0  0  0  0
   -1.3730   -0.2160    0.0910 C   0  0  0  0  0  0  0  0  0  0  0  0
   -1.0910   -1.4150    0.5710 C   0  0  0  0  0  0  0  0  0  0  0  0
    0.3490   -1.5690    0.6210 C   0  0  0  0  0  0  0  0  0  0  0  0
    0.9420   -0.4850    0.1800 C   0  0  0  0  0  0  0  0  0  0  0  0
    2.4060   -0.2580    0.0780 C   0  0  0  0  0  0  0  0  0  0  0  0
    2.8830    0.9030   -0.3940 N   0  0  0  0  0  0  0  0  0  0  0  0
    4.1950    1.1240   -0.4920 N   0  0  0  0  0  0  0  0  0  0  0  0
    5.0740    0.1870   -0.1200 C   0  0  0  0  0  0  0  0  0  0  0  0
    6.3260    0.3880   -0.2100 O   0  0  0  0  0  0  0  0  0  0  0  0
    4.6160   -1.0200    0.3700 C   0  0  0  0  0  0  0  0  0  0  0  0
    5.4530   -1.8930    0.7160 O   0  0  0  0  0  0  0  0  0  0  0  0
    3.2850   -1.1950    0.4500 N   0  0  0  0  0  0  0  0  0  0  0  0
   -0.1250    0.4610   -0.2090 C   0  0  1  0  0  0  0  0  0  0  0  0
    0.0000    0.8400   -1.6080 N   0  0  0  0  0  0  0  0  0  0  0  0
  1  2  1  0
  2  3  1  0
  3  4  2  3
  3  6  1  0
  4  5  1  0
  6  7  2  0
  6 18  1  0
  7  8  1  0
  8  9  2  0
  9 10  1  0
  9 18  1  0
 10 11  2  0
 10 17  1  0
 11 12  1  0
 12 13  1  0
 13 14  2  0
 13 15  1  0
 15 16  2  0
 15 17  1  0
 18 19  1  6
M  CHG  1  19   1
M  END
