
     RDKit          3D

 19 20  0  0  0  0  0  0  0  0999 V2000
   -2.6170    0.0550    1.1140 C   0  0  0  0  0  0  0  0  0  0  0  0
   -2.0000    0.1120   -0.2480 C   0  0  1  0  0  0  0  0  0  0  0  0
   -2.9770    0.2390   -1.3760 C   0  0  0  0  0  0  0  0  0  0  0  0
   -3.8880   -0.8650   -1.4160 N   0  0  0  0  0  0  0  0  0  0  0  0
   -0.6450    0.6540   -0.3670 C   0  0  1  0  0  0  0  0  0  0  0  0
    0.0780    1.2790    0.7170 C   0  0  0  0  0  0  0  0  0  0  0  0
   -0.3870    1.3390    1.8690 O   0  0  0  0  0  0  0  0  0  0  0  0
    1.3610    1.8440    0.4590 N   0  0  0  0  0  0  0  0  0  0  0  0
    1.9920    1.7910   -0.8420 C   0  0  0  0  0  0  0  0  0  0  0  0
    3.4330    1.3550   -0.7560 C   0  0  0  0  0  0  0  0  0  0  0  0
    3.6630    0.0560   -1.1060 O   0  0  0  0  0  0  0  0  0  0  0  0
    2.9420   -0.9140   -0.4640 C   0  0  0  0  0  0  0  0  0  0  0  0
    2.7150   -0.5970    0.9130 N   0  0  0  0  0  0  0  0  0  0  0  0
    1.7190   -1.1310    1.7680 C   0  0  0  0  0  0  0  0  0  0  0  0
    1.9360   -0.8290    3.0190 O   0  0  0  0  0  0  0  0  0  0  0  0
    0.5950   -1.9050    1.4290 N   0  0  0  0  0  0  0  0  0  0  0  0
   -0.4930   -1.6950    0.5900 C   0  0  0  0  0  0  0  0  0  0  0  0
   -1.5580   -2.4300    0.7490 O   0  0  0  0  0  0  0  0  0  0  0  0
   -0.7240   -0.7630   -0.5150 C   0  0  1  0  0  0  0  0  0  0  0  0
  2  1  1  1
  2  3  1  0
  2  5  1  0
  2 19  1  0
  3  4  1  0
  5  6  1  1
  5 19  1  0
  6  7  2  0
  6  8  1  0
  8  9  1  0
  9 10  1  0
 10 11  1  0
 11 12  1  0
 12 13  1  0
 13 14  1  0
 14 15  2  0
 14 16  1  0
 16 17  1  0
 17 18  2  0
 19 17  1  1
M  CHG  1   4   1
M  END
