
     RDKit          3D

 19 21  0  0  0  0  0  0  0  0999 V2000
    0.0950    2.6650   -0.4860 C   0  0  0  0  0  0  0  0  0  0  0  0
   -0.1320    1.5340    0.4820 C   0  0  1  0  0  0  0  0  0  0  0  0
   -0.1040    2.0190    1.7940 O   0  0  0  0  0  0  0  0  0  0  0  0
   -1.4800    0.9790    0.2520 C   0  0  0  0  0  0  0  0  0  0  0  0
   -1.7050   -0.2290   -0.2270 C   0  0  0  0  0  0  0  0  0  0  0  0
   -0.5990   -1.0950   -0.5610 N   0  0  0  0  0  0  0  0  0  0  0  0
    0.4060   -0.9240    0.4750 C   0  0  1  0  0  0  0  0  0  0  0  0
    1.4400   -1.9710    0.2750 C   0  0  0  0  0  0  0  0  0  0  0  0
    2.7860   -1.6010    0.7950 C   0  0  1  0  0  0  0  0  0  0  0  0
    3.6870   -2.6050    0.4320 O   0  0  0  0  0  0  0  0  0  0  0  0
    3.2230   -0.3170    0.1280 C   0  0  0  0  0  0  0  0  0  0  0  0
    2.1830    0.7360    0.2270 C   0  0  0  0  0  0  0  0  0  0  0  0
    2.6140    2.0780    0.1450 N   0  0  0  0  0  0  0  0  0  0  0  0
    0.8930    0.4740    0.3850 C   0  0  0  0  0  0  0  0  0  0  0  0
   -3.1010   -0.4460   -0.3240 N   0  0  0  0  0  0  0  0  0  0  0  0
   -3.6820   -1.6720   -0.6260 N   0  0  0  0  0  0  0  0  0  0  0  0
   -5.0180   -1.6090   -0.6940 O   0  0  0  0  0  0  0  0  0  0  0  0
   -3.7560    0.8240   -0.0520 C   0  0  0  0  0  0  0  0  0  0  0  0
   -2.7150    1.6030    0.4900 O   0  0  0  0  0  0  0  0  0  0  0  0
  2  1  1  6
  2  3  1  0
  2  4  1  0
  2 14  1  0
  4  5  2  0
  4 19  1  0
  5  6  1  0
  5 15  1  0
  6  7  1  0
  7  8  1  6
  7 14  1  0
  8  9  1  0
  9 10  1  6
  9 11  1  0
 11 12  1  0
 12 13  1  0
 12 14  2  0
 15 16  1  0
 15 18  1  0
 16 17  1  0
 18 19  1  0
M  CHG  1   6   1
M  END
