
     RDKit          3D

 19 21  0  0  0  0  0  0  0  0999 V2000
   -4.7820   -2.1260   -1.2360 N   0  0  0  0  0  0  0  0  0  0  0  0
   -4.1710   -1.0280   -0.5330 C   0  0  0  0  0  0  0  0  0  0  0  0
   -4.7730   -0.1000    0.2280 N   0  0  0  0  0  0  0  0  0  0  0  0
   -3.8810    0.7690    0.7240 C   0  0  0  0  0  0  0  0  0  0  0  0
   -4.0850    1.8670    1.5480 O   0  0  0  0  0  0  0  0  0  0  0  0
   -2.6390    0.3860    0.2620 C   0  0  0  0  0  0  0  0  0  0  0  0
   -2.8260   -0.7210   -0.5110 C   0  0  0  0  0  0  0  0  0  0  0  0
   -1.5050   -1.1120   -0.9900 C   0  0  0  0  0  0  0  0  0  0  0  0
   -1.2120   -2.0920   -1.7420 O   0  0  0  0  0  0  0  0  0  0  0  0
   -0.5720   -0.1410   -0.4270 C   0  0  0  0  0  0  0  0  0  0  0  0
   -1.2090    0.7520    0.3140 C   0  0  0  0  0  0  0  0  0  0  0  0
   -0.5240    1.7850    0.9590 O   0  0  0  0  0  0  0  0  0  0  0  0
    0.8270    1.5420    1.3200 C   0  0  0  0  0  0  0  0  0  0  0  0
    1.5560    1.1150    0.0510 C   0  0  1  0  0  0  0  0  0  0  0  0
    2.9490    0.6390    0.4450 C   0  0  0  0  0  0  0  0  0  0  0  0
    3.6800    0.2220   -0.7320 N   0  0  0  0  0  0  0  0  0  0  0  0
    4.2380   -1.1150   -0.5910 C   0  0  0  0  0  0  0  0  0  0  0  0
    5.5850   -0.9510   -0.2060 O   0  0  0  0  0  0  0  0  0  0  0  0
    0.8560    0.0080   -0.5310 N   0  0  0  0  0  0  0  0  0  0  0  0
  1  2  1  0
  2  3  1  0
  2  7  2  0
  3  4  1  0
  4  5  1  0
  4  6  2  0
  6  7  1  0
  6 11  1  0
  7  8  1  0
  8  9  2  0
  8 10  1  0
 10 11  2  0
 10 19  1  0
 11 12  1  0
 12 13  1  0
 13 14  1  0
 14 15  1  1
 14 19  1  0
 15 16  1  0
 16 17  1  0
 17 18  1  0
M  CHG  1  16   1
M  END
