
     RDKit          3D

 19 20  0  0  0  0  0  0  0  0999 V2000
   -4.3490    1.1100    0.9550 N   0  0  0  0  0  0  0  0  0  0  0  0
   -3.6880    0.1550    0.1210 C   0  0  0  0  0  0  0  0  0  0  0  0
   -4.0720    0.0020   -1.0670 O   0  0  0  0  0  0  0  0  0  0  0  0
   -2.5560   -0.6650    0.6240 C   0  0  2  0  0  0  0  0  0  0  0  0
   -1.4960    0.2030    1.2350 C   0  0  0  0  0  0  0  0  0  0  0  0
   -0.2480    0.2550    0.4720 C   0  0  0  0  0  0  0  0  0  0  0  0
    0.1530   -0.7680   -0.2650 C   0  0  0  0  0  0  0  0  0  0  0  0
    1.3300   -0.7300   -0.9910 O   0  0  0  0  0  0  0  0  0  0  0  0
    2.3570    0.1490   -0.6830 C   0  0  0  0  0  0  0  0  0  0  0  0
    2.3380    1.3950   -1.2960 C   0  0  0  0  0  0  0  0  0  0  0  0
    1.3220    1.7520   -2.1920 O   0  0  0  0  0  0  0  0  0  0  0  0
    3.3240    2.2450   -1.0030 N   0  0  0  0  0  0  0  0  0  0  0  0
    4.3070    1.9500   -0.1610 N   0  0  0  0  0  0  0  0  0  0  0  0
    4.3580    0.7470    0.4550 C   0  0  0  0  0  0  0  0  0  0  0  0
    5.2780    0.4760    1.2420 O   0  0  0  0  0  0  0  0  0  0  0  0
    3.3620   -0.1700    0.1870 C   0  0  0  0  0  0  0  0  0  0  0  0
    3.3970   -1.4090    0.8100 O   0  0  0  0  0  0  0  0  0  0  0  0
   -0.7330   -1.9660   -0.2710 C   0  0  0  0  0  0  0  0  0  0  0  0
   -2.0990   -1.5200   -0.4140 N   0  0  0  0  0  0  0  0  0  0  0  0
  1  2  1  0
  2  3  2  0
  4  2  1  6
  4  5  1  0
  4 19  1  0
  5  6  1  0
  6  7  2  0
  7  8  1  0
  7 18  1  0
  8  9  1  0
  9 10  1  0
  9 16  2  0
 10 11  1  0
 10 12  2  0
 12 13  1  0
 13 14  1  0
 14 15  2  0
 14 16  1  0
 16 17  1  0
 18 19  1  0
M  CHG  1  19   1
M  END
