
     RDKit          3D

 25 26  0  0  0  0  0  0  0  0999 V2000
   -0.4760    3.7270   -1.6460 N   0  0  0  0  0  0  0  0  0  0  0  0
   -1.1710    3.1920   -0.5370 C   0  0  0  0  0  0  0  0  0  0  0  0
   -2.4270    3.0850   -0.6420 O   0  0  0  0  0  0  0  0  0  0  0  0
   -0.4850    2.7800    0.6750 C   0  0  0  0  0  0  0  0  0  0  0  0
    0.2830    1.5390    0.6490 C   0  0  0  0  0  0  0  0  0  0  0  0
    1.5620    1.4350    0.9730 N   0  0  0  0  0  0  0  0  0  0  0  0
    1.9490    0.1050    0.8290 N   0  0  0  0  0  0  0  0  0  0  0  0
    3.2270   -0.4420    0.5500 C   0  0  0  0  0  0  0  0  0  0  0  0
    3.5600   -0.9180   -0.6350 C   0  0  0  0  0  0  0  0  0  0  0  0
    2.6610   -0.9450   -1.8190 C   0  0  0  0  0  0  0  0  0  0  0  0
    3.2410   -0.1910   -2.8700 O   0  0  0  0  0  0  0  0  0  0  0  0
    4.2180   -0.4700    1.6050 C   0  0  0  0  0  0  0  0  0  0  0  0
    5.5470   -0.9970    1.3780 N   0  0  0  0  0  0  0  0  0  0  0  0
    3.9140   -0.0260    2.7340 O   0  0  0  0  0  0  0  0  0  0  0  0
    0.6870   -0.6540    1.0420 C   0  0  1  0  0  0  0  0  0  0  0  0
    0.3660   -0.5670    2.4230 N   0  0  0  0  0  0  0  0  0  0  0  0
   -0.1890    0.2440    0.2940 N   0  0  0  0  0  0  0  0  0  0  0  0
   -1.2550   -0.0770   -0.5670 C   0  0  0  0  0  0  0  0  0  0  0  0
   -2.4950   -0.5850    0.0560 C   0  0  1  0  0  0  0  0  0  0  0  0
   -3.0450    0.3230    0.9730 O   0  0  0  0  0  0  0  0  0  0  0  0
   -3.5870   -0.6620   -1.0580 C   0  0  0  0  0  0  0  0  0  0  0  0
   -4.6340   -1.5590   -0.4800 C   0  0  0  0  0  0  0  0  0  0  0  0
   -3.9110   -2.3650    0.4870 N   0  0  0  0  0  0  0  0  0  0  0  0
   -2.5160   -1.9760    0.5080 C   0  0  0  0  0  0  0  0  0  0  0  0
   -1.5840   -2.7410    0.8570 O   0  0  0  0  0  0  0  0  0  0  0  0
  1  2  1  0
  2  3  2  0
  2  4  1  0
  4  5  1  0
  5  6  2  0
  5 17  1  0
  6  7  1  0
  7  8  1  0
  7 15  1  0
  8  9  2  3
  8 12  1  0
  9 10  1  0
 10 11  1  0
 12 13  1  0
 12 14  2  0
 15 16  1  1
 15 17  1  0
 17 18  1  0
 18 19  1  0
 19 20  1  1
 19 21  1  0
 19 24  1  0
 21 22  1  0
 22 23  1  0
 23 24  1  0
 24 25  2  0
M  END
