
     RDKit          3D

 25 27  0  0  0  0  0  0  0  0999 V2000
   -6.9480    0.7250    0.2940 N   0  0  0  0  0  0  0  0  0  0  0  0
   -5.6350    1.2710    0.3490 C   0  0  0  0  0  0  0  0  0  0  0  0
   -5.4670    2.5340    0.7830 N   0  0  0  0  0  0  0  0  0  0  0  0
   -4.2190    3.0480    0.8340 C   0  0  0  0  0  0  0  0  0  0  0  0
   -3.1250    2.3450    0.4650 N   0  0  0  0  0  0  0  0  0  0  0  0
   -3.2430    1.0850    0.0260 C   0  0  0  0  0  0  0  0  0  0  0  0
   -4.5180    0.5550   -0.0270 C   0  0  0  0  0  0  0  0  0  0  0  0
   -4.3790   -0.7070   -0.4950 N   0  0  0  0  0  0  0  0  0  0  0  0
   -3.0750   -0.9130   -0.7080 C   0  0  0  0  0  0  0  0  0  0  0  0
   -2.3420    0.1710   -0.3980 N   0  0  0  0  0  0  0  0  0  0  0  0
   -0.8880    0.3270   -0.4970 C   0  0  2  0  0  0  0  0  0  0  0  0
   -0.4550   -0.3740   -1.5840 O   0  0  0  0  0  0  0  0  0  0  0  0
    0.6360   -1.1280   -1.2560 C   0  0  2  0  0  0  0  0  0  0  0  0
    0.3590   -2.6290   -1.3900 C   0  0  0  0  0  0  0  0  0  0  0  0
    0.0190   -2.8750   -2.7010 O   0  0  0  0  0  0  0  0  0  0  0  0
    1.0340   -0.8170    0.1330 C   0  0  1  0  0  0  0  0  0  0  0  0
    2.1950    0.0080    0.2760 N   0  0  0  0  0  0  0  0  0  0  0  0
    3.3530   -0.4150    1.0180 C   0  0  0  0  0  0  0  0  0  0  0  0
    3.2630   -1.5670    1.5330 O   0  0  0  0  0  0  0  0  0  0  0  0
    4.5270    0.4560    1.1450 C   0  0  1  0  0  0  0  0  0  0  0  0
    5.4920   -0.2790    1.9810 N   0  0  0  0  0  0  0  0  0  0  0  0
    5.2300    0.7020   -0.1720 C   0  0  0  0  0  0  0  0  0  0  0  0
    4.4340    1.3950   -1.0790 O   0  0  0  0  0  0  0  0  0  0  0  0
   -0.2090   -0.2520    0.7280 C   0  0  1  0  0  0  0  0  0  0  0  0
    0.0430    0.7220    1.6930 O   0  0  0  0  0  0  0  0  0  0  0  0
  1  2  1  0
  2  3  2  0
  2  7  1  0
  3  4  1  0
  4  5  2  0
  5  6  1  0
  6  7  2  0
  6 10  1  0
  7  8  1  0
  8  9  2  0
  9 10  1  0
 11 10  1  1
 11 12  1  0
 11 24  1  0
 12 13  1  0
 13 14  1  1
 13 16  1  0
 14 15  1  0
 16 17  1  6
 16 24  1  0
 17 18  1  0
 18 19  2  0
 18 20  1  0
 20 21  1  1
 20 22  1  0
 22 23  1  0
 24 25  1  1
M  END
