
     RDKit          3D

 24 25  0  0  0  0  0  0  0  0999 V2000
   -4.6880    2.4920   -1.0990 N   0  0  0  0  0  0  0  0  0  0  0  0
   -4.8670    1.4060   -0.4300 C   0  0  0  0  0  0  0  0  0  0  0  0
   -6.0150    0.7240   -0.3140 N   0  0  0  0  0  0  0  0  0  0  0  0
   -5.8150   -0.3370    0.4510 N   0  0  0  0  0  0  0  0  0  0  0  0
   -4.5300   -0.3610    0.8430 C   0  0  0  0  0  0  0  0  0  0  0  0
   -3.8780   -1.3760    1.7090 C   0  0  0  0  0  0  0  0  0  0  0  0
   -2.5290   -1.1120    1.9290 O   0  0  0  0  0  0  0  0  0  0  0  0
   -1.5730   -1.0260    0.9260 C   0  0  0  0  0  0  0  0  0  0  0  0
   -0.4240   -0.4710    1.1990 C   0  0  0  0  0  0  0  0  0  0  0  0
    0.7220   -0.2810    0.2840 C   0  0  1  0  0  0  0  0  0  0  0  0
    1.9190   -1.0090    0.8880 C   0  0  1  0  0  0  0  0  0  0  0  0
    1.6540   -2.4170    1.0410 N   0  0  0  0  0  0  0  0  0  0  0  0
    3.2190   -0.7290    0.2260 C   0  0  0  0  0  0  0  0  0  0  0  0
    3.5630    0.7020    0.3160 C   0  0  0  0  0  0  0  0  0  0  0  0
    2.9280    1.5660    0.9310 O   0  0  0  0  0  0  0  0  0  0  0  0
    4.7470    1.1710   -0.3670 N   0  0  0  0  0  0  0  0  0  0  0  0
    5.1150    2.5430   -0.3060 C   0  0  0  0  0  0  0  0  0  0  0  0
    6.2890    2.9430   -0.9980 N   0  0  0  0  0  0  0  0  0  0  0  0
    4.4450    3.3860    0.3270 O   0  0  0  0  0  0  0  0  0  0  0  0
    0.3960   -0.8180   -1.0450 C   0  0  0  0  0  0  0  0  0  0  0  0
    1.2480   -0.7590   -2.0080 O   0  0  0  0  0  0  0  0  0  0  0  0
   -0.8840   -1.4250   -1.3090 C   0  0  0  0  0  0  0  0  0  0  0  0
   -1.8390   -1.5410   -0.4030 C   0  0  0  0  0  0  0  0  0  0  0  0
   -3.9680    0.7250    0.2860 N   0  0  0  0  0  0  0  0  0  0  0  0
  1  2  2  0
  2  3  1  0
  2 24  1  0
  3  4  1  0
  4  5  2  0
  5  6  1  0
  5 24  1  0
  6  7  1  0
  7  8  1  0
  8  9  2  0
  8 23  1  0
 10  9  1  1
 10 11  1  0
 10 20  1  0
 11 12  1  6
 11 13  1  0
 13 14  1  0
 14 15  2  0
 14 16  1  0
 16 17  1  0
 17 18  1  0
 17 19  2  0
 20 21  2  0
 20 22  1  0
 22 23  2  0
M  END
