
     RDKit          3D

 25 26  0  0  0  0  0  0  0  0999 V2000
    0.6400   -3.4140   -0.5270 C   0  0  0  0  0  0  0  0  0  0  0  0
    1.0280   -2.3540    0.2970 O   0  0  0  0  0  0  0  0  0  0  0  0
    0.2650   -1.1660    0.4020 C   0  0  0  0  0  0  0  0  0  0  0  0
   -0.8930   -1.0670   -0.2150 C   0  0  0  0  0  0  0  0  0  0  0  0
   -1.4650   -2.0930   -1.0080 O   0  0  0  0  0  0  0  0  0  0  0  0
   -2.6250   -1.6610   -1.6300 C   0  0  0  0  0  0  0  0  0  0  0  0
   -3.0760   -0.4630   -0.8350 C   0  0  0  0  0  0  0  0  0  0  0  0
   -1.8030    0.1000   -0.2030 C   0  0  1  0  0  0  0  0  0  0  0  0
   -2.0950    0.6020    1.1210 N   0  0  0  0  0  0  0  0  0  0  0  0
   -2.6650   -0.3380    2.0520 C   0  0  0  0  0  0  0  0  0  0  0  0
   -2.3250   -1.5710    1.8810 N   0  0  0  0  0  0  0  0  0  0  0  0
   -1.3550    1.2020   -1.1460 C   0  0  0  0  0  0  0  0  0  0  0  0
   -1.1530    2.4260   -0.4040 N   0  0  0  0  0  0  0  0  0  0  0  0
    0.0700    3.0370   -0.0530 C   0  0  0  0  0  0  0  0  0  0  0  0
    0.0770    3.4270    1.1890 O   0  0  0  0  0  0  0  0  0  0  0  0
    1.2220    3.2660   -0.8290 N   0  0  0  0  0  0  0  0  0  0  0  0
    1.8030    2.5370   -1.8470 N   0  0  0  0  0  0  0  0  0  0  0  0
    2.2990    1.2040   -1.8340 C   0  0  0  0  0  0  0  0  0  0  0  0
    3.0000    0.7580   -2.8300 O   0  0  0  0  0  0  0  0  0  0  0  0
    2.1240    0.2430   -0.8290 N   0  0  0  0  0  0  0  0  0  0  0  0
    2.1810    0.4310    0.5980 C   0  0  2  0  0  0  0  0  0  0  0  0
    3.3660   -0.2840    1.1790 C   0  0  0  0  0  0  0  0  0  0  0  0
    3.6310   -0.2420    2.5690 N   0  0  0  0  0  0  0  0  0  0  0  0
    4.1390   -0.9290    0.4340 O   0  0  0  0  0  0  0  0  0  0  0  0
    0.8940   -0.1070    1.2410 C   0  0  0  0  0  0  0  0  0  0  0  0
  1  2  1  0
  2  3  1  0
  3  4  2  0
  3 25  1  0
  4  5  1  0
  4  8  1  0
  5  6  1  0
  6  7  1  0
  7  8  1  0
  8  9  1  1
  8 12  1  0
  9 10  1  0
 10 11  2  0
 12 13  1  0
 13 14  1  0
 14 15  2  0
 14 16  1  0
 16 17  1  0
 17 18  1  0
 18 19  2  0
 18 20  1  0
 20 21  1  0
 21 22  1  1
 21 25  1  0
 22 23  1  0
 22 24  2  0
M  END
