
     RDKit          3D

 25 26  0  0  0  0  0  0  0  0999 V2000
    6.7410    2.6220    0.1890 C   0  0  0  0  0  0  0  0  0  0  0  0
    5.9800    1.3920    0.2010 N   0  0  0  0  0  0  0  0  0  0  0  0
    4.6710    1.2890    0.7580 C   0  0  0  0  0  0  0  0  0  0  0  0
    4.1380    2.3150    1.2710 O   0  0  0  0  0  0  0  0  0  0  0  0
    3.9260    0.0020    0.7470 C   0  0  2  0  0  0  0  0  0  0  0  0
    4.7730   -1.0040    0.0990 N   0  0  0  0  0  0  0  0  0  0  0  0
    2.7090    0.1550   -0.0110 N   0  0  0  0  0  0  0  0  0  0  0  0
    2.7300    0.8790   -1.1420 C   0  0  0  0  0  0  0  0  0  0  0  0
    3.7930    1.4170   -1.5410 O   0  0  0  0  0  0  0  0  0  0  0  0
    1.6300    1.0600   -1.8930 N   0  0  0  0  0  0  0  0  0  0  0  0
    0.4500    0.5190   -1.5410 C   0  0  0  0  0  0  0  0  0  0  0  0
    0.3680   -0.2260   -0.4000 C   0  0  0  0  0  0  0  0  0  0  0  0
   -0.8180   -0.8530    0.0860 N   0  0  0  0  0  0  0  0  0  0  0  0
   -2.0850   -0.8110   -0.5170 C   0  0  0  0  0  0  0  0  0  0  0  0
   -2.2670   -0.1910   -1.5730 O   0  0  0  0  0  0  0  0  0  0  0  0
   -3.2290   -1.4670    0.0320 N   0  0  0  0  0  0  0  0  0  0  0  0
   -4.5330   -1.4220   -0.5920 C   0  0  1  0  0  0  0  0  0  0  0  0
   -5.2740   -2.7050   -0.6420 C   0  0  0  0  0  0  0  0  0  0  0  0
   -5.7420   -1.5680    0.2230 C   0  0  0  0  0  0  0  0  0  0  0  0
   -6.6000   -1.0630    1.0820 C   0  0  0  0  0  0  0  0  0  0  0  0
   -6.4420    0.2960    1.5920 C   0  0  0  0  0  0  0  0  0  0  0  0
   -5.3550    1.1140    1.1750 N   0  0  0  0  0  0  0  0  0  0  0  0
   -7.2630    0.7730    2.4110 O   0  0  0  0  0  0  0  0  0  0  0  0
    1.5470   -0.3830    0.3460 C   0  0  0  0  0  0  0  0  0  0  0  0
    1.4960   -1.0680    1.4050 O   0  0  0  0  0  0  0  0  0  0  0  0
  1  2  1  0
  2  3  1  0
  3  4  2  0
  3  5  1  0
  5  6  1  6
  5  7  1  0
  7  8  1  0
  7 24  1  0
  8  9  2  0
  8 10  1  0
 10 11  1  0
 11 12  2  0
 12 13  1  0
 12 24  1  0
 13 14  1  0
 14 15  2  0
 14 16  1  0
 17 16  1  1
 17 18  1  0
 17 19  1  0
 18 19  1  0
 19 20  2  3
 20 21  1  0
 21 22  1  0
 21 23  2  0
 24 25  2  0
M  END
