
     RDKit          3D

 24 26  0  0  0  0  0  0  0  0999 V2000
    4.4720   -2.3690   -0.2220 C   0  0  0  0  0  0  0  0  0  0  0  0
    3.6890   -1.8710   -1.3050 O   0  0  0  0  0  0  0  0  0  0  0  0
    2.3970   -1.4360   -1.0670 C   0  0  0  0  0  0  0  0  0  0  0  0
    2.2930   -0.2970   -0.4210 C   0  0  0  0  0  0  0  0  0  0  0  0
    1.1000    0.4540   -0.0040 C   0  0  0  0  0  0  0  0  0  0  0  0
    1.3170    1.8090    0.4790 C   0  0  0  0  0  0  0  0  0  0  0  0
    2.2340    2.1390    1.4010 N   0  0  0  0  0  0  0  0  0  0  0  0
    2.2240    3.4430    1.6020 N   0  0  0  0  0  0  0  0  0  0  0  0
    1.2830    3.9510    0.7920 C   0  0  0  0  0  0  0  0  0  0  0  0
    0.9930    5.1960    0.7190 O   0  0  0  0  0  0  0  0  0  0  0  0
    0.7310    2.9460    0.1060 N   0  0  0  0  0  0  0  0  0  0  0  0
   -0.1420    0.0230   -0.0750 C   0  0  0  0  0  0  0  0  0  0  0  0
   -1.0640    0.9940    0.4170 N   0  0  0  0  0  0  0  0  0  0  0  0
   -2.3890    1.0210   -0.1590 C   0  0  1  0  0  0  0  0  0  0  0  0
   -2.3370    1.3280   -1.5630 N   0  0  0  0  0  0  0  0  0  0  0  0
   -2.9510   -0.3920   -0.0340 C   0  0  2  0  0  0  0  0  0  0  0  0
   -3.4260   -0.6470    1.3470 C   0  0  0  0  0  0  0  0  0  0  0  0
   -4.0130   -1.9000    1.6620 N   0  0  0  0  0  0  0  0  0  0  0  0
   -3.3100    0.2480    2.2400 O   0  0  0  0  0  0  0  0  0  0  0  0
   -2.0050   -1.3980   -0.5390 C   0  0  0  0  0  0  0  0  0  0  0  0
   -0.7000   -1.2480   -0.5780 C   0  0  0  0  0  0  0  0  0  0  0  0
   -0.0010   -2.3600   -1.1160 N   0  0  0  0  0  0  0  0  0  0  0  0
    1.3620   -2.3330   -1.5830 C   0  0  0  0  0  0  0  0  0  0  0  0
    1.6390   -3.1460   -2.4910 O   0  0  0  0  0  0  0  0  0  0  0  0
  1  2  1  0
  2  3  1  0
  3  4  2  0
  3 23  1  0
  4  5  1  0
  5  6  1  0
  5 12  2  0
  6  7  2  0
  6 11  1  0
  7  8  1  0
  8  9  1  0
  9 10  2  0
  9 11  1  0
 12 13  1  0
 12 21  1  0
 13 14  1  0
 14 15  1  6
 14 16  1  0
 16 17  1  1
 16 20  1  0
 17 18  1  0
 17 19  2  0
 20 21  2  0
 21 22  1  0
 22 23  1  0
 23 24  2  0
M  END
