
     RDKit          3D

 24 25  0  0  0  0  0  0  0  0999 V2000
    4.8690    0.1440   -0.9520 C   0  0  0  0  0  0  0  0  0  0  0  0
    5.3380    0.2340    0.4710 C   0  0  2  0  0  0  0  0  0  0  0  0
    5.8390   -1.0310    1.1130 C   0  0  0  0  0  0  0  0  0  0  0  0
    4.5710   -0.4080    1.6010 C   0  0  2  0  0  0  0  0  0  0  0  0
    3.3520   -1.0360    1.3760 N   0  0  0  0  0  0  0  0  0  0  0  0
    2.0720   -0.3040    1.0320 C   0  0  0  0  0  0  0  0  0  0  0  0
    2.2700    0.9060    0.9500 O   0  0  0  0  0  0  0  0  0  0  0  0
    1.1110   -1.1850    0.9150 N   0  0  0  0  0  0  0  0  0  0  0  0
   -0.1670   -0.0920    0.4480 C   0  0  0  0  0  0  0  0  0  0  0  0
    0.2520    0.9830    0.2240 O   0  0  0  0  0  0  0  0  0  0  0  0
   -1.4440   -0.6870    0.4240 C   0  0  0  0  0  0  0  0  0  0  0  0
   -2.3780   -0.2490   -0.6960 C   0  0  2  0  0  0  0  0  0  0  0  0
   -2.6350    1.2080   -0.7780 C   0  0  0  0  0  0  0  0  0  0  0  0
   -3.2200    1.8500    0.4300 C   0  0  0  0  0  0  0  0  0  0  0  0
   -3.4010    3.2960    0.1160 C   0  0  0  0  0  0  0  0  0  0  0  0
   -3.8970    4.1240    1.1820 N   0  0  0  0  0  0  0  0  0  0  0  0
   -3.1500    3.7840   -0.9750 O   0  0  0  0  0  0  0  0  0  0  0  0
   -3.6580   -0.9170   -0.4020 N   0  0  0  0  0  0  0  0  0  0  0  0
   -3.6380   -2.2570   -0.7030 N   0  0  0  0  0  0  0  0  0  0  0  0
   -2.6100   -2.9690   -1.3810 C   0  0  0  0  0  0  0  0  0  0  0  0
   -2.5270   -4.2260   -1.3900 O   0  0  0  0  0  0  0  0  0  0  0  0
   -1.6450   -2.1840   -2.0790 N   0  0  0  0  0  0  0  0  0  0  0  0
   -1.8540   -0.7470   -1.9970 C   0  0  0  0  0  0  0  0  0  0  0  0
   -1.6170    0.0390   -2.9350 O   0  0  0  0  0  0  0  0  0  0  0  0
  2  1  1  6
  2  3  1  0
  2  4  1  0
  3  4  1  0
  4  5  1  6
  5  6  1  0
  6  7  2  0
  6  8  1  0
  8  9  1  0
  9 10  2  0
  9 11  1  0
 12 11  1  1
 12 13  1  0
 12 18  1  0
 12 23  1  0
 13 14  1  0
 14 15  1  0
 15 16  1  0
 15 17  2  0
 18 19  1  0
 19 20  1  0
 20 21  2  0
 20 22  1  0
 22 23  1  0
 23 24  2  0
M  END
