
     RDKit          3D

 13 13  0  0  0  0  0  0  0  0999 V2000
   -2.5410   -1.7380   -0.4600 N   0  0  0  0  0  0  0  0  0  0  0  0
   -1.3120   -1.6330   -1.1960 C   0  0  0  0  0  0  0  0  0  0  0  0
   -0.6860   -0.2770   -1.0590 C   0  0  0  0  0  0  0  0  0  0  0  0
    0.2150   -0.1080   -0.1310 C   0  0  0  0  0  0  0  0  0  0  0  0
    0.5350   -1.1350    0.6450 O   0  0  0  0  0  0  0  0  0  0  0  0
    1.4270   -1.0070    1.5800 C   0  0  0  0  0  0  0  0  0  0  0  0
    1.7620   -1.9710    2.3460 O   0  0  0  0  0  0  0  0  0  0  0  0
    2.0680    0.1910    1.7980 C   0  0  0  0  0  0  0  0  0  0  0  0
    2.9400    0.2900    2.7230 O   0  0  0  0  0  0  0  0  0  0  0  0
    1.7780    1.2570    1.0400 N   0  0  0  0  0  0  0  0  0  0  0  0
    0.8330    1.0950    0.0600 C   0  0  0  0  0  0  0  0  0  0  0  0
    0.5670    2.1450   -0.6660 C   0  0  0  0  0  0  0  0  0  0  0  0
    1.2390    3.3700   -0.4240 O   0  0  0  0  0  0  0  0  0  0  0  0
  1  2  1  0
  2  3  1  0
  3  4  2  3
  4  5  1  0
  4 11  1  0
  5  6  1  0
  6  7  2  0
  6  8  1  0
  8  9  2  0
  8 10  1  0
 10 11  1  0
 11 12  2  3
 12 13  1  0
M  CHG  1   1   1
M  END
