
     RDKit          3D

 13 14  0  0  0  0  0  0  0  0999 V2000
   -1.6070   -1.0490   -0.7760 C   0  0  0  0  0  0  0  0  0  0  0  0
   -1.1190    0.0120    0.1540 C   0  0  2  0  0  0  0  0  0  0  0  0
   -1.6320    1.3200   -0.2070 N   0  0  0  0  0  0  0  0  0  0  0  0
   -0.5430    2.1300   -0.6340 C   0  0  0  0  0  0  0  0  0  0  0  0
   -0.5270    3.3920   -0.8340 O   0  0  0  0  0  0  0  0  0  0  0  0
    0.5360    1.2420   -0.7950 O   0  0  0  0  0  0  0  0  0  0  0  0
    0.3510    0.2280    0.1500 C   0  0  2  0  0  0  0  0  0  0  0  0
    1.1600   -1.0030   -0.1330 C   0  0  0  0  0  0  0  0  0  0  0  0
    2.5780   -0.7520   -0.1570 N   0  0  0  0  0  0  0  0  0  0  0  0
    0.5800    0.7820    1.5310 C   0  0  0  0  0  0  0  0  0  0  0  0
   -0.2260   -0.0870    2.3220 O   0  0  0  0  0  0  0  0  0  0  0  0
   -1.3910   -0.3150    1.5850 C   0  0  0  0  0  0  0  0  0  0  0  0
   -2.5060   -0.7250    2.0020 O   0  0  0  0  0  0  0  0  0  0  0  0
  2  1  1  6
  2  3  1  0
  2  7  1  0
  2 12  1  0
  3  4  1  0
  4  5  2  0
  4  6  1  0
  6  7  1  0
  7  8  1  6
  7 10  1  0
  8  9  1  0
 10 11  1  0
 11 12  1  0
 12 13  2  0
M  CHG  1   9   1
M  END
