
     RDKit          3D

 13 14  0  0  0  0  0  0  0  0999 V2000
   -2.9580    0.6210   -1.0760 O   0  0  0  0  0  0  0  0  0  0  0  0
   -2.1680    1.0390   -0.1790 C   0  0  0  0  0  0  0  0  0  0  0  0
   -2.4170    2.3200    0.3000 O   0  0  0  0  0  0  0  0  0  0  0  0
   -1.0630    0.2080    0.3100 C   0  0  1  0  0  0  0  0  0  0  0  0
   -1.0710   -1.0560   -0.3790 N   0  0  0  0  0  0  0  0  0  0  0  0
   -0.1140   -1.9960    0.0870 C   0  0  0  0  0  0  0  0  0  0  0  0
    1.1990   -1.4360    0.4960 C   0  0  0  0  0  0  0  0  0  0  0  0
    1.3600   -0.0020    0.1380 C   0  0  0  0  0  0  0  0  0  0  0  0
    0.2710    0.8360    0.0370 C   0  0  0  0  0  0  0  0  0  0  0  0
    0.7120    2.0080   -0.2840 O   0  0  0  0  0  0  0  0  0  0  0  0
    2.0050    1.9990   -0.4010 N   0  0  0  0  0  0  0  0  0  0  0  0
    2.4620    0.7600   -0.1460 C   0  0  0  0  0  0  0  0  0  0  0  0
    3.6660    0.3420   -0.1570 O   0  0  0  0  0  0  0  0  0  0  0  0
  1  2  2  0
  2  3  1  0
  4  2  1  6
  4  5  1  0
  4  9  1  0
  5  6  1  0
  6  7  1  0
  7  8  1  0
  8  9  2  0
  8 12  1  0
  9 10  1  0
 10 11  1  0
 11 12  1  0
 12 13  2  0
M  CHG  1   5   1
M  END
