
     RDKit          3D

 13 14  0  0  0  0  0  0  0  0999 V2000
    4.6560    0.0630   -0.1020 O   0  0  0  0  0  0  0  0  0  0  0  0
    3.4180    0.1680   -0.3010 C   0  0  0  0  0  0  0  0  0  0  0  0
    2.4590   -0.8780   -0.2360 N   0  0  0  0  0  0  0  0  0  0  0  0
    1.1650   -0.2580   -0.2120 C   0  0  2  0  0  0  0  0  0  0  0  0
    0.5800   -0.2180    1.1930 C   0  0  0  0  0  0  0  0  0  0  0  0
   -0.6830    0.4740    1.1580 N   0  0  0  0  0  0  0  0  0  0  0  0
   -1.4370    0.0050    0.0150 C   0  0  2  0  0  0  0  0  0  0  0  0
   -2.8950    0.0230    0.3650 C   0  0  0  0  0  0  0  0  0  0  0  0
   -3.7060   -0.4120   -0.6700 O   0  0  0  0  0  0  0  0  0  0  0  0
   -0.9860   -1.2500   -0.3590 O   0  0  0  0  0  0  0  0  0  0  0  0
    0.2080   -1.0370   -1.0850 C   0  0  0  0  0  0  0  0  0  0  0  0
    1.4020    1.1410   -0.7160 C   0  0  0  0  0  0  0  0  0  0  0  0
    2.8030    1.3670   -0.6220 O   0  0  0  0  0  0  0  0  0  0  0  0
  1  2  2  0
  2  3  1  0
  2 13  1  0
  3  4  1  0
  4  5  1  1
  4 11  1  0
  4 12  1  0
  5  6  1  0
  6  7  1  0
  7  8  1  1
  7 10  1  0
  8  9  1  0
 10 11  1  0
 12 13  1  0
M  CHG  1   6   1
M  END
