
     RDKit          3D

 12 12  0  0  0  0  0  0  0  0999 V2000
    2.5480   -1.7360    0.4860 C   0  0  0  0  0  0  0  0  0  0  0  0
    2.2170   -0.6780    1.2820 O   0  0  0  0  0  0  0  0  0  0  0  0
    2.0490    0.5340    0.7300 C   0  0  0  0  0  0  0  0  0  0  0  0
    0.8770    0.8550   -0.0780 C   0  0  0  0  0  0  0  0  0  0  0  0
    0.9260    2.2040   -0.5900 O   0  0  0  0  0  0  0  0  0  0  0  0
    0.3290    3.2150    0.0970 N   0  0  0  0  0  0  0  0  0  0  0  0
   -0.1750    0.1700   -0.4140 C   0  0  0  0  0  0  0  0  0  0  0  0
   -1.2260    0.8330   -1.2980 C   0  0  0  0  0  0  0  0  0  0  0  0
   -1.8050   -0.1730   -2.0600 O   0  0  0  0  0  0  0  0  0  0  0  0
   -2.6430   -0.9690   -1.2720 C   0  0  0  0  0  0  0  0  0  0  0  0
   -2.0280   -1.1890    0.0960 C   0  0  0  0  0  0  0  0  0  0  0  0
   -0.5450   -1.1340   -0.0290 N   0  0  0  0  0  0  0  0  0  0  0  0
  1  2  1  0
  2  3  1  0
  3  4  1  0
  4  5  1  0
  4  7  2  3
  5  6  1  0
  7  8  1  0
  7 12  1  0
  8  9  1  0
  9 10  1  0
 10 11  1  0
 11 12  1  0
M  CHG  1  12   1
M  END
