
     RDKit          3D

 13 14  0  0  0  0  0  0  0  0999 V2000
    0.2170    2.9340   -1.7560 O   0  0  0  0  0  0  0  0  0  0  0  0
   -0.0390    1.9310   -1.0720 C   0  0  0  0  0  0  0  0  0  0  0  0
   -1.0720    2.0060   -0.0720 N   0  0  0  0  0  0  0  0  0  0  0  0
   -1.2390    0.7330    0.6550 C   0  0  1  0  0  0  0  0  0  0  0  0
   -2.0580    0.8750    1.7500 O   0  0  0  0  0  0  0  0  0  0  0  0
   -1.7610   -0.2400   -0.3380 C   0  0  0  0  0  0  0  0  0  0  0  0
   -1.1520   -1.5350   -0.3030 N   0  0  0  0  0  0  0  0  0  0  0  0
    0.2730   -1.5330   -0.3610 C   0  0  0  0  0  0  0  0  0  0  0  0
    0.8750   -0.1570   -0.1250 C   0  0  2  0  0  0  0  0  0  0  0  0
    2.3370   -0.3470    0.1440 C   0  0  0  0  0  0  0  0  0  0  0  0
    2.9120   -0.8970   -1.0090 O   0  0  0  0  0  0  0  0  0  0  0  0
    0.1970    0.4130    1.0960 C   0  0  0  0  0  0  0  0  0  0  0  0
    0.6220    0.7050   -1.2100 O   0  0  0  0  0  0  0  0  0  0  0  0
  1  2  2  0
  2  3  1  0
  2 13  1  0
  3  4  1  0
  4  5  1  1
  4  6  1  0
  4 12  1  0
  6  7  1  0
  7  8  1  0
  8  9  1  0
  9 10  1  1
  9 12  1  0
  9 13  1  0
 10 11  1  0
M  CHG  1   7   1
M  END
