
     RDKit          3D

 13 13  0  0  0  0  0  0  0  0999 V2000
   -2.5370    2.0990   -0.3340 C   0  0  0  0  0  0  0  0  0  0  0  0
   -1.9700    0.7330   -0.6070 C   0  0  1  0  0  0  0  0  0  0  0  0
   -0.7400    0.5220    0.0730 O   0  0  0  0  0  0  0  0  0  0  0  0
   -0.2230   -0.7630    0.1250 C   0  0  0  0  0  0  0  0  0  0  0  0
    1.0850   -0.9420    0.2140 C   0  0  0  0  0  0  0  0  0  0  0  0
    1.6250   -2.2170    0.2670 O   0  0  0  0  0  0  0  0  0  0  0  0
    2.0240    0.1730    0.2610 C   0  0  0  0  0  0  0  0  0  0  0  0
    3.2800    0.0200    0.3460 N   0  0  0  0  0  0  0  0  0  0  0  0
    4.1340    1.1140    0.3870 N   0  0  0  0  0  0  0  0  0  0  0  0
   -1.1130   -1.9450    0.0820 C   0  0  0  0  0  0  0  0  0  0  0  0
   -2.4360   -1.6330   -0.2020 O   0  0  0  0  0  0  0  0  0  0  0  0
   -2.9330   -0.3380   -0.2560 C   0  0  0  0  0  0  0  0  0  0  0  0
   -4.1360   -0.0620   -0.0230 O   0  0  0  0  0  0  0  0  0  0  0  0
  2  1  1  1
  2  3  1  0
  2 12  1  0
  3  4  1  0
  4  5  2  3
  4 10  1  0
  5  6  1  0
  5  7  1  0
  7  8  2  3
  8  9  1  0
 10 11  1  0
 11 12  1  0
 12 13  2  0
M  CHG  1   8   1
M  END
