
     RDKit          3D

 13 13  0  0  0  0  0  0  0  0999 V2000
    4.9210    0.8540   -0.4700 C   0  0  0  0  0  0  0  0  0  0  0  0
    3.5710    0.5760    0.0340 C   0  0  0  0  0  0  0  0  0  0  0  0
    3.2680    1.0390    1.1900 O   0  0  0  0  0  0  0  0  0  0  0  0
    2.5440   -0.1470   -0.5940 N   0  0  0  0  0  0  0  0  0  0  0  0
    1.2700   -0.3580   -0.0020 N   0  0  0  0  0  0  0  0  0  0  0  0
    0.0960   -0.2530   -0.7700 C   0  0  0  0  0  0  0  0  0  0  0  0
    0.2250    0.0390   -2.0130 O   0  0  0  0  0  0  0  0  0  0  0  0
   -1.2540   -0.4610   -0.2220 C   0  0  0  0  0  0  0  0  0  0  0  0
   -1.4440   -0.7660    1.0380 C   0  0  0  0  0  0  0  0  0  0  0  0
   -3.0610   -1.0300    1.7490 S   0  0  0  0  0  0  0  0  0  0  0  0
   -4.3750   -0.2140    0.8600 C   0  0  0  0  0  0  0  0  0  0  0  0
   -3.9150    0.6360   -0.2920 C   0  0  0  0  0  0  0  0  0  0  0  0
   -2.7000   -0.3030   -1.2580 S   0  0  0  0  0  0  0  0  0  0  0  0
  1  2  1  0
  2  3  2  0
  2  4  1  0
  4  5  1  0
  5  6  1  0
  6  7  2  0
  6  8  1  0
  8  9  2  0
  8 13  1  0
  9 10  1  0
 10 11  1  0
 11 12  1  0
 12 13  1  0
M  END
