
     RDKit          3D

 13 14  0  0  0  0  0  0  0  0999 V2000
    3.4540   -0.4390   -0.1720 O   0  0  0  0  0  0  0  0  0  0  0  0
    2.5180    0.3930   -0.2140 C   0  0  0  0  0  0  0  0  0  0  0  0
    2.8310    1.6920   -0.5930 O   0  0  0  0  0  0  0  0  0  0  0  0
    1.1250    0.0700    0.1120 C   0  0  1  0  0  0  0  0  0  0  0  0
    0.1850    0.3220   -1.0830 C   0  0  0  0  0  0  0  0  0  0  0  0
   -1.1450    0.4130   -0.4560 C   0  0  0  0  0  0  0  0  0  0  0  0
   -1.4390   -0.4920    0.5320 C   0  0  0  0  0  0  0  0  0  0  0  0
   -2.6820   -0.2460    0.9800 O   0  0  0  0  0  0  0  0  0  0  0  0
   -3.1890    0.7550    0.3380 N   0  0  0  0  0  0  0  0  0  0  0  0
   -2.2800    1.1910   -0.5540 C   0  0  0  0  0  0  0  0  0  0  0  0
   -2.4000    2.1560   -1.3730 O   0  0  0  0  0  0  0  0  0  0  0  0
   -0.4380   -1.5050    0.9170 C   0  0  0  0  0  0  0  0  0  0  0  0
    0.8940   -1.2820    0.4900 N   0  0  0  0  0  0  0  0  0  0  0  0
  1  2  2  0
  2  3  1  0
  4  2  1  6
  4  5  1  0
  4 13  1  0
  5  6  1  0
  6  7  2  0
  6 10  1  0
  7  8  1  0
  7 12  1  0
  8  9  1  0
  9 10  1  0
 10 11  2  0
 12 13  1  0
M  CHG  1  13   1
M  END
