
     RDKit          3D

 12 13  0  0  0  0  0  0  0  0999 V2000
   -4.3010    0.0910    0.2250 N   0  0  0  0  0  0  0  0  0  0  0  0
   -2.9260   -0.0920    0.4930 C   0  0  0  0  0  0  0  0  0  0  0  0
   -2.2380   -0.6720    1.5440 C   0  0  0  0  0  0  0  0  0  0  0  0
   -0.9000   -0.6830    1.4920 C   0  0  0  0  0  0  0  0  0  0  0  0
   -0.2630   -0.1480    0.4530 C   0  0  0  0  0  0  0  0  0  0  0  0
    1.1520   -0.0240    0.1430 C   0  0  0  0  0  0  0  0  0  0  0  0
    1.8400    0.4440   -0.7750 N   0  0  0  0  0  0  0  0  0  0  0  0
    3.1070    0.4710   -0.8940 C   0  0  0  0  0  0  0  0  0  0  0  0
    3.8570    1.0310   -1.9870 O   0  0  0  0  0  0  0  0  0  0  0  0
    3.8200   -0.0960    0.1310 C   0  0  0  0  0  0  0  0  0  0  0  0
    2.4550   -0.6600    1.2650 S   0  0  0  0  0  0  0  0  0  0  0  0
   -1.5610    0.4650   -0.6270 S   0  0  0  0  0  0  0  0  0  0  0  0
  1  2  1  0
  2  3  2  0
  2 12  1  0
  3  4  1  0
  4  5  2  0
  5  6  1  0
  5 12  1  0
  6  7  2  0
  6 11  1  0
  7  8  1  0
  8  9  1  0
  8 10  2  0
 10 11  1  0
M  END
