
     RDKit          3D

 13 14  0  0  0  0  0  0  0  0999 V2000
    3.7160    0.9760    0.7240 O   0  0  0  0  0  0  0  0  0  0  0  0
    2.5260    0.6050   -0.1100 S   0  0  2  0  0  0  0  0  0  0  0  0
    2.8040    0.9280   -1.5470 O   0  0  0  0  0  0  0  0  0  0  0  0
    1.0740    1.3190    0.4600 N   0  0  0  0  0  0  0  0  0  0  0  0
   -0.1500    0.6520    0.2260 C   0  0  0  0  0  0  0  0  0  0  0  0
   -1.3240    1.4090    0.3230 C   0  0  0  0  0  0  0  0  0  0  0  0
   -2.5760    0.8610    0.1150 C   0  0  0  0  0  0  0  0  0  0  0  0
   -2.6790   -0.4810   -0.2000 C   0  0  0  0  0  0  0  0  0  0  0  0
   -1.5270   -1.2050   -0.2920 C   0  0  0  0  0  0  0  0  0  0  0  0
   -0.2470   -0.6790   -0.0870 C   0  0  0  0  0  0  0  0  0  0  0  0
    0.8820   -1.5430   -0.2110 N   0  0  0  0  0  0  0  0  0  0  0  0
    2.2300   -1.1430   -0.0290 C   0  0  0  0  0  0  0  0  0  0  0  0
    3.4270   -2.1950    0.2400 S   0  0  0  0  0  0  0  0  0  0  0  0
  1  2  2  0
  2  3  2  0
  2  4  1  1
  2 12  1  0
  4  5  1  0
  5  6  2  0
  5 10  1  0
  6  7  1  0
  7  8  2  0
  8  9  1  0
  9 10  2  0
 10 11  1  0
 11 12  1  0
 12 13  2  0
M  END
