
     RDKit          3D

 13 14  0  0  0  0  0  0  0  0999 V2000
    4.2930    0.3920    0.0580 O   0  0  0  0  0  0  0  0  0  0  0  0
    3.0520    0.1850    0.0670 C   0  0  0  0  0  0  0  0  0  0  0  0
    2.5040   -1.0470    0.0840 N   0  0  0  0  0  0  0  0  0  0  0  0
    1.2130   -1.3300    0.0950 C   0  0  0  0  0  0  0  0  0  0  0  0
    0.9100   -2.5740    0.1100 O   0  0  0  0  0  0  0  0  0  0  0  0
    0.1680   -0.4460    0.0900 C   0  0  0  0  0  0  0  0  0  0  0  0
   -1.1100   -0.9270    0.1030 N   0  0  0  0  0  0  0  0  0  0  0  0
   -2.1850   -0.1230    0.1000 C   0  0  0  0  0  0  0  0  0  0  0  0
   -3.8560   -0.7990    0.1160 S   0  0  0  0  0  0  0  0  0  0  0  0
   -2.0860    1.2510    0.0840 C   0  0  0  0  0  0  0  0  0  0  0  0
   -0.7910    1.7800    0.0710 C   0  0  0  0  0  0  0  0  0  0  0  0
    0.2870    0.9220    0.0740 C   0  0  0  0  0  0  0  0  0  0  0  0
    1.9200    1.4680    0.0590 S   0  0  0  0  0  0  0  0  0  0  0  0
  1  2  2  0
  2  3  1  0
  2 13  1  0
  3  4  1  0
  4  5  2  0
  4  6  1  0
  6  7  2  0
  6 12  1  0
  7  8  1  0
  8  9  1  0
  8 10  2  0
 10 11  1  0
 11 12  2  0
 12 13  1  0
M  END
