
     RDKit          3D

 13 14  0  0  0  0  0  0  0  0999 V2000
    4.5570    0.1290   -0.1800 O   0  0  0  0  0  0  0  0  0  0  0  0
    3.6100    1.1130   -0.0740 C   0  0  0  0  0  0  0  0  0  0  0  0
    2.2870    0.4080   -0.0670 C   0  0  0  0  0  0  0  0  0  0  0  0
    1.8300   -0.6420   -0.1200 N   0  0  0  0  0  0  0  0  0  0  0  0
    0.5640   -0.9930   -0.0920 C   0  0  0  0  0  0  0  0  0  0  0  0
    0.1440   -2.3390   -0.1670 O   0  0  0  0  0  0  0  0  0  0  0  0
   -0.3360    0.0050    0.0130 C   0  0  0  0  0  0  0  0  0  0  0  0
   -1.7830   -0.0040    0.0720 C   0  0  0  0  0  0  0  0  0  0  0  0
   -2.6960   -0.7390    0.0600 N   0  0  0  0  0  0  0  0  0  0  0  0
   -3.9630   -0.5090    0.1280 C   0  0  0  0  0  0  0  0  0  0  0  0
   -4.4020    0.7820    0.2340 C   0  0  0  0  0  0  0  0  0  0  0  0
   -2.7200    1.6220    0.2220 S   0  0  0  0  0  0  0  0  0  0  0  0
    0.7200    1.4610    0.0690 S   0  0  0  0  0  0  0  0  0  0  0  0
  1  2  1  0
  2  3  1  0
  3  4  2  0
  3 13  1  0
  4  5  1  0
  5  6  1  0
  5  7  2  0
  7  8  1  0
  7 13  1  0
  8  9  2  0
  8 12  1  0
  9 10  1  0
 10 11  2  0
 11 12  1  0
M  END
