
     RDKit          3D

 13 14  0  0  0  0  0  0  0  0999 V2000
   -1.1460    2.0470    0.2290 O   0  0  0  0  0  0  0  0  0  0  0  0
   -1.1790    0.7790    0.0510 C   0  0  0  0  0  0  0  0  0  0  0  0
   -2.4010    0.2760   -0.0800 N   0  0  0  0  0  0  0  0  0  0  0  0
   -2.7400   -1.0000   -0.2740 C   0  0  0  0  0  0  0  0  0  0  0  0
   -4.2960   -1.4640   -0.4150 S   0  0  0  0  0  0  0  0  0  0  0  0
   -1.4010   -2.0440   -0.3540 S   0  0  0  0  0  0  0  0  0  0  0  0
    0.0990   -1.2450   -0.1690 C   0  0  0  0  0  0  0  0  0  0  0  0
    1.2890   -1.9000   -0.2010 N   0  0  0  0  0  0  0  0  0  0  0  0
    2.4560   -1.2570   -0.0550 C   0  0  0  0  0  0  0  0  0  0  0  0
    2.4300    0.0920    0.1320 C   0  0  0  0  0  0  0  0  0  0  0  0
    1.2320    0.8190    0.1750 C   0  0  0  0  0  0  0  0  0  0  0  0
    1.3310    2.1510    0.3650 O   0  0  0  0  0  0  0  0  0  0  0  0
    0.0280    0.1190    0.0180 C   0  0  0  0  0  0  0  0  0  0  0  0
  1  2  2  0
  2  3  1  0
  2 13  1  0
  3  4  1  0
  4  5  2  0
  4  6  1  0
  6  7  1  0
  7  8  2  0
  7 13  1  0
  8  9  1  0
  9 10  2  0
 10 11  1  0
 11 12  1  0
 11 13  2  0
M  END
