
     RDKit          3D

 12 13  0  0  0  0  0  0  0  0999 V2000
    4.4350   -0.0730    0.1930 N   0  0  0  0  0  0  0  0  0  0  0  0
    3.1120    0.1900   -0.2030 C   0  0  0  0  0  0  0  0  0  0  0  0
    2.5270    1.0450   -1.0500 C   0  0  0  0  0  0  0  0  0  0  0  0
    1.2150    0.9760   -1.1430 N   0  0  0  0  0  0  0  0  0  0  0  0
    0.4880    0.3000   -0.6150 C   0  0  0  0  0  0  0  0  0  0  0  0
   -0.9710    0.0370   -0.5480 C   0  0  0  0  0  0  0  0  0  0  0  0
   -1.6370   -0.8630    0.1920 C   0  0  0  0  0  0  0  0  0  0  0  0
   -2.9760   -0.9310    0.0940 C   0  0  0  0  0  0  0  0  0  0  0  0
   -3.6030   -0.0660   -0.7680 C   0  0  0  0  0  0  0  0  0  0  0  0
   -4.9430    0.1150   -1.0910 O   0  0  0  0  0  0  0  0  0  0  0  0
   -2.2030    0.8490   -1.4340 S   0  0  0  0  0  0  0  0  0  0  0  0
    1.6510   -0.7290    0.4600 S   0  0  0  0  0  0  0  0  0  0  0  0
  1  2  1  0
  2  3  2  0
  2 12  1  0
  3  4  1  0
  4  5  2  0
  5  6  1  0
  5 12  1  0
  6  7  2  0
  6 11  1  0
  7  8  1  0
  8  9  2  0
  9 10  1  0
  9 11  1  0
M  END
