
     RDKit          3D

 25 25  0  0  0  0  0  0  0  0999 V2000
   -0.5840   -1.4610   -3.5940 C   0  0  0  0  0  0  0  0  0  0  0  0
   -0.6710   -0.2890   -2.8790 O   0  0  0  0  0  0  0  0  0  0  0  0
   -0.2310   -0.5000   -1.5750 C   0  0  1  0  0  0  0  0  0  0  0  0
    0.9940    0.3060   -1.3770 C   0  0  0  0  0  0  0  0  0  0  0  0
    2.0440   -0.4970   -0.5700 C   0  0  1  0  0  0  0  0  0  0  0  0
    2.2600   -1.6830   -1.2670 O   0  0  0  0  0  0  0  0  0  0  0  0
    3.2490    0.3580   -0.5780 C   0  0  0  0  0  0  0  0  0  0  0  0
    4.4390   -0.1200    0.0970 C   0  0  0  0  0  0  0  0  0  0  0  0
    4.4650   -1.2410    0.6460 O   0  0  0  0  0  0  0  0  0  0  0  0
    5.6090    0.6790    0.1500 N   0  0  0  0  0  0  0  0  0  0  0  0
    6.8270    0.2440    0.8140 C   0  0  0  0  0  0  0  0  0  0  0  0
    7.7810    1.2270    0.6960 O   0  0  0  0  0  0  0  0  0  0  0  0
    1.4890   -0.8540    0.7820 C   0  0  0  0  0  0  0  0  0  0  0  0
    0.9820    0.2690    1.5010 N   0  0  0  0  0  0  0  0  0  0  0  0
    0.0600    0.2550    2.5620 C   0  0  0  0  0  0  0  0  0  0  0  0
    0.2770    1.1310    3.4790 O   0  0  0  0  0  0  0  0  0  0  0  0
   -1.0050   -0.5430    2.7390 O   0  0  0  0  0  0  0  0  0  0  0  0
   -2.0100   -1.0160    1.9390 C   0  0  0  0  0  0  0  0  0  0  0  0
   -3.0060    0.0140    1.4790 C   0  0  2  0  0  0  0  0  0  0  0  0
   -4.1330   -0.6340    0.7390 C   0  0  0  0  0  0  0  0  0  0  0  0
   -5.1600    0.3330    0.2570 C   0  0  0  0  0  0  0  0  0  0  0  0
   -5.7810    1.0820    1.3320 N   0  0  0  0  0  0  0  0  0  0  0  0
   -2.4110    1.1830    0.7810 C   0  0  0  0  0  0  0  0  0  0  0  0
   -1.7890    0.9150   -0.5440 C   0  0  0  0  0  0  0  0  0  0  0  0
   -1.2770   -0.3030   -0.7500 O   0  0  0  0  0  0  0  0  0  0  0  0
  1  2  1  0
  3  2  1  6
  3  4  1  0
  3 25  1  0
  4  5  1  0
  5  6  1  6
  5  7  1  0
  5 13  1  0
  7  8  1  0
  8  9  2  0
  8 10  1  0
 10 11  1  0
 11 12  1  0
 13 14  1  0
 14 15  1  0
 15 16  2  0
 15 17  1  0
 17 18  1  0
 18 19  1  0
 19 20  1  6
 19 23  1  0
 20 21  1  0
 21 22  1  0
 23 24  1  0
 24 25  1  0
M  CHG  1  22   1
M  END
