
     RDKit          3D

 24 24  0  0  0  0  0  0  0  0999 V2000
    6.8080    0.2770    0.4080 C   0  0  0  0  0  0  0  0  0  0  0  0
    6.4580   -1.1800    0.3580 C   0  0  0  0  0  0  0  0  0  0  0  0
    5.1010   -1.4750    0.2950 O   0  0  0  0  0  0  0  0  0  0  0  0
    4.2630   -1.0490   -0.7120 C   0  0  0  0  0  0  0  0  0  0  0  0
    4.7550   -0.3410   -1.6250 O   0  0  0  0  0  0  0  0  0  0  0  0
    2.8420   -1.4390   -0.6740 C   0  0  0  0  0  0  0  0  0  0  0  0
    2.0270   -0.2370   -0.2690 C   0  0  1  0  0  0  0  0  0  0  0  0
    0.6060   -0.5500   -0.2260 N   0  0  0  0  0  0  0  0  0  0  0  0
   -0.2630    0.1660   -1.0560 C   0  0  0  0  0  0  0  0  0  0  0  0
    0.2040    1.0560   -1.8120 O   0  0  0  0  0  0  0  0  0  0  0  0
   -1.7320   -0.0490   -1.1140 C   0  0  1  0  0  0  0  0  0  0  0  0
   -2.1650   -1.0380   -0.2480 O   0  0  0  0  0  0  0  0  0  0  0  0
   -3.4070   -0.6750    0.2250 C   0  0  2  0  0  0  0  0  0  0  0  0
   -4.4260   -1.6880   -0.2420 C   0  0  0  0  0  0  0  0  0  0  0  0
   -5.7620   -1.4200    0.1870 N   0  0  0  0  0  0  0  0  0  0  0  0
   -3.7060    0.7300   -0.1320 C   0  0  1  0  0  0  0  0  0  0  0  0
   -4.7490    0.9240   -1.1920 C   0  0  0  0  0  0  0  0  0  0  0  0
   -4.0630    1.5420    1.0980 C   0  0  0  0  0  0  0  0  0  0  0  0
   -2.3910    1.2330   -0.6880 C   0  0  1  0  0  0  0  0  0  0  0  0
   -1.5630    1.8520    0.3240 N   0  0  0  0  0  0  0  0  0  0  0  0
    2.4500    0.1600    1.0990 C   0  0  0  0  0  0  0  0  0  0  0  0
    1.5670    0.1520    2.0230 O   0  0  0  0  0  0  0  0  0  0  0  0
    3.7510    0.5240    1.3580 O   0  0  0  0  0  0  0  0  0  0  0  0
    4.0940    0.8950    2.6900 C   0  0  0  0  0  0  0  0  0  0  0  0
  1  2  1  0
  2  3  1  0
  3  4  1  0
  4  5  2  0
  4  6  1  0
  7  6  1  1
  7  8  1  0
  7 21  1  0
  8  9  1  0
  9 10  2  0
 11  9  1  1
 11 12  1  0
 11 19  1  0
 12 13  1  0
 13 14  1  6
 13 16  1  0
 14 15  1  0
 16 17  1  6
 16 18  1  0
 16 19  1  0
 19 20  1  1
 21 22  2  0
 21 23  1  0
 23 24  1  0
M  CHG  1  15   1
M  END
