
     RDKit          3D

 25 26  0  0  0  0  0  0  0  0999 V2000
   -2.1530   -1.5400   -1.2920 N   0  0  0  0  0  0  0  0  0  0  0  0
   -1.5650   -0.6350   -2.2070 C   0  0  2  0  0  0  0  0  0  0  0  0
   -0.0700   -0.8250   -2.2850 C   0  0  0  0  0  0  0  0  0  0  0  0
    0.5370   -0.6230   -1.0260 N   0  0  0  0  0  0  0  0  0  0  0  0
    2.0240   -0.6790   -0.9830 C   0  0  0  0  0  0  0  0  0  0  0  0
    2.6020   -0.9050   -2.0080 O   0  0  0  0  0  0  0  0  0  0  0  0
    2.3930   -0.4190    0.3920 N   0  0  0  0  0  0  0  0  0  0  0  0
    4.0990   -0.4270    0.1240 C   0  0  0  0  0  0  0  0  0  0  0  0
    4.3890   -0.6060   -1.0020 O   0  0  0  0  0  0  0  0  0  0  0  0
    4.8540   -0.2150    1.3180 C   0  0  0  0  0  0  0  0  0  0  0  0
    4.3070   -0.0290    2.5610 O   0  0  0  0  0  0  0  0  0  0  0  0
    6.1590   -0.1990    1.1940 C   0  0  0  0  0  0  0  0  0  0  0  0
    7.3260   -0.0330    2.0490 C   0  0  0  0  0  0  0  0  0  0  0  0
    8.0860   -0.8390    1.1610 O   0  0  0  0  0  0  0  0  0  0  0  0
    7.1990   -0.3520    0.1620 C   0  0  0  0  0  0  0  0  0  0  0  0
   -1.9130    0.8030   -1.9300 C   0  0  0  0  0  0  0  0  0  0  0  0
   -3.3490    1.1490   -2.0160 C   0  0  1  0  0  0  0  0  0  0  0  0
   -3.7660    0.8540   -3.3320 O   0  0  0  0  0  0  0  0  0  0  0  0
   -4.2490    0.5450   -1.0430 C   0  0  0  0  0  0  0  0  0  0  0  0
   -4.2230    0.7120    0.2590 C   0  0  0  0  0  0  0  0  0  0  0  0
   -5.2500   -0.0080    1.0850 C   0  0  0  0  0  0  0  0  0  0  0  0
   -5.5580    0.8460    2.1470 O   0  0  0  0  0  0  0  0  0  0  0  0
   -4.4870    0.9220    3.0370 C   0  0  0  0  0  0  0  0  0  0  0  0
   -3.1930    1.2360    2.3570 C   0  0  0  0  0  0  0  0  0  0  0  0
   -3.3310    1.4990    0.9600 O   0  0  0  0  0  0  0  0  0  0  0  0
  2  1  1  1
  2  3  1  0
  2 16  1  0
  3  4  1  0
  4  5  1  0
  5  6  2  0
  5  7  1  0
  7  8  1  0
  8  9  2  0
  8 10  1  0
 10 11  1  0
 10 12  2  3
 12 13  1  0
 12 15  1  0
 13 14  1  0
 14 15  1  0
 16 17  1  0
 17 18  1  6
 17 19  1  0
 19 20  2  3
 20 21  1  0
 20 25  1  0
 21 22  1  0
 22 23  1  0
 23 24  1  0
 24 25  1  0
M  CHG  1   1   1
M  END
