
     RDKit          3D

 25 25  0  0  0  0  0  0  0  0999 V2000
    5.2810    1.8310    0.3630 C   0  0  0  0  0  0  0  0  0  0  0  0
    5.8100    0.5590    0.1440 O   0  0  0  0  0  0  0  0  0  0  0  0
    6.3490    0.4210   -1.1250 C   0  0  1  0  0  0  0  0  0  0  0  0
    7.7930   -0.0540   -1.0770 C   0  0  0  0  0  0  0  0  0  0  0  0
    5.5700   -0.6290   -1.8370 C   0  0  0  0  0  0  0  0  0  0  0  0
    5.8570   -0.9590   -3.0340 O   0  0  0  0  0  0  0  0  0  0  0  0
    4.5080   -1.3010   -1.2550 O   0  0  0  0  0  0  0  0  0  0  0  0
    3.7580   -2.3030   -1.9200 C   0  0  0  0  0  0  0  0  0  0  0  0
    2.7010   -2.7730   -0.9370 C   0  0  0  0  0  0  0  0  0  0  0  0
    1.8840   -1.6750   -0.5810 O   0  0  0  0  0  0  0  0  0  0  0  0
    0.8330   -1.8090    0.3040 C   0  0  0  0  0  0  0  0  0  0  0  0
    0.5530   -2.9130    0.8360 O   0  0  0  0  0  0  0  0  0  0  0  0
    0.0540   -0.6470    0.6120 N   0  0  0  0  0  0  0  0  0  0  0  0
   -1.0420   -0.6880    1.5080 C   0  0  0  0  0  0  0  0  0  0  0  0
   -1.3520   -1.7670    2.0570 O   0  0  0  0  0  0  0  0  0  0  0  0
   -1.8540    0.5240    1.8280 C   0  0  2  0  0  0  0  0  0  0  0  0
   -2.8440    0.2070    2.7200 O   0  0  0  0  0  0  0  0  0  0  0  0
   -3.9980    0.9720    2.5580 C   0  0  0  0  0  0  0  0  0  0  0  0
   -4.5610    0.6060    1.2440 C   0  0  0  0  0  0  0  0  0  0  0  0
   -5.8530    0.5860    1.0520 C   0  0  0  0  0  0  0  0  0  0  0  0
   -6.5370    0.2330   -0.2270 C   0  0  0  0  0  0  0  0  0  0  0  0
   -7.3490    1.3070   -0.7390 N   0  0  0  0  0  0  0  0  0  0  0  0
   -3.6240    0.2670    0.1640 C   0  0  0  0  0  0  0  0  0  0  0  0
   -2.3410    1.0420    0.4930 C   0  0  1  0  0  0  0  0  0  0  0  0
   -2.5970    2.4620    0.6400 N   0  0  0  0  0  0  0  0  0  0  0  0
  1  2  1  0
  2  3  1  0
  3  4  1  1
  3  5  1  0
  5  6  2  0
  5  7  1  0
  7  8  1  0
  8  9  1  0
  9 10  1  0
 10 11  1  0
 11 12  2  0
 11 13  1  0
 13 14  1  0
 14 15  2  0
 16 14  1  6
 16 17  1  0
 16 24  1  0
 17 18  1  0
 18 19  1  0
 19 20  2  3
 19 23  1  0
 20 21  1  0
 21 22  1  0
 23 24  1  0
 24 25  1  1
M  CHG  1  22   1
M  END
