
     RDKit          3D

 25 26  0  0  0  0  0  0  0  0999 V2000
   -4.2900   -1.6420    0.6410 C   0  0  0  0  0  0  0  0  0  0  0  0
   -4.0630   -0.2340    0.1290 C   0  0  1  0  0  0  0  0  0  0  0  0
   -2.6730    0.1520    0.2070 N   0  0  0  0  0  0  0  0  0  0  0  0
   -1.6320   -0.5310   -0.4610 C   0  0  0  0  0  0  0  0  0  0  0  0
   -1.9280   -1.5290   -1.1620 O   0  0  0  0  0  0  0  0  0  0  0  0
   -0.2050   -0.1440   -0.3860 C   0  0  0  0  0  0  0  0  0  0  0  0
    0.6870   -1.0280   -1.1820 C   0  0  0  0  0  0  0  0  0  0  0  0
    2.0640   -0.6050   -1.0690 N   0  0  0  0  0  0  0  0  0  0  0  0
    2.5690    0.6610   -1.4670 C   0  0  0  0  0  0  0  0  0  0  0  0
    1.7690    1.4900   -1.9620 O   0  0  0  0  0  0  0  0  0  0  0  0
    4.0240    1.0100   -1.3050 C   0  0  0  0  0  0  0  0  0  0  0  0
    4.7230   -0.0480   -0.7400 O   0  0  0  0  0  0  0  0  0  0  0  0
    6.0500    0.1960   -0.5620 C   0  0  1  0  0  0  0  0  0  0  0  0
    6.5530    0.0690    0.8310 C   0  0  0  0  0  0  0  0  0  0  0  0
    7.9570   -0.4630    0.6420 C   0  0  0  0  0  0  0  0  0  0  0  0
    8.1950   -0.4730   -0.7270 O   0  0  0  0  0  0  0  0  0  0  0  0
    6.9540   -0.7390   -1.3300 C   0  0  0  0  0  0  0  0  0  0  0  0
   -4.6010   -0.1620   -1.2420 C   0  0  0  0  0  0  0  0  0  0  0  0
   -3.8770   -0.0880   -2.2590 O   0  0  0  0  0  0  0  0  0  0  0  0
   -5.9730   -0.1760   -1.4060 O   0  0  0  0  0  0  0  0  0  0  0  0
   -6.8410    0.1930   -0.3610 C   0  0  0  0  0  0  0  0  0  0  0  0
   -6.1400    0.8730    0.7480 C   0  0  0  0  0  0  0  0  0  0  0  0
   -6.8890    1.7580    1.5790 N   0  0  0  0  0  0  0  0  0  0  0  0
   -4.8690    0.6810    0.9750 C   0  0  0  0  0  0  0  0  0  0  0  0
   -4.2500    1.3450    2.0350 O   0  0  0  0  0  0  0  0  0  0  0  0
  2  1  1  1
  2  3  1  0
  2 18  1  0
  2 24  1  0
  3  4  1  0
  4  5  2  0
  4  6  1  0
  6  7  1  0
  7  8  1  0
  8  9  1  0
  9 10  2  0
  9 11  1  0
 11 12  1  0
 13 12  1  1
 13 14  1  0
 13 17  1  0
 14 15  1  0
 15 16  1  0
 16 17  1  0
 18 19  2  0
 18 20  1  0
 20 21  1  0
 21 22  1  0
 22 23  1  0
 22 24  2  0
 24 25  1  0
M  CHG  1  23   1
M  END
