
     RDKit          3D

 24 25  0  0  0  0  0  0  0  0999 V2000
    7.4000   -2.1670    0.4310 C   0  0  0  0  0  0  0  0  0  0  0  0
    6.6430   -1.0450    0.0030 O   0  0  0  0  0  0  0  0  0  0  0  0
    5.2630   -1.0510    0.0780 C   0  0  0  0  0  0  0  0  0  0  0  0
    4.6780   -2.0820    0.5380 O   0  0  0  0  0  0  0  0  0  0  0  0
    4.5240    0.1160   -0.3700 C   0  0  0  0  0  0  0  0  0  0  0  0
    3.2010    0.2040   -0.3380 C   0  0  0  0  0  0  0  0  0  0  0  0
    2.3340   -0.8230    0.1350 N   0  0  0  0  0  0  0  0  0  0  0  0
    2.8030    1.5140   -0.8600 C   0  0  2  0  0  0  0  0  0  0  0  0
    2.1170    1.4230   -2.0340 O   0  0  0  0  0  0  0  0  0  0  0  0
    0.9830    2.1560   -2.1440 C   0  0  0  0  0  0  0  0  0  0  0  0
   -0.0620    1.7710   -1.1430 C   0  0  0  0  0  0  0  0  0  0  0  0
   -0.4030    0.4440   -1.3230 O   0  0  0  0  0  0  0  0  0  0  0  0
   -1.4300    0.0330   -0.4670 C   0  0  1  0  0  0  0  0  0  0  0  0
   -2.6640   -0.3240   -1.2240 C   0  0  0  0  0  0  0  0  0  0  0  0
   -3.6410   -1.0100   -0.3040 C   0  0  0  0  0  0  0  0  0  0  0  0
   -3.8130   -0.1200    0.9040 C   0  0  1  0  0  0  0  0  0  0  0  0
   -5.1970   -0.2400    1.4990 C   0  0  0  0  0  0  0  0  0  0  0  0
   -6.1550    0.1400    0.5100 N   0  0  0  0  0  0  0  0  0  0  0  0
   -2.7430   -0.5580    1.9070 C   0  0  0  0  0  0  0  0  0  0  0  0
   -1.8910   -1.4940    1.3490 O   0  0  0  0  0  0  0  0  0  0  0  0
   -0.9400   -0.9670    0.5070 C   0  0  0  0  0  0  0  0  0  0  0  0
    4.1230    2.1720   -1.2100 C   0  0  0  0  0  0  0  0  0  0  0  0
    4.2210    3.3150   -1.6970 O   0  0  0  0  0  0  0  0  0  0  0  0
    5.0900    1.2650   -0.8810 O   0  0  0  0  0  0  0  0  0  0  0  0
  1  2  1  0
  2  3  1  0
  3  4  2  0
  3  5  1  0
  5  6  2  0
  5 24  1  0
  6  7  1  0
  6  8  1  0
  8  9  1  6
  8 22  1  0
  9 10  1  0
 10 11  1  0
 11 12  1  0
 13 12  1  6
 13 14  1  0
 13 21  1  0
 14 15  1  0
 15 16  1  0
 16 17  1  1
 16 19  1  0
 17 18  1  0
 19 20  1  0
 20 21  1  0
 22 23  2  0
 22 24  1  0
M  CHG  1  18   1
M  END
