
     RDKit          3D

 25 26  0  0  0  0  0  0  0  0999 V2000
    5.1590    1.4600   -1.4340 C   0  0  0  0  0  0  0  0  0  0  0  0
    4.0240    1.2710   -0.8170 C   0  0  0  0  0  0  0  0  0  0  0  0
    3.4230    2.2990   -0.1240 O   0  0  0  0  0  0  0  0  0  0  0  0
    3.3700   -0.0510   -0.8550 C   0  0  2  0  0  0  0  0  0  0  0  0
    4.0810   -0.9840   -1.5820 O   0  0  0  0  0  0  0  0  0  0  0  0
    1.9900    0.1340   -1.4450 C   0  0  0  0  0  0  0  0  0  0  0  0
    1.0990    0.2590   -0.3170 N   0  0  0  0  0  0  0  0  0  0  0  0
   -0.1690    0.8830   -0.3500 C   0  0  0  0  0  0  0  0  0  0  0  0
   -0.5550    1.3700   -1.4460 O   0  0  0  0  0  0  0  0  0  0  0  0
   -1.0020    0.9530    0.8830 C   0  0  0  0  0  0  0  0  0  0  0  0
   -2.2060    1.6040    0.7050 O   0  0  0  0  0  0  0  0  0  0  0  0
   -3.1550    1.1590   -0.2290 C   0  0  0  0  0  0  0  0  0  0  0  0
   -3.5270    2.0860   -1.2670 C   0  0  0  0  0  0  0  0  0  0  0  0
   -2.9320    3.4030   -1.2980 N   0  0  0  0  0  0  0  0  0  0  0  0
   -4.3390    1.8500   -2.1670 O   0  0  0  0  0  0  0  0  0  0  0  0
   -3.6480   -0.0400   -0.1210 C   0  0  0  0  0  0  0  0  0  0  0  0
   -4.6400   -0.7220   -0.9690 C   0  0  0  0  0  0  0  0  0  0  0  0
   -5.8170   -0.9980   -0.2580 O   0  0  0  0  0  0  0  0  0  0  0  0
   -5.5370   -1.2370    1.0890 C   0  0  0  0  0  0  0  0  0  0  0  0
   -4.1750   -1.9000    1.2640 C   0  0  0  0  0  0  0  0  0  0  0  0
   -3.2080   -0.8770    0.9640 O   0  0  0  0  0  0  0  0  0  0  0  0
    1.6810   -0.3440    0.8620 C   0  0  0  0  0  0  0  0  0  0  0  0
    3.1340   -0.5000    0.5550 C   0  0  1  0  0  0  0  0  0  0  0  0
    3.5120   -1.9600    0.7520 C   0  0  0  0  0  0  0  0  0  0  0  0
    3.2480   -2.2900    2.1320 N   0  0  0  0  0  0  0  0  0  0  0  0
  1  2  2  0
  2  3  1  0
  2  4  1  0
  4  5  1  6
  4  6  1  0
  4 23  1  0
  6  7  1  0
  7  8  1  0
  7 22  1  0
  8  9  2  0
  8 10  1  0
 10 11  1  0
 11 12  1  0
 12 13  1  0
 12 16  2  3
 13 14  1  0
 13 15  2  0
 16 17  1  0
 16 21  1  0
 17 18  1  0
 18 19  1  0
 19 20  1  0
 20 21  1  0
 22 23  1  0
 23 24  1  6
 24 25  1  0
M  CHG  1  25   1
M  END
