
     RDKit          3D

 19 21  0  0  0  0  0  0  0  0999 V2000
   -1.9140   -3.0550    0.1870 C   0  0  0  0  0  0  0  0  0  0  0  0
   -1.3920   -1.7300    0.2130 O   0  0  0  0  0  0  0  0  0  0  0  0
   -2.2370   -0.6310    0.0200 C   0  0  0  0  0  0  0  0  0  0  0  0
   -3.5980   -0.8050   -0.2020 C   0  0  0  0  0  0  0  0  0  0  0  0
   -4.3810    0.3140   -0.3860 C   0  0  0  0  0  0  0  0  0  0  0  0
   -3.8330    1.5930   -0.3530 C   0  0  0  0  0  0  0  0  0  0  0  0
   -4.6710    2.6830   -0.5450 O   0  0  0  0  0  0  0  0  0  0  0  0
   -2.4800    1.7110   -0.1300 C   0  0  0  0  0  0  0  0  0  0  0  0
   -1.6590    0.6230    0.0580 C   0  0  0  0  0  0  0  0  0  0  0  0
   -0.2080    0.7640    0.2960 C   0  0  0  0  0  0  0  0  0  0  0  0
    0.2680    1.7000    1.1820 C   0  0  0  0  0  0  0  0  0  0  0  0
    1.6390    1.8020    1.3780 C   0  0  0  0  0  0  0  0  0  0  0  0
    2.5250    0.9980    0.7160 C   0  0  0  0  0  0  0  0  0  0  0  0
    2.0460    0.0650   -0.1670 C   0  0  0  0  0  0  0  0  0  0  0  0
    0.6880   -0.0490   -0.3730 C   0  0  0  0  0  0  0  0  0  0  0  0
    2.9280   -0.8040   -0.8900 N   0  0  0  0  0  0  0  0  0  0  0  0
    4.3300   -0.5590   -1.0170 C   0  0  0  0  0  0  0  0  0  0  0  0
    5.0260   -0.3600    0.3320 C   0  0  0  0  0  0  0  0  0  0  0  0
    4.2660    1.1710    1.0070 S   0  0  0  0  0  0  0  0  0  0  0  0
  1  2  1  0
  2  3  1  0
  3  4  2  0
  3  9  1  0
  4  5  1  0
  5  6  2  0
  6  7  1  0
  6  8  1  0
  8  9  2  0
  9 10  1  0
 10 11  2  0
 10 15  1  0
 11 12  1  0
 12 13  2  0
 13 14  1  0
 13 19  1  0
 14 15  2  0
 14 16  1  0
 16 17  1  0
 17 18  1  0
 18 19  1  0
M  END
