
     RDKit          3D

 26 29  0  0  0  0  0  0  0  0999 V2000
    7.2520   -0.1120    0.5220 C   0  0  0  0  0  0  0  0  0  0  0  0
    6.2100   -0.6420    0.4160 C   0  0  0  0  0  0  0  0  0  0  0  0
    4.8390   -1.3100    0.2720 C   0  0  0  0  0  0  0  0  0  0  0  0
    4.6390   -2.5040    1.0160 C   0  0  0  0  0  0  0  0  0  0  0  0
    3.2680   -2.8800    1.0050 C   0  0  0  0  0  0  0  0  0  0  0  0
    2.2640   -2.2260    0.3860 C   0  0  0  0  0  0  0  0  0  0  0  0
    2.5340   -1.0520   -0.3340 C   0  0  0  0  0  0  0  0  0  0  0  0
    1.6510   -0.1920   -0.9600 N   0  0  0  0  0  0  0  0  0  0  0  0
    0.2860    0.1560   -0.6880 C   0  0  0  0  0  0  0  0  0  0  0  0
   -0.5730   -0.3550    0.1230 N   0  0  0  0  0  0  0  0  0  0  0  0
   -1.8830    0.0240    0.2870 C   0  0  0  0  0  0  0  0  0  0  0  0
   -2.6910   -0.5830    1.1410 C   0  0  0  0  0  0  0  0  0  0  0  0
   -4.0090   -0.2900    1.3700 C   0  0  0  0  0  0  0  0  0  0  0  0
   -4.9290   -0.9390    2.2230 C   0  0  0  0  0  0  0  0  0  0  0  0
   -4.6550   -1.8800    3.0560 O   0  0  0  0  0  0  0  0  0  0  0  0
   -6.3020   -0.5990    2.2370 O   0  0  0  0  0  0  0  0  0  0  0  0
   -4.4950    0.8020    0.5590 C   0  0  0  0  0  0  0  0  0  0  0  0
   -3.6880    1.4590   -0.3440 C   0  0  0  0  0  0  0  0  0  0  0  0
   -2.3860    1.0970   -0.5060 C   0  0  0  0  0  0  0  0  0  0  0  0
   -1.5250    1.6430   -1.3520 C   0  0  0  0  0  0  0  0  0  0  0  0
   -2.0000    2.7240   -2.1250 C   0  0  0  0  0  0  0  0  0  0  0  0
   -1.1380    3.3690   -3.0140 N   0  0  0  0  0  0  0  0  0  0  0  0
    0.1030    2.8800   -3.0470 C   0  0  0  0  0  0  0  0  0  0  0  0
    0.6230    1.8860   -2.3770 N   0  0  0  0  0  0  0  0  0  0  0  0
   -0.1900    1.2570   -1.5260 C   0  0  0  0  0  0  0  0  0  0  0  0
    3.8980   -0.6750   -0.3280 C   0  0  0  0  0  0  0  0  0  0  0  0
  1  2  3  0
  2  3  1  0
  3  4  2  0
  3 26  1  0
  4  5  1  0
  5  6  2  0
  6  7  1  0
  7  8  1  0
  7 26  2  0
  8  9  1  0
  9 10  2  0
  9 25  1  0
 10 11  1  0
 11 12  2  0
 11 19  1  0
 12 13  1  0
 13 14  1  0
 13 17  2  0
 14 15  2  0
 14 16  1  0
 17 18  1  0
 18 19  2  0
 19 20  1  0
 20 21  2  0
 20 25  1  0
 21 22  1  0
 22 23  2  0
 23 24  1  0
 24 25  2  0
M  END
