
     RDKit          3D

 19 20  0  0  0  0  0  0  0  0999 V2000
   -4.0180   -0.3260    0.9930 C   0  0  0  0  0  0  0  0  0  0  0  0
   -2.7360   -0.2470    0.7320 C   0  0  0  0  0  0  0  0  0  0  0  0
   -1.8940   -0.6380    1.7880 C   0  0  0  0  0  0  0  0  0  0  0  0
   -2.3490   -1.0540    3.0000 O   0  0  0  0  0  0  0  0  0  0  0  0
   -0.5120   -0.5970    1.5830 C   0  0  0  0  0  0  0  0  0  0  0  0
    0.0050   -0.1900    0.3890 C   0  0  0  0  0  0  0  0  0  0  0  0
    1.4000   -0.0640    0.1840 N   0  0  0  0  0  0  0  0  0  0  0  0
    2.4080   -0.5750    1.0250 C   0  0  0  0  0  0  0  0  0  0  0  0
    2.1340   -1.2010    2.0450 O   0  0  0  0  0  0  0  0  0  0  0  0
    3.8300   -0.3810    0.7190 C   0  0  0  0  0  0  0  0  0  0  0  0
    4.4770    0.2500   -0.3040 C   0  0  0  0  0  0  0  0  0  0  0  0
    5.8120    0.2710   -0.3300 C   0  0  0  0  0  0  0  0  0  0  0  0
    6.5230   -0.3270    0.6510 C   0  0  0  0  0  0  0  0  0  0  0  0
    5.1750   -0.9950    1.7300 S   0  0  0  0  0  0  0  0  0  0  0  0
   -0.8390    0.1830   -0.6270 C   0  0  0  0  0  0  0  0  0  0  0  0
   -0.2550    0.5410   -1.9430 C   0  0  0  0  0  0  0  0  0  0  0  0
   -2.2620    0.1680   -0.4790 C   0  0  0  0  0  0  0  0  0  0  0  0
   -2.9570    0.5900   -1.4910 C   0  0  0  0  0  0  0  0  0  0  0  0
   -4.3810    0.7640   -1.7060 C   0  0  0  0  0  0  0  0  0  0  0  0
  1  2  2  0
  2  3  1  0
  2 17  1  0
  3  4  1  0
  3  5  2  0
  5  6  1  0
  6  7  1  0
  6 15  2  0
  7  8  1  0
  8  9  2  0
  8 10  1  0
 10 11  2  0
 10 14  1  0
 11 12  1  0
 12 13  2  0
 13 14  1  0
 15 16  1  0
 15 17  1  0
 17 18  2  3
 18 19  1  0
M  END
