
     RDKit          3D

 19 20  0  0  0  0  0  0  0  0999 V2000
   -2.8170   -0.2360   -2.2610 C   0  0  0  0  0  0  0  0  0  0  0  0
   -2.7780   -0.9960   -0.9690 C   0  0  0  0  0  0  0  0  0  0  0  0
   -2.8930   -0.0930    0.2360 C   0  0  2  0  0  0  0  0  0  0  0  0
   -2.8360   -1.0150    1.4610 C   0  0  0  0  0  0  0  0  0  0  0  0
   -4.2430    0.5720    0.2720 C   0  0  0  0  0  0  0  0  0  0  0  0
   -1.8040    0.9110    0.2880 C   0  0  0  0  0  0  0  0  0  0  0  0
   -2.0780    2.1380    0.2670 O   0  0  0  0  0  0  0  0  0  0  0  0
   -0.4320    0.4780    0.3610 N   0  0  0  0  0  0  0  0  0  0  0  0
    0.6270    1.3950    0.4130 C   0  0  0  0  0  0  0  0  0  0  0  0
    0.3290    2.6120    0.4160 O   0  0  0  0  0  0  0  0  0  0  0  0
    2.0650    1.0060    0.4670 C   0  0  0  0  0  0  0  0  0  0  0  0
    2.9670    1.9720    0.8570 C   0  0  0  0  0  0  0  0  0  0  0  0
    2.7820    3.3920    1.2560 C   0  0  0  0  0  0  0  0  0  0  0  0
    4.5590    1.1110    0.7890 S   0  0  0  0  0  0  0  0  0  0  0  0
    3.8980   -0.4270    0.2580 C   0  0  0  0  0  0  0  0  0  0  0  0
    2.5910   -0.2190    0.1650 C   0  0  0  0  0  0  0  0  0  0  0  0
    2.0030   -1.5420   -0.3320 C   0  0  0  0  0  0  0  0  0  0  0  0
    3.1800   -2.1510   -1.0510 C   0  0  0  0  0  0  0  0  0  0  0  0
    4.3040   -1.8370   -0.0990 C   0  0  0  0  0  0  0  0  0  0  0  0
  1  2  1  0
  2  3  1  0
  3  4  1  1
  3  5  1  0
  3  6  1  0
  6  7  2  0
  6  8  1  0
  8  9  1  0
  9 10  2  0
  9 11  1  0
 11 12  2  0
 11 16  1  0
 12 13  1  0
 12 14  1  0
 14 15  1  0
 15 16  2  0
 15 19  1  0
 16 17  1  0
 17 18  1  0
 18 19  1  0
M  END
