
     RDKit          3D

 19 20  0  0  0  0  0  0  0  0999 V2000
    5.6490    1.1800   -0.2820 C   0  0  0  0  0  0  0  0  0  0  0  0
    4.8120    0.2240    0.5730 C   0  0  0  0  0  0  0  0  0  0  0  0
    4.7390   -1.0910   -0.0240 C   0  0  0  0  0  0  0  0  0  0  0  0
    3.7440   -1.7650   -0.4210 C   0  0  0  0  0  0  0  0  0  0  0  0
    2.3270   -1.6680   -0.5120 C   0  0  0  0  0  0  0  0  0  0  0  0
    1.6320   -2.6510   -1.0130 O   0  0  0  0  0  0  0  0  0  0  0  0
    1.5390   -0.5840   -0.1090 N   0  0  0  0  0  0  0  0  0  0  0  0
    0.0970   -0.6000   -0.2520 C   0  0  0  0  0  0  0  0  0  0  0  0
   -0.7700   -1.9490   -0.9310 S   0  0  0  0  0  0  0  0  0  0  0  0
   -2.3940   -1.2490   -0.7730 C   0  0  0  0  0  0  0  0  0  0  0  0
   -2.1620   -0.0640   -0.2250 C   0  0  0  0  0  0  0  0  0  0  0  0
   -0.8810    0.3240    0.0650 C   0  0  0  0  0  0  0  0  0  0  0  0
   -0.4530    1.6140    0.6670 C   0  0  0  0  0  0  0  0  0  0  0  0
   -1.3750    2.7110    1.0180 C   0  0  0  0  0  0  0  0  0  0  0  0
    0.7940    1.8220    0.9070 O   0  0  0  0  0  0  0  0  0  0  0  0
   -3.3930    0.8050    0.0770 C   0  0  0  0  0  0  0  0  0  0  0  0
   -4.5750   -0.1410    0.1820 C   0  0  0  0  0  0  0  0  0  0  0  0
   -4.7690   -0.8930   -1.1150 C   0  0  0  0  0  0  0  0  0  0  0  0
   -3.6860   -1.8880   -1.1890 C   0  0  0  0  0  0  0  0  0  0  0  0
  1  2  1  0
  2  3  1  0
  3  4  2  3
  4  5  1  0
  5  6  2  0
  5  7  1  0
  7  8  1  0
  8  9  1  0
  8 12  2  0
  9 10  1  0
 10 11  2  0
 10 19  1  0
 11 12  1  0
 11 16  1  0
 12 13  1  0
 13 14  1  0
 13 15  2  0
 16 17  1  0
 17 18  1  0
 18 19  1  0
M  END
