
     RDKit          3D

 19 20  0  0  0  0  0  0  0  0999 V2000
   -1.4840    0.2440    2.9690 C   0  0  0  0  0  0  0  0  0  0  0  0
   -2.0960   -0.8390    2.5610 C   0  0  0  0  0  0  0  0  0  0  0  0
   -2.6700   -0.9120    1.2380 C   0  0  0  0  0  0  0  0  0  0  0  0
   -3.2800   -2.0370    0.9020 C   0  0  0  0  0  0  0  0  0  0  0  0
   -3.8860   -2.1550   -0.4420 C   0  0  0  0  0  0  0  0  0  0  0  0
   -2.5740    0.1950    0.2790 C   0  0  0  0  0  0  0  0  0  0  0  0
   -1.2250    0.6160   -0.0420 N   0  0  0  0  0  0  0  0  0  0  0  0
   -0.2150   -0.1940   -0.5820 C   0  0  0  0  0  0  0  0  0  0  0  0
   -0.5370   -1.4150   -0.8010 O   0  0  0  0  0  0  0  0  0  0  0  0
    1.1490    0.2360   -0.9090 C   0  0  0  0  0  0  0  0  0  0  0  0
    1.5580    1.5140   -0.7040 C   0  0  0  0  0  0  0  0  0  0  0  0
    2.8780    1.9680   -1.0100 C   0  0  0  0  0  0  0  0  0  0  0  0
    3.2850    3.2850   -0.7930 C   0  0  0  0  0  0  0  0  0  0  0  0
    4.9990    3.2290   -1.3620 S   0  0  0  0  0  0  0  0  0  0  0  0
    5.0280    1.5220   -1.8220 C   0  0  0  0  0  0  0  0  0  0  0  0
    3.7250    1.0920   -1.5160 C   0  0  0  0  0  0  0  0  0  0  0  0
    3.3140   -0.2460   -1.7360 C   0  0  0  0  0  0  0  0  0  0  0  0
    2.0520   -0.6870   -1.4450 C   0  0  0  0  0  0  0  0  0  0  0  0
    1.6200   -1.9860   -1.6490 O   0  0  0  0  0  0  0  0  0  0  0  0
  1  2  2  0
  2  3  1  0
  3  4  2  3
  3  6  1  0
  4  5  1  0
  6  7  1  0
  7  8  1  0
  8  9  2  0
  8 10  1  0
 10 11  2  0
 10 18  1  0
 11 12  1  0
 12 13  2  0
 12 16  1  0
 13 14  1  0
 14 15  1  0
 15 16  2  0
 16 17  1  0
 17 18  2  0
 18 19  1  0
M  END
