
     RDKit          3D

 19 20  0  0  0  0  0  0  0  0999 V2000
   -5.1960    0.7150    0.6070 C   0  0  0  0  0  0  0  0  0  0  0  0
   -3.9530    0.8210    0.2440 C   0  0  0  0  0  0  0  0  0  0  0  0
   -3.1230    2.0640    0.3130 C   0  0  0  0  0  0  0  0  0  0  0  0
   -1.9920    1.7540    1.2500 C   0  0  0  0  0  0  0  0  0  0  0  0
   -1.1200    0.6220    0.7430 C   0  0  0  0  0  0  0  0  0  0  0  0
    0.2060    0.5020    0.9450 C   0  0  0  0  0  0  0  0  0  0  0  0
    0.8600   -0.5680    0.4360 C   0  0  0  0  0  0  0  0  0  0  0  0
    2.2340   -1.0390    0.4360 C   0  0  0  0  0  0  0  0  0  0  0  0
    2.5310   -2.0930   -0.1400 O   0  0  0  0  0  0  0  0  0  0  0  0
    3.2570   -0.3130    1.0860 N   0  0  0  0  0  0  0  0  0  0  0  0
    4.6020   -0.7900    1.0760 C   0  0  0  0  0  0  0  0  0  0  0  0
    5.1890   -0.9330   -0.3080 C   0  0  0  0  0  0  0  0  0  0  0  0
    5.1980    0.3920   -1.0150 C   0  0  0  0  0  0  0  0  0  0  0  0
    5.7370    0.2610   -2.2850 O   0  0  0  0  0  0  0  0  0  0  0  0
   -0.5370   -1.4500   -0.3850 S   0  0  0  0  0  0  0  0  0  0  0  0
   -1.7370   -0.3520    0.0280 C   0  0  0  0  0  0  0  0  0  0  0  0
   -3.2110   -0.3180   -0.2730 C   0  0  0  0  0  0  0  0  0  0  0  0
   -3.7140   -1.2640   -0.9950 C   0  0  0  0  0  0  0  0  0  0  0  0
   -5.0890   -1.4460   -1.4730 C   0  0  0  0  0  0  0  0  0  0  0  0
  1  2  2  0
  2  3  1  0
  2 17  1  0
  3  4  1  0
  4  5  1  0
  5  6  1  0
  5 16  2  0
  6  7  2  0
  7  8  1  0
  7 15  1  0
  8  9  2  0
  8 10  1  0
 10 11  1  0
 11 12  1  0
 12 13  1  0
 13 14  1  0
 15 16  1  0
 16 17  1  0
 17 18  2  3
 18 19  1  0
M  END
