
     RDKit          3D

 19 20  0  0  0  0  0  0  0  0999 V2000
    5.4380   -1.6560    1.6880 C   0  0  0  0  0  0  0  0  0  0  0  0
    5.2370   -0.6040    0.9720 C   0  0  0  0  0  0  0  0  0  0  0  0
    3.8780   -0.3150    0.4330 C   0  0  0  0  0  0  0  0  0  0  0  0
    2.8560   -1.2620    0.8440 C   0  0  0  0  0  0  0  0  0  0  0  0
    1.4930   -1.0390    0.5550 N   0  0  0  0  0  0  0  0  0  0  0  0
    0.6900   -0.0110    1.0750 C   0  0  0  0  0  0  0  0  0  0  0  0
    1.1900    0.8050    1.8860 O   0  0  0  0  0  0  0  0  0  0  0  0
   -0.7350    0.1360    0.6920 C   0  0  0  0  0  0  0  0  0  0  0  0
   -1.4870   -0.5930   -0.1390 C   0  0  0  0  0  0  0  0  0  0  0  0
   -2.7830   -0.2360   -0.3130 C   0  0  0  0  0  0  0  0  0  0  0  0
   -3.2640    0.8170    0.3400 C   0  0  0  0  0  0  0  0  0  0  0  0
   -1.8200    1.3690    1.2740 S   0  0  0  0  0  0  0  0  0  0  0  0
   -4.6200    1.3950    0.3170 C   0  0  0  0  0  0  0  0  0  0  0  0
   -5.5380    0.6000   -0.5460 C   0  0  0  0  0  0  0  0  0  0  0  0
   -4.7110    0.1170   -1.7460 C   0  0  0  0  0  0  0  0  0  0  0  0
   -3.7930   -0.9480   -1.2210 C   0  0  0  0  0  0  0  0  0  0  0  0
    3.7790    0.7730   -0.2910 C   0  0  0  0  0  0  0  0  0  0  0  0
    2.5890    1.3160   -0.9580 C   0  0  0  0  0  0  0  0  0  0  0  0
    4.9800    1.5310   -0.4550 O   0  0  0  0  0  0  0  0  0  0  0  0
  1  2  2  0
  2  3  1  0
  3  4  1  0
  3 17  2  3
  4  5  1  0
  5  6  1  0
  6  7  2  0
  6  8  1  0
  8  9  2  0
  8 12  1  0
  9 10  1  0
 10 11  2  0
 10 16  1  0
 11 12  1  0
 11 13  1  0
 13 14  1  0
 14 15  1  0
 15 16  1  0
 17 18  1  0
 17 19  1  0
M  END
