
     RDKit          3D

 19 18  0  0  0  0  0  0  0  0999 V2000
    2.1510    0.8130    2.5840 O   0  0  0  0  0  0  0  0  0  0  0  0
    2.8100    0.9480    1.5210 C   0  0  0  0  0  0  0  0  0  0  0  0
    3.6430    2.0490    1.4340 O   0  0  0  0  0  0  0  0  0  0  0  0
    2.6630   -0.0560    0.4440 C   0  0  1  0  0  0  0  0  0  0  0  0
    1.2070   -0.2150    0.0100 C   0  0  0  0  0  0  0  0  0  0  0  0
    0.6460    1.0820   -0.5080 C   0  0  0  0  0  0  0  0  0  0  0  0
   -0.7840    0.9400   -0.9420 C   0  0  0  0  0  0  0  0  0  0  0  0
   -1.6220    0.5000    0.2250 C   0  0  0  0  0  0  0  0  0  0  0  0
   -3.0870    0.3480   -0.1820 C   0  0  0  0  0  0  0  0  0  0  0  0
   -3.7820   -0.0500    0.9190 O   0  0  0  0  0  0  0  0  0  0  0  0
   -5.3850   -0.2740    0.7080 P   0  0  0  0  0  0  0  0  0  0  0  0
   -6.4540   -0.0050    1.9040 O   0  0  0  0  0  0  0  0  0  0  0  0
   -5.9890   -0.6010   -0.8420 O   0  0  0  0  0  0  0  0  0  0  0  0
   -5.3070   -1.7750    0.9590 O   0  0  0  0  0  0  0  0  0  0  0  0
    3.4150    0.1810   -0.6560 O   0  0  0  0  0  0  0  0  0  0  0  0
    4.5020   -0.9680   -1.0520 P   0  0  0  0  0  0  0  0  0  0  0  0
    5.6880   -0.0320   -0.8760 O   0  0  0  0  0  0  0  0  0  0  0  0
    5.1410   -1.9970    0.1160 O   0  0  0  0  0  0  0  0  0  0  0  0
    4.8140   -1.2780   -2.6340 O   0  0  0  0  0  0  0  0  0  0  0  0
  1  2  2  0
  2  3  1  0
  2  4  1  0
  4  5  1  6
  4 15  1  0
  5  6  1  0
  6  7  1  0
  7  8  1  0
  8  9  1  0
  9 10  1  0
 10 11  1  0
 11 12  1  0
 11 13  1  0
 11 14  1  0
 15 16  1  0
 16 17  1  0
 16 18  1  0
 16 19  1  0
M  END
