
     RDKit          3D

 16 16  0  0  0  0  0  0  0  0999 V2000
    1.9800    0.1880   -1.1880 O   0  0  0  0  0  0  0  0  0  0  0  0
    2.2890    0.0990    0.0260 C   0  0  0  0  0  0  0  0  0  0  0  0
    1.3350   -0.4470    0.8770 O   0  0  0  0  0  0  0  0  0  0  0  0
    0.0720   -0.9020    0.5000 C   0  0  0  0  0  0  0  0  0  0  0  0
   -0.7980    0.1510   -0.1140 C   0  0  0  0  0  0  0  0  0  0  0  0
   -2.0650   -0.3860   -0.4730 N   0  0  0  0  0  0  0  0  0  0  0  0
   -2.9320   -0.7690    0.5830 C   0  0  0  0  0  0  0  0  0  0  0  0
   -3.8330    0.3830    0.9920 C   0  0  0  0  0  0  0  0  0  0  0  0
   -4.6450    0.6390   -0.0940 O   0  0  0  0  0  0  0  0  0  0  0  0
   -3.9720    1.0140   -1.2240 C   0  0  0  0  0  0  0  0  0  0  0  0
   -2.7260    0.2820   -1.5510 C   0  0  0  0  0  0  0  0  0  0  0  0
    3.9320    0.6670    0.6460 P   0  0  0  0  0  0  0  0  0  0  0  0
    4.2430   -0.1840    2.1190 O   0  0  0  0  0  0  0  0  0  0  0  0
    5.5280    0.1640   -0.7740 P   0  0  0  0  0  0  0  0  0  0  0  0
    6.4180    1.6050   -1.1120 O   0  0  0  0  0  0  0  0  0  0  0  0
    6.6220   -0.9870   -0.0670 O   0  0  0  0  0  0  0  0  0  0  0  0
  1  2  2  0
  2  3  1  0
  2 12  1  0
  3  4  1  0
  4  5  1  0
  5  6  1  0
  6  7  1  0
  6 11  1  0
  7  8  1  0
  8  9  1  0
  9 10  1  0
 10 11  1  0
 12 13  1  0
 12 14  1  0
 14 15  1  0
 14 16  1  0
M  END
