
     RDKit          3D

 16 16  0  0  0  0  0  0  0  0999 V2000
    1.7180   -1.5240    1.4970 C   0  0  0  0  0  0  0  0  0  0  0  0
    1.1590    0.1740    0.9810 P   0  0  0  0  0  0  0  0  0  0  0  0
    2.6080    0.9770   -0.4290 P   0  0  0  0  0  0  0  0  0  0  0  0
    3.8130   -0.1670   -0.8830 O   0  0  0  0  0  0  0  0  0  0  0  0
    3.2930    2.4740    0.0910 O   0  0  0  0  0  0  0  0  0  0  0  0
   -0.5240    0.0660    0.2070 C   0  0  1  0  0  0  0  0  0  0  0  0
   -0.4520    0.6510   -1.1560 C   0  0  0  0  0  0  0  0  0  0  0  0
   -0.7250   -0.0130   -2.1870 O   0  0  0  0  0  0  0  0  0  0  0  0
   -0.0700    1.9700   -1.2840 O   0  0  0  0  0  0  0  0  0  0  0  0
   -0.9600   -1.3730    0.1550 C   0  0  0  0  0  0  0  0  0  0  0  0
   -2.2490   -1.4790   -0.5470 C   0  0  0  0  0  0  0  0  0  0  0  0
   -2.5780   -2.5820   -1.0370 O   0  0  0  0  0  0  0  0  0  0  0  0
   -3.0670   -0.3250   -0.6390 N   0  0  0  0  0  0  0  0  0  0  0  0
   -2.8300    0.7630    0.2420 C   0  0  0  0  0  0  0  0  0  0  0  0
   -3.7470    1.6390    0.3950 O   0  0  0  0  0  0  0  0  0  0  0  0
   -1.5390    0.8890    0.9810 C   0  0  0  0  0  0  0  0  0  0  0  0
  1  2  1  0
  2  3  1  0
  6  2  1  1
  3  4  1  0
  3  5  1  0
  6  7  1  0
  6 10  1  0
  6 16  1  0
  7  8  2  0
  7  9  1  0
 10 11  1  0
 11 12  2  0
 11 13  1  0
 13 14  1  0
 14 15  2  0
 14 16  1  0
M  END
