
     RDKit          3D

 16 16  0  0  0  0  0  0  0  0999 V2000
   -3.3980    0.1170   -1.9730 C   0  0  0  0  0  0  0  0  0  0  0  0
   -2.3680    0.1480   -0.8260 C   0  0  1  0  0  0  0  0  0  0  0  0
   -0.9830    0.0020   -1.4090 C   0  0  0  0  0  0  0  0  0  0  0  0
    0.0650   -0.0340   -0.4640 N   0  0  0  0  0  0  0  0  0  0  0  0
    0.1480   -1.1450    0.3810 C   0  0  0  0  0  0  0  0  0  0  0  0
    1.3540   -1.1710    1.2870 C   0  0  0  0  0  0  0  0  0  0  0  0
    2.9480   -1.1780    0.3750 P   0  0  0  0  0  0  0  0  0  0  0  0
    3.2820    0.2790   -0.4500 O   0  0  0  0  0  0  0  0  0  0  0  0
    4.2310   -1.4760    1.5000 O   0  0  0  0  0  0  0  0  0  0  0  0
    5.5380   -0.3820    1.3260 P   0  0  0  0  0  0  0  0  0  0  0  0
    6.2170   -0.5530   -0.2640 O   0  0  0  0  0  0  0  0  0  0  0  0
    5.0920    1.2700    1.6310 O   0  0  0  0  0  0  0  0  0  0  0  0
   -2.5040    1.3050   -0.0840 O   0  0  0  0  0  0  0  0  0  0  0  0
   -3.3200    1.0100    1.0010 C   0  0  0  0  0  0  0  0  0  0  0  0
   -3.8800   -0.3560    0.6000 C   0  0  0  0  0  0  0  0  0  0  0  0
   -2.7260   -0.9130   -0.0020 O   0  0  0  0  0  0  0  0  0  0  0  0
  2  1  1  6
  2  3  1  0
  2 13  1  0
  2 16  1  0
  3  4  1  0
  4  5  1  0
  5  6  1  0
  6  7  1  0
  7  8  1  0
  7  9  1  0
  9 10  1  0
 10 11  1  0
 10 12  1  0
 13 14  1  0
 14 15  1  0
 15 16  1  0
M  END
