
     RDKit          3D

 16 15  0  0  0  0  0  0  0  0999 V2000
   -5.1510   -0.5760    0.7630 C   0  0  0  0  0  0  0  0  0  0  0  0
   -3.4860    0.1040    1.1830 P   0  0  0  0  0  0  0  0  0  0  0  0
   -2.1270   -0.8390    0.3660 C   0  0  0  0  0  0  0  0  0  0  0  0
   -0.8790    0.0140    0.3570 C   0  0  0  0  0  0  0  0  0  0  0  0
    0.2090   -0.7490   -0.3000 C   0  0  0  0  0  0  0  0  0  0  0  0
   -0.0030   -1.8930   -0.7290 O   0  0  0  0  0  0  0  0  0  0  0  0
    1.5310   -0.2120   -0.4680 N   0  0  0  0  0  0  0  0  0  0  0  0
    2.5670   -0.9540   -1.1000 C   0  0  0  0  0  0  0  0  0  0  0  0
    2.2810   -2.1110   -1.5270 O   0  0  0  0  0  0  0  0  0  0  0  0
    3.9290   -0.3900   -1.2550 C   0  0  0  0  0  0  0  0  0  0  0  0
    4.0660    0.8390   -0.6090 O   0  0  0  0  0  0  0  0  0  0  0  0
    3.9550    1.0580    0.7480 C   0  0  0  0  0  0  0  0  0  0  0  0
    3.7140    0.0690    1.4940 O   0  0  0  0  0  0  0  0  0  0  0  0
    4.1040    2.3440    1.3010 O   0  0  0  0  0  0  0  0  0  0  0  0
   -3.3490    2.2560    0.8400 P   0  0  0  0  0  0  0  0  0  0  0  0
   -3.7690    2.9480   -0.4710 O   0  0  0  0  0  0  0  0  0  0  0  0
  1  2  1  0
  2  3  1  0
  2 15  1  0
  3  4  1  0
  4  5  1  0
  5  6  2  0
  5  7  1  0
  7  8  1  0
  8  9  2  0
  8 10  1  0
 10 11  1  0
 11 12  1  0
 12 13  2  0
 12 14  1  0
 15 16  2  0
M  END
