
     RDKit          3D

 17 16  0  0  0  0  0  0  0  0999 V2000
    5.4480   -2.2830   -0.6070 O   0  0  0  0  0  0  0  0  0  0  0  0
    5.9210   -0.9130   -1.1560 P   0  0  0  0  0  0  0  0  0  0  0  0
    4.9200    0.9360   -0.5310 P   0  0  0  0  0  0  0  0  0  0  0  0
    3.1290    0.8880   -0.9060 C   0  0  0  0  0  0  0  0  0  0  0  0
    2.3930    0.1570    0.0570 O   0  0  0  0  0  0  0  0  0  0  0  0
    1.0120    0.0420   -0.1110 C   0  0  0  0  0  0  0  0  0  0  0  0
    0.5220    0.6110   -1.1270 O   0  0  0  0  0  0  0  0  0  0  0  0
    0.1750   -0.6540    0.7710 N   0  0  0  0  0  0  0  0  0  0  0  0
   -1.2820   -0.6960    0.4910 C   0  0  0  0  0  0  0  0  0  0  0  0
   -1.7920   -1.8430    0.1860 C   0  0  0  0  0  0  0  0  0  0  0  0
   -3.1250   -2.1830   -0.1240 C   0  0  0  0  0  0  0  0  0  0  0  0
   -3.3650   -3.4390   -0.3990 O   0  0  0  0  0  0  0  0  0  0  0  0
   -4.2290   -1.3590   -0.1790 O   0  0  0  0  0  0  0  0  0  0  0  0
   -1.9160    0.5890    0.6040 C   0  0  0  0  0  0  0  0  0  0  0  0
   -3.2630    0.7440    0.3530 O   0  0  0  0  0  0  0  0  0  0  0  0
   -1.2480    1.7010    0.9540 C   0  0  0  0  0  0  0  0  0  0  0  0
   -1.9220    2.8970    1.0390 O   0  0  0  0  0  0  0  0  0  0  0  0
  1  2  2  0
  2  3  1  0
  3  4  1  0
  4  5  1  0
  5  6  1  0
  6  7  2  0
  6  8  1  0
  8  9  1  0
  9 10  2  3
  9 14  1  0
 10 11  1  0
 11 12  2  0
 11 13  1  0
 14 15  1  0
 14 16  2  3
 16 17  1  0
M  END
