
     RDKit          3D

 16 15  0  0  0  0  0  0  0  0999 V2000
    4.3810    0.3120   -0.2750 C   0  0  0  0  0  0  0  0  0  0  0  0
    2.9460    0.2890   -0.7160 C   0  0  0  0  0  0  0  0  0  0  0  0
    2.6410    0.6060   -1.9060 O   0  0  0  0  0  0  0  0  0  0  0  0
    1.8890   -0.0800    0.1520 N   0  0  0  0  0  0  0  0  0  0  0  0
    0.5370   -0.0880   -0.3100 C   0  0  0  0  0  0  0  0  0  0  0  0
   -0.4290   -0.5020    0.7450 C   0  0  0  0  0  0  0  0  0  0  0  0
   -0.0910   -0.7970    1.8720 O   0  0  0  0  0  0  0  0  0  0  0  0
   -1.8730   -0.5340    0.3310 C   0  0  1  0  0  0  0  0  0  0  0  0
   -2.0060   -1.8140   -1.0060 P   0  0  0  0  0  0  0  0  0  0  0  0
   -1.4120   -1.6550   -2.4090 O   0  0  0  0  0  0  0  0  0  0  0  0
   -2.7480   -0.9530    1.4370 C   0  0  0  0  0  0  0  0  0  0  0  0
   -3.6390   -0.1640    1.8280 O   0  0  0  0  0  0  0  0  0  0  0  0
   -2.6410   -2.1810    2.0780 O   0  0  0  0  0  0  0  0  0  0  0  0
   -2.3540    1.1370   -0.2460 P   0  0  0  0  0  0  0  0  0  0  0  0
   -1.3490    2.3480    0.4490 O   0  0  0  0  0  0  0  0  0  0  0  0
   -2.4470    1.2590   -1.9700 O   0  0  0  0  0  0  0  0  0  0  0  0
  1  2  1  0
  2  3  2  0
  2  4  1  0
  4  5  1  0
  5  6  1  0
  6  7  2  0
  6  8  1  0
  8  9  1  0
  8 11  1  0
  8 14  1  6
  9 10  2  0
 11 12  2  0
 11 13  1  0
 14 15  1  0
 14 16  1  0
M  END
