
     RDKit          3D

 18 19  0  0  0  0  0  0  0  0999 V2000
   -3.5250   -0.5680   -1.0830 C   0  0  0  0  0  0  0  0  0  0  0  0
   -2.9170   -0.8360    0.2780 C   0  0  1  0  0  0  0  0  0  0  0  0
   -1.4560   -0.5770    0.2040 C   0  0  0  0  0  0  0  0  0  0  0  0
   -0.7790    0.2050    1.0090 C   0  0  0  0  0  0  0  0  0  0  0  0
    0.6580    0.4500    0.9240 C   0  0  0  0  0  0  0  0  0  0  0  0
    1.1710    1.2220    1.7630 O   0  0  0  0  0  0  0  0  0  0  0  0
    1.4470   -0.1560   -0.0620 N   0  0  0  0  0  0  0  0  0  0  0  0
    2.8400    0.0740   -0.1550 C   0  0  0  0  0  0  0  0  0  0  0  0
    3.6050    0.8480    0.6170 N   0  0  0  0  0  0  0  0  0  0  0  0
    4.8920    0.7670    0.1590 C   0  0  0  0  0  0  0  0  0  0  0  0
    5.8640    1.3760    0.6640 O   0  0  0  0  0  0  0  0  0  0  0  0
    4.8920   -0.0570   -0.8870 N   0  0  0  0  0  0  0  0  0  0  0  0
    3.6330   -0.5230   -1.1310 C   0  0  0  0  0  0  0  0  0  0  0  0
    3.2900   -1.4350   -2.1940 C   0  0  0  0  0  0  0  0  0  0  0  0
    2.1370   -1.8280   -2.3750 O   0  0  0  0  0  0  0  0  0  0  0  0
   -1.5400    0.9040    2.1060 C   0  0  0  0  0  0  0  0  0  0  0  0
   -2.8760    1.1970    1.6080 N   0  0  0  0  0  0  0  0  0  0  0  0
   -3.5460   -0.0440    1.3700 C   0  0  0  0  0  0  0  0  0  0  0  0
  2  1  1  6
  2  3  1  0
  2 18  1  0
  3  4  2  0
  4  5  1  0
  4 16  1  0
  5  6  2  0
  5  7  1  0
  7  8  1  0
  8  9  1  0
  8 13  2  0
  9 10  1  0
 10 11  2  0
 10 12  1  0
 12 13  1  0
 13 14  1  0
 14 15  2  0
 16 17  1  0
 17 18  1  0
M  CHG  1  17   1
M  END
