
     RDKit          3D

 19 20  0  0  0  0  0  0  0  0999 V2000
   -3.7870   -1.4470    1.0460 C   0  0  0  0  0  0  0  0  0  0  0  0
   -3.4640   -1.0350   -0.3000 N   0  0  1  0  0  0  0  0  0  0  0  0
   -4.2170    0.1250   -0.6570 C   0  0  0  0  0  0  0  0  0  0  0  0
   -3.7700    1.3760    0.0370 C   0  0  0  0  0  0  0  0  0  0  0  0
   -2.4900    1.2450    0.7380 C   0  0  0  0  0  0  0  0  0  0  0  0
   -1.6610    0.2450    0.5140 C   0  0  0  0  0  0  0  0  0  0  0  0
   -0.4380    0.1900    1.2360 N   0  0  0  0  0  0  0  0  0  0  0  0
    0.8210    0.2070    0.5780 C   0  0  0  0  0  0  0  0  0  0  0  0
    0.7930    0.2750   -0.6870 O   0  0  0  0  0  0  0  0  0  0  0  0
    2.0650    0.1520    1.2800 N   0  0  0  0  0  0  0  0  0  0  0  0
    3.2960    0.1730    0.5610 C   0  0  0  0  0  0  0  0  0  0  0  0
    4.1250    1.1640    0.8160 C   0  0  0  0  0  0  0  0  0  0  0  0
    5.4190    1.3310    0.1700 C   0  0  0  0  0  0  0  0  0  0  0  0
    6.1760    2.2770    0.4340 O   0  0  0  0  0  0  0  0  0  0  0  0
    5.7830    0.3450   -0.7940 N   0  0  0  0  0  0  0  0  0  0  0  0
    4.9040   -0.7220   -1.0770 C   0  0  0  0  0  0  0  0  0  0  0  0
    5.2380   -1.6000   -1.9420 O   0  0  0  0  0  0  0  0  0  0  0  0
    3.5950   -0.8810   -0.4160 C   0  0  0  0  0  0  0  0  0  0  0  0
   -2.0670   -0.7660   -0.4900 C   0  0  0  0  0  0  0  0  0  0  0  0
  2  1  1  1
  2  3  1  0
  2 19  1  0
  3  4  1  0
  4  5  1  0
  5  6  2  0
  6  7  1  0
  6 19  1  0
  7  8  1  0
  8  9  2  0
  8 10  1  0
 10 11  1  0
 11 12  2  0
 11 18  1  0
 12 13  1  0
 13 14  2  0
 13 15  1  0
 15 16  1  0
 16 17  2  0
 16 18  1  0
M  CHG  1   2   1
M  END
