
     RDKit          3D

 25 27  0  0  0  0  0  0  0  0999 V2000
   -1.0770    1.7850    0.9080 O   0  0  0  0  0  0  0  0  0  0  0  0
   -1.4700    0.6690    0.4480 C   0  0  0  0  0  0  0  0  0  0  0  0
   -0.5350   -0.2690    0.0320 N   0  0  0  0  0  0  0  0  0  0  0  0
    0.8660   -0.1840    0.0360 C   0  0  0  0  0  0  0  0  0  0  0  0
    1.5120    0.9350    0.4900 C   0  0  0  0  0  0  0  0  0  0  0  0
    2.9130    0.9690    0.4720 C   0  0  0  0  0  0  0  0  0  0  0  0
    3.6890   -0.0700    0.0200 C   0  0  0  0  0  0  0  0  0  0  0  0
    5.1450   -0.0110    0.0120 C   0  0  0  0  0  0  0  0  0  0  0  0
    6.0330   -1.0730    0.1690 C   0  0  0  0  0  0  0  0  0  0  0  0
    7.2910   -0.6040    0.1000 N   0  0  0  0  0  0  0  0  0  0  0  0
    7.2820    0.7210   -0.0960 C   0  0  0  0  0  0  0  0  0  0  0  0
    8.6450    1.7960   -0.2540 Cl  0  0  0  0  0  0  0  0  0  0  0  0
    5.9560    1.0960   -0.1510 C   0  0  0  0  0  0  0  0  0  0  0  0
    2.9990   -1.1800   -0.4290 C   0  0  0  0  0  0  0  0  0  0  0  0
    1.6330   -1.2520   -0.4280 C   0  0  0  0  0  0  0  0  0  0  0  0
    0.7210   -2.7960   -1.0530 Br  0  0  0  0  0  0  0  0  0  0  0  0
   -2.8960    0.3940    0.3650 C   0  0  0  0  0  0  0  0  0  0  0  0
   -3.6430   -0.6150   -0.0420 C   0  0  0  0  0  0  0  0  0  0  0  0
   -4.9880   -0.5550    0.0140 C   0  0  0  0  0  0  0  0  0  0  0  0
   -5.5620    0.5820    0.5050 C   0  0  0  0  0  0  0  0  0  0  0  0
   -6.9080    0.9490    0.6910 N   0  0  0  0  0  0  0  0  0  0  0  0
   -8.2250   -0.0840    0.2890 S   0  0  1  0  0  0  0  0  0  0  0  0
   -7.8870   -1.5300    0.4040 O   0  0  0  0  0  0  0  0  0  0  0  0
   -9.3740    0.2640    1.2030 O   0  0  0  0  0  0  0  0  0  0  0  0
   -4.1930    1.5970    0.9000 S   0  0  0  0  0  0  0  0  0  0  0  0
  1  2  2  0
  2  3  1  0
  2 17  1  0
  3  4  1  0
  4  5  2  0
  4 15  1  0
  5  6  1  0
  6  7  2  0
  7  8  1  0
  7 14  1  0
  8  9  2  0
  8 13  1  0
  9 10  1  0
 10 11  1  0
 11 12  1  0
 11 13  2  0
 14 15  2  0
 15 16  1  0
 17 18  2  0
 17 25  1  0
 18 19  1  0
 19 20  2  0
 20 21  1  0
 20 25  1  0
 22 21  1  1
 22 23  2  0
 22 24  2  0
M  END
