
     RDKit          3D

 19 20  0  0  0  0  0  0  0  0999 V2000
    3.4060   -3.2730    0.8180 N   0  0  0  0  0  0  0  0  0  0  0  0
    2.9630   -1.9180    1.0990 C   0  0  0  0  0  0  0  0  0  0  0  0
    1.5930   -1.7470    0.4870 C   0  0  0  0  0  0  0  0  0  0  0  0
    1.0700   -0.3870    0.7310 C   0  0  0  0  0  0  0  0  0  0  0  0
    1.7760    0.4230    1.3830 O   0  0  0  0  0  0  0  0  0  0  0  0
   -0.1960    0.0030    0.2460 N   0  0  0  0  0  0  0  0  0  0  0  0
   -0.9440   -0.9820   -0.4910 C   0  0  0  0  0  0  0  0  0  0  0  0
   -2.4200   -0.8230   -0.4140 C   0  0  1  0  0  0  0  0  0  0  0  0
   -3.0550   -2.0720    0.1570 C   0  0  0  0  0  0  0  0  0  0  0  0
   -2.6940   -3.2080   -0.5750 O   0  0  0  0  0  0  0  0  0  0  0  0
   -2.8440    0.2970    0.3990 N   0  0  0  0  0  0  0  0  0  0  0  0
   -2.1010    1.4560   -0.0550 C   0  0  0  0  0  0  0  0  0  0  0  0
   -0.6960    1.3210    0.4860 C   0  0  2  0  0  0  0  0  0  0  0  0
    0.1390    2.3840   -0.1180 C   0  0  0  0  0  0  0  0  0  0  0  0
    1.2110    2.3290   -0.8620 C   0  0  0  0  0  0  0  0  0  0  0  0
    1.6760    3.7060   -1.2170 C   0  0  0  0  0  0  0  0  0  0  0  0
    0.6870    4.5160   -0.5490 N   0  0  0  0  0  0  0  0  0  0  0  0
   -0.1710    3.8040    0.0640 C   0  0  0  0  0  0  0  0  0  0  0  0
   -1.2350    4.3510    0.7910 O   0  0  0  0  0  0  0  0  0  0  0  0
  1  2  1  0
  2  3  1  0
  3  4  1  0
  4  5  2  0
  4  6  1  0
  6  7  1  0
  6 13  1  0
  7  8  1  0
  8  9  1  1
  8 11  1  0
  9 10  1  0
 11 12  1  0
 12 13  1  0
 13 14  1  6
 14 15  2  0
 14 18  1  0
 15 16  1  0
 16 17  1  0
 17 18  2  0
 18 19  1  0
M  CHG  1   1   1
M  END
