
     RDKit          3D

 19 20  0  0  0  0  0  0  0  0999 V2000
    3.1770   -1.2060   -0.0660 C   0  0  0  0  0  0  0  0  0  0  0  0
    2.2160   -0.0460    0.0350 C   0  0  1  0  0  0  0  0  0  0  0  0
    2.8740    1.1500    0.5760 C   0  0  0  0  0  0  0  0  0  0  0  0
    3.9810    1.7680   -0.0550 N   0  0  0  0  0  0  0  0  0  0  0  0
    2.4340    1.6420    1.6470 O   0  0  0  0  0  0  0  0  0  0  0  0
    1.6880    0.2450   -1.3530 C   0  0  0  0  0  0  0  0  0  0  0  0
    0.4240    1.0040   -1.0100 C   0  0  0  0  0  0  0  0  0  0  0  0
   -0.1260    0.4190    0.1940 N   0  0  1  0  0  0  0  0  0  0  0  0
   -1.2180   -0.4510   -0.0440 C   0  0  1  0  0  0  0  0  0  0  0  0
   -1.4400   -1.3270    1.1500 C   0  0  0  0  0  0  0  0  0  0  0  0
   -0.8940   -1.2010    2.2560 O   0  0  0  0  0  0  0  0  0  0  0  0
   -2.3920   -2.3840    0.8970 N   0  0  0  0  0  0  0  0  0  0  0  0
   -3.2850   -2.2370   -0.2640 C   0  0  0  0  0  0  0  0  0  0  0  0
   -3.5190   -0.7750   -0.4780 C   0  0  0  0  0  0  0  0  0  0  0  0
   -2.5150    0.1340   -0.3750 C   0  0  0  0  0  0  0  0  0  0  0  0
   -2.8890    1.4860   -0.5970 C   0  0  0  0  0  0  0  0  0  0  0  0
   -1.9920    2.5570   -0.5290 N   0  0  0  0  0  0  0  0  0  0  0  0
   -4.0800    1.7850   -0.8720 O   0  0  0  0  0  0  0  0  0  0  0  0
    0.9470   -0.3960    0.7790 C   0  0  0  0  0  0  0  0  0  0  0  0
  2  1  1  6
  2  3  1  0
  2  6  1  0
  2 19  1  0
  3  4  1  0
  3  5  2  0
  6  7  1  0
  8  7  1  6
  8  9  1  0
  8 19  1  0
  9 10  1  1
  9 15  1  0
 10 11  2  0
 10 12  1  0
 12 13  1  0
 13 14  1  0
 14 15  2  0
 15 16  1  0
 16 17  1  0
 16 18  2  0
M  CHG  1   8   1
M  END
