
     RDKit          3D

 13 12  0  0  0  0  0  0  0  0999 V2000
   -5.6330    0.7290   -0.8510 C   0  0  0  0  0  0  0  0  0  0  0  0
   -4.1750    0.9280   -0.7360 C   0  0  0  0  0  0  0  0  0  0  0  0
   -3.4260    0.0470   -0.0960 C   0  0  0  0  0  0  0  0  0  0  0  0
   -1.9320    0.2280    0.0360 C   0  0  0  0  0  0  0  0  0  0  0  0
   -1.2990   -0.9520   -0.6130 C   0  0  0  0  0  0  0  0  0  0  0  0
    0.1950   -0.9660   -0.5910 C   0  0  0  0  0  0  0  0  0  0  0  0
    0.8080   -0.9540    0.7640 C   0  0  0  0  0  0  0  0  0  0  0  0
    2.2890   -0.9700    0.6050 C   0  0  0  0  0  0  0  0  0  0  0  0
    3.1000   -0.0460    1.0440 C   0  0  0  0  0  0  0  0  0  0  0  0
    4.5700   -0.1680    0.8260 C   0  0  0  0  0  0  0  0  0  0  0  0
    5.0990    0.9760    0.0360 C   0  0  0  0  0  0  0  0  0  0  0  0
    6.3300    0.9740   -0.2070 O   0  0  0  0  0  0  0  0  0  0  0  0
    4.3090    2.0100   -0.4290 O   0  0  0  0  0  0  0  0  0  0  0  0
  1  2  1  0
  2  3  2  3
  3  4  1  0
  4  5  1  0
  5  6  1  0
  6  7  1  0
  7  8  1  0
  8  9  2  3
  9 10  1  0
 10 11  1  0
 11 12  2  0
 11 13  1  0
M  END
