
     RDKit          3D

 24 25  0  0  0  0  0  0  0  0999 V2000
    0.2930   -1.9600   -1.7760 C   0  0  0  0  0  0  0  0  0  0  0  0
    0.4860   -1.2810   -0.4690 C   0  0  0  0  0  0  0  0  0  0  0  0
    1.7450   -0.9780   -0.1340 C   0  0  0  0  0  0  0  0  0  0  0  0
    2.9040   -1.3000   -0.9930 C   0  0  0  0  0  0  0  0  0  0  0  0
    3.7070    0.0840   -1.7400 S   0  0  0  0  0  0  0  0  0  0  0  0
    4.5090    1.2760   -0.7160 C   0  0  2  0  0  0  0  0  0  0  0  0
    5.6240    0.7050    0.1330 C   0  0  0  0  0  0  0  0  0  0  0  0
    3.5630    2.1570    0.0330 C   0  0  0  0  0  0  0  0  0  0  0  0
    1.9690   -0.3380    1.1240 N   0  0  0  0  0  0  0  0  0  0  0  0
    0.8720   -0.0440    1.9610 C   0  0  0  0  0  0  0  0  0  0  0  0
    1.1090    0.5310    3.0780 O   0  0  0  0  0  0  0  0  0  0  0  0
   -0.4020   -0.3700    1.5770 O   0  0  0  0  0  0  0  0  0  0  0  0
   -0.6820   -1.0210    0.3200 C   0  0  0  0  0  0  0  0  0  0  0  0
   -1.9480   -1.2810    0.0910 C   0  0  0  0  0  0  0  0  0  0  0  0
   -2.8490   -0.8120    1.2200 N   0  0  0  0  0  0  0  0  0  0  0  0
   -3.6370    0.1620    0.9100 C   0  0  0  0  0  0  0  0  0  0  0  0
   -4.5460    0.7230    1.8460 N   0  0  0  0  0  0  0  0  0  0  0  0
   -4.8540    2.0530    1.3650 C   0  0  0  0  0  0  0  0  0  0  0  0
   -4.8230    1.8640   -0.1080 C   0  0  0  0  0  0  0  0  0  0  0  0
   -5.5010    2.4150   -1.0100 O   0  0  0  0  0  0  0  0  0  0  0  0
   -3.8060    0.8700   -0.3110 N   0  0  0  0  0  0  0  0  0  0  0  0
   -2.7020   -1.9270   -0.9000 C   0  0  0  0  0  0  0  0  0  0  0  0
   -4.1670   -1.9340   -0.7030 N   0  0  0  0  0  0  0  0  0  0  0  0
   -2.4110   -2.5170   -1.9430 O   0  0  0  0  0  0  0  0  0  0  0  0
  1  2  1  0
  2  3  2  0
  2 13  1  0
  3  4  1  0
  3  9  1  0
  4  5  1  0
  5  6  1  0
  6  7  1  1
  6  8  1  0
  9 10  1  0
 10 11  2  0
 10 12  1  0
 12 13  1  0
 13 14  2  3
 14 15  1  0
 14 22  1  0
 15 16  2  3
 16 17  1  0
 16 21  1  0
 17 18  1  0
 18 19  1  0
 19 20  2  0
 19 21  1  0
 22 23  1  0
 22 24  2  0
M  END
