
     RDKit          3D

 24 25  0  0  0  0  0  0  0  0999 V2000
    2.8050   -1.6030   -0.3460 C   0  0  0  0  0  0  0  0  0  0  0  0
    1.3650   -1.3730    0.1300 C   0  0  2  0  0  0  0  0  0  0  0  0
    0.5010   -1.6090   -1.0600 C   0  0  0  0  0  0  0  0  0  0  0  0
    1.2600    0.0090    0.7340 C   0  0  1  0  0  0  0  0  0  0  0  0
    1.6300    1.2740   -0.4590 S   0  0  0  0  0  0  0  0  0  0  0  0
    3.2980    1.3380   -1.0290 C   0  0  0  0  0  0  0  0  0  0  0  0
    4.3060    2.0230   -0.4140 N   0  0  0  0  0  0  0  0  0  0  0  0
    5.4250    1.8620   -1.0980 N   0  0  0  0  0  0  0  0  0  0  0  0
    5.1730    1.0780   -2.1600 C   0  0  0  0  0  0  0  0  0  0  0  0
    6.0310    0.7200   -3.0330 O   0  0  0  0  0  0  0  0  0  0  0  0
    3.8640    0.7690   -2.0990 N   0  0  0  0  0  0  0  0  0  0  0  0
    0.1360    0.2350    1.6230 C   0  0  0  0  0  0  0  0  0  0  0  0
    0.4310    0.4270    2.8910 O   0  0  0  0  0  0  0  0  0  0  0  0
   -1.2410    0.2810    1.3640 N   0  0  0  0  0  0  0  0  0  0  0  0
   -2.1910    0.4640    2.4960 C   0  0  0  0  0  0  0  0  0  0  0  0
   -2.4350    1.9380    2.7190 C   0  0  0  0  0  0  0  0  0  0  0  0
   -3.3230    2.1100    3.7770 O   0  0  0  0  0  0  0  0  0  0  0  0
   -1.8990    0.2190    0.1110 C   0  0  0  0  0  0  0  0  0  0  0  0
   -1.7780    1.1430   -0.8220 C   0  0  0  0  0  0  0  0  0  0  0  0
   -2.4550    1.0050   -2.0210 O   0  0  0  0  0  0  0  0  0  0  0  0
   -3.3280   -0.0160   -2.3710 C   0  0  0  0  0  0  0  0  0  0  0  0
   -3.4530   -1.0330   -1.3290 C   0  0  0  0  0  0  0  0  0  0  0  0
   -2.7950   -0.9150   -0.1970 C   0  0  0  0  0  0  0  0  0  0  0  0
   -2.9750   -1.9500    0.7580 N   0  0  0  0  0  0  0  0  0  0  0  0
  2  1  1  6
  2  3  1  0
  2  4  1  0
  4  5  1  6
  4 12  1  0
  5  6  1  0
  6  7  2  0
  6 11  1  0
  7  8  1  0
  8  9  1  0
  9 10  2  0
  9 11  1  0
 12 13  2  0
 12 14  1  0
 14 15  1  0
 14 18  1  0
 15 16  1  0
 16 17  1  0
 18 19  2  0
 18 23  1  0
 19 20  1  0
 20 21  1  0
 21 22  1  0
 22 23  2  0
 23 24  1  0
M  END
