
     RDKit          3D

 24 25  0  0  0  0  0  0  0  0999 V2000
   -4.1740   -1.7620    1.7230 C   0  0  0  0  0  0  0  0  0  0  0  0
   -4.3420   -0.7740    0.6200 C   0  0  0  0  0  0  0  0  0  0  0  0
   -5.5520   -0.5080    0.2410 C   0  0  0  0  0  0  0  0  0  0  0  0
   -5.8660    0.6380   -1.0470 S   0  0  0  0  0  0  0  0  0  0  0  0
   -6.7720    1.7620   -0.5780 O   0  0  0  0  0  0  0  0  0  0  0  0
   -4.3290    1.2670   -1.6480 C   0  0  0  0  0  0  0  0  0  0  0  0
   -3.1760    0.6970   -0.9240 C   0  0  0  0  0  0  0  0  0  0  0  0
   -3.1230   -0.1710    0.0390 C   0  0  0  0  0  0  0  0  0  0  0  0
   -1.8410   -0.6750    0.5790 C   0  0  0  0  0  0  0  0  0  0  0  0
   -0.6380   -0.2200   -0.1570 C   0  0  1  0  0  0  0  0  0  0  0  0
    0.5850   -0.7270    0.5640 N   0  0  0  0  0  0  0  0  0  0  0  0
    1.6080    0.1630    0.9660 C   0  0  0  0  0  0  0  0  0  0  0  0
    1.4550    1.4000    0.6960 O   0  0  0  0  0  0  0  0  0  0  0  0
    2.7480   -0.3280    1.6400 N   0  0  0  0  0  0  0  0  0  0  0  0
    3.8000    0.5720    2.0560 C   0  0  0  0  0  0  0  0  0  0  0  0
    4.6450    0.9940    0.9220 C   0  0  0  0  0  0  0  0  0  0  0  0
    4.4530    2.0850    0.1700 N   0  0  0  0  0  0  0  0  0  0  0  0
    5.4020    2.1380   -0.7480 O   0  0  0  0  0  0  0  0  0  0  0  0
    6.2120    1.1190   -0.6240 C   0  0  0  0  0  0  0  0  0  0  0  0
    7.4080    0.7250   -1.3870 C   0  0  0  0  0  0  0  0  0  0  0  0
    5.7360    0.3950    0.4300 N   0  0  0  0  0  0  0  0  0  0  0  0
   -0.5300   -0.9270   -1.4760 C   0  0  0  0  0  0  0  0  0  0  0  0
   -1.4340   -0.8970   -2.5260 N   0  0  0  0  0  0  0  0  0  0  0  0
    0.5140   -1.6470   -1.6590 O   0  0  0  0  0  0  0  0  0  0  0  0
  1  2  1  0
  2  3  2  0
  2  8  1  0
  3  4  1  0
  4  5  2  0
  4  6  1  1
  6  7  1  0
  7  8  2  0
  8  9  1  0
 10  9  1  1
 10 11  1  0
 10 22  1  0
 11 12  1  0
 12 13  2  0
 12 14  1  0
 14 15  1  0
 15 16  1  0
 16 17  2  0
 16 21  1  0
 17 18  1  0
 18 19  1  0
 19 20  1  0
 19 21  2  0
 22 23  1  0
 22 24  2  0
M  END
