
     RDKit          3D

 24 26  0  0  0  0  0  0  0  0999 V2000
    6.6970    0.7230    0.1140 C   0  0  0  0  0  0  0  0  0  0  0  0
    5.7250    0.3800    1.2410 C   0  0  0  0  0  0  0  0  0  0  0  0
    4.7980   -0.6810    0.7480 C   0  0  0  0  0  0  0  0  0  0  0  0
    3.8240   -1.0370    1.8730 C   0  0  0  0  0  0  0  0  0  0  0  0
    2.7320   -2.3340    1.2040 S   0  0  0  0  0  0  0  0  0  0  0  0
    1.7170   -1.6680   -0.0880 C   0  0  0  0  0  0  0  0  0  0  0  0
    2.1560   -1.6590   -1.3560 N   0  0  0  0  0  0  0  0  0  0  0  0
    1.4590   -1.1880   -2.3970 C   0  0  0  0  0  0  0  0  0  0  0  0
    2.0360   -1.2320   -3.6950 N   0  0  0  0  0  0  0  0  0  0  0  0
    0.2000   -0.6750   -2.1520 C   0  0  0  0  0  0  0  0  0  0  0  0
   -0.7310   -0.1440   -2.9510 N   0  0  0  0  0  0  0  0  0  0  0  0
   -1.7840    0.1950   -2.1930 C   0  0  0  0  0  0  0  0  0  0  0  0
   -1.5240   -0.1230   -0.8980 N   0  0  0  0  0  0  0  0  0  0  0  0
   -2.4130    0.0780    0.2350 C   0  0  2  0  0  0  0  0  0  0  0  0
   -3.3550   -0.9450    0.3050 O   0  0  0  0  0  0  0  0  0  0  0  0
   -4.4410   -0.3870    0.9710 C   0  0  2  0  0  0  0  0  0  0  0  0
   -5.6770   -1.2390    0.8390 C   0  0  0  0  0  0  0  0  0  0  0  0
   -6.6920   -0.5600    1.5550 O   0  0  0  0  0  0  0  0  0  0  0  0
   -4.6120    0.9220    0.2340 C   0  0  1  0  0  0  0  0  0  0  0  0
   -5.3300    1.8160    1.0250 O   0  0  0  0  0  0  0  0  0  0  0  0
   -3.1710    1.3570    0.0640 C   0  0  1  0  0  0  0  0  0  0  0  0
   -2.9230    2.2620    1.1240 O   0  0  0  0  0  0  0  0  0  0  0  0
   -0.2790   -0.6680   -0.8770 C   0  0  0  0  0  0  0  0  0  0  0  0
    0.4840   -1.1620    0.1280 N   0  0  0  0  0  0  0  0  0  0  0  0
  1  2  1  0
  2  3  1  0
  3  4  1  0
  4  5  1  0
  5  6  1  0
  6  7  2  0
  6 24  1  0
  7  8  1  0
  8  9  1  0
  8 10  2  0
 10 11  1  0
 10 23  1  0
 11 12  2  0
 12 13  1  0
 14 13  1  6
 13 23  1  0
 14 15  1  0
 14 21  1  0
 15 16  1  0
 16 17  1  6
 16 19  1  0
 17 18  1  0
 19 20  1  1
 19 21  1  0
 21 22  1  1
 23 24  2  0
M  END
