
     RDKit          3D

 24 25  0  0  0  0  0  0  0  0999 V2000
   -6.8860    0.6790    0.1800 C   0  0  0  0  0  0  0  0  0  0  0  0
   -6.4120   -0.1680   -0.7710 O   0  0  0  0  0  0  0  0  0  0  0  0
   -5.5700   -1.1660   -0.3980 C   0  0  0  0  0  0  0  0  0  0  0  0
   -4.2800   -0.7820    0.2400 C   0  0  1  0  0  0  0  0  0  0  0  0
   -3.3470   -0.1280   -0.7830 C   0  0  0  0  0  0  0  0  0  0  0  0
   -2.0560   -0.0400   -0.1680 N   0  0  0  0  0  0  0  0  0  0  0  0
   -0.8790   -0.3290   -0.8800 C   0  0  0  0  0  0  0  0  0  0  0  0
   -0.9680   -0.6730   -2.0860 O   0  0  0  0  0  0  0  0  0  0  0  0
    0.4170   -0.2360   -0.2460 N   0  0  0  0  0  0  0  0  0  0  0  0
    1.5330   -0.5450   -1.0380 C   0  0  0  0  0  0  0  0  0  0  0  0
    2.8730   -0.4650   -0.4400 C   0  0  0  0  0  0  0  0  0  0  0  0
    3.0650   -0.1170    0.8050 C   0  0  0  0  0  0  0  0  0  0  0  0
    4.5960    0.0430    1.7250 S   0  0  0  0  0  0  0  0  0  0  0  0
    5.8910    0.6350    0.6210 C   0  0  0  0  0  0  0  0  0  0  0  0
    6.8890    1.5240    1.2010 C   0  0  0  0  0  0  0  0  0  0  0  0
    7.9500    2.0550    0.4440 N   0  0  0  0  0  0  0  0  0  0  0  0
    6.8380    1.8530    2.4210 O   0  0  0  0  0  0  0  0  0  0  0  0
    5.9650    0.3200   -0.6070 N   0  0  0  0  0  0  0  0  0  0  0  0
    5.1890   -0.4860   -1.4500 C   0  0  0  0  0  0  0  0  0  0  0  0
    3.9250   -0.8300   -1.4140 C   0  0  0  0  0  0  0  0  0  0  0  0
    3.4660   -1.7010   -2.4790 N   0  0  0  0  0  0  0  0  0  0  0  0
   -1.9760    0.3540    1.2100 C   0  0  0  0  0  0  0  0  0  0  0  0
   -3.3500    0.8170    1.6400 C   0  0  0  0  0  0  0  0  0  0  0  0
   -4.3450   -0.0890    1.4080 O   0  0  0  0  0  0  0  0  0  0  0  0
  1  2  1  0
  2  3  1  0
  4  3  1  6
  4  5  1  0
  4 24  1  0
  5  6  1  0
  6  7  1  0
  6 22  1  0
  7  8  2  0
  7  9  1  0
  9 10  1  0
 10 11  1  0
 11 12  2  0
 11 20  1  0
 12 13  1  0
 13 14  1  0
 14 15  1  0
 14 18  2  0
 15 16  1  0
 15 17  2  0
 18 19  1  0
 19 20  2  0
 20 21  1  0
 22 23  1  0
 23 24  1  0
M  END
