
     RDKit          3D

 27 27  0  0  0  0  0  0  0  0999 V2000
    6.9660    0.5960   -0.8640 C   0  0  0  0  0  0  0  0  0  0  0  0
    6.5960    1.5150    0.2720 C   0  0  0  0  0  0  0  0  0  0  0  0
    5.1100    1.6830    0.4350 C   0  0  0  0  0  0  0  0  0  0  0  0
    4.4310    0.3400    0.7170 C   0  0  0  0  0  0  0  0  0  0  0  0
    2.9730    0.5900    0.8650 C   0  0  0  0  0  0  0  0  0  0  0  0
    2.1920   -0.6630    1.1590 C   0  0  2  0  0  0  0  0  0  0  0  0
    2.3720   -1.6340    0.0410 C   0  0  0  0  0  0  0  0  0  0  0  0
    1.6170   -2.9000    0.2610 C   0  0  0  0  0  0  0  0  0  0  0  0
    0.9170   -3.1180    1.2620 O   0  0  0  0  0  0  0  0  0  0  0  0
    1.7270   -3.8910   -0.7540 N   0  0  0  0  0  0  0  0  0  0  0  0
    1.1000   -5.0850   -0.6910 O   0  0  0  0  0  0  0  0  0  0  0  0
    0.7700   -0.3490    1.4320 C   0  0  0  0  0  0  0  0  0  0  0  0
    0.2800   -0.6820    2.5370 O   0  0  0  0  0  0  0  0  0  0  0  0
   -0.0590    0.3110    0.4930 N   0  0  0  0  0  0  0  0  0  0  0  0
   -1.4790    0.6030    0.8100 C   0  0  2  0  0  0  0  0  0  0  0  0
   -2.3470    0.0070   -0.2360 C   0  0  0  0  0  0  0  0  0  0  0  0
   -1.8080   -0.0660   -1.3800 O   0  0  0  0  0  0  0  0  0  0  0  0
   -3.6490   -0.4360    0.0330 N   0  0  0  0  0  0  0  0  0  0  0  0
   -4.3390   -0.4300    1.3090 C   0  0  0  0  0  0  0  0  0  0  0  0
   -5.6880    0.1550    0.9110 C   0  0  0  0  0  0  0  0  0  0  0  0
   -5.8070   -0.0900   -0.6000 C   0  0  0  0  0  0  0  0  0  0  0  0
   -4.6500   -0.9990   -0.8460 C   0  0  1  0  0  0  0  0  0  0  0  0
   -4.2570   -1.2080   -2.2480 C   0  0  0  0  0  0  0  0  0  0  0  0
   -3.1790   -2.0880   -2.3140 O   0  0  0  0  0  0  0  0  0  0  0  0
   -1.6150    2.1140    0.7760 C   0  0  2  0  0  0  0  0  0  0  0  0
   -2.9800    2.6280    1.0640 C   0  0  0  0  0  0  0  0  0  0  0  0
   -1.1560    2.6840   -0.5480 C   0  0  0  0  0  0  0  0  0  0  0  0
  1  2  1  0
  2  3  1  0
  3  4  1  0
  4  5  1  0
  6  5  1  6
  6  7  1  0
  6 12  1  0
  7  8  1  0
  8  9  2  0
  8 10  1  0
 10 11  1  0
 12 13  2  0
 12 14  1  0
 15 14  1  6
 15 16  1  0
 15 25  1  0
 16 17  2  0
 16 18  1  0
 18 19  1  0
 18 22  1  0
 19 20  1  0
 20 21  1  0
 21 22  1  0
 22 23  1  6
 23 24  1  0
 25 26  1  6
 25 27  1  0
M  END
