
     RDKit          3D

 24 26  0  0  0  0  0  0  0  0999 V2000
    6.9020   -1.4770    0.8230 C   0  0  0  0  0  0  0  0  0  0  0  0
    6.2190   -0.3910    0.0620 C   0  0  0  0  0  0  0  0  0  0  0  0
    5.0840    0.2430    0.8760 C   0  0  0  0  0  0  0  0  0  0  0  0
    4.4690    1.2980    0.0540 N   0  0  0  0  0  0  0  0  0  0  0  0
    3.1770    1.6550    0.5190 C   0  0  0  0  0  0  0  0  0  0  0  0
    2.0410    1.4680   -0.4260 C   0  0  1  0  0  0  0  0  0  0  0  0
    2.1700    2.2570   -1.6960 C   0  0  0  0  0  0  0  0  0  0  0  0
    2.8050    1.2870   -2.6040 C   0  0  0  0  0  0  0  0  0  0  0  0
    2.6910    0.0420   -2.1720 C   0  0  0  0  0  0  0  0  0  0  0  0
    1.9450    0.0660   -0.8940 C   0  0  2  0  0  0  0  0  0  0  0  0
    0.5410   -0.3860   -1.2300 C   0  0  0  0  0  0  0  0  0  0  0  0
   -0.4260   -0.3230   -0.0960 C   0  0  2  0  0  0  0  0  0  0  0  0
   -0.0040   -1.1770    1.0540 C   0  0  0  0  0  0  0  0  0  0  0  0
   -1.0250   -2.0150    1.5980 N   0  0  0  0  0  0  0  0  0  0  0  0
   -2.0690   -1.3210    2.2820 C   0  0  0  0  0  0  0  0  0  0  0  0
   -2.5640   -0.0920    1.6180 C   0  0  0  0  0  0  0  0  0  0  0  0
   -2.9260   -0.2730    0.1680 C   0  0  1  0  0  0  0  0  0  0  0  0
   -4.0330   -1.2870    0.0820 C   0  0  0  0  0  0  0  0  0  0  0  0
   -5.3030   -0.8440    0.7550 C   0  0  0  0  0  0  0  0  0  0  0  0
   -5.7210    0.5290    0.3300 C   0  0  0  0  0  0  0  0  0  0  0  0
   -4.8160    1.1520   -0.6840 C   0  0  2  0  0  0  0  0  0  0  0  0
   -5.1560    0.5990   -2.0500 C   0  0  0  0  0  0  0  0  0  0  0  0
   -3.3660    1.0670   -0.3640 C   0  0  0  0  0  0  0  0  0  0  0  0
   -1.7780   -0.7710   -0.6650 C   0  0  0  0  0  0  0  0  0  0  0  0
  1  2  1  0
  2  3  1  0
  3  4  1  0
  4  5  1  0
  6  5  1  1
  6  7  1  0
  6 10  1  0
  7  8  1  0
  8  9  2  0
  9 10  1  0
 10 11  1  6
 12 11  1  6
 12 13  1  0
 12 24  1  0
 13 14  1  0
 14 15  1  0
 15 16  1  0
 17 16  1  1
 17 18  1  0
 17 23  1  0
 17 24  1  0
 18 19  1  0
 19 20  1  0
 20 21  1  0
 21 22  1  6
 21 23  1  0
M  CHG  2   4   1  14   1
M  END
