
     RDKit          3D

 24 26  0  0  0  0  0  0  0  0999 V2000
    4.5370    2.5860    1.4800 C   0  0  0  0  0  0  0  0  0  0  0  0
    4.4940    1.2060    0.8470 C   0  0  1  0  0  0  0  0  0  0  0  0
    5.8360    1.0010    0.1680 C   0  0  0  0  0  0  0  0  0  0  0  0
    4.3290    0.2120    1.9680 C   0  0  0  0  0  0  0  0  0  0  0  0
    4.1960   -1.2080    1.4710 C   0  0  0  0  0  0  0  0  0  0  0  0
    3.7670   -1.2810    0.0360 C   0  0  0  0  0  0  0  0  0  0  0  0
    2.7770   -0.1990   -0.3310 C   0  0  1  0  0  0  0  0  0  0  0  0
    2.4900   -0.3180   -1.8110 C   0  0  0  0  0  0  0  0  0  0  0  0
    1.8740   -1.6340   -2.1360 C   0  0  0  0  0  0  0  0  0  0  0  0
    0.7630   -1.9290   -1.2070 C   0  0  0  0  0  0  0  0  0  0  0  0
    0.3800   -0.7590   -0.3930 N   0  0  1  0  0  0  0  0  0  0  0  0
   -0.6910   -1.1540    0.4040 C   0  0  0  0  0  0  0  0  0  0  0  0
   -2.0130   -0.4890    0.3730 C   0  0  0  0  0  0  0  0  0  0  0  0
   -2.8410   -0.4880   -0.8360 C   0  0  2  0  0  0  0  0  0  0  0  0
   -2.2200    0.1720   -2.0100 C   0  0  0  0  0  0  0  0  0  0  0  0
   -1.8590    1.5460   -1.8370 N   0  0  0  0  0  0  0  0  0  0  0  0
   -4.3100   -0.2570   -0.6770 C   0  0  1  0  0  0  0  0  0  0  0  0
   -5.0530   -1.2310    0.1560 C   0  0  0  0  0  0  0  0  0  0  0  0
   -5.4090   -0.8620    1.5500 C   0  0  0  0  0  0  0  0  0  0  0  0
   -6.0480    0.5080    1.6220 C   0  0  0  0  0  0  0  0  0  0  0  0
   -4.9400    1.4380    1.0990 C   0  0  0  0  0  0  0  0  0  0  0  0
   -4.7990    1.1040   -0.3560 C   0  0  0  0  0  0  0  0  0  0  0  0
    1.5290   -0.4110    0.4750 C   0  0  0  0  0  0  0  0  0  0  0  0
    3.3540    1.1840   -0.1190 C   0  0  0  0  0  0  0  0  0  0  0  0
  2  1  1  1
  2  3  1  0
  2  4  1  0
  2 24  1  0
  4  5  1  0
  5  6  1  0
  7  6  1  1
  7  8  1  0
  7 23  1  0
  7 24  1  0
  8  9  1  0
  9 10  1  0
 10 11  1  0
 11 12  1  1
 11 23  1  0
 12 13  1  0
 14 13  1  1
 14 15  1  0
 14 17  1  0
 15 16  1  0
 17 18  1  1
 17 22  1  0
 18 19  1  0
 19 20  1  0
 20 21  1  0
 21 22  1  0
M  CHG  2  11   1  16   1
M  END
