
     RDKit          3D

 24 26  0  0  0  0  0  0  0  0999 V2000
    5.5900   -0.0580   -0.9050 C   0  0  0  0  0  0  0  0  0  0  0  0
    4.1720    0.4000   -0.5550 C   0  0  1  0  0  0  0  0  0  0  0  0
    3.3990    0.4500   -1.8220 C   0  0  0  0  0  0  0  0  0  0  0  0
    3.6490   -0.4920    0.5150 C   0  0  2  0  0  0  0  0  0  0  0  0
    3.5990   -1.9240    0.0920 C   0  0  0  0  0  0  0  0  0  0  0  0
    2.6970   -2.6350    1.0790 C   0  0  0  0  0  0  0  0  0  0  0  0
    1.2830   -2.1980    0.7780 C   0  0  0  0  0  0  0  0  0  0  0  0
    1.1670   -0.7220    0.4560 C   0  0  1  0  0  0  0  0  0  0  0  0
   -0.1830   -0.1770    0.6090 C   0  0  2  0  0  0  0  0  0  0  0  0
   -1.1620   -0.8070   -0.2700 N   0  0  0  0  0  0  0  0  0  0  0  0
   -2.3440   -1.2770    0.4170 C   0  0  2  0  0  0  0  0  0  0  0  0
   -2.3910   -2.8110    0.4520 C   0  0  0  0  0  0  0  0  0  0  0  0
   -2.8220   -3.2830   -0.9160 C   0  0  0  0  0  0  0  0  0  0  0  0
   -4.3490   -3.1660   -0.9290 C   0  0  0  0  0  0  0  0  0  0  0  0
   -4.6770   -1.9510   -0.0960 C   0  0  0  0  0  0  0  0  0  0  0  0
   -3.6240   -0.8790   -0.3250 C   0  0  0  0  0  0  0  0  0  0  0  0
   -0.3150    1.2880    0.7340 C   0  0  2  0  0  0  0  0  0  0  0  0
    0.2940    1.9290    1.9420 C   0  0  0  0  0  0  0  0  0  0  0  0
   -1.7450    1.7900    0.5660 C   0  0  0  0  0  0  0  0  0  0  0  0
   -1.8160    3.2250    0.6800 N   0  0  0  0  0  0  0  0  0  0  0  0
   -0.9690    3.9250   -0.2710 C   0  0  2  0  0  0  0  0  0  0  0  0
   -1.4930    5.3300   -0.6230 C   0  0  0  0  0  0  0  0  0  0  0  0
   -1.5960    4.2680   -1.6540 C   0  0  0  0  0  0  0  0  0  0  0  0
    2.2940   -0.0190    1.0690 C   0  0  0  0  0  0  0  0  0  0  0  0
  2  1  1  6
  2  3  1  0
  2  4  1  0
  4  5  1  6
  4 24  1  0
  5  6  1  0
  6  7  1  0
  8  7  1  1
  8  9  1  0
  8 24  1  0
  9 10  1  6
  9 17  1  0
 11 10  1  6
 11 12  1  0
 11 16  1  0
 12 13  1  0
 13 14  1  0
 14 15  1  0
 15 16  1  0
 17 18  1  1
 17 19  1  0
 19 20  1  0
 21 20  1  1
 21 22  1  0
 21 23  1  0
 22 23  1  0
M  CHG  2  10   1  20   1
M  END
