
     RDKit          3D

 24 25  0  0  0  0  0  0  0  0999 V2000
   -6.0430   -2.2180    1.8670 C   0  0  0  0  0  0  0  0  0  0  0  0
   -4.5900   -2.4240    1.4940 C   0  0  0  0  0  0  0  0  0  0  0  0
   -3.9210   -1.0590    1.3750 C   0  0  0  0  0  0  0  0  0  0  0  0
   -2.5540   -1.1390    1.0230 N   0  0  0  0  0  0  0  0  0  0  0  0
   -2.1590   -0.8980   -0.3110 C   0  0  1  0  0  0  0  0  0  0  0  0
   -3.3950   -0.6740   -1.2250 C   0  0  0  0  0  0  0  0  0  0  0  0
   -3.6130    0.8010   -1.1840 C   0  0  0  0  0  0  0  0  0  0  0  0
   -2.5170    1.3620   -0.2750 C   0  0  0  0  0  0  0  0  0  0  0  0
   -1.4030    0.3840   -0.5330 C   0  0  0  0  0  0  0  0  0  0  0  0
   -0.1570    0.6760   -0.8470 C   0  0  0  0  0  0  0  0  0  0  0  0
    0.0880    2.1650   -0.9690 C   0  0  0  0  0  0  0  0  0  0  0  0
    0.7150    2.6940    0.3050 C   0  0  0  0  0  0  0  0  0  0  0  0
    0.9840    4.1100    0.1880 N   0  0  0  0  0  0  0  0  0  0  0  0
    2.2210    4.4960    0.8370 C   0  0  0  0  0  0  0  0  0  0  0  0
    0.9240   -0.2700   -0.8580 C   0  0  0  0  0  0  0  0  0  0  0  0
    2.1670   -0.0680   -1.3330 C   0  0  0  0  0  0  0  0  0  0  0  0
    2.6300    1.1650   -1.9310 C   0  0  0  0  0  0  0  0  0  0  0  0
    3.0910   -1.2570   -1.3100 C   0  0  1  0  0  0  0  0  0  0  0  0
    4.3730   -0.9800   -2.0090 C   0  0  0  0  0  0  0  0  0  0  0  0
    5.2600   -2.2310   -1.9570 C   0  0  0  0  0  0  0  0  0  0  0  0
    3.2440   -1.7370    0.0790 C   0  0  0  0  0  0  0  0  0  0  0  0
    1.9770   -1.6950    0.8230 C   0  0  1  0  0  0  0  0  0  0  0  0
    1.9160   -0.5990    1.8700 C   0  0  0  0  0  0  0  0  0  0  0  0
    0.7660   -1.5830   -0.1110 C   0  0  0  0  0  0  0  0  0  0  0  0
  1  2  1  0
  2  3  1  0
  3  4  1  0
  5  4  1  1
  5  6  1  0
  5  9  1  0
  6  7  1  0
  7  8  1  0
  8  9  1  0
  9 10  2  3
 10 11  1  0
 10 15  1  0
 11 12  1  0
 12 13  1  0
 13 14  1  0
 15 16  2  0
 15 24  1  0
 16 17  1  0
 16 18  1  0
 18 19  1  1
 18 21  1  0
 19 20  1  0
 21 22  1  0
 22 23  1  1
 22 24  1  0
M  CHG  2   4   1  13   1
M  END
