
     RDKit          3D

 24 26  0  0  0  0  0  0  0  0999 V2000
   -3.4330    3.9910   -1.0140 C   0  0  0  0  0  0  0  0  0  0  0  0
   -3.2570    2.5290   -0.5980 C   0  0  0  0  0  0  0  0  0  0  0  0
   -1.8260    2.1340   -0.8310 C   0  0  2  0  0  0  0  0  0  0  0  0
   -1.3620    2.2250   -2.2350 C   0  0  0  0  0  0  0  0  0  0  0  0
   -1.4730    0.7750   -0.1570 C   0  0  2  0  0  0  0  0  0  0  0  0
   -1.7260    1.0440    1.2410 N   0  0  0  0  0  0  0  0  0  0  0  0
   -0.0300    0.6060   -0.4790 C   0  0  0  0  0  0  0  0  0  0  0  0
    0.6340   -0.6250    0.0610 C   0  0  0  0  0  0  0  0  0  0  0  0
    2.1000   -0.7070   -0.2850 C   0  0  2  0  0  0  0  0  0  0  0  0
    2.5970   -2.0130    0.3100 C   0  0  0  0  0  0  0  0  0  0  0  0
    4.0540   -2.2580    0.0280 C   0  0  2  0  0  0  0  0  0  0  0  0
    4.7690   -2.2140    1.3690 C   0  0  0  0  0  0  0  0  0  0  0  0
    4.5050   -0.7420    1.7310 C   0  0  0  0  0  0  0  0  0  0  0  0
    4.3810   -0.0010    0.4450 C   0  0  1  0  0  0  0  0  0  0  0  0
    4.6870   -1.0220   -0.6320 C   0  0  0  0  0  0  0  0  0  0  0  0
    2.9340    0.4600    0.1550 C   0  0  1  0  0  0  0  0  0  0  0  0
    3.0730    1.4290   -1.0060 C   0  0  0  0  0  0  0  0  0  0  0  0
    2.4640    1.2150    1.3360 C   0  0  0  0  0  0  0  0  0  0  0  0
   -2.4600   -0.1440   -0.7030 C   0  0  0  0  0  0  0  0  0  0  0  0
   -2.5550   -1.5110   -0.4170 N   0  0  2  0  0  0  0  0  0  0  0  0
   -3.9370   -1.9030   -0.8050 C   0  0  0  0  0  0  0  0  0  0  0  0
   -4.4860   -2.7330    0.3100 C   0  0  0  0  0  0  0  0  0  0  0  0
   -3.7850   -2.0740    1.5090 C   0  0  0  0  0  0  0  0  0  0  0  0
   -2.3850   -1.9800    0.9040 C   0  0  0  0  0  0  0  0  0  0  0  0
  1  2  1  0
  2  3  1  0
  3  4  1  6
  3  5  1  0
  5  6  1  1
  5  7  1  0
  5 19  1  0
  7  8  1  0
  9  8  1  1
  9 10  1  0
  9 16  1  0
 11 10  1  1
 11 12  1  0
 11 15  1  0
 12 13  1  0
 14 13  1  1
 14 15  1  0
 14 16  1  0
 16 17  1  6
 16 18  1  0
 20 19  1  1
 20 21  1  0
 20 24  1  0
 21 22  1  0
 22 23  1  0
 23 24  1  0
M  CHG  2   6   1  20   1
M  END
