
     RDKit          3D

 24 25  0  0  0  0  0  0  0  0999 V2000
   -3.5610   -2.3710    1.1580 C   0  0  0  0  0  0  0  0  0  0  0  0
   -2.1170   -2.3380    0.8380 C   0  0  0  0  0  0  0  0  0  0  0  0
   -1.6930   -1.5630   -0.3710 C   0  0  1  0  0  0  0  0  0  0  0  0
   -2.3620   -2.1130   -1.5960 C   0  0  0  0  0  0  0  0  0  0  0  0
   -1.9490   -3.5680   -1.7390 C   0  0  0  0  0  0  0  0  0  0  0  0
   -1.5170   -0.1150   -0.2810 C   0  0  2  0  0  0  0  0  0  0  0  0
   -0.4800    0.1720    0.7390 N   0  0  0  0  0  0  0  0  0  0  0  0
    0.7430   -0.4840    0.4510 C   0  0  0  0  0  0  0  0  0  0  0  0
    2.0100    0.1960    0.9310 C   0  0  1  0  0  0  0  0  0  0  0  0
    2.1030    1.5350    0.2510 C   0  0  0  0  0  0  0  0  0  0  0  0
    1.9580    0.4820    2.4150 C   0  0  0  0  0  0  0  0  0  0  0  0
    3.1570   -0.6510    0.5330 C   0  0  0  0  0  0  0  0  0  0  0  0
    4.5260   -0.2690    0.8840 C   0  0  1  0  0  0  0  0  0  0  0  0
    5.4200   -1.4140    0.3190 C   0  0  0  0  0  0  0  0  0  0  0  0
    5.9190   -0.8940   -1.0110 C   0  0  0  0  0  0  0  0  0  0  0  0
    5.3730    0.4380   -1.1850 N   0  0  0  0  0  0  0  0  0  0  0  0
    5.1760    0.8630    0.1750 C   0  0  0  0  0  0  0  0  0  0  0  0
   -2.5950    0.8590   -0.3530 C   0  0  1  0  0  0  0  0  0  0  0  0
   -3.7150    0.9500    0.5580 C   0  0  0  0  0  0  0  0  0  0  0  0
   -3.4180    1.1970    2.0160 C   0  0  0  0  0  0  0  0  0  0  0  0
   -1.9240    2.2510   -0.4050 C   0  0  0  0  0  0  0  0  0  0  0  0
   -2.9480    3.1640   -1.0330 C   0  0  0  0  0  0  0  0  0  0  0  0
   -3.7310    2.2920   -1.9410 C   0  0  0  0  0  0  0  0  0  0  0  0
   -3.1690    0.8710   -1.7930 C   0  0  0  0  0  0  0  0  0  0  0  0
  1  2  1  0
  3  2  1  1
  3  4  1  0
  3  6  1  0
  4  5  1  0
  6  7  1  1
  6 18  1  0
  7  8  1  0
  8  9  1  0
  9 10  1  6
  9 11  1  0
  9 12  1  0
 13 12  1  6
 13 14  1  0
 13 17  1  0
 14 15  1  0
 15 16  1  0
 16 17  1  0
 18 19  1  1
 18 21  1  0
 18 24  1  0
 19 20  1  0
 21 22  1  0
 22 23  1  0
 23 24  1  0
M  CHG  2   7   1  16   1
M  END
