
     RDKit          3D

 24 26  0  0  0  0  0  0  0  0999 V2000
    4.5200   -0.3790    2.8910 C   0  0  0  0  0  0  0  0  0  0  0  0
    3.5030   -0.6450    1.7570 C   0  0  0  0  0  0  0  0  0  0  0  0
    3.5290    0.5750    0.8550 C   0  0  1  0  0  0  0  0  0  0  0  0
    4.9720    0.6520    0.3880 C   0  0  1  0  0  0  0  0  0  0  0  0
    5.5300   -0.5550   -0.3370 C   0  0  0  0  0  0  0  0  0  0  0  0
    5.4190    0.7750   -0.9840 C   0  0  0  0  0  0  0  0  0  0  0  0
    2.5510    0.4600   -0.3220 C   0  0  2  0  0  0  0  0  0  0  0  0
    2.6670    1.7790   -1.0580 C   0  0  0  0  0  0  0  0  0  0  0  0
    1.2010    0.2500    0.1970 C   0  0  0  0  0  0  0  0  0  0  0  0
    0.0350    0.0540   -0.7060 C   0  0  2  0  0  0  0  0  0  0  0  0
   -0.3160    1.1420   -1.6220 C   0  0  0  0  0  0  0  0  0  0  0  0
   -0.9560    2.2600   -0.8160 C   0  0  0  0  0  0  0  0  0  0  0  0
   -2.2780    1.6740   -0.3640 C   0  0  2  0  0  0  0  0  0  0  0  0
   -2.9490    2.7200    0.5090 C   0  0  0  0  0  0  0  0  0  0  0  0
   -4.2900    2.2430    1.0230 C   0  0  0  0  0  0  0  0  0  0  0  0
   -4.8250    3.3310    1.8410 N   0  0  0  0  0  0  0  0  0  0  0  0
   -2.1740    0.3680    0.3090 C   0  0  0  0  0  0  0  0  0  0  0  0
   -1.0760   -0.4790    0.0480 N   0  0  1  0  0  0  0  0  0  0  0  0
   -1.4230   -1.7860   -0.4800 C   0  0  1  0  0  0  0  0  0  0  0  0
   -2.1550   -2.6030    0.5760 C   0  0  0  0  0  0  0  0  0  0  0  0
   -2.1670   -4.0230   -0.0010 C   0  0  0  0  0  0  0  0  0  0  0  0
   -3.1090   -4.0020   -1.1500 C   0  0  0  0  0  0  0  0  0  0  0  0
   -2.8410   -2.9730   -2.1840 C   0  0  0  0  0  0  0  0  0  0  0  0
   -2.0890   -1.7820   -1.7940 C   0  0  0  0  0  0  0  0  0  0  0  0
  1  2  1  0
  3  2  1  1
  3  4  1  0
  3  7  1  0
  4  5  1  6
  4  6  1  0
  5  6  1  0
  7  8  1  1
  7  9  1  0
 10  9  1  1
 10 11  1  0
 10 18  1  0
 11 12  1  0
 12 13  1  0
 13 14  1  1
 13 17  1  0
 14 15  1  0
 15 16  1  0
 18 17  1  6
 18 19  1  0
 19 20  1  1
 19 24  1  0
 20 21  1  0
 21 22  1  0
 22 23  1  0
 23 24  1  0
M  CHG  2  16   1  18   1
M  END
