
     RDKit          3D

 19 20  0  0  0  0  0  0  0  0999 V2000
    4.6130   -1.0170   -0.7820 C   0  0  0  0  0  0  0  0  0  0  0  0
    3.9480    0.1510   -0.3670 O   0  0  0  0  0  0  0  0  0  0  0  0
    2.5990    0.1640   -0.1260 C   0  0  0  0  0  0  0  0  0  0  0  0
    1.8700   -1.0160   -0.3000 C   0  0  0  0  0  0  0  0  0  0  0  0
    0.5250   -1.0320   -0.0690 C   0  0  0  0  0  0  0  0  0  0  0  0
   -0.0700    0.1450    0.3370 C   0  0  0  0  0  0  0  0  0  0  0  0
    0.6330    1.3210    0.5140 C   0  0  0  0  0  0  0  0  0  0  0  0
    1.9920    1.3390    0.2800 C   0  0  0  0  0  0  0  0  0  0  0  0
    2.7840    2.4620    0.4280 O   0  0  0  0  0  0  0  0  0  0  0  0
    2.3430    3.7200    0.8270 C   0  0  0  0  0  0  0  0  0  0  0  0
   -1.5450    0.0850    0.5800 C   0  0  2  0  0  0  0  0  0  0  0  0
   -1.8230   -0.5910    1.9260 C   0  0  0  0  0  0  0  0  0  0  0  0
   -2.1470   -0.5840   -0.5090 N   0  0  0  0  0  0  0  0  0  0  0  0
   -3.8610   -0.5120   -0.5210 S   0  0  2  0  0  0  0  0  0  0  0  0
   -4.3230    1.1520   -0.6430 N   0  0  0  0  0  0  0  0  0  0  0  0
   -4.4020   -1.0180    0.7930 O   0  0  0  0  0  0  0  0  0  0  0  0
   -4.4220   -1.2780   -1.6650 O   0  0  0  0  0  0  0  0  0  0  0  0
   -1.6040   -1.8240   -0.8930 C   0  0  0  0  0  0  0  0  0  0  0  0
   -0.3380   -2.2290   -0.2230 C   0  0  0  0  0  0  0  0  0  0  0  0
  1  2  1  0
  2  3  1  0
  3  4  2  0
  3  8  1  0
  4  5  1  0
  5  6  2  0
  5 19  1  0
  6  7  1  0
  6 11  1  0
  7  8  2  0
  8  9  1  0
  9 10  1  0
 11 12  1  1
 11 13  1  0
 13 14  1  0
 13 18  1  0
 14 15  1  6
 14 16  2  0
 14 17  2  0
 18 19  1  0
M  END
