
     RDKit          3D

 19 21  0  0  0  0  0  0  0  0999 V2000
    5.0950    0.0940    1.6230 N   0  0  0  0  0  0  0  0  0  0  0  0
    4.4500    0.0110    0.3650 C   0  0  0  0  0  0  0  0  0  0  0  0
    5.1490    0.0940   -0.8320 C   0  0  0  0  0  0  0  0  0  0  0  0
    4.4640    0.0070   -2.0310 C   0  0  0  0  0  0  0  0  0  0  0  0
    3.0970   -0.1610   -2.0000 C   0  0  0  0  0  0  0  0  0  0  0  0
    2.4440   -0.2440   -3.0880 O   0  0  0  0  0  0  0  0  0  0  0  0
    2.4100   -0.2420   -0.8570 N   0  0  0  0  0  0  0  0  0  0  0  0
    1.0010   -0.4150   -0.8470 N   0  0  0  0  0  0  0  0  0  0  0  0
    0.3490    0.2010    0.0730 C   0  0  0  0  0  0  0  0  0  0  0  0
   -1.1090    0.0970    0.1800 C   0  0  0  0  0  0  0  0  0  0  0  0
   -1.9280   -0.6390   -0.6490 C   0  0  0  0  0  0  0  0  0  0  0  0
   -3.2590   -0.5110   -0.2570 C   0  0  0  0  0  0  0  0  0  0  0  0
   -4.4480   -1.0220   -0.7270 C   0  0  0  0  0  0  0  0  0  0  0  0
   -5.6510   -0.7210   -0.1310 C   0  0  0  0  0  0  0  0  0  0  0  0
   -5.5880    0.1240    0.9690 C   0  0  0  0  0  0  0  0  0  0  0  0
   -4.4100    0.6390    1.4480 C   0  0  0  0  0  0  0  0  0  0  0  0
   -3.2160    0.3330    0.8460 C   0  0  0  0  0  0  0  0  0  0  0  0
   -1.9220    0.6750    1.0770 N   0  0  0  0  0  0  0  0  0  0  0  0
    3.0860   -0.1560    0.3020 C   0  0  0  0  0  0  0  0  0  0  0  0
  1  2  1  0
  2  3  1  0
  2 19  2  0
  3  4  2  0
  4  5  1  0
  5  6  2  0
  5  7  1  0
  7  8  1  0
  7 19  1  0
  8  9  2  3
  9 10  1  0
 10 11  2  0
 10 18  1  0
 11 12  1  0
 12 13  2  0
 12 17  1  0
 13 14  1  0
 14 15  2  0
 15 16  1  0
 16 17  2  0
 17 18  1  0
M  END
