
     RDKit          3D

 19 21  0  0  0  0  0  0  0  0999 V2000
   -1.7910    2.1500    0.0970 C   0  0  0  0  0  0  0  0  0  0  0  0
   -2.0330    0.9500   -0.7840 C   0  0  0  0  0  0  0  0  0  0  0  0
   -2.0440   -0.3030   -0.0070 C   0  0  0  0  0  0  0  0  0  0  0  0
   -0.9880   -1.0520    0.4310 C   0  0  0  0  0  0  0  0  0  0  0  0
    0.4390   -0.8690    0.2080 C   0  0  0  0  0  0  0  0  0  0  0  0
    1.1460   -1.9880   -0.2710 C   0  0  0  0  0  0  0  0  0  0  0  0
    2.4930   -1.9660   -0.5180 C   0  0  0  0  0  0  0  0  0  0  0  0
    3.2050   -0.8220   -0.3000 C   0  0  0  0  0  0  0  0  0  0  0  0
    4.5250   -0.8070   -0.5470 N   0  0  0  0  0  0  0  0  0  0  0  0
    5.2050    0.3130   -0.3320 C   0  0  0  0  0  0  0  0  0  0  0  0
    4.5790    1.4180    0.1270 N   0  0  0  0  0  0  0  0  0  0  0  0
    3.2640    1.4410    0.3850 C   0  0  0  0  0  0  0  0  0  0  0  0
    2.7290    2.4900    0.8100 O   0  0  0  0  0  0  0  0  0  0  0  0
    2.5380    0.2930    0.1710 C   0  0  0  0  0  0  0  0  0  0  0  0
    1.1610    0.2560    0.4200 C   0  0  0  0  0  0  0  0  0  0  0  0
   -1.5480   -2.1010    1.1190 N   0  0  0  0  0  0  0  0  0  0  0  0
   -2.8580   -2.0020    1.1020 N   0  0  0  0  0  0  0  0  0  0  0  0
   -3.2430   -0.9120    0.4220 C   0  0  0  0  0  0  0  0  0  0  0  0
   -4.6070   -0.3990    0.1420 C   0  0  0  0  0  0  0  0  0  0  0  0
  1  2  1  0
  2  3  1  0
  3  4  1  0
  3 18  2  0
  4  5  1  0
  4 16  2  0
  5  6  2  0
  5 15  1  0
  6  7  1  0
  7  8  2  0
  8  9  1  0
  8 14  1  0
  9 10  2  0
 10 11  1  0
 11 12  1  0
 12 13  2  0
 12 14  1  0
 14 15  2  0
 16 17  1  0
 17 18  1  0
 18 19  1  0
M  END
