
     RDKit          3D

 19 21  0  0  0  0  0  0  0  0999 V2000
   -4.3760    1.0630   -0.9740 C   0  0  0  0  0  0  0  0  0  0  0  0
   -4.2230   -0.1240   -0.0450 C   0  0  0  0  0  0  0  0  0  0  0  0
   -2.8060   -0.4780    0.1680 C   0  0  0  0  0  0  0  0  0  0  0  0
   -2.4700   -1.6110    1.0450 C   0  0  0  0  0  0  0  0  0  0  0  0
   -1.8690    0.2160   -0.4220 C   0  0  0  0  0  0  0  0  0  0  0  0
   -0.4870   -0.0290   -0.2930 N   0  0  0  0  0  0  0  0  0  0  0  0
    0.1730   -1.1940   -0.6210 C   0  0  0  0  0  0  0  0  0  0  0  0
    1.5290   -1.0250   -0.3420 C   0  0  0  0  0  0  0  0  0  0  0  0
    2.8400   -1.4540   -0.2920 C   0  0  0  0  0  0  0  0  0  0  0  0
    3.2610   -2.7730   -0.7170 C   0  0  0  0  0  0  0  0  0  0  0  0
    4.5930   -3.2240   -0.6730 N   0  0  0  0  0  0  0  0  0  0  0  0
    2.4230   -3.6230   -1.1680 O   0  0  0  0  0  0  0  0  0  0  0  0
    3.5660   -0.4200    0.2090 N   0  0  0  0  0  0  0  0  0  0  0  0
    2.7880    0.6320    0.4780 N   0  0  0  0  0  0  0  0  0  0  0  0
    1.5870    0.2450    0.1410 C   0  0  0  0  0  0  0  0  0  0  0  0
    0.3830    0.8710    0.1810 C   0  0  0  0  0  0  0  0  0  0  0  0
    0.4000    2.2910    0.6970 C   0  0  0  0  0  0  0  0  0  0  0  0
    1.8090    2.8380    0.4980 C   0  0  0  0  0  0  0  0  0  0  0  0
    2.9110    1.9670    1.0110 C   0  0  0  0  0  0  0  0  0  0  0  0
  1  2  1  0
  2  3  1  0
  3  4  1  0
  3  5  2  3
  5  6  1  0
  6  7  1  0
  6 16  1  0
  7  8  2  0
  8  9  1  0
  8 15  1  0
  9 10  1  0
  9 13  2  0
 10 11  1  0
 10 12  2  0
 13 14  1  0
 14 15  1  0
 14 19  1  0
 15 16  2  0
 16 17  1  0
 17 18  1  0
 18 19  1  0
M  END
