
     RDKit          3D

 19 21  0  0  0  0  0  0  0  0999 V2000
   -2.1680    1.8280   -1.9040 C   0  0  0  0  0  0  0  0  0  0  0  0
   -1.9990    1.6780   -0.4160 C   0  0  0  0  0  0  0  0  0  0  0  0
   -2.1490    0.2940    0.0100 N   0  0  0  0  0  0  0  0  0  0  0  0
   -3.4330   -0.3510   -0.0710 C   0  0  0  0  0  0  0  0  0  0  0  0
   -3.7000   -1.3140    1.0270 C   0  0  0  0  0  0  0  0  0  0  0  0
   -2.5650   -1.6690    1.7790 O   0  0  0  0  0  0  0  0  0  0  0  0
   -1.2730   -1.4100    1.4200 C   0  0  0  0  0  0  0  0  0  0  0  0
   -0.1960   -2.1070    1.9240 C   0  0  0  0  0  0  0  0  0  0  0  0
    1.0570   -1.7490    1.4800 C   0  0  0  0  0  0  0  0  0  0  0  0
    1.2990   -0.7450    0.5710 C   0  0  0  0  0  0  0  0  0  0  0  0
    2.6580   -0.3970    0.1160 C   0  0  0  0  0  0  0  0  0  0  0  0
    3.7920   -1.0310    0.5720 C   0  0  0  0  0  0  0  0  0  0  0  0
    5.0130   -0.6470    0.0930 N   0  0  0  0  0  0  0  0  0  0  0  0
    5.1470    0.3340   -0.8140 C   0  0  0  0  0  0  0  0  0  0  0  0
    4.0120    0.9760   -1.2760 C   0  0  0  0  0  0  0  0  0  0  0  0
    2.7770    0.6100   -0.8110 C   0  0  0  0  0  0  0  0  0  0  0  0
    1.6100    1.2620   -1.2810 N   0  0  0  0  0  0  0  0  0  0  0  0
    0.2260   -0.0750    0.0920 N   0  0  0  0  0  0  0  0  0  0  0  0
   -1.0020   -0.3990    0.5030 C   0  0  0  0  0  0  0  0  0  0  0  0
  1  2  1  0
  2  3  1  0
  3  4  1  0
  3 19  1  0
  4  5  1  0
  5  6  1  0
  6  7  1  0
  7  8  2  0
  7 19  1  0
  8  9  1  0
  9 10  2  0
 10 11  1  0
 10 18  1  0
 11 12  2  0
 11 16  1  0
 12 13  1  0
 13 14  2  0
 14 15  1  0
 15 16  2  0
 16 17  1  0
 18 19  2  0
M  END
