
     RDKit          3D

 19 20  0  0  0  0  0  0  0  0999 V2000
   -3.2730   -1.5190   -2.5110 C   0  0  0  0  0  0  0  0  0  0  0  0
   -2.6990   -0.7040   -1.6360 C   0  0  0  0  0  0  0  0  0  0  0  0
   -1.4470   -0.0810   -1.9900 N   0  0  0  0  0  0  0  0  0  0  0  0
   -0.7940    0.7240   -1.2370 C   0  0  0  0  0  0  0  0  0  0  0  0
    0.5100    1.3230   -1.7020 C   0  0  0  0  0  0  0  0  0  0  0  0
    1.6290    0.9250   -0.9030 N   0  0  0  0  0  0  0  0  0  0  0  0
    2.0360   -0.4290   -0.7320 C   0  0  0  0  0  0  0  0  0  0  0  0
    1.3870   -1.3260   -1.3070 O   0  0  0  0  0  0  0  0  0  0  0  0
    3.2050   -0.7670    0.1120 C   0  0  0  0  0  0  0  0  0  0  0  0
    3.7070   -2.0180    0.3650 C   0  0  0  0  0  0  0  0  0  0  0  0
    4.7930   -1.8730    1.1940 C   0  0  0  0  0  0  0  0  0  0  0  0
    4.9460   -0.5320    1.4410 C   0  0  0  0  0  0  0  0  0  0  0  0
    3.9800    0.1010    0.7790 N   0  0  0  0  0  0  0  0  0  0  0  0
   -1.2810    1.0650    0.0450 N   0  0  0  0  0  0  0  0  0  0  0  0
   -0.5970    1.9800    0.9540 C   0  0  0  0  0  0  0  0  0  0  0  0
   -2.5300    0.5110    0.5330 C   0  0  0  0  0  0  0  0  0  0  0  0
   -2.9800    0.8150    1.7080 C   0  0  0  0  0  0  0  0  0  0  0  0
   -3.2620   -0.4020   -0.3350 C   0  0  0  0  0  0  0  0  0  0  0  0
   -4.3950   -0.9430    0.0320 C   0  0  0  0  0  0  0  0  0  0  0  0
  1  2  2  0
  2  3  1  0
  2 18  1  0
  3  4  2  0
  4  5  1  0
  4 14  1  0
  5  6  1  0
  6  7  1  0
  7  8  2  0
  7  9  1  0
  9 10  2  0
  9 13  1  0
 10 11  1  0
 11 12  2  0
 12 13  1  0
 14 15  1  0
 14 16  1  0
 16 17  2  0
 16 18  1  0
 18 19  2  0
M  END
