
     RDKit          3D

 34 38  0  0  0  0  0  0  0  0999 V2000
   -5.1220   -0.0100   -0.2010 C   0  0  0  0  0  0  0  0  0  0  0  0
   -4.1030   -0.7200   -0.5820 C   0  0  0  0  0  0  0  0  0  0  0  0
   -3.8630   -0.9020   -1.9380 O   0  0  0  0  0  0  0  0  0  0  0  0
   -2.7780   -1.6560   -2.3400 C   0  0  0  0  0  0  0  0  0  0  0  0
   -1.9820   -2.1960   -1.4340 C   0  0  0  0  0  0  0  0  0  0  0  0
   -2.2050   -2.0250   -0.0080 C   0  0  0  0  0  0  0  0  0  0  0  0
   -3.2250   -1.3150    0.4300 C   0  0  0  0  0  0  0  0  0  0  0  0
   -3.4410   -1.1310    1.8120 N   0  0  0  0  0  0  0  0  0  0  0  0
   -4.6760   -1.7780    2.3400 C   0  0  0  0  0  0  0  0  0  0  0  0
   -2.6460   -0.4520    2.7180 C   0  0  0  0  0  0  0  0  0  0  0  0
   -3.0620   -0.4960    3.9610 O   0  0  0  0  0  0  0  0  0  0  0  0
   -1.4460    0.2910    2.5330 C   0  0  0  0  0  0  0  0  0  0  0  0
   -0.8600    0.5040    1.2570 N   0  0  0  0  0  0  0  0  0  0  0  0
   -1.3110    1.3230    0.1210 C   0  0  0  0  0  0  0  0  0  0  0  0
   -0.0460    1.9810   -0.2320 N   0  0  0  0  0  0  0  0  0  0  0  0
    0.1660    3.3400   -0.5580 C   0  0  0  0  0  0  0  0  0  0  0  0
    1.3820    3.9410   -0.5030 C   0  0  0  0  0  0  0  0  0  0  0  0
    1.5610    5.2800   -0.8390 C   0  0  0  0  0  0  0  0  0  0  0  0
    0.4650    5.9810   -1.2300 C   0  0  0  0  0  0  0  0  0  0  0  0
    0.5900    7.6890   -1.6800 Cl  0  0  0  0  0  0  0  0  0  0  0  0
   -0.7990    5.4290   -1.3070 C   0  0  0  0  0  0  0  0  0  0  0  0
   -0.9190    4.0850   -0.9590 C   0  0  0  0  0  0  0  0  0  0  0  0
    0.9220    0.9230   -0.1830 C   0  0  0  0  0  0  0  0  0  0  0  0
    1.9770    0.8550   -0.8310 O   0  0  0  0  0  0  0  0  0  0  0  0
    0.3870   -0.0460    0.7950 C   0  0  0  0  0  0  0  0  0  0  0  0
    0.9440   -1.1630    1.1640 C   0  0  0  0  0  0  0  0  0  0  0  0
    2.2190   -1.6410    0.6320 C   0  0  0  0  0  0  0  0  0  0  0  0
    3.3330   -1.1880    0.2780 N   0  0  0  0  0  0  0  0  0  0  0  0
    4.3260   -1.8780   -0.1920 C   0  0  0  0  0  0  0  0  0  0  0  0
    4.1570   -3.2250   -0.3190 C   0  0  0  0  0  0  0  0  0  0  0  0
    2.5090   -3.4550    0.2680 S   0  0  0  0  0  0  0  0  0  0  0  0
    5.3540   -3.8980   -0.8750 C   0  0  0  0  0  0  0  0  0  0  0  0
    5.9850   -2.7480   -1.6290 C   0  0  0  0  0  0  0  0  0  0  0  0
    5.7410   -1.6080   -0.6760 C   0  0  0  0  0  0  0  0  0  0  0  0
  1  2  2  0
  2  3  1  0
  2  7  1  0
  3  4  1  0
  4  5  2  0
  5  6  1  0
  6  7  2  0
  7  8  1  0
  8  9  1  0
  8 10  1  0
 10 11  2  0
 10 12  1  0
 12 13  1  0
 13 14  1  0
 13 25  1  0
 14 15  1  0
 15 16  1  0
 15 23  1  0
 16 17  2  0
 16 22  1  0
 17 18  1  0
 18 19  2  0
 19 20  1  0
 19 21  1  0
 21 22  2  0
 23 24  2  0
 23 25  1  0
 25 26  2  3
 26 27  1  0
 27 28  2  0
 27 31  1  0
 28 29  1  0
 29 30  2  0
 29 34  1  0
 30 31  1  0
 30 32  1  0
 32 33  1  0
 33 34  1  0
M  END
