
     RDKit          3D

 35 39  0  0  0  0  0  0  0  0999 V2000
    5.3300    1.6600    2.6950 C   0  0  0  0  0  0  0  0  0  0  0  0
    5.4600    1.9150    1.2170 C   0  0  0  0  0  0  0  0  0  0  0  0
    6.1940    2.8420    0.8370 O   0  0  0  0  0  0  0  0  0  0  0  0
    4.7700    1.1330    0.2940 N   0  0  0  0  0  0  0  0  0  0  0  0
    4.7850    1.2350   -1.1090 C   0  0  0  0  0  0  0  0  0  0  0  0
    5.4830    2.1550   -1.8350 C   0  0  0  0  0  0  0  0  0  0  0  0
    5.4790    2.2450   -3.2080 C   0  0  0  0  0  0  0  0  0  0  0  0
    4.6950    1.3310   -3.9420 C   0  0  0  0  0  0  0  0  0  0  0  0
    4.6830    1.4500   -5.6880 Cl  0  0  0  0  0  0  0  0  0  0  0  0
    4.0010    0.4240   -3.1980 C   0  0  0  0  0  0  0  0  0  0  0  0
    4.0030    0.3240   -1.8510 C   0  0  0  0  0  0  0  0  0  0  0  0
    3.2510   -0.6800   -1.1140 C   0  0  0  0  0  0  0  0  0  0  0  0
    1.9280   -0.5040   -0.7570 C   0  0  0  0  0  0  0  0  0  0  0  0
    1.2750   -1.5350   -0.0690 C   0  0  0  0  0  0  0  0  0  0  0  0
   -0.1490   -1.4380    0.2360 C   0  0  0  0  0  0  0  0  0  0  0  0
   -0.7090   -2.4020    0.6680 O   0  0  0  0  0  0  0  0  0  0  0  0
   -0.8860   -0.2630    0.0320 N   0  0  0  0  0  0  0  0  0  0  0  0
   -2.2830   -0.1750    0.2510 C   0  0  0  0  0  0  0  0  0  0  0  0
   -2.7580    1.3140    0.1890 C   0  0  1  0  0  0  0  0  0  0  0  0
   -1.7960    2.2810    0.8270 C   0  0  0  0  0  0  0  0  0  0  0  0
   -2.0560    2.2420   -0.7150 C   0  0  0  0  0  0  0  0  0  0  0  0
   -3.0940   -1.0320    0.6320 N   0  0  0  0  0  0  0  0  0  0  0  0
   -3.1280   -2.3810    1.0540 C   0  0  0  0  0  0  0  0  0  0  0  0
   -3.9170   -2.5220    2.3960 C   0  0  0  0  0  0  0  0  0  0  0  0
   -4.9920   -1.6340    2.4160 O   0  0  0  0  0  0  0  0  0  0  0  0
   -5.4060   -0.9140    1.3220 C   0  0  0  0  0  0  0  0  0  0  0  0
   -6.7160   -0.5220    1.1340 C   0  0  0  0  0  0  0  0  0  0  0  0
   -7.0400    0.1900    0.0000 C   0  0  0  0  0  0  0  0  0  0  0  0
   -6.1120    0.5360   -0.9560 C   0  0  0  0  0  0  0  0  0  0  0  0
   -4.7740    0.1540   -0.7910 C   0  0  0  0  0  0  0  0  0  0  0  0
   -4.5100   -0.5540    0.3560 C   0  0  0  0  0  0  0  0  0  0  0  0
    1.9170   -2.6960    0.2530 C   0  0  0  0  0  0  0  0  0  0  0  0
    1.3250   -3.7890    0.9940 N   0  0  0  0  0  0  0  0  0  0  0  0
    3.2200   -2.8160   -0.1200 N   0  0  0  0  0  0  0  0  0  0  0  0
    3.8180   -1.8420   -0.7640 N   0  0  0  0  0  0  0  0  0  0  0  0
  1  2  1  0
  2  3  2  0
  2  4  1  0
  4  5  1  0
  5  6  2  0
  5 11  1  0
  6  7  1  0
  7  8  2  0
  8  9  1  0
  8 10  1  0
 10 11  2  0
 11 12  1  0
 12 13  2  0
 12 35  1  0
 13 14  1  0
 14 15  1  0
 14 32  2  0
 15 16  2  0
 15 17  1  0
 17 18  1  0
 19 18  1  6
 18 22  2  3
 19 20  1  0
 19 21  1  0
 20 21  1  0
 22 23  1  0
 22 31  1  0
 23 24  1  0
 24 25  1  0
 25 26  1  0
 26 27  2  0
 26 31  1  0
 27 28  1  0
 28 29  2  0
 29 30  1  0
 30 31  2  0
 32 33  1  0
 32 34  1  0
 34 35  2  0
M  CHG  1  22   1
M  END
