
     RDKit          3D

 34 38  0  0  0  0  0  0  0  0999 V2000
   -7.2500    0.2020   -2.0690 C   0  0  0  0  0  0  0  0  0  0  0  0
   -5.9030    0.9030   -2.1110 C   0  0  0  0  0  0  0  0  0  0  0  0
   -5.2360    0.9030   -0.7820 C   0  0  0  0  0  0  0  0  0  0  0  0
   -4.1780    0.0320   -0.5350 C   0  0  0  0  0  0  0  0  0  0  0  0
   -3.5120   -0.0220    0.6770 C   0  0  0  0  0  0  0  0  0  0  0  0
   -3.9410    0.8460    1.6720 C   0  0  0  0  0  0  0  0  0  0  0  0
   -4.9800    1.7020    1.4300 C   0  0  0  0  0  0  0  0  0  0  0  0
   -5.6380    1.7490    0.2230 C   0  0  0  0  0  0  0  0  0  0  0  0
   -6.7780    2.7120    0.0070 C   0  0  0  0  0  0  0  0  0  0  0  0
   -6.2640    4.0930   -0.9780 Cl  0  0  0  0  0  0  0  0  0  0  0  0
   -3.2630    0.7790    2.8700 O   0  0  0  0  0  0  0  0  0  0  0  0
   -2.3940   -0.2730    3.1860 C   0  0  0  0  0  0  0  0  0  0  0  0
   -1.5150   -0.5760    1.9560 C   0  0  0  0  0  0  0  0  0  0  0  0
   -2.4130   -0.9430    0.8740 N   0  0  0  0  0  0  0  0  0  0  0  0
   -2.3700   -2.0980    0.1110 C   0  0  0  0  0  0  0  0  0  0  0  0
   -3.4940   -2.5660   -0.3110 O   0  0  0  0  0  0  0  0  0  0  0  0
   -1.1910   -2.8420   -0.2690 C   0  0  0  0  0  0  0  0  0  0  0  0
    0.0480   -2.4950   -0.0100 C   0  0  0  0  0  0  0  0  0  0  0  0
    1.1030   -3.4120   -0.4900 C   0  0  0  0  0  0  0  0  0  0  0  0
    2.2690   -2.9480   -0.7350 N   0  0  0  0  0  0  0  0  0  0  0  0
    2.7200   -1.6430   -0.6100 C   0  0  0  0  0  0  0  0  0  0  0  0
    2.3350   -0.4460   -0.6560 N   0  0  0  0  0  0  0  0  0  0  0  0
    3.0790    0.5600   -0.4790 N   0  0  0  0  0  0  0  0  0  0  0  0
    4.3020    0.5140   -0.2340 C   0  0  0  0  0  0  0  0  0  0  0  0
    5.3510    1.4690    0.0070 C   0  0  1  0  0  0  0  0  0  0  0  0
    5.9960    1.2150    1.3500 C   0  0  0  0  0  0  0  0  0  0  0  0
    6.9730    2.3130    1.6530 C   0  0  0  0  0  0  0  0  0  0  0  0
    8.0300    2.4800    0.5870 C   0  0  0  0  0  0  0  0  0  0  0  0
    7.4000    2.6270   -0.7810 C   0  0  0  0  0  0  0  0  0  0  0  0
    6.4300    1.4970   -1.0670 C   0  0  0  0  0  0  0  0  0  0  0  0
    4.5450   -1.3130   -0.2340 S   0  0  0  0  0  0  0  0  0  0  0  0
    0.8200   -4.8740   -0.6890 C   0  0  0  0  0  0  0  0  0  0  0  0
   -0.5190   -5.1190   -0.4740 O   0  0  0  0  0  0  0  0  0  0  0  0
   -1.3370   -4.1470   -1.0360 C   0  0  0  0  0  0  0  0  0  0  0  0
  1  2  1  0
  2  3  1  0
  3  4  2  0
  3  8  1  0
  4  5  1  0
  5  6  2  0
  5 14  1  0
  6  7  1  0
  6 11  1  0
  7  8  2  0
  8  9  1  0
  9 10  1  0
 11 12  1  0
 12 13  1  0
 13 14  1  0
 14 15  1  0
 15 16  2  0
 15 17  1  0
 17 18  2  0
 17 34  1  0
 18 19  1  0
 19 20  2  3
 19 32  1  0
 20 21  1  0
 21 22  2  0
 21 31  1  0
 22 23  1  0
 23 24  2  0
 25 24  1  6
 24 31  1  0
 25 26  1  0
 25 30  1  0
 26 27  1  0
 27 28  1  0
 28 29  1  0
 29 30  1  0
 32 33  1  0
 33 34  1  0
M  END
