
     RDKit          3D

 34 37  0  0  0  0  0  0  0  0999 V2000
   -6.8320   -3.6500   -0.2810 O   0  0  0  0  0  0  0  0  0  0  0  0
   -5.6920   -2.7740   -0.2670 C   0  0  0  0  0  0  0  0  0  0  0  0
   -5.9240   -1.7030   -1.2660 C   0  0  0  0  0  0  0  0  0  0  0  0
   -5.0510   -0.7350   -1.5050 O   0  0  0  0  0  0  0  0  0  0  0  0
   -4.6740    0.2580   -0.7070 C   0  0  0  0  0  0  0  0  0  0  0  0
   -4.0510   -0.0320    0.6070 C   0  0  0  0  0  0  0  0  0  0  0  0
   -3.6390    1.1500    1.3360 N   0  0  0  0  0  0  0  0  0  0  0  0
   -4.4310    1.8170    2.2280 C   0  0  0  0  0  0  0  0  0  0  0  0
   -3.7530    2.8560    2.7710 C   0  0  0  0  0  0  0  0  0  0  0  0
   -2.4870    2.8520    2.2080 C   0  0  0  0  0  0  0  0  0  0  0  0
   -1.4070    3.6230    2.3900 N   0  0  0  0  0  0  0  0  0  0  0  0
   -0.2660    3.4020    1.7370 C   0  0  0  0  0  0  0  0  0  0  0  0
   -0.2210    2.3880    0.8900 N   0  0  0  0  0  0  0  0  0  0  0  0
   -1.2640    1.5380    0.6290 C   0  0  0  0  0  0  0  0  0  0  0  0
   -1.1280    0.5590   -0.3710 N   0  0  0  0  0  0  0  0  0  0  0  0
    0.1600    0.3320   -0.9280 C   0  0  0  0  0  0  0  0  0  0  0  0
    1.2220    0.3520   -0.0320 C   0  0  0  0  0  0  0  0  0  0  0  0
    2.4960    0.1890   -0.4090 N   0  0  0  0  0  0  0  0  0  0  0  0
    2.8010   -0.0060   -1.7000 C   0  0  0  0  0  0  0  0  0  0  0  0
    4.1030   -0.1750   -2.1520 O   0  0  0  0  0  0  0  0  0  0  0  0
    5.1970   -0.1680   -1.3130 C   0  0  0  0  0  0  0  0  0  0  0  0
    5.5850    0.9910   -0.6970 C   0  0  0  0  0  0  0  0  0  0  0  0
    6.6700    1.0670    0.1520 C   0  0  0  0  0  0  0  0  0  0  0  0
    7.4180   -0.0750    0.4050 C   0  0  0  0  0  0  0  0  0  0  0  0
    7.0520   -1.2570   -0.2010 C   0  0  0  0  0  0  0  0  0  0  0  0
    7.8600   -2.4750    0.0570 C   0  0  2  0  0  0  0  0  0  0  0  0
    9.0830   -2.0860    0.5800 F   0  0  0  0  0  0  0  0  0  0  0  0
    8.1260   -3.1870   -1.0870 F   0  0  0  0  0  0  0  0  0  0  0  0
    7.1910   -3.2860    0.9670 F   0  0  0  0  0  0  0  0  0  0  0  0
    5.9470   -1.2960   -1.0540 C   0  0  0  0  0  0  0  0  0  0  0  0
    1.7730   -0.0310   -2.6140 C   0  0  0  0  0  0  0  0  0  0  0  0
    2.1130   -0.2700   -4.3140 Cl  0  0  0  0  0  0  0  0  0  0  0  0
    0.4480    0.1350   -2.2430 C   0  0  0  0  0  0  0  0  0  0  0  0
   -2.4550    1.7700    1.3160 C   0  0  0  0  0  0  0  0  0  0  0  0
  1  2  1  0
  2  3  1  0
  3  4  1  0
  4  5  1  0
  5  6  1  0
  6  7  1  0
  7  8  1  0
  7 34  1  0
  8  9  2  0
  9 10  1  0
 10 11  2  0
 10 34  1  0
 11 12  1  0
 12 13  2  0
 13 14  1  0
 14 15  1  0
 14 34  2  0
 15 16  1  0
 16 17  2  0
 16 33  1  0
 17 18  1  0
 18 19  2  0
 19 20  1  0
 19 31  1  0
 20 21  1  0
 21 22  2  0
 21 30  1  0
 22 23  1  0
 23 24  2  0
 24 25  1  0
 25 26  1  0
 25 30  2  0
 26 27  1  1
 26 28  1  0
 26 29  1  0
 31 32  1  0
 31 33  2  0
M  END
