
     RDKit          3D

 34 38  0  0  0  0  0  0  0  0999 V2000
   -9.3250    1.0930   -2.0750 C   0  0  0  0  0  0  0  0  0  0  0  0
   -8.0930    1.1430   -1.2580 C   0  0  0  0  0  0  0  0  0  0  0  0
   -7.6610    2.3260   -0.7060 C   0  0  0  0  0  0  0  0  0  0  0  0
   -6.5340    2.4060    0.0480 C   0  0  0  0  0  0  0  0  0  0  0  0
   -5.7320    1.2670    0.3110 C   0  0  0  0  0  0  0  0  0  0  0  0
   -4.6090    1.4270    1.1970 C   0  0  0  0  0  0  0  0  0  0  0  0
   -4.8210    2.8010    2.4160 Cl  0  0  0  0  0  0  0  0  0  0  0  0
   -3.5150    0.7790    1.2900 C   0  0  0  0  0  0  0  0  0  0  0  0
   -2.9330   -0.3230    0.5920 C   0  0  0  0  0  0  0  0  0  0  0  0
   -3.4480   -0.8900   -0.3860 O   0  0  0  0  0  0  0  0  0  0  0  0
   -1.6370   -0.8380    1.0430 N   0  0  0  0  0  0  0  0  0  0  0  0
   -1.0320   -0.1970    2.1710 C   0  0  0  0  0  0  0  0  0  0  0  0
    0.2680   -0.8330    2.6010 C   0  0  0  0  0  0  0  0  0  0  0  0
    1.0380   -1.1860    1.3830 C   0  0  0  0  0  0  0  0  0  0  0  0
    0.4410   -1.7260    0.2630 C   0  0  0  0  0  0  0  0  0  0  0  0
    1.3900   -1.9290   -0.6390 N   0  0  0  0  0  0  0  0  0  0  0  0
    2.6030   -1.5400   -0.1530 C   0  0  0  0  0  0  0  0  0  0  0  0
    3.8740   -1.5420   -0.6810 C   0  0  0  0  0  0  0  0  0  0  0  0
    4.9310   -1.0750    0.0670 C   0  0  0  0  0  0  0  0  0  0  0  0
    6.3170   -1.0480   -0.4210 C   0  0  0  0  0  0  0  0  0  0  0  0
    6.6120    0.0320   -1.3260 N   0  0  0  0  0  0  0  0  0  0  0  0
    7.7840   -0.3900   -2.1130 C   0  0  0  0  0  0  0  0  0  0  0  0
    8.3770    0.8980   -2.6430 C   0  0  0  0  0  0  0  0  0  0  0  0
    8.6940    1.7260   -1.4170 C   0  0  0  0  0  0  0  0  0  0  0  0
    7.2360    1.3610   -0.4190 S   0  0  1  0  0  0  0  0  0  0  0  0
    6.3630    2.5620   -0.4780 O   0  0  0  0  0  0  0  0  0  0  0  0
    7.6490    0.9840    0.9700 O   0  0  0  0  0  0  0  0  0  0  0  0
    4.6670   -0.6160    1.3350 C   0  0  0  0  0  0  0  0  0  0  0  0
    3.3870   -0.6220    1.8450 C   0  0  0  0  0  0  0  0  0  0  0  0
    2.3710   -1.0840    1.0950 N   0  0  0  0  0  0  0  0  0  0  0  0
   -1.0460   -1.9290    0.3510 C   0  0  0  0  0  0  0  0  0  0  0  0
   -6.1870    0.1070   -0.2470 C   0  0  0  0  0  0  0  0  0  0  0  0
   -7.3560    0.0250   -1.0300 C   0  0  0  0  0  0  0  0  0  0  0  0
   -7.7570   -1.2840   -1.5910 C   0  0  0  0  0  0  0  0  0  0  0  0
  1  2  1  0
  2  3  2  0
  2 33  1  0
  3  4  1  0
  4  5  2  0
  5  6  1  0
  5 32  1  0
  6  7  1  0
  6  8  2  3
  8  9  1  0
  9 10  2  0
  9 11  1  0
 11 12  1  0
 11 31  1  0
 12 13  1  0
 13 14  1  0
 14 15  2  0
 14 30  1  0
 15 16  1  0
 15 31  1  0
 16 17  2  0
 17 18  1  0
 17 30  1  0
 18 19  2  0
 19 20  1  0
 19 28  1  0
 20 21  1  0
 21 22  1  0
 21 25  1  0
 22 23  1  0
 23 24  1  0
 25 24  1  6
 25 26  2  0
 25 27  2  0
 28 29  2  0
 29 30  1  0
 32 33  2  0
 33 34  1  0
M  END
