
     RDKit          3D

 34 38  0  0  0  0  0  0  0  0999 V2000
   -6.6510    0.2770    1.8380 C   0  0  0  0  0  0  0  0  0  0  0  0
   -6.6540    1.0520    0.5450 C   0  0  0  0  0  0  0  0  0  0  0  0
   -5.2550    1.4560    0.2410 C   0  0  0  0  0  0  0  0  0  0  0  0
   -4.4680    0.9140   -0.6570 O   0  0  0  0  0  0  0  0  0  0  0  0
   -3.3060    1.5010   -0.6720 C   0  0  0  0  0  0  0  0  0  0  0  0
   -2.1770    1.1790   -1.5320 C   0  0  0  0  0  0  0  0  0  0  0  0
   -1.2950    0.1450   -0.9760 N   0  0  0  0  0  0  0  0  0  0  0  0
   -0.1450    0.3510   -0.1260 C   0  0  0  0  0  0  0  0  0  0  0  0
    0.4330   -1.0080    0.1460 C   0  0  0  0  0  0  0  0  0  0  0  0
    1.6000   -1.1530    1.0090 C   0  0  0  0  0  0  0  0  0  0  0  0
    2.0080   -2.3050    1.2730 O   0  0  0  0  0  0  0  0  0  0  0  0
    2.2420   -0.0580    1.5270 N   0  0  0  0  0  0  0  0  0  0  0  0
    3.1970    0.6650    1.1470 C   0  0  0  0  0  0  0  0  0  0  0  0
    3.8110    2.0720    2.0950 S   0  0  0  0  0  0  0  0  0  0  0  0
    5.1000    2.5250    0.9110 C   0  0  0  0  0  0  0  0  0  0  0  0
    4.9290    1.5940   -0.0360 C   0  0  0  0  0  0  0  0  0  0  0  0
    3.9980    0.6730    0.0660 N   0  0  0  0  0  0  0  0  0  0  0  0
    3.7250   -0.4170   -0.9380 C   0  0  0  0  0  0  0  0  0  0  0  0
    6.0120    1.9140   -1.0720 C   0  0  0  0  0  0  0  0  0  0  0  0
    6.2430    3.3930   -0.9140 C   0  0  0  0  0  0  0  0  0  0  0  0
    6.1840    3.4840    0.6190 C   0  0  0  0  0  0  0  0  0  0  0  0
   -0.2880   -1.9310   -0.4440 C   0  0  0  0  0  0  0  0  0  0  0  0
   -0.0690   -3.3650   -0.4350 C   0  0  0  0  0  0  0  0  0  0  0  0
    1.1120   -3.9780   -0.7720 C   0  0  0  0  0  0  0  0  0  0  0  0
    1.2650   -5.3690   -0.7160 C   0  0  0  0  0  0  0  0  0  0  0  0
    0.2230   -6.1760   -0.3160 C   0  0  0  0  0  0  0  0  0  0  0  0
    0.4170   -7.9270   -0.2490 Cl  0  0  0  0  0  0  0  0  0  0  0  0
   -0.9680   -5.5710    0.0240 C   0  0  0  0  0  0  0  0  0  0  0  0
   -1.1140   -4.2020   -0.0320 C   0  0  0  0  0  0  0  0  0  0  0  0
   -1.3920   -1.2590   -1.1660 C   0  0  0  0  0  0  0  0  0  0  0  0
   -2.2640   -1.8460   -1.8310 O   0  0  0  0  0  0  0  0  0  0  0  0
   -3.3390    2.4660    0.2570 N   0  0  0  0  0  0  0  0  0  0  0  0
   -4.5360    2.4610    0.8380 C   0  0  0  0  0  0  0  0  0  0  0  0
   -4.9650    3.3820    1.9210 C   0  0  0  0  0  0  0  0  0  0  0  0
  1  2  1  0
  2  3  1  0
  3  4  1  0
  3 33  2  0
  4  5  1  0
  5  6  1  0
  5 32  2  0
  6  7  1  0
  7  8  1  0
  7 30  1  0
  8  9  1  0
  9 10  1  0
  9 22  2  0
 10 11  2  0
 10 12  1  0
 12 13  2  3
 13 14  1  0
 13 17  1  0
 14 15  1  0
 15 16  2  0
 15 21  1  0
 16 17  1  0
 16 19  1  0
 17 18  1  0
 19 20  1  0
 20 21  1  0
 22 23  1  0
 22 30  1  0
 23 24  2  0
 23 29  1  0
 24 25  1  0
 25 26  2  0
 26 27  1  0
 26 28  1  0
 28 29  2  0
 30 31  2  0
 32 33  1  0
 33 34  1  0
M  END
