
     RDKit          3D

 34 38  0  0  0  0  0  0  0  0999 V2000
   -6.1330   -4.6340   -0.0310 C   0  0  0  0  0  0  0  0  0  0  0  0
   -4.7570   -4.0470   -0.0570 C   0  0  0  0  0  0  0  0  0  0  0  0
   -4.6190   -2.7100    0.2770 C   0  0  0  0  0  0  0  0  0  0  0  0
   -3.3510   -2.0940    0.2730 C   0  0  0  0  0  0  0  0  0  0  0  0
   -2.2810   -2.8660   -0.0710 C   0  0  0  0  0  0  0  0  0  0  0  0
   -2.4460   -4.1760   -0.3940 C   0  0  0  0  0  0  0  0  0  0  0  0
   -3.6670   -4.8130   -0.4010 C   0  0  0  0  0  0  0  0  0  0  0  0
   -3.8630   -6.4930   -0.8180 Cl  0  0  0  0  0  0  0  0  0  0  0  0
   -0.6960   -2.1600   -0.1080 S   0  0  1  0  0  0  0  0  0  0  0  0
    0.1610   -2.9740    0.8210 O   0  0  0  0  0  0  0  0  0  0  0  0
   -0.1720   -2.2270   -1.5240 O   0  0  0  0  0  0  0  0  0  0  0  0
   -0.8720   -0.5230    0.4080 N   0  0  0  0  0  0  0  0  0  0  0  0
    0.2640    0.2750    0.5050 C   0  0  0  0  0  0  0  0  0  0  0  0
    1.5580   -0.1850    0.2570 N   0  0  0  0  0  0  0  0  0  0  0  0
    2.0790   -0.2910   -1.0750 C   0  0  0  0  0  0  0  0  0  0  0  0
    3.3880    0.4480   -1.2380 C   0  0  0  0  0  0  0  0  0  0  0  0
    3.9530    0.7670    0.0950 C   0  0  2  0  0  0  0  0  0  0  0  0
    5.3030    1.3960    0.0760 C   0  0  0  0  0  0  0  0  0  0  0  0
    6.4020    0.6340   -0.5590 C   0  0  1  0  0  0  0  0  0  0  0  0
    7.6550    1.5260   -0.4400 C   0  0  0  0  0  0  0  0  0  0  0  0
    6.7760   -0.6500    0.1370 C   0  0  0  0  0  0  0  0  0  0  0  0
    3.8580   -0.4310    1.0000 C   0  0  0  0  0  0  0  0  0  0  0  0
    2.3880   -0.5250    1.4150 C   0  0  0  0  0  0  0  0  0  0  0  0
    0.1110    1.5630    0.8780 C   0  0  0  0  0  0  0  0  0  0  0  0
   -1.1700    2.1330    1.1770 C   0  0  0  0  0  0  0  0  0  0  0  0
   -1.2980    3.3580    1.5320 O   0  0  0  0  0  0  0  0  0  0  0  0
   -2.3210    1.3360    1.0830 N   0  0  0  0  0  0  0  0  0  0  0  0
   -3.6660    1.8450    1.3530 C   0  0  0  0  0  0  0  0  0  0  0  0
   -4.3610    2.3440    0.1390 C   0  0  2  0  0  0  0  0  0  0  0  0
   -3.7520    3.4810   -0.6340 C   0  0  0  0  0  0  0  0  0  0  0  0
   -5.2080    3.9450   -0.8910 C   0  0  0  0  0  0  0  0  0  0  0  0
   -5.5020    3.3150    0.4850 C   0  0  0  0  0  0  0  0  0  0  0  0
   -2.1670   -0.0500    0.6840 C   0  0  0  0  0  0  0  0  0  0  0  0
   -3.2520   -0.7370    0.6310 N   0  0  0  0  0  0  0  0  0  0  0  0
  1  2  1  0
  2  3  2  0
  2  7  1  0
  3  4  1  0
  4  5  2  0
  4 34  1  0
  5  6  1  0
  5  9  1  0
  6  7  2  0
  7  8  1  0
  9 10  2  0
  9 11  2  0
  9 12  1  1
 12 13  1  0
 12 33  1  0
 13 14  1  0
 13 24  2  0
 14 15  1  0
 14 23  1  0
 15 16  1  0
 16 17  1  0
 17 18  1  6
 17 22  1  0
 18 19  1  0
 19 20  1  1
 19 21  1  0
 22 23  1  0
 24 25  1  0
 25 26  2  0
 25 27  1  0
 27 28  1  0
 27 33  1  0
 29 28  1  1
 29 30  1  0
 29 32  1  0
 30 31  1  0
 31 32  1  0
 33 34  2  0
M  END
