
     RDKit          3D

 34 38  0  0  0  0  0  0  0  0999 V2000
    4.8390   -0.9750   -1.1390 C   0  0  0  0  0  0  0  0  0  0  0  0
    3.3600   -0.7610   -0.6050 C   0  0  0  0  0  0  0  0  0  0  0  0
    3.0670    0.3090   -0.1180 C   0  0  0  0  0  0  0  0  0  0  0  0
    3.4070    1.7190    0.3410 C   0  0  0  0  0  0  0  0  0  0  0  0
    2.4460    2.5100    0.6740 O   0  0  0  0  0  0  0  0  0  0  0  0
    4.6720    2.2640    0.4550 N   0  0  0  0  0  0  0  0  0  0  0  0
    4.7440    3.6900    0.9110 C   0  0  0  0  0  0  0  0  0  0  0  0
    5.5130    3.7800    2.2000 C   0  0  0  0  0  0  0  0  0  0  0  0
    6.4330    2.7070    2.3260 O   0  0  0  0  0  0  0  0  0  0  0  0
    7.0250    2.5170    1.0670 C   0  0  0  0  0  0  0  0  0  0  0  0
    5.9790    1.6900    0.2650 C   0  0  0  0  0  0  0  0  0  0  0  0
    1.2120   -0.0140    0.2540 S   0  0  0  0  0  0  0  0  0  0  0  0
    1.2030   -1.6340   -0.3660 C   0  0  0  0  0  0  0  0  0  0  0  0
    0.0560   -2.4720   -0.3660 N   0  0  0  0  0  0  0  0  0  0  0  0
   -0.2180   -3.5740   -1.1970 C   0  0  0  0  0  0  0  0  0  0  0  0
   -1.6370   -4.0570   -1.0050 C   0  0  0  0  0  0  0  0  0  0  0  0
   -2.6040   -3.0540   -0.9130 O   0  0  0  0  0  0  0  0  0  0  0  0
   -2.2450   -2.0370   -0.0850 C   0  0  2  0  0  0  0  0  0  0  0  0
   -2.5040   -0.6870   -0.6700 C   0  0  0  0  0  0  0  0  0  0  0  0
   -3.9330   -0.3720   -0.8330 C   0  0  0  0  0  0  0  0  0  0  0  0
   -4.7660   -0.6070   -1.8670 C   0  0  0  0  0  0  0  0  0  0  0  0
   -6.0970   -0.1760   -1.8170 C   0  0  0  0  0  0  0  0  0  0  0  0
   -6.5470    0.4900   -0.7030 C   0  0  0  0  0  0  0  0  0  0  0  0
   -7.8330    0.9650   -0.5630 C   0  0  0  0  0  0  0  0  0  0  0  0
   -8.2410    1.6410    0.5740 C   0  0  0  0  0  0  0  0  0  0  0  0
   -7.3590    1.8560    1.6010 C   0  0  0  0  0  0  0  0  0  0  0  0
   -7.8360    2.7110    3.0550 Cl  0  0  0  0  0  0  0  0  0  0  0  0
   -6.0880    1.4040    1.4990 C   0  0  0  0  0  0  0  0  0  0  0  0
   -5.6850    0.7260    0.3550 C   0  0  0  0  0  0  0  0  0  0  0  0
   -4.4500    0.2930    0.2400 N   0  0  0  0  0  0  0  0  0  0  0  0
   -0.9560   -2.1470    0.6440 C   0  0  0  0  0  0  0  0  0  0  0  0
    2.4910   -1.8100   -0.7730 C   0  0  0  0  0  0  0  0  0  0  0  0
    2.8450   -3.1370   -1.2540 C   0  0  0  0  0  0  0  0  0  0  0  0
    3.1350   -4.2580   -1.6560 N   0  0  0  0  0  0  0  0  0  0  0  0
  1  2  1  0
  2  3  2  0
  2 32  1  0
  3  4  1  0
  3 12  1  0
  4  5  2  0
  4  6  1  0
  6  7  1  0
  6 11  1  0
  7  8  1  0
  8  9  1  0
  9 10  1  0
 10 11  1  0
 12 13  1  0
 13 14  1  0
 13 32  2  0
 14 15  1  0
 14 31  1  0
 15 16  1  0
 16 17  1  0
 17 18  1  0
 18 19  1  6
 18 31  1  0
 19 20  1  0
 20 21  2  0
 20 30  1  0
 21 22  1  0
 22 23  2  0
 23 24  1  0
 23 29  1  0
 24 25  2  0
 25 26  1  0
 26 27  1  0
 26 28  2  0
 28 29  1  0
 29 30  2  0
 32 33  1  0
 33 34  3  0
M  END
