
     RDKit          3D

 15 16  0  0  0  0  0  0  0  0999 V2000
    3.7160   -0.7210    0.4740 C   0  0  0  0  0  0  0  0  0  0  0  0
    2.9400   -1.3650   -0.6530 C   0  0  0  0  0  0  0  0  0  0  0  0
    1.5820   -1.1960   -0.4260 O   0  0  0  0  0  0  0  0  0  0  0  0
    1.0140    0.0590   -0.3520 C   0  0  0  0  0  0  0  0  0  0  0  0
    1.7200    1.2220   -0.5010 C   0  0  0  0  0  0  0  0  0  0  0  0
    1.0520    2.4240   -0.4100 C   0  0  0  0  0  0  0  0  0  0  0  0
   -0.2900    2.4900   -0.1750 C   0  0  0  0  0  0  0  0  0  0  0  0
   -0.9760    3.6780   -0.0800 O   0  0  0  0  0  0  0  0  0  0  0  0
   -0.9890    1.2850   -0.0270 C   0  0  0  0  0  0  0  0  0  0  0  0
   -0.3750    0.0720   -0.1090 C   0  0  0  0  0  0  0  0  0  0  0  0
   -1.0910   -1.2150    0.0450 C   0  0  0  0  0  0  0  0  0  0  0  0
   -2.4850   -1.0650    0.2860 N   0  0  0  0  0  0  0  0  0  0  0  0
   -3.3180   -2.2900    0.4580 C   0  0  0  0  0  0  0  0  0  0  0  0
   -3.1000    0.1960    0.3670 C   0  0  0  0  0  0  0  0  0  0  0  0
   -2.4310    1.3080    0.2260 C   0  0  0  0  0  0  0  0  0  0  0  0
  1  2  1  0
  2  3  1  0
  3  4  1  0
  4  5  2  0
  4 10  1  0
  5  6  1  0
  6  7  2  0
  7  8  1  0
  7  9  1  0
  9 10  2  0
  9 15  1  0
 10 11  1  0
 11 12  1  0
 12 13  1  0
 12 14  1  0
 14 15  2  0
M  END
