
     RDKit          3D

 22 23  0  0  0  0  0  0  0  0999 V2000
   -5.6520    1.5270    0.3620 C   0  0  0  0  0  0  0  0  0  0  0  0
   -6.1110    0.2520   -0.1160 N   0  0  0  0  0  0  0  0  0  0  0  0
   -7.5240    0.0540   -0.3360 C   0  0  0  0  0  0  0  0  0  0  0  0
   -5.1880   -0.8010   -0.3690 C   0  0  0  0  0  0  0  0  0  0  0  0
   -5.6270   -1.8950   -0.7840 O   0  0  0  0  0  0  0  0  0  0  0  0
   -3.7530   -0.6440   -0.1600 C   0  0  0  0  0  0  0  0  0  0  0  0
   -2.9010   -1.6960   -0.4210 C   0  0  0  0  0  0  0  0  0  0  0  0
   -1.5290   -1.6020   -0.2400 C   0  0  0  0  0  0  0  0  0  0  0  0
   -1.0090   -0.3950    0.2210 C   0  0  0  0  0  0  0  0  0  0  0  0
    0.3850   -0.2370    0.4260 N   0  0  0  0  0  0  0  0  0  0  0  0
    1.2800   -1.3140    0.1620 C   0  0  0  0  0  0  0  0  0  0  0  0
    2.7300   -0.9760    0.4220 C   0  0  0  0  0  0  0  0  0  0  0  0
    3.1060    0.1790   -0.4810 C   0  0  0  0  0  0  0  0  0  0  0  0
    4.5370    0.5710   -0.2800 C   0  0  0  0  0  0  0  0  0  0  0  0
    5.5310   -0.0090   -1.0260 C   0  0  0  0  0  0  0  0  0  0  0  0
    6.8450    0.3370   -0.8560 C   0  0  0  0  0  0  0  0  0  0  0  0
    7.7540   -0.1870   -1.5320 O   0  0  0  0  0  0  0  0  0  0  0  0
    7.1530    1.2900    0.0890 C   0  0  0  0  0  0  0  0  0  0  0  0
    6.1320    1.8490    0.8170 C   0  0  0  0  0  0  0  0  0  0  0  0
    4.8480    1.4920    0.6310 N   0  0  0  0  0  0  0  0  0  0  0  0
   -1.8820    0.6060    0.4620 N   0  0  0  0  0  0  0  0  0  0  0  0
   -3.1860    0.4860    0.2800 N   0  0  0  0  0  0  0  0  0  0  0  0
  1  2  1  0
  2  3  1  0
  2  4  1  0
  4  5  2  0
  4  6  1  0
  6  7  2  0
  6 22  1  0
  7  8  1  0
  8  9  2  0
  9 10  1  0
  9 21  1  0
 10 11  1  0
 11 12  1  0
 12 13  1  0
 13 14  1  0
 14 15  2  0
 14 20  1  0
 15 16  1  0
 16 17  2  0
 16 18  1  0
 18 19  2  0
 19 20  1  0
 21 22  2  0
M  END
