
     RDKit          3D

 22 23  0  0  0  0  0  0  0  0999 V2000
   -4.0170   -2.8490    0.5300 C   0  0  0  0  0  0  0  0  0  0  0  0
   -4.3610   -1.6530    1.4010 C   0  0  0  0  0  0  0  0  0  0  0  0
   -4.6640   -0.4350    0.5960 C   0  0  0  0  0  0  0  0  0  0  0  0
   -5.8490    0.1320    0.3440 N   0  0  0  0  0  0  0  0  0  0  0  0
   -5.6800    1.2100   -0.4170 N   0  0  0  0  0  0  0  0  0  0  0  0
   -6.7530    2.0920   -0.8810 C   0  0  0  0  0  0  0  0  0  0  0  0
   -4.3680    1.3890   -0.6950 C   0  0  0  0  0  0  0  0  0  0  0  0
   -3.7080    0.3600   -0.0630 C   0  0  0  0  0  0  0  0  0  0  0  0
   -2.3340    0.1030   -0.0150 N   0  0  0  0  0  0  0  0  0  0  0  0
   -1.3640    0.8310   -0.7610 C   0  0  0  0  0  0  0  0  0  0  0  0
   -1.7130    1.7520   -1.5200 O   0  0  0  0  0  0  0  0  0  0  0  0
    0.0580    0.4800   -0.6230 C   0  0  0  0  0  0  0  0  0  0  0  0
    0.9050    1.1150   -1.6500 C   0  0  0  0  0  0  0  0  0  0  0  0
    0.4810    1.7440   -2.5980 N   0  0  0  0  0  0  0  0  0  0  0  0
    2.7040    0.9230   -1.4910 S   0  0  0  0  0  0  0  0  0  0  0  0
    3.0710    0.0250    0.0350 C   0  0  0  0  0  0  0  0  0  0  0  0
    4.2760   -0.8040   -0.1730 C   0  0  0  0  0  0  0  0  0  0  0  0
    4.3500   -1.4880   -1.1710 O   0  0  0  0  0  0  0  0  0  0  0  0
    5.3890   -0.8190    0.8010 C   0  0  2  0  0  0  0  0  0  0  0  0
    6.0080    0.5750    0.8960 C   0  0  0  0  0  0  0  0  0  0  0  0
    6.9310    0.1690   -0.2680 C   0  0  0  0  0  0  0  0  0  0  0  0
    6.7000   -1.2680    0.1690 C   0  0  0  0  0  0  0  0  0  0  0  0
  1  2  1  0
  2  3  1  0
  3  4  2  0
  3  8  1  0
  4  5  1  0
  5  6  1  0
  5  7  1  0
  7  8  2  0
  8  9  1  0
  9 10  1  0
 10 11  2  0
 10 12  1  0
 12 13  1  0
 13 14  2  0
 13 15  1  0
 15 16  1  0
 16 17  1  0
 17 18  2  0
 19 17  1  6
 19 20  1  0
 19 22  1  0
 20 21  1  0
 21 22  1  0
M  END
