
     RDKit          3D

 22 23  0  0  0  0  0  0  0  0999 V2000
    3.0680   -2.7930    2.4240 C   0  0  0  0  0  0  0  0  0  0  0  0
    2.5210   -1.6530    1.7730 O   0  0  0  0  0  0  0  0  0  0  0  0
    2.9460   -1.3040    0.4860 C   0  0  0  0  0  0  0  0  0  0  0  0
    3.8170   -2.0490   -0.0270 O   0  0  0  0  0  0  0  0  0  0  0  0
    2.4190   -0.1700   -0.1950 N   0  0  0  0  0  0  0  0  0  0  0  0
    1.4290    0.6910    0.3710 C   0  0  0  0  0  0  0  0  0  0  0  0
    0.0320    0.2230    0.0400 C   0  0  0  0  0  0  0  0  0  0  0  0
   -0.9570    1.1230    0.6320 N   0  0  0  0  0  0  0  0  0  0  0  0
   -2.3670    0.8680    0.4450 C   0  0  0  0  0  0  0  0  0  0  0  0
   -2.7130    0.0480   -0.4840 N   0  0  0  0  0  0  0  0  0  0  0  0
   -4.0640   -0.2740   -0.7540 C   0  0  0  0  0  0  0  0  0  0  0  0
   -4.4200   -1.1620   -1.7620 C   0  0  0  0  0  0  0  0  0  0  0  0
   -5.7380   -1.4740   -2.0230 C   0  0  0  0  0  0  0  0  0  0  0  0
   -6.7310   -0.8870   -1.2590 C   0  0  0  0  0  0  0  0  0  0  0  0
   -6.4020   -0.0120   -0.2650 C   0  0  0  0  0  0  0  0  0  0  0  0
   -5.0810    0.2930   -0.0120 C   0  0  0  0  0  0  0  0  0  0  0  0
   -4.7170    1.2060    1.0240 N   0  0  0  0  0  0  0  0  0  0  0  0
   -3.3430    1.5400    1.3050 C   0  0  0  0  0  0  0  0  0  0  0  0
    2.9210    0.1100   -1.5170 C   0  0  0  0  0  0  0  0  0  0  0  0
    4.1260    1.0170   -1.4930 C   0  0  0  0  0  0  0  0  0  0  0  0
    5.4670    0.2560   -0.5500 S   0  0  0  0  0  0  0  0  0  0  0  0
    6.9140    1.3090   -0.5020 C   0  0  0  0  0  0  0  0  0  0  0  0
  1  2  1  0
  2  3  1  0
  3  4  2  0
  3  5  1  0
  5  6  1  0
  5 19  1  0
  6  7  1  0
  7  8  1  0
  8  9  1  0
  9 10  2  0
  9 18  1  0
 10 11  1  0
 11 12  2  0
 11 16  1  0
 12 13  1  0
 13 14  2  0
 14 15  1  0
 15 16  2  0
 16 17  1  0
 17 18  1  0
 19 20  1  0
 20 21  1  0
 21 22  1  0
M  END
