
     RDKit          3D

 15 16  0  0  0  0  0  0  0  0999 V2000
   -2.2560    2.2360    0.1500 C   0  0  0  0  0  0  0  0  0  0  0  0
   -2.5500    0.9260    0.2500 C   0  0  0  0  0  0  0  0  0  0  0  0
   -3.6280    0.4980    1.0080 O   0  0  0  0  0  0  0  0  0  0  0  0
   -3.8860   -0.8610    1.0780 C   0  0  0  0  0  0  0  0  0  0  0  0
   -3.1430   -1.7600    0.4490 C   0  0  0  0  0  0  0  0  0  0  0  0
   -2.0040   -1.3380   -0.3550 C   0  0  0  0  0  0  0  0  0  0  0  0
   -1.7250   -0.0510   -0.4470 C   0  0  0  0  0  0  0  0  0  0  0  0
   -0.6490    0.4270   -1.1990 O   0  0  0  0  0  0  0  0  0  0  0  0
    0.6640    0.2710   -0.7180 C   0  0  0  0  0  0  0  0  0  0  0  0
    0.8590   -0.3580    0.4990 C   0  0  0  0  0  0  0  0  0  0  0  0
    2.1490   -0.5080    0.9650 C   0  0  0  0  0  0  0  0  0  0  0  0
    3.1790   -0.0210    0.1900 C   0  0  0  0  0  0  0  0  0  0  0  0
    4.4990   -0.1930    0.7010 N   0  0  0  0  0  0  0  0  0  0  0  0
    2.9960    0.6060   -1.0220 C   0  0  0  0  0  0  0  0  0  0  0  0
    1.7060    0.7530   -1.4810 C   0  0  0  0  0  0  0  0  0  0  0  0
  1  2  2  0
  2  3  1  0
  2  7  1  0
  3  4  1  0
  4  5  2  0
  5  6  1  0
  6  7  2  0
  7  8  1  0
  8  9  1  0
  9 10  2  0
  9 15  1  0
 10 11  1  0
 11 12  2  0
 12 13  1  0
 12 14  1  0
 14 15  2  0
M  END
