
     RDKit          3D

 25 27  0  0  0  0  0  0  0  0999 V2000
    1.4560    1.1530    1.6060 O   0  0  0  0  0  0  0  0  0  0  0  0
    1.5590    0.9620    0.3760 C   0  0  0  0  0  0  0  0  0  0  0  0
    0.3800    1.1230   -0.5040 C   0  0  0  0  0  0  0  0  0  0  0  0
   -0.4500   -0.1320   -0.4730 C   0  0  0  0  0  0  0  0  0  0  0  0
   -1.6800   -0.0750   -1.3430 C   0  0  0  0  0  0  0  0  0  0  0  0
   -2.5790    1.0440   -0.8910 C   0  0  0  0  0  0  0  0  0  0  0  0
   -3.8380    1.1320   -1.7150 C   0  0  0  0  0  0  0  0  0  0  0  0
   -4.6960   -0.0910   -1.6490 C   0  0  0  0  0  0  0  0  0  0  0  0
   -5.1750   -0.3890   -0.2820 C   0  0  0  0  0  0  0  0  0  0  0  0
   -4.5180   -1.1950    0.6080 C   0  0  0  0  0  0  0  0  0  0  0  0
   -5.0250   -1.4320    1.8910 C   0  0  0  0  0  0  0  0  0  0  0  0
   -6.2030   -0.8490    2.2730 C   0  0  0  0  0  0  0  0  0  0  0  0
   -6.8840   -0.0370    1.4030 C   0  0  0  0  0  0  0  0  0  0  0  0
   -6.3700    0.1870    0.1400 C   0  0  0  0  0  0  0  0  0  0  0  0
    2.8320    0.5810   -0.2050 C   0  0  0  0  0  0  0  0  0  0  0  0
    3.1190    0.3370   -1.4950 N   0  0  0  0  0  0  0  0  0  0  0  0
    4.3970    0.0170   -1.6180 N   0  0  0  0  0  0  0  0  0  0  0  0
    4.9340    0.0580   -0.3870 C   0  0  0  0  0  0  0  0  0  0  0  0
    6.3370   -0.2270   -0.0390 C   0  0  0  0  0  0  0  0  0  0  0  0
    7.2360   -0.5750   -1.0160 C   0  0  0  0  0  0  0  0  0  0  0  0
    8.5630   -0.8420   -0.6580 C   0  0  0  0  0  0  0  0  0  0  0  0
    8.9680   -0.7570    0.6590 C   0  0  0  0  0  0  0  0  0  0  0  0
    8.0250   -0.4030    1.6020 C   0  0  0  0  0  0  0  0  0  0  0  0
    6.7400   -0.1470    1.2410 N   0  0  0  0  0  0  0  0  0  0  0  0
    3.9890    0.3940    0.4270 O   0  0  0  0  0  0  0  0  0  0  0  0
  1  2  2  0
  2  3  1  0
  2 15  1  0
  3  4  1  0
  4  5  1  0
  5  6  1  0
  6  7  1  0
  7  8  1  0
  8  9  1  0
  9 10  2  0
  9 14  1  0
 10 11  1  0
 11 12  2  0
 12 13  1  0
 13 14  2  0
 15 16  2  0
 15 25  1  0
 16 17  1  0
 17 18  2  0
 18 19  1  0
 18 25  1  0
 19 20  2  0
 19 24  1  0
 20 21  1  0
 21 22  2  0
 22 23  1  0
 23 24  2  0
M  END
