
     RDKit          3D

 14 14  0  0  0  0  0  0  0  0999 V2000
   -2.8630    1.2700    0.1670 C   0  0  0  0  0  0  0  0  0  0  0  0
   -2.6650   -0.1930   -0.1540 C   0  0  1  0  0  0  0  0  0  0  0  0
   -3.4670   -0.6060   -1.2140 O   0  0  0  0  0  0  0  0  0  0  0  0
   -1.1820   -0.4350   -0.4650 C   0  0  2  0  0  0  0  0  0  0  0  0
   -0.9950   -1.7970   -0.6810 O   0  0  0  0  0  0  0  0  0  0  0  0
   -0.4040    0.0660    0.7170 C   0  0  0  0  0  0  0  0  0  0  0  0
    1.0100   -0.0900    0.5780 N   0  0  0  0  0  0  0  0  0  0  0  0
    1.7330   -1.1230    0.9410 N   0  0  0  0  0  0  0  0  0  0  0  0
    3.0300   -0.9290    0.6590 C   0  0  0  0  0  0  0  0  0  0  0  0
    3.9880   -1.7050    0.8710 O   0  0  0  0  0  0  0  0  0  0  0  0
    3.1030    0.2920    0.0900 N   0  0  0  0  0  0  0  0  0  0  0  0
    4.2610    0.9210   -0.3700 N   0  0  0  0  0  0  0  0  0  0  0  0
    1.8610    0.8020    0.0430 C   0  0  0  0  0  0  0  0  0  0  0  0
    1.5870    1.9320   -0.4330 O   0  0  0  0  0  0  0  0  0  0  0  0
  2  1  1  6
  2  3  1  0
  2  4  1  0
  4  5  1  1
  4  6  1  0
  6  7  1  0
  7  8  1  0
  7 13  1  0
  8  9  1  0
  9 10  2  0
  9 11  1  0
 11 12  1  0
 11 13  1  0
 13 14  2  0
M  END
