
     RDKit          3D

 14 14  0  0  0  0  0  0  0  0999 V2000
   -2.0830   -0.7300    1.0970 C   0  0  0  0  0  0  0  0  0  0  0  0
   -1.7280   -0.6280   -0.3720 C   0  0  1  0  0  0  0  0  0  0  0  0
   -2.9210   -0.2380   -1.0260 O   0  0  0  0  0  0  0  0  0  0  0  0
   -0.7330    0.4790   -0.6290 C   0  0  1  0  0  0  0  0  0  0  0  0
   -1.2900    1.6920   -0.0710 N   0  0  0  0  0  0  0  0  0  0  0  0
    0.5800    0.1840   -0.1150 N   0  0  0  0  0  0  0  0  0  0  0  0
    1.0110    0.8330    0.9490 N   0  0  0  0  0  0  0  0  0  0  0  0
    2.2450    0.5980    1.4820 C   0  0  0  0  0  0  0  0  0  0  0  0
    2.6540    1.2210    2.5000 O   0  0  0  0  0  0  0  0  0  0  0  0
    3.0640   -0.3180    0.9250 N   0  0  0  0  0  0  0  0  0  0  0  0
    2.6010   -0.9680   -0.1610 C   0  0  0  0  0  0  0  0  0  0  0  0
    3.3420   -1.8370   -0.7130 O   0  0  0  0  0  0  0  0  0  0  0  0
    1.3490   -0.7290   -0.7020 C   0  0  0  0  0  0  0  0  0  0  0  0
    0.9810   -1.3880   -1.7350 O   0  0  0  0  0  0  0  0  0  0  0  0
  2  1  1  1
  2  3  1  0
  2  4  1  0
  4  5  1  1
  4  6  1  0
  6  7  1  0
  6 13  1  0
  7  8  1  0
  8  9  2  0
  8 10  1  0
 10 11  1  0
 11 12  2  0
 11 13  1  0
 13 14  2  0
M  END
