
     RDKit          3D

 13 14  0  0  0  0  0  0  0  0999 V2000
   -1.0980    1.7820    0.7950 C   0  0  0  0  0  0  0  0  0  0  0  0
   -1.0970    0.3610    0.3850 C   0  0  1  0  0  0  0  0  0  0  0  0
   -1.6930   -0.4530    1.3220 O   0  0  0  0  0  0  0  0  0  0  0  0
   -1.8280    0.1240   -0.9160 C   0  0  0  0  0  0  0  0  0  0  0  0
   -2.4930    0.8850   -1.5600 O   0  0  0  0  0  0  0  0  0  0  0  0
   -1.5060   -1.3240   -1.2000 C   0  0  0  0  0  0  0  0  0  0  0  0
   -0.1120   -1.5090   -0.6430 C   0  0  0  0  0  0  0  0  0  0  0  0
    0.2560   -0.1870    0.0190 C   0  0  1  0  0  0  0  0  0  0  0  0
    0.9350    0.6060   -0.9650 N   0  0  0  0  0  0  0  0  0  0  0  0
    2.2490    0.6620   -0.5410 N   0  0  0  0  0  0  0  0  0  0  0  0
    2.2870    0.3680    0.8080 N   0  0  0  0  0  0  0  0  0  0  0  0
    3.4190   -0.3080    1.1280 O   0  0  0  0  0  0  0  0  0  0  0  0
    1.1380   -0.3610    1.1210 N   0  0  0  0  0  0  0  0  0  0  0  0
  2  1  1  1
  2  3  1  0
  2  4  1  0
  2  8  1  0
  4  5  2  0
  4  6  1  0
  6  7  1  0
  8  7  1  6
  8  9  1  0
  8 13  1  0
  9 10  1  0
 10 11  1  0
 11 12  1  0
 11 13  1  0
M  END
