
     RDKit          3D

 14 14  0  0  0  0  0  0  0  0999 V2000
   -2.8000   -1.2890   -0.6830 C   0  0  0  0  0  0  0  0  0  0  0  0
   -1.4790   -1.4290   -0.0850 N   0  0  0  0  0  0  0  0  0  0  0  0
   -1.2580   -0.4250    0.9430 C   0  0  0  0  0  0  0  0  0  0  0  0
   -1.1610    0.8960    0.2990 C   0  0  1  0  0  0  0  0  0  0  0  0
   -0.9450    1.9500    1.2180 O   0  0  0  0  0  0  0  0  0  0  0  0
   -0.7310    2.9720    0.3800 N   0  0  0  0  0  0  0  0  0  0  0  0
   -0.1030    2.5350   -0.7040 O   0  0  0  0  0  0  0  0  0  0  0  0
    0.0480    1.1270   -0.5780 C   0  0  1  0  0  0  0  0  0  0  0  0
    1.3270    0.9100    0.1080 C   0  0  0  0  0  0  0  0  0  0  0  0
    1.9700    1.9020    0.5410 O   0  0  0  0  0  0  0  0  0  0  0  0
    1.9110   -0.3560    0.3260 N   0  0  0  0  0  0  0  0  0  0  0  0
    3.1540   -0.5470    1.0070 C   0  0  0  0  0  0  0  0  0  0  0  0
    3.6630   -1.8630    1.1760 N   0  0  0  0  0  0  0  0  0  0  0  0
    3.7340    0.4770    1.4230 O   0  0  0  0  0  0  0  0  0  0  0  0
  1  2  1  0
  2  3  1  0
  4  3  1  1
  4  5  1  0
  4  8  1  0
  5  6  1  0
  6  7  1  0
  7  8  1  0
  8  9  1  1
  9 10  2  0
  9 11  1  0
 11 12  1  0
 12 13  1  0
 12 14  2  0
M  END
