
     RDKit          3D

 14 15  0  0  0  0  0  0  0  0999 V2000
    4.1270    1.7810    0.7900 O   0  0  0  0  0  0  0  0  0  0  0  0
    3.1960    0.9650    0.5510 C   0  0  0  0  0  0  0  0  0  0  0  0
    3.2970   -0.4650    0.3970 N   0  0  0  0  0  0  0  0  0  0  0  0
    1.9810   -0.9210    0.4450 N   0  0  0  0  0  0  0  0  0  0  0  0
    1.2020    0.1430   -0.1840 C   0  0  1  0  0  0  0  0  0  0  0  0
   -0.2180    0.0290    0.1730 C   0  0  0  0  0  0  0  0  0  0  0  0
   -1.2250   -0.1380   -0.6480 C   0  0  0  0  0  0  0  0  0  0  0  0
   -1.1420   -0.2400   -2.0330 O   0  0  0  0  0  0  0  0  0  0  0  0
   -2.4720   -0.2010    0.1330 C   0  0  0  0  0  0  0  0  0  0  0  0
   -3.6740   -0.1330   -0.3220 N   0  0  0  0  0  0  0  0  0  0  0  0
   -3.8930    0.0130   -1.6540 O   0  0  0  0  0  0  0  0  0  0  0  0
   -2.0220   -0.3590    1.5430 C   0  0  0  0  0  0  0  0  0  0  0  0
   -0.6820    0.0880    1.4920 O   0  0  0  0  0  0  0  0  0  0  0  0
    1.8280    1.3210    0.3850 N   0  0  0  0  0  0  0  0  0  0  0  0
  1  2  2  0
  2  3  1  0
  2 14  1  0
  3  4  1  0
  4  5  1  0
  5  6  1  1
  5 14  1  0
  6  7  2  0
  6 13  1  0
  7  8  1  0
  7  9  1  0
  9 10  2  3
  9 12  1  0
 10 11  1  0
 12 13  1  0
M  END
