
     RDKit          3D

 13 14  0  0  0  0  0  0  0  0999 V2000
    4.2580    1.4950   -0.2080 O   0  0  0  0  0  0  0  0  0  0  0  0
    3.0290    1.3990   -0.1850 N   0  0  0  0  0  0  0  0  0  0  0  0
    2.3770    0.1950   -0.5240 N   0  0  0  0  0  0  0  0  0  0  0  0
    1.3010   -0.2710    0.3450 C   0  0  1  0  0  0  0  0  0  0  0  0
    0.2190    0.7210    0.4090 C   0  0  0  0  0  0  0  0  0  0  0  0
   -1.0320    0.4860    0.0610 C   0  0  0  0  0  0  0  0  0  0  0  0
   -2.1540    1.2410    0.0430 N   0  0  0  0  0  0  0  0  0  0  0  0
   -3.1610    0.4730   -0.4140 C   0  0  0  0  0  0  0  0  0  0  0  0
   -4.3390    0.8650   -0.5550 O   0  0  0  0  0  0  0  0  0  0  0  0
   -2.6670   -0.7140   -0.6670 O   0  0  0  0  0  0  0  0  0  0  0  0
   -1.3900   -0.7680   -0.4010 C   0  0  0  0  0  0  0  0  0  0  0  0
   -0.4990   -1.7380   -0.5000 C   0  0  0  0  0  0  0  0  0  0  0  0
    0.8510   -1.5410   -0.1420 N   0  0  0  0  0  0  0  0  0  0  0  0
  1  2  2  0
  2  3  1  0
  4  3  1  6
  4  5  1  0
  4 13  1  0
  5  6  2  0
  6  7  1  0
  6 11  1  0
  7  8  1  0
  8  9  2  0
  8 10  1  0
 10 11  1  0
 11 12  2  0
 12 13  1  0
M  END
