
     RDKit          3D

 14 14  0  0  0  0  0  0  0  0999 V2000
    4.2210    1.4780    0.0140 N   0  0  0  0  0  0  0  0  0  0  0  0
    3.0710    1.0030    0.6840 C   0  0  0  0  0  0  0  0  0  0  0  0
    2.9760    1.1030    1.9090 O   0  0  0  0  0  0  0  0  0  0  0  0
    2.0050    0.3970   -0.0880 C   0  0  0  0  0  0  0  0  0  0  0  0
    2.0810    0.2840   -1.3460 O   0  0  0  0  0  0  0  0  0  0  0  0
    0.8430   -0.0840    0.5850 N   0  0  0  0  0  0  0  0  0  0  0  0
   -0.2120   -0.6850   -0.1880 C   0  0  0  0  0  0  0  0  0  0  0  0
   -1.3280   -1.1110    0.7540 C   0  0  2  0  0  0  0  0  0  0  0  0
   -2.4240   -1.5700   -0.0760 N   0  0  0  0  0  0  0  0  0  0  0  0
   -3.0470   -0.6020   -0.9090 C   0  0  0  0  0  0  0  0  0  0  0  0
   -3.6300   -0.9380   -1.9710 O   0  0  0  0  0  0  0  0  0  0  0  0
   -2.9750    0.7860   -0.4710 C   0  0  0  0  0  0  0  0  0  0  0  0
   -2.3570    1.0370    0.6320 N   0  0  0  0  0  0  0  0  0  0  0  0
   -1.7710    0.0660    1.4040 O   0  0  0  0  0  0  0  0  0  0  0  0
  1  2  1  0
  2  3  2  0
  2  4  1  0
  4  5  2  0
  4  6  1  0
  6  7  1  0
  8  7  1  6
  8  9  1  0
  8 14  1  0
  9 10  1  0
 10 11  2  0
 10 12  1  0
 12 13  2  0
 13 14  1  0
M  END
