
     RDKit          3D

  7  6  0  0  0  0  0  0  0  0999 V2000
    2.9150   -0.2730    0.1850 C   0  0  0  0  0  0  0  0  0  0  0  0
    1.5330    0.2960   -0.1430 C   0  0  0  0  0  0  0  0  0  0  0  0
    0.5150   -0.6560    0.1950 N   0  0  0  0  0  0  0  0  0  0  0  0
   -0.7980   -0.3140   -0.2580 C   0  0  1  0  0  0  0  0  0  0  0  0
   -1.8340   -1.2790    0.2940 C   0  0  0  0  0  0  0  0  0  0  0  0
   -1.1970    1.0560    0.2460 C   0  0  0  0  0  0  0  0  0  0  0  0
   -2.5080    1.2880   -0.2430 O   0  0  0  0  0  0  0  0  0  0  0  0
  1  2  1  0
  2  3  1  0
  3  4  1  0
  4  5  1  1
  4  6  1  0
  6  7  1  0
M  END
