
     RDKit          3D

  7  6  0  0  0  0  0  0  0  0999 V2000
   -2.1920    0.5970    0.2910 C   0  0  0  0  0  0  0  0  0  0  0  0
   -1.2200    0.6270   -0.8600 C   0  0  0  0  0  0  0  0  0  0  0  0
    0.0080   -0.0820   -0.6440 N   0  0  0  0  0  0  0  0  0  0  0  0
   -0.3040   -1.5190   -0.5840 C   0  0  0  0  0  0  0  0  0  0  0  0
    0.6740    0.3420    0.5610 C   0  0  0  0  0  0  0  0  0  0  0  0
    2.1430   -0.0530    0.5670 C   0  0  0  0  0  0  0  0  0  0  0  0
    2.8020    0.5650   -0.5030 O   0  0  0  0  0  0  0  0  0  0  0  0
  1  2  1  0
  2  3  1  0
  3  4  1  0
  3  5  1  0
  5  6  1  0
  6  7  1  0
M  END
