
     RDKit          3D

  7  6  0  0  0  0  0  0  0  0999 V2000
    1.1980    1.1830   -0.0170 C   0  0  0  0  0  0  0  0  0  0  0  0
    0.5190   -0.1460   -0.2620 C   0  0  1  0  0  0  0  0  0  0  0  0
    1.1090   -1.1430    0.7450 C   0  0  0  0  0  0  0  0  0  0  0  0
    2.5020   -1.1630    0.6630 O   0  0  0  0  0  0  0  0  0  0  0  0
   -0.8760   -0.1210   -0.2120 N   0  0  0  0  0  0  0  0  0  0  0  0
   -1.5420    0.2150    0.9740 C   0  0  0  0  0  0  0  0  0  0  0  0
   -1.5790    0.0560   -1.4290 C   0  0  0  0  0  0  0  0  0  0  0  0
  2  1  1  1
  2  3  1  0
  2  5  1  0
  3  4  1  0
  5  6  1  0
  5  7  1  0
M  END
