
     RDKit          3D

  7  6  0  0  0  0  0  0  0  0999 V2000
   -2.4450   -1.1170    0.3810 C   0  0  0  0  0  0  0  0  0  0  0  0
   -1.6660   -0.0400   -0.2520 N   0  0  0  0  0  0  0  0  0  0  0  0
   -0.9640    0.6260    0.8300 C   0  0  0  0  0  0  0  0  0  0  0  0
    0.1780    1.4510    0.3470 C   0  0  0  0  0  0  0  0  0  0  0  0
    1.2300    0.7030   -0.3830 C   0  0  0  0  0  0  0  0  0  0  0  0
    1.8190   -0.2830    0.3630 O   0  0  0  0  0  0  0  0  0  0  0  0
    2.7970   -0.9630   -0.3510 C   0  0  0  0  0  0  0  0  0  0  0  0
  1  2  1  0
  2  3  1  0
  3  4  1  0
  4  5  1  0
  5  6  1  0
  6  7  1  0
M  CHG  1   2   1
M  END
