
     RDKit          3D

  7  6  0  0  0  0  0  0  0  0999 V2000
   -1.2850   -0.6860    1.1120 C   0  0  0  0  0  0  0  0  0  0  0  0
   -0.5330   -0.0420    0.0210 N   0  0  1  0  0  0  0  0  0  0  0  0
   -0.6060   -0.9060   -1.1070 C   0  0  0  0  0  0  0  0  0  0  0  0
   -1.2620    1.2060   -0.2440 C   0  0  0  0  0  0  0  0  0  0  0  0
    0.7720    0.2460    0.4990 C   0  0  0  0  0  0  0  0  0  0  0  0
    1.8840   -0.0220   -0.4620 C   0  0  0  0  0  0  0  0  0  0  0  0
    3.0860    0.3270    0.1960 O   0  0  0  0  0  0  0  0  0  0  0  0
  2  1  1  1
  2  3  1  0
  2  4  1  0
  2  5  1  0
  5  6  1  0
  6  7  1  0
M  CHG  1   2   1
M  END
