
     RDKit          3D

  7  6  0  0  0  0  0  0  0  0999 V2000
    2.6200   -1.0060   -0.1730 C   0  0  0  0  0  0  0  0  0  0  0  0
    1.3590   -0.6530    0.3490 N   0  0  0  0  0  0  0  0  0  0  0  0
    0.5500    0.1980   -0.4530 C   0  0  0  0  0  0  0  0  0  0  0  0
   -0.7570    0.4430    0.3070 C   0  0  2  0  0  0  0  0  0  0  0  0
   -1.4180   -0.8750    0.5850 C   0  0  0  0  0  0  0  0  0  0  0  0
   -1.6590    1.3650   -0.4710 C   0  0  0  0  0  0  0  0  0  0  0  0
   -0.4950    1.0500    1.5340 O   0  0  0  0  0  0  0  0  0  0  0  0
  1  2  1  0
  2  3  1  0
  3  4  1  0
  4  5  1  1
  4  6  1  0
  4  7  1  0
M  END
