
     RDKit          3D

 20 21  0  0  0  0  0  0  0  0999 V2000
    6.3780    0.4090   -1.1700 C   0  0  0  0  0  0  0  0  0  0  0  0
    5.1970   -0.0360   -0.5670 O   0  0  0  0  0  0  0  0  0  0  0  0
    4.0930    0.7620   -0.3300 C   0  0  0  0  0  0  0  0  0  0  0  0
    4.1410    1.9620   -0.6730 O   0  0  0  0  0  0  0  0  0  0  0  0
    2.9380    0.2420    0.2830 N   0  0  0  0  0  0  0  0  0  0  0  0
    1.8060    1.1010    0.5150 C   0  0  0  0  0  0  0  0  0  0  0  0
    0.5090    0.4150    0.1650 C   0  0  0  0  0  0  0  0  0  0  0  0
    0.3750   -0.9320    0.8780 C   0  0  1  0  0  0  0  0  0  0  0  0
   -0.8300   -1.5250    0.4490 O   0  0  0  0  0  0  0  0  0  0  0  0
   -2.0720   -0.9030    0.6520 C   0  0  0  0  0  0  0  0  0  0  0  0
   -2.4840   -0.7050    1.9730 N   0  0  0  0  0  0  0  0  0  0  0  0
   -2.7460   -0.5570   -0.3980 C   0  0  0  0  0  0  0  0  0  0  0  0
   -4.0340    0.0900   -0.5060 C   0  0  0  0  0  0  0  0  0  0  0  0
   -4.6410    0.4030   -1.6500 C   0  0  0  0  0  0  0  0  0  0  0  0
   -5.9190    1.0430   -1.4320 C   0  0  0  0  0  0  0  0  0  0  0  0
   -6.1140    1.1320   -0.1360 C   0  0  0  0  0  0  0  0  0  0  0  0
   -4.9400    0.5380    0.5350 C   0  0  0  0  0  0  0  0  0  0  0  0
   -4.8080    0.4640    1.7860 O   0  0  0  0  0  0  0  0  0  0  0  0
    1.5330   -1.7770    0.3930 C   0  0  0  0  0  0  0  0  0  0  0  0
    2.8540   -1.1520    0.6930 C   0  0  0  0  0  0  0  0  0  0  0  0
  1  2  1  0
  2  3  1  0
  3  4  2  0
  3  5  1  0
  5  6  1  0
  5 20  1  0
  6  7  1  0
  7  8  1  0
  8  9  1  6
  8 19  1  0
  9 10  1  0
 10 11  1  0
 10 12  2  3
 12 13  1  0
 13 14  2  0
 13 17  1  0
 14 15  1  0
 15 16  2  0
 16 17  1  0
 17 18  2  0
 19 20  1  0
M  END
