
     RDKit          3D

  7  6  0  0  0  0  0  0  0  0999 V2000
    2.6730    0.4910   -0.0560 C   0  0  0  0  0  0  0  0  0  0  0  0
    1.2280    0.6690   -0.2080 C   0  0  0  0  0  0  0  0  0  0  0  0
    0.3570   -0.2550    0.1830 C   0  0  0  0  0  0  0  0  0  0  0  0
    0.8660   -1.4340    0.7610 O   0  0  0  0  0  0  0  0  0  0  0  0
   -1.0280   -0.1010    0.0440 N   0  0  0  0  0  0  0  0  0  0  0  0
   -1.6530    1.2040    0.1430 C   0  0  0  0  0  0  0  0  0  0  0  0
   -1.8840   -1.2450   -0.2030 C   0  0  0  0  0  0  0  0  0  0  0  0
  1  2  1  0
  2  3  2  3
  3  4  1  0
  3  5  1  0
  5  6  1  0
  5  7  1  0
M  END
