
     RDKit          3D

 10 10  0  0  0  0  0  0  0  0999 V2000
   -3.7890    0.3810   -0.2100 C   0  0  0  0  0  0  0  0  0  0  0  0
   -2.5700   -0.1080    0.3000 O   0  0  0  0  0  0  0  0  0  0  0  0
   -1.3570   -0.0010   -0.3530 C   0  0  0  0  0  0  0  0  0  0  0  0
   -1.3550    0.5720   -1.4730 O   0  0  0  0  0  0  0  0  0  0  0  0
   -0.0740   -0.5120    0.1770 C   0  0  2  0  0  0  0  0  0  0  0  0
   -0.3190   -1.1260    1.4680 N   0  0  0  0  0  0  0  0  0  0  0  0
    0.9450    0.5820    0.3690 C   0  0  1  0  0  0  0  0  0  0  0  0
    2.2380    0.0110    0.9110 C   0  0  0  0  0  0  0  0  0  0  0  0
    2.6620   -0.1790   -0.4730 N   0  0  0  0  0  0  0  0  0  0  0  0
    1.7780    0.9200   -0.8200 C   0  0  0  0  0  0  0  0  0  0  0  0
  1  2  1  0
  2  3  1  0
  3  4  2  0
  3  5  1  0
  5  6  1  1
  5  7  1  0
  7  8  1  1
  7 10  1  0
  8  9  1  0
  9 10  1  0
M  CHG  2   6   1   9   1
M  END
