
     RDKit          3D

 10 10  0  0  0  0  0  0  0  0999 V2000
   -3.0020   -0.5690   -0.2330 N   0  0  0  0  0  0  0  0  0  0  0  0
   -1.5660   -0.6340   -0.3740 C   0  0  0  0  0  0  0  0  0  0  0  0
   -0.9420    0.4690    0.4350 C   0  0  2  0  0  0  0  0  0  0  0  0
   -1.4050    1.7500   -0.0270 N   0  0  0  0  0  0  0  0  0  0  0  0
    0.5590    0.4030    0.4420 C   0  0  1  0  0  0  0  0  0  0  0  0
    1.0370   -0.8980    1.0240 C   0  0  0  0  0  0  0  0  0  0  0  0
    1.6970   -1.6790    0.0550 O   0  0  0  0  0  0  0  0  0  0  0  0
    2.8110   -1.0050   -0.4530 C   0  0  0  0  0  0  0  0  0  0  0  0
    2.5030    0.4470   -0.6520 C   0  0  0  0  0  0  0  0  0  0  0  0
    1.1150    0.5990   -0.8090 O   0  0  0  0  0  0  0  0  0  0  0  0
  1  2  1  0
  2  3  1  0
  3  4  1  6
  3  5  1  0
  5  6  1  6
  5 10  1  0
  6  7  1  0
  7  8  1  0
  8  9  1  0
  9 10  1  0
M  CHG  2   1   1   4   1
M  END
