
     RDKit          3D

 10 10  0  0  0  0  0  0  0  0999 V2000
   -2.1750   -0.9740   -0.9990 N   0  0  0  0  0  0  0  0  0  0  0  0
   -1.2370   -1.0160    0.0930 C   0  0  0  0  0  0  0  0  0  0  0  0
   -0.2740    0.1470    0.0920 C   0  0  1  0  0  0  0  0  0  0  0  0
   -1.0940    1.4180    0.2040 C   0  0  0  0  0  0  0  0  0  0  0  0
   -0.1790    2.4810    0.2020 O   0  0  0  0  0  0  0  0  0  0  0  0
    0.5410   -0.0120    1.3840 C   0  0  0  0  0  0  0  0  0  0  0  0
    1.6440   -0.9020    0.9850 N   0  0  0  0  0  0  0  0  0  0  0  0
    2.5280   -0.0490    0.1940 C   0  0  0  0  0  0  0  0  0  0  0  0
    1.9100    0.5520   -0.8570 O   0  0  0  0  0  0  0  0  0  0  0  0
    0.6170    0.1950   -1.0960 C   0  0  0  0  0  0  0  0  0  0  0  0
  1  2  1  0
  3  2  1  6
  3  4  1  0
  3  6  1  0
  3 10  1  0
  4  5  1  0
  6  7  1  0
  7  8  1  0
  8  9  1  0
  9 10  1  0
M  CHG  2   1   1   7   1
M  END
