
     RDKit          3D

 10 10  0  0  0  0  0  0  0  0999 V2000
    1.7430    0.8250   -1.0090 N   0  0  0  0  0  0  0  0  0  0  0  0
    1.5700   -0.2360   -0.0790 C   0  0  0  0  0  0  0  0  0  0  0  0
    0.1200   -0.3960    0.3810 C   0  0  2  0  0  0  0  0  0  0  0  0
    0.1500   -1.5290    1.3250 N   0  0  0  0  0  0  0  0  0  0  0  0
   -0.7120   -0.8120   -0.7760 C   0  0  0  0  0  0  0  0  0  0  0  0
   -1.9380    0.0040   -1.0040 C   0  0  0  0  0  0  0  0  0  0  0  0
   -1.7650    1.3790   -0.7850 O   0  0  0  0  0  0  0  0  0  0  0  0
   -1.1010    1.7740    0.3630 C   0  0  0  0  0  0  0  0  0  0  0  0
   -1.0910    2.9640    0.7800 O   0  0  0  0  0  0  0  0  0  0  0  0
   -0.3720    0.7790    1.1390 C   0  0  0  0  0  0  0  0  0  0  0  0
  1  2  1  0
  2  3  1  0
  3  4  1  1
  3  5  1  0
  3 10  1  0
  5  6  1  0
  6  7  1  0
  7  8  1  0
  8  9  2  0
  8 10  1  0
M  CHG  2   1   1   4   1
M  END
