
     RDKit          3D

 10 10  0  0  0  0  0  0  0  0999 V2000
    3.6340    0.4470   -0.3010 C   0  0  0  0  0  0  0  0  0  0  0  0
    2.8300   -0.4440   -0.9950 O   0  0  0  0  0  0  0  0  0  0  0  0
    1.8720   -1.0540   -0.2070 C   0  0  0  0  0  0  0  0  0  0  0  0
    0.9700   -0.0200    0.3830 C   0  0  2  0  0  0  0  0  0  0  0  0
   -0.2060   -0.6600    1.1020 C   0  0  0  0  0  0  0  0  0  0  0  0
   -1.3330   -0.5070    0.1300 C   0  0  1  0  0  0  0  0  0  0  0  0
   -2.2100    0.6380    0.6030 C   0  0  0  0  0  0  0  0  0  0  0  0
   -3.2940    0.7840   -0.3340 N   0  0  0  0  0  0  0  0  0  0  0  0
   -0.6470   -0.0720   -1.0860 N   0  0  0  0  0  0  0  0  0  0  0  0
    0.3740    0.6750   -0.6570 O   0  0  0  0  0  0  0  0  0  0  0  0
  1  2  1  0
  2  3  1  0
  4  3  1  6
  4  5  1  0
  4 10  1  0
  5  6  1  0
  6  7  1  1
  6  9  1  0
  7  8  1  0
  9 10  1  0
M  CHG  2   8   1   9   1
M  END
