
     RDKit          3D

 10 10  0  0  0  0  0  0  0  0999 V2000
    2.5090    1.0740   -0.2520 C   0  0  0  0  0  0  0  0  0  0  0  0
    1.9400   -0.0700    0.4170 N   0  0  0  0  0  0  0  0  0  0  0  0
    0.6220    0.1240    0.9040 C   0  0  0  0  0  0  0  0  0  0  0  0
   -0.4670   -0.3910    0.0010 C   0  0  1  0  0  0  0  0  0  0  0  0
   -0.3680   -1.8070   -0.2410 N   0  0  0  0  0  0  0  0  0  0  0  0
   -1.8140   -0.1350    0.6420 C   0  0  0  0  0  0  0  0  0  0  0  0
   -2.5650    0.7910   -0.2480 C   0  0  0  0  0  0  0  0  0  0  0  0
   -1.8390    0.8160   -1.4460 O   0  0  0  0  0  0  0  0  0  0  0  0
   -0.5630    0.3130   -1.2820 C   0  0  0  0  0  0  0  0  0  0  0  0
    0.3300    0.4910   -2.1790 O   0  0  0  0  0  0  0  0  0  0  0  0
  1  2  1  0
  2  3  1  0
  3  4  1  0
  4  5  1  6
  4  6  1  0
  4  9  1  0
  6  7  1  0
  7  8  1  0
  8  9  1  0
  9 10  2  0
M  CHG  2   2   1   5   1
M  END
