
     RDKit          3D

 10 10  0  0  0  0  0  0  0  0999 V2000
   -0.7290    1.9680   -0.4010 C   0  0  0  0  0  0  0  0  0  0  0  0
   -1.4170    0.7350   -0.1030 N   0  0  0  0  0  0  0  0  0  0  0  0
   -0.6550   -0.4330   -0.3820 C   0  0  2  0  0  0  0  0  0  0  0  0
   -1.0430   -1.5130    0.6330 C   0  0  0  0  0  0  0  0  0  0  0  0
   -2.4580   -1.7850    0.4960 N   0  0  0  0  0  0  0  0  0  0  0  0
    0.8230   -0.2640   -0.3030 C   0  0  2  0  0  0  0  0  0  0  0  0
    1.2970    0.1350    0.9210 O   0  0  0  0  0  0  0  0  0  0  0  0
    2.6710    0.2050    0.6660 C   0  0  0  0  0  0  0  0  0  0  0  0
    2.6670    0.8110   -0.7330 C   0  0  0  0  0  0  0  0  0  0  0  0
    1.3470    0.6470   -1.1850 O   0  0  0  0  0  0  0  0  0  0  0  0
  1  2  1  0
  2  3  1  0
  3  4  1  1
  3  6  1  0
  4  5  1  0
  6  7  1  1
  6 10  1  0
  7  8  1  0
  8  9  1  0
  9 10  1  0
M  CHG  2   2   1   5   1
M  END
