
     RDKit          3D

 28 29  0  0  0  0  0  0  0  0999 V2000
   -8.3250    0.1180   -1.6540 C   0  0  0  0  0  0  0  0  0  0  0  0
   -6.8390   -0.0520   -1.7050 C   0  0  1  0  0  0  0  0  0  0  0  0
   -6.2520    0.8510   -2.5880 O   0  0  0  0  0  0  0  0  0  0  0  0
   -6.2900    0.1330   -0.3060 C   0  0  2  0  0  0  0  0  0  0  0  0
   -4.8470   -0.0850   -0.3150 N   0  0  0  0  0  0  0  0  0  0  0  0
   -3.9290    0.8840    0.1350 C   0  0  0  0  0  0  0  0  0  0  0  0
   -4.4410    1.9750    0.5530 O   0  0  0  0  0  0  0  0  0  0  0  0
   -2.4820    0.7170    0.1480 C   0  0  0  0  0  0  0  0  0  0  0  0
   -1.8900   -0.4400   -0.3100 C   0  0  0  0  0  0  0  0  0  0  0  0
   -0.4960   -0.5700   -0.2820 C   0  0  0  0  0  0  0  0  0  0  0  0
    0.3060    0.4360    0.1960 C   0  0  0  0  0  0  0  0  0  0  0  0
    1.7280    0.2540    0.2050 C   0  0  0  0  0  0  0  0  0  0  0  0
    2.9400    0.1080    0.2280 C   0  0  0  0  0  0  0  0  0  0  0  0
    4.3480   -0.0400    0.2670 C   0  0  0  0  0  0  0  0  0  0  0  0
    5.5530   -0.1570    0.3190 C   0  0  0  0  0  0  0  0  0  0  0  0
    6.9960   -0.2760    0.3940 C   0  0  0  0  0  0  0  0  0  0  0  0
    7.5160   -1.3680    1.0430 C   0  0  0  0  0  0  0  0  0  0  0  0
    8.9000   -1.4810    1.1130 C   0  0  0  0  0  0  0  0  0  0  0  0
    9.7240   -0.5310    0.5500 C   0  0  0  0  0  0  0  0  0  0  0  0
   11.1330   -0.6770    0.6380 N   0  0  0  0  0  0  0  0  0  0  0  0
    9.2090    0.5640   -0.1020 C   0  0  0  0  0  0  0  0  0  0  0  0
    7.8280    0.6770   -0.1710 C   0  0  0  0  0  0  0  0  0  0  0  0
   -0.3140    1.5850    0.6490 C   0  0  0  0  0  0  0  0  0  0  0  0
   -1.6950    1.7250    0.6260 C   0  0  0  0  0  0  0  0  0  0  0  0
   -6.8780   -0.9000    0.5830 C   0  0  0  0  0  0  0  0  0  0  0  0
   -6.1820   -1.7650    1.1780 O   0  0  0  0  0  0  0  0  0  0  0  0
   -8.2900   -0.9070    0.7680 N   0  0  0  0  0  0  0  0  0  0  0  0
   -8.8030   -0.6900    1.8970 O   0  0  0  0  0  0  0  0  0  0  0  0
  2  1  1  1
  2  3  1  0
  2  4  1  0
  4  5  1  6
  4 25  1  0
  5  6  1  0
  6  7  2  0
  6  8  1  0
  8  9  2  0
  8 24  1  0
  9 10  1  0
 10 11  2  0
 11 12  1  0
 11 23  1  0
 12 13  3  0
 13 14  1  0
 14 15  3  0
 15 16  1  0
 16 17  2  0
 16 22  1  0
 17 18  1  0
 18 19  2  0
 19 20  1  0
 19 21  1  0
 21 22  2  0
 23 24  2  0
 25 26  2  0
 25 27  1  0
 27 28  2  0
M  END
