
     RDKit          3D

 19 18  0  0  0  0  0  0  0  0999 V2000
    4.5300    0.5780    1.8270 C   0  0  0  0  0  0  0  0  0  0  0  0
    4.3480    0.2440    0.3890 C   0  0  0  0  0  0  0  0  0  0  0  0
    3.1700   -0.3220    0.0440 O   0  0  0  0  0  0  0  0  0  0  0  0
    2.0600    0.4300    0.3120 C   0  0  0  0  0  0  0  0  0  0  0  0
    0.7620   -0.2340   -0.0900 C   0  0  1  0  0  0  0  0  0  0  0  0
    0.5640   -1.5640    0.5490 C   0  0  0  0  0  0  0  0  0  0  0  0
    1.5940   -2.5360    0.1890 N   0  0  0  0  0  0  0  0  0  0  0  0
   -0.2460    0.6410    0.2450 O   0  0  0  0  0  0  0  0  0  0  0  0
   -1.6080    0.6330    0.0950 C   0  0  0  0  0  0  0  0  0  0  0  0
   -2.2190    1.2780   -1.0700 C   0  0  0  0  0  0  0  0  0  0  0  0
   -1.4860    1.8960   -1.9590 C   0  0  0  0  0  0  0  0  0  0  0  0
   -0.0890    2.0040   -1.8860 N   0  0  0  0  0  0  0  0  0  0  0  0
   -2.1360    2.5270   -3.1170 C   0  0  0  0  0  0  0  0  0  0  0  0
   -1.2700    3.3010   -4.2380 S   0  0  0  0  0  0  0  0  0  0  0  0
   -2.3360    0.0460    0.9990 C   0  0  0  0  0  0  0  0  0  0  0  0
   -1.7340   -0.5570    2.0920 O   0  0  0  0  0  0  0  0  0  0  0  0
   -3.7960   -0.0310    0.9590 C   0  0  0  0  0  0  0  0  0  0  0  0
   -4.2340   -1.3710    0.9260 O   0  0  0  0  0  0  0  0  0  0  0  0
   -3.7610   -1.9830   -0.2090 C   0  0  0  0  0  0  0  0  0  0  0  0
  1  2  1  0
  2  3  1  0
  3  4  1  0
  5  4  1  1
  5  6  1  0
  5  8  1  0
  6  7  1  0
  8  9  1  0
  9 10  1  0
  9 15  2  3
 10 11  2  3
 11 12  1  0
 11 13  1  0
 13 14  2  0
 15 16  1  0
 15 17  1  0
 17 18  1  0
 18 19  1  0
M  CHG  1   7   1
M  END
