
     RDKit          3D

 19 18  0  0  0  0  0  0  0  0999 V2000
    4.5620    1.2450   -0.9510 C   0  0  0  0  0  0  0  0  0  0  0  0
    5.4520    0.4660   -0.0600 C   0  0  2  0  0  0  0  0  0  0  0  0
    5.9500   -0.7640   -0.7010 N   0  0  0  0  0  0  0  0  0  0  0  0
    4.9120    0.0430    1.2750 C   0  0  0  0  0  0  0  0  0  0  0  0
    3.9270   -0.8700    1.2600 O   0  0  0  0  0  0  0  0  0  0  0  0
    2.7070   -0.5930    0.7530 C   0  0  0  0  0  0  0  0  0  0  0  0
    1.9700    0.4990    1.5270 C   0  0  0  0  0  0  0  0  0  0  0  0
    0.6360    0.8010    0.9340 C   0  0  0  0  0  0  0  0  0  0  0  0
   -0.2810   -0.4100    0.9180 C   0  0  0  0  0  0  0  0  0  0  0  0
   -1.6110   -0.0280    0.3040 C   0  0  0  0  0  0  0  0  0  0  0  0
   -2.5640   -1.2040    0.2640 C   0  0  2  0  0  0  0  0  0  0  0  0
   -2.8430   -1.7350    1.6520 C   0  0  0  0  0  0  0  0  0  0  0  0
   -1.9620   -2.2470   -0.4470 O   0  0  0  0  0  0  0  0  0  0  0  0
   -3.8260   -0.7960   -0.4510 C   0  0  0  0  0  0  0  0  0  0  0  0
   -4.5340    0.3470    0.2180 C   0  0  0  0  0  0  0  0  0  0  0  0
   -5.7330    0.6260   -0.5850 N   0  0  0  0  0  0  0  0  0  0  0  0
   -6.6510    1.9130    0.0540 S   0  0  2  0  0  0  0  0  0  0  0  0
   -6.4860    1.9840    1.5450 O   0  0  0  0  0  0  0  0  0  0  0  0
   -8.1030    1.6980   -0.3210 O   0  0  0  0  0  0  0  0  0  0  0  0
  2  1  1  6
  2  3  1  0
  2  4  1  0
  4  5  1  0
  5  6  1  0
  6  7  1  0
  7  8  1  0
  8  9  1  0
  9 10  1  0
 10 11  1  0
 11 12  1  1
 11 13  1  0
 11 14  1  0
 14 15  1  0
 15 16  1  0
 17 16  1  1
 17 18  2  0
 17 19  2  0
M  CHG  1   3   1
M  END
