
     RDKit          3D

 19 18  0  0  0  0  0  0  0  0999 V2000
   -3.1080    2.6030    2.1400 C   0  0  0  0  0  0  0  0  0  0  0  0
   -1.6720    1.7250    2.6810 S   0  0  0  0  0  0  0  0  0  0  0  0
   -0.4180    1.3630    1.4510 C   0  0  0  0  0  0  0  0  0  0  0  0
   -0.8350    0.2750    0.4430 C   0  0  1  0  0  0  0  0  0  0  0  0
   -2.0520    0.7760   -0.2060 C   0  0  0  0  0  0  0  0  0  0  0  0
   -2.7360   -0.0190   -1.2540 C   0  0  0  0  0  0  0  0  0  0  0  0
   -3.1700   -1.3150   -0.8490 N   0  0  0  0  0  0  0  0  0  0  0  0
    0.3530   -0.0280   -0.3750 C   0  0  2  0  0  0  0  0  0  0  0  0
    0.7720    1.2610   -1.1370 C   0  0  0  0  0  0  0  0  0  0  0  0
    0.2840   -1.1020   -1.3870 C   0  0  0  0  0  0  0  0  0  0  0  0
   -0.0610   -2.4560   -0.8220 C   0  0  0  0  0  0  0  0  0  0  0  0
   -0.1190   -3.5300   -1.7470 N   0  0  0  0  0  0  0  0  0  0  0  0
   -0.2920   -2.6920    0.3670 O   0  0  0  0  0  0  0  0  0  0  0  0
    1.6000   -0.3000    0.4330 C   0  0  0  0  0  0  0  0  0  0  0  0
    1.9900   -1.4750    0.6270 O   0  0  0  0  0  0  0  0  0  0  0  0
    2.3320    0.7160    0.9710 O   0  0  0  0  0  0  0  0  0  0  0  0
    3.5010    0.6400    1.7310 C   0  0  0  0  0  0  0  0  0  0  0  0
    4.6920    0.0450    1.0250 C   0  0  0  0  0  0  0  0  0  0  0  0
    4.5250   -1.2480    0.5830 O   0  0  0  0  0  0  0  0  0  0  0  0
  1  2  1  0
  2  3  1  0
  4  3  1  1
  4  5  1  0
  4  8  1  0
  5  6  1  0
  6  7  1  0
  8  9  1  6
  8 10  1  0
  8 14  1  0
 10 11  1  0
 11 12  1  0
 11 13  2  0
 14 15  2  0
 14 16  1  0
 16 17  1  0
 17 18  1  0
 18 19  1  0
M  CHG  1   7   1
M  END
