
     RDKit          3D

 19 18  0  0  0  0  0  0  0  0999 V2000
    6.0780   -0.5480   -0.2420 C   0  0  0  0  0  0  0  0  0  0  0  0
    5.2960   -1.5520    0.2260 O   0  0  0  0  0  0  0  0  0  0  0  0
    4.0300   -1.6520   -0.2170 C   0  0  0  0  0  0  0  0  0  0  0  0
    3.1150   -0.4820    0.0090 C   0  0  2  0  0  0  0  0  0  0  0  0
    1.7490   -0.9630   -0.5370 C   0  0  0  0  0  0  0  0  0  0  0  0
    0.7580    0.0620   -0.3880 N   0  0  0  0  0  0  0  0  0  0  0  0
   -0.5500   -0.6000   -0.5600 C   0  0  0  0  0  0  0  0  0  0  0  0
   -1.6600    0.3190   -0.1240 C   0  0  0  0  0  0  0  0  0  0  0  0
   -3.0130   -0.2810   -0.2830 C   0  0  1  0  0  0  0  0  0  0  0  0
   -3.2020   -1.5110    0.5020 C   0  0  0  0  0  0  0  0  0  0  0  0
   -2.5010   -2.6790    0.2690 O   0  0  0  0  0  0  0  0  0  0  0  0
   -4.2890   -1.5700    1.7380 S   0  0  0  0  0  0  0  0  0  0  0  0
   -4.1270    0.7180   -0.0830 C   0  0  1  0  0  0  0  0  0  0  0  0
   -4.1470    1.3570    1.2540 C   0  0  0  0  0  0  0  0  0  0  0  0
   -3.9470    1.7950   -1.1340 C   0  0  0  0  0  0  0  0  0  0  0  0
   -5.3310    0.0430   -0.2970 O   0  0  0  0  0  0  0  0  0  0  0  0
    3.4130    0.6790   -0.9110 C   0  0  0  0  0  0  0  0  0  0  0  0
    3.0520    2.0050   -0.5380 N   0  0  0  0  0  0  0  0  0  0  0  0
    3.9670    0.5200   -2.0070 O   0  0  0  0  0  0  0  0  0  0  0  0
  1  2  1  0
  2  3  1  0
  4  3  1  6
  4  5  1  0
  4 17  1  0
  5  6  1  0
  6  7  1  0
  7  8  1  0
  9  8  1  1
  9 10  1  0
  9 13  1  0
 10 11  1  0
 10 12  2  0
 13 14  1  1
 13 15  1  0
 13 16  1  0
 17 18  1  0
 17 19  2  0
M  CHG  1   6   1
M  END
