
     RDKit          3D

 18 17  0  0  0  0  0  0  0  0999 V2000
   -1.9600   -1.2260   -1.4880 C   0  0  0  0  0  0  0  0  0  0  0  0
   -0.6760   -1.1140   -1.0940 C   0  0  0  0  0  0  0  0  0  0  0  0
    0.2440   -1.2840   -2.0960 O   0  0  0  0  0  0  0  0  0  0  0  0
   -0.3520   -0.8430    0.2540 C   0  0  0  0  0  0  0  0  0  0  0  0
    0.7550   -0.7090    0.8700 C   0  0  0  0  0  0  0  0  0  0  0  0
    2.1480   -0.7410    0.6000 C   0  0  0  0  0  0  0  0  0  0  0  0
    2.9870   -0.5700    1.6980 C   0  0  0  0  0  0  0  0  0  0  0  0
    4.7440   -0.5870    1.5080 S   0  0  0  0  0  0  0  0  0  0  0  0
    5.3490    0.9390    0.7990 C   0  0  0  0  0  0  0  0  0  0  0  0
    5.1490    2.0360    1.2900 O   0  0  0  0  0  0  0  0  0  0  0  0
    2.8630   -0.9140   -0.6560 C   0  0  0  0  0  0  0  0  0  0  0  0
    2.6790    0.1630   -1.6220 N   0  0  0  0  0  0  0  0  0  0  0  0
   -1.6050   -0.6510    1.1880 C   0  0  0  0  0  0  0  0  0  0  0  0
   -2.3620    0.2810    0.8820 O   0  0  0  0  0  0  0  0  0  0  0  0
   -3.1150    1.2080    0.5780 C   0  0  0  0  0  0  0  0  0  0  0  0
   -4.5850    0.8820    0.3390 C   0  0  0  0  0  0  0  0  0  0  0  0
   -5.4450    1.9350   -0.0410 N   0  0  0  0  0  0  0  0  0  0  0  0
   -4.9960   -0.2870    0.4810 O   0  0  0  0  0  0  0  0  0  0  0  0
  1  2  2  0
  2  3  1  0
  2  4  1  0
  4  5  2  3
  4 13  1  0
  5  6  1  0
  6  7  2  3
  6 11  1  0
  7  8  1  0
  8  9  1  0
  9 10  2  0
 11 12  1  0
 13 14  1  0
 14 15  1  0
 15 16  1  0
 16 17  1  0
 16 18  2  0
M  CHG  1  12   1
M  END
