
     RDKit          3D

 19 18  0  0  0  0  0  0  0  0999 V2000
   -0.3060   -3.7100    1.2040 C   0  0  0  0  0  0  0  0  0  0  0  0
   -0.4060   -2.3030    1.3200 O   0  0  0  0  0  0  0  0  0  0  0  0
   -0.4480   -1.5470    0.1780 C   0  0  0  0  0  0  0  0  0  0  0  0
   -0.3980   -2.1110   -0.9290 O   0  0  0  0  0  0  0  0  0  0  0  0
   -0.5540   -0.0410    0.1950 C   0  0  1  0  0  0  0  0  0  0  0  0
   -0.5690    0.3630   -1.1520 N   0  0  0  0  0  0  0  0  0  0  0  0
   -1.7410    0.4100    0.9580 C   0  0  0  0  0  0  0  0  0  0  0  0
   -3.1020    0.0340    0.6100 C   0  0  0  0  0  0  0  0  0  0  0  0
   -3.7470    0.4450   -0.6430 C   0  0  0  0  0  0  0  0  0  0  0  0
   -3.8510    1.9440   -0.8420 C   0  0  0  0  0  0  0  0  0  0  0  0
   -4.6000    2.5370    0.1760 O   0  0  0  0  0  0  0  0  0  0  0  0
    0.6400    0.3780    1.0330 C   0  0  0  0  0  0  0  0  0  0  0  0
    1.9820    0.0650    0.5880 C   0  0  0  0  0  0  0  0  0  0  0  0
    2.4780    0.8210   -0.5770 C   0  0  0  0  0  0  0  0  0  0  0  0
    1.9540    2.0900   -0.9880 S   0  0  0  0  0  0  0  0  0  0  0  0
    3.6630    0.3270   -1.3530 C   0  0  0  0  0  0  0  0  0  0  0  0
    4.8900    0.2450   -0.5310 C   0  0  0  0  0  0  0  0  0  0  0  0
    4.9150    0.5930    0.7070 N   0  0  0  0  0  0  0  0  0  0  0  0
    6.0760   -0.2180   -1.0800 O   0  0  0  0  0  0  0  0  0  0  0  0
  1  2  1  0
  2  3  1  0
  3  4  2  0
  3  5  1  0
  5  6  1  6
  5  7  1  0
  5 12  1  0
  7  8  1  0
  8  9  1  0
  9 10  1  0
 10 11  1  0
 12 13  1  0
 13 14  1  0
 14 15  2  0
 14 16  1  0
 16 17  1  0
 17 18  2  0
 17 19  1  0
M  CHG  1   6   1
M  END
