
     RDKit          3D

 15 15  0  0  0  0  0  0  0  0999 V2000
   -3.5360    1.3370   -1.7970 C   0  0  0  0  0  0  0  0  0  0  0  0
   -3.3170    0.9410   -0.5600 C   0  0  0  0  0  0  0  0  0  0  0  0
   -4.2120    0.7160    0.4540 O   0  0  0  0  0  0  0  0  0  0  0  0
   -3.5630    0.3040    1.6090 C   0  0  0  0  0  0  0  0  0  0  0  0
   -2.1240    0.2730    1.2660 C   0  0  0  0  0  0  0  0  0  0  0  0
   -1.9830    0.6380    0.0230 C   0  0  0  0  0  0  0  0  0  0  0  0
   -0.8100    0.7520   -0.7120 O   0  0  0  0  0  0  0  0  0  0  0  0
    0.1680   -0.1970   -0.9340 C   0  0  0  0  0  0  0  0  0  0  0  0
    0.9700   -0.7200    0.1880 C   0  0  1  0  0  0  0  0  0  0  0  0
    1.9240   -1.8380   -0.3290 C   0  0  0  0  0  0  0  0  0  0  0  0
    2.8620   -1.3560   -1.3850 C   0  0  0  0  0  0  0  0  0  0  0  0
    3.6450   -2.4910   -1.7460 O   0  0  0  0  0  0  0  0  0  0  0  0
    1.8540    0.2310    0.9120 C   0  0  0  0  0  0  0  0  0  0  0  0
    1.2420    1.3960    1.5730 C   0  0  0  0  0  0  0  0  0  0  0  0
    0.5830    2.2990    0.7730 O   0  0  0  0  0  0  0  0  0  0  0  0
  1  2  2  0
  2  3  1  0
  2  6  1  0
  3  4  1  0
  4  5  1  0
  5  6  2  0
  6  7  1  0
  7  8  1  0
  9  8  1  6
  9 10  1  0
  9 13  1  0
 10 11  1  0
 11 12  1  0
 13 14  1  0
 14 15  1  0
M  END
