
     RDKit          3D

 27 29  0  0  0  0  0  0  0  0999 V2000
    2.9650    3.8080   -2.7690 C   0  0  0  0  0  0  0  0  0  0  0  0
    1.5170    3.3650   -2.7950 C   0  0  0  0  0  0  0  0  0  0  0  0
    1.2530    2.3170   -1.7770 C   0  0  0  0  0  0  0  0  0  0  0  0
    2.2000    1.8570   -0.9690 C   0  0  0  0  0  0  0  0  0  0  0  0
    1.9070    0.8310    0.0160 C   0  0  0  0  0  0  0  0  0  0  0  0
    2.8340    0.3480    0.8410 C   0  0  0  0  0  0  0  0  0  0  0  0
    4.1840    0.7610    0.8640 N   0  0  0  0  0  0  0  0  0  0  0  0
    4.8450    0.0220    1.8700 C   0  0  0  0  0  0  0  0  0  0  0  0
    5.9690    0.2610    2.3490 O   0  0  0  0  0  0  0  0  0  0  0  0
    3.9830   -1.1130    2.2870 C   0  0  2  0  0  0  0  0  0  0  0  0
    4.3640   -2.4050    1.6060 C   0  0  0  0  0  0  0  0  0  0  0  0
    2.6750   -0.6430    1.8350 N   0  0  0  0  0  0  0  0  0  0  0  0
    0.5780    0.3070    0.1170 N   0  0  0  0  0  0  0  0  0  0  0  0
   -0.4120    0.8120   -0.7530 C   0  0  0  0  0  0  0  0  0  0  0  0
   -1.7840    0.3130   -0.6910 C   0  0  0  0  0  0  0  0  0  0  0  0
   -2.1320   -0.6040    0.1600 C   0  0  0  0  0  0  0  0  0  0  0  0
   -3.5320   -1.0630    0.1690 C   0  0  0  0  0  0  0  0  0  0  0  0
   -3.9360   -1.9880    1.0100 C   0  0  0  0  0  0  0  0  0  0  0  0
   -2.8620   -2.5210    1.9390 C   0  0  0  0  0  0  0  0  0  0  0  0
   -5.2500   -2.5030    1.1170 N   0  0  0  0  0  0  0  0  0  0  0  0
   -6.3240   -2.0730    0.3070 C   0  0  0  0  0  0  0  0  0  0  0  0
   -7.4910   -2.5680    0.4410 O   0  0  0  0  0  0  0  0  0  0  0  0
   -6.1930   -1.0850   -0.6910 N   0  0  0  0  0  0  0  0  0  0  0  0
   -4.6680   -0.3710   -0.9600 S   0  0  1  0  0  0  0  0  0  0  0  0
   -4.7060    1.1210   -0.6390 O   0  0  0  0  0  0  0  0  0  0  0  0
   -4.1990   -0.5500   -2.3810 O   0  0  0  0  0  0  0  0  0  0  0  0
   -0.0820    1.7590   -1.6420 C   0  0  0  0  0  0  0  0  0  0  0  0
  1  2  1  0
  2  3  1  0
  3  4  2  0
  3 27  1  0
  4  5  1  0
  5  6  2  3
  5 13  1  0
  6  7  1  0
  6 12  1  0
  7  8  1  0
  8  9  2  0
  8 10  1  0
 10 11  1  6
 10 12  1  0
 13 14  1  0
 14 15  1  0
 14 27  2  0
 15 16  2  3
 16 17  1  0
 17 18  2  0
 17 24  1  0
 18 19  1  0
 18 20  1  0
 20 21  1  0
 21 22  2  0
 21 23  1  0
 24 23  1  6
 24 25  2  0
 24 26  2  0
M  END
