
     RDKit          3D

 27 29  0  0  0  0  0  0  0  0999 V2000
    8.1780   -0.5310    1.0080 C   0  0  0  0  0  0  0  0  0  0  0  0
    6.8680   -0.5350    0.2510 C   0  0  2  0  0  0  0  0  0  0  0  0
    7.1000   -0.0730   -1.1440 C   0  0  0  0  0  0  0  0  0  0  0  0
    5.7800    0.2120    0.9960 C   0  0  0  0  0  0  0  0  0  0  0  0
    5.9110    0.8260    2.1640 N   0  0  0  0  0  0  0  0  0  0  0  0
    4.7420    1.3910    2.5240 N   0  0  0  0  0  0  0  0  0  0  0  0
    3.8500    1.1270    1.5480 C   0  0  0  0  0  0  0  0  0  0  0  0
    4.4590    0.3840    0.5630 C   0  0  0  0  0  0  0  0  0  0  0  0
    3.9110   -0.1870   -0.6450 C   0  0  0  0  0  0  0  0  0  0  0  0
    2.1890    0.0980   -0.9750 S   0  0  0  0  0  0  0  0  0  0  0  0
    1.9400    1.6160   -1.1800 O   0  0  0  0  0  0  0  0  0  0  0  0
    1.1140   -0.4610    0.3200 C   0  0  0  0  0  0  0  0  0  0  0  0
   -0.2990   -0.3000   -0.0770 C   0  0  0  0  0  0  0  0  0  0  0  0
   -0.9440   -1.1950   -0.9110 N   0  0  0  0  0  0  0  0  0  0  0  0
   -2.2290   -0.9800   -0.9050 N   0  0  0  0  0  0  0  0  0  0  0  0
   -2.5330    0.0820   -0.0700 C   0  0  0  0  0  0  0  0  0  0  0  0
   -3.8140    0.7790   -0.0830 C   0  0  0  0  0  0  0  0  0  0  0  0
   -3.8670    2.0130    0.2440 O   0  0  0  0  0  0  0  0  0  0  0  0
   -4.9340    0.1760   -0.4200 O   0  0  0  0  0  0  0  0  0  0  0  0
   -6.2290    0.5740   -0.5930 C   0  0  2  0  0  0  0  0  0  0  0  0
   -6.6830    1.1980    0.8860 C   0  0  0  0  0  0  0  0  0  0  0  0
   -6.5990   -0.3640    1.7960 S   0  0  0  0  0  0  0  0  0  0  0  0
   -7.0470   -1.4910    0.4160 C   0  0  0  0  0  0  0  0  0  0  0  0
   -7.2530   -0.4660   -0.7150 C   0  0  2  0  0  0  0  0  0  0  0  0
   -7.0970   -1.2080   -2.0070 C   0  0  0  0  0  0  0  0  0  0  0  0
   -1.3200    0.4520    0.4120 C   0  0  0  0  0  0  0  0  0  0  0  0
   -1.0900    1.5480    1.3320 N   0  0  0  0  0  0  0  0  0  0  0  0
  2  1  1  1
  2  3  1  0
  2  4  1  0
  4  5  1  0
  4  8  2  0
  5  6  1  0
  6  7  2  0
  7  8  1  0
  8  9  1  0
 10  9  1  1
 10 11  2  0
 10 12  1  0
 12 13  1  0
 13 14  2  0
 13 26  1  0
 14 15  1  0
 15 16  1  0
 16 17  1  0
 16 26  2  0
 17 18  2  0
 17 19  1  0
 20 19  1  1
 20 21  1  0
 20 24  1  0
 21 22  1  0
 22 23  1  0
 23 24  1  0
 24 25  1  6
 26 27  1  0
M  END
