
     RDKit          3D

 15 15  0  0  0  0  0  0  0  0999 V2000
    3.1040    1.9890   -0.9920 C   0  0  0  0  0  0  0  0  0  0  0  0
    2.1230    1.2350   -0.3430 O   0  0  0  0  0  0  0  0  0  0  0  0
    2.2600   -0.0010    0.1510 C   0  0  0  0  0  0  0  0  0  0  0  0
    1.1990   -0.7000    0.4550 C   0  0  0  0  0  0  0  0  0  0  0  0
   -0.1500   -0.1530    0.2630 C   0  0  0  0  0  0  0  0  0  0  0  0
   -0.4300    1.0820    0.1130 O   0  0  0  0  0  0  0  0  0  0  0  0
   -1.7470    1.2920   -0.0450 C   0  0  0  0  0  0  0  0  0  0  0  0
   -2.4180    2.5880   -0.2530 C   0  0  0  0  0  0  0  0  0  0  0  0
   -2.3060    0.0260    0.0260 C   0  0  0  0  0  0  0  0  0  0  0  0
   -3.7790   -0.2800    0.0480 C   0  0  0  0  0  0  0  0  0  0  0  0
   -1.3180   -0.9110    0.2250 C   0  0  0  0  0  0  0  0  0  0  0  0
   -1.3420   -2.3580    0.4680 C   0  0  0  0  0  0  0  0  0  0  0  0
   -0.6810   -3.1610   -0.4280 O   0  0  0  0  0  0  0  0  0  0  0  0
    3.6600   -0.5640    0.3270 C   0  0  0  0  0  0  0  0  0  0  0  0
    3.6450   -1.8400    0.8280 O   0  0  0  0  0  0  0  0  0  0  0  0
  1  2  1  0
  2  3  1  0
  3  4  2  3
  3 14  1  0
  4  5  1  0
  5  6  1  0
  5 11  2  0
  6  7  1  0
  7  8  1  0
  7  9  2  0
  9 10  1  0
  9 11  1  0
 11 12  1  0
 12 13  1  0
 14 15  1  0
M  END
