
     RDKit          3D

 27 30  0  0  0  0  0  0  0  0999 V2000
   -6.7180   -0.4300   -0.6420 C   0  0  0  0  0  0  0  0  0  0  0  0
   -5.8550    0.8140   -0.5150 C   0  0  1  0  0  0  0  0  0  0  0  0
   -6.9840    2.2180   -0.3050 S   0  0  0  0  0  0  0  0  0  0  0  0
   -6.1220    3.6930   -0.1490 O   0  0  0  0  0  0  0  0  0  0  0  0
   -4.7900    0.6970    0.9460 S   0  0  0  0  0  0  0  0  0  0  0  0
   -5.6890    0.6090    2.1660 O   0  0  0  0  0  0  0  0  0  0  0  0
   -3.7090   -0.7350    0.8260 C   0  0  2  0  0  0  0  0  0  0  0  0
   -2.8600   -0.7450    2.0940 C   0  0  0  0  0  0  0  0  0  0  0  0
   -1.5460   -0.1290    1.5900 C   0  0  0  0  0  0  0  0  0  0  0  0
   -1.3940   -0.8880    0.2920 C   0  0  2  0  0  0  0  0  0  0  0  0
   -0.3200   -0.4530   -0.5330 N   0  0  0  0  0  0  0  0  0  0  0  0
    1.0340   -0.6330   -0.1440 C   0  0  0  0  0  0  0  0  0  0  0  0
    1.3500   -1.4390    0.9250 C   0  0  0  0  0  0  0  0  0  0  0  0
    2.6670   -1.6340    1.3500 C   0  0  0  0  0  0  0  0  0  0  0  0
    3.6730   -0.9850    0.6590 C   0  0  0  0  0  0  0  0  0  0  0  0
    3.3610   -0.1770   -0.4130 C   0  0  0  0  0  0  0  0  0  0  0  0
    2.0640    0.0170   -0.8340 C   0  0  0  0  0  0  0  0  0  0  0  0
    4.2570    0.5670   -1.2410 N   0  0  0  0  0  0  0  0  0  0  0  0
    5.5550    1.0170   -0.8820 C   0  0  0  0  0  0  0  0  0  0  0  0
    6.2180    2.0030   -1.5140 N   0  0  0  0  0  0  0  0  0  0  0  0
    7.4050    2.1810   -0.9350 N   0  0  0  0  0  0  0  0  0  0  0  0
    7.5640    1.3260    0.0880 C   0  0  0  0  0  0  0  0  0  0  0  0
    6.3980    0.5870    0.1280 C   0  0  0  0  0  0  0  0  0  0  0  0
    6.1540   -0.4760    1.1140 C   0  0  0  0  0  0  0  0  0  0  0  0
    7.0400   -0.7230    1.9620 O   0  0  0  0  0  0  0  0  0  0  0  0
    4.9730   -1.2600    1.1830 N   0  0  0  0  0  0  0  0  0  0  0  0
   -2.7580   -0.6180   -0.3380 C   0  0  0  0  0  0  0  0  0  0  0  0
  2  1  1  1
  2  3  1  0
  5  2  1  6
  3  4  1  0
  5  6  2  0
  5  7  1  0
  7  8  1  1
  7 27  1  0
  8  9  1  0
  9 10  1  0
 10 11  1  6
 10 27  1  0
 11 12  1  0
 12 13  2  0
 12 17  1  0
 13 14  1  0
 14 15  2  0
 15 16  1  0
 15 26  1  0
 16 17  2  0
 16 18  1  0
 18 19  1  0
 19 20  2  0
 19 23  1  0
 20 21  1  0
 21 22  1  0
 22 23  2  0
 23 24  1  0
 24 25  2  0
 24 26  1  0
M  END
