
     RDKit          3D

 27 30  0  0  0  0  0  0  0  0999 V2000
   -5.2730   -1.9910    0.1230 C   0  0  0  0  0  0  0  0  0  0  0  0
   -6.1750   -0.8260    0.4720 C   0  0  1  0  0  0  0  0  0  0  0  0
   -6.2960   -0.6250    1.9460 C   0  0  0  0  0  0  0  0  0  0  0  0
   -6.5710    1.1660    2.0820 S   0  0  0  0  0  0  0  0  0  0  0  0
   -6.5320    1.5770    0.3110 C   0  0  0  0  0  0  0  0  0  0  0  0
   -5.6900    0.3900   -0.2060 C   0  0  2  0  0  0  0  0  0  0  0  0
   -6.0100    0.3140   -1.6310 N   0  0  0  0  0  0  0  0  0  0  0  0
   -4.2600    0.7100   -0.0190 C   0  0  0  0  0  0  0  0  0  0  0  0
   -3.6270    0.5690    1.0440 O   0  0  0  0  0  0  0  0  0  0  0  0
   -3.5640    1.2120   -1.1240 O   0  0  0  0  0  0  0  0  0  0  0  0
   -2.1980    1.5580   -1.1080 C   0  0  0  0  0  0  0  0  0  0  0  0
   -1.3350    0.3910   -0.8270 C   0  0  0  0  0  0  0  0  0  0  0  0
   -1.8950   -0.7310   -0.6390 O   0  0  0  0  0  0  0  0  0  0  0  0
    0.0600    0.5290   -0.7730 N   0  0  0  0  0  0  0  0  0  0  0  0
    0.8810   -0.5560   -0.5240 N   0  0  0  0  0  0  0  0  0  0  0  0
    2.2820   -0.4360   -0.3210 C   0  0  0  0  0  0  0  0  0  0  0  0
    3.0520   -0.1900   -1.3920 N   0  0  0  0  0  0  0  0  0  0  0  0
    4.3690   -0.0470   -1.3600 C   0  0  0  0  0  0  0  0  0  0  0  0
    5.0740   -0.1490   -0.1440 C   0  0  0  0  0  0  0  0  0  0  0  0
    6.4030   -0.0370    0.1060 C   0  0  0  0  0  0  0  0  0  0  0  0
    6.8610   -0.1740    1.3570 C   0  0  0  0  0  0  0  0  0  0  0  0
    5.4020   -0.4780    2.2980 S   0  0  0  0  0  0  0  0  0  0  0  0
    4.2640   -0.4010    0.9330 C   0  0  0  0  0  0  0  0  0  0  0  0
    2.9130   -0.5410    0.8540 N   0  0  0  0  0  0  0  0  0  0  0  0
    8.3480   -0.0380    1.4690 C   0  0  0  0  0  0  0  0  0  0  0  0
    8.7160   -0.4790    0.0610 C   0  0  0  0  0  0  0  0  0  0  0  0
    7.6630    0.2630   -0.7210 C   0  0  0  0  0  0  0  0  0  0  0  0
  2  1  1  1
  2  3  1  0
  2  6  1  0
  3  4  1  0
  4  5  1  0
  5  6  1  0
  6  7  1  6
  6  8  1  0
  8  9  2  0
  8 10  1  0
 10 11  1  0
 11 12  1  0
 12 13  2  0
 12 14  1  0
 14 15  1  0
 15 16  1  0
 16 17  2  0
 16 24  1  0
 17 18  1  0
 18 19  2  0
 19 20  1  0
 19 23  1  0
 20 21  2  0
 20 27  1  0
 21 22  1  0
 21 25  1  0
 22 23  1  0
 23 24  2  0
 25 26  1  0
 26 27  1  0
M  END
