
     RDKit          3D

 34 37  0  0  0  0  0  0  0  0999 V2000
   -0.4430   -5.3810    1.7870 C   0  0  0  0  0  0  0  0  0  0  0  0
    0.4140   -5.1020    0.5610 C   0  0  0  0  0  0  0  0  0  0  0  0
    0.6770   -3.7540    0.5090 O   0  0  0  0  0  0  0  0  0  0  0  0
    1.3500   -3.2800    1.6100 C   0  0  0  0  0  0  0  0  0  0  0  0
    1.6230   -1.8530    1.5480 C   0  0  0  0  0  0  0  0  0  0  0  0
    2.1780   -1.2770    2.5590 O   0  0  0  0  0  0  0  0  0  0  0  0
    1.3030   -1.0610    0.4170 N   0  0  0  0  0  0  0  0  0  0  0  0
    1.5660    0.4020    0.4760 C   0  0  0  0  0  0  0  0  0  0  0  0
    2.9710    0.5810   -0.0380 C   0  0  0  0  0  0  0  0  0  0  0  0
    3.4220    1.9700   -0.0600 C   0  0  0  0  0  0  0  0  0  0  0  0
    3.3740    2.9550   -0.9620 C   0  0  0  0  0  0  0  0  0  0  0  0
    3.8810    4.1670   -0.7060 C   0  0  0  0  0  0  0  0  0  0  0  0
    4.4530    4.3890    0.4950 C   0  0  0  0  0  0  0  0  0  0  0  0
    5.0930    5.5600    1.1060 C   0  0  0  0  0  0  0  0  0  0  0  0
    5.2670    6.7610    0.5700 N   0  0  0  0  0  0  0  0  0  0  0  0
    5.8940    7.5370    1.4610 C   0  0  0  0  0  0  0  0  0  0  0  0
    6.1220    6.8290    2.5720 N   0  0  0  0  0  0  0  0  0  0  0  0
    5.6310    5.6230    2.3490 N   0  0  0  0  0  0  0  0  0  0  0  0
    4.2620    2.7670    1.3290 S   0  0  0  0  0  0  0  0  0  0  0  0
    0.8110   -1.5360   -0.8290 C   0  0  0  0  0  0  0  0  0  0  0  0
   -0.6470   -1.6540   -0.9110 C   0  0  0  0  0  0  0  0  0  0  0  0
   -1.2770   -2.0890   -2.1050 C   0  0  0  0  0  0  0  0  0  0  0  0
   -0.6040   -2.4550   -3.3730 C   0  0  0  0  0  0  0  0  0  0  0  0
   -2.5970   -2.1200   -1.9060 N   0  0  0  0  0  0  0  0  0  0  0  0
   -2.8830   -1.7330   -0.6560 C   0  0  0  0  0  0  0  0  0  0  0  0
   -4.1990   -1.6270   -0.0380 C   0  0  0  0  0  0  0  0  0  0  0  0
   -4.6110   -2.7660    1.0550 S   0  0  0  0  0  0  0  0  0  0  0  0
   -5.0470   -0.5710   -0.3990 N   0  0  0  0  0  0  0  0  0  0  0  0
   -4.6450    0.4080   -1.3640 C   0  0  1  0  0  0  0  0  0  0  0  0
   -5.7460    1.4430   -1.5740 C   0  0  0  0  0  0  0  0  0  0  0  0
   -5.1410    2.2070   -0.4010 C   0  0  0  0  0  0  0  0  0  0  0  0
   -3.8140    1.5280   -0.7540 C   0  0  0  0  0  0  0  0  0  0  0  0
   -1.6510   -1.4420   -0.0380 C   0  0  0  0  0  0  0  0  0  0  0  0
   -1.5560   -0.9920    1.3650 C   0  0  0  0  0  0  0  0  0  0  0  0
  1  2  1  0
  2  3  1  0
  3  4  1  0
  4  5  1  0
  5  6  2  0
  5  7  1  0
  7  8  1  0
  7 20  1  0
  8  9  1  0
  9 10  1  0
 10 11  2  0
 10 19  1  0
 11 12  1  0
 12 13  2  0
 13 14  1  0
 13 19  1  0
 14 15  1  0
 14 18  2  0
 15 16  2  0
 16 17  1  0
 17 18  1  0
 20 21  1  0
 21 22  2  0
 21 33  1  0
 22 23  1  0
 22 24  1  0
 24 25  1  0
 25 26  1  0
 25 33  2  0
 26 27  2  0
 26 28  1  0
 29 28  1  1
 29 30  1  0
 29 32  1  0
 30 31  1  0
 31 32  1  0
 33 34  1  0
M  END
