
     RDKit          3D

 35 38  0  0  0  0  0  0  0  0999 V2000
   -5.4040    5.0240   -0.2170 C   0  0  0  0  0  0  0  0  0  0  0  0
   -4.7920    3.6780   -0.5430 C   0  0  0  0  0  0  0  0  0  0  0  0
   -3.8660    3.1320    0.8640 S   0  0  1  0  0  0  0  0  0  0  0  0
   -2.7410    4.1000    1.0890 O   0  0  0  0  0  0  0  0  0  0  0  0
   -4.7620    3.0690    2.0420 O   0  0  0  0  0  0  0  0  0  0  0  0
   -3.1340    1.5650    0.5290 N   0  0  0  0  0  0  0  0  0  0  0  0
   -4.2200    0.6300    0.2800 C   0  0  0  0  0  0  0  0  0  0  0  0
   -3.7200   -0.7160    0.0090 C   0  0  0  0  0  0  0  0  0  0  0  0
   -4.5280   -1.7870   -0.3150 C   0  0  0  0  0  0  0  0  0  0  0  0
   -6.0070   -1.8220   -0.4640 C   0  0  0  0  0  0  0  0  0  0  0  0
   -6.8080   -0.7300   -0.2780 C   0  0  0  0  0  0  0  0  0  0  0  0
   -8.5400   -1.4290   -0.5960 S   0  0  0  0  0  0  0  0  0  0  0  0
   -7.8350   -3.1230   -0.9330 C   0  0  0  0  0  0  0  0  0  0  0  0
   -8.7450   -4.2510   -1.2770 C   0  0  0  0  0  0  0  0  0  0  0  0
   -6.6460   -2.9050   -0.7760 N   0  0  0  0  0  0  0  0  0  0  0  0
   -3.7000   -2.8340   -0.4740 N   0  0  0  0  0  0  0  0  0  0  0  0
   -2.4340   -2.5230   -0.2780 C   0  0  0  0  0  0  0  0  0  0  0  0
   -1.2570   -3.2360   -0.3160 C   0  0  0  0  0  0  0  0  0  0  0  0
   -0.0560   -2.6020   -0.0410 C   0  0  0  0  0  0  0  0  0  0  0  0
    0.0180   -1.2810    0.2720 C   0  0  0  0  0  0  0  0  0  0  0  0
    1.5070   -0.4090    0.6360 S   0  0  0  0  0  0  0  0  0  0  0  0
    2.9510   -1.4420    0.5630 C   0  0  0  0  0  0  0  0  0  0  0  0
    3.0790   -2.7320    0.2840 N   0  0  0  0  0  0  0  0  0  0  0  0
    4.3130   -3.1320    0.3330 N   0  0  0  0  0  0  0  0  0  0  0  0
    5.0390   -2.0140    0.6700 C   0  0  0  0  0  0  0  0  0  0  0  0
    6.4980   -2.0510    0.8400 C   0  0  0  0  0  0  0  0  0  0  0  0
    4.2210   -0.9760    0.8130 N   0  0  0  0  0  0  0  0  0  0  0  0
    4.4720    0.3820    1.1370 C   0  0  0  0  0  0  0  0  0  0  0  0
    4.6770    1.3230    0.0080 C   0  0  0  0  0  0  0  0  0  0  0  0
    5.8910    1.0430   -0.8310 C   0  0  0  0  0  0  0  0  0  0  0  0
    7.1760    1.2090   -0.0530 C   0  0  1  0  0  0  0  0  0  0  0  0
    8.3770    0.9020   -0.9190 C   0  0  0  0  0  0  0  0  0  0  0  0
    7.3000    2.7100    0.2720 C   0  0  0  0  0  0  0  0  0  0  0  0
   -1.1850   -0.5520    0.3100 C   0  0  0  0  0  0  0  0  0  0  0  0
   -2.3860   -1.1760    0.0360 C   0  0  0  0  0  0  0  0  0  0  0  0
  1  2  1  0
  3  2  1  6
  3  4  2  0
  3  5  2  0
  3  6  1  0
  6  7  1  0
  7  8  1  0
  8  9  2  0
  8 35  1  0
  9 10  1  0
  9 16  1  0
 10 11  2  0
 10 15  1  0
 11 12  1  0
 12 13  1  0
 13 14  1  0
 13 15  2  0
 16 17  1  0
 17 18  2  0
 17 35  1  0
 18 19  1  0
 19 20  2  0
 20 21  1  0
 20 34  1  0
 21 22  1  0
 22 23  2  0
 22 27  1  0
 23 24  1  0
 24 25  2  0
 25 26  1  0
 25 27  1  0
 27 28  1  0
 28 29  1  0
 29 30  1  0
 30 31  1  0
 31 32  1  6
 31 33  1  0
 34 35  2  0
M  END
