
     RDKit          3D

 35 38  0  0  0  0  0  0  0  0999 V2000
   10.9820    2.4190    1.8160 C   0  0  0  0  0  0  0  0  0  0  0  0
    9.7030    1.7130    1.4060 C   0  0  0  0  0  0  0  0  0  0  0  0
    8.8180    2.3400    0.7850 O   0  0  0  0  0  0  0  0  0  0  0  0
    9.5050    0.3580    1.7180 N   0  0  0  0  0  0  0  0  0  0  0  0
    8.3860   -0.4360    1.4090 C   0  0  0  0  0  0  0  0  0  0  0  0
    8.3130   -1.7190    1.9790 C   0  0  0  0  0  0  0  0  0  0  0  0
    7.2520   -2.5280    1.7020 C   0  0  0  0  0  0  0  0  0  0  0  0
    6.2210   -2.0960    0.8470 C   0  0  0  0  0  0  0  0  0  0  0  0
    6.2640   -0.8530    0.2780 C   0  0  0  0  0  0  0  0  0  0  0  0
    5.2020   -0.4110   -0.5940 C   0  0  0  0  0  0  0  0  0  0  0  0
    5.4110    0.6460   -1.2650 O   0  0  0  0  0  0  0  0  0  0  0  0
    3.9600   -1.0670   -0.7510 N   0  0  0  0  0  0  0  0  0  0  0  0
    2.9260   -0.5500   -1.6660 C   0  0  1  0  0  0  0  0  0  0  0  0
    2.6760   -1.4990   -2.7520 C   0  0  0  0  0  0  0  0  0  0  0  0
    1.4990   -1.9710   -3.1050 C   0  0  0  0  0  0  0  0  0  0  0  0
    0.3120   -1.5360   -2.3770 C   0  0  0  0  0  0  0  0  0  0  0  0
    0.4520   -0.6540   -1.3500 C   0  0  0  0  0  0  0  0  0  0  0  0
   -0.7210   -0.2670   -0.6950 C   0  0  0  0  0  0  0  0  0  0  0  0
   -1.9560   -0.7510   -1.0660 C   0  0  0  0  0  0  0  0  0  0  0  0
   -3.2090   -0.3150   -0.3480 C   0  0  0  0  0  0  0  0  0  0  0  0
   -3.7870    0.8930   -1.0130 C   0  0  0  0  0  0  0  0  0  0  0  0
   -5.0270    1.4310   -0.4070 C   0  0  0  0  0  0  0  0  0  0  0  0
   -6.1190    0.4540   -0.4440 C   0  0  0  0  0  0  0  0  0  0  0  0
   -5.9580   -0.6470   -1.0160 O   0  0  0  0  0  0  0  0  0  0  0  0
   -7.3550    0.7280    0.1530 N   0  0  0  0  0  0  0  0  0  0  0  0
   -8.4240   -0.2380    0.1170 C   0  0  0  0  0  0  0  0  0  0  0  0
   -9.6250    0.4160    0.7860 C   0  0  0  0  0  0  0  0  0  0  0  0
   -9.2300    0.8260    2.1930 C   0  0  0  0  0  0  0  0  0  0  0  0
   -8.0980    1.8180    2.2140 C   0  0  0  0  0  0  0  0  0  0  0  0
   -7.5840    1.9910    0.8160 C   0  0  0  0  0  0  0  0  0  0  0  0
   -2.0590   -1.6210   -2.0830 N   0  0  0  0  0  0  0  0  0  0  0  0
   -0.9270   -2.0010   -2.7240 C   0  0  0  0  0  0  0  0  0  0  0  0
   -1.0110   -2.8130   -3.6750 O   0  0  0  0  0  0  0  0  0  0  0  0
    1.7370   -0.1030   -0.9000 C   0  0  0  0  0  0  0  0  0  0  0  0
    7.3630   -0.0470    0.5800 C   0  0  0  0  0  0  0  0  0  0  0  0
  1  2  1  0
  2  3  2  0
  2  4  1  0
  4  5  1  0
  5  6  2  0
  5 35  1  0
  6  7  1  0
  7  8  2  0
  8  9  1  0
  9 10  1  0
  9 35  2  0
 10 11  2  0
 10 12  1  0
 13 12  1  1
 13 14  1  0
 13 34  1  0
 14 15  2  0
 15 16  1  0
 16 17  2  0
 16 32  1  0
 17 18  1  0
 17 34  1  0
 18 19  2  0
 19 20  1  0
 19 31  1  0
 20 21  1  0
 21 22  1  0
 22 23  1  0
 23 24  2  0
 23 25  1  0
 25 26  1  0
 25 30  1  0
 26 27  1  0
 27 28  1  0
 28 29  1  0
 29 30  1  0
 31 32  1  0
 32 33  2  0
M  END
