
     RDKit          3D

 35 38  0  0  0  0  0  0  0  0999 V2000
    2.5440   -1.4820    3.2940 C   0  0  0  0  0  0  0  0  0  0  0  0
    1.7300   -0.3970    2.5770 C   0  0  0  0  0  0  0  0  0  0  0  0
    1.5470   -0.7640    1.1280 C   0  0  0  0  0  0  0  0  0  0  0  0
    0.7740    0.2050    0.3080 C   0  0  1  0  0  0  0  0  0  0  0  0
   -0.5390    0.3760    0.8160 N   0  0  0  0  0  0  0  0  0  0  0  0
   -1.6920    0.4430   -0.0000 C   0  0  0  0  0  0  0  0  0  0  0  0
   -1.5230    0.3550   -1.2480 O   0  0  0  0  0  0  0  0  0  0  0  0
   -3.0540    0.6100    0.5190 C   0  0  0  0  0  0  0  0  0  0  0  0
   -3.9870    1.0560   -0.5830 C   0  0  0  0  0  0  0  0  0  0  0  0
   -5.4110    1.2060   -0.0380 C   0  0  0  0  0  0  0  0  0  0  0  0
   -5.7610    2.4630    0.4580 C   0  0  0  0  0  0  0  0  0  0  0  0
   -7.4440    2.1650    1.0500 S   0  0  0  0  0  0  0  0  0  0  0  0
   -7.5330    0.4470    0.5990 C   0  0  0  0  0  0  0  0  0  0  0  0
   -8.3100   -0.6500    0.5730 N   0  0  0  0  0  0  0  0  0  0  0  0
   -7.6230   -1.6240    0.0000 N   0  0  0  0  0  0  0  0  0  0  0  0
   -8.1650   -2.9360   -0.2250 C   0  0  0  0  0  0  0  0  0  0  0  0
   -7.8930   -3.9280    0.8630 C   0  0  0  0  0  0  0  0  0  0  0  0
   -6.4030   -1.1530   -0.3400 C   0  0  0  0  0  0  0  0  0  0  0  0
   -5.4000   -2.0100   -1.0030 C   0  0  0  0  0  0  0  0  0  0  0  0
   -6.2980    0.2110    0.0360 C   0  0  0  0  0  0  0  0  0  0  0  0
    1.3930    1.4790    0.0140 C   0  0  0  0  0  0  0  0  0  0  0  0
    1.2970    2.5620   -0.5210 N   0  0  0  0  0  0  0  0  0  0  0  0
    2.1520    3.5130   -0.5680 N   0  0  0  0  0  0  0  0  0  0  0  0
    3.3140    3.3730    0.0190 C   0  0  0  0  0  0  0  0  0  0  0  0
    4.7750    4.4550    0.1420 S   0  0  0  0  0  0  0  0  0  0  0  0
    5.8340    3.9920   -1.2790 C   0  0  0  0  0  0  0  0  0  0  0  0
    6.3320    2.6020   -1.1050 C   0  0  0  0  0  0  0  0  0  0  0  0
    6.0300    2.0050   -0.0180 O   0  0  0  0  0  0  0  0  0  0  0  0
    7.1010    1.8710   -2.0190 N   0  0  0  0  0  0  0  0  0  0  0  0
    7.5440    0.5400   -1.7920 C   0  0  0  0  0  0  0  0  0  0  0  0
    8.7930    0.1320   -1.7960 C   0  0  0  0  0  0  0  0  0  0  0  0
    8.8530   -1.3350   -1.5170 C   0  0  0  0  0  0  0  0  0  0  0  0
    7.4340   -1.6950   -1.3410 C   0  0  0  0  0  0  0  0  0  0  0  0
    6.7160   -0.5970   -1.5090 C   0  0  0  0  0  0  0  0  0  0  0  0
    3.1480    1.6920    0.7090 S   0  0  0  0  0  0  0  0  0  0  0  0
  1  2  1  0
  2  3  1  0
  4  3  1  1
  4  5  1  0
  4 21  1  0
  5  6  1  0
  6  7  2  0
  6  8  1  0
  8  9  1  0
  9 10  1  0
 10 11  2  0
 10 20  1  0
 11 12  1  0
 12 13  1  0
 13 14  2  0
 13 20  1  0
 14 15  1  0
 15 16  1  0
 15 18  1  0
 16 17  1  0
 18 19  1  0
 18 20  2  0
 21 22  2  0
 21 35  1  0
 22 23  1  0
 23 24  2  0
 24 25  1  0
 24 35  1  0
 25 26  1  0
 26 27  1  0
 27 28  2  0
 27 29  1  0
 29 30  1  0
 30 31  2  0
 30 34  1  0
 31 32  1  0
 32 33  1  0
 33 34  2  0
M  END
