
     RDKit          3D

 34 37  0  0  0  0  0  0  0  0999 V2000
   -5.7530   -2.5010    0.2820 C   0  0  0  0  0  0  0  0  0  0  0  0
   -4.4130   -2.0630    0.7540 C   0  0  0  0  0  0  0  0  0  0  0  0
   -4.0430   -0.6450    0.5160 C   0  0  0  0  0  0  0  0  0  0  0  0
   -4.0390   -0.1930   -0.8390 N   0  0  0  0  0  0  0  0  0  0  0  0
   -2.9990   -0.3450   -1.6850 C   0  0  0  0  0  0  0  0  0  0  0  0
   -1.6450   -0.9360   -1.2690 C   0  0  0  0  0  0  0  0  0  0  0  0
   -1.0600    0.1480   -0.4760 N   0  0  0  0  0  0  0  0  0  0  0  0
    0.1450    0.2500    0.2300 C   0  0  0  0  0  0  0  0  0  0  0  0
    0.2420    1.3110    1.1740 C   0  0  0  0  0  0  0  0  0  0  0  0
    1.3980    1.5190    1.8800 C   0  0  0  0  0  0  0  0  0  0  0  0
    2.4850    0.6930    1.6780 C   0  0  0  0  0  0  0  0  0  0  0  0
    2.4170   -0.3400    0.7720 C   0  0  0  0  0  0  0  0  0  0  0  0
    3.6670   -1.1450    0.6070 C   0  0  0  0  0  0  0  0  0  0  0  0
    3.6510   -2.3880    0.6010 O   0  0  0  0  0  0  0  0  0  0  0  0
    4.8940   -0.4300    0.4850 N   0  0  0  0  0  0  0  0  0  0  0  0
    6.1480   -1.1270    0.4640 C   0  0  0  0  0  0  0  0  0  0  0  0
    7.3100   -0.2640    0.1630 C   0  0  0  0  0  0  0  0  0  0  0  0
    7.7150    0.7420    1.0070 C   0  0  0  0  0  0  0  0  0  0  0  0
    6.9660    1.0480    2.0900 F   0  0  0  0  0  0  0  0  0  0  0  0
    8.8720    1.4860    0.7790 C   0  0  0  0  0  0  0  0  0  0  0  0
    9.6780    1.2200   -0.3340 C   0  0  0  0  0  0  0  0  0  0  0  0
    9.2720    0.2050   -1.1790 C   0  0  0  0  0  0  0  0  0  0  0  0
    8.1170   -0.5130   -0.9360 C   0  0  0  0  0  0  0  0  0  0  0  0
    7.7850   -1.5040   -1.8110 F   0  0  0  0  0  0  0  0  0  0  0  0
    1.2670   -0.5460    0.0720 C   0  0  0  0  0  0  0  0  0  0  0  0
   -3.3440    0.2070   -2.8330 N   0  0  0  0  0  0  0  0  0  0  0  0
   -4.5930    0.7170   -2.7300 N   0  0  0  0  0  0  0  0  0  0  0  0
   -5.0360    0.4590   -1.4500 C   0  0  0  0  0  0  0  0  0  0  0  0
   -6.2860    0.9620   -0.9120 C   0  0  0  0  0  0  0  0  0  0  0  0
   -7.0740    1.8510   -1.7110 C   0  0  0  0  0  0  0  0  0  0  0  0
   -8.2120    2.3920   -1.1810 C   0  0  0  0  0  0  0  0  0  0  0  0
   -8.6460    2.1280    0.0470 N   0  0  0  0  0  0  0  0  0  0  0  0
   -7.8750    1.2480    0.8400 C   0  0  0  0  0  0  0  0  0  0  0  0
   -6.7990    0.7680    0.2800 N   0  0  0  0  0  0  0  0  0  0  0  0
  1  2  1  0
  2  3  1  0
  3  4  1  0
  4  5  1  0
  4 28  1  0
  5  6  1  0
  5 26  2  0
  6  7  1  0
  7  8  1  0
  8  9  2  0
  8 25  1  0
  9 10  1  0
 10 11  2  0
 11 12  1  0
 12 13  1  0
 12 25  2  0
 13 14  2  0
 13 15  1  0
 15 16  1  0
 16 17  1  0
 17 18  2  0
 17 23  1  0
 18 19  1  0
 18 20  1  0
 20 21  2  0
 21 22  1  0
 22 23  2  0
 23 24  1  0
 26 27  1  0
 27 28  2  0
 28 29  1  0
 29 30  2  0
 29 34  1  0
 30 31  1  0
 31 32  2  0
 32 33  1  0
 33 34  2  0
M  END
