
     RDKit          3D

 35 38  0  0  0  0  0  0  0  0999 V2000
   -2.9620   -3.1500    1.8960 C   0  0  0  0  0  0  0  0  0  0  0  0
   -2.2190   -1.8750    1.7080 C   0  0  0  0  0  0  0  0  0  0  0  0
   -2.2140   -1.3230    0.3530 C   0  0  0  0  0  0  0  0  0  0  0  0
   -1.3840   -1.7160   -0.7130 C   0  0  0  0  0  0  0  0  0  0  0  0
   -0.1450   -2.9290   -0.5280 S   0  0  2  0  0  0  0  0  0  0  0  0
    0.0240   -3.7280   -1.7760 O   0  0  0  0  0  0  0  0  0  0  0  0
   -0.6140   -3.9650    0.5180 O   0  0  0  0  0  0  0  0  0  0  0  0
    1.3540   -2.2900    0.0080 N   0  0  0  0  0  0  0  0  0  0  0  0
    1.8670   -1.3560   -0.9490 C   0  0  0  0  0  0  0  0  0  0  0  0
    3.1940   -0.7770   -0.4700 C   0  0  0  0  0  0  0  0  0  0  0  0
    3.6830    0.2040   -1.5320 C   0  0  0  0  0  0  0  0  0  0  0  0
    4.9940    0.7910   -1.0870 C   0  0  0  0  0  0  0  0  0  0  0  0
    5.6670    1.7100   -1.8590 C   0  0  0  0  0  0  0  0  0  0  0  0
    6.8710    2.2460   -1.4450 C   0  0  0  0  0  0  0  0  0  0  0  0
    7.4010    1.8390   -0.2210 C   0  0  0  0  0  0  0  0  0  0  0  0
    6.7150    0.9190    0.5390 C   0  0  0  0  0  0  0  0  0  0  0  0
    7.2780    0.5230    1.7820 N   0  0  0  0  0  0  0  0  0  0  0  0
    8.5360    1.0480    2.2700 C   0  0  0  0  0  0  0  0  0  0  0  0
    5.5500    0.4340    0.0840 N   0  0  0  0  0  0  0  0  0  0  0  0
   -1.7760   -0.9430   -1.7660 C   0  0  0  0  0  0  0  0  0  0  0  0
   -1.2840   -0.9320   -3.1260 C   0  0  0  0  0  0  0  0  0  0  0  0
   -1.6040   -0.1740   -4.1830 C   0  0  0  0  0  0  0  0  0  0  0  0
   -1.0220   -0.3270   -5.3650 C   0  0  0  0  0  0  0  0  0  0  0  0
   -0.0310   -1.3410   -5.4740 C   0  0  0  0  0  0  0  0  0  0  0  0
    0.0010   -2.0250   -3.8260 S   0  0  0  0  0  0  0  0  0  0  0  0
   -2.7910   -0.1350   -1.3230 N   0  0  0  0  0  0  0  0  0  0  0  0
   -3.0440   -0.3630   -0.0740 N   0  0  0  0  0  0  0  0  0  0  0  0
   -4.0440    0.3050    0.7050 C   0  0  0  0  0  0  0  0  0  0  0  0
   -5.2830    0.0420    0.5140 N   0  0  0  0  0  0  0  0  0  0  0  0
   -6.2130    0.8100    1.3930 C   0  0  0  0  0  0  0  0  0  0  0  0
   -6.0280    2.0920    1.8900 C   0  0  0  0  0  0  0  0  0  0  0  0
   -6.9640    2.6050    2.6530 C   0  0  0  0  0  0  0  0  0  0  0  0
   -8.1310    1.8750    2.9610 C   0  0  0  0  0  0  0  0  0  0  0  0
   -9.2950    2.1670    3.7510 C   0  0  0  0  0  0  0  0  0  0  0  0
   -7.7620    0.3370    2.0350 S   0  0  0  0  0  0  0  0  0  0  0  0
  1  2  1  0
  2  3  1  0
  3  4  2  0
  3 27  1  0
  4  5  1  0
  4 20  1  0
  5  6  2  0
  5  7  2  0
  5  8  1  1
  8  9  1  0
  9 10  1  0
 10 11  1  0
 11 12  1  0
 12 13  2  0
 12 19  1  0
 13 14  1  0
 14 15  2  0
 15 16  1  0
 16 17  1  0
 16 19  2  0
 17 18  1  0
 20 21  1  0
 20 26  2  0
 21 22  2  0
 21 25  1  0
 22 23  1  0
 23 24  2  0
 24 25  1  0
 26 27  1  0
 27 28  1  0
 28 29  2  3
 29 30  1  0
 30 31  2  0
 30 35  1  0
 31 32  1  0
 32 33  2  0
 33 34  1  0
 33 35  1  0
M  END
