
     RDKit          3D

 20 22  0  0  0  0  0  0  0  0999 V2000
   -3.4600   -1.5310    0.3450 C   0  0  0  0  0  0  0  0  0  0  0  0
   -2.8500   -0.2590   -0.0400 C   0  0  0  0  0  0  0  0  0  0  0  0
   -3.6750    0.8120   -0.3720 C   0  0  0  0  0  0  0  0  0  0  0  0
   -3.1220    2.0170   -0.7370 C   0  0  0  0  0  0  0  0  0  0  0  0
   -3.9190    2.9470   -1.0250 O   0  0  0  0  0  0  0  0  0  0  0  0
   -1.8160    2.1400   -0.7670 O   0  0  0  0  0  0  0  0  0  0  0  0
   -0.9810    1.1840   -0.4710 C   0  0  0  0  0  0  0  0  0  0  0  0
    0.3800    1.4240   -0.5370 C   0  0  0  0  0  0  0  0  0  0  0  0
    1.2290    0.3710   -0.2100 C   0  0  0  0  0  0  0  0  0  0  0  0
    2.5740    0.5900   -0.2700 C   0  0  0  0  0  0  0  0  0  0  0  0
    3.0850    1.8550   -0.6540 N   0  0  0  0  0  0  0  0  0  0  0  0
    3.0150    2.1860   -1.8470 O   0  0  0  0  0  0  0  0  0  0  0  0
    3.6520    2.7250    0.2350 O   0  0  0  0  0  0  0  0  0  0  0  0
    3.4500   -0.4590    0.0550 C   0  0  0  0  0  0  0  0  0  0  0  0
    4.7550   -0.2800    0.0080 O   0  0  0  0  0  0  0  0  0  0  0  0
    2.9530   -1.7120    0.4360 C   0  0  0  0  0  0  0  0  0  0  0  0
    1.6050   -1.9020    0.4860 C   0  0  0  0  0  0  0  0  0  0  0  0
    0.7390   -0.8740    0.1670 C   0  0  0  0  0  0  0  0  0  0  0  0
   -0.6250   -1.0630    0.2170 C   0  0  0  0  0  0  0  0  0  0  0  0
   -1.4880   -0.0450   -0.0980 C   0  0  0  0  0  0  0  0  0  0  0  0
  1  2  1  0
  2  3  2  0
  2 20  1  0
  3  4  1  0
  4  5  2  0
  4  6  1  0
  6  7  1  0
  7  8  2  0
  7 20  1  0
  8  9  1  0
  9 10  2  0
  9 18  1  0
 10 11  1  0
 10 14  1  0
 11 12  2  0
 11 13  1  0
 14 15  1  0
 14 16  2  0
 16 17  1  0
 17 18  2  0
 18 19  1  0
 19 20  2  0
M  CHG  2  11   1  13  -1
M  END
