
     RDKit          3D

 20 21  0  0  0  0  0  0  0  0999 V2000
   -5.0730    1.3710   -1.3770 C   0  0  0  0  0  0  0  0  0  0  0  0
   -3.8370    0.9120   -1.1840 C   0  0  0  0  0  0  0  0  0  0  0  0
   -2.8240    0.9160   -2.1200 O   0  0  0  0  0  0  0  0  0  0  0  0
   -1.6030    0.5700   -1.5180 C   0  0  0  0  0  0  0  0  0  0  0  0
   -1.8380    0.6250   -0.0440 C   0  0  2  0  0  0  0  0  0  0  0  0
   -1.1090   -0.2420    0.7800 N   0  0  0  0  0  0  0  0  0  0  0  0
    0.2790   -0.2050    0.8880 C   0  0  0  0  0  0  0  0  0  0  0  0
    1.0990   -0.6570   -0.2760 C   0  0  0  0  0  0  0  0  0  0  0  0
    2.5160   -0.5510    0.0510 N   0  0  0  0  0  0  0  0  0  0  0  0
    3.2140    0.5730   -0.1940 C   0  0  0  0  0  0  0  0  0  0  0  0
    2.6500    1.5740   -0.7170 O   0  0  0  0  0  0  0  0  0  0  0  0
    4.5220    0.6940    0.0970 N   0  0  0  0  0  0  0  0  0  0  0  0
    5.1920   -0.3330    0.6570 C   0  0  0  0  0  0  0  0  0  0  0  0
    6.4290   -0.2280    0.9350 O   0  0  0  0  0  0  0  0  0  0  0  0
    4.5030   -1.4590    0.9050 N   0  0  0  0  0  0  0  0  0  0  0  0
    3.1920   -1.5720    0.6110 C   0  0  0  0  0  0  0  0  0  0  0  0
    2.6250   -2.6620    0.8770 O   0  0  0  0  0  0  0  0  0  0  0  0
   -3.3220    0.3280    0.0330 C   0  0  0  0  0  0  0  0  0  0  0  0
   -3.9690   -0.3020    0.9560 C   0  0  0  0  0  0  0  0  0  0  0  0
   -5.6680   -0.6000    0.9420 Cl  0  0  0  0  0  0  0  0  0  0  0  0
  1  2  2  0
  2  3  1  0
  2 18  1  0
  3  4  1  0
  4  5  1  0
  5  6  1  1
  5 18  1  0
  6  7  1  0
  7  8  1  0
  8  9  1  0
  9 10  1  0
  9 16  1  0
 10 11  2  0
 10 12  1  0
 12 13  1  0
 13 14  2  0
 13 15  1  0
 15 16  1  0
 16 17  2  0
 18 19  2  3
 19 20  1  0
M  END
