
     RDKit          3D

 20 21  0  0  0  0  0  0  0  0999 V2000
   -2.3570   -0.6760   -2.0090 C   0  0  0  0  0  0  0  0  0  0  0  0
   -2.6460   -0.1280   -0.6640 C   0  0  0  0  0  0  0  0  0  0  0  0
   -1.7000    0.0870    0.2160 C   0  0  0  0  0  0  0  0  0  0  0  0
   -0.3110   -0.2180   -0.1230 C   0  0  0  0  0  0  0  0  0  0  0  0
   -0.0300   -0.6920   -1.2780 O   0  0  0  0  0  0  0  0  0  0  0  0
    0.7770   -0.0160    0.7690 N   0  0  0  0  0  0  0  0  0  0  0  0
    2.1210   -0.3000    0.4180 C   0  0  0  0  0  0  0  0  0  0  0  0
    2.7500   -1.3390    0.9870 C   0  0  0  0  0  0  0  0  0  0  0  0
    4.1300   -1.6760    0.6650 C   0  0  0  0  0  0  0  0  0  0  0  0
    4.8790   -3.0460    1.4460 Cl  0  0  0  0  0  0  0  0  0  0  0  0
    4.8440   -0.9800   -0.2030 C   0  0  0  0  0  0  0  0  0  0  0  0
    4.2360    0.1030   -0.8120 O   0  0  0  0  0  0  0  0  0  0  0  0
    2.8990    0.4720   -0.5330 C   0  0  0  0  0  0  0  0  0  0  0  0
    2.4060    1.5130   -1.1430 C   0  0  0  0  0  0  0  0  0  0  0  0
    1.1340    1.9940   -0.9640 O   0  0  0  0  0  0  0  0  0  0  0  0
   -1.9840    0.6180    1.5180 N   0  0  0  0  0  0  0  0  0  0  0  0
   -3.3210    0.9340    1.9050 C   0  0  0  0  0  0  0  0  0  0  0  0
   -3.6060    1.4040    3.0450 O   0  0  0  0  0  0  0  0  0  0  0  0
   -4.3470    0.7010    0.9510 N   0  0  0  0  0  0  0  0  0  0  0  0
   -4.0090    0.1820   -0.3020 N   0  0  0  0  0  0  0  0  0  0  0  0
  1  2  1  0
  2  3  2  0
  2 20  1  0
  3  4  1  0
  3 16  1  0
  4  5  2  0
  4  6  1  0
  6  7  1  0
  7  8  2  0
  7 13  1  0
  8  9  1  0
  9 10  1  0
  9 11  2  0
 11 12  1  0
 12 13  1  0
 13 14  2  3
 14 15  1  0
 16 17  1  0
 17 18  2  0
 17 19  1  0
 19 20  1  0
M  END
