
     RDKit          3D

 20 21  0  0  0  0  0  0  0  0999 V2000
    5.4520    0.0470   -0.7850 N   0  0  0  0  0  0  0  0  0  0  0  0
    4.2920    0.3920   -0.2220 C   0  0  0  0  0  0  0  0  0  0  0  0
    4.2210    1.7410   -0.0730 O   0  0  0  0  0  0  0  0  0  0  0  0
    3.6520   -0.8110   -0.0350 N   0  0  0  0  0  0  0  0  0  0  0  0
    2.4230   -0.9290    0.5960 C   0  0  0  0  0  0  0  0  0  0  0  0
    1.9840    0.1730    0.9700 O   0  0  0  0  0  0  0  0  0  0  0  0
    1.7520   -2.2220    0.7820 C   0  0  0  0  0  0  0  0  0  0  0  0
    0.5810   -1.9330    1.4630 O   0  0  0  0  0  0  0  0  0  0  0  0
   -0.4200   -1.0950    0.9940 C   0  0  0  0  0  0  0  0  0  0  0  0
   -0.6260   -0.9640   -0.3030 C   0  0  0  0  0  0  0  0  0  0  0  0
   -1.6790   -0.1150   -0.8170 C   0  0  0  0  0  0  0  0  0  0  0  0
   -1.9680   -0.1170   -2.1100 N   0  0  0  0  0  0  0  0  0  0  0  0
   -2.9890    0.6810   -2.6430 N   0  0  0  0  0  0  0  0  0  0  0  0
   -3.7270    1.5000   -1.7620 C   0  0  0  0  0  0  0  0  0  0  0  0
   -4.2370    2.5650   -2.0960 O   0  0  0  0  0  0  0  0  0  0  0  0
   -3.8570    0.9770   -0.3550 C   0  0  0  0  0  0  0  0  0  0  0  0
   -2.4250    0.7720    0.0860 C   0  0  1  0  0  0  0  0  0  0  0  0
   -2.1740    0.5240    1.4820 C   0  0  0  0  0  0  0  0  0  0  0  0
   -1.2570   -0.3150    1.8950 C   0  0  0  0  0  0  0  0  0  0  0  0
   -1.0310   -0.5050    3.6300 Cl  0  0  0  0  0  0  0  0  0  0  0  0
  1  2  2  0
  2  3  1  0
  2  4  1  0
  4  5  1  0
  5  6  2  0
  5  7  1  0
  7  8  1  0
  8  9  1  0
  9 10  2  0
  9 19  1  0
 10 11  1  0
 11 12  2  0
 11 17  1  0
 12 13  1  0
 13 14  1  0
 14 15  2  0
 14 16  1  0
 17 16  1  1
 17 18  1  0
 18 19  2  0
 19 20  1  0
M  END
