
     RDKit          3D

 20 21  0  0  0  0  0  0  0  0999 V2000
    5.4700    1.7350   -1.6020 N   0  0  0  0  0  0  0  0  0  0  0  0
    4.1730    1.8180   -1.0360 C   0  0  0  0  0  0  0  0  0  0  0  0
    3.6810    2.9460   -0.8250 O   0  0  0  0  0  0  0  0  0  0  0  0
    3.4230    0.6170   -0.7060 C   0  0  0  0  0  0  0  0  0  0  0  0
    3.9490   -0.5200   -0.9320 O   0  0  0  0  0  0  0  0  0  0  0  0
    2.1350    0.6380   -0.1430 N   0  0  0  0  0  0  0  0  0  0  0  0
    1.3890   -0.5290    0.1860 C   0  0  0  0  0  0  0  0  0  0  0  0
    1.9370   -1.6340   -0.0500 O   0  0  0  0  0  0  0  0  0  0  0  0
    0.1220   -0.5100    0.7380 N   0  0  0  0  0  0  0  0  0  0  0  0
   -0.7170    0.7150    1.1010 C   0  0  0  0  0  0  0  0  0  0  0  0
   -2.0330    0.2300    0.5440 C   0  0  0  0  0  0  0  0  0  0  0  0
   -3.1450    1.0660    0.1240 C   0  0  0  0  0  0  0  0  0  0  0  0
   -4.3310    0.4990   -0.3830 O   0  0  0  0  0  0  0  0  0  0  0  0
   -3.1140    2.3820    0.1890 C   0  0  0  0  0  0  0  0  0  0  0  0
   -4.4450    3.3860   -0.3140 Cl  0  0  0  0  0  0  0  0  0  0  0  0
   -2.0620   -1.1100    0.4790 C   0  0  0  0  0  0  0  0  0  0  0  0
   -2.7080   -2.3190    0.1550 N   0  0  0  0  0  0  0  0  0  0  0  0
   -1.8250   -3.3860    0.4570 C   0  0  0  0  0  0  0  0  0  0  0  0
   -0.6750   -2.9290    0.9930 C   0  0  0  0  0  0  0  0  0  0  0  0
   -0.7490   -1.5320    1.1220 C   0  0  1  0  0  0  0  0  0  0  0  0
  1  2  1  0
  2  3  2  0
  2  4  1  0
  4  5  2  0
  4  6  1  0
  6  7  1  0
  7  8  2  0
  7  9  1  0
  9 10  1  0
 20  9  1  6
 10 11  1  0
 11 12  1  0
 11 16  2  0
 12 13  1  0
 12 14  2  3
 14 15  1  0
 16 17  1  0
 16 20  1  0
 17 18  1  0
 18 19  2  0
 19 20  1  0
M  END
