
     RDKit          3D

 11 11  0  0  0  0  0  0  0  0999 V2000
    3.7580   -1.0030   -1.3400 O   0  0  0  0  0  0  0  0  0  0  0  0
    2.9370   -0.5950   -0.4770 C   0  0  0  0  0  0  0  0  0  0  0  0
    3.4260   -0.2950    0.7820 O   0  0  0  0  0  0  0  0  0  0  0  0
    1.4900   -0.4310   -0.7700 C   0  0  0  0  0  0  0  0  0  0  0  0
    0.8050    0.0620    0.4470 C   0  0  0  0  0  0  0  0  0  0  0  0
   -0.6460    0.2850    0.3450 C   0  0  2  0  0  0  0  0  0  0  0  0
   -1.1210    0.7450    1.5740 O   0  0  0  0  0  0  0  0  0  0  0  0
   -1.4580   -0.9380   -0.0080 C   0  0  0  0  0  0  0  0  0  0  0  0
   -2.7750   -0.2090   -0.2870 C   0  0  0  0  0  0  0  0  0  0  0  0
   -2.4550    0.9730   -0.9010 O   0  0  0  0  0  0  0  0  0  0  0  0
   -1.1030    1.2190   -0.7160 C   0  0  0  0  0  0  0  0  0  0  0  0
  1  2  2  0
  2  3  1  0
  2  4  1  0
  4  5  1  0
  5  6  1  0
  6  7  1  1
  6  8  1  0
  6 11  1  0
  8  9  1  0
  9 10  1  0
 10 11  1  0
M  END
