
     RDKit          3D

 12 12  0  0  0  0  0  0  0  0999 V2000
    3.0290   -0.4680    1.4170 O   0  0  0  0  0  0  0  0  0  0  0  0
    3.1330   -0.4220    0.1610 C   0  0  0  0  0  0  0  0  0  0  0  0
    4.3640   -0.4570   -0.4700 O   0  0  0  0  0  0  0  0  0  0  0  0
    1.9570   -0.3340   -0.5380 O   0  0  0  0  0  0  0  0  0  0  0  0
    0.6750   -0.2930    0.0170 C   0  0  2  0  0  0  0  0  0  0  0  0
   -0.0110   -1.5770   -0.4440 C   0  0  0  0  0  0  0  0  0  0  0  0
   -1.3020   -1.7990    0.3040 C   0  0  0  0  0  0  0  0  0  0  0  0
   -2.1270   -0.5550    0.2100 C   0  0  0  0  0  0  0  0  0  0  0  0
   -1.5590    0.3820   -0.8370 C   0  0  0  0  0  0  0  0  0  0  0  0
   -0.1590    0.8550   -0.4350 C   0  0  1  0  0  0  0  0  0  0  0  0
   -0.3790    1.9030    0.6380 C   0  0  0  0  0  0  0  0  0  0  0  0
   -1.1780    2.9070    0.0530 O   0  0  0  0  0  0  0  0  0  0  0  0
  1  2  2  0
  2  3  1  0
  2  4  1  0
  5  4  1  6
  5  6  1  0
  5 10  1  0
  6  7  1  0
  7  8  1  0
  8  9  1  0
  9 10  1  0
 10 11  1  1
 11 12  1  0
M  END
