
     RDKit          3D

 12 12  0  0  0  0  0  0  0  0999 V2000
    0.7710   -1.2200   -0.6490 O   0  0  0  0  0  0  0  0  0  0  0  0
    0.4990   -0.0100   -0.3810 C   0  0  0  0  0  0  0  0  0  0  0  0
    1.5850    0.8470   -0.2870 O   0  0  0  0  0  0  0  0  0  0  0  0
    2.9180    0.4710   -0.4620 C   0  0  0  0  0  0  0  0  0  0  0  0
    3.3940   -0.5690    0.5040 C   0  0  0  0  0  0  0  0  0  0  0  0
    4.7270   -0.8910    0.2690 O   0  0  0  0  0  0  0  0  0  0  0  0
   -0.8760    0.4740   -0.1800 C   0  0  2  0  0  0  0  0  0  0  0  0
   -0.8240    1.8380    0.0950 O   0  0  0  0  0  0  0  0  0  0  0  0
   -1.6120   -0.2440    0.9060 C   0  0  0  0  0  0  0  0  0  0  0  0
   -2.9050   -0.7570    0.2930 C   0  0  0  0  0  0  0  0  0  0  0  0
   -3.1300    0.2940   -0.8000 C   0  0  0  0  0  0  0  0  0  0  0  0
   -1.7290    0.3140   -1.4270 C   0  0  0  0  0  0  0  0  0  0  0  0
  1  2  2  0
  2  3  1  0
  2  7  1  0
  3  4  1  0
  4  5  1  0
  5  6  1  0
  7  8  1  1
  7  9  1  0
  7 12  1  0
  9 10  1  0
 10 11  1  0
 11 12  1  0
M  END
