
     RDKit          3D

 12 12  0  0  0  0  0  0  0  0999 V2000
   -3.2990   -0.5560   -1.1120 O   0  0  0  0  0  0  0  0  0  0  0  0
   -2.7500   -0.0110   -0.1250 C   0  0  0  0  0  0  0  0  0  0  0  0
   -3.4800    0.9350    0.5820 O   0  0  0  0  0  0  0  0  0  0  0  0
   -1.3870   -0.2950    0.3470 C   0  0  1  0  0  0  0  0  0  0  0  0
   -0.6740   -1.3300   -0.4770 C   0  0  0  0  0  0  0  0  0  0  0  0
    0.7930   -1.3000   -0.0470 C   0  0  0  0  0  0  0  0  0  0  0  0
    1.4030   -0.0760   -0.6610 C   0  0  2  0  0  0  0  0  0  0  0  0
    2.6500    0.3030    0.0690 C   0  0  0  0  0  0  0  0  0  0  0  0
    2.7430    1.4330    0.6240 O   0  0  0  0  0  0  0  0  0  0  0  0
    3.7200   -0.5520    0.1580 O   0  0  0  0  0  0  0  0  0  0  0  0
    0.4380    1.0700   -0.6960 C   0  0  0  0  0  0  0  0  0  0  0  0
   -0.6000    0.9720    0.3940 C   0  0  0  0  0  0  0  0  0  0  0  0
  1  2  2  0
  2  3  1  0
  4  2  1  6
  4  5  1  0
  4 12  1  0
  5  6  1  0
  6  7  1  0
  7  8  1  1
  7 11  1  0
  8  9  2  0
  8 10  1  0
 11 12  1  0
M  END
