
     RDKit          3D

 12 12  0  0  0  0  0  0  0  0999 V2000
    3.9910   -0.4240    0.1570 O   0  0  0  0  0  0  0  0  0  0  0  0
    3.5620    0.6010   -0.3280 C   0  0  0  0  0  0  0  0  0  0  0  0
    2.0970    0.8070   -0.4400 C   0  0  0  0  0  0  0  0  0  0  0  0
    1.4190   -0.3150    0.0800 O   0  0  0  0  0  0  0  0  0  0  0  0
    0.0250   -0.3490    0.0830 C   0  0  0  0  0  0  0  0  0  0  0  0
   -0.7130    0.7040   -0.4190 C   0  0  0  0  0  0  0  0  0  0  0  0
   -2.0920    0.6510   -0.4080 C   0  0  0  0  0  0  0  0  0  0  0  0
   -2.8390    1.7130   -0.9140 O   0  0  0  0  0  0  0  0  0  0  0  0
   -2.6790   -0.4770    0.1160 C   0  0  0  0  0  0  0  0  0  0  0  0
   -1.9380   -1.5290    0.6170 C   0  0  0  0  0  0  0  0  0  0  0  0
   -0.5600   -1.4820    0.6090 C   0  0  0  0  0  0  0  0  0  0  0  0
    0.2010   -2.5470    1.1160 O   0  0  0  0  0  0  0  0  0  0  0  0
  1  2  2  0
  2  3  1  0
  3  4  1  0
  4  5  1  0
  5  6  2  0
  5 11  1  0
  6  7  1  0
  7  8  1  0
  7  9  2  0
  9 10  1  0
 10 11  2  0
 11 12  1  0
M  END
