
     RDKit          3D

 38 42  0  0  0  0  0  0  0  0999 V2000
   10.2940    1.9410   -0.6960 C   0  0  0  0  0  0  0  0  0  0  0  0
   10.1240    0.8690    0.2440 N   0  0  0  0  0  0  0  0  0  0  0  0
    9.3080   -0.2050   -0.2690 C   0  0  0  0  0  0  0  0  0  0  0  0
    7.8900    0.1750   -0.0970 C   0  0  0  0  0  0  0  0  0  0  0  0
    7.1840    0.7330   -1.1370 C   0  0  0  0  0  0  0  0  0  0  0  0
    5.8470    1.1000   -0.9950 C   0  0  0  0  0  0  0  0  0  0  0  0
    5.2240    0.9000    0.2100 C   0  0  0  0  0  0  0  0  0  0  0  0
    3.8970    1.2600    0.3660 O   0  0  0  0  0  0  0  0  0  0  0  0
    2.9380    0.2920    0.1150 C   0  0  0  0  0  0  0  0  0  0  0  0
    1.6070    0.6010    0.2700 C   0  0  0  0  0  0  0  0  0  0  0  0
    0.6140   -0.3210    0.0360 C   0  0  0  0  0  0  0  0  0  0  0  0
    0.9230   -1.5970   -0.3660 C   0  0  0  0  0  0  0  0  0  0  0  0
   -0.0490   -2.5400   -0.6060 O   0  0  0  0  0  0  0  0  0  0  0  0
   -1.3910   -2.1590   -0.4230 C   0  0  0  0  0  0  0  0  0  0  0  0
   -2.0570   -1.7610   -1.4970 N   0  0  0  0  0  0  0  0  0  0  0  0
   -3.3260   -1.3900   -1.3810 N   0  0  0  0  0  0  0  0  0  0  0  0
   -3.9610   -1.4040   -0.2060 C   0  0  0  0  0  0  0  0  0  0  0  0
   -5.3470   -1.0420   -0.0880 N   0  0  0  0  0  0  0  0  0  0  0  0
   -5.6370    0.1950   -0.0890 C   0  0  0  0  0  0  0  0  0  0  0  0
   -4.4860    1.1130   -0.2160 C   0  0  0  0  0  0  0  0  0  0  0  0
   -3.4180    0.6540    0.2330 O   0  0  0  0  0  0  0  0  0  0  0  0
   -4.4620    2.4050   -0.7690 O   0  0  0  0  0  0  0  0  0  0  0  0
   -5.5960    3.2440   -0.8980 C   0  0  0  0  0  0  0  0  0  0  0  0
   -6.5420    3.1410    0.2510 C   0  0  0  0  0  0  0  0  0  0  0  0
   -7.5900    2.0580    0.0710 C   0  0  0  0  0  0  0  0  0  0  0  0
   -7.0140    0.7150    0.0480 C   0  0  0  0  0  0  0  0  0  0  0  0
   -7.9400   -0.2090    0.1760 C   0  0  0  0  0  0  0  0  0  0  0  0
   -7.7150   -1.6500    0.1950 C   0  0  0  0  0  0  0  0  0  0  0  0
   -6.3370   -2.0800   -0.0230 C   0  0  2  0  0  0  0  0  0  0  0  0
   -5.8970   -3.1480    0.9960 C   0  0  0  0  0  0  0  0  0  0  0  0
   -3.3000   -1.8020    0.8840 N   0  0  0  0  0  0  0  0  0  0  0  0
   -1.9910   -2.1920    0.8030 C   0  0  0  0  0  0  0  0  0  0  0  0
   -1.3540   -2.5680    1.8050 O   0  0  0  0  0  0  0  0  0  0  0  0
    2.2520   -1.9290   -0.5280 C   0  0  0  0  0  0  0  0  0  0  0  0
    2.7250   -3.5400   -1.0410 Cl  0  0  0  0  0  0  0  0  0  0  0  0
    3.2310   -0.9920   -0.2890 C   0  0  0  0  0  0  0  0  0  0  0  0
    5.9300    0.3420    1.2510 C   0  0  0  0  0  0  0  0  0  0  0  0
    7.2590   -0.0210    1.1010 C   0  0  0  0  0  0  0  0  0  0  0  0
  1  2  1  0
  2  3  1  0
  3  4  1  0
  4  5  2  0
  4 38  1  0
  5  6  1  0
  6  7  2  0
  7  8  1  0
  7 37  1  0
  8  9  1  0
  9 10  2  0
  9 36  1  0
 10 11  1  0
 11 12  2  0
 12 13  1  0
 12 34  1  0
 13 14  1  0
 14 15  2  0
 14 32  1  0
 15 16  1  0
 16 17  2  0
 17 18  1  0
 17 31  1  0
 18 19  2  0
 18 29  1  0
 19 20  1  0
 19 26  1  0
 20 21  2  0
 20 22  1  0
 22 23  1  0
 23 24  1  0
 24 25  1  0
 25 26  1  0
 26 27  2  0
 27 28  1  0
 28 29  1  0
 29 30  1  1
 31 32  1  0
 32 33  2  0
 34 35  1  0
 34 36  2  0
 37 38  2  0
M  CHG  2   2   1  18   1
M  END
