
     RDKit          3D

 38 42  0  0  0  0  0  0  0  0999 V2000
   -6.3210   -1.8830   -0.0610 C   0  0  0  0  0  0  0  0  0  0  0  0
   -7.3610   -1.1010    0.1440 C   0  0  0  0  0  0  0  0  0  0  0  0
   -7.3800    0.3210    0.2830 C   0  0  0  0  0  0  0  0  0  0  0  0
   -8.5080    0.9650    0.5140 C   0  0  0  0  0  0  0  0  0  0  0  0
   -9.8540    0.4160    0.6650 C   0  0  0  0  0  0  0  0  0  0  0  0
  -10.9680    1.0880   -0.5850 Cl  0  0  0  0  0  0  0  0  0  0  0  0
   -6.1410    1.1750    0.1950 C   0  0  0  0  0  0  0  0  0  0  0  0
   -5.5240    1.1340   -1.1480 C   0  0  0  0  0  0  0  0  0  0  0  0
   -4.3310    1.9190   -1.2810 N   0  0  0  0  0  0  0  0  0  0  0  0
   -4.2690    3.2000   -1.6490 C   0  0  0  0  0  0  0  0  0  0  0  0
   -5.3240    3.8170   -1.9100 O   0  0  0  0  0  0  0  0  0  0  0  0
   -3.1060    3.8640   -1.7510 N   0  0  0  0  0  0  0  0  0  0  0  0
   -1.9060    3.2730   -1.4850 C   0  0  0  0  0  0  0  0  0  0  0  0
   -0.7660    3.9480   -1.6000 N   0  0  0  0  0  0  0  0  0  0  0  0
    0.3880    3.3350   -1.3390 C   0  0  0  0  0  0  0  0  0  0  0  0
    0.4170    2.0180   -0.9530 C   0  0  0  0  0  0  0  0  0  0  0  0
   -0.7400    1.2620   -0.8150 C   0  0  0  0  0  0  0  0  0  0  0  0
   -0.7020   -0.1310   -0.3790 C   0  0  0  0  0  0  0  0  0  0  0  0
    0.6370   -0.6680   -0.1640 N   0  0  2  0  0  0  0  0  0  0  0  0
    0.5860   -2.1390   -0.1480 C   0  0  0  0  0  0  0  0  0  0  0  0
    1.8790   -2.7020   -0.6920 C   0  0  0  0  0  0  0  0  0  0  0  0
    3.0460   -2.3990    0.2260 C   0  0  0  0  0  0  0  0  0  0  0  0
    3.4550   -0.9490    0.1390 C   0  0  2  0  0  0  0  0  0  0  0  0
    4.9280   -0.7960    0.4220 C   0  0  0  0  0  0  0  0  0  0  0  0
    5.5600   -1.0870    1.5740 N   0  0  0  0  0  0  0  0  0  0  0  0
    6.8690   -0.8160    1.4350 C   0  0  0  0  0  0  0  0  0  0  0  0
    7.0240   -0.3490    0.1620 C   0  0  0  0  0  0  0  0  0  0  0  0
    5.8580   -0.3570   -0.3900 O   0  0  0  0  0  0  0  0  0  0  0  0
    8.2270    0.1200   -0.6020 C   0  0  0  0  0  0  0  0  0  0  0  0
    9.3180   -0.5500   -0.0380 O   0  0  0  0  0  0  0  0  0  0  0  0
    8.9280   -1.7610    0.5040 C   0  0  0  0  0  0  0  0  0  0  0  0
    8.9310   -1.7760    1.8890 O   0  0  0  0  0  0  0  0  0  0  0  0
    7.9380   -0.9840    2.4470 C   0  0  0  0  0  0  0  0  0  0  0  0
    2.6900   -0.1600    1.1460 C   0  0  0  0  0  0  0  0  0  0  0  0
    1.2130   -0.2600    1.0940 C   0  0  0  0  0  0  0  0  0  0  0  0
   -1.9250    1.9490   -1.1010 C   0  0  0  0  0  0  0  0  0  0  0  0
   -3.1360    1.3070   -1.0100 C   0  0  0  0  0  0  0  0  0  0  0  0
   -3.1440    0.1040   -0.6620 O   0  0  0  0  0  0  0  0  0  0  0  0
  1  2  2  0
  2  3  1  0
  3  4  2  3
  3  7  1  0
  4  5  1  0
  5  6  1  0
  7  8  1  0
  8  9  1  0
  9 10  1  0
  9 37  1  0
 10 11  2  0
 10 12  1  0
 12 13  1  0
 13 14  2  0
 13 36  1  0
 14 15  1  0
 15 16  2  0
 16 17  1  0
 17 18  1  0
 17 36  2  0
 19 18  1  1
 19 20  1  0
 19 35  1  0
 20 21  1  0
 21 22  1  0
 22 23  1  0
 23 24  1  1
 23 34  1  0
 24 25  2  0
 24 28  1  0
 25 26  1  0
 26 27  2  0
 26 33  1  0
 27 28  1  0
 27 29  1  0
 29 30  1  0
 30 31  1  0
 31 32  1  0
 32 33  1  0
 34 35  1  0
 36 37  1  0
 37 38  2  0
M  CHG  2  19   1  25   1
M  END
