
     RDKit          3D

 38 42  0  0  0  0  0  0  0  0999 V2000
   -8.5480    1.8250    0.3500 C   0  0  0  0  0  0  0  0  0  0  0  0
   -7.9070    0.5500    0.0730 N   0  0  2  0  0  0  0  0  0  0  0  0
   -8.9700   -0.4240   -0.0860 C   0  0  0  0  0  0  0  0  0  0  0  0
   -8.4750   -1.8110   -0.3230 C   0  0  0  0  0  0  0  0  0  0  0  0
   -7.2970   -2.2060    0.5020 C   0  0  0  0  0  0  0  0  0  0  0  0
   -6.2880   -1.0940    0.6960 C   0  0  1  0  0  0  0  0  0  0  0  0
   -5.6840   -0.7460   -0.6200 C   0  0  0  0  0  0  0  0  0  0  0  0
   -6.0630   -1.3610   -1.6730 O   0  0  0  0  0  0  0  0  0  0  0  0
   -4.6900    0.2590   -0.7310 N   0  0  0  0  0  0  0  0  0  0  0  0
   -4.0290    0.6930   -1.9250 C   0  0  0  0  0  0  0  0  0  0  0  0
   -2.8420    1.5170   -1.5010 C   0  0  0  0  0  0  0  0  0  0  0  0
   -2.7780    1.3500   -0.0630 N   0  0  2  0  0  0  0  0  0  0  0  0
   -1.8640    0.2950    0.3180 C   0  0  0  0  0  0  0  0  0  0  0  0
   -0.5840    0.9320    0.7860 C   0  0  0  0  0  0  0  0  0  0  0  0
    0.3790   -0.0160    1.1820 O   0  0  0  0  0  0  0  0  0  0  0  0
    1.6010    0.4590    1.6340 C   0  0  0  0  0  0  0  0  0  0  0  0
    1.8710    1.6860    1.6980 O   0  0  0  0  0  0  0  0  0  0  0  0
    2.6610   -0.5070    2.0670 C   0  0  0  0  0  0  0  0  0  0  0  0
    3.5170   -0.8850    0.9620 N   0  0  0  0  0  0  0  0  0  0  0  0
    3.2770   -1.9240    0.1630 N   0  0  0  0  0  0  0  0  0  0  0  0
    4.2370   -2.0230   -0.7610 C   0  0  0  0  0  0  0  0  0  0  0  0
    5.1350   -1.0060   -0.5490 C   0  0  0  0  0  0  0  0  0  0  0  0
    6.3210   -0.5900   -1.1690 C   0  0  0  0  0  0  0  0  0  0  0  0
    7.0100    0.5020   -0.7050 C   0  0  0  0  0  0  0  0  0  0  0  0
    8.1720    0.9020   -1.3180 O   0  0  0  0  0  0  0  0  0  0  0  0
    9.3640    0.3770   -0.8730 C   0  0  0  0  0  0  0  0  0  0  0  0
   10.0580    1.0090    0.1270 C   0  0  0  0  0  0  0  0  0  0  0  0
   11.2610    0.5220    0.6100 C   0  0  0  0  0  0  0  0  0  0  0  0
   11.7620   -0.6410    0.0540 C   0  0  0  0  0  0  0  0  0  0  0  0
   12.9800   -1.1380    0.5410 O   0  0  0  0  0  0  0  0  0  0  0  0
   11.0850   -1.2910   -0.9470 C   0  0  0  0  0  0  0  0  0  0  0  0
   11.7110   -2.7560   -1.6510 Cl  0  0  0  0  0  0  0  0  0  0  0  0
    9.8890   -0.7760   -1.4040 C   0  0  0  0  0  0  0  0  0  0  0  0
    6.5350    1.1960    0.3780 C   0  0  0  0  0  0  0  0  0  0  0  0
    5.3510    0.7900    1.0050 C   0  0  0  0  0  0  0  0  0  0  0  0
    4.6610   -0.3070    0.5360 C   0  0  0  0  0  0  0  0  0  0  0  0
   -4.1400    1.0520    0.3510 C   0  0  0  0  0  0  0  0  0  0  0  0
   -7.0970    0.1120    1.1920 C   0  0  0  0  0  0  0  0  0  0  0  0
  2  1  1  1
  2  3  1  0
  2 38  1  0
  3  4  1  0
  4  5  1  0
  5  6  1  0
  6  7  1  6
  6 38  1  0
  7  8  2  0
  7  9  1  0
  9 10  1  0
  9 37  1  0
 10 11  1  0
 11 12  1  0
 12 13  1  6
 12 37  1  0
 13 14  1  0
 14 15  1  0
 15 16  1  0
 16 17  2  0
 16 18  1  0
 18 19  1  0
 19 20  1  0
 19 36  1  0
 20 21  2  0
 21 22  1  0
 22 23  2  0
 22 36  1  0
 23 24  1  0
 24 25  1  0
 24 34  2  0
 25 26  1  0
 26 27  2  0
 26 33  1  0
 27 28  1  0
 28 29  2  0
 29 30  1  0
 29 31  1  0
 31 32  1  0
 31 33  2  0
 34 35  1  0
 35 36  2  0
M  CHG  2   2   1  12   1
M  END
