
     RDKit          3D

 38 42  0  0  0  0  0  0  0  0999 V2000
   -8.7930    1.8850    0.7350 C   0  0  0  0  0  0  0  0  0  0  0  0
   -7.3750    2.2890    0.9010 C   0  0  0  0  0  0  0  0  0  0  0  0
   -7.0260    3.4320    1.6440 C   0  0  0  0  0  0  0  0  0  0  0  0
   -5.6880    3.7740    1.7870 C   0  0  0  0  0  0  0  0  0  0  0  0
   -4.7260    2.9740    1.1910 C   0  0  0  0  0  0  0  0  0  0  0  0
   -5.0660    1.8590    0.4670 C   0  0  0  0  0  0  0  0  0  0  0  0
   -4.0670    1.0020   -0.1800 C   0  0  0  0  0  0  0  0  0  0  0  0
   -2.7670    1.5290    0.1280 O   0  0  0  0  0  0  0  0  0  0  0  0
   -1.6310    0.8780   -0.3700 C   0  0  0  0  0  0  0  0  0  0  0  0
   -1.8450   -0.1320   -1.0780 O   0  0  0  0  0  0  0  0  0  0  0  0
   -0.2390    1.2890   -0.1190 C   0  0  0  0  0  0  0  0  0  0  0  0
    0.6770    0.4300   -0.7440 O   0  0  0  0  0  0  0  0  0  0  0  0
    2.0310    0.6070   -0.5240 C   0  0  0  0  0  0  0  0  0  0  0  0
    2.4400    1.5260    0.2290 O   0  0  0  0  0  0  0  0  0  0  0  0
    3.0570   -0.2680   -1.1530 C   0  0  0  0  0  0  0  0  0  0  0  0
    4.2400   -0.2500   -0.3030 N   0  0  1  0  0  0  0  0  0  0  0  0
    3.9130   -1.0480    0.8720 C   0  0  0  0  0  0  0  0  0  0  0  0
    5.3250   -0.8680   -0.9690 C   0  0  0  0  0  0  0  0  0  0  0  0
    5.3680   -1.3990   -2.1970 N   0  0  0  0  0  0  0  0  0  0  0  0
    6.5890   -1.8920   -2.4120 N   0  0  0  0  0  0  0  0  0  0  0  0
    7.3540   -1.6860   -1.3170 C   0  0  0  0  0  0  0  0  0  0  0  0
    6.5700   -1.0590   -0.4430 N   0  0  0  0  0  0  0  0  0  0  0  0
    7.3400   -0.8210    0.7410 C   0  0  0  0  0  0  0  0  0  0  0  0
    6.8900   -0.2450    1.7620 O   0  0  0  0  0  0  0  0  0  0  0  0
    8.6770   -1.3540    0.5330 C   0  0  0  0  0  0  0  0  0  0  0  0
    9.8090   -1.4110    1.3110 C   0  0  0  0  0  0  0  0  0  0  0  0
   10.9760   -1.9920    0.8680 C   0  0  0  0  0  0  0  0  0  0  0  0
   10.9870   -2.5280   -0.4080 C   0  0  0  0  0  0  0  0  0  0  0  0
    9.8460   -2.4730   -1.1990 C   0  0  0  0  0  0  0  0  0  0  0  0
    8.6830   -1.8940   -0.7540 C   0  0  0  0  0  0  0  0  0  0  0  0
   -6.3930    1.5240    0.3270 C   0  0  0  0  0  0  0  0  0  0  0  0
   -6.7280    0.3390   -0.4350 C   0  0  0  0  0  0  0  0  0  0  0  0
   -7.1410    0.3320   -1.7390 C   0  0  0  0  0  0  0  0  0  0  0  0
   -7.4290   -0.8590   -2.3780 C   0  0  0  0  0  0  0  0  0  0  0  0
   -7.3160   -2.0470   -1.7500 N   0  0  0  0  0  0  0  0  0  0  0  0
   -6.9130   -2.0880   -0.4690 C   0  0  0  0  0  0  0  0  0  0  0  0
   -6.7570   -3.6330    0.3710 Cl  0  0  0  0  0  0  0  0  0  0  0  0
   -6.6240   -0.9180    0.1790 C   0  0  0  0  0  0  0  0  0  0  0  0
  1  2  1  0
  2  3  2  0
  2 31  1  0
  3  4  1  0
  4  5  2  0
  5  6  1  0
  6  7  1  0
  6 31  2  0
  7  8  1  0
  8  9  1  0
  9 10  2  0
  9 11  1  0
 11 12  1  0
 12 13  1  0
 13 14  2  0
 13 15  1  0
 15 16  1  0
 16 17  1  1
 16 18  1  0
 18 19  2  0
 18 22  1  0
 19 20  1  0
 20 21  2  0
 21 22  1  0
 21 30  1  0
 22 23  1  0
 23 24  2  0
 23 25  1  0
 25 26  2  0
 25 30  1  0
 26 27  1  0
 27 28  2  0
 28 29  1  0
 29 30  2  0
 31 32  1  0
 32 33  2  0
 32 38  1  0
 33 34  1  0
 34 35  2  0
 35 36  1  0
 36 37  1  0
 36 38  2  0
M  CHG  2  16   1  35   1
M  END
