
     RDKit          3D

 38 42  0  0  0  0  0  0  0  0999 V2000
    8.0180   -2.1460    0.5640 C   0  0  0  0  0  0  0  0  0  0  0  0
    6.9630   -1.6440    1.2960 O   0  0  0  0  0  0  0  0  0  0  0  0
    6.0160   -1.0770    0.4440 C   0  0  2  0  0  0  0  0  0  0  0  0
    5.8500    0.3770    0.8580 C   0  0  0  0  0  0  0  0  0  0  0  0
    4.7030   -1.7630    0.7330 C   0  0  0  0  0  0  0  0  0  0  0  0
    3.6600   -1.2810   -0.0620 O   0  0  0  0  0  0  0  0  0  0  0  0
    3.6930   -1.3820   -1.4320 C   0  0  0  0  0  0  0  0  0  0  0  0
    4.6740   -1.9170   -1.9860 O   0  0  0  0  0  0  0  0  0  0  0  0
    2.5870   -0.8670   -2.2410 C   0  0  0  0  0  0  0  0  0  0  0  0
    1.5340   -0.2700   -1.4530 N   0  0  0  0  0  0  0  0  0  0  0  0
    0.5080   -0.9470   -0.9910 C   0  0  0  0  0  0  0  0  0  0  0  0
    0.4280   -2.1750   -1.2400 O   0  0  0  0  0  0  0  0  0  0  0  0
   -0.5330   -0.3210   -0.2050 C   0  0  0  0  0  0  0  0  0  0  0  0
   -1.5450   -1.2460    0.1890 C   0  0  0  0  0  0  0  0  0  0  0  0
   -2.7130   -1.1240    0.9210 N   0  0  2  0  0  0  0  0  0  0  0  0
   -2.9920   -2.5170    1.4510 C   0  0  0  0  0  0  0  0  0  0  0  0
   -3.8000   -3.2520    0.4150 C   0  0  0  0  0  0  0  0  0  0  0  0
   -5.1630   -2.7770    0.5680 N   0  0  0  0  0  0  0  0  0  0  0  0
   -6.1000   -3.3490   -0.3360 C   0  0  0  0  0  0  0  0  0  0  0  0
   -6.3930   -2.3470   -1.3130 N   0  0  0  0  0  0  0  0  0  0  0  0
   -6.1100   -1.0690   -0.6850 C   0  0  0  0  0  0  0  0  0  0  0  0
   -5.1450   -1.3690    0.4410 C   0  0  1  0  0  0  0  0  0  0  0  0
   -5.7060   -0.7070    1.6950 C   0  0  0  0  0  0  0  0  0  0  0  0
   -3.8210   -0.7770    0.0600 C   0  0  0  0  0  0  0  0  0  0  0  0
   -0.3720    1.0140    0.0210 C   0  0  0  0  0  0  0  0  0  0  0  0
   -1.3320    1.6700    0.7670 C   0  0  0  0  0  0  0  0  0  0  0  0
   -1.1990    3.0100    1.0120 C   0  0  0  0  0  0  0  0  0  0  0  0
   -0.1160    3.6750    0.5120 C   0  0  0  0  0  0  0  0  0  0  0  0
    0.0050    5.0370    0.7700 C   0  0  0  0  0  0  0  0  0  0  0  0
    1.0810    5.7470    0.2850 C   0  0  0  0  0  0  0  0  0  0  0  0
    1.2120    7.4690    0.6240 Cl  0  0  0  0  0  0  0  0  0  0  0  0
    2.0400    5.0960   -0.4590 C   0  0  0  0  0  0  0  0  0  0  0  0
    3.2000    5.8610   -0.9810 C   0  0  0  0  0  0  0  0  0  0  0  0
    1.9400    3.7260   -0.7310 C   0  0  0  0  0  0  0  0  0  0  0  0
    0.8590    3.0390   -0.2380 C   0  0  0  0  0  0  0  0  0  0  0  0
    0.7250    1.7060   -0.4810 N   0  0  0  0  0  0  0  0  0  0  0  0
    1.6420    1.0580   -1.1970 C   0  0  0  0  0  0  0  0  0  0  0  0
    2.6370    1.5980   -1.6720 O   0  0  0  0  0  0  0  0  0  0  0  0
  1  2  1  0
  2  3  1  0
  3  4  1  1
  3  5  1  0
  5  6  1  0
  6  7  1  0
  7  8  2  0
  7  9  1  0
  9 10  1  0
 10 11  1  0
 10 37  1  0
 11 12  2  0
 11 13  1  0
 13 14  1  0
 13 25  2  0
 15 14  1  6
 15 16  1  0
 15 24  1  0
 16 17  1  0
 17 18  1  0
 18 19  1  0
 18 22  1  0
 19 20  1  0
 20 21  1  0
 21 22  1  0
 22 23  1  1
 22 24  1  0
 25 26  1  0
 25 36  1  0
 26 27  2  0
 27 28  1  0
 28 29  2  0
 28 35  1  0
 29 30  1  0
 30 31  1  0
 30 32  2  0
 32 33  1  0
 32 34  1  0
 34 35  2  0
 35 36  1  0
 36 37  1  0
 37 38  2  0
M  CHG  2  15   1  20   1
M  END
