
     RDKit          3D

 38 41  0  0  0  0  0  0  0  0999 V2000
   -3.4360   -4.1300    0.7670 C   0  0  0  0  0  0  0  0  0  0  0  0
   -4.1600   -2.8190    0.6180 C   0  0  2  0  0  0  0  0  0  0  0  0
   -5.1920   -3.0180   -0.5030 C   0  0  0  0  0  0  0  0  0  0  0  0
   -3.3140   -1.6570    0.2590 C   0  0  0  0  0  0  0  0  0  0  0  0
   -2.2770   -1.2720    1.1190 N   0  0  0  0  0  0  0  0  0  0  0  0
   -1.1580   -2.0770    1.3400 C   0  0  0  0  0  0  0  0  0  0  0  0
    0.1520   -1.3400    1.1420 C   0  0  1  0  0  0  0  0  0  0  0  0
    1.2440   -2.1410    1.3810 O   0  0  0  0  0  0  0  0  0  0  0  0
    0.2640   -0.5690   -0.1220 C   0  0  2  0  0  0  0  0  0  0  0  0
    0.2940   -1.4950   -1.3230 C   0  0  0  0  0  0  0  0  0  0  0  0
    0.3710   -0.8180   -2.6130 C   0  0  0  0  0  0  0  0  0  0  0  0
    1.4990   -0.5040   -3.3260 C   0  0  0  0  0  0  0  0  0  0  0  0
    1.4730    0.1520   -4.5440 C   0  0  0  0  0  0  0  0  0  0  0  0
    0.2800    0.5260   -5.1050 C   0  0  0  0  0  0  0  0  0  0  0  0
   -0.8720    0.2240   -4.4120 C   0  0  0  0  0  0  0  0  0  0  0  0
   -0.8300   -0.4270   -3.2040 C   0  0  0  0  0  0  0  0  0  0  0  0
    1.3980    0.2780   -0.0140 N   0  0  0  0  0  0  0  0  0  0  0  0
    2.7350   -0.1410   -0.1520 C   0  0  0  0  0  0  0  0  0  0  0  0
    2.9940   -1.3230   -0.3790 O   0  0  0  0  0  0  0  0  0  0  0  0
    3.8140    0.7470   -0.0410 O   0  0  0  0  0  0  0  0  0  0  0  0
    5.1250    0.2480   -0.1940 C   0  0  1  0  0  0  0  0  0  0  0  0
    5.7850    0.9310   -1.3960 C   0  0  0  0  0  0  0  0  0  0  0  0
    7.1400    0.9370   -1.1280 O   0  0  0  0  0  0  0  0  0  0  0  0
    7.2800    1.2110    0.2200 C   0  0  1  0  0  0  0  0  0  0  0  0
    7.2850    2.5750    0.4880 O   0  0  0  0  0  0  0  0  0  0  0  0
    6.6850    2.7360    1.7400 C   0  0  0  0  0  0  0  0  0  0  0  0
    5.5310    1.7500    1.7650 C   0  0  0  0  0  0  0  0  0  0  0  0
    6.0520    0.6380    0.9140 C   0  0  1  0  0  0  0  0  0  0  0  0
   -2.7610   -0.3190    2.4520 S   0  0  2  0  0  0  0  0  0  0  0  0
   -1.6010    0.0080    3.3560 O   0  0  0  0  0  0  0  0  0  0  0  0
   -3.7200   -1.1140    3.3200 O   0  0  0  0  0  0  0  0  0  0  0  0
   -3.4740    1.1870    1.9750 C   0  0  0  0  0  0  0  0  0  0  0  0
   -2.6890    2.2960    1.8170 C   0  0  0  0  0  0  0  0  0  0  0  0
   -3.2180    3.5050    1.4390 C   0  0  0  0  0  0  0  0  0  0  0  0
   -4.5640    3.6250    1.2100 C   0  0  0  0  0  0  0  0  0  0  0  0
   -5.0850    4.9030    0.8150 N   0  0  0  0  0  0  0  0  0  0  0  0
   -5.3770    2.5270    1.3610 C   0  0  0  0  0  0  0  0  0  0  0  0
   -4.8220    1.3000    1.7480 C   0  0  0  0  0  0  0  0  0  0  0  0
  2  1  1  6
  2  3  1  0
  2  4  1  0
  4  5  1  0
  5  6  1  0
 29  5  1  6
  6  7  1  0
  7  8  1  6
  7  9  1  0
  9 10  1  6
  9 17  1  0
 10 11  1  0
 11 12  2  0
 11 16  1  0
 12 13  1  0
 13 14  2  0
 14 15  1  0
 15 16  2  0
 17 18  1  0
 18 19  2  0
 18 20  1  0
 21 20  1  1
 21 22  1  0
 21 28  1  0
 22 23  1  0
 24 23  1  6
 24 25  1  0
 24 28  1  0
 25 26  1  0
 26 27  1  0
 28 27  1  1
 29 30  2  0
 29 31  2  0
 29 32  1  0
 32 33  2  0
 32 38  1  0
 33 34  1  0
 34 35  2  0
 35 36  1  0
 35 37  1  0
 37 38  2  0
M  END
