
     RDKit          3D

 38 43  0  0  0  0  0  0  0  0999 V2000
    8.9090    2.7980   -0.0040 C   0  0  0  0  0  0  0  0  0  0  0  0
    7.6400    2.7200    0.7960 C   0  0  0  0  0  0  0  0  0  0  0  0
    6.8450    1.6670    0.5800 O   0  0  0  0  0  0  0  0  0  0  0  0
    7.2960    0.3820    0.9520 C   0  0  0  0  0  0  0  0  0  0  0  0
    6.1930   -0.5760    0.6150 C   0  0  0  0  0  0  0  0  0  0  0  0
    6.1800   -1.5560   -0.2270 O   0  0  0  0  0  0  0  0  0  0  0  0
    4.9790   -2.1680   -0.2170 C   0  0  0  0  0  0  0  0  0  0  0  0
    4.7060   -3.2520   -0.9930 O   0  0  0  0  0  0  0  0  0  0  0  0
    4.1430   -3.4480   -2.2160 C   0  0  0  0  0  0  0  0  0  0  0  0
    4.1540   -1.5490    0.6800 C   0  0  0  0  0  0  0  0  0  0  0  0
    2.7120   -1.6180    0.8940 C   0  0  0  0  0  0  0  0  0  0  0  0
    1.8660   -1.0630   -0.0220 N   0  0  0  0  0  0  0  0  0  0  0  0
    0.6480   -1.0620    0.4930 C   0  0  0  0  0  0  0  0  0  0  0  0
   -0.5530   -0.5680   -0.0200 C   0  0  0  0  0  0  0  0  0  0  0  0
   -1.6850   -0.6670    0.7360 C   0  0  0  0  0  0  0  0  0  0  0  0
   -1.6260   -1.2420    1.9700 N   0  0  0  0  0  0  0  0  0  0  0  0
   -0.4690   -1.7250    2.4940 C   0  0  0  0  0  0  0  0  0  0  0  0
    0.7060   -1.6350    1.7440 C   0  0  0  0  0  0  0  0  0  0  0  0
    1.9760   -1.9500    1.9440 N   0  0  0  0  0  0  0  0  0  0  0  0
   -2.8540   -0.0710    0.0300 C   0  0  2  0  0  0  0  0  0  0  0  0
   -3.7620   -1.1150   -0.2820 N   0  0  0  0  0  0  0  0  0  0  0  0
   -5.1640   -0.7720   -0.2670 C   0  0  0  0  0  0  0  0  0  0  0  0
   -5.7470   -0.3830    1.0470 C   0  0  1  0  0  0  0  0  0  0  0  0
   -5.2480    0.7340    1.6830 O   0  0  0  0  0  0  0  0  0  0  0  0
   -6.1640    1.7740    1.7350 C   0  0  0  0  0  0  0  0  0  0  0  0
   -6.0620    3.0670    2.1310 C   0  0  0  0  0  0  0  0  0  0  0  0
   -7.1320    3.9420    2.0870 C   0  0  0  0  0  0  0  0  0  0  0  0
   -8.3390    3.4290    1.6130 C   0  0  0  0  0  0  0  0  0  0  0  0
   -8.4520    2.1250    1.2040 C   0  0  0  0  0  0  0  0  0  0  0  0
   -7.3650    1.2550    1.2490 C   0  0  0  0  0  0  0  0  0  0  0  0
   -7.1400   -0.0680    0.9140 O   0  0  0  0  0  0  0  0  0  0  0  0
   -2.2440    0.6240   -1.1790 C   0  0  0  0  0  0  0  0  0  0  0  0
   -0.8130    0.1670   -1.2710 C   0  0  2  0  0  0  0  0  0  0  0  0
   -0.4700   -0.6090   -2.4030 N   0  0  2  0  0  0  0  0  0  0  0  0
   -0.9770   -0.0740   -3.6580 C   0  0  0  0  0  0  0  0  0  0  0  0
   -0.7120   -2.0210   -2.2680 C   0  0  0  0  0  0  0  0  0  0  0  0
    4.9680   -0.5200    1.2170 C   0  0  0  0  0  0  0  0  0  0  0  0
    4.3590    0.6060    2.4480 Cl  0  0  0  0  0  0  0  0  0  0  0  0
  1  2  1  0
  2  3  1  0
  3  4  1  0
  4  5  1  0
  5  6  1  0
  5 37  2  0
  6  7  1  0
  7  8  1  0
  7 10  2  0
  8  9  1  0
 10 11  1  0
 10 37  1  0
 11 12  2  0
 11 19  1  0
 12 13  1  0
 13 14  2  0
 13 18  1  0
 14 15  1  0
 14 33  1  0
 15 16  2  0
 15 20  1  0
 16 17  1  0
 17 18  2  0
 18 19  1  0
 20 21  1  6
 20 32  1  0
 21 22  1  0
 23 22  1  6
 23 24  1  0
 23 31  1  0
 24 25  1  0
 25 26  2  0
 25 30  1  0
 26 27  1  0
 27 28  2  0
 28 29  1  0
 29 30  2  0
 30 31  1  0
 33 32  1  6
 33 34  1  0
 34 35  1  6
 34 36  1  0
 37 38  1  0
M  CHG  2  21   1  34   1
M  END
