
     RDKit          3D

 49 53  0  0  0  0  0  0  0  0999 V2000
   -4.4330    5.3320   -1.0500 C   0  0  0  0  0  0  0  0  0  0  0  0
   -3.6020    4.3710   -0.2720 C   0  0  1  0  0  0  0  0  0  0  0  0
   -2.1410    4.5000   -0.6770 C   0  0  0  0  0  0  0  0  0  0  0  0
   -3.6800    4.7010    1.1990 C   0  0  0  0  0  0  0  0  0  0  0  0
   -4.0500    2.9900   -0.5020 N   0  0  0  0  0  0  0  0  0  0  0  0
   -3.4240    1.8950    0.1690 C   0  0  0  0  0  0  0  0  0  0  0  0
   -2.5110    2.1950    0.9410 O   0  0  0  0  0  0  0  0  0  0  0  0
   -3.8500    0.5020   -0.0590 C   0  0  2  0  0  0  0  0  0  0  0  0
   -5.0810    0.2390    0.8500 C   0  0  0  0  0  0  0  0  0  0  0  0
   -5.8180   -0.9390    0.2720 C   0  0  2  0  0  0  0  0  0  0  0  0
   -6.9080   -1.4240    1.2100 C   0  0  0  0  0  0  0  0  0  0  0  0
   -7.6600   -2.5220    0.5270 C   0  0  0  0  0  0  0  0  0  0  0  0
   -6.7140   -3.6510    0.1850 C   0  0  0  0  0  0  0  0  0  0  0  0
   -5.2770   -3.3360    0.4840 C   0  0  0  0  0  0  0  0  0  0  0  0
   -4.8160   -2.0020   -0.0340 C   0  0  2  0  0  0  0  0  0  0  0  0
   -3.4990   -1.6860    0.6720 C   0  0  0  0  0  0  0  0  0  0  0  0
   -2.8700   -0.5290    0.0350 N   0  0  2  0  0  0  0  0  0  0  0  0
   -1.6510   -0.1690    0.6330 C   0  0  0  0  0  0  0  0  0  0  0  0
   -0.4830   -1.0960    0.4920 C   0  0  1  0  0  0  0  0  0  0  0  0
   -0.6180   -2.3770    0.8940 O   0  0  0  0  0  0  0  0  0  0  0  0
    0.3640   -0.9400   -0.7100 C   0  0  2  0  0  0  0  0  0  0  0  0
   -0.0080   -1.5880   -1.9740 C   0  0  0  0  0  0  0  0  0  0  0  0
   -0.1050   -3.0670   -1.9640 C   0  0  0  0  0  0  0  0  0  0  0  0
    1.0250   -3.8500   -2.1760 C   0  0  0  0  0  0  0  0  0  0  0  0
    0.9900   -5.2240   -2.2020 C   0  0  0  0  0  0  0  0  0  0  0  0
   -0.2160   -5.8290   -2.0080 C   0  0  0  0  0  0  0  0  0  0  0  0
   -1.3570   -5.0850   -1.7950 C   0  0  0  0  0  0  0  0  0  0  0  0
   -1.3000   -3.7130   -1.7740 C   0  0  0  0  0  0  0  0  0  0  0  0
    1.6860   -1.4920   -0.3200 N   0  0  0  0  0  0  0  0  0  0  0  0
    2.8340   -0.7100   -0.1880 C   0  0  0  0  0  0  0  0  0  0  0  0
    2.7030    0.5420   -0.4210 O   0  0  0  0  0  0  0  0  0  0  0  0
    4.1690   -1.1720    0.1910 C   0  0  2  0  0  0  0  0  0  0  0  0
    4.1690   -2.0210    1.4450 C   0  0  0  0  0  0  0  0  0  0  0  0
    3.6420   -1.3000    2.6180 C   0  0  0  0  0  0  0  0  0  0  0  0
    3.5580   -1.9100    3.8970 N   0  0  0  0  0  0  0  0  0  0  0  0
    3.2480   -0.1090    2.5120 O   0  0  0  0  0  0  0  0  0  0  0  0
    5.1330   -0.1000    0.2860 N   0  0  0  0  0  0  0  0  0  0  0  0
    6.3500   -0.0620   -0.4440 C   0  0  0  0  0  0  0  0  0  0  0  0
    6.6570   -0.9840   -1.2230 O   0  0  0  0  0  0  0  0  0  0  0  0
    7.2150    1.0910   -0.2460 C   0  0  0  0  0  0  0  0  0  0  0  0
    8.4420    1.1110   -0.8700 C   0  0  0  0  0  0  0  0  0  0  0  0
    9.3050    2.1800   -0.7410 C   0  0  0  0  0  0  0  0  0  0  0  0
    8.9250    3.2500    0.0320 C   0  0  0  0  0  0  0  0  0  0  0  0
    9.7550    4.3530    0.1880 C   0  0  0  0  0  0  0  0  0  0  0  0
    9.3790    5.4330    0.9540 C   0  0  0  0  0  0  0  0  0  0  0  0
    8.1370    5.4170    1.5860 C   0  0  0  0  0  0  0  0  0  0  0  0
    7.3330    4.3140    1.4180 C   0  0  0  0  0  0  0  0  0  0  0  0
    7.6870    3.2230    0.6570 C   0  0  0  0  0  0  0  0  0  0  0  0
    6.8850    2.1540    0.4960 N   0  0  0  0  0  0  0  0  0  0  0  0
  2  1  1  6
  2  3  1  0
  2  4  1  0
  2  5  1  0
  5  6  1  0
  6  7  2  0
  8  6  1  1
  8  9  1  0
  8 17  1  0
 10  9  1  1
 10 11  1  0
 10 15  1  0
 11 12  1  0
 12 13  1  0
 13 14  1  0
 15 14  1  1
 15 16  1  0
 16 17  1  0
 17 18  1  1
 18 19  1  0
 19 20  1  6
 19 21  1  0
 21 22  1  6
 21 29  1  0
 22 23  1  0
 23 24  2  0
 23 28  1  0
 24 25  1  0
 25 26  2  0
 26 27  1  0
 27 28  2  0
 29 30  1  0
 30 31  2  0
 30 32  1  0
 32 33  1  1
 32 37  1  0
 33 34  1  0
 34 35  1  0
 34 36  2  0
 37 38  1  0
 38 39  2  0
 38 40  1  0
 40 41  2  0
 40 49  1  0
 41 42  1  0
 42 43  2  0
 43 44  1  0
 43 48  1  0
 44 45  2  0
 45 46  1  0
 46 47  2  0
 47 48  1  0
 48 49  2  0
M  CHG  1  17   1
M  END
