
     RDKit          3D

 36 39  0  0  0  0  0  0  0  0999 V2000
   10.4670    0.4340    0.0780 C   0  0  0  0  0  0  0  0  0  0  0  0
    9.2280   -0.0400   -0.1210 C   0  0  0  0  0  0  0  0  0  0  0  0
    9.0630   -1.3940   -0.1960 O   0  0  0  0  0  0  0  0  0  0  0  0
    8.1390    0.8880   -0.2470 C   0  0  0  0  0  0  0  0  0  0  0  0
    6.8820    0.6690   -0.4400 C   0  0  0  0  0  0  0  0  0  0  0  0
    6.1290   -0.5390   -0.5970 C   0  0  0  0  0  0  0  0  0  0  0  0
    6.6570   -1.6610   -0.5680 O   0  0  0  0  0  0  0  0  0  0  0  0
    4.6420   -0.4390   -0.8040 C   0  0  0  0  0  0  0  0  0  0  0  0
    3.7750   -0.9960    0.0370 C   0  0  0  0  0  0  0  0  0  0  0  0
    2.4390   -0.8810   -0.1790 C   0  0  0  0  0  0  0  0  0  0  0  0
    1.2720   -1.3600    0.5230 C   0  0  0  0  0  0  0  0  0  0  0  0
    0.8390   -0.6530    1.6710 N   0  0  0  0  0  0  0  0  0  0  0  0
   -0.3110   -1.3460    2.2310 C   0  0  0  0  0  0  0  0  0  0  0  0
   -1.5850   -1.0320    1.5520 C   0  0  0  0  0  0  0  0  0  0  0  0
   -2.6680   -1.8350    1.8190 C   0  0  0  0  0  0  0  0  0  0  0  0
   -3.8630   -1.5740    1.2020 C   0  0  0  0  0  0  0  0  0  0  0  0
   -5.2320   -2.6340    1.5790 Cl  0  0  0  0  0  0  0  0  0  0  0  0
   -4.0190   -0.5160    0.3070 C   0  0  0  0  0  0  0  0  0  0  0  0
   -5.3040   -0.3240   -0.2680 N   0  0  0  0  0  0  0  0  0  0  0  0
   -5.6770    0.6340   -1.2160 C   0  0  0  0  0  0  0  0  0  0  0  0
   -4.8070    1.4290   -1.6520 O   0  0  0  0  0  0  0  0  0  0  0  0
   -7.0770    0.7690   -1.7580 C   0  0  0  0  0  0  0  0  0  0  0  0
   -7.3340    1.2160   -3.0120 C   0  0  0  0  0  0  0  0  0  0  0  0
   -8.5710    1.2840   -3.4780 C   0  0  0  0  0  0  0  0  0  0  0  0
   -9.5480    0.6690   -2.0580 S   0  0  0  0  0  0  0  0  0  0  0  0
   -8.1400    0.3970   -1.0060 C   0  0  0  0  0  0  0  0  0  0  0  0
   -8.3050   -0.1080    0.3810 C   0  0  0  0  0  0  0  0  0  0  0  0
   -2.9220    0.2690    0.0600 C   0  0  0  0  0  0  0  0  0  0  0  0
   -1.7090    0.0180    0.6750 C   0  0  0  0  0  0  0  0  0  0  0  0
   -0.5230    0.8350    0.4550 C   0  0  0  0  0  0  0  0  0  0  0  0
   -0.4410    1.5490   -0.5600 O   0  0  0  0  0  0  0  0  0  0  0  0
    0.5220    0.7290    1.5200 C   0  0  2  0  0  0  0  0  0  0  0  0
    1.6670    1.6600    1.3320 C   0  0  0  0  0  0  0  0  0  0  0  0
    2.3360    0.1300   -1.7540 S   0  0  0  0  0  0  0  0  0  0  0  0
    4.1580    0.2600   -1.9030 C   0  0  0  0  0  0  0  0  0  0  0  0
    4.9660    1.1150   -3.2030 Cl  0  0  0  0  0  0  0  0  0  0  0  0
  1  2  2  0
  2  3  1  0
  2  4  1  0
  4  5  2  3
  5  6  1  0
  6  7  2  0
  6  8  1  0
  8  9  1  0
  8 35  2  0
  9 10  2  0
 10 11  1  0
 10 34  1  0
 11 12  1  0
 12 13  1  0
 12 32  1  0
 13 14  1  0
 14 15  2  0
 14 29  1  0
 15 16  1  0
 16 17  1  0
 16 18  2  0
 18 19  1  0
 18 28  1  0
 19 20  1  0
 20 21  2  0
 20 22  1  0
 22 23  1  0
 22 26  2  0
 23 24  2  0
 24 25  1  0
 25 26  1  0
 26 27  1  0
 28 29  2  0
 29 30  1  0
 30 31  2  0
 30 32  1  0
 32 33  1  6
 34 35  1  0
 35 36  1  0
M  END
