
     RDKit          3D

 36 39  0  0  0  0  0  0  0  0999 V2000
   -1.1260    3.1290    2.1120 C   0  0  0  0  0  0  0  0  0  0  0  0
   -1.0110    1.9820    1.2690 O   0  0  0  0  0  0  0  0  0  0  0  0
    0.0870    1.7880    0.4670 C   0  0  0  0  0  0  0  0  0  0  0  0
    0.9620    2.6680    0.5270 O   0  0  0  0  0  0  0  0  0  0  0  0
    0.2030    0.5640   -0.4070 C   0  0  0  0  0  0  0  0  0  0  0  0
   -0.8100   -0.2750   -0.4810 C   0  0  0  0  0  0  0  0  0  0  0  0
   -2.2120   -0.3190   -0.2920 N   0  0  0  0  0  0  0  0  0  0  0  0
   -3.1640    0.6780   -0.3320 C   0  0  0  0  0  0  0  0  0  0  0  0
   -2.8720    1.8550   -0.6090 O   0  0  0  0  0  0  0  0  0  0  0  0
   -4.5990    0.3810   -0.0400 C   0  0  0  0  0  0  0  0  0  0  0  0
   -5.1790   -0.7770    0.2840 C   0  0  0  0  0  0  0  0  0  0  0  0
   -6.5050   -0.8220    0.5100 C   0  0  0  0  0  0  0  0  0  0  0  0
   -7.2100    0.3600    0.3920 C   0  0  0  0  0  0  0  0  0  0  0  0
   -5.9050    1.5130   -0.0490 S   0  0  0  0  0  0  0  0  0  0  0  0
   -8.6450    0.4960    0.6000 C   0  0  0  0  0  0  0  0  0  0  0  0
   -9.4380   -0.7010    0.1820 C   0  0  0  0  0  0  0  0  0  0  0  0
   -8.5740   -1.9080   -0.1010 C   0  0  0  0  0  0  0  0  0  0  0  0
   -7.4190   -1.9890    0.8900 C   0  0  0  0  0  0  0  0  0  0  0  0
   -0.0960   -1.7570   -1.4290 S   0  0  0  0  0  0  0  0  0  0  0  0
    1.5480   -0.9300   -1.5840 C   0  0  0  0  0  0  0  0  0  0  0  0
    2.5960   -1.5890   -2.3390 C   0  0  0  0  0  0  0  0  0  0  0  0
    3.6890   -1.0720   -2.5500 O   0  0  0  0  0  0  0  0  0  0  0  0
    1.4240    0.2690   -0.9560 C   0  0  0  0  0  0  0  0  0  0  0  0
    2.6050    1.1420   -0.9000 N   0  0  0  0  0  0  0  0  0  0  0  0
    2.8370    1.9530   -2.0560 C   0  0  0  0  0  0  0  0  0  0  0  0
    3.3940    1.2100    0.2490 C   0  0  0  0  0  0  0  0  0  0  0  0
    4.7530    0.6880    0.4030 C   0  0  0  0  0  0  0  0  0  0  0  0
    4.9900   -0.7750    0.4310 C   0  0  0  0  0  0  0  0  0  0  0  0
    6.4840   -0.9730    0.5900 C   0  0  0  0  0  0  0  0  0  0  0  0
    7.2320   -1.3160   -0.5170 C   0  0  0  0  0  0  0  0  0  0  0  0
    8.6080   -1.4990   -0.4040 C   0  0  0  0  0  0  0  0  0  0  0  0
    9.5660   -1.9330   -1.7970 Cl  0  0  0  0  0  0  0  0  0  0  0  0
    9.2580   -1.3450    0.8020 C   0  0  0  0  0  0  0  0  0  0  0  0
    8.4980   -1.0030    1.8970 C   0  0  0  0  0  0  0  0  0  0  0  0
    7.1140   -0.8140    1.8040 C   0  0  0  0  0  0  0  0  0  0  0  0
    6.1590   -0.3890    3.1980 Cl  0  0  0  0  0  0  0  0  0  0  0  0
  1  2  1  0
  2  3  1  0
  3  4  2  0
  3  5  1  0
  5  6  2  0
  5 23  1  0
  6  7  1  0
  6 19  1  0
  7  8  1  0
  8  9  2  0
  8 10  1  0
 10 11  2  0
 10 14  1  0
 11 12  1  0
 12 13  2  0
 12 18  1  0
 13 14  1  0
 13 15  1  0
 15 16  1  0
 16 17  1  0
 17 18  1  0
 19 20  1  0
 20 21  1  0
 20 23  2  0
 21 22  2  0
 23 24  1  0
 24 25  1  0
 24 26  1  0
 26 27  1  0
 27 28  1  0
 28 29  1  0
 29 30  2  0
 29 35  1  0
 30 31  1  0
 31 32  1  0
 31 33  2  0
 33 34  1  0
 34 35  2  0
 35 36  1  0
M  END
