
     RDKit          3D

 35 38  0  0  0  0  0  0  0  0999 V2000
    7.5230   -1.0760   -0.8530 C   0  0  0  0  0  0  0  0  0  0  0  0
    7.3180   -0.5490    0.4430 O   0  0  0  0  0  0  0  0  0  0  0  0
    6.0770   -0.0470    0.8110 C   0  0  0  0  0  0  0  0  0  0  0  0
    4.9840   -0.0230   -0.0230 C   0  0  0  0  0  0  0  0  0  0  0  0
    3.7500    0.4870    0.3760 C   0  0  0  0  0  0  0  0  0  0  0  0
    3.5800    0.9980    1.6500 C   0  0  0  0  0  0  0  0  0  0  0  0
    2.3250    1.5310    2.1170 C   0  0  0  0  0  0  0  0  0  0  0  0
    2.3300    2.3350    3.0850 O   0  0  0  0  0  0  0  0  0  0  0  0
    1.0790    1.1540    1.4910 C   0  0  0  0  0  0  0  0  0  0  0  0
    0.6770   -0.0360    0.9230 C   0  0  0  0  0  0  0  0  0  0  0  0
   -0.5600   -0.1200    0.3910 C   0  0  0  0  0  0  0  0  0  0  0  0
   -1.0640   -1.4180   -0.2330 C   0  0  0  0  0  0  0  0  0  0  0  0
   -0.0810   -2.4790   -0.2080 N   0  0  0  0  0  0  0  0  0  0  0  0
   -0.4110   -3.7800   -0.7330 C   0  0  0  0  0  0  0  0  0  0  0  0
   -1.6500   -4.0610   -1.2250 C   0  0  0  0  0  0  0  0  0  0  0  0
   -1.8810   -5.3490   -1.7150 C   0  0  0  0  0  0  0  0  0  0  0  0
   -0.8910   -6.3100   -1.7040 C   0  0  0  0  0  0  0  0  0  0  0  0
    0.3290   -6.0010   -1.2090 N   0  0  0  0  0  0  0  0  0  0  0  0
    0.5510   -4.7530   -0.7350 C   0  0  0  0  0  0  0  0  0  0  0  0
   -1.3800    0.9370    0.4150 C   0  0  0  0  0  0  0  0  0  0  0  0
   -2.6990    1.3100    0.0030 C   0  0  0  0  0  0  0  0  0  0  0  0
   -3.5580    0.5110   -0.6570 C   0  0  0  0  0  0  0  0  0  0  0  0
   -4.8500    0.9280   -1.0340 C   0  0  0  0  0  0  0  0  0  0  0  0
   -5.9190   -0.1580   -1.8890 Cl  0  0  0  0  0  0  0  0  0  0  0  0
   -5.2770    2.1830   -0.7350 C   0  0  0  0  0  0  0  0  0  0  0  0
   -6.8830    2.6960   -1.2070 Cl  0  0  0  0  0  0  0  0  0  0  0  0
   -4.4420    3.0210   -0.0720 C   0  0  0  0  0  0  0  0  0  0  0  0
   -4.9180    4.6350    0.3430 S   0  0  1  0  0  0  0  0  0  0  0  0
   -5.3350    5.6270   -1.0450 C   0  0  0  0  0  0  0  0  0  0  0  0
   -6.1590    4.5210    1.2210 O   0  0  0  0  0  0  0  0  0  0  0  0
   -3.8770    5.3140    1.1810 O   0  0  0  0  0  0  0  0  0  0  0  0
   -3.1680    2.5990    0.2970 C   0  0  0  0  0  0  0  0  0  0  0  0
   -0.3010    2.1700    1.2740 S   0  0  0  0  0  0  0  0  0  0  0  0
    4.6800    0.9740    2.4900 C   0  0  0  0  0  0  0  0  0  0  0  0
    5.8980    0.4690    2.0940 C   0  0  0  0  0  0  0  0  0  0  0  0
  1  2  1  0
  2  3  1  0
  3  4  2  0
  3 35  1  0
  4  5  1  0
  5  6  2  0
  6  7  1  0
  6 34  1  0
  7  8  2  0
  7  9  1  0
  9 10  2  0
  9 33  1  0
 10 11  1  0
 11 12  1  0
 11 20  2  0
 12 13  1  0
 13 14  1  0
 14 15  2  0
 14 19  1  0
 15 16  1  0
 16 17  2  0
 17 18  1  0
 18 19  2  0
 20 21  1  0
 20 33  1  0
 21 22  2  0
 21 32  1  0
 22 23  1  0
 23 24  1  0
 23 25  2  0
 25 26  1  0
 25 27  1  0
 27 28  1  0
 27 32  2  0
 28 29  1  6
 28 30  2  0
 28 31  2  0
 34 35  2  0
M  END
