
     RDKit          3D

 36 39  0  0  0  0  0  0  0  0999 V2000
   -5.4680    3.4170    0.5500 C   0  0  0  0  0  0  0  0  0  0  0  0
   -4.8540    2.6670    1.7190 C   0  0  0  0  0  0  0  0  0  0  0  0
   -3.8080    1.3340    1.3350 S   0  0  0  0  0  0  0  0  0  0  0  0
   -4.3110   -0.1150    0.5820 C   0  0  0  0  0  0  0  0  0  0  0  0
   -3.3290   -0.9310    0.1890 N   0  0  0  0  0  0  0  0  0  0  0  0
   -1.9630   -0.6030    0.3900 C   0  0  0  0  0  0  0  0  0  0  0  0
   -1.1290   -1.3560    1.1960 C   0  0  0  0  0  0  0  0  0  0  0  0
    0.2060   -1.0030    1.3670 C   0  0  0  0  0  0  0  0  0  0  0  0
    0.7360    0.1000    0.7440 C   0  0  0  0  0  0  0  0  0  0  0  0
    2.0570    0.4830    0.8910 O   0  0  0  0  0  0  0  0  0  0  0  0
    2.9500   -0.2380    1.7000 C   0  0  0  0  0  0  0  0  0  0  0  0
    4.3360    0.3440    1.7310 C   0  0  0  0  0  0  0  0  0  0  0  0
    4.9550    0.3870    0.4300 N   0  0  0  0  0  0  0  0  0  0  0  0
    4.5580    1.2170   -0.6790 C   0  0  0  0  0  0  0  0  0  0  0  0
    4.8050    0.3050   -1.8860 C   0  0  0  0  0  0  0  0  0  0  0  0
    6.0180   -0.4510   -1.4600 C   0  0  0  0  0  0  0  0  0  0  0  0
    6.9130   -1.0900   -2.1700 C   0  0  0  0  0  0  0  0  0  0  0  0
    8.2550   -1.9060   -1.4540 S   0  0  2  0  0  0  0  0  0  0  0  0
    9.5540   -1.3530   -1.9990 O   0  0  0  0  0  0  0  0  0  0  0  0
    8.1990   -3.3690   -1.8440 O   0  0  0  0  0  0  0  0  0  0  0  0
    8.1880   -1.7300    0.2910 C   0  0  0  0  0  0  0  0  0  0  0  0
    7.0230   -0.9370    0.7250 C   0  0  0  0  0  0  0  0  0  0  0  0
    6.0920   -0.3870   -0.0170 C   0  0  0  0  0  0  0  0  0  0  0  0
   -0.0770    0.8830   -0.0770 C   0  0  0  0  0  0  0  0  0  0  0  0
    0.4850    1.9880   -0.6910 O   0  0  0  0  0  0  0  0  0  0  0  0
   -0.2420    2.8200   -1.5180 C   0  0  0  0  0  0  0  0  0  0  0  0
   -1.3880    0.5090   -0.2250 C   0  0  0  0  0  0  0  0  0  0  0  0
   -5.6430   -0.6190    0.2370 C   0  0  0  0  0  0  0  0  0  0  0  0
   -6.7720    0.0630    0.6400 C   0  0  0  0  0  0  0  0  0  0  0  0
   -8.0280   -0.4150    0.3370 C   0  0  0  0  0  0  0  0  0  0  0  0
   -9.4520    0.4860    0.8690 Cl  0  0  0  0  0  0  0  0  0  0  0  0
   -8.1820   -1.5790   -0.3690 C   0  0  0  0  0  0  0  0  0  0  0  0
   -7.0750   -2.2800   -0.7830 C   0  0  0  0  0  0  0  0  0  0  0  0
   -7.2610   -3.7740   -1.6910 Cl  0  0  0  0  0  0  0  0  0  0  0  0
   -5.8050   -1.8080   -0.4850 C   0  0  0  0  0  0  0  0  0  0  0  0
   -4.6040   -2.5760   -0.9440 C   0  0  0  0  0  0  0  0  0  0  0  0
  1  2  1  0
  2  3  1  0
  3  4  1  0
  4  5  2  3
  4 28  1  0
  5  6  1  0
  6  7  2  0
  6 27  1  0
  7  8  1  0
  8  9  2  0
  9 10  1  0
  9 24  1  0
 10 11  1  0
 11 12  1  0
 12 13  1  0
 13 14  1  0
 13 23  1  0
 14 15  1  0
 15 16  1  0
 16 17  2  0
 16 23  1  0
 17 18  1  0
 18 19  2  0
 18 20  2  0
 18 21  1  1
 21 22  1  0
 22 23  2  0
 24 25  1  0
 24 27  2  0
 25 26  1  0
 28 29  2  0
 28 35  1  0
 29 30  1  0
 30 31  1  0
 30 32  2  0
 32 33  1  0
 33 34  1  0
 33 35  2  0
 35 36  1  0
M  END
