
     RDKit          3D

 25 28  0  0  0  0  0  0  0  0999 V2000
    5.3350    0.8040   -2.1940 O   0  0  0  0  0  0  0  0  0  0  0  0
    5.1790    0.3390   -1.0480 C   0  0  0  0  0  0  0  0  0  0  0  0
    6.2920    0.1080   -0.1970 N   0  0  0  0  0  0  0  0  0  0  0  0
    6.2270   -0.7370    0.9520 C   0  0  0  0  0  0  0  0  0  0  0  0
    4.9050   -0.7410    1.6380 C   0  0  0  0  0  0  0  0  0  0  0  0
    3.7590   -0.4920    0.7350 C   0  0  0  0  0  0  0  0  0  0  0  0
    2.4920   -0.7940    1.2060 C   0  0  0  0  0  0  0  0  0  0  0  0
    1.3500   -0.6000    0.4460 C   0  0  0  0  0  0  0  0  0  0  0  0
    1.4510   -0.0900   -0.8310 C   0  0  0  0  0  0  0  0  0  0  0  0
    0.3350    0.1410   -1.6650 N   0  0  0  0  0  0  0  0  0  0  0  0
   -1.0380   -0.0630   -1.2180 C   0  0  0  0  0  0  0  0  0  0  0  0
   -1.3940    0.8340   -0.1180 C   0  0  0  0  0  0  0  0  0  0  0  0
   -0.4810    1.6660    0.2480 O   0  0  0  0  0  0  0  0  0  0  0  0
   -2.6430    0.8080    0.5220 N   0  0  0  0  0  0  0  0  0  0  0  0
   -2.9460    1.7020    1.6360 C   0  0  0  0  0  0  0  0  0  0  0  0
   -4.2190    1.7120    1.8470 N   0  0  0  0  0  0  0  0  0  0  0  0
   -4.8780    0.8340    0.8960 C   0  0  0  0  0  0  0  0  0  0  0  0
   -6.1210    0.5280    0.6520 C   0  0  0  0  0  0  0  0  0  0  0  0
   -6.5010   -0.3810   -0.4050 C   0  0  0  0  0  0  0  0  0  0  0  0
   -7.8090   -0.6950   -0.5990 F   0  0  0  0  0  0  0  0  0  0  0  0
   -5.5700   -0.8970   -1.1710 C   0  0  0  0  0  0  0  0  0  0  0  0
   -4.1100   -0.5480   -0.9920 C   0  0  0  0  0  0  0  0  0  0  0  0
   -3.7740   -0.0120    0.3130 C   0  0  1  0  0  0  0  0  0  0  0  0
    2.7090    0.2120   -1.3030 C   0  0  0  0  0  0  0  0  0  0  0  0
    3.8560    0.0170   -0.5370 C   0  0  0  0  0  0  0  0  0  0  0  0
  1  2  2  0
  2  3  1  0
  2 25  1  0
  3  4  1  0
  4  5  1  0
  5  6  1  0
  6  7  2  0
  6 25  1  0
  7  8  1  0
  8  9  2  0
  9 10  1  0
  9 24  1  0
 10 11  1  0
 11 12  1  0
 12 13  2  0
 12 14  1  0
 14 15  1  0
 14 23  1  0
 15 16  2  0
 16 17  1  0
 17 18  2  0
 17 23  1  0
 18 19  1  0
 19 20  1  0
 19 21  2  0
 21 22  1  0
 23 22  1  6
 24 25  2  0
M  END
