
     RDKit          3D

 25 28  0  0  0  0  0  0  0  0999 V2000
    7.1300    0.0910   -0.0620 O   0  0  0  0  0  0  0  0  0  0  0  0
    6.6770   -0.8780   -0.7010 C   0  0  0  0  0  0  0  0  0  0  0  0
    5.2820   -1.0470   -0.7960 N   0  0  0  0  0  0  0  0  0  0  0  0
    4.2730   -0.2320   -0.2420 C   0  0  0  0  0  0  0  0  0  0  0  0
    4.5130    0.8810    0.4940 C   0  0  0  0  0  0  0  0  0  0  0  0
    3.4180    1.6010    0.9860 C   0  0  0  0  0  0  0  0  0  0  0  0
    2.1250    1.1590    0.7080 C   0  0  0  0  0  0  0  0  0  0  0  0
    1.9110    0.0260   -0.0420 C   0  0  0  0  0  0  0  0  0  0  0  0
    0.5580   -0.4650   -0.3530 C   0  0  0  0  0  0  0  0  0  0  0  0
    0.3870   -1.6070   -1.1090 C   0  0  0  0  0  0  0  0  0  0  0  0
   -0.8580   -2.1050   -1.4260 C   0  0  0  0  0  0  0  0  0  0  0  0
   -1.9350   -1.3820   -0.9320 C   0  0  0  0  0  0  0  0  0  0  0  0
   -3.1940   -1.8330   -1.2170 C   0  0  0  0  0  0  0  0  0  0  0  0
   -4.2890   -1.1190   -0.7290 C   0  0  0  0  0  0  0  0  0  0  0  0
   -4.1140    0.0220    0.0270 C   0  0  0  0  0  0  0  0  0  0  0  0
   -5.1950    0.7200    0.5040 C   0  0  0  0  0  0  0  0  0  0  0  0
   -5.0370    1.8640    1.2620 C   0  0  0  0  0  0  0  0  0  0  0  0
   -6.0730    2.4660    1.6750 O   0  0  0  0  0  0  0  0  0  0  0  0
   -3.7960    2.2920    1.5320 N   0  0  0  0  0  0  0  0  0  0  0  0
   -2.7150    1.6090    1.0650 C   0  0  0  0  0  0  0  0  0  0  0  0
   -1.4720    2.0770    1.3610 F   0  0  0  0  0  0  0  0  0  0  0  0
   -2.8630    0.4710    0.3100 C   0  0  0  0  0  0  0  0  0  0  0  0
   -1.7700   -0.2470   -0.1800 C   0  0  0  0  0  0  0  0  0  0  0  0
   -0.5320    0.1840    0.0920 N   0  0  0  0  0  0  0  0  0  0  0  0
    2.9740   -0.6370   -0.4960 N   0  0  0  0  0  0  0  0  0  0  0  0
  1  2  2  0
  2  3  1  0
  3  4  1  0
  4  5  2  0
  4 25  1  0
  5  6  1  0
  6  7  2  0
  7  8  1  0
  8  9  1  0
  8 25  2  0
  9 10  2  0
  9 24  1  0
 10 11  1  0
 11 12  2  0
 12 13  1  0
 12 23  1  0
 13 14  2  0
 14 15  1  0
 15 16  2  0
 15 22  1  0
 16 17  1  0
 17 18  2  0
 17 19  1  0
 19 20  1  0
 20 21  1  0
 20 22  2  0
 22 23  1  0
 23 24  2  0
M  END
