
     RDKit          3D

 25 28  0  0  0  0  0  0  0  0999 V2000
    2.1550   -1.4120   -1.9150 O   0  0  0  0  0  0  0  0  0  0  0  0
    2.0310   -1.0740   -0.6860 C   0  0  0  0  0  0  0  0  0  0  0  0
    0.7190   -1.3020   -0.1100 C   0  0  0  0  0  0  0  0  0  0  0  0
    0.4820   -1.0030    1.1750 F   0  0  0  0  0  0  0  0  0  0  0  0
   -0.2770   -1.8280   -0.8410 C   0  0  0  0  0  0  0  0  0  0  0  0
   -1.5640   -2.0430   -0.2480 C   0  0  0  0  0  0  0  0  0  0  0  0
   -1.9920   -3.3420    0.1180 C   0  0  0  0  0  0  0  0  0  0  0  0
   -3.2180   -3.1850    0.6130 N   0  0  0  0  0  0  0  0  0  0  0  0
   -3.5830   -1.8650    0.5780 C   0  0  0  0  0  0  0  0  0  0  0  0
   -4.7220   -1.2630    0.9600 N   0  0  0  0  0  0  0  0  0  0  0  0
   -4.8340    0.0540    0.8010 C   0  0  0  0  0  0  0  0  0  0  0  0
   -5.8930    0.6700    1.1470 O   0  0  0  0  0  0  0  0  0  0  0  0
   -3.8110    0.8360    0.2510 C   0  0  0  0  0  0  0  0  0  0  0  0
   -2.6440    0.2550   -0.1420 C   0  0  0  0  0  0  0  0  0  0  0  0
   -2.5420   -1.1490    0.0360 C   0  0  0  0  0  0  0  0  0  0  0  0
   -1.5510    1.0160   -0.6780 C   0  0  0  0  0  0  0  0  0  0  0  0
   -1.8210    2.4150   -1.0410 C   0  0  0  0  0  0  0  0  0  0  0  0
   -3.1000    2.9390   -0.5650 C   0  0  0  0  0  0  0  0  0  0  0  0
   -4.0640    2.2750    0.0350 C   0  0  0  0  0  0  0  0  0  0  0  0
    3.1620   -0.5340   -0.0700 N   0  0  0  0  0  0  0  0  0  0  0  0
    4.4010   -0.3930   -0.8620 C   0  0  0  0  0  0  0  0  0  0  0  0
    5.3470    0.5320   -0.1720 C   0  0  0  0  0  0  0  0  0  0  0  0
    4.6960    1.7110    0.3660 N   0  0  0  0  0  0  0  0  0  0  0  0
    3.6270    1.4040    1.2560 C   0  0  0  0  0  0  0  0  0  0  0  0
    3.2650   -0.0770    1.2810 C   0  0  0  0  0  0  0  0  0  0  0  0
  1  2  2  0
  2  3  1  0
  2 20  1  0
  3  4  1  0
  3  5  2  3
  5  6  1  0
  6  7  2  0
  6 15  1  0
  7  8  1  0
  8  9  1  0
  9 10  1  0
  9 15  2  0
 10 11  1  0
 11 12  2  0
 11 13  1  0
 13 14  2  0
 13 19  1  0
 14 15  1  0
 14 16  1  0
 16 17  1  0
 17 18  1  0
 18 19  2  0
 20 21  1  0
 20 25  1  0
 21 22  1  0
 22 23  1  0
 23 24  1  0
 24 25  1  0
M  END
