
     RDKit          3D

 25 28  0  0  0  0  0  0  0  0999 V2000
    1.6710    1.5910    2.7000 O   0  0  0  0  0  0  0  0  0  0  0  0
    0.7660    0.9300    2.0930 C   0  0  0  0  0  0  0  0  0  0  0  0
   -0.4230    1.4960    1.8170 N   0  0  0  0  0  0  0  0  0  0  0  0
   -1.4090    0.8510    1.1820 C   0  0  0  0  0  0  0  0  0  0  0  0
   -1.2350   -0.4490    0.7810 C   0  0  0  0  0  0  0  0  0  0  0  0
   -0.0090   -1.0560    1.0580 C   0  0  0  0  0  0  0  0  0  0  0  0
    0.9920   -0.3730    1.7120 C   0  0  0  0  0  0  0  0  0  0  0  0
    2.2610   -0.9810    2.0270 C   0  0  0  0  0  0  0  0  0  0  0  0
    3.3500   -1.0120    1.3330 C   0  0  0  0  0  0  0  0  0  0  0  0
    4.4960   -1.6250    1.7460 N   0  0  0  0  0  0  0  0  0  0  0  0
    5.4300   -1.4770    0.8060 C   0  0  0  0  0  0  0  0  0  0  0  0
    4.8850   -0.7670   -0.2170 N   0  0  0  0  0  0  0  0  0  0  0  0
    5.4120   -0.3600   -1.3860 C   0  0  0  0  0  0  0  0  0  0  0  0
    6.6060   -0.6330   -1.6780 O   0  0  0  0  0  0  0  0  0  0  0  0
    4.6370    0.3590   -2.2660 C   0  0  0  0  0  0  0  0  0  0  0  0
    3.3300    0.6690   -1.9700 C   0  0  0  0  0  0  0  0  0  0  0  0
    2.7990    0.2390   -0.7530 C   0  0  0  0  0  0  0  0  0  0  0  0
    3.5910   -0.4710    0.0980 C   0  0  0  0  0  0  0  0  0  0  0  0
   -2.2750   -1.1600    0.1010 N   0  0  0  0  0  0  0  0  0  0  0  0
   -3.6280   -0.6060   -0.0000 C   0  0  2  0  0  0  0  0  0  0  0  0
   -3.8310   -0.1190   -1.3920 C   0  0  0  0  0  0  0  0  0  0  0  0
   -5.1710    0.4810   -1.6650 C   0  0  0  0  0  0  0  0  0  0  0  0
   -5.3950    1.5660   -0.8590 F   0  0  0  0  0  0  0  0  0  0  0  0
   -3.7790    0.4200    1.0730 C   0  0  0  0  0  0  0  0  0  0  0  0
   -2.7110    1.4900    0.8860 C   0  0  0  0  0  0  0  0  0  0  0  0
  1  2  2  0
  2  3  1  0
  2  7  1  0
  3  4  1  0
  4  5  2  0
  4 25  1  0
  5  6  1  0
  5 19  1  0
  6  7  2  0
  7  8  1  0
  8  9  2  3
  9 10  1  0
  9 18  1  0
 10 11  2  0
 11 12  1  0
 12 13  1  0
 12 18  1  0
 13 14  2  0
 13 15  1  0
 15 16  2  0
 16 17  1  0
 17 18  2  0
 19 20  1  0
 20 21  1  6
 20 24  1  0
 21 22  1  0
 22 23  1  0
 24 25  1  0
M  END
