
     RDKit          3D

 25 28  0  0  0  0  0  0  0  0999 V2000
   -1.6450   -2.0930   -2.2840 O   0  0  0  0  0  0  0  0  0  0  0  0
   -2.2630   -1.3080   -1.5280 C   0  0  0  0  0  0  0  0  0  0  0  0
   -3.6840   -1.0540   -1.7550 C   0  0  0  0  0  0  0  0  0  0  0  0
   -4.2520   -0.1380   -0.8140 N   0  0  0  0  0  0  0  0  0  0  0  0
   -4.3260    1.3020   -0.9430 C   0  0  0  0  0  0  0  0  0  0  0  0
   -4.6780    1.8340    0.4160 C   0  0  0  0  0  0  0  0  0  0  0  0
   -5.4880    0.7180    1.0180 C   0  0  0  0  0  0  0  0  0  0  0  0
   -4.8510   -0.4900    0.4270 C   0  0  0  0  0  0  0  0  0  0  0  0
   -4.8790   -1.6200    0.9990 O   0  0  0  0  0  0  0  0  0  0  0  0
   -1.5750   -0.6790   -0.4630 N   0  0  0  0  0  0  0  0  0  0  0  0
   -0.1970   -0.8870   -0.1940 C   0  0  0  0  0  0  0  0  0  0  0  0
    0.6160    0.1670   -0.2310 C   0  0  0  0  0  0  0  0  0  0  0  0
    2.0660    0.1990    0.0100 C   0  0  0  0  0  0  0  0  0  0  0  0
    2.6040    1.2730   -0.5770 C   0  0  0  0  0  0  0  0  0  0  0  0
    4.0500    1.4760   -0.4460 C   0  0  0  0  0  0  0  0  0  0  0  0
    4.8520    2.4290   -0.9050 N   0  0  0  0  0  0  0  0  0  0  0  0
    6.1000    2.1630   -0.5080 C   0  0  0  0  0  0  0  0  0  0  0  0
    6.0970    1.0010    0.2270 C   0  0  0  0  0  0  0  0  0  0  0  0
    4.7910    0.5730    0.2610 C   0  0  0  0  0  0  0  0  0  0  0  0
    4.2440   -0.6240    0.9140 C   0  0  0  0  0  0  0  0  0  0  0  0
    2.8030   -0.7500    0.7530 N   0  0  0  0  0  0  0  0  0  0  0  0
    2.3240   -1.9300    1.4460 C   0  0  0  0  0  0  0  0  0  0  0  0
    1.2260   -2.6370    0.7820 C   0  0  0  0  0  0  0  0  0  0  0  0
    1.3100   -3.9970    0.8920 F   0  0  0  0  0  0  0  0  0  0  0  0
    0.1730   -2.2500    0.0990 C   0  0  0  0  0  0  0  0  0  0  0  0
  1  2  2  0
  2  3  1  0
  2 10  1  0
  3  4  1  0
  4  5  1  0
  4  8  1  0
  5  6  1  0
  6  7  1  0
  7  8  1  0
  8  9  2  0
 10 11  1  0
 11 12  2  0
 11 25  1  0
 12 13  1  0
 13 14  2  0
 13 21  1  0
 14 15  1  0
 15 16  1  0
 15 19  2  0
 16 17  1  0
 17 18  2  0
 18 19  1  0
 19 20  1  0
 20 21  1  0
 21 22  1  0
 22 23  1  0
 23 24  1  0
 23 25  2  0
M  END
