
     RDKit          3D

 35 39  0  0  0  0  0  0  0  0999 V2000
    0.9410   -2.3310    3.0380 C   0  0  0  0  0  0  0  0  0  0  0  0
    0.9740   -2.1440    1.5250 C   0  0  1  0  0  0  0  0  0  0  0  0
   -0.1980   -1.3120    1.2110 N   0  0  0  0  0  0  0  0  0  0  0  0
   -1.2720   -1.7850    0.4530 C   0  0  0  0  0  0  0  0  0  0  0  0
   -1.1450   -3.0060    0.0550 O   0  0  0  0  0  0  0  0  0  0  0  0
   -2.4760   -1.0720    0.0780 C   0  0  0  0  0  0  0  0  0  0  0  0
   -3.5090   -1.5920   -0.7230 C   0  0  0  0  0  0  0  0  0  0  0  0
   -4.4720   -0.6690   -0.8780 N   0  0  0  0  0  0  0  0  0  0  0  0
   -5.6890   -0.7840   -1.6120 C   0  0  0  0  0  0  0  0  0  0  0  0
   -6.7260   -1.5930   -1.2170 C   0  0  0  0  0  0  0  0  0  0  0  0
   -7.8990   -1.6950   -1.9370 C   0  0  0  0  0  0  0  0  0  0  0  0
   -8.0680   -0.9780   -3.0890 C   0  0  0  0  0  0  0  0  0  0  0  0
   -9.2310   -1.0760   -3.8050 F   0  0  0  0  0  0  0  0  0  0  0  0
   -7.0330   -0.1460   -3.5160 C   0  0  0  0  0  0  0  0  0  0  0  0
   -5.8530   -0.0600   -2.7690 C   0  0  0  0  0  0  0  0  0  0  0  0
   -4.0920    0.4030   -0.2110 N   0  0  0  0  0  0  0  0  0  0  0  0
   -2.8930    0.1940    0.3770 C   0  0  0  0  0  0  0  0  0  0  0  0
   -2.1820    1.2130    1.2100 C   0  0  0  0  0  0  0  0  0  0  0  0
   -3.0250    2.4180    1.2430 N   0  0  1  0  0  0  0  0  0  0  0  0
   -2.9620    3.0080    2.5610 C   0  0  0  0  0  0  0  0  0  0  0  0
   -2.6590    3.3210    0.1890 C   0  0  0  0  0  0  0  0  0  0  0  0
    2.2240   -1.4800    1.1130 C   0  0  0  0  0  0  0  0  0  0  0  0
    2.4470   -0.1460    1.3810 C   0  0  0  0  0  0  0  0  0  0  0  0
    3.6240    0.4790    0.9930 C   0  0  0  0  0  0  0  0  0  0  0  0
    4.5590   -0.2280    0.3460 N   0  0  0  0  0  0  0  0  0  0  0  0
    4.3990   -1.5400    0.0530 C   0  0  0  0  0  0  0  0  0  0  0  0
    3.2160   -2.1620    0.4450 C   0  0  0  0  0  0  0  0  0  0  0  0
    5.5310   -1.9570   -0.6070 C   0  0  0  0  0  0  0  0  0  0  0  0
    6.3890   -0.9040   -0.7220 C   0  0  0  0  0  0  0  0  0  0  0  0
    7.6390   -0.6990   -1.2630 C   0  0  0  0  0  0  0  0  0  0  0  0
    8.2620    0.5260   -1.2170 C   0  0  0  0  0  0  0  0  0  0  0  0
    7.6530    1.6150   -0.6180 C   0  0  0  0  0  0  0  0  0  0  0  0
    8.2870    2.8890   -0.5620 N   0  0  0  0  0  0  0  0  0  0  0  0
    6.4020    1.4010   -0.0790 C   0  0  0  0  0  0  0  0  0  0  0  0
    5.7690    0.1830   -0.1180 C   0  0  0  0  0  0  0  0  0  0  0  0
  2  1  1  1
  2  3  1  0
  2 22  1  0
  3  4  1  0
  4  5  2  0
  4  6  1  0
  6  7  2  0
  6 17  1  0
  7  8  1  0
  8  9  1  0
  8 16  1  0
  9 10  2  0
  9 15  1  0
 10 11  1  0
 11 12  2  0
 12 13  1  0
 12 14  1  0
 14 15  2  0
 16 17  2  0
 17 18  1  0
 18 19  1  0
 19 20  1  1
 19 21  1  0
 22 23  1  0
 22 27  2  0
 23 24  2  0
 24 25  1  0
 25 26  1  0
 25 35  1  0
 26 27  1  0
 26 28  2  0
 28 29  1  0
 29 30  2  0
 29 35  1  0
 30 31  1  0
 31 32  2  0
 32 33  1  0
 32 34  1  0
 34 35  2  0
M  CHG  1  19   1
M  END
