
     RDKit          3D

 35 39  0  0  0  0  0  0  0  0999 V2000
    6.1720   -1.0460   -2.6090 C   0  0  0  0  0  0  0  0  0  0  0  0
    5.7070    0.3790   -2.3480 C   0  0  0  0  0  0  0  0  0  0  0  0
    4.8420    0.3430   -1.1370 C   0  0  0  0  0  0  0  0  0  0  0  0
    3.5120    0.4310   -1.3030 N   0  0  0  0  0  0  0  0  0  0  0  0
    2.6890    0.3990   -0.2270 C   0  0  0  0  0  0  0  0  0  0  0  0
    1.3480    0.4880   -0.3950 N   0  0  0  0  0  0  0  0  0  0  0  0
    0.4650    0.4660    0.6030 C   0  0  0  0  0  0  0  0  0  0  0  0
   -0.9500    0.5620    0.4090 N   0  0  0  0  0  0  0  0  0  0  0  0
   -1.4590    0.0430   -0.6290 N   0  0  0  0  0  0  0  0  0  0  0  0
   -2.8240    0.1320   -0.8220 N   0  0  0  0  0  0  0  0  0  0  0  0
   -3.3270    1.3380   -1.5090 C   0  0  0  0  0  0  0  0  0  0  0  0
   -4.3010    1.9520   -0.4770 C   0  0  0  0  0  0  0  0  0  0  0  0
   -5.4140    1.0020   -0.3320 C   0  0  0  0  0  0  0  0  0  0  0  0
   -6.6930    1.2470   -0.3380 C   0  0  0  0  0  0  0  0  0  0  0  0
   -7.4830    2.4590   -0.4780 C   0  0  1  0  0  0  0  0  0  0  0  0
   -8.3810    2.5980    0.6080 F   0  0  0  0  0  0  0  0  0  0  0  0
   -6.8160    3.7650   -0.7200 C   0  0  0  0  0  0  0  0  0  0  0  0
   -7.8990    4.7180   -0.8020 O   0  0  0  0  0  0  0  0  0  0  0  0
   -4.9980   -0.4150   -0.1410 C   0  0  0  0  0  0  0  0  0  0  0  0
   -3.7720   -0.8370   -0.3730 C   0  0  0  0  0  0  0  0  0  0  0  0
   -3.3650   -2.2220   -0.1660 C   0  0  0  0  0  0  0  0  0  0  0  0
   -4.2560   -3.0940    0.4200 C   0  0  0  0  0  0  0  0  0  0  0  0
   -3.8980   -4.4360    0.6010 C   0  0  0  0  0  0  0  0  0  0  0  0
   -2.6870   -4.9270    0.2150 C   0  0  0  0  0  0  0  0  0  0  0  0
   -1.7920   -4.0730   -0.3700 C   0  0  0  0  0  0  0  0  0  0  0  0
   -2.1470   -2.7320   -0.5510 C   0  0  0  0  0  0  0  0  0  0  0  0
    0.9800    0.3410    1.8820 C   0  0  0  0  0  0  0  0  0  0  0  0
    2.3300    0.2460    2.1170 C   0  0  0  0  0  0  0  0  0  0  0  0
    3.1870    0.2760    1.0430 C   0  0  0  0  0  0  0  0  0  0  0  0
    4.5520    0.1830    1.2530 C   0  0  0  0  0  0  0  0  0  0  0  0
    5.3700    0.2190    0.1350 C   0  0  0  0  0  0  0  0  0  0  0  0
    6.8590    0.1270    0.2260 C   0  0  0  0  0  0  0  0  0  0  0  0
    7.2720    0.3110    1.6890 C   0  0  0  0  0  0  0  0  0  0  0  0
    6.4260   -0.5440    2.4800 N   0  0  0  0  0  0  0  0  0  0  0  0
    5.0920    0.0450    2.6470 C   0  0  0  0  0  0  0  0  0  0  0  0
  1  2  1  0
  2  3  1  0
  3  4  2  0
  3 31  1  0
  4  5  1  0
  5  6  2  0
  5 29  1  0
  6  7  1  0
  7  8  1  0
  7 27  2  0
  8  9  2  3
  9 10  1  0
 10 11  1  0
 10 20  1  0
 11 12  1  0
 12 13  1  0
 13 14  2  3
 13 19  1  0
 14 15  1  0
 15 16  1  1
 15 17  1  0
 17 18  1  0
 19 20  2  0
 20 21  1  0
 21 22  2  0
 21 26  1  0
 22 23  1  0
 23 24  2  0
 24 25  1  0
 25 26  2  0
 27 28  1  0
 28 29  2  0
 29 30  1  0
 30 31  2  0
 30 35  1  0
 31 32  1  0
 32 33  1  0
 33 34  1  0
 34 35  1  0
M  CHG  1  34   1
M  END
