
     RDKit          3D

 35 39  0  0  0  0  0  0  0  0999 V2000
   -7.8850    1.0920    0.4600 C   0  0  0  0  0  0  0  0  0  0  0  0
   -6.5030    1.5490    0.8860 C   0  0  0  0  0  0  0  0  0  0  0  0
   -6.3490    2.5960    1.7540 C   0  0  0  0  0  0  0  0  0  0  0  0
   -5.1010    3.0240    2.1620 C   0  0  0  0  0  0  0  0  0  0  0  0
   -4.0240    2.3470    1.6530 C   0  0  0  0  0  0  0  0  0  0  0  0
   -2.7800    2.7650    2.0560 F   0  0  0  0  0  0  0  0  0  0  0  0
   -4.1330    1.2690    0.7600 C   0  0  0  0  0  0  0  0  0  0  0  0
   -2.9560    0.6170    0.3160 N   0  0  0  0  0  0  0  0  0  0  0  0
   -2.7250   -0.3460   -0.6970 C   0  0  2  0  0  0  0  0  0  0  0  0
   -1.2330   -0.7120   -0.4940 C   0  0  0  0  0  0  0  0  0  0  0  0
   -0.7140   -1.5300    0.3890 N   0  0  0  0  0  0  0  0  0  0  0  0
    0.6530   -1.5240    0.3000 C   0  0  0  0  0  0  0  0  0  0  0  0
    1.5340   -2.3650    1.1390 C   0  0  0  0  0  0  0  0  0  0  0  0
    1.0130   -0.6660   -0.6800 C   0  0  0  0  0  0  0  0  0  0  0  0
    2.2280   -0.1380   -1.1830 C   0  0  0  0  0  0  0  0  0  0  0  0
    3.4520   -0.0310   -0.9170 C   0  0  0  0  0  0  0  0  0  0  0  0
    4.2570   -0.4770    0.1790 C   0  0  0  0  0  0  0  0  0  0  0  0
    5.5630   -0.2650    0.3390 C   0  0  0  0  0  0  0  0  0  0  0  0
    6.1370   -0.8080    1.4920 C   0  0  0  0  0  0  0  0  0  0  0  0
    5.3070   -1.6340    2.4150 C   0  0  0  0  0  0  0  0  0  0  0  0
    7.4380   -0.5820    1.7350 N   0  0  0  0  0  0  0  0  0  0  0  0
    8.2010    0.1480    0.9070 C   0  0  0  0  0  0  0  0  0  0  0  0
    9.5130    0.5210    0.9210 N   0  0  0  0  0  0  0  0  0  0  0  0
    9.7450    1.2600   -0.1690 C   0  0  0  0  0  0  0  0  0  0  0  0
    8.5680    1.3700   -0.9050 C   0  0  0  0  0  0  0  0  0  0  0  0
    7.6430    0.6730   -0.2090 N   0  0  0  0  0  0  0  0  0  0  0  0
    6.3170    0.4740   -0.5090 C   0  0  0  0  0  0  0  0  0  0  0  0
    5.8970    1.0150   -1.5870 O   0  0  0  0  0  0  0  0  0  0  0  0
   -0.2130   -0.1720   -1.1600 N   0  0  0  0  0  0  0  0  0  0  0  0
   -2.6930    0.2630   -2.0870 C   0  0  0  0  0  0  0  0  0  0  0  0
   -4.0040    0.3950   -2.7640 C   0  0  0  0  0  0  0  0  0  0  0  0
   -4.8050   -0.8760   -2.7920 C   0  0  0  0  0  0  0  0  0  0  0  0
   -4.3110   -1.9480   -1.8980 C   0  0  0  0  0  0  0  0  0  0  0  0
   -3.4790   -1.5970   -0.7200 C   0  0  0  0  0  0  0  0  0  0  0  0
   -5.4000    0.8890    0.3910 C   0  0  0  0  0  0  0  0  0  0  0  0
  1  2  1  0
  2  3  2  0
  2 35  1  0
  3  4  1  0
  4  5  2  0
  5  6  1  0
  5  7  1  0
  7  8  1  0
  7 35  2  0
  9  8  1  1
  9 10  1  0
  9 30  1  0
  9 34  1  0
 10 11  2  0
 10 29  1  0
 11 12  1  0
 12 13  1  0
 12 14  2  0
 14 15  1  0
 14 29  1  0
 15 16  2  3
 16 17  1  0
 17 18  2  3
 18 19  1  0
 18 27  1  0
 19 20  1  0
 19 21  2  0
 21 22  1  0
 22 23  2  0
 22 26  1  0
 23 24  1  0
 24 25  2  0
 25 26  1  0
 26 27  1  0
 27 28  2  0
 30 31  1  0
 31 32  1  0
 32 33  1  0
 33 34  1  0
M  CHG  1  23   1
M  END
