
     RDKit          3D

 35 39  0  0  0  0  0  0  0  0999 V2000
   -2.8650   -2.4990    1.4960 C   0  0  0  0  0  0  0  0  0  0  0  0
   -1.8260   -1.6270    0.8930 C   0  0  0  0  0  0  0  0  0  0  0  0
   -0.4970   -1.8300    1.2650 C   0  0  0  0  0  0  0  0  0  0  0  0
    0.5100   -1.0740    0.7570 C   0  0  0  0  0  0  0  0  0  0  0  0
    0.2160   -0.0820   -0.1480 C   0  0  0  0  0  0  0  0  0  0  0  0
    1.2950    0.6870   -0.6570 N   0  0  0  0  0  0  0  0  0  0  0  0
    2.4580    0.0360   -1.0700 N   0  0  0  0  0  0  0  0  0  0  0  0
    3.4650   -0.1940   -0.3130 C   0  0  0  0  0  0  0  0  0  0  0  0
    4.6360   -0.8780   -0.8270 C   0  0  0  0  0  0  0  0  0  0  0  0
    4.8150   -1.3500   -2.1300 C   0  0  0  0  0  0  0  0  0  0  0  0
    6.0160   -1.9290   -2.2430 N   0  0  0  0  0  0  0  0  0  0  0  0
    6.6510   -1.8600   -1.0530 C   0  0  0  0  0  0  0  0  0  0  0  0
    7.8990   -2.2990   -0.6310 C   0  0  0  0  0  0  0  0  0  0  0  0
    8.3010   -2.0940    0.6600 C   0  0  0  0  0  0  0  0  0  0  0  0
    7.4670   -1.4500    1.5470 C   0  0  0  0  0  0  0  0  0  0  0  0
    6.2320   -1.0140    1.1330 C   0  0  0  0  0  0  0  0  0  0  0  0
    5.4070   -0.3820    1.9940 F   0  0  0  0  0  0  0  0  0  0  0  0
    5.8060   -1.2150   -0.1810 C   0  0  0  0  0  0  0  0  0  0  0  0
    1.2530    2.1000   -0.7700 C   0  0  0  0  0  0  0  0  0  0  0  0
    0.7700    2.8670    0.2620 C   0  0  0  0  0  0  0  0  0  0  0  0
    0.7100    4.2480    0.1940 C   0  0  0  0  0  0  0  0  0  0  0  0
    1.1420    4.8850   -0.9330 C   0  0  0  0  0  0  0  0  0  0  0  0
    1.6260    4.1410   -1.9700 C   0  0  0  0  0  0  0  0  0  0  0  0
    1.6890    2.7460   -1.9070 C   0  0  0  0  0  0  0  0  0  0  0  0
   -1.0910    0.1110   -0.5080 C   0  0  0  0  0  0  0  0  0  0  0  0
   -2.1460   -0.6400   -0.0120 C   0  0  0  0  0  0  0  0  0  0  0  0
   -3.4850   -0.4010   -0.4160 N   0  0  0  0  0  0  0  0  0  0  0  0
   -4.1470   -1.1810   -1.4040 C   0  0  0  0  0  0  0  0  0  0  0  0
   -3.8010   -2.3080   -1.8960 O   0  0  0  0  0  0  0  0  0  0  0  0
   -5.3710   -0.4890   -1.8290 C   0  0  0  0  0  0  0  0  0  0  0  0
   -5.4420    0.6720   -1.0050 N   0  0  0  0  0  0  0  0  0  0  0  0
   -4.4200    0.5860    0.0140 C   0  0  1  0  0  0  0  0  0  0  0  0
   -5.0680    0.3240    1.2640 N   0  0  2  0  0  0  0  0  0  0  0  0
   -5.9290   -0.8580    1.1990 C   0  0  0  0  0  0  0  0  0  0  0  0
   -5.9450    1.4400    1.5740 C   0  0  0  0  0  0  0  0  0  0  0  0
  1  2  1  0
  2  3  2  0
  2 26  1  0
  3  4  1  0
  4  5  2  0
  5  6  1  0
  5 25  1  0
  6  7  1  0
  6 19  1  0
  7  8  2  3
  8  9  1  0
  9 10  2  0
  9 18  1  0
 10 11  1  0
 11 12  1  0
 12 13  2  0
 12 18  1  0
 13 14  1  0
 14 15  2  0
 15 16  1  0
 16 17  1  0
 16 18  2  0
 19 20  2  0
 19 24  1  0
 20 21  1  0
 21 22  2  0
 22 23  1  0
 23 24  2  0
 25 26  2  0
 26 27  1  0
 27 28  1  0
 27 32  1  0
 28 29  2  0
 28 30  1  0
 30 31  1  0
 32 31  1  6
 32 33  1  0
 33 34  1  6
 33 35  1  0
M  CHG  1  33   1
M  END
