
     RDKit          3D

 35 39  0  0  0  0  0  0  0  0999 V2000
   -0.0630   -0.2010    2.6100 C   0  0  0  0  0  0  0  0  0  0  0  0
    0.4830   -1.3110    1.6740 C   0  0  2  0  0  0  0  0  0  0  0  0
    1.4090   -0.6100    0.7720 C   0  0  0  0  0  0  0  0  0  0  0  0
    1.1370   -0.4810   -0.4160 O   0  0  0  0  0  0  0  0  0  0  0  0
    2.6070   -0.0940    1.3040 N   0  0  0  0  0  0  0  0  0  0  0  0
    3.6150    0.6060    0.6010 C   0  0  0  0  0  0  0  0  0  0  0  0
    3.5740    0.9400   -0.7280 C   0  0  0  0  0  0  0  0  0  0  0  0
    4.6200    1.6360   -1.3580 C   0  0  0  0  0  0  0  0  0  0  0  0
    5.7450    2.0210   -0.6720 C   0  0  0  0  0  0  0  0  0  0  0  0
    6.7920    2.7250   -1.3280 N   0  0  0  0  0  0  0  0  0  0  0  0
    7.4940    2.3420   -2.4180 C   0  0  0  0  0  0  0  0  0  0  0  0
    8.4300    3.3070   -2.7490 C   0  0  0  0  0  0  0  0  0  0  0  0
    8.2590    4.2980   -1.7990 C   0  0  0  0  0  0  0  0  0  0  0  0
    7.2740    3.8970   -0.9840 N   0  0  0  0  0  0  0  0  0  0  0  0
    5.7930    1.6910    0.6610 C   0  0  0  0  0  0  0  0  0  0  0  0
    4.7740    1.0110    1.2800 C   0  0  0  0  0  0  0  0  0  0  0  0
   -0.7110   -1.7920    1.0070 N   0  0  0  0  0  0  0  0  0  0  0  0
   -1.5710   -0.8270    0.3530 C   0  0  0  0  0  0  0  0  0  0  0  0
   -2.9900   -0.9190    0.7890 C   0  0  0  0  0  0  0  0  0  0  0  0
   -3.6830    0.4050    0.9780 C   0  0  0  0  0  0  0  0  0  0  0  0
   -3.7000    1.1630   -0.2520 N   0  0  1  0  0  0  0  0  0  0  0  0
   -3.7590    0.3510   -1.4240 C   0  0  0  0  0  0  0  0  0  0  0  0
   -4.9430    0.6830   -2.3270 C   0  0  0  0  0  0  0  0  0  0  0  0
   -4.9550    2.1520   -2.7010 C   0  0  2  0  0  0  0  0  0  0  0  0
   -4.1240    2.3060   -3.7930 F   0  0  0  0  0  0  0  0  0  0  0  0
   -4.4880    3.0110   -1.5390 C   0  0  0  0  0  0  0  0  0  0  0  0
   -4.7290    2.1600   -0.2840 C   0  0  0  0  0  0  0  0  0  0  0  0
   -3.8010   -1.9310    1.0550 C   0  0  0  0  0  0  0  0  0  0  0  0
   -3.4770   -3.3130    0.9800 N   0  0  0  0  0  0  0  0  0  0  0  0
   -2.1510   -3.8750    1.0350 C   0  0  0  0  0  0  0  0  0  0  0  0
   -2.1880   -5.2590    1.0830 C   0  0  0  0  0  0  0  0  0  0  0  0
   -0.9920   -5.9520    1.1380 C   0  0  0  0  0  0  0  0  0  0  0  0
    0.2240   -5.2710    1.1440 C   0  0  0  0  0  0  0  0  0  0  0  0
    0.2450   -3.9090    1.0970 C   0  0  0  0  0  0  0  0  0  0  0  0
   -0.9490   -3.2000    1.0420 C   0  0  0  0  0  0  0  0  0  0  0  0
  2  1  1  1
  2  3  1  0
  2 17  1  0
  3  4  2  0
  3  5  1  0
  5  6  1  0
  6  7  2  0
  6 16  1  0
  7  8  1  0
  8  9  2  0
  9 10  1  0
  9 15  1  0
 10 11  1  0
 10 14  1  0
 11 12  2  0
 12 13  1  0
 13 14  2  0
 15 16  2  0
 17 18  1  0
 17 35  1  0
 18 19  1  0
 19 20  1  0
 19 28  2  0
 21 20  1  1
 21 22  1  0
 21 27  1  0
 22 23  1  0
 23 24  1  0
 24 25  1  6
 24 26  1  0
 26 27  1  0
 28 29  1  0
 29 30  1  0
 30 31  2  0
 30 35  1  0
 31 32  1  0
 32 33  2  0
 33 34  1  0
 34 35  2  0
M  CHG  1  21   1
M  END
