
     RDKit          3D

 35 39  0  0  0  0  0  0  0  0999 V2000
   -7.4500   -2.7150   -0.6570 C   0  0  0  0  0  0  0  0  0  0  0  0
   -6.3710   -2.1670   -0.1610 C   0  0  0  0  0  0  0  0  0  0  0  0
   -6.4430   -1.1900    0.9320 C   0  0  0  0  0  0  0  0  0  0  0  0
   -5.6810    0.0570    0.3920 C   0  0  0  0  0  0  0  0  0  0  0  0
   -4.2670   -0.2480    0.0970 C   0  0  0  0  0  0  0  0  0  0  0  0
   -4.0120   -1.4760   -0.4050 C   0  0  0  0  0  0  0  0  0  0  0  0
   -2.6780   -1.8530   -0.7100 N   0  0  0  0  0  0  0  0  0  0  0  0
   -1.6880   -0.9370   -0.4710 N   0  0  0  0  0  0  0  0  0  0  0  0
   -1.8690    0.2400    0.0090 C   0  0  0  0  0  0  0  0  0  0  0  0
   -0.6780    1.0280    0.1760 C   0  0  0  0  0  0  0  0  0  0  0  0
   -0.7740    2.1870    0.7070 O   0  0  0  0  0  0  0  0  0  0  0  0
    0.6430    0.6780   -0.1830 N   0  0  0  0  0  0  0  0  0  0  0  0
    1.7150    1.6620    0.1550 C   0  0  0  0  0  0  0  0  0  0  0  0
    2.8810    0.9590    0.8460 C   0  0  0  0  0  0  0  0  0  0  0  0
    3.4070   -0.1330   -0.1050 C   0  0  1  0  0  0  0  0  0  0  0  0
    4.6000   -0.6710    0.3780 N   0  0  0  0  0  0  0  0  0  0  0  0
    4.6370   -1.3910    1.5800 C   0  0  0  0  0  0  0  0  0  0  0  0
    5.6120   -2.5950    1.4780 C   0  0  0  0  0  0  0  0  0  0  0  0
    6.9340   -1.9410    1.2510 C   0  0  0  0  0  0  0  0  0  0  0  0
    8.0290   -2.3180    1.9370 F   0  0  0  0  0  0  0  0  0  0  0  0
    6.9920   -0.9800    0.3490 C   0  0  0  0  0  0  0  0  0  0  0  0
    8.1220   -0.0970   -0.1500 C   0  0  0  0  0  0  0  0  0  0  0  0
    7.3510    1.2240   -0.3040 C   0  0  0  0  0  0  0  0  0  0  0  0
    6.0750    0.7720   -0.9360 C   0  0  1  0  0  0  0  0  0  0  0  0
    6.2400    0.6710   -2.4390 C   0  0  0  0  0  0  0  0  0  0  0  0
    5.7690   -0.6090   -0.4050 C   0  0  2  0  0  0  0  0  0  0  0  0
    2.2520   -1.1350   -0.1350 C   0  0  0  0  0  0  0  0  0  0  0  0
    1.0810   -0.4880   -0.8790 C   0  0  0  0  0  0  0  0  0  0  0  0
   -3.2330    0.6900    0.3360 N   0  0  0  0  0  0  0  0  0  0  0  0
   -3.2990    1.9980    0.8000 C   0  0  0  0  0  0  0  0  0  0  0  0
   -4.5080    2.8240    0.9360 C   0  0  0  0  0  0  0  0  0  0  0  0
   -5.2570    3.1640   -0.3020 C   0  0  0  0  0  0  0  0  0  0  0  0
   -6.4790    3.9990    0.1120 C   0  0  0  0  0  0  0  0  0  0  0  0
   -5.0350   -2.5070   -0.6790 C   0  0  2  0  0  0  0  0  0  0  0  0
   -5.0610   -2.8950   -2.0820 N   0  0  0  0  0  0  0  0  0  0  0  0
  1  2  2  0
  2  3  1  0
  2 34  1  0
  3  4  1  0
  4  5  1  0
  5  6  2  0
  5 29  1  0
  6  7  1  0
  6 34  1  0
  7  8  1  0
  8  9  2  0
  9 10  1  0
  9 29  1  0
 10 11  2  0
 10 12  1  0
 12 13  1  0
 12 28  1  0
 13 14  1  0
 14 15  1  0
 15 16  1  1
 15 27  1  0
 16 17  1  0
 26 16  1  1
 17 18  1  0
 18 19  1  0
 19 20  1  0
 19 21  2  0
 21 22  1  0
 21 26  1  0
 22 23  1  0
 23 24  1  0
 24 25  1  6
 24 26  1  0
 27 28  1  0
 29 30  1  0
 30 31  1  0
 31 32  1  0
 32 33  1  0
 34 35  1  6
M  CHG  1  35   1
M  END
