
     RDKit          3D

 34 36  0  0  0  0  0  0  0  0999 V2000
   -2.1440   -0.4510    4.2040 N   0  0  0  0  0  0  0  0  0  0  0  0
   -1.2330   -0.3510    3.1510 C   0  0  0  0  0  0  0  0  0  0  0  0
   -0.0230   -0.6050    3.3470 O   0  0  0  0  0  0  0  0  0  0  0  0
   -1.5960    0.0530    1.7430 C   0  0  2  0  0  0  0  0  0  0  0  0
   -0.4140    0.0520    0.9020 N   0  0  0  0  0  0  0  0  0  0  0  0
    0.3510   -1.1370    0.6800 C   0  0  0  0  0  0  0  0  0  0  0  0
   -0.0390   -2.1810    1.2430 O   0  0  0  0  0  0  0  0  0  0  0  0
    1.5660   -1.1310   -0.1870 C   0  0  2  0  0  0  0  0  0  0  0  0
    2.1560   -2.3670   -0.2700 O   0  0  0  0  0  0  0  0  0  0  0  0
    3.0320   -2.3260   -1.3800 C   0  0  0  0  0  0  0  0  0  0  0  0
    3.9560   -1.1550   -1.2570 C   0  0  2  0  0  0  0  0  0  0  0  0
    5.2840   -1.4770   -1.6290 O   0  0  0  0  0  0  0  0  0  0  0  0
    6.2240   -0.4590   -1.5510 C   0  0  0  0  0  0  0  0  0  0  0  0
    7.4770   -0.6800   -1.1450 C   0  0  0  0  0  0  0  0  0  0  0  0
    8.1970    0.5960   -1.1800 C   0  0  0  0  0  0  0  0  0  0  0  0
    9.4030    0.8280   -0.8750 O   0  0  0  0  0  0  0  0  0  0  0  0
    7.2520    1.5510   -1.6370 N   0  0  0  0  0  0  0  0  0  0  0  0
    6.1220    0.9480   -1.8490 C   0  0  0  0  0  0  0  0  0  0  0  0
    4.9780    1.5840   -2.3030 O   0  0  0  0  0  0  0  0  0  0  0  0
    3.9260   -0.6330    0.1630 C   0  0  0  0  0  0  0  0  0  0  0  0
    2.5220   -0.1210    0.4200 C   0  0  1  0  0  0  0  0  0  0  0  0
    2.2930    1.1070   -0.1940 O   0  0  0  0  0  0  0  0  0  0  0  0
   -2.0350    1.4840    1.8720 C   0  0  0  0  0  0  0  0  0  0  0  0
   -2.4610    2.0240    0.5450 C   0  0  0  0  0  0  0  0  0  0  0  0
   -3.5300    1.1970   -0.0760 C   0  0  1  0  0  0  0  0  0  0  0  0
   -4.6920    2.0870   -0.0370 O   0  0  0  0  0  0  0  0  0  0  0  0
   -3.2660    1.0520   -1.5350 C   0  0  0  0  0  0  0  0  0  0  0  0
   -1.9740    0.4330   -1.9510 C   0  0  0  0  0  0  0  0  0  0  0  0
   -2.0220    0.4010   -3.3810 O   0  0  0  0  0  0  0  0  0  0  0  0
   -3.8760   -0.0230    0.6860 C   0  0  1  0  0  0  0  0  0  0  0  0
   -4.7630    0.3920    1.8030 N   0  0  0  0  0  0  0  0  0  0  0  0
   -4.7430   -1.0230   -0.0820 C   0  0  0  0  0  0  0  0  0  0  0  0
   -4.1720   -1.5810   -1.1740 O   0  0  0  0  0  0  0  0  0  0  0  0
   -2.7100   -0.8020    1.2170 C   0  0  0  0  0  0  0  0  0  0  0  0
  1  2  1  0
  2  3  2  0
  2  4  1  0
  4  5  1  6
  4 23  1  0
  4 34  1  0
  5  6  1  0
  6  7  2  0
  8  6  1  1
  8  9  1  0
  8 21  1  0
  9 10  1  0
 10 11  1  0
 11 12  1  1
 11 20  1  0
 12 13  1  0
 13 14  2  0
 13 18  1  0
 14 15  1  0
 15 16  2  0
 15 17  1  0
 17 18  2  0
 18 19  1  0
 20 21  1  0
 21 22  1  6
 23 24  1  0
 24 25  1  0
 25 26  1  6
 25 27  1  0
 25 30  1  0
 27 28  1  0
 28 29  1  0
 30 31  1  1
 30 32  1  0
 30 34  1  0
 32 33  1  0
M  CHG  1  31   1
M  END
