
     RDKit          3D

 35 39  0  0  0  0  0  0  0  0999 V2000
    7.1770    2.8010   -1.8450 C   0  0  0  0  0  0  0  0  0  0  0  0
    7.7660    1.9800   -0.7520 C   0  0  0  0  0  0  0  0  0  0  0  0
    8.4180    2.5200    0.2980 N   0  0  0  0  0  0  0  0  0  0  0  0
    8.8120    1.5020    1.0810 C   0  0  0  0  0  0  0  0  0  0  0  0
    8.3790    0.3380    0.4720 C   0  0  0  0  0  0  0  0  0  0  0  0
    7.7290    0.6510   -0.6690 N   0  0  0  0  0  0  0  0  0  0  0  0
    7.1140   -0.2590   -1.6160 C   0  0  0  0  0  0  0  0  0  0  0  0
    5.6850   -0.5360   -1.2880 C   0  0  0  0  0  0  0  0  0  0  0  0
    4.6600    0.2300   -1.7850 C   0  0  0  0  0  0  0  0  0  0  0  0
    3.3230   -0.0550   -1.4600 C   0  0  0  0  0  0  0  0  0  0  0  0
    2.9580   -1.0940   -0.6420 C   0  0  0  0  0  0  0  0  0  0  0  0
    1.6330   -1.4380   -0.2760 N   0  0  0  0  0  0  0  0  0  0  0  0
    0.4500   -0.8000   -0.6630 C   0  0  0  0  0  0  0  0  0  0  0  0
    0.4800    0.1930   -1.4150 O   0  0  0  0  0  0  0  0  0  0  0  0
   -0.8480   -1.2250   -0.2400 N   0  0  0  0  0  0  0  0  0  0  0  0
   -2.0450   -0.5360   -0.6660 C   0  0  0  0  0  0  0  0  0  0  0  0
   -3.2970   -1.1500   -0.2290 C   0  0  0  0  0  0  0  0  0  0  0  0
   -3.4050   -2.4460    0.2120 C   0  0  0  0  0  0  0  0  0  0  0  0
   -4.6090   -2.9800    0.6170 C   0  0  0  0  0  0  0  0  0  0  0  0
   -5.6910   -2.1680    0.5630 N   0  0  0  0  0  0  0  0  0  0  0  0
   -5.6360   -0.8900    0.1390 C   0  0  0  0  0  0  0  0  0  0  0  0
   -6.8040   -0.0550    0.0770 N   0  0  0  0  0  0  0  0  0  0  0  0
   -8.0940   -0.6260    0.3680 C   0  0  0  0  0  0  0  0  0  0  0  0
   -8.4320   -0.3090    1.8090 C   0  0  0  0  0  0  0  0  0  0  0  0
   -9.0520    1.0800    1.8620 C   0  0  0  0  0  0  0  0  0  0  0  0
   -8.0520    2.1410    1.4970 C   0  0  0  0  0  0  0  0  0  0  0  0
   -7.7390    2.1800    0.0330 C   0  0  0  0  0  0  0  0  0  0  0  0
   -6.5300    1.3360   -0.2740 C   0  0  0  0  0  0  0  0  0  0  0  0
   -4.4420   -0.3660   -0.2610 C   0  0  0  0  0  0  0  0  0  0  0  0
    4.0220   -1.8640   -0.1450 C   0  0  0  0  0  0  0  0  0  0  0  0
    3.7410   -2.9150    0.6760 F   0  0  0  0  0  0  0  0  0  0  0  0
    5.3240   -1.5800   -0.4660 C   0  0  0  0  0  0  0  0  0  0  0  0
    8.7340   -0.7230    1.1920 C   0  0  0  0  0  0  0  0  0  0  0  0
    9.4590   -0.2210    2.3720 C   0  0  0  0  0  0  0  0  0  0  0  0
    9.4460    1.2480    2.1880 C   0  0  0  0  0  0  0  0  0  0  0  0
  1  2  1  0
  2  3  2  0
  2  6  1  0
  3  4  1  0
  4  5  1  0
  4 35  2  0
  5  6  1  0
  5 33  2  0
  6  7  1  0
  7  8  1  0
  8  9  2  0
  8 32  1  0
  9 10  1  0
 10 11  2  0
 11 12  1  0
 11 30  1  0
 12 13  1  0
 13 14  2  0
 13 15  1  0
 15 16  1  0
 16 17  1  0
 17 18  2  0
 17 29  1  0
 18 19  1  0
 19 20  2  0
 20 21  1  0
 21 22  1  0
 21 29  2  0
 22 23  1  0
 22 28  1  0
 23 24  1  0
 24 25  1  0
 25 26  1  0
 26 27  1  0
 27 28  1  0
 30 31  1  0
 30 32  2  0
 33 34  1  0
 34 35  1  0
M  CHG  1  20   1
M  END
