
     RDKit          3D

 35 39  0  0  0  0  0  0  0  0999 V2000
    8.5030    2.3880   -1.4540 C   0  0  0  0  0  0  0  0  0  0  0  0
    7.0470    2.5970   -1.0980 C   0  0  0  0  0  0  0  0  0  0  0  0
    6.3560    1.2390   -1.1170 C   0  0  0  0  0  0  0  0  0  0  0  0
    7.0180    0.3290   -0.1070 C   0  0  0  0  0  0  0  0  0  0  0  0
    6.3360   -1.0130   -0.1270 C   0  0  2  0  0  0  0  0  0  0  0  0
    6.4650   -1.5660   -1.4630 N   0  0  0  0  0  0  0  0  0  0  0  0
    5.2500   -2.2790   -1.6210 N   0  0  0  0  0  0  0  0  0  0  0  0
    4.2510   -1.5890   -0.8670 C   0  0  0  0  0  0  0  0  0  0  0  0
    4.8800   -0.7870    0.0750 C   0  0  0  0  0  0  0  0  0  0  0  0
    4.1030   -0.0610    0.8760 N   0  0  0  0  0  0  0  0  0  0  0  0
    2.7440   -0.0670    0.8160 C   0  0  0  0  0  0  0  0  0  0  0  0
    1.9690    0.6970    1.6610 C   0  0  0  0  0  0  0  0  0  0  0  0
    2.5840    1.4740    2.5740 F   0  0  0  0  0  0  0  0  0  0  0  0
    0.5710    0.6880    1.5960 C   0  0  0  0  0  0  0  0  0  0  0  0
   -0.1940    1.5360    2.5450 C   0  0  0  0  0  0  0  0  0  0  0  0
   -0.0570   -0.1030    0.6640 C   0  0  0  0  0  0  0  0  0  0  0  0
   -1.5240   -0.1180    0.5760 C   0  0  0  0  0  0  0  0  0  0  0  0
   -2.2650    1.0420    0.5490 C   0  0  0  0  0  0  0  0  0  0  0  0
   -3.6050    0.9890    0.4750 N   0  0  0  0  0  0  0  0  0  0  0  0
   -4.2710   -0.1990    0.4250 C   0  0  0  0  0  0  0  0  0  0  0  0
   -3.5830   -1.3940    0.4490 C   0  0  0  0  0  0  0  0  0  0  0  0
   -2.2100   -1.3380    0.5240 C   0  0  0  0  0  0  0  0  0  0  0  0
   -4.1170   -2.8030    0.4060 C   0  0  0  0  0  0  0  0  0  0  0  0
   -5.4410   -2.7250    1.0130 N   0  0  0  0  0  0  0  0  0  0  0  0
   -6.3750   -2.3820   -0.0100 C   0  0  0  0  0  0  0  0  0  0  0  0
   -6.6370   -0.9320   -0.2070 C   0  0  0  0  0  0  0  0  0  0  0  0
   -5.6820   -0.0310    0.3500 N   0  0  0  0  0  0  0  0  0  0  0  0
   -6.1640    1.2280    0.9200 C   0  0  0  0  0  0  0  0  0  0  0  0
   -6.7030    2.1390   -0.1560 C   0  0  0  0  0  0  0  0  0  0  0  0
   -5.7600    2.4650   -1.1050 O   0  0  0  0  0  0  0  0  0  0  0  0
   -6.3740    3.3080   -2.0460 C   0  0  0  0  0  0  0  0  0  0  0  0
    0.7220   -0.8710   -0.1830 C   0  0  0  0  0  0  0  0  0  0  0  0
    2.1060   -0.8660   -0.1230 C   0  0  0  0  0  0  0  0  0  0  0  0
    2.8780   -1.6320   -0.9710 C   0  0  0  0  0  0  0  0  0  0  0  0
    2.2600   -2.5060   -1.9960 C   0  0  0  0  0  0  0  0  0  0  0  0
  1  2  1  0
  2  3  1  0
  3  4  1  0
  5  4  1  6
  5  6  1  0
  5  9  1  0
  6  7  1  0
  7  8  1  0
  8  9  2  0
  8 34  1  0
  9 10  1  0
 10 11  2  0
 11 12  1  0
 11 33  1  0
 12 13  1  0
 12 14  2  0
 14 15  1  0
 14 16  1  0
 16 17  1  0
 16 32  2  0
 17 18  2  0
 17 22  1  0
 18 19  1  0
 19 20  2  0
 20 21  1  0
 20 27  1  0
 21 22  2  0
 21 23  1  0
 23 24  1  0
 24 25  1  0
 25 26  1  0
 26 27  1  0
 27 28  1  0
 28 29  1  0
 29 30  1  0
 30 31  1  0
 32 33  1  0
 33 34  2  0
 34 35  1  0
M  CHG  1  24   1
M  END
