
     RDKit          3D

 26 28  0  0  0  0  0  0  0  0999 V2000
   -7.6940   -0.7060   -0.3590 C   0  0  0  0  0  0  0  0  0  0  0  0
   -6.4790    0.0260   -0.7240 C   0  0  0  0  0  0  0  0  0  0  0  0
   -5.2830   -0.2860   -0.2900 C   0  0  0  0  0  0  0  0  0  0  0  0
   -4.1140    0.4870   -0.6930 C   0  0  0  0  0  0  0  0  0  0  0  0
   -2.9030    0.2280   -0.2980 C   0  0  0  0  0  0  0  0  0  0  0  0
   -1.6850    1.0050   -0.6980 C   0  0  0  0  0  0  0  0  0  0  0  0
   -0.5790   -0.0180   -0.9150 C   0  0  0  0  0  0  0  0  0  0  0  0
   -0.0910   -0.6220    0.3940 C   0  0  1  0  0  0  0  0  0  0  0  0
    0.5870    0.5720    1.5000 S   0  0  0  0  0  0  0  0  0  0  0  0
    2.0310    1.4260    1.0330 C   0  0  0  0  0  0  0  0  0  0  0  0
    2.4020    2.5170    1.6890 N   0  0  0  0  0  0  0  0  0  0  0  0
    3.5440    3.2360    1.3430 N   0  0  0  0  0  0  0  0  0  0  0  0
    4.3270    2.7840    0.2480 C   0  0  0  0  0  0  0  0  0  0  0  0
    5.5540    2.9590    0.1370 O   0  0  0  0  0  0  0  0  0  0  0  0
    3.5300    2.0460   -0.8160 C   0  0  0  0  0  0  0  0  0  0  0  0
    2.8560    1.0010   -0.0280 N   0  0  0  0  0  0  0  0  0  0  0  0
    3.1300   -0.3590   -0.3960 C   0  0  0  0  0  0  0  0  0  0  0  0
    4.6370   -0.5940   -0.0890 C   0  0  1  0  0  0  0  0  0  0  0  0
    4.7740   -0.3620    1.2780 O   0  0  0  0  0  0  0  0  0  0  0  0
    4.8520   -2.0800   -0.3790 C   0  0  0  0  0  0  0  0  0  0  0  0
    6.1250   -2.4130    0.0410 O   0  0  0  0  0  0  0  0  0  0  0  0
   -1.3110   -1.2070    1.0600 C   0  0  0  0  0  0  0  0  0  0  0  0
   -1.1470   -1.9750    2.0260 O   0  0  0  0  0  0  0  0  0  0  0  0
   -2.6560   -0.8960    0.6030 C   0  0  0  0  0  0  0  0  0  0  0  0
   -3.7080   -1.6190    0.9880 C   0  0  0  0  0  0  0  0  0  0  0  0
   -5.0410   -1.3710    0.5820 N   0  0  0  0  0  0  0  0  0  0  0  0
  1  2  1  0
  2  3  2  3
  3  4  1  0
  3 26  1  0
  4  5  2  0
  5  6  1  0
  5 24  1  0
  6  7  1  0
  7  8  1  0
  8  9  1  1
  8 22  1  0
  9 10  1  0
 10 11  2  0
 10 16  1  0
 11 12  1  0
 12 13  1  0
 13 14  2  0
 13 15  1  0
 15 16  1  0
 16 17  1  0
 17 18  1  0
 18 19  1  1
 18 20  1  0
 20 21  1  0
 22 23  2  0
 22 24  1  0
 24 25  2  0
 25 26  1  0
M  END
