
     RDKit          3D

 18 18  0  0  0  0  0  0  0  0999 V2000
   -2.2300   -1.8400    1.1270 C   0  0  0  0  0  0  0  0  0  0  0  0
   -3.1280   -1.0200    0.6370 C   0  0  0  0  0  0  0  0  0  0  0  0
   -4.5440   -1.2080    0.8840 C   0  0  0  0  0  0  0  0  0  0  0  0
   -5.1000   -2.4390    1.7770 S   0  0  0  0  0  0  0  0  0  0  0  0
   -5.4590   -0.2870    0.3260 N   0  0  0  0  0  0  0  0  0  0  0  0
   -5.0080    0.6970   -0.3880 C   0  0  0  0  0  0  0  0  0  0  0  0
   -3.5820    0.9100   -0.6530 C   0  0  0  0  0  0  0  0  0  0  0  0
   -2.6400    0.1120   -0.1820 C   0  0  0  0  0  0  0  0  0  0  0  0
   -1.2920    0.3060   -0.4270 O   0  0  0  0  0  0  0  0  0  0  0  0
   -0.5230    1.0680    0.4840 C   0  0  0  0  0  0  0  0  0  0  0  0
    0.8770    1.1750    0.0760 C   0  0  0  0  0  0  0  0  0  0  0  0
    1.7070    1.8120    0.7610 O   0  0  0  0  0  0  0  0  0  0  0  0
    1.3100    0.5460   -1.1210 N   0  0  0  0  0  0  0  0  0  0  0  0
    2.6840    0.6230   -1.5650 C   0  0  0  0  0  0  0  0  0  0  0  0
    3.5540    0.0270   -0.5330 C   0  0  0  0  0  0  0  0  0  0  0  0
    3.0450   -0.4380    0.5130 O   0  0  0  0  0  0  0  0  0  0  0  0
    4.9410   -0.0430   -0.6710 O   0  0  0  0  0  0  0  0  0  0  0  0
    5.6820   -0.6300    0.3670 C   0  0  0  0  0  0  0  0  0  0  0  0
  1  2  2  0
  2  3  1  0
  2  8  1  0
  3  4  2  0
  3  5  1  0
  5  6  2  0
  6  7  1  0
  7  8  2  0
  8  9  1  0
  9 10  1  0
 10 11  1  0
 11 12  2  0
 11 13  1  0
 13 14  1  0
 14 15  1  0
 15 16  2  0
 15 17  1  0
 17 18  1  0
M  END
