
     RDKit          3D

 26 28  0  0  0  0  0  0  0  0999 V2000
    0.6270   -3.3300    0.4310 C   0  0  0  0  0  0  0  0  0  0  0  0
    0.5520   -1.8490    0.1860 C   0  0  1  0  0  0  0  0  0  0  0  0
    1.9070   -1.3400   -0.8910 S   0  0  0  0  0  0  0  0  0  0  0  0
    1.8770    0.4310   -1.2290 C   0  0  0  0  0  0  0  0  0  0  0  0
    2.1430    1.2470    0.0200 C   0  0  1  0  0  0  0  0  0  0  0  0
    1.2000    1.0060    0.9980 O   0  0  0  0  0  0  0  0  0  0  0  0
    3.5360    1.0150    0.5040 C   0  0  0  0  0  0  0  0  0  0  0  0
    3.9440   -0.0710    1.2420 C   0  0  0  0  0  0  0  0  0  0  0  0
    5.2720    0.0860    1.4820 C   0  0  0  0  0  0  0  0  0  0  0  0
    5.6500    1.2730    0.8800 C   0  0  0  0  0  0  0  0  0  0  0  0
    7.0440    1.8420    0.8940 C   0  0  0  0  0  0  0  0  0  0  0  0
    7.8820    1.0020    1.5960 O   0  0  0  0  0  0  0  0  0  0  0  0
    4.5930    1.7670    0.3260 O   0  0  0  0  0  0  0  0  0  0  0  0
   -0.7610   -1.5760   -0.4760 C   0  0  0  0  0  0  0  0  0  0  0  0
   -1.7680   -0.8160   -0.0100 N   0  0  0  0  0  0  0  0  0  0  0  0
   -2.7830   -0.7950   -0.8560 N   0  0  0  0  0  0  0  0  0  0  0  0
   -3.9900   -0.0710   -0.6270 C   0  0  0  0  0  0  0  0  0  0  0  0
   -4.3490    0.3160    0.6540 C   0  0  0  0  0  0  0  0  0  0  0  0
   -5.5050    1.0170    0.9310 C   0  0  0  0  0  0  0  0  0  0  0  0
   -6.3560    1.3620   -0.0820 C   0  0  0  0  0  0  0  0  0  0  0  0
   -7.5320    2.0790    0.2190 N   0  0  0  0  0  0  0  0  0  0  0  0
   -6.0140    0.9830   -1.3760 C   0  0  0  0  0  0  0  0  0  0  0  0
   -4.8560    0.2820   -1.6390 C   0  0  0  0  0  0  0  0  0  0  0  0
   -2.4200   -1.5580   -1.8860 C   0  0  0  0  0  0  0  0  0  0  0  0
   -3.1140   -1.7920   -2.9040 O   0  0  0  0  0  0  0  0  0  0  0  0
   -1.1710   -2.0490   -1.6670 N   0  0  0  0  0  0  0  0  0  0  0  0
  2  1  1  6
  2  3  1  0
  2 14  1  0
  3  4  1  0
  4  5  1  0
  5  6  1  1
  5  7  1  0
  7  8  2  0
  7 13  1  0
  8  9  1  0
  9 10  2  0
 10 11  1  0
 10 13  1  0
 11 12  1  0
 14 15  2  0
 14 26  1  0
 15 16  1  0
 16 17  1  0
 16 24  1  0
 17 18  2  0
 17 23  1  0
 18 19  1  0
 19 20  2  0
 20 21  1  0
 20 22  1  0
 22 23  2  0
 24 25  2  0
 24 26  1  0
M  END
