
     RDKit          3D

 26 28  0  0  0  0  0  0  0  0999 V2000
   -4.3080    1.4800   -2.3990 C   0  0  0  0  0  0  0  0  0  0  0  0
   -3.9190    0.5850   -1.5280 C   0  0  0  0  0  0  0  0  0  0  0  0
   -4.7550   -0.5800   -1.3940 N   0  0  0  0  0  0  0  0  0  0  0  0
   -4.2240   -1.8050   -0.8180 C   0  0  0  0  0  0  0  0  0  0  0  0
   -3.2880   -1.4470    0.2870 C   0  0  0  0  0  0  0  0  0  0  0  0
   -3.2920   -2.1460    1.3750 C   0  0  0  0  0  0  0  0  0  0  0  0
   -4.2350   -3.3030    1.5110 C   0  0  0  0  0  0  0  0  0  0  0  0
   -2.3490   -0.2890    0.1660 C   0  0  0  0  0  0  0  0  0  0  0  0
   -1.0510   -0.5150    0.6690 N   0  0  0  0  0  0  0  0  0  0  0  0
    0.1770    0.0890    0.3490 C   0  0  0  0  0  0  0  0  0  0  0  0
    0.2720    0.8950   -0.5930 O   0  0  0  0  0  0  0  0  0  0  0  0
    1.3750   -0.2150    1.1140 N   0  0  0  0  0  0  0  0  0  0  0  0
    2.5830    0.4260    0.7430 C   0  0  1  0  0  0  0  0  0  0  0  0
    3.1450    1.3010    1.8760 C   0  0  0  0  0  0  0  0  0  0  0  0
    4.5080    1.7380    1.4390 C   0  0  0  0  0  0  0  0  0  0  0  0
    4.7280    1.6330   -0.0490 C   0  0  0  0  0  0  0  0  0  0  0  0
    4.6230    0.2160   -0.5530 C   0  0  2  0  0  0  0  0  0  0  0  0
    4.0120    0.2470   -1.8510 N   0  0  0  0  0  0  0  0  0  0  0  0
    3.5210   -1.0210   -2.2620 C   0  0  0  0  0  0  0  0  0  0  0  0
    3.3640   -1.5360   -3.3900 O   0  0  0  0  0  0  0  0  0  0  0  0
    3.1180   -1.8580   -0.7240 S   0  0  0  0  0  0  0  0  0  0  0  0
    3.7060   -0.5250    0.3990 C   0  0  2  0  0  0  0  0  0  0  0  0
   -2.7290    0.6380   -0.6970 C   0  0  0  0  0  0  0  0  0  0  0  0
   -2.1500    1.9850   -0.4970 C   0  0  0  0  0  0  0  0  0  0  0  0
   -2.3320    2.8780   -1.3250 O   0  0  0  0  0  0  0  0  0  0  0  0
   -1.3910    2.3090    0.6520 O   0  0  0  0  0  0  0  0  0  0  0  0
  1  2  2  0
  2  3  1  0
  2 23  1  0
  3  4  1  0
  4  5  1  0
  5  6  2  3
  5  8  1  0
  6  7  1  0
  8  9  1  0
  8 23  2  0
  9 10  1  0
 10 11  2  0
 10 12  1  0
 13 12  1  1
 13 14  1  0
 13 22  1  0
 14 15  1  0
 15 16  1  0
 17 16  1  1
 17 18  1  0
 17 22  1  0
 18 19  1  0
 19 20  2  0
 19 21  1  0
 22 21  1  6
 23 24  1  0
 24 25  2  0
 24 26  1  0
M  END
