
     RDKit          3D

 30 32  0  0  0  0  0  0  0  0999 V2000
    3.4630   -2.0810   -1.4290 N   0  0  0  0  0  0  0  0  0  0  0  0
    4.1360   -1.4870   -0.2890 C   0  0  0  0  0  0  0  0  0  0  0  0
    3.4350   -0.2060    0.1530 C   0  0  2  0  0  0  0  0  0  0  0  0
    2.1450   -0.5630    0.4920 O   0  0  0  0  0  0  0  0  0  0  0  0
    1.3310    0.4420    0.9290 C   0  0  2  0  0  0  0  0  0  0  0  0
    0.8840    0.1370    2.1950 O   0  0  0  0  0  0  0  0  0  0  0  0
   -0.4800    0.1940    2.2450 C   0  0  0  0  0  0  0  0  0  0  0  0
   -0.8840    1.1070    1.1190 C   0  0  2  0  0  0  0  0  0  0  0  0
   -2.2770    0.9900    0.7010 C   0  0  0  0  0  0  0  0  0  0  0  0
   -3.0090    2.0250    0.7860 O   0  0  0  0  0  0  0  0  0  0  0  0
   -2.8800   -0.1450    0.2170 O   0  0  0  0  0  0  0  0  0  0  0  0
   -4.2040   -0.2330   -0.1760 C   0  0  0  0  0  0  0  0  0  0  0  0
   -4.5990    0.0090   -1.4150 C   0  0  0  0  0  0  0  0  0  0  0  0
   -5.9950   -0.0880   -1.8090 C   0  0  0  0  0  0  0  0  0  0  0  0
   -6.4630    0.2490   -3.4880 S   0  0  0  0  0  0  0  0  0  0  0  0
   -5.0540    0.6550   -4.3730 O   0  0  0  0  0  0  0  0  0  0  0  0
   -6.9340   -0.4240   -0.9440 C   0  0  0  0  0  0  0  0  0  0  0  0
   -6.5620   -0.6860    0.3620 O   0  0  0  0  0  0  0  0  0  0  0  0
   -5.2270   -0.6050    0.7910 C   0  0  0  0  0  0  0  0  0  0  0  0
   -4.8830   -0.8530    2.0240 C   0  0  0  0  0  0  0  0  0  0  0  0
   -5.8510   -1.2060    2.9420 O   0  0  0  0  0  0  0  0  0  0  0  0
   -3.5750   -0.7700    2.4280 O   0  0  0  0  0  0  0  0  0  0  0  0
    0.0880    0.6050    0.0420 C   0  0  1  0  0  0  0  0  0  0  0  0
    0.2360    1.6190   -0.8740 O   0  0  0  0  0  0  0  0  0  0  0  0
    3.4690    0.8060   -0.9710 C   0  0  0  0  0  0  0  0  0  0  0  0
    4.8680    1.0910   -1.4160 C   0  0  0  0  0  0  0  0  0  0  0  0
    5.8540    1.0090   -0.3140 C   0  0  0  0  0  0  0  0  0  0  0  0
    6.9850    1.5220   -0.5100 O   0  0  0  0  0  0  0  0  0  0  0  0
    5.5760    0.3980    0.8990 O   0  0  0  0  0  0  0  0  0  0  0  0
    4.2200    0.3620    1.3020 C   0  0  0  0  0  0  0  0  0  0  0  0
  1  2  1  0
  3  2  1  6
  3  4  1  0
  3 25  1  0
  3 30  1  0
  5  4  1  6
  5  6  1  0
  5 23  1  0
  6  7  1  0
  7  8  1  0
  8  9  1  6
  8 23  1  0
  9 10  2  0
  9 11  1  0
 11 12  1  0
 12 13  2  0
 12 19  1  0
 13 14  1  0
 14 15  1  0
 14 17  2  0
 15 16  1  0
 17 18  1  0
 18 19  1  0
 19 20  2  3
 20 21  1  0
 20 22  1  0
 23 24  1  6
 25 26  1  0
 26 27  1  0
 27 28  2  0
 27 29  1  0
 29 30  1  0
M  CHG  2   1   1  16  -1
M  END
