
     RDKit          3D

 30 31  0  0  0  0  0  0  0  0999 V2000
    6.2330   -1.1500   -1.4690 C   0  0  0  0  0  0  0  0  0  0  0  0
    5.8080   -0.1150   -0.3810 C   0  0  1  0  0  0  0  0  0  0  0  0
    4.7680    0.7280   -1.0840 C   0  0  0  0  0  0  0  0  0  0  0  0
    5.3070   -0.8780    0.7880 C   0  0  0  0  0  0  0  0  0  0  0  0
    4.8700   -0.1330    1.9930 C   0  0  2  0  0  0  0  0  0  0  0  0
    3.7800    0.7600    1.7230 N   0  0  0  0  0  0  0  0  0  0  0  0
    2.4880    0.4620    2.2440 C   0  0  0  0  0  0  0  0  0  0  0  0
    2.2940   -0.5690    2.9390 O   0  0  0  0  0  0  0  0  0  0  0  0
    1.3190    1.3470    1.9950 C   0  0  1  0  0  0  0  0  0  0  0  0
    1.6360    2.4120    1.1740 O   0  0  0  0  0  0  0  0  0  0  0  0
    0.1990    0.4880    1.5060 C   0  0  2  0  0  0  0  0  0  0  0  0
    0.4650   -0.1160    0.2260 N   0  0  0  0  0  0  0  0  0  0  0  0
   -1.0840    1.3160    1.4410 C   0  0  0  0  0  0  0  0  0  0  0  0
   -2.1540    0.4280    0.9590 C   0  0  0  0  0  0  0  0  0  0  0  0
   -2.4170    0.3160   -0.3790 C   0  0  0  0  0  0  0  0  0  0  0  0
   -3.4370   -0.5450   -0.8130 C   0  0  0  0  0  0  0  0  0  0  0  0
   -4.1650   -1.2690    0.0970 C   0  0  0  0  0  0  0  0  0  0  0  0
   -5.1690   -2.1160   -0.2960 O   0  0  0  0  0  0  0  0  0  0  0  0
   -5.5290   -2.2930   -1.6160 C   0  0  0  0  0  0  0  0  0  0  0  0
   -6.0260   -1.0090   -2.1970 C   0  0  0  0  0  0  0  0  0  0  0  0
   -6.3720    0.0380   -1.3910 C   0  0  0  0  0  0  0  0  0  0  0  0
   -6.8360    1.2220   -1.9230 C   0  0  0  0  0  0  0  0  0  0  0  0
   -6.9580    1.3670   -3.2910 C   0  0  0  0  0  0  0  0  0  0  0  0
   -6.6060    0.3020   -4.1010 C   0  0  0  0  0  0  0  0  0  0  0  0
   -6.1430   -0.8780   -3.5730 C   0  0  0  0  0  0  0  0  0  0  0  0
   -3.9040   -1.1590    1.4350 C   0  0  0  0  0  0  0  0  0  0  0  0
   -2.9050   -0.3160    1.8570 C   0  0  0  0  0  0  0  0  0  0  0  0
    5.9860    0.5580    2.6820 C   0  0  0  0  0  0  0  0  0  0  0  0
    5.8880    1.7660    2.9500 O   0  0  0  0  0  0  0  0  0  0  0  0
    7.1150   -0.1450    3.0150 O   0  0  0  0  0  0  0  0  0  0  0  0
  2  1  1  6
  2  3  1  0
  2  4  1  0
  5  4  1  6
  5  6  1  0
  5 28  1  0
  6  7  1  0
  7  8  2  0
  7  9  1  0
  9 10  1  6
  9 11  1  0
 11 12  1  6
 11 13  1  0
 13 14  1  0
 14 15  2  0
 14 27  1  0
 15 16  1  0
 16 17  2  0
 17 18  1  0
 17 26  1  0
 18 19  1  0
 19 20  1  0
 20 21  2  0
 20 25  1  0
 21 22  1  0
 22 23  2  0
 23 24  1  0
 24 25  2  0
 26 27  2  0
 28 29  2  0
 28 30  1  0
M  CHG  1  12   1
M  END
