
     RDKit          3D

 29 31  0  0  0  0  0  0  0  0999 V2000
    8.7330    0.2010   -0.5430 C   0  0  0  0  0  0  0  0  0  0  0  0
    7.4530    0.2860   -1.1430 O   0  0  0  0  0  0  0  0  0  0  0  0
    6.3010    0.2550   -0.3460 C   0  0  0  0  0  0  0  0  0  0  0  0
    6.4770    0.1510    0.8900 O   0  0  0  0  0  0  0  0  0  0  0  0
    4.9690    0.3410   -0.9340 C   0  0  0  0  0  0  0  0  0  0  0  0
    4.7830    0.4440   -2.1540 O   0  0  0  0  0  0  0  0  0  0  0  0
    3.8820    0.3040   -0.0880 O   0  0  0  0  0  0  0  0  0  0  0  0
    2.5920    0.3800   -0.5680 C   0  0  0  0  0  0  0  0  0  0  0  0
    2.3420    0.4860   -1.7930 O   0  0  0  0  0  0  0  0  0  0  0  0
    1.5350    0.3410    0.3020 O   0  0  0  0  0  0  0  0  0  0  0  0
    0.1810    0.4100   -0.0810 C   0  0  2  0  0  0  0  0  0  0  0  0
   -0.4220    1.5200    0.4060 O   0  0  0  0  0  0  0  0  0  0  0  0
   -1.7690    1.6020    0.3460 C   0  0  1  0  0  0  0  0  0  0  0  0
   -2.4390    1.8770    1.6670 C   0  0  0  0  0  0  0  0  0  0  0  0
   -2.3040    2.7080   -0.5810 C   0  0  0  0  0  0  0  0  0  0  0  0
   -3.7300    2.2340   -0.8660 C   0  0  2  0  0  0  0  0  0  0  0  0
   -3.9850    2.2320   -2.2460 O   0  0  0  0  0  0  0  0  0  0  0  0
   -4.6830    3.0060   -0.2560 O   0  0  0  0  0  0  0  0  0  0  0  0
   -3.7820    0.7660   -0.4180 C   0  0  0  0  0  0  0  0  0  0  0  0
   -2.3340    0.4250   -0.3980 C   0  0  2  0  0  0  0  0  0  0  0  0
   -1.9530   -0.8970    0.1630 C   0  0  1  0  0  0  0  0  0  0  0  0
   -2.5840   -1.0650    1.3810 O   0  0  0  0  0  0  0  0  0  0  0  0
   -2.5150   -1.9510   -0.7640 C   0  0  0  0  0  0  0  0  0  0  0  0
   -2.2530   -3.3540   -0.2900 C   0  0  0  0  0  0  0  0  0  0  0  0
   -0.4270   -3.5450   -0.3090 S   0  0  0  0  0  0  0  0  0  0  0  0
    0.1510   -1.8760   -0.8050 C   0  0  0  0  0  0  0  0  0  0  0  0
   -0.4480   -0.9130    0.2440 C   0  0  1  0  0  0  0  0  0  0  0  0
    0.0500   -1.4730    1.5650 C   0  0  0  0  0  0  0  0  0  0  0  0
   -0.1900   -0.6670    2.7020 N   0  0  0  0  0  0  0  0  0  0  0  0
  1  2  1  0
  2  3  1  0
  3  4  2  0
  3  5  1  0
  5  6  2  0
  5  7  1  0
  7  8  1  0
  8  9  2  0
  8 10  1  0
 11 10  1  1
 11 12  1  0
 11 27  1  0
 12 13  1  0
 13 14  1  1
 13 15  1  0
 13 20  1  0
 15 16  1  0
 16 17  1  6
 16 18  1  0
 16 19  1  0
 20 19  1  1
 20 21  1  0
 21 22  1  1
 21 23  1  0
 21 27  1  0
 23 24  1  0
 24 25  1  0
 25 26  1  0
 26 27  1  0
 27 28  1  1
 28 29  1  0
M  CHG  2  17  -1  29   1
M  END
