
     RDKit          3D

 31 33  0  0  0  0  0  0  0  0999 V2000
    3.8600   -0.6880    3.0320 C   0  0  0  0  0  0  0  0  0  0  0  0
    2.3030    0.2310    3.1120 S   0  0  0  0  0  0  0  0  0  0  0  0
    2.2340    1.4210    1.7270 C   0  0  0  0  0  0  0  0  0  0  0  0
    2.1650    0.7580    0.4590 N   0  0  0  0  0  0  0  0  0  0  0  0
    0.9950    0.3870   -0.1930 C   0  0  0  0  0  0  0  0  0  0  0  0
    1.2590   -0.0820   -1.4130 O   0  0  0  0  0  0  0  0  0  0  0  0
   -0.3880    0.4080    0.1750 C   0  0  0  0  0  0  0  0  0  0  0  0
   -0.8680    0.7970    1.3660 C   0  0  0  0  0  0  0  0  0  0  0  0
   -2.2490    0.7780    1.6180 C   0  0  0  0  0  0  0  0  0  0  0  0
   -2.6560    1.1450    2.7340 O   0  0  0  0  0  0  0  0  0  0  0  0
   -3.0780    0.3410    0.5860 C   0  0  0  0  0  0  0  0  0  0  0  0
   -4.4970    0.2350    0.7930 C   0  0  0  0  0  0  0  0  0  0  0  0
   -5.1340    0.7390    1.8240 C   0  0  0  0  0  0  0  0  0  0  0  0
   -6.6470    0.5330    1.8890 C   0  0  2  0  0  0  0  0  0  0  0  0
   -7.1880    0.8870    0.6750 F   0  0  0  0  0  0  0  0  0  0  0  0
   -7.2170    1.3090    2.8550 F   0  0  0  0  0  0  0  0  0  0  0  0
   -2.5410   -0.0440   -0.6190 C   0  0  0  0  0  0  0  0  0  0  0  0
   -3.2920   -0.4940   -1.7920 C   0  0  0  0  0  0  0  0  0  0  0  0
   -2.7430   -1.4060   -2.7220 C   0  0  0  0  0  0  0  0  0  0  0  0
   -3.6720   -1.7170   -3.6730 C   0  0  0  0  0  0  0  0  0  0  0  0
   -4.7980   -1.0080   -3.3490 C   0  0  0  0  0  0  0  0  0  0  0  0
   -4.5330   -0.2830   -2.2160 N   0  0  0  0  0  0  0  0  0  0  0  0
   -1.2480    0.0050   -0.7640 O   0  0  0  0  0  0  0  0  0  0  0  0
    3.4580    0.5070   -0.1600 C   0  0  0  0  0  0  0  0  0  0  0  0
    4.2990    1.5650   -0.3360 C   0  0  0  0  0  0  0  0  0  0  0  0
    5.5410    1.4100   -0.9130 C   0  0  0  0  0  0  0  0  0  0  0  0
    5.9420    0.1630   -1.3220 C   0  0  0  0  0  0  0  0  0  0  0  0
    5.1160   -0.9180   -1.1580 C   0  0  0  0  0  0  0  0  0  0  0  0
    5.5600   -2.2300   -1.5970 C   0  0  0  0  0  0  0  0  0  0  0  0
    6.6820   -2.3810   -2.1190 O   0  0  0  0  0  0  0  0  0  0  0  0
    3.8640   -0.7330   -0.5700 C   0  0  0  0  0  0  0  0  0  0  0  0
  1  2  1  0
  2  3  1  0
  3  4  1  0
  4  5  1  0
  4 24  1  0
  5  6  2  0
  5  7  1  0
  7  8  2  0
  7 23  1  0
  8  9  1  0
  9 10  2  0
  9 11  1  0
 11 12  1  0
 11 17  2  0
 12 13  2  3
 13 14  1  0
 14 15  1  6
 14 16  1  0
 17 18  1  0
 17 23  1  0
 18 19  2  0
 18 22  1  0
 19 20  1  0
 20 21  2  0
 21 22  1  0
 24 25  2  0
 24 31  1  0
 25 26  1  0
 26 27  2  0
 27 28  1  0
 28 29  1  0
 28 31  2  0
 29 30  2  0
M  END
