
     RDKit          3D

 31 33  0  0  0  0  0  0  0  0999 V2000
    8.2350    0.5610   -0.8390 C   0  0  0  0  0  0  0  0  0  0  0  0
    7.1170   -0.3680   -0.7390 C   0  0  0  0  0  0  0  0  0  0  0  0
    5.8620    0.0570   -0.3700 C   0  0  0  0  0  0  0  0  0  0  0  0
    4.8390   -0.9140   -0.3000 C   0  0  0  0  0  0  0  0  0  0  0  0
    3.6260   -1.0730   -0.0210 C   0  0  0  0  0  0  0  0  0  0  0  0
    2.4680   -0.3370    0.4350 C   0  0  0  0  0  0  0  0  0  0  0  0
    2.3200    0.6870    1.2930 C   0  0  0  0  0  0  0  0  0  0  0  0
    3.3650    1.2310    2.2560 C   0  0  0  0  0  0  0  0  0  0  0  0
    1.0570    1.1070    1.2700 N   0  0  0  0  0  0  0  0  0  0  0  0
    0.2980    0.3570    0.3800 C   0  0  0  0  0  0  0  0  0  0  0  0
   -1.0790    0.7340    0.1510 C   0  0  0  0  0  0  0  0  0  0  0  0
   -1.3530    1.9870    0.6000 O   0  0  0  0  0  0  0  0  0  0  0  0
   -2.2380    0.2070   -0.3880 N   0  0  0  0  0  0  0  0  0  0  0  0
   -3.3800    1.1290   -0.4410 C   0  0  0  0  0  0  0  0  0  0  0  0
   -4.2960    1.3020    0.6550 C   0  0  2  0  0  0  0  0  0  0  0  0
   -3.7320    1.8970    1.9520 C   0  0  0  0  0  0  0  0  0  0  0  0
   -5.0490    1.7480    2.7750 C   0  0  0  0  0  0  0  0  0  0  0  0
   -5.3880    0.3290    2.3760 C   0  0  0  0  0  0  0  0  0  0  0  0
   -5.0450    0.2480    1.0590 O   0  0  0  0  0  0  0  0  0  0  0  0
   -2.4120   -1.1310   -0.8710 C   0  0  1  0  0  0  0  0  0  0  0  0
   -3.3970   -1.9850   -0.1730 C   0  0  0  0  0  0  0  0  0  0  0  0
   -4.6210   -2.1750   -0.9560 C   0  0  0  0  0  0  0  0  0  0  0  0
   -3.8910   -2.3740   -2.5940 S   0  0  2  0  0  0  0  0  0  0  0  0
   -4.8470   -1.9980   -3.6580 O   0  0  0  0  0  0  0  0  0  0  0  0
   -3.3580   -3.7610   -2.7150 O   0  0  0  0  0  0  0  0  0  0  0  0
   -2.6070   -1.1780   -2.3580 C   0  0  0  0  0  0  0  0  0  0  0  0
    1.1680   -0.5410   -0.1470 C   0  0  0  0  0  0  0  0  0  0  0  0
    0.9980   -1.5360   -1.2300 C   0  0  0  0  0  0  0  0  0  0  0  0
    5.7360    1.4980   -0.1660 C   0  0  2  0  0  0  0  0  0  0  0  0
    6.0980    1.9050    1.0910 F   0  0  0  0  0  0  0  0  0  0  0  0
    4.5180    2.0270   -0.5100 F   0  0  0  0  0  0  0  0  0  0  0  0
  1  2  1  0
  2  3  2  3
  3  4  1  0
  3 29  1  0
  4  5  2  3
  5  6  1  0
  6  7  2  0
  6 27  1  0
  7  8  1  0
  7  9  1  0
  9 10  1  0
 10 11  1  0
 10 27  2  0
 11 12  2  0
 11 13  1  0
 13 14  1  0
 20 13  1  1
 15 14  1  6
 15 16  1  0
 15 19  1  0
 16 17  1  0
 17 18  1  0
 18 19  1  0
 20 21  1  0
 20 26  1  0
 21 22  1  0
 23 22  1  1
 23 24  2  0
 23 25  2  0
 23 26  1  0
 27 28  1  0
 29 30  1  1
 29 31  1  0
M  END
