
     RDKit          3D

 29 30  0  0  0  0  0  0  0  0999 V2000
    1.7930   -3.4420    0.6100 C   0  0  0  0  0  0  0  0  0  0  0  0
    1.8290   -2.0570    0.9910 O   0  0  0  0  0  0  0  0  0  0  0  0
    2.4780   -1.1520    0.1760 C   0  0  0  0  0  0  0  0  0  0  0  0
    3.0020   -1.5930   -0.8710 O   0  0  0  0  0  0  0  0  0  0  0  0
    2.5910    0.3070    0.4670 C   0  0  2  0  0  0  0  0  0  0  0  0
    3.1100    0.3780    1.8600 C   0  0  0  0  0  0  0  0  0  0  0  0
    4.4210   -0.3150    1.9380 N   0  0  0  0  0  0  0  0  0  0  0  0
    5.4650    0.2650    2.2820 O   0  0  0  0  0  0  0  0  0  0  0  0
    4.5120   -1.6490    1.6220 O   0  0  0  0  0  0  0  0  0  0  0  0
    1.5580    1.1330   -0.0830 C   0  0  2  0  0  0  0  0  0  0  0  0
    1.6760    0.9080   -1.5180 O   0  0  0  0  0  0  0  0  0  0  0  0
    2.0610    2.6100   -0.1840 C   0  0  0  0  0  0  0  0  0  0  0  0
    2.0890    3.2910    1.4500 S   0  0  0  0  0  0  0  0  0  0  0  0
    0.7380    2.5280    2.3350 C   0  0  0  0  0  0  0  0  0  0  0  0
   -0.3030    1.9180    1.4480 C   0  0  2  0  0  0  0  0  0  0  0  0
   -1.1280    1.0190    2.3570 C   0  0  0  0  0  0  0  0  0  0  0  0
   -2.2900    0.6060    1.7620 O   0  0  0  0  0  0  0  0  0  0  0  0
   -2.1440    0.6300    0.3410 C   0  0  2  0  0  0  0  0  0  0  0  0
   -3.3710    0.1300   -0.3180 C   0  0  0  0  0  0  0  0  0  0  0  0
   -4.4980    1.1150    0.1460 C   0  0  0  0  0  0  0  0  0  0  0  0
   -5.7030    0.7200   -0.4320 O   0  0  0  0  0  0  0  0  0  0  0  0
   -0.8080    0.0840   -0.0400 C   0  0  1  0  0  0  0  0  0  0  0  0
   -0.6740   -0.6260   -1.2970 C   0  0  0  0  0  0  0  0  0  0  0  0
   -1.4600   -1.8830   -1.5320 C   0  0  2  0  0  0  0  0  0  0  0  0
   -1.1340   -2.8360   -0.5320 O   0  0  0  0  0  0  0  0  0  0  0  0
   -0.9660   -2.5490   -2.8440 C   0  0  0  0  0  0  0  0  0  0  0  0
    0.3860   -2.7600   -2.7220 O   0  0  0  0  0  0  0  0  0  0  0  0
    0.1610    1.2300    0.2060 C   0  0  2  0  0  0  0  0  0  0  0  0
   -0.3130    2.1030   -0.8540 O   0  0  0  0  0  0  0  0  0  0  0  0
  1  2  1  0
  2  3  1  0
  3  4  2  0
  3  5  1  0
  5  6  1  1
  5 10  1  0
  6  7  1  0
  7  8  2  0
  7  9  1  0
 10 11  1  6
 10 12  1  0
 10 28  1  0
 12 13  1  0
 13 14  1  0
 15 14  1  1
 15 16  1  0
 15 28  1  0
 16 17  1  0
 17 18  1  0
 18 19  1  6
 18 22  1  0
 19 20  1  0
 20 21  1  0
 22 23  1  6
 22 28  1  0
 23 24  1  0
 24 25  1  1
 24 26  1  0
 26 27  1  0
 28 29  1  6
M  CHG  2   7   1   9  -1
M  END
