
     RDKit          3D

 30 32  0  0  0  0  0  0  0  0999 V2000
   -1.3160   -5.1350   -0.2660 C   0  0  0  0  0  0  0  0  0  0  0  0
   -2.1440   -3.9650   -0.2000 O   0  0  0  0  0  0  0  0  0  0  0  0
   -1.6010   -2.6940   -0.2840 C   0  0  0  0  0  0  0  0  0  0  0  0
   -0.3550   -2.6440   -0.4200 O   0  0  0  0  0  0  0  0  0  0  0  0
   -2.3500   -1.4570   -0.2280 C   0  0  0  0  0  0  0  0  0  0  0  0
   -1.6960   -0.2960   -0.3130 C   0  0  0  0  0  0  0  0  0  0  0  0
   -0.3100   -0.3330   -0.4520 O   0  0  0  0  0  0  0  0  0  0  0  0
    0.5570   -0.3210    0.6380 C   0  0  0  0  0  0  0  0  0  0  0  0
    0.0250   -0.2470    1.7970 O   0  0  0  0  0  0  0  0  0  0  0  0
    1.9890   -0.3950    0.4150 C   0  0  2  0  0  0  0  0  0  0  0  0
    2.7380   -0.4080    1.6160 O   0  0  0  0  0  0  0  0  0  0  0  0
    4.0220   -0.5610    1.0390 C   0  0  2  0  0  0  0  0  0  0  0  0
    5.0080   -0.4740    2.0190 O   0  0  0  0  0  0  0  0  0  0  0  0
    4.0690    0.6060    0.0900 C   0  0  1  0  0  0  0  0  0  0  0  0
    4.3610    1.8510    0.8720 C   0  0  0  0  0  0  0  0  0  0  0  0
    4.9630    0.4060   -0.9560 O   0  0  0  0  0  0  0  0  0  0  0  0
    2.6240    0.6440   -0.4360 C   0  0  1  0  0  0  0  0  0  0  0  0
    2.6630    0.2020   -1.8280 N   0  0  0  0  0  0  0  0  0  0  0  0
   -2.3600    0.9880   -0.2660 C   0  0  0  0  0  0  0  0  0  0  0  0
   -1.7450    2.1530   -0.3480 C   0  0  0  0  0  0  0  0  0  0  0  0
   -0.3790    2.2080   -0.4900 O   0  0  0  0  0  0  0  0  0  0  0  0
   -2.5120    3.4000   -0.2900 C   0  0  1  0  0  0  0  0  0  0  0  0
   -2.1060    4.2900    0.8740 C   0  0  0  0  0  0  0  0  0  0  0  0
   -2.2030    4.1340   -1.4580 O   0  0  0  0  0  0  0  0  0  0  0  0
   -3.7670    0.9460   -0.1220 O   0  0  0  0  0  0  0  0  0  0  0  0
   -4.4280   -0.2630   -0.0350 C   0  0  0  0  0  0  0  0  0  0  0  0
   -3.8330   -1.4390   -0.0770 C   0  0  0  0  0  0  0  0  0  0  0  0
   -4.7470   -2.5820    0.0480 C   0  0  0  0  0  0  0  0  0  0  0  0
   -5.9820   -2.2950   -0.5250 O   0  0  0  0  0  0  0  0  0  0  0  0
   -6.1810   -0.6900    0.1470 S   0  0  0  0  0  0  0  0  0  0  0  0
  1  2  1  0
  2  3  1  0
  3  4  2  0
  3  5  1  0
  5  6  2  0
  5 27  1  0
  6  7  1  0
  6 19  1  0
  7  8  1  0
  8  9  2  0
 10  8  1  1
 10 11  1  0
 10 17  1  0
 11 12  1  0
 12 13  1  1
 12 14  1  0
 14 15  1  1
 14 16  1  0
 14 17  1  0
 17 18  1  6
 19 20  2  3
 19 25  1  0
 20 21  1  0
 20 22  1  0
 22 23  1  1
 22 24  1  0
 25 26  1  0
 26 27  2  0
 26 30  1  0
 27 28  1  0
 28 29  1  0
 29 30  1  0
M  CHG  2  18   1  21  -1
M  END
