
     RDKit          3D

 30 32  0  0  0  0  0  0  0  0999 V2000
    6.0170    2.0210   -0.6170 C   0  0  0  0  0  0  0  0  0  0  0  0
    4.8860    2.7780   -0.4830 O   0  0  0  0  0  0  0  0  0  0  0  0
    4.1800    2.5450    0.6410 C   0  0  0  0  0  0  0  0  0  0  0  0
    3.6340    1.1700    0.8700 C   0  0  2  0  0  0  0  0  0  0  0  0
    4.6230    0.2110    0.9750 O   0  0  0  0  0  0  0  0  0  0  0  0
    2.6110    0.7810   -0.1810 C   0  0  0  0  0  0  0  0  0  0  0  0
    1.9960   -0.4250    0.1250 O   0  0  0  0  0  0  0  0  0  0  0  0
    1.0680   -0.7850   -0.8210 C   0  0  2  0  0  0  0  0  0  0  0  0
   -0.2880   -0.9400   -0.1510 C   0  0  0  0  0  0  0  0  0  0  0  0
   -1.3380   -1.2160   -1.1960 C   0  0  2  0  0  0  0  0  0  0  0  0
   -1.7180   -0.0500   -1.8430 O   0  0  0  0  0  0  0  0  0  0  0  0
   -2.4700   -1.8980   -0.5480 C   0  0  0  0  0  0  0  0  0  0  0  0
   -2.7430   -3.1730   -0.7450 C   0  0  0  0  0  0  0  0  0  0  0  0
   -1.9270   -4.4070   -1.7600 S   0  0  0  0  0  0  0  0  0  0  0  0
   -2.6680   -5.9220   -1.6150 O   0  0  0  0  0  0  0  0  0  0  0  0
   -3.9020   -3.4660    0.0900 C   0  0  0  0  0  0  0  0  0  0  0  0
   -4.4580   -4.6190    0.1590 O   0  0  0  0  0  0  0  0  0  0  0  0
   -4.2930   -2.3620    0.7650 O   0  0  0  0  0  0  0  0  0  0  0  0
   -3.3800   -1.2610    0.3910 C   0  0  0  0  0  0  0  0  0  0  0  0
   -3.5980   -0.1310    0.9330 C   0  0  0  0  0  0  0  0  0  0  0  0
   -3.1510    1.2010    1.0040 C   0  0  0  0  0  0  0  0  0  0  0  0
   -2.2320    1.8880    0.4780 N   0  0  0  0  0  0  0  0  0  0  0  0
   -2.2230    3.2290    0.9060 O   0  0  0  0  0  0  0  0  0  0  0  0
   -3.6010    3.5060    1.2500 C   0  0  0  0  0  0  0  0  0  0  0  0
   -3.8680    2.2180    1.9700 C   0  0  1  0  0  0  0  0  0  0  0  0
   -5.2170    1.9400    1.8860 O   0  0  0  0  0  0  0  0  0  0  0  0
   -0.5980   -2.0480   -2.2380 C   0  0  0  0  0  0  0  0  0  0  0  0
    0.3620   -2.8690   -1.6720 O   0  0  0  0  0  0  0  0  0  0  0  0
    1.5070   -2.1130   -1.4150 C   0  0  2  0  0  0  0  0  0  0  0  0
    2.3000   -2.8440   -0.5530 O   0  0  0  0  0  0  0  0  0  0  0  0
  1  2  1  0
  2  3  1  0
  3  4  1  0
  4  5  1  6
  4  6  1  0
  6  7  1  0
  8  7  1  1
  8  9  1  0
  8 29  1  0
  9 10  1  0
 10 11  1  6
 10 12  1  0
 10 27  1  0
 12 13  2  0
 12 19  1  0
 13 14  1  0
 13 16  1  0
 14 15  1  0
 16 17  2  0
 16 18  1  0
 18 19  1  0
 19 20  2  3
 20 21  1  0
 21 22  2  0
 21 25  1  0
 22 23  1  0
 23 24  1  0
 24 25  1  0
 25 26  1  6
 27 28  1  0
 28 29  1  0
 29 30  1  1
M  CHG  2  15  -1  22   1
M  END
