
     RDKit          3D

 31 33  0  0  0  0  0  0  0  0999 V2000
    4.5200    0.3990    2.3500 C   0  0  0  0  0  0  0  0  0  0  0  0
    5.3450    0.3920    1.1070 C   0  0  0  0  0  0  0  0  0  0  0  0
    4.5540    0.4150   -0.1740 C   0  0  0  0  0  0  0  0  0  0  0  0
    3.6450   -0.7540   -0.3280 C   0  0  0  0  0  0  0  0  0  0  0  0
    2.8780   -0.6760   -1.6400 C   0  0  0  0  0  0  0  0  0  0  0  0
    3.5560   -1.0270   -2.7900 C   0  0  0  0  0  0  0  0  0  0  0  0
    4.9340   -1.4830   -2.9990 C   0  0  0  0  0  0  0  0  0  0  0  0
    2.4250   -0.8270   -4.0510 S   0  0  0  0  0  0  0  0  0  0  0  0
    1.0440   -0.2690   -3.0140 C   0  0  0  0  0  0  0  0  0  0  0  0
   -0.2260    0.0930   -3.3310 N   0  0  0  0  0  0  0  0  0  0  0  0
   -1.0560    0.4810   -2.3150 C   0  0  0  0  0  0  0  0  0  0  0  0
   -2.2260    0.8230   -2.5410 O   0  0  0  0  0  0  0  0  0  0  0  0
   -0.5610    0.4780   -1.0720 N   0  0  0  0  0  0  0  0  0  0  0  0
   -1.4770    0.8940   -0.0420 C   0  0  0  0  0  0  0  0  0  0  0  0
   -2.4190    0.0490    0.4980 C   0  0  0  0  0  0  0  0  0  0  0  0
   -3.2850    0.4640    1.4830 C   0  0  0  0  0  0  0  0  0  0  0  0
   -4.2840   -0.3780    2.0770 C   0  0  0  0  0  0  0  0  0  0  0  0
   -5.0420    0.0980    2.9850 O   0  0  0  0  0  0  0  0  0  0  0  0
   -4.4360   -1.7970    1.6400 C   0  0  0  0  0  0  0  0  0  0  0  0
   -5.3880   -1.8840    0.4730 C   0  0  0  0  0  0  0  0  0  0  0  0
   -6.7540   -1.3640    0.8130 C   0  0  1  0  0  0  0  0  0  0  0  0
   -7.3390   -2.0510    1.8480 F   0  0  0  0  0  0  0  0  0  0  0  0
   -6.7470   -0.0170    1.0870 F   0  0  0  0  0  0  0  0  0  0  0  0
   -3.1610    1.7710    1.9010 C   0  0  0  0  0  0  0  0  0  0  0  0
   -2.2330    2.6510    1.3880 C   0  0  0  0  0  0  0  0  0  0  0  0
   -1.3680    2.1940    0.3870 C   0  0  0  0  0  0  0  0  0  0  0  0
   -0.4020    3.1530   -0.1330 C   0  0  0  0  0  0  0  0  0  0  0  0
    0.4190    2.8410   -1.0390 O   0  0  0  0  0  0  0  0  0  0  0  0
    0.6960    0.1200   -0.7480 C   0  0  0  0  0  0  0  0  0  0  0  0
    0.9990    0.1740    0.4540 O   0  0  0  0  0  0  0  0  0  0  0  0
    1.5940   -0.2900   -1.7730 C   0  0  0  0  0  0  0  0  0  0  0  0
  1  2  1  0
  2  3  1  0
  3  4  1  0
  4  5  1  0
  5  6  2  0
  5 31  1  0
  6  7  1  0
  6  8  1  0
  8  9  1  0
  9 10  1  0
  9 31  2  0
 10 11  1  0
 11 12  2  0
 11 13  1  0
 13 14  1  0
 13 29  1  0
 14 15  2  0
 14 26  1  0
 15 16  1  0
 16 17  1  0
 16 24  2  0
 17 18  2  0
 17 19  1  0
 19 20  1  0
 20 21  1  0
 21 22  1  1
 21 23  1  0
 24 25  1  0
 25 26  2  0
 26 27  1  0
 27 28  2  0
 29 30  2  0
 29 31  1  0
M  END
