
     RDKit          3D

 38 41  0  0  0  0  0  0  0  0999 V2000
   -7.2020    1.7080   -2.9410 C   0  0  0  0  0  0  0  0  0  0  0  0
   -5.8800    1.0280   -2.5740 C   0  0  1  0  0  0  0  0  0  0  0  0
   -4.7730    1.5010   -3.4610 C   0  0  0  0  0  0  0  0  0  0  0  0
   -3.6700    1.9770   -2.5360 C   0  0  0  0  0  0  0  0  0  0  0  0
   -4.4460    2.4600   -1.3480 C   0  0  0  0  0  0  0  0  0  0  0  0
   -5.5190    1.4220   -1.1760 C   0  0  2  0  0  0  0  0  0  0  0  0
   -5.0610    0.3070   -0.4170 O   0  0  0  0  0  0  0  0  0  0  0  0
   -5.7080   -0.0740    0.7480 C   0  0  0  0  0  0  0  0  0  0  0  0
   -6.7170    0.6420    1.0710 O   0  0  0  0  0  0  0  0  0  0  0  0
   -5.3290   -1.2040    1.6070 C   0  0  1  0  0  0  0  0  0  0  0  0
   -6.3510   -2.3190    1.5800 C   0  0  0  0  0  0  0  0  0  0  0  0
   -6.0930   -2.7830    0.1360 C   0  0  0  0  0  0  0  0  0  0  0  0
   -4.6030   -2.6120   -0.0080 C   0  0  0  0  0  0  0  0  0  0  0  0
   -3.9410   -3.0210   -0.9940 O   0  0  0  0  0  0  0  0  0  0  0  0
   -4.1570   -1.9230    1.1650 N   0  0  0  0  0  0  0  0  0  0  0  0
   -2.9900   -1.7810    1.9240 C   0  0  1  0  0  0  0  0  0  0  0  0
   -1.8150   -1.5020    1.0250 C   0  0  0  0  0  0  0  0  0  0  0  0
   -2.0420   -1.3870   -0.1920 O   0  0  0  0  0  0  0  0  0  0  0  0
   -0.5100   -1.3730    1.5190 N   0  0  0  0  0  0  0  0  0  0  0  0
    0.6670   -1.1090    0.7860 C   0  0  0  0  0  0  0  0  0  0  0  0
    0.7210   -0.7190   -0.5340 C   0  0  0  0  0  0  0  0  0  0  0  0
    1.9450   -0.5030   -1.1550 C   0  0  0  0  0  0  0  0  0  0  0  0
    3.1530   -0.6650   -0.4880 C   0  0  0  0  0  0  0  0  0  0  0  0
    3.1180   -1.0500    0.8240 C   0  0  0  0  0  0  0  0  0  0  0  0
    4.2550   -1.2240    1.5470 O   0  0  0  0  0  0  0  0  0  0  0  0
    5.5500   -1.0140    1.1480 C   0  0  0  0  0  0  0  0  0  0  0  0
    5.8070    0.4530    0.9030 C   0  0  1  0  0  0  0  0  0  0  0  0
    5.5770    1.1320    2.1320 O   0  0  0  0  0  0  0  0  0  0  0  0
    7.2390    0.5730    0.5380 C   0  0  0  0  0  0  0  0  0  0  0  0
    7.6350    0.0710   -0.5290 O   0  0  0  0  0  0  0  0  0  0  0  0
    8.1240    1.2270    1.3600 O   0  0  0  0  0  0  0  0  0  0  0  0
    9.5020    1.3950    1.0960 C   0  0  0  0  0  0  0  0  0  0  0  0
    9.6510    2.1800   -0.1810 C   0  0  0  0  0  0  0  0  0  0  0  0
   11.1420    2.3500   -0.4450 C   0  0  0  0  0  0  0  0  0  0  0  0
   11.8560    3.2100    0.9110 Cl  0  0  0  0  0  0  0  0  0  0  0  0
    1.8700   -1.2630    1.4280 C   0  0  0  0  0  0  0  0  0  0  0  0
   -3.0800   -0.6710    2.8820 C   0  0  0  0  0  0  0  0  0  0  0  0
   -4.8820   -0.6410    3.2410 S   0  0  0  0  0  0  0  0  0  0  0  0
  2  1  1  6
  2  3  1  0
  2  6  1  0
  3  4  1  0
  4  5  1  0
  5  6  1  0
  6  7  1  1
  7  8  1  0
  8  9  2  0
 10  8  1  6
 10 11  1  0
 10 15  1  0
 10 38  1  0
 11 12  1  0
 12 13  1  0
 13 14  2  0
 13 15  1  0
 15 16  1  0
 16 17  1  6
 16 37  1  0
 17 18  2  0
 17 19  1  0
 19 20  1  0
 20 21  2  0
 20 36  1  0
 21 22  1  0
 22 23  2  0
 23 24  1  0
 24 25  1  0
 24 36  2  0
 25 26  1  0
 26 27  1  0
 27 28  1  1
 27 29  1  0
 29 30  2  0
 29 31  1  0
 31 32  1  0
 32 33  1  0
 33 34  1  0
 34 35  1  0
 37 38  1  0
M  END
