
     RDKit          3D

 39 42  0  0  0  0  0  0  0  0999 V2000
   -6.7640    0.2950    0.5890 C   0  0  0  0  0  0  0  0  0  0  0  0
   -5.8580    0.8920    1.4380 O   0  0  0  0  0  0  0  0  0  0  0  0
   -5.3670    0.0070    2.3620 C   0  0  0  0  0  0  0  0  0  0  0  0
   -4.6190   -1.1610    1.8270 C   0  0  0  0  0  0  0  0  0  0  0  0
   -3.4070   -0.7440    1.0710 C   0  0  2  0  0  0  0  0  0  0  0  0
   -2.5010    0.0260    2.0120 C   0  0  0  0  0  0  0  0  0  0  0  0
   -3.6820    0.1400   -0.0500 N   0  0  0  0  0  0  0  0  0  0  0  0
   -3.8260   -0.4580   -1.3160 C   0  0  0  0  0  0  0  0  0  0  0  0
   -4.7360    0.0390   -2.0790 O   0  0  0  0  0  0  0  0  0  0  0  0
   -3.0020   -1.5840   -1.7630 C   0  0  1  0  0  0  0  0  0  0  0  0
   -2.2430   -1.3210   -3.0250 C   0  0  1  0  0  0  0  0  0  0  0  0
   -1.2630   -0.2270   -2.9780 C   0  0  0  0  0  0  0  0  0  0  0  0
   -0.0340   -0.4910   -3.2350 O   0  0  0  0  0  0  0  0  0  0  0  0
   -1.5100    1.1300   -2.6740 N   0  0  0  0  0  0  0  0  0  0  0  0
   -0.4780    2.1370   -2.6540 C   0  0  0  0  0  0  0  0  0  0  0  0
    0.5910    1.8460   -1.6790 C   0  0  0  0  0  0  0  0  0  0  0  0
    0.4930    0.8150   -0.9650 O   0  0  0  0  0  0  0  0  0  0  0  0
    1.7090    2.6180   -1.4790 O   0  0  0  0  0  0  0  0  0  0  0  0
    2.7100    2.3380   -0.5650 C   0  0  0  0  0  0  0  0  0  0  0  0
    2.7120    2.9080    0.6930 C   0  0  0  0  0  0  0  0  0  0  0  0
    3.6800    2.6580    1.6220 C   0  0  0  0  0  0  0  0  0  0  0  0
    4.7610    1.7740    1.3300 C   0  0  0  0  0  0  0  0  0  0  0  0
    5.6810    1.5650    2.2790 O   0  0  0  0  0  0  0  0  0  0  0  0
    6.8270    0.8980    2.5030 C   0  0  1  0  0  0  0  0  0  0  0  0
    7.9450    1.6390    3.2230 C   0  0  0  0  0  0  0  0  0  0  0  0
    7.5530    0.9840    4.5060 C   0  0  0  0  0  0  0  0  0  0  0  0
    6.8060   -0.0590    3.7230 C   0  0  0  0  0  0  0  0  0  0  0  0
    4.7420    1.2200    0.0780 C   0  0  0  0  0  0  0  0  0  0  0  0
    6.0390    0.1050   -0.3730 Cl  0  0  0  0  0  0  0  0  0  0  0  0
    3.7400    1.4850   -0.8710 C   0  0  0  0  0  0  0  0  0  0  0  0
   -1.5320   -2.6300   -3.3750 C   0  0  0  0  0  0  0  0  0  0  0  0
   -0.4690   -3.0460   -2.5550 C   0  0  0  0  0  0  0  0  0  0  0  0
    0.0520   -4.5910   -3.3280 S   0  0  0  0  0  0  0  0  0  0  0  0
   -1.1500   -4.5680   -4.6470 C   0  0  0  0  0  0  0  0  0  0  0  0
   -1.3330   -5.7740   -5.9090 Cl  0  0  0  0  0  0  0  0  0  0  0  0
   -1.8440   -3.4050   -4.4000 C   0  0  0  0  0  0  0  0  0  0  0  0
   -2.1720   -2.0120   -0.7140 O   0  0  0  0  0  0  0  0  0  0  0  0
   -2.6400   -1.9480    0.5820 C   0  0  0  0  0  0  0  0  0  0  0  0
   -2.4600   -2.8770    1.4310 O   0  0  0  0  0  0  0  0  0  0  0  0
  1  2  1  0
  2  3  1  0
  3  4  1  0
  4  5  1  0
  5  6  1  1
  5  7  1  0
  5 38  1  0
  7  8  1  0
  8  9  2  0
  8 10  1  0
 10 11  1  0
 10 37  1  1
 11 12  1  1
 11 31  1  0
 12 13  2  0
 12 14  1  0
 14 15  1  0
 15 16  1  0
 16 17  2  0
 16 18  1  0
 18 19  1  0
 19 20  2  0
 19 30  1  0
 20 21  1  0
 21 22  2  0
 22 23  1  0
 22 28  1  0
 24 23  1  1
 24 25  1  0
 24 27  1  0
 25 26  1  0
 26 27  1  0
 28 29  1  0
 28 30  2  0
 31 32  2  0
 31 36  1  0
 32 33  1  0
 33 34  1  0
 34 35  1  0
 34 36  2  0
 37 38  1  0
 38 39  2  0
M  END
