
     RDKit          3D

 39 41  0  0  0  0  0  0  0  0999 V2000
    9.5830    1.4630   -1.6000 C   0  0  0  0  0  0  0  0  0  0  0  0
    8.7660    0.3240   -1.3420 O   0  0  0  0  0  0  0  0  0  0  0  0
    9.2910   -0.8920   -0.9790 C   0  0  0  0  0  0  0  0  0  0  0  0
   10.5570   -0.9550   -0.8820 O   0  0  0  0  0  0  0  0  0  0  0  0
    8.4700   -2.0990   -0.7020 C   0  0  0  0  0  0  0  0  0  0  0  0
    7.0050   -1.7230   -0.9000 C   0  0  0  0  0  0  0  0  0  0  0  0
    6.7230   -0.6840    0.0150 O   0  0  0  0  0  0  0  0  0  0  0  0
    5.4520   -0.1470    0.0540 C   0  0  0  0  0  0  0  0  0  0  0  0
    4.5910   -0.6110   -0.7360 O   0  0  0  0  0  0  0  0  0  0  0  0
    5.0940    0.9470    0.9970 C   0  0  2  0  0  0  0  0  0  0  0  0
    5.3320    0.5030    2.4270 C   0  0  0  0  0  0  0  0  0  0  0  0
    4.2910   -0.5140    2.8580 C   0  0  0  0  0  0  0  0  0  0  0  0
    2.9220    0.1350    2.7790 C   0  0  0  0  0  0  0  0  0  0  0  0
    2.6950    0.5410    1.4210 N   0  0  0  0  0  0  0  0  0  0  0  0
    1.5230    0.1080    0.7320 C   0  0  0  0  0  0  0  0  0  0  0  0
    1.3660    0.5280   -0.4620 O   0  0  0  0  0  0  0  0  0  0  0  0
    0.5220   -0.7850    1.3560 C   0  0  2  0  0  0  0  0  0  0  0  0
    1.1630   -2.1460    1.5640 C   0  0  0  0  0  0  0  0  0  0  0  0
   -0.5720   -0.9130    0.4280 O   0  0  0  0  0  0  0  0  0  0  0  0
   -1.8560   -0.5180    0.8260 C   0  0  0  0  0  0  0  0  0  0  0  0
   -1.9410   -0.0670    2.0140 O   0  0  0  0  0  0  0  0  0  0  0  0
   -3.0380   -0.6140   -0.0560 C   0  0  2  0  0  0  0  0  0  0  0  0
   -2.6660   -1.0970   -1.3040 O   0  0  0  0  0  0  0  0  0  0  0  0
   -3.6910    0.7450   -0.2720 C   0  0  0  0  0  0  0  0  0  0  0  0
   -4.8420    0.6940   -1.0900 N   0  0  0  0  0  0  0  0  0  0  0  0
   -5.9890    0.0570   -0.5850 C   0  0  1  0  0  0  0  0  0  0  0  0
   -6.6920    0.6440    0.5440 C   0  0  0  0  0  0  0  0  0  0  0  0
   -6.5380    1.6450    1.3130 C   0  0  0  0  0  0  0  0  0  0  0  0
   -7.4800    1.9590    2.4040 C   0  0  0  0  0  0  0  0  0  0  0  0
   -7.2890    2.9960    3.1750 C   0  0  0  0  0  0  0  0  0  0  0  0
   -8.4250    3.3420    4.4610 Cl  0  0  0  0  0  0  0  0  0  0  0  0
   -5.9300    4.0900    2.9960 Cl  0  0  0  0  0  0  0  0  0  0  0  0
   -8.1220   -0.4990    0.5880 S   0  0  0  0  0  0  0  0  0  0  0  0
   -8.1800   -0.5990   -1.2330 C   0  0  0  0  0  0  0  0  0  0  0  0
   -6.9830   -0.2730   -1.6580 C   0  0  0  0  0  0  0  0  0  0  0  0
   -6.9890   -0.3390   -3.1770 C   0  0  0  0  0  0  0  0  0  0  0  0
   -8.4560   -0.1470   -3.4980 C   0  0  0  0  0  0  0  0  0  0  0  0
   -9.0970   -0.9140   -2.3590 C   0  0  0  0  0  0  0  0  0  0  0  0
    3.6740    1.3890    0.7760 C   0  0  0  0  0  0  0  0  0  0  0  0
  1  2  1  0
  2  3  1  0
  3  4  2  0
  3  5  1  0
  5  6  1  0
  6  7  1  0
  7  8  1  0
  8  9  2  0
 10  8  1  6
 10 11  1  0
 10 39  1  0
 11 12  1  0
 12 13  1  0
 13 14  1  0
 14 15  1  0
 14 39  1  0
 15 16  2  0
 15 17  1  0
 17 18  1  6
 17 19  1  0
 19 20  1  0
 20 21  2  0
 20 22  1  0
 22 23  1  6
 22 24  1  0
 24 25  1  0
 26 25  1  6
 26 27  1  0
 26 35  1  0
 27 28  2  3
 27 33  1  0
 28 29  1  0
 29 30  2  3
 30 31  1  0
 30 32  1  0
 33 34  1  0
 34 35  2  0
 34 38  1  0
 35 36  1  0
 36 37  1  0
 37 38  1  0
M  END
