
     RDKit          3D

 39 42  0  0  0  0  0  0  0  0999 V2000
   -2.6350   -7.2920    1.8690 C   0  0  0  0  0  0  0  0  0  0  0  0
   -3.5260   -6.3960    0.5940 S   0  0  0  0  0  0  0  0  0  0  0  0
   -2.6510   -4.8820    0.1130 C   0  0  0  0  0  0  0  0  0  0  0  0
   -2.6460   -3.9840    1.2340 N   0  0  0  0  0  0  0  0  0  0  0  0
   -2.0180   -2.6840    1.1640 C   0  0  0  0  0  0  0  0  0  0  0  0
   -1.4980   -2.4150    0.0780 O   0  0  0  0  0  0  0  0  0  0  0  0
   -2.0130   -1.7750    2.3040 C   0  0  0  0  0  0  0  0  0  0  0  0
   -1.3810   -0.5610    2.2310 O   0  0  0  0  0  0  0  0  0  0  0  0
   -1.6190    0.4750    1.3680 C   0  0  0  0  0  0  0  0  0  0  0  0
   -0.9250    0.7640    0.2190 C   0  0  0  0  0  0  0  0  0  0  0  0
    0.1550   -0.0500   -0.1430 O   0  0  0  0  0  0  0  0  0  0  0  0
    0.8590    0.2520   -1.3100 C   0  0  0  0  0  0  0  0  0  0  0  0
    1.9810   -0.7110   -1.5490 C   0  0  0  0  0  0  0  0  0  0  0  0
    2.6480   -0.5050   -2.5870 O   0  0  0  0  0  0  0  0  0  0  0  0
    2.2660   -1.7410   -0.7050 O   0  0  0  0  0  0  0  0  0  0  0  0
    3.3220   -2.6390   -0.9320 C   0  0  0  0  0  0  0  0  0  0  0  0
    4.6460   -1.9230   -0.9470 C   0  0  2  0  0  0  0  0  0  0  0  0
    5.6560   -2.8720   -1.1700 O   0  0  0  0  0  0  0  0  0  0  0  0
    6.8060   -2.2840   -0.6740 C   0  0  0  0  0  0  0  0  0  0  0  0
    6.3720   -1.6720    0.6170 C   0  0  2  0  0  0  0  0  0  0  0  0
    6.4090   -2.6980    1.7360 C   0  0  0  0  0  0  0  0  0  0  0  0
    5.0910   -2.4550    2.4100 C   0  0  0  0  0  0  0  0  0  0  0  0
    4.2000   -2.0590    1.4230 O   0  0  0  0  0  0  0  0  0  0  0  0
    4.9210   -1.4010    0.4530 C   0  0  2  0  0  0  0  0  0  0  0  0
   -1.2550    1.8290   -0.5800 C   0  0  0  0  0  0  0  0  0  0  0  0
   -2.3120    2.6900   -0.2810 C   0  0  0  0  0  0  0  0  0  0  0  0
   -2.5710    3.8340   -1.1320 C   0  0  0  0  0  0  0  0  0  0  0  0
   -2.2550    3.7270   -2.3910 O   0  0  0  0  0  0  0  0  0  0  0  0
   -3.1280    5.0790   -0.7650 N   0  0  0  0  0  0  0  0  0  0  0  0
   -3.3290    6.1190   -1.7550 C   0  0  0  0  0  0  0  0  0  0  0  0
   -4.4540    6.7010   -2.1160 C   0  0  0  0  0  0  0  0  0  0  0  0
   -4.2390    7.7220   -3.1670 C   0  0  0  0  0  0  0  0  0  0  0  0
   -2.7720    7.6460   -3.3700 C   0  0  0  0  0  0  0  0  0  0  0  0
   -2.2770    6.7210   -2.5490 C   0  0  0  0  0  0  0  0  0  0  0  0
   -0.5620    6.3490   -2.5050 Cl  0  0  0  0  0  0  0  0  0  0  0  0
   -3.0190    2.4260    0.8550 C   0  0  0  0  0  0  0  0  0  0  0  0
   -4.2060    3.2090    1.2910 C   0  0  0  0  0  0  0  0  0  0  0  0
   -2.6780    1.3480    1.6540 C   0  0  0  0  0  0  0  0  0  0  0  0
   -3.6090    1.0360    3.1160 Cl  0  0  0  0  0  0  0  0  0  0  0  0
  1  2  1  0
  2  3  1  0
  3  4  1  0
  4  5  1  0
  5  6  2  0
  5  7  1  0
  7  8  1  0
  8  9  1  0
  9 10  2  0
  9 38  1  0
 10 11  1  0
 10 25  1  0
 11 12  1  0
 12 13  1  0
 13 14  2  0
 13 15  1  0
 15 16  1  0
 17 16  1  1
 17 18  1  0
 17 24  1  0
 18 19  1  0
 20 19  1  6
 20 21  1  0
 20 24  1  0
 21 22  1  0
 22 23  1  0
 24 23  1  1
 25 26  2  0
 26 27  1  0
 26 36  1  0
 27 28  2  0
 27 29  1  0
 29 30  1  0
 30 31  2  0
 30 34  1  0
 31 32  1  0
 32 33  1  0
 33 34  2  0
 34 35  1  0
 36 37  1  0
 36 38  2  0
 38 39  1  0
M  END
