
     RDKit          3D

 39 44  0  0  0  0  0  0  0  0999 V2000
    5.7270    1.0040    2.4770 O   0  0  0  0  0  0  0  0  0  0  0  0
    5.2430    2.1040    2.1330 C   0  0  0  0  0  0  0  0  0  0  0  0
    3.9300    2.5150    2.5900 C   0  0  0  0  0  0  0  0  0  0  0  0
    3.1550    1.6320    3.4740 C   0  0  0  0  0  0  0  0  0  0  0  0
    2.8490    0.3040    2.8860 C   0  0  0  0  0  0  0  0  0  0  0  0
    3.5690   -0.8410    3.1480 C   0  0  0  0  0  0  0  0  0  0  0  0
    3.2290   -2.0440    2.5350 C   0  0  0  0  0  0  0  0  0  0  0  0
    2.1800   -2.1590    1.6530 C   0  0  0  0  0  0  0  0  0  0  0  0
    2.0200   -3.4480    1.1620 C   0  0  0  0  0  0  0  0  0  0  0  0
    0.9390   -4.0240    0.5320 C   0  0  0  0  0  0  0  0  0  0  0  0
   -0.1540   -3.3590   -0.0170 C   0  0  0  0  0  0  0  0  0  0  0  0
   -1.0350   -4.2020   -0.6020 N   0  0  0  0  0  0  0  0  0  0  0  0
   -2.1600   -3.7610   -1.1950 C   0  0  0  0  0  0  0  0  0  0  0  0
   -2.3960   -2.4070   -1.1910 C   0  0  0  0  0  0  0  0  0  0  0  0
   -3.6010   -1.8840   -1.8210 C   0  0  0  0  0  0  0  0  0  0  0  0
   -4.2730   -2.3900   -2.9140 C   0  0  0  0  0  0  0  0  0  0  0  0
   -5.3150   -1.5850   -3.1340 N   0  0  0  0  0  0  0  0  0  0  0  0
   -5.3300   -0.6040   -2.2370 N   0  0  0  0  0  0  0  0  0  0  0  0
   -6.3530    0.4250   -2.2330 C   0  0  2  0  0  0  0  0  0  0  0  0
   -5.8890    1.6490   -1.4810 C   0  0  0  0  0  0  0  0  0  0  0  0
   -6.9300    2.7180   -1.6560 C   0  0  0  0  0  0  0  0  0  0  0  0
   -8.2730    2.2290   -1.4240 N   0  0  0  0  0  0  0  0  0  0  0  0
   -8.2760    0.9560   -0.7360 C   0  0  0  0  0  0  0  0  0  0  0  0
   -7.5830   -0.1110   -1.5650 C   0  0  0  0  0  0  0  0  0  0  0  0
   -4.2730   -0.7580   -1.3980 C   0  0  0  0  0  0  0  0  0  0  0  0
   -1.5170   -1.5290   -0.6030 C   0  0  0  0  0  0  0  0  0  0  0  0
   -0.3810   -1.9960   -0.0070 C   0  0  0  0  0  0  0  0  0  0  0  0
    0.3710   -0.9550    0.5280 C   0  0  0  0  0  0  0  0  0  0  0  0
    0.0600    0.2240    0.2170 O   0  0  0  0  0  0  0  0  0  0  0  0
    1.4530   -1.0240    1.3850 C   0  0  0  0  0  0  0  0  0  0  0  0
    1.7810    0.1670    1.9840 C   0  0  0  0  0  0  0  0  0  0  0  0
    6.0670    2.8990    1.2790 N   0  0  0  0  0  0  0  0  0  0  0  0
    7.3570    2.4020    0.8790 C   0  0  0  0  0  0  0  0  0  0  0  0
    7.1750    1.3640   -0.1700 C   0  0  0  0  0  0  0  0  0  0  0  0
    7.1870    1.7190   -1.4950 C   0  0  0  0  0  0  0  0  0  0  0  0
    7.0160    0.7470   -2.4600 C   0  0  0  0  0  0  0  0  0  0  0  0
    6.8370   -0.5690   -2.0870 C   0  0  0  0  0  0  0  0  0  0  0  0
    6.8310   -0.8820   -0.7590 C   0  0  0  0  0  0  0  0  0  0  0  0
    6.9960    0.0650    0.1500 N   0  0  0  0  0  0  0  0  0  0  0  0
  1  2  2  0
  2  3  1  0
  2 32  1  0
  3  4  1  0
  4  5  1  0
  5  6  2  0
  5 31  1  0
  6  7  1  0
  7  8  2  0
  8  9  1  0
  8 30  1  0
  9 10  2  0
 10 11  1  0
 11 12  2  0
 11 27  1  0
 12 13  1  0
 13 14  2  0
 14 15  1  0
 14 26  1  0
 15 16  1  0
 15 25  2  0
 16 17  2  0
 17 18  1  0
 19 18  1  1
 18 25  1  0
 19 20  1  0
 19 24  1  0
 20 21  1  0
 21 22  1  0
 22 23  1  0
 23 24  1  0
 26 27  2  0
 27 28  1  0
 28 29  2  0
 28 30  1  0
 30 31  2  0
 32 33  1  0
 33 34  1  0
 34 35  2  0
 34 39  1  0
 35 36  1  0
 36 37  2  0
 37 38  1  0
 38 39  2  0
M  CHG  1  22   1
M  END
