
     RDKit          3D

 39 42  0  0  0  0  0  0  0  0999 V2000
   -4.4740   -0.3590    3.5430 C   0  0  0  0  0  0  0  0  0  0  0  0
   -5.2700    0.2200    2.3790 C   0  0  1  0  0  0  0  0  0  0  0  0
   -4.6720   -0.0130    1.1700 O   0  0  0  0  0  0  0  0  0  0  0  0
   -5.5270    0.0230    0.0850 C   0  0  1  0  0  0  0  0  0  0  0  0
   -4.8090   -0.5280   -1.1570 C   0  0  0  0  0  0  0  0  0  0  0  0
   -5.7120   -0.4840   -2.2880 N   0  0  0  0  0  0  0  0  0  0  0  0
   -4.8110   -1.1260   -3.6400 S   0  0  1  0  0  0  0  0  0  0  0  0
   -4.3320   -2.4940   -3.2350 O   0  0  0  0  0  0  0  0  0  0  0  0
   -5.6690   -1.1920   -4.8710 O   0  0  0  0  0  0  0  0  0  0  0  0
   -3.4390   -0.0500   -3.8720 C   0  0  0  0  0  0  0  0  0  0  0  0
   -3.5640    1.0160   -4.7100 C   0  0  0  0  0  0  0  0  0  0  0  0
   -2.4620    1.8290   -4.8580 C   0  0  0  0  0  0  0  0  0  0  0  0
   -1.2840    1.5890   -4.1970 C   0  0  0  0  0  0  0  0  0  0  0  0
    0.0600    2.6800   -4.4510 Cl  0  0  0  0  0  0  0  0  0  0  0  0
   -1.1370    0.4880   -3.3240 C   0  0  0  0  0  0  0  0  0  0  0  0
    0.0930    0.2890   -2.6730 N   0  0  0  0  0  0  0  0  0  0  0  0
    0.3810   -0.7510   -1.7800 C   0  0  0  0  0  0  0  0  0  0  0  0
   -0.4970   -1.6090   -1.4930 O   0  0  0  0  0  0  0  0  0  0  0  0
    1.7180   -0.8480   -1.1660 C   0  0  0  0  0  0  0  0  0  0  0  0
    2.7870   -0.2890   -1.7950 C   0  0  0  0  0  0  0  0  0  0  0  0
    4.0750   -0.3380   -1.2630 C   0  0  0  0  0  0  0  0  0  0  0  0
    4.2580   -0.9740   -0.0660 C   0  0  0  0  0  0  0  0  0  0  0  0
    5.5910   -1.0740    0.5750 C   0  0  0  0  0  0  0  0  0  0  0  0
    5.7250   -1.6620    1.6750 O   0  0  0  0  0  0  0  0  0  0  0  0
    6.7070   -0.5380   -0.0010 O   0  0  0  0  0  0  0  0  0  0  0  0
    8.0230   -0.5180    0.4390 C   0  0  0  0  0  0  0  0  0  0  0  0
    8.1610    0.2850    1.7000 C   0  0  2  0  0  0  0  0  0  0  0  0
    9.6110    0.3880    2.1430 C   0  0  0  0  0  0  0  0  0  0  0  0
    9.4310    0.3690    3.6630 C   0  0  0  0  0  0  0  0  0  0  0  0
    8.2540   -0.5550    3.7880 C   0  0  0  0  0  0  0  0  0  0  0  0
    7.4420   -0.1990    2.7440 O   0  0  0  0  0  0  0  0  0  0  0  0
    3.1970   -1.5460    0.5900 C   0  0  0  0  0  0  0  0  0  0  0  0
    1.9080   -1.4870    0.0400 C   0  0  0  0  0  0  0  0  0  0  0  0
   -2.2350   -0.2940   -3.1980 C   0  0  0  0  0  0  0  0  0  0  0  0
   -6.8430   -0.6400    0.2910 C   0  0  0  0  0  0  0  0  0  0  0  0
   -7.0060   -1.2210    1.5460 O   0  0  0  0  0  0  0  0  0  0  0  0
   -6.6830   -0.2380    2.4800 C   0  0  2  0  0  0  0  0  0  0  0  0
   -7.6290    0.9500    2.3720 C   0  0  0  0  0  0  0  0  0  0  0  0
   -9.2850    0.3320    2.4990 Cl  0  0  0  0  0  0  0  0  0  0  0  0
  2  1  1  1
  2  3  1  0
  2 37  1  0
  3  4  1  0
  4  5  1  6
  4 35  1  0
  5  6  1  0
  7  6  1  1
  7  8  2  0
  7  9  2  0
  7 10  1  0
 10 11  2  0
 10 34  1  0
 11 12  1  0
 12 13  2  0
 13 14  1  0
 13 15  1  0
 15 16  1  0
 15 34  2  0
 16 17  1  0
 17 18  2  0
 17 19  1  0
 19 20  2  0
 19 33  1  0
 20 21  1  0
 21 22  2  0
 22 23  1  0
 22 32  1  0
 23 24  2  0
 23 25  1  0
 25 26  1  0
 27 26  1  6
 27 28  1  0
 27 31  1  0
 28 29  1  0
 29 30  1  0
 30 31  1  0
 32 33  2  0
 35 36  1  0
 36 37  1  0
 37 38  1  6
 38 39  1  0
M  END
