
     RDKit          3D

 39 42  0  0  0  0  0  0  0  0999 V2000
   -7.9140    1.4810    1.6880 C   0  0  0  0  0  0  0  0  0  0  0  0
   -6.7510    0.9710    0.9430 C   0  0  0  0  0  0  0  0  0  0  0  0
   -5.6260    1.2180    1.3660 O   0  0  0  0  0  0  0  0  0  0  0  0
   -6.9360    0.1690   -0.2990 C   0  0  2  0  0  0  0  0  0  0  0  0
   -7.6960   -1.0860   -0.0210 C   0  0  0  0  0  0  0  0  0  0  0  0
   -7.2070   -2.3150   -0.6790 C   0  0  0  0  0  0  0  0  0  0  0  0
   -6.1530   -2.1460   -1.5530 O   0  0  0  0  0  0  0  0  0  0  0  0
   -5.1130   -1.4020   -1.0160 C   0  0  1  0  0  0  0  0  0  0  0  0
   -4.6290   -1.8480    0.3160 C   0  0  0  0  0  0  0  0  0  0  0  0
   -4.1890   -3.1630    0.2270 O   0  0  0  0  0  0  0  0  0  0  0  0
   -3.9800   -1.4020   -2.0250 C   0  0  0  0  0  0  0  0  0  0  0  0
   -2.8140   -0.6710   -1.5580 N   0  0  0  0  0  0  0  0  0  0  0  0
   -2.6250    0.7440   -1.7180 C   0  0  0  0  0  0  0  0  0  0  0  0
   -3.0460    1.4980   -2.6050 O   0  0  0  0  0  0  0  0  0  0  0  0
   -1.7870    1.1650   -0.5560 C   0  0  0  0  0  0  0  0  0  0  0  0
   -0.8020    0.0150   -0.5420 C   0  0  1  0  0  0  0  0  0  0  0  0
   -0.1150   -0.1440    0.7170 N   0  0  0  0  0  0  0  0  0  0  0  0
    1.2310    0.1890    0.8420 C   0  0  0  0  0  0  0  0  0  0  0  0
    1.8720    0.6380   -0.1280 O   0  0  0  0  0  0  0  0  0  0  0  0
    2.0220    0.0350    2.1460 C   0  0  0  0  0  0  0  0  0  0  0  0
    3.2060    0.4560    1.9890 O   0  0  0  0  0  0  0  0  0  0  0  0
    4.4310    0.8900    1.8250 C   0  0  0  0  0  0  0  0  0  0  0  0
    5.3700    0.5110    0.9200 C   0  0  0  0  0  0  0  0  0  0  0  0
    6.6490    1.0140    0.7990 C   0  0  0  0  0  0  0  0  0  0  0  0
    7.6010    0.6880   -0.0470 O   0  0  0  0  0  0  0  0  0  0  0  0
    7.7610   -0.1980   -1.1070 C   0  0  0  0  0  0  0  0  0  0  0  0
    9.1030   -0.0250   -1.6640 C   0  0  0  0  0  0  0  0  0  0  0  0
   10.3340    0.0820   -1.1170 C   0  0  0  0  0  0  0  0  0  0  0  0
   11.4020    0.2420   -1.8970 C   0  0  0  0  0  0  0  0  0  0  0  0
   11.2330    0.2950   -3.2670 C   0  0  0  0  0  0  0  0  0  0  0  0
    9.4580    0.1080   -3.4500 S   0  0  0  0  0  0  0  0  0  0  0  0
    6.9990    2.0340    1.7290 C   0  0  0  0  0  0  0  0  0  0  0  0
    8.6240    2.7430    1.6450 Cl  0  0  0  0  0  0  0  0  0  0  0  0
    6.0980    2.4370    2.6410 C   0  0  0  0  0  0  0  0  0  0  0  0
    4.8360    1.9330    2.7510 C   0  0  0  0  0  0  0  0  0  0  0  0
    3.6800    2.4610    3.9420 Cl  0  0  0  0  0  0  0  0  0  0  0  0
   -1.6420   -1.1490   -0.9030 C   0  0  0  0  0  0  0  0  0  0  0  0
   -1.3820   -2.3790   -0.6750 O   0  0  0  0  0  0  0  0  0  0  0  0
   -5.6380    0.0360   -0.9860 C   0  0  0  0  0  0  0  0  0  0  0  0
  1  2  1  0
  2  3  2  0
  4  2  1  1
  4  5  1  0
  4 39  1  0
  5  6  1  0
  6  7  1  0
  7  8  1  0
  8  9  1  1
  8 11  1  0
  8 39  1  0
  9 10  1  0
 11 12  1  0
 12 13  1  0
 12 37  1  0
 13 14  2  0
 13 15  1  0
 15 16  1  0
 16 17  1  1
 16 37  1  0
 17 18  1  0
 18 19  2  0
 18 20  1  0
 20 21  1  0
 21 22  1  0
 22 23  2  0
 22 35  1  0
 23 24  1  0
 24 25  1  0
 24 32  2  0
 25 26  1  0
 26 27  1  0
 27 28  2  0
 27 31  1  0
 28 29  1  0
 29 30  2  0
 30 31  1  0
 32 33  1  0
 32 34  1  0
 34 35  2  0
 35 36  1  0
 37 38  2  0
M  END
