
     RDKit          3D

 35 36  0  0  0  0  0  0  0  0999 V2000
   -0.7240   -4.8850    0.7350 C   0  0  0  0  0  0  0  0  0  0  0  0
    0.3570   -4.0440    0.2170 N   0  0  0  0  0  0  0  0  0  0  0  0
    1.6850   -4.6350    0.2240 C   0  0  0  0  0  0  0  0  0  0  0  0
    1.8730   -5.9360    0.7060 N   0  0  0  0  0  0  0  0  0  0  0  0
    2.6180   -3.9480   -0.2080 O   0  0  0  0  0  0  0  0  0  0  0  0
    0.2130   -2.7320   -0.2710 C   0  0  0  0  0  0  0  0  0  0  0  0
    1.3290   -2.2310   -0.7100 O   0  0  0  0  0  0  0  0  0  0  0  0
   -0.9420   -1.9470   -0.3380 N   0  0  0  0  0  0  0  0  0  0  0  0
   -2.1390   -2.4150    0.2070 N   0  0  0  0  0  0  0  0  0  0  0  0
   -3.4660   -2.3400   -0.3350 C   0  0  0  0  0  0  0  0  0  0  0  0
   -4.3450   -3.0900    0.1220 O   0  0  0  0  0  0  0  0  0  0  0  0
   -3.9320   -1.4730   -1.3850 N   0  0  0  0  0  0  0  0  0  0  0  0
   -3.0980   -0.4530   -2.0250 C   0  0  0  0  0  0  0  0  0  0  0  0
   -2.1140    0.1250   -1.0170 C   0  0  2  0  0  0  0  0  0  0  0  0
   -2.6030    0.2180    0.2230 O   0  0  0  0  0  0  0  0  0  0  0  0
   -3.6340    0.9640    0.5990 C   0  0  0  0  0  0  0  0  0  0  0  0
   -3.6350    2.4360    0.4370 C   0  0  0  0  0  0  0  0  0  0  0  0
   -3.5200    2.8600   -0.8640 O   0  0  0  0  0  0  0  0  0  0  0  0
   -3.5220    4.5610   -1.0480 P   0  0  0  0  0  0  0  0  0  0  0  0
   -2.4620    5.3560    0.0680 O   0  0  0  0  0  0  0  0  0  0  0  0
   -5.1170    5.2360   -1.0030 O   0  0  0  0  0  0  0  0  0  0  0  0
   -1.6510    1.3630   -1.4990 O   0  0  0  0  0  0  0  0  0  0  0  0
   -0.3460    1.5760   -1.0720 C   0  0  0  0  0  0  0  0  0  0  0  0
    0.2510    2.6690   -1.1440 O   0  0  0  0  0  0  0  0  0  0  0  0
    0.1700    0.2780   -0.5340 C   0  0  1  0  0  0  0  0  0  0  0  0
    0.2970    0.4160    0.9360 C   0  0  0  0  0  0  0  0  0  0  0  0
    1.1770    1.4430    1.2430 O   0  0  0  0  0  0  0  0  0  0  0  0
    2.4530    1.2940    0.7740 C   0  0  0  0  0  0  0  0  0  0  0  0
    3.2260    2.5290    1.2470 C   0  0  0  0  0  0  0  0  0  0  0  0
    4.6650    2.4510    0.7690 C   0  0  0  0  0  0  0  0  0  0  0  0
    5.2300    1.3040    1.3030 O   0  0  0  0  0  0  0  0  0  0  0  0
    6.8680    1.0810    0.8460 P   0  0  0  0  0  0  0  0  0  0  0  0
    7.0480    0.1540   -0.6000 O   0  0  0  0  0  0  0  0  0  0  0  0
    7.7460    2.5510    0.7280 O   0  0  0  0  0  0  0  0  0  0  0  0
   -0.8260   -0.6910   -1.0160 C   0  0  1  0  0  0  0  0  0  0  0  0
  1  2  1  0
  2  3  1  0
  2  6  1  0
  3  4  1  0
  3  5  2  0
  6  7  2  0
  6  8  1  0
  8  9  1  0
 35  8  1  1
  9 10  1  0
 10 11  2  0
 10 12  1  0
 12 13  1  0
 13 14  1  0
 14 15  1  1
 14 22  1  0
 14 35  1  0
 15 16  1  0
 16 17  1  0
 17 18  1  0
 18 19  1  0
 19 20  1  0
 19 21  1  0
 22 23  1  0
 23 24  2  0
 23 25  1  0
 25 26  1  1
 25 35  1  0
 26 27  1  0
 27 28  1  0
 28 29  1  0
 29 30  1  0
 30 31  1  0
 31 32  1  0
 32 33  1  0
 32 34  1  0
M  END
