
     RDKit          3D

 36 36  0  0  0  0  0  0  0  0999 V2000
    2.8010    0.6450   -2.5240 N   0  0  0  0  0  0  0  0  0  0  0  0
    3.3280    0.5730   -1.3450 C   0  0  0  0  0  0  0  0  0  0  0  0
    4.7430    0.5300   -1.2420 N   0  0  0  0  0  0  0  0  0  0  0  0
    5.7560    0.5860   -2.7270 P   0  0  0  0  0  0  0  0  0  0  0  0
    5.2750   -0.7110   -3.7520 O   0  0  0  0  0  0  0  0  0  0  0  0
    7.4260    0.4870   -2.2750 O   0  0  0  0  0  0  0  0  0  0  0  0
    2.5050    0.5400   -0.1720 N   0  0  0  0  0  0  0  0  0  0  0  0
    2.7820   -0.4990    0.8030 C   0  0  0  0  0  0  0  0  0  0  0  0
    2.1460   -1.7840    0.4810 C   0  0  0  0  0  0  0  0  0  0  0  0
    2.5620   -2.3920   -0.5440 O   0  0  0  0  0  0  0  0  0  0  0  0
    1.1030   -2.4160    1.2130 N   0  0  0  0  0  0  0  0  0  0  0  0
    0.8100   -3.7910    1.0070 C   0  0  0  0  0  0  0  0  0  0  0  0
   -0.1110   -4.3110    1.6680 O   0  0  0  0  0  0  0  0  0  0  0  0
    1.5070   -4.5730    0.1020 O   0  0  0  0  0  0  0  0  0  0  0  0
    0.3500   -1.6660    2.1650 C   0  0  0  0  0  0  0  0  0  0  0  0
   -1.1120   -1.5460    1.9070 C   0  0  0  0  0  0  0  0  0  0  0  0
   -1.4990   -1.4200    0.5990 O   0  0  0  0  0  0  0  0  0  0  0  0
   -2.5180   -0.4370    0.4550 C   0  0  1  0  0  0  0  0  0  0  0  0
   -2.5120   -0.0300   -0.9180 N   0  0  0  0  0  0  0  0  0  0  0  0
   -3.2800    1.1560   -1.1540 C   0  0  0  0  0  0  0  0  0  0  0  0
   -3.4870    1.4880   -2.6130 C   0  0  0  0  0  0  0  0  0  0  0  0
   -4.2550    2.6730   -2.6330 O   0  0  0  0  0  0  0  0  0  0  0  0
   -3.7650   -1.0330    0.9550 C   0  0  1  0  0  0  0  0  0  0  0  0
   -3.6630   -1.2460    2.3650 O   0  0  0  0  0  0  0  0  0  0  0  0
   -5.0710   -0.5410    0.5600 C   0  0  0  0  0  0  0  0  0  0  0  0
   -5.8050   -0.0050    1.4370 O   0  0  0  0  0  0  0  0  0  0  0  0
   -5.6160   -0.6120   -0.7260 O   0  0  0  0  0  0  0  0  0  0  0  0
   -2.0260    0.7550    1.2230 C   0  0  0  0  0  0  0  0  0  0  0  0
   -2.7160    1.3290    2.0830 O   0  0  0  0  0  0  0  0  0  0  0  0
   -0.7550    1.2120    0.9450 O   0  0  0  0  0  0  0  0  0  0  0  0
    0.0590    0.8910   -0.1320 C   0  0  0  0  0  0  0  0  0  0  0  0
    1.4500    1.5130   -0.0090 C   0  0  1  0  0  0  0  0  0  0  0  0
    1.5610    2.2820    1.3060 C   0  0  0  0  0  0  0  0  0  0  0  0
    0.5040    3.2060    1.3990 O   0  0  0  0  0  0  0  0  0  0  0  0
    0.5560    4.1000    2.8590 P   0  0  0  0  0  0  0  0  0  0  0  0
    1.7400    5.0090    3.2590 O   0  0  0  0  0  0  0  0  0  0  0  0
  1  2  2  0
  2  3  1  0
  2  7  1  0
  3  4  1  0
  4  5  1  0
  4  6  1  0
  7  8  1  0
  7 32  1  0
  8  9  1  0
  9 10  2  0
  9 11  1  0
 11 12  1  0
 11 15  1  0
 12 13  2  0
 12 14  1  0
 15 16  1  0
 16 17  1  0
 17 18  1  0
 18 19  1  6
 18 23  1  0
 18 28  1  0
 19 20  1  0
 20 21  1  0
 21 22  1  0
 23 24  1  1
 23 25  1  0
 25 26  2  0
 25 27  1  0
 28 29  2  0
 28 30  1  0
 30 31  1  0
 31 32  1  0
 32 33  1  1
 33 34  1  0
 34 35  1  0
 35 36  2  0
M  END
