
     RDKit          3D

 36 38  0  0  0  0  0  0  0  0999 V2000
    8.1800    3.0410   -0.7460 N   0  0  0  0  0  0  0  0  0  0  0  0
    8.0470    1.8780   -0.3930 C   0  0  0  0  0  0  0  0  0  0  0  0
    6.7430    1.5410   -0.0570 N   0  0  0  0  0  0  0  0  0  0  0  0
    6.0230    0.3720   -0.2650 C   0  0  0  0  0  0  0  0  0  0  0  0
    6.6710   -0.4580   -0.8880 O   0  0  0  0  0  0  0  0  0  0  0  0
    4.6500    0.2260    0.2060 C   0  0  0  0  0  0  0  0  0  0  0  0
    4.0850   -0.7500   -0.6450 O   0  0  0  0  0  0  0  0  0  0  0  0
    2.7920   -1.1200   -0.6090 C   0  0  0  0  0  0  0  0  0  0  0  0
    2.3610   -2.0780   -1.5010 C   0  0  0  0  0  0  0  0  0  0  0  0
    1.0760   -2.4870   -1.5170 N   0  0  0  0  0  0  0  0  0  0  0  0
    0.1550   -1.9920   -0.6790 C   0  0  0  0  0  0  0  0  0  0  0  0
    0.5450   -1.0330    0.2280 C   0  0  0  0  0  0  0  0  0  0  0  0
    1.8680   -0.5940    0.2640 C   0  0  0  0  0  0  0  0  0  0  0  0
   -0.5920   -0.7030    0.9610 O   0  0  0  0  0  0  0  0  0  0  0  0
   -1.4870   -1.7720    0.8010 C   0  0  1  0  0  0  0  0  0  0  0  0
   -1.1660   -2.7940    1.8690 C   0  0  0  0  0  0  0  0  0  0  0  0
   -1.9990   -2.2760    2.9230 O   0  0  0  0  0  0  0  0  0  0  0  0
   -3.1310   -1.7530    2.2980 N   0  0  0  0  0  0  0  0  0  0  0  0
   -2.8740   -1.4510    1.0730 C   0  0  0  0  0  0  0  0  0  0  0  0
   -3.8590   -0.9030    0.2260 O   0  0  0  0  0  0  0  0  0  0  0  0
   -5.1490   -0.6680    0.6810 C   0  0  0  0  0  0  0  0  0  0  0  0
   -5.4390   -0.9510    1.8730 O   0  0  0  0  0  0  0  0  0  0  0  0
   -6.2270   -0.0960   -0.1570 C   0  0  1  0  0  0  0  0  0  0  0  0
   -6.9040    1.0770    0.5170 C   0  0  0  0  0  0  0  0  0  0  0  0
   -7.2630    0.6430    1.8050 O   0  0  0  0  0  0  0  0  0  0  0  0
   -8.0510    1.8680    2.7150 P   0  0  0  0  0  0  0  0  0  0  0  0
   -8.6290    3.1560    1.7290 O   0  0  0  0  0  0  0  0  0  0  0  0
   -9.2890    1.2190    3.7430 O   0  0  0  0  0  0  0  0  0  0  0  0
   -5.8140    0.1820   -1.4450 O   0  0  0  0  0  0  0  0  0  0  0  0
   -6.4810   -0.5780   -2.4070 C   0  0  0  0  0  0  0  0  0  0  0  0
   -6.0110   -0.2400   -3.6570 O   0  0  0  0  0  0  0  0  0  0  0  0
   -1.2210   -2.2410   -0.4940 O   0  0  0  0  0  0  0  0  0  0  0  0
    9.3080    1.2610   -0.0500 N   0  0  0  0  0  0  0  0  0  0  0  0
   10.7510    1.2770   -1.0450 P   0  0  0  0  0  0  0  0  0  0  0  0
   11.0050    2.7790   -1.8730 O   0  0  0  0  0  0  0  0  0  0  0  0
   10.6030    0.0390   -2.2660 O   0  0  0  0  0  0  0  0  0  0  0  0
  1  2  2  0
  2  3  1  0
  2 33  1  0
  3  4  1  0
  4  5  2  0
  4  6  1  0
  6  7  1  0
  7  8  1  0
  8  9  2  0
  8 13  1  0
  9 10  1  0
 10 11  2  0
 11 12  1  0
 11 32  1  0
 12 13  2  0
 12 14  1  0
 14 15  1  0
 15 16  1  1
 15 19  1  0
 15 32  1  0
 16 17  1  0
 17 18  1  0
 18 19  2  0
 19 20  1  0
 20 21  1  0
 21 22  2  0
 21 23  1  0
 23 24  1  1
 23 29  1  0
 24 25  1  0
 25 26  1  0
 26 27  1  0
 26 28  1  0
 29 30  1  0
 30 31  1  0
 33 34  1  0
 34 35  1  0
 34 36  1  0
M  END
