
     RDKit          3D

 35 37  0  0  0  0  0  0  0  0999 V2000
    8.1710    1.7950    0.6380 N   0  0  0  0  0  0  0  0  0  0  0  0
    6.8890    1.3110    0.2410 C   0  0  0  0  0  0  0  0  0  0  0  0
    6.2380    1.5750   -0.9370 N   0  0  0  0  0  0  0  0  0  0  0  0
    5.0280    1.0010   -1.2260 C   0  0  0  0  0  0  0  0  0  0  0  0
    4.4330    0.1560   -0.3810 C   0  0  0  0  0  0  0  0  0  0  0  0
    3.4530   -0.8420   -0.4900 C   0  0  0  0  0  0  0  0  0  0  0  0
    2.1590   -1.0600   -0.6260 O   0  0  0  0  0  0  0  0  0  0  0  0
    1.3400   -0.3840    0.4160 C   0  0  0  0  0  0  0  0  0  0  0  0
    1.9310    0.4260    1.1070 O   0  0  0  0  0  0  0  0  0  0  0  0
   -0.0010   -0.8120    0.4190 N   0  0  0  0  0  0  0  0  0  0  0  0
   -0.1890   -2.2440    0.7360 C   0  0  0  0  0  0  0  0  0  0  0  0
   -0.9840   -2.8920   -0.3080 C   0  0  1  0  0  0  0  0  0  0  0  0
   -1.4100   -4.1590    0.1540 O   0  0  0  0  0  0  0  0  0  0  0  0
   -2.1390   -2.1200   -0.8290 C   0  0  0  0  0  0  0  0  0  0  0  0
   -2.8390   -2.5940   -1.6820 O   0  0  0  0  0  0  0  0  0  0  0  0
   -2.4420   -0.7320   -0.2980 C   0  0  2  0  0  0  0  0  0  0  0  0
   -3.2590   -0.9800    0.9120 C   0  0  0  0  0  0  0  0  0  0  0  0
   -2.7850   -0.9950    2.0880 O   0  0  0  0  0  0  0  0  0  0  0  0
   -4.6300   -1.2070    0.7930 O   0  0  0  0  0  0  0  0  0  0  0  0
   -5.7100   -1.5130    2.1030 P   0  0  0  0  0  0  0  0  0  0  0  0
   -6.8350   -0.2970    2.4620 O   0  0  0  0  0  0  0  0  0  0  0  0
   -6.5170   -3.0510    1.9180 O   0  0  0  0  0  0  0  0  0  0  0  0
   -3.2320    0.0410   -1.2850 C   0  0  0  0  0  0  0  0  0  0  0  0
   -2.6200    1.2100   -1.7830 O   0  0  0  0  0  0  0  0  0  0  0  0
   -2.1400    1.8660   -0.6940 C   0  0  1  0  0  0  0  0  0  0  0  0
   -1.6980    3.2930   -1.0050 C   0  0  0  0  0  0  0  0  0  0  0  0
   -2.8270    4.0310   -1.3360 O   0  0  0  0  0  0  0  0  0  0  0  0
   -2.4420    5.3370   -1.0610 O   0  0  0  0  0  0  0  0  0  0  0  0
   -3.4980    2.0100    0.6140 P   0  0  0  0  0  0  0  0  0  0  0  0
   -4.8520    2.5390   -0.0160 O   0  0  0  0  0  0  0  0  0  0  0  0
   -0.9870    1.1490   -0.2510 N   0  0  0  0  0  0  0  0  0  0  0  0
   -1.1140   -0.1240   -0.0110 C   0  0  0  0  0  0  0  0  0  0  0  0
    5.1560   -0.0990    0.8890 C   0  0  0  0  0  0  0  0  0  0  0  0
    4.5910   -0.8600    1.7000 O   0  0  0  0  0  0  0  0  0  0  0  0
    6.2850    0.4650    1.1080 N   0  0  0  0  0  0  0  0  0  0  0  0
  1  2  1  0
  2  3  2  0
  2 35  1  0
  3  4  1  0
  4  5  2  0
  5  6  1  0
  5 33  1  0
  6  7  1  0
  7  8  1  0
  8  9  2  0
  8 10  1  0
 10 11  1  0
 10 32  1  0
 11 12  1  0
 12 13  1  1
 12 14  1  0
 14 15  2  0
 14 16  1  0
 16 17  1  1
 16 23  1  0
 16 32  1  0
 17 18  2  0
 17 19  1  0
 19 20  1  0
 20 21  1  0
 20 22  1  0
 23 24  1  0
 24 25  1  0
 25 26  1  6
 25 29  1  0
 25 31  1  0
 26 27  1  0
 27 28  1  0
 29 30  2  0
 31 32  2  0
 33 34  2  0
 33 35  1  0
M  END
