
     RDKit          3D

 35 38  0  0  0  0  0  0  0  0999 V2000
   -3.5990    0.7810   -2.2380 O   0  0  0  0  0  0  0  0  0  0  0  0
   -2.7850    1.1440   -1.2980 C   0  0  0  0  0  0  0  0  0  0  0  0
   -2.8900    2.4790   -0.9100 N   0  0  0  0  0  0  0  0  0  0  0  0
   -3.8640    3.3470   -1.5930 C   0  0  0  0  0  0  0  0  0  0  0  0
   -3.8070    4.7430   -1.0090 C   0  0  0  0  0  0  0  0  0  0  0  0
   -4.1230    4.7210    0.3990 N   0  0  0  0  0  0  0  0  0  0  0  0
   -4.0510    6.0160    0.8490 O   0  0  0  0  0  0  0  0  0  0  0  0
   -1.9190    0.1160   -0.8060 C   0  0  0  0  0  0  0  0  0  0  0  0
   -2.3220   -1.1980   -0.5890 N   0  0  0  0  0  0  0  0  0  0  0  0
   -1.2970   -1.9230   -0.1640 C   0  0  0  0  0  0  0  0  0  0  0  0
   -1.2140   -3.3610    0.2040 C   0  0  1  0  0  0  0  0  0  0  0  0
   -0.4550   -3.4270    1.4080 O   0  0  0  0  0  0  0  0  0  0  0  0
   -1.2920   -2.8930    2.2550 O   0  0  0  0  0  0  0  0  0  0  0  0
   -2.5000   -3.3400    2.0140 O   0  0  0  0  0  0  0  0  0  0  0  0
   -2.5070   -3.8880    0.7590 C   0  0  2  0  0  0  0  0  0  0  0  0
   -2.4690   -5.4070    0.8750 C   0  0  0  0  0  0  0  0  0  0  0  0
   -3.0420   -5.8760   -0.3050 O   0  0  0  0  0  0  0  0  0  0  0  0
   -3.8910   -4.9250   -0.7410 N   0  0  0  0  0  0  0  0  0  0  0  0
   -3.6930   -3.6980   -0.0490 C   0  0  0  0  0  0  0  0  0  0  0  0
   -4.4340   -2.7050   -0.1650 O   0  0  0  0  0  0  0  0  0  0  0  0
   -0.2680   -1.1240   -0.1060 O   0  0  0  0  0  0  0  0  0  0  0  0
   -0.5940    0.1180   -0.4870 C   0  0  0  0  0  0  0  0  0  0  0  0
    0.3300    1.2260   -0.5470 C   0  0  0  0  0  0  0  0  0  0  0  0
   -0.0810    2.3290   -1.0150 O   0  0  0  0  0  0  0  0  0  0  0  0
    1.6450    1.1600   -0.1240 N   0  0  0  0  0  0  0  0  0  0  0  0
    2.4900    2.3710   -0.2510 C   0  0  0  0  0  0  0  0  0  0  0  0
    3.3570    2.1100   -1.4690 C   0  0  0  0  0  0  0  0  0  0  0  0
    4.3470    1.1720   -1.2380 O   0  0  0  0  0  0  0  0  0  0  0  0
    3.7090   -0.3750   -0.7580 P   0  0  0  0  0  0  0  0  0  0  0  0
    4.9280   -1.2950    0.0250 O   0  0  0  0  0  0  0  0  0  0  0  0
    5.4100   -0.6940    1.1860 C   0  0  0  0  0  0  0  0  0  0  0  0
    6.7170   -1.8580    1.8670 P   0  0  0  0  0  0  0  0  0  0  0  0
    7.7310   -2.4380    0.5870 O   0  0  0  0  0  0  0  0  0  0  0  0
    7.6560   -1.0560    3.0860 O   0  0  0  0  0  0  0  0  0  0  0  0
    2.2990    0.0330    0.4390 C   0  0  0  0  0  0  0  0  0  0  0  0
  1  2  2  0
  2  3  1  0
  2  8  1  0
  3  4  1  0
  4  5  1  0
  5  6  1  0
  6  7  1  0
  8  9  1  0
  8 22  2  0
  9 10  2  0
 11 10  1  1
 10 21  1  0
 11 12  1  0
 11 15  1  0
 12 13  1  0
 13 14  1  0
 14 15  1  0
 15 16  1  1
 15 19  1  0
 16 17  1  0
 17 18  1  0
 18 19  1  0
 19 20  2  0
 21 22  1  0
 22 23  1  0
 23 24  2  0
 23 25  1  0
 25 26  1  0
 25 35  1  0
 26 27  1  0
 27 28  1  0
 28 29  1  0
 29 30  1  0
 29 35  1  0
 30 31  1  0
 31 32  1  0
 32 33  1  0
 32 34  1  0
M  END
