
     RDKit          3D

 35 37  0  0  0  0  0  0  0  0999 V2000
   -1.2830   -4.0710   -2.8230 N   0  0  0  0  0  0  0  0  0  0  0  0
   -0.2330   -4.7010   -2.0500 C   0  0  0  0  0  0  0  0  0  0  0  0
    0.1530   -3.8720   -0.8850 C   0  0  0  0  0  0  0  0  0  0  0  0
    1.0500   -4.2940   -0.1320 O   0  0  0  0  0  0  0  0  0  0  0  0
   -0.4390   -2.6440   -0.5930 O   0  0  0  0  0  0  0  0  0  0  0  0
   -0.0500   -1.9100    0.4980 C   0  0  0  0  0  0  0  0  0  0  0  0
    0.8770   -2.4120    1.2200 O   0  0  0  0  0  0  0  0  0  0  0  0
   -0.6020   -0.6090    0.9000 C   0  0  2  0  0  0  0  0  0  0  0  0
   -1.5880   -0.1690    0.0540 O   0  0  0  0  0  0  0  0  0  0  0  0
   -2.8080    0.0410    0.6790 C   0  0  0  0  0  0  0  0  0  0  0  0
   -3.8560    0.5330   -0.3310 C   0  0  1  0  0  0  0  0  0  0  0  0
   -5.0580    0.7290    0.3380 O   0  0  0  0  0  0  0  0  0  0  0  0
   -5.9450    1.7740    0.2230 C   0  0  0  0  0  0  0  0  0  0  0  0
   -7.1720    1.5250    0.1040 O   0  0  0  0  0  0  0  0  0  0  0  0
   -5.4130    3.0570    0.2480 O   0  0  0  0  0  0  0  0  0  0  0  0
   -3.7500    3.1340   -0.4010 P   0  0  0  0  0  0  0  0  0  0  0  0
   -3.7550    4.3110   -1.6610 O   0  0  0  0  0  0  0  0  0  0  0  0
   -3.3630    1.5800   -1.0590 O   0  0  0  0  0  0  0  0  0  0  0  0
    0.4660    0.4850    0.9500 C   0  0  1  0  0  0  0  0  0  0  0  0
    1.5020    0.2010    1.7420 O   0  0  0  0  0  0  0  0  0  0  0  0
    1.6280    0.9200    2.9160 C   0  0  0  0  0  0  0  0  0  0  0  0
    2.8520    0.4820    3.7060 C   0  0  0  0  0  0  0  0  0  0  0  0
    2.9980    1.4620    5.2790 P   0  0  0  0  0  0  0  0  0  0  0  0
    3.1970    0.7910    6.6670 O   0  0  0  0  0  0  0  0  0  0  0  0
    0.8490    0.9100   -0.4080 C   0  0  0  0  0  0  0  0  0  0  0  0
   -0.0620    1.2840   -1.2340 O   0  0  0  0  0  0  0  0  0  0  0  0
    2.1720    0.9420   -0.8990 N   0  0  0  0  0  0  0  0  0  0  0  0
    3.2980    0.5280   -0.0980 C   0  0  0  0  0  0  0  0  0  0  0  0
    4.5620    0.6150   -0.8450 C   0  0  0  0  0  0  0  0  0  0  0  0
    4.6930    1.0160   -2.0500 N   0  0  0  0  0  0  0  0  0  0  0  0
    3.6010    1.4320   -2.8280 C   0  0  0  0  0  0  0  0  0  0  0  0
    3.4360    1.8970   -4.0920 N   0  0  0  0  0  0  0  0  0  0  0  0
    2.1870    2.1360   -4.3000 O   0  0  0  0  0  0  0  0  0  0  0  0
    1.5220    1.8460   -3.2240 N   0  0  0  0  0  0  0  0  0  0  0  0
    2.3630    1.3920   -2.2500 C   0  0  0  0  0  0  0  0  0  0  0  0
  1  2  1  0
  2  3  1  0
  3  4  2  0
  3  5  1  0
  5  6  1  0
  6  7  2  0
  6  8  1  0
  8  9  1  6
  8 19  1  0
  9 10  1  0
 11 10  1  1
 11 12  1  0
 11 18  1  0
 12 13  1  0
 13 14  2  0
 13 15  1  0
 15 16  1  0
 16 17  1  0
 16 18  1  0
 19 20  1  6
 19 25  1  0
 20 21  1  0
 21 22  1  0
 22 23  1  0
 23 24  2  0
 25 26  2  0
 25 27  1  0
 27 28  1  0
 27 35  1  0
 28 29  1  0
 29 30  2  0
 30 31  1  0
 31 32  2  0
 31 35  1  0
 32 33  1  0
 33 34  1  0
 34 35  2  0
M  END
