
     RDKit          3D

 36 39  0  0  0  0  0  0  0  0999 V2000
   -8.9220    3.4700    0.9650 N   0  0  0  0  0  0  0  0  0  0  0  0
   -8.4400    2.1540    0.7890 C   0  0  0  0  0  0  0  0  0  0  0  0
   -9.2960    1.1170    0.6820 N   0  0  0  0  0  0  0  0  0  0  0  0
   -8.8120   -0.1210    0.5150 C   0  0  0  0  0  0  0  0  0  0  0  0
   -7.4900   -0.3590    0.4500 N   0  0  0  0  0  0  0  0  0  0  0  0
   -6.6010    0.6470    0.5510 C   0  0  0  0  0  0  0  0  0  0  0  0
   -7.0760    1.9060    0.7210 C   0  0  0  0  0  0  0  0  0  0  0  0
   -6.0060    2.7180    0.7930 N   0  0  0  0  0  0  0  0  0  0  0  0
   -4.8840    1.9580    0.6680 C   0  0  0  0  0  0  0  0  0  0  0  0
   -5.2440    0.6920    0.5200 N   0  0  0  0  0  0  0  0  0  0  0  0
   -4.4100   -0.4710    0.3530 C   0  0  2  0  0  0  0  0  0  0  0  0
   -3.1210   -0.2890    0.7860 O   0  0  0  0  0  0  0  0  0  0  0  0
   -2.4130   -1.3590    0.2920 C   0  0  2  0  0  0  0  0  0  0  0  0
   -0.9350   -0.9900    0.1140 C   0  0  0  0  0  0  0  0  0  0  0  0
   -0.4470   -0.6380    1.3250 O   0  0  0  0  0  0  0  0  0  0  0  0
    1.1100   -0.1920    1.4550 P   0  0  0  0  0  0  0  0  0  0  0  0
    1.1720    0.5540    0.1390 O   0  0  0  0  0  0  0  0  0  0  0  0
    1.4220    1.2840    2.2820 O   0  0  0  0  0  0  0  0  0  0  0  0
    2.3630   -1.1620    1.1290 O   0  0  0  0  0  0  0  0  0  0  0  0
    2.7230   -1.8210   -0.1890 P   0  0  0  0  0  0  0  0  0  0  0  0
    3.2400   -2.2370   -1.5960 O   0  0  0  0  0  0  0  0  0  0  0  0
    2.0270   -3.2540    0.1560 O   0  0  0  0  0  0  0  0  0  0  0  0
    4.3190   -1.6020    0.2560 O   0  0  0  0  0  0  0  0  0  0  0  0
    4.6630   -0.2860    0.2360 C   0  0  0  0  0  0  0  0  0  0  0  0
    6.1150   -0.0630    0.6400 C   0  0  1  0  0  0  0  0  0  0  0  0
    6.9020   -0.7420   -0.2470 O   0  0  0  0  0  0  0  0  0  0  0  0
    7.8370    0.1020   -0.7810 C   0  0  2  0  0  0  0  0  0  0  0  0
    9.0820   -0.0310   -0.1720 O   0  0  0  0  0  0  0  0  0  0  0  0
    7.2900    1.4900   -0.6670 C   0  0  2  0  0  0  0  0  0  0  0  0
    8.2910    2.4280   -0.3600 O   0  0  0  0  0  0  0  0  0  0  0  0
    6.3920    1.3990    0.5330 C   0  0  2  0  0  0  0  0  0  0  0  0
    7.0450    1.8080    1.6880 O   0  0  0  0  0  0  0  0  0  0  0  0
   -3.0140   -1.7460   -1.0280 C   0  0  1  0  0  0  0  0  0  0  0  0
   -3.3810   -3.0770   -1.0170 O   0  0  0  0  0  0  0  0  0  0  0  0
   -4.2210   -0.8310   -1.1070 C   0  0  1  0  0  0  0  0  0  0  0  0
   -5.2970   -1.5730   -1.5940 O   0  0  0  0  0  0  0  0  0  0  0  0
  1  2  1  0
  2  3  2  0
  2  7  1  0
  3  4  1  0
  4  5  2  0
  5  6  1  0
  6  7  2  0
  6 10  1  0
  7  8  1  0
  8  9  2  0
  9 10  1  0
 11 10  1  6
 11 12  1  0
 11 35  1  0
 12 13  1  0
 13 14  1  6
 13 33  1  0
 14 15  1  0
 15 16  1  0
 16 17  1  0
 16 18  1  0
 16 19  1  0
 19 20  1  0
 20 21  1  0
 20 22  1  0
 20 23  1  0
 23 24  1  0
 25 24  1  6
 25 26  1  0
 25 31  1  0
 26 27  1  0
 27 28  1  1
 27 29  1  0
 29 30  1  1
 29 31  1  0
 31 32  1  1
 33 34  1  1
 33 35  1  0
 35 36  1  1
M  END
