
     RDKit          3D

 35 37  0  0  0  0  0  0  0  0999 V2000
    2.3450    0.2850   -0.7050 O   0  0  0  0  0  0  0  0  0  0  0  0
    2.1490   -0.1620    0.4630 C   0  0  0  0  0  0  0  0  0  0  0  0
    3.1830   -0.7600    1.1840 N   0  0  0  0  0  0  0  0  0  0  0  0
    4.4590   -0.9940    0.6160 C   0  0  0  0  0  0  0  0  0  0  0  0
    5.1250    0.1320   -0.0690 C   0  0  0  0  0  0  0  0  0  0  0  0
    6.4030   -0.4600   -0.4180 O   0  0  0  0  0  0  0  0  0  0  0  0
    7.5120    0.5870    0.3930 P   0  0  0  0  0  0  0  0  0  0  0  0
    7.2910    2.1930    0.3280 O   0  0  0  0  0  0  0  0  0  0  0  0
    8.9000   -0.1570    0.9360 O   0  0  0  0  0  0  0  0  0  0  0  0
   10.0110   -0.2110   -0.4470 P   0  0  0  0  0  0  0  0  0  0  0  0
   10.8850    1.2320   -0.4380 O   0  0  0  0  0  0  0  0  0  0  0  0
   10.8330   -1.6570   -0.5680 O   0  0  0  0  0  0  0  0  0  0  0  0
    0.7710   -0.0340    0.9900 C   0  0  1  0  0  0  0  0  0  0  0  0
    0.0140    1.2470    0.8770 C   0  0  0  0  0  0  0  0  0  0  0  0
   -1.3870    0.8270    0.9700 O   0  0  0  0  0  0  0  0  0  0  0  0
   -1.8540    0.3880   -0.2250 C   0  0  2  0  0  0  0  0  0  0  0  0
   -2.5350    1.3710   -1.0750 C   0  0  0  0  0  0  0  0  0  0  0  0
   -3.7090    1.8690   -0.4890 N   0  0  0  0  0  0  0  0  0  0  0  0
   -3.7160    2.6890    0.6250 C   0  0  0  0  0  0  0  0  0  0  0  0
   -4.7870    3.7350    0.6830 C   0  0  0  0  0  0  0  0  0  0  0  0
   -5.8930    3.4810   -0.0730 O   0  0  0  0  0  0  0  0  0  0  0  0
   -6.0430    2.1830   -0.4870 C   0  0  0  0  0  0  0  0  0  0  0  0
   -4.8460    1.8680   -1.3630 C   0  0  0  0  0  0  0  0  0  0  0  0
   -2.4910   -0.9480   -0.2650 C   0  0  0  0  0  0  0  0  0  0  0  0
   -3.0530   -1.2770   -1.3210 O   0  0  0  0  0  0  0  0  0  0  0  0
   -2.4530   -1.8370    0.7680 O   0  0  0  0  0  0  0  0  0  0  0  0
   -2.8610   -3.1180    0.9040 C   0  0  0  0  0  0  0  0  0  0  0  0
   -4.2520   -3.5460    0.5950 C   0  0  0  0  0  0  0  0  0  0  0  0
   -5.1560   -3.8700    1.4490 N   0  0  0  0  0  0  0  0  0  0  0  0
   -6.3250   -4.2080    0.7970 O   0  0  0  0  0  0  0  0  0  0  0  0
   -6.0790   -4.4310   -0.5190 N   0  0  0  0  0  0  0  0  0  0  0  0
   -4.8650   -3.7200   -0.6700 N   0  0  0  0  0  0  0  0  0  0  0  0
   -0.6000   -0.0350   -0.9790 O   0  0  0  0  0  0  0  0  0  0  0  0
    0.1410   -0.8520   -0.2410 C   0  0  0  0  0  0  0  0  0  0  0  0
    0.5070   -2.0350   -0.1920 O   0  0  0  0  0  0  0  0  0  0  0  0
  1  2  2  0
  2  3  1  0
 13  2  1  6
  3  4  1  0
  4  5  1  0
  5  6  1  0
  6  7  1  0
  7  8  1  0
  7  9  1  0
  9 10  1  0
 10 11  1  0
 10 12  1  0
 13 14  1  0
 13 34  1  0
 14 15  1  0
 15 16  1  0
 16 17  1  6
 16 24  1  0
 16 33  1  0
 17 18  1  0
 18 19  1  0
 18 23  1  0
 19 20  1  0
 20 21  1  0
 21 22  1  0
 22 23  1  0
 24 25  2  0
 24 26  1  0
 26 27  1  0
 27 28  1  0
 28 29  2  0
 28 32  1  0
 29 30  1  0
 30 31  1  0
 31 32  1  0
 33 34  1  0
 34 35  2  0
M  END
