
     RDKit          3D

 35 38  0  0  0  0  0  0  0  0999 V2000
   -1.2210   -1.7450   -0.8340 O   0  0  0  0  0  0  0  0  0  0  0  0
   -1.5830   -1.1850    0.2000 C   0  0  0  0  0  0  0  0  0  0  0  0
   -2.2720   -1.9150    1.1970 N   0  0  0  0  0  0  0  0  0  0  0  0
   -2.5920   -3.3070    1.0940 C   0  0  0  0  0  0  0  0  0  0  0  0
   -3.4810   -3.5770   -0.0940 C   0  0  0  0  0  0  0  0  0  0  0  0
   -3.8010   -4.9910   -0.1860 N   0  0  0  0  0  0  0  0  0  0  0  0
   -4.5920   -5.2550   -1.2370 O   0  0  0  0  0  0  0  0  0  0  0  0
   -1.3210    0.2200    0.4360 C   0  0  0  0  0  0  0  0  0  0  0  0
   -2.2870    1.0290    1.0250 N   0  0  0  0  0  0  0  0  0  0  0  0
   -1.8000    2.2540    1.0650 C   0  0  0  0  0  0  0  0  0  0  0  0
   -2.5230    3.4220    1.6200 C   0  0  1  0  0  0  0  0  0  0  0  0
   -1.7170    4.2290    2.4280 O   0  0  0  0  0  0  0  0  0  0  0  0
   -1.6740    5.4090    1.8140 O   0  0  0  0  0  0  0  0  0  0  0  0
   -2.8600    5.6020    1.2750 O   0  0  0  0  0  0  0  0  0  0  0  0
   -3.0630    4.3740    0.6310 C   0  0  2  0  0  0  0  0  0  0  0  0
   -4.5190    4.1620    0.2950 C   0  0  0  0  0  0  0  0  0  0  0  0
   -4.6610    4.8530   -0.8850 O   0  0  0  0  0  0  0  0  0  0  0  0
   -3.5370    4.6330   -1.6050 N   0  0  0  0  0  0  0  0  0  0  0  0
   -2.4460    4.3640   -0.7040 C   0  0  0  0  0  0  0  0  0  0  0  0
   -1.2800    4.1820   -1.1020 O   0  0  0  0  0  0  0  0  0  0  0  0
   -0.6280    2.2530    0.5570 O   0  0  0  0  0  0  0  0  0  0  0  0
   -0.2580    0.9970    0.1410 C   0  0  0  0  0  0  0  0  0  0  0  0
    1.0510    0.7840   -0.4330 C   0  0  0  0  0  0  0  0  0  0  0  0
    1.5670    1.9750   -0.8300 O   0  0  0  0  0  0  0  0  0  0  0  0
    1.8790   -0.2670   -0.6630 N   0  0  0  0  0  0  0  0  0  0  0  0
    1.7950   -1.6500   -0.3490 C   0  0  0  0  0  0  0  0  0  0  0  0
    1.6860   -2.5330   -1.5710 C   0  0  0  0  0  0  0  0  0  0  0  0
    2.9570   -2.8550   -2.0120 O   0  0  0  0  0  0  0  0  0  0  0  0
    3.9930   -1.5120   -1.8340 P   0  0  0  0  0  0  0  0  0  0  0  0
    5.3980   -1.8410   -0.9050 O   0  0  0  0  0  0  0  0  0  0  0  0
    5.9930   -0.7190   -0.3850 C   0  0  0  0  0  0  0  0  0  0  0  0
    7.4950   -1.2570    0.5900 P   0  0  0  0  0  0  0  0  0  0  0  0
    8.9410   -1.0720   -0.3580 O   0  0  0  0  0  0  0  0  0  0  0  0
    7.6250   -0.3520    2.0720 O   0  0  0  0  0  0  0  0  0  0  0  0
    3.1740    0.0630   -1.4220 C   0  0  0  0  0  0  0  0  0  0  0  0
  1  2  2  0
  2  3  1  0
  2  8  1  0
  3  4  1  0
  4  5  1  0
  5  6  1  0
  6  7  1  0
  8  9  1  0
  8 22  2  0
  9 10  2  0
 11 10  1  6
 10 21  1  0
 11 12  1  0
 11 15  1  0
 12 13  1  0
 13 14  1  0
 14 15  1  0
 15 16  1  6
 15 19  1  0
 16 17  1  0
 17 18  1  0
 18 19  1  0
 19 20  2  0
 21 22  1  0
 22 23  1  0
 23 24  2  0
 23 25  1  0
 25 26  1  0
 25 35  1  0
 26 27  1  0
 27 28  1  0
 28 29  1  0
 29 30  1  0
 29 35  1  0
 30 31  1  0
 31 32  1  0
 32 33  1  0
 32 34  1  0
M  END
