
     RDKit          3D

 35 38  0  0  0  0  0  0  0  0999 V2000
   -2.4430   -6.4090   -0.2220 N   0  0  0  0  0  0  0  0  0  0  0  0
   -2.4440   -5.0210   -0.0880 C   0  0  0  0  0  0  0  0  0  0  0  0
   -3.5080   -4.4140   -0.4730 O   0  0  0  0  0  0  0  0  0  0  0  0
   -1.2800   -4.2490    0.4930 C   0  0  0  0  0  0  0  0  0  0  0  0
   -1.6620   -2.8900    0.5450 N   0  0  0  0  0  0  0  0  0  0  0  0
   -0.7870   -2.0090    1.3210 C   0  0  0  0  0  0  0  0  0  0  0  0
   -1.4180   -0.9010    0.5090 C   0  0  1  0  0  0  0  0  0  0  0  0
   -2.8540   -0.6100    0.7800 C   0  0  0  0  0  0  0  0  0  0  0  0
   -3.4470   -0.1830   -0.4330 O   0  0  0  0  0  0  0  0  0  0  0  0
   -2.8990    0.4460   -1.5350 C   0  0  0  0  0  0  0  0  0  0  0  0
   -3.4420    0.2440   -2.6650 O   0  0  0  0  0  0  0  0  0  0  0  0
   -1.7080    1.3590   -1.4890 C   0  0  1  0  0  0  0  0  0  0  0  0
   -2.2000    2.5680   -0.7670 C   0  0  0  0  0  0  0  0  0  0  0  0
   -2.0370    3.8380   -1.1060 N   0  0  0  0  0  0  0  0  0  0  0  0
   -2.6430    4.6140   -0.2000 C   0  0  0  0  0  0  0  0  0  0  0  0
   -3.2080    3.7670    0.7430 C   0  0  0  0  0  0  0  0  0  0  0  0
   -2.9080    2.5500    0.3520 O   0  0  0  0  0  0  0  0  0  0  0  0
   -3.8940    4.4310    1.7780 N   0  0  0  0  0  0  0  0  0  0  0  0
   -3.4930    5.6740    2.0640 O   0  0  0  0  0  0  0  0  0  0  0  0
   -3.0950    6.2720    0.4470 P   0  0  0  0  0  0  0  0  0  0  0  0
   -4.5740    6.7220   -0.3300 O   0  0  0  0  0  0  0  0  0  0  0  0
   -0.6020    0.7560   -0.9980 O   0  0  0  0  0  0  0  0  0  0  0  0
   -0.5860    0.2980    0.2630 C   0  0  2  0  0  0  0  0  0  0  0  0
    0.8130    0.2010    0.7730 C   0  0  0  0  0  0  0  0  0  0  0  0
    1.0840   -0.1930    1.9320 O   0  0  0  0  0  0  0  0  0  0  0  0
    1.9370    0.5650   -0.0220 N   0  0  0  0  0  0  0  0  0  0  0  0
    3.2720    0.5760    0.2970 C   0  0  0  0  0  0  0  0  0  0  0  0
    4.3130   -0.3690    0.5630 C   0  0  0  0  0  0  0  0  0  0  0  0
    4.5800   -1.1630   -0.6010 O   0  0  0  0  0  0  0  0  0  0  0  0
    6.3140   -0.9440   -0.9120 P   0  0  0  0  0  0  0  0  0  0  0  0
    6.3540    0.8240   -1.4250 O   0  0  0  0  0  0  0  0  0  0  0  0
    7.3080   -0.9410    0.4840 O   0  0  0  0  0  0  0  0  0  0  0  0
    8.5190   -0.5130    0.0640 O   0  0  0  0  0  0  0  0  0  0  0  0
    8.5370    0.7290   -0.2800 O   0  0  0  0  0  0  0  0  0  0  0  0
   -1.3630   -2.0080   -0.5720 C   0  0  0  0  0  0  0  0  0  0  0  0
  1  2  1  0
  2  3  2  0
  2  4  1  0
  4  5  1  0
  5  6  1  0
  5 35  1  0
  7  6  1  1
  7  8  1  0
  7 23  1  0
  7 35  1  0
  8  9  1  0
  9 10  1  0
 10 11  2  0
 10 12  1  0
 12 13  1  1
 12 22  1  0
 13 14  2  0
 13 17  1  0
 14 15  1  0
 15 16  2  0
 15 20  1  0
 16 17  1  0
 16 18  1  0
 18 19  1  0
 19 20  1  0
 20 21  1  0
 22 23  1  0
 23 24  1  6
 24 25  2  0
 24 26  1  0
 26 27  1  0
 27 28  1  0
 28 29  1  0
 29 30  1  0
 30 31  1  0
 30 32  1  0
 32 33  1  0
 33 34  1  0
M  END
