
     RDKit          3D

 36 38  0  0  0  0  0  0  0  0999 V2000
    8.1680   -0.3070    1.1870 N   0  0  0  0  0  0  0  0  0  0  0  0
    7.3250   -0.0660    0.3320 C   0  0  0  0  0  0  0  0  0  0  0  0
    6.6730   -1.1680   -0.2230 N   0  0  0  0  0  0  0  0  0  0  0  0
    5.2680   -1.3190   -0.5790 C   0  0  0  0  0  0  0  0  0  0  0  0
    4.6930   -0.3940   -0.2560 O   0  0  0  0  0  0  0  0  0  0  0  0
    4.9690   -2.6520   -1.2200 C   0  0  0  0  0  0  0  0  0  0  0  0
    3.9090   -3.2050   -0.5970 O   0  0  0  0  0  0  0  0  0  0  0  0
    2.6180   -2.9420   -0.4320 C   0  0  0  0  0  0  0  0  0  0  0  0
    1.8650   -3.7700    0.4300 C   0  0  0  0  0  0  0  0  0  0  0  0
    0.5590   -3.5570    0.6490 N   0  0  0  0  0  0  0  0  0  0  0  0
   -0.1120   -2.5540    0.0680 C   0  0  0  0  0  0  0  0  0  0  0  0
    0.5820   -1.7100   -0.8040 C   0  0  0  0  0  0  0  0  0  0  0  0
    1.9500   -1.9010   -1.0520 C   0  0  0  0  0  0  0  0  0  0  0  0
   -0.3880   -0.7630   -1.2710 O   0  0  0  0  0  0  0  0  0  0  0  0
   -1.2690   -0.7320   -0.0860 C   0  0  1  0  0  0  0  0  0  0  0  0
   -0.2610   -0.0430    0.8630 C   0  0  0  0  0  0  0  0  0  0  0  0
   -0.2630    1.1630   -0.0880 O   0  0  0  0  0  0  0  0  0  0  0  0
   -1.6440    1.4370   -0.0740 N   0  0  0  0  0  0  0  0  0  0  0  0
   -2.2750    0.2220   -0.0590 C   0  0  0  0  0  0  0  0  0  0  0  0
   -3.6260    0.4200   -0.0140 O   0  0  0  0  0  0  0  0  0  0  0  0
   -4.4950    0.7520   -0.9660 C   0  0  0  0  0  0  0  0  0  0  0  0
   -4.0260    0.8170   -2.1750 O   0  0  0  0  0  0  0  0  0  0  0  0
   -5.9200    1.0470   -0.6130 C   0  0  1  0  0  0  0  0  0  0  0  0
   -6.8230   -0.1550   -0.4670 C   0  0  0  0  0  0  0  0  0  0  0  0
   -7.7200    0.2660    0.5540 O   0  0  0  0  0  0  0  0  0  0  0  0
   -9.4110   -0.0990    0.1660 P   0  0  0  0  0  0  0  0  0  0  0  0
  -10.3130    1.2420    0.9770 O   0  0  0  0  0  0  0  0  0  0  0  0
   -9.5550    0.3360   -1.5920 O   0  0  0  0  0  0  0  0  0  0  0  0
   -5.7370    1.4670    0.7860 O   0  0  0  0  0  0  0  0  0  0  0  0
   -5.8620    2.8790    0.7040 C   0  0  0  0  0  0  0  0  0  0  0  0
   -5.6870    3.4950    1.9150 O   0  0  0  0  0  0  0  0  0  0  0  0
   -1.4470   -2.0750    0.1210 O   0  0  0  0  0  0  0  0  0  0  0  0
    7.4670    1.2590   -0.2550 N   0  0  0  0  0  0  0  0  0  0  0  0
    8.7080    2.4200    0.3190 P   0  0  0  0  0  0  0  0  0  0  0  0
    8.9750    3.5860   -0.9670 O   0  0  0  0  0  0  0  0  0  0  0  0
   10.2170    1.6900    0.6990 O   0  0  0  0  0  0  0  0  0  0  0  0
  1  2  2  0
  2  3  1  0
  2 33  1  0
  3  4  1  0
  4  5  2  0
  4  6  1  0
  6  7  1  0
  7  8  1  0
  8  9  2  0
  8 13  1  0
  9 10  1  0
 10 11  2  0
 11 12  1  0
 11 32  1  0
 12 13  2  0
 12 14  1  0
 14 15  1  0
 15 16  1  1
 15 19  1  0
 15 32  1  0
 16 17  1  0
 17 18  1  0
 18 19  2  0
 19 20  1  0
 20 21  1  0
 21 22  2  0
 21 23  1  0
 23 24  1  1
 23 29  1  0
 24 25  1  0
 25 26  1  0
 26 27  1  0
 26 28  1  0
 29 30  1  0
 30 31  1  0
 33 34  1  0
 34 35  1  0
 34 36  1  0
M  END
