
     RDKit          3D

 32 34  0  0  0  0  0  0  0  0999 V2000
    4.2560   -0.0520   -1.8190 C   0  0  0  0  0  0  0  0  0  0  0  0
    4.6210   -0.5730   -0.6510 O   0  0  0  0  0  0  0  0  0  0  0  0
    4.2460   -0.1690    0.5550 C   0  0  2  0  0  0  0  0  0  0  0  0
    2.9820   -0.1510    0.9740 O   0  0  0  0  0  0  0  0  0  0  0  0
    2.0610    0.5940    0.3560 C   0  0  0  0  0  0  0  0  0  0  0  0
    0.3860    0.4760    1.2550 P   0  0  0  0  0  0  0  0  0  0  0  0
   -0.7330    1.3400    0.2180 O   0  0  0  0  0  0  0  0  0  0  0  0
   -0.7390    2.6120    0.4530 O   0  0  0  0  0  0  0  0  0  0  0  0
   -2.3490    3.1720    0.5990 P   0  0  0  0  0  0  0  0  0  0  0  0
   -3.2430    2.2120    1.8770 C   0  0  0  0  0  0  0  0  0  0  0  0
   -2.8800    2.3280    3.0740 O   0  0  0  0  0  0  0  0  0  0  0  0
   -4.3350    1.3580    1.4380 C   0  0  0  0  0  0  0  0  0  0  0  0
   -5.3390    1.2120    2.2190 O   0  0  0  0  0  0  0  0  0  0  0  0
   -4.2400    0.7000    0.1240 C   0  0  2  0  0  0  0  0  0  0  0  0
   -4.6590    1.5390   -0.9820 N   0  0  0  0  0  0  0  0  0  0  0  0
   -3.5030    2.8770   -1.2790 P   0  0  0  0  0  0  0  0  0  0  0  0
   -4.4500    4.3320   -1.5010 O   0  0  0  0  0  0  0  0  0  0  0  0
   -5.1320   -0.3860    0.1480 O   0  0  0  0  0  0  0  0  0  0  0  0
   -4.6610   -1.4470   -0.4160 O   0  0  0  0  0  0  0  0  0  0  0  0
   -3.6820   -2.0960    0.3600 C   0  0  0  0  0  0  0  0  0  0  0  0
   -2.3360   -2.6250   -0.7620 P   0  0  0  0  0  0  0  0  0  0  0  0
   -2.1200   -4.3180   -0.8540 O   0  0  0  0  0  0  0  0  0  0  0  0
   -2.1180   -4.9020    0.3060 O   0  0  0  0  0  0  0  0  0  0  0  0
   -0.5050   -1.5020   -0.4990 P   0  0  0  0  0  0  0  0  0  0  0  0
    0.7780   -2.1660   -1.4150 O   0  0  0  0  0  0  0  0  0  0  0  0
   -0.0970   -1.2110    1.1490 O   0  0  0  0  0  0  0  0  0  0  0  0
    4.7180    1.2220    0.7610 O   0  0  0  0  0  0  0  0  0  0  0  0
    5.9660    1.5410    0.2700 N   0  0  0  0  0  0  0  0  0  0  0  0
    6.9890    0.8460    0.5860 C   0  0  0  0  0  0  0  0  0  0  0  0
    6.7670   -0.5660    1.6930 S   0  0  0  0  0  0  0  0  0  0  0  0
    5.0490   -0.9710    1.5850 C   0  0  0  0  0  0  0  0  0  0  0  0
    4.5500   -1.8090    2.2650 O   0  0  0  0  0  0  0  0  0  0  0  0
  1  2  1  0
  3  2  1  6
  3  4  1  0
  3 27  1  0
  3 31  1  0
  4  5  1  0
  5  6  1  0
  6  7  1  0
  6 26  1  0
  7  8  1  0
  8  9  1  0
  9 10  1  0
  9 16  1  0
 10 11  2  0
 10 12  1  0
 12 13  2  0
 12 14  1  0
 14 15  1  6
 14 18  1  0
 15 16  1  0
 16 17  1  0
 18 19  1  0
 19 20  1  0
 20 21  1  0
 21 22  1  0
 21 24  1  0
 22 23  1  0
 24 25  1  0
 24 26  1  0
 27 28  1  0
 28 29  2  0
 29 30  1  0
 30 31  1  0
 31 32  2  0
M  END
