
     RDKit          3D

 32 33  0  0  0  0  0  0  0  0999 V2000
   -3.7100   -1.9890    2.2700 C   0  0  0  0  0  0  0  0  0  0  0  0
   -2.8110   -2.0070    1.2110 O   0  0  0  0  0  0  0  0  0  0  0  0
   -3.2330   -1.1340    0.1780 C   0  0  0  0  0  0  0  0  0  0  0  0
   -2.2990   -1.1630   -0.9820 C   0  0  0  0  0  0  0  0  0  0  0  0
   -0.9550   -0.8050   -0.8070 N   0  0  0  0  0  0  0  0  0  0  0  0
   -0.2580   -1.1060   -2.0370 C   0  0  0  0  0  0  0  0  0  0  0  0
    1.1000   -0.6390   -2.1530 C   0  0  0  0  0  0  0  0  0  0  0  0
    1.8910   -1.2580   -2.9440 O   0  0  0  0  0  0  0  0  0  0  0  0
    1.5180    0.4520   -1.4190 O   0  0  0  0  0  0  0  0  0  0  0  0
    0.9440    0.5920   -0.1340 C   0  0  2  0  0  0  0  0  0  0  0  0
    1.2140    1.8670    0.2680 O   0  0  0  0  0  0  0  0  0  0  0  0
    2.5080    2.2400    0.3720 C   0  0  1  0  0  0  0  0  0  0  0  0
    2.7430    3.2560   -0.5990 O   0  0  0  0  0  0  0  0  0  0  0  0
    2.6580    4.2660    0.2420 O   0  0  0  0  0  0  0  0  0  0  0  0
    2.8840    3.3260    1.2690 C   0  0  0  0  0  0  0  0  0  0  0  0
    3.2660    3.5700    2.4420 O   0  0  0  0  0  0  0  0  0  0  0  0
    1.6550   -0.7030    0.9590 P   0  0  0  0  0  0  0  0  0  0  0  0
    3.3560   -0.6800    1.0190 O   0  0  0  0  0  0  0  0  0  0  0  0
    4.1300   -1.6120   -0.1910 P   0  0  0  0  0  0  0  0  0  0  0  0
    4.6890   -0.8680   -1.4580 O   0  0  0  0  0  0  0  0  0  0  0  0
    1.0380   -2.2670    0.5720 O   0  0  0  0  0  0  0  0  0  0  0  0
    2.0900   -3.5450    1.0850 P   0  0  0  0  0  0  0  0  0  0  0  0
    3.1270   -3.0230    2.3810 O   0  0  0  0  0  0  0  0  0  0  0  0
   -0.5910    0.3950   -0.1800 C   0  0  2  0  0  0  0  0  0  0  0  0
   -1.0710    0.3730    1.6080 P   0  0  0  0  0  0  0  0  0  0  0  0
   -0.1610   -0.2060    2.7130 O   0  0  0  0  0  0  0  0  0  0  0  0
   -1.1030    1.6790   -0.7790 C   0  0  1  0  0  0  0  0  0  0  0  0
   -2.4610    1.8070   -0.8670 O   0  0  0  0  0  0  0  0  0  0  0  0
   -0.7470    2.7040    0.1490 O   0  0  0  0  0  0  0  0  0  0  0  0
   -1.1500    3.8780   -0.2750 O   0  0  0  0  0  0  0  0  0  0  0  0
   -0.2290    2.1390   -2.3490 P   0  0  0  0  0  0  0  0  0  0  0  0
   -0.1620    3.6050   -2.8590 O   0  0  0  0  0  0  0  0  0  0  0  0
  1  2  1  0
  2  3  1  0
  3  4  1  0
  4  5  1  0
  5  6  1  0
  5 24  1  0
  6  7  1  0
  7  8  2  0
  7  9  1  0
  9 10  1  0
 10 11  1  1
 10 17  1  0
 10 24  1  0
 12 11  1  1
 12 13  1  0
 12 15  1  0
 13 14  1  0
 14 15  1  0
 15 16  2  0
 17 18  1  0
 17 21  1  0
 18 19  1  0
 19 20  2  0
 21 22  1  0
 22 23  1  0
 24 25  1  1
 24 27  1  0
 25 26  2  0
 27 28  1  6
 27 29  1  0
 27 31  1  0
 29 30  1  0
 31 32  2  0
M  END
