
     RDKit          3D

 31 32  0  0  0  0  0  0  0  0999 V2000
    2.0680   -1.4620   -2.3940 C   0  0  0  0  0  0  0  0  0  0  0  0
    1.7030   -0.1100   -2.2560 O   0  0  0  0  0  0  0  0  0  0  0  0
    2.2380    0.5110   -0.7180 P   0  0  0  0  0  0  0  0  0  0  0  0
    3.7200   -0.3430   -0.3250 O   0  0  0  0  0  0  0  0  0  0  0  0
    4.4470    0.3900    0.6050 C   0  0  0  0  0  0  0  0  0  0  0  0
    5.9960   -0.5150    1.0070 P   0  0  0  0  0  0  0  0  0  0  0  0
    5.7240   -2.2210    0.8110 O   0  0  0  0  0  0  0  0  0  0  0  0
    7.6170    0.0810   -0.3550 P   0  0  0  0  0  0  0  0  0  0  0  0
    7.0100    1.1280   -1.5770 O   0  0  0  0  0  0  0  0  0  0  0  0
    8.8970    0.8490    0.5200 O   0  0  0  0  0  0  0  0  0  0  0  0
    8.2460    1.5780    1.9440 S   0  0  0  0  0  0  0  0  0  0  0  0
    0.7210    0.0110    0.8170 P   0  0  0  0  0  0  0  0  0  0  0  0
   -0.8430   -0.0860    0.0710 O   0  0  0  0  0  0  0  0  0  0  0  0
   -1.6360   -0.9810    0.7160 N   0  0  0  0  0  0  0  0  0  0  0  0
   -3.0350   -0.6030    0.8690 C   0  0  2  0  0  0  0  0  0  0  0  0
   -3.7100   -0.4450   -0.4770 C   0  0  0  0  0  0  0  0  0  0  0  0
   -4.8930    0.2570   -0.2500 O   0  0  0  0  0  0  0  0  0  0  0  0
   -4.5710    1.6140   -0.2760 C   0  0  1  0  0  0  0  0  0  0  0  0
   -3.8790    1.8500   -1.4420 O   0  0  0  0  0  0  0  0  0  0  0  0
   -4.5100    1.5780   -2.5380 O   0  0  0  0  0  0  0  0  0  0  0  0
   -5.6360    2.4380   -0.0340 O   0  0  0  0  0  0  0  0  0  0  0  0
   -6.6920    2.3530   -0.8990 C   0  0  0  0  0  0  0  0  0  0  0  0
   -7.2820    1.0960   -0.9610 O   0  0  0  0  0  0  0  0  0  0  0  0
   -3.6360    1.8080    0.8300 N   0  0  0  0  0  0  0  0  0  0  0  0
   -3.1570    0.7020    1.5720 C   0  0  0  0  0  0  0  0  0  0  0  0
   -2.8450    0.8320    2.7940 O   0  0  0  0  0  0  0  0  0  0  0  0
   -1.1840   -2.2050    1.2210 C   0  0  0  0  0  0  0  0  0  0  0  0
   -2.0590   -3.1210    1.3720 O   0  0  0  0  0  0  0  0  0  0  0  0
    0.1680   -2.5370    1.5890 C   0  0  0  0  0  0  0  0  0  0  0  0
    1.1300   -1.6480    1.4640 C   0  0  0  0  0  0  0  0  0  0  0  0
    2.4380   -1.9900    1.8260 O   0  0  0  0  0  0  0  0  0  0  0  0
  1  2  1  0
  2  3  1  0
  3  4  1  0
  3 12  1  0
  4  5  1  0
  5  6  1  0
  6  7  1  0
  6  8  1  0
  8  9  1  0
  8 10  1  0
 10 11  1  0
 12 13  1  0
 12 30  1  0
 13 14  1  0
 15 14  1  6
 14 27  1  0
 15 16  1  0
 15 25  1  0
 16 17  1  0
 17 18  1  0
 18 19  1  6
 18 21  1  0
 18 24  1  0
 19 20  1  0
 21 22  1  0
 22 23  1  0
 24 25  1  0
 25 26  2  0
 27 28  2  0
 27 29  1  0
 29 30  2  0
 30 31  1  0
M  END
