
     RDKit          3D

 32 33  0  0  0  0  0  0  0  0999 V2000
   -4.3550    6.9140   -0.0130 O   0  0  0  0  0  0  0  0  0  0  0  0
   -3.4080    5.8030   -0.5000 P   0  0  0  0  0  0  0  0  0  0  0  0
   -3.6310    4.0590    0.1120 C   0  0  0  0  0  0  0  0  0  0  0  0
   -4.0430    3.9470    1.2800 O   0  0  0  0  0  0  0  0  0  0  0  0
   -3.3160    2.9740   -0.7930 C   0  0  0  0  0  0  0  0  0  0  0  0
   -2.8970    3.2920   -1.9750 O   0  0  0  0  0  0  0  0  0  0  0  0
   -3.4130    1.5930   -0.5390 N   0  0  0  0  0  0  0  0  0  0  0  0
   -3.8600    1.0820    0.7170 C   0  0  0  0  0  0  0  0  0  0  0  0
   -2.5980   -0.1250    1.3680 P   0  0  0  0  0  0  0  0  0  0  0  0
   -0.9250    0.4810    1.0280 N   0  0  0  0  0  0  0  0  0  0  0  0
    0.1700   -0.3360    1.3910 C   0  0  0  0  0  0  0  0  0  0  0  0
   -0.0010   -1.4390    1.9290 O   0  0  0  0  0  0  0  0  0  0  0  0
    1.4720    0.0760    1.1520 O   0  0  0  0  0  0  0  0  0  0  0  0
    2.6260   -0.6740    1.4800 C   0  0  0  0  0  0  0  0  0  0  0  0
    3.8010    0.1540    1.0350 C   0  0  2  0  0  0  0  0  0  0  0  0
    3.8960    1.3850    1.6300 O   0  0  0  0  0  0  0  0  0  0  0  0
    3.8080    0.2950   -0.4980 C   0  0  0  0  0  0  0  0  0  0  0  0
    5.0750    0.6520   -0.8700 O   0  0  0  0  0  0  0  0  0  0  0  0
    5.9620   -0.3680   -0.6050 C   0  0  2  0  0  0  0  0  0  0  0  0
    7.2400    0.1640   -0.4700 O   0  0  0  0  0  0  0  0  0  0  0  0
    5.8900   -1.4440   -1.4470 O   0  0  0  0  0  0  0  0  0  0  0  0
    6.8010   -2.3210   -1.0550 O   0  0  0  0  0  0  0  0  0  0  0  0
    5.4160   -0.8130    1.1480 P   0  0  0  0  0  0  0  0  0  0  0  0
    5.0030   -2.5010    1.1260 O   0  0  0  0  0  0  0  0  0  0  0  0
   -2.7580   -1.5830    0.4020 O   0  0  0  0  0  0  0  0  0  0  0  0
   -3.0490   -1.1540   -1.2320 P   0  0  0  0  0  0  0  0  0  0  0  0
   -4.7090   -2.1750   -2.1080 S   0  0  0  0  0  0  0  0  0  0  0  0
   -5.5010   -3.5840   -0.7020 P   0  0  0  0  0  0  0  0  0  0  0  0
   -6.7200   -2.8390    0.2970 O   0  0  0  0  0  0  0  0  0  0  0  0
   -7.7960   -3.5920    0.2880 O   0  0  0  0  0  0  0  0  0  0  0  0
   -3.0630    0.6270   -1.5380 C   0  0  0  0  0  0  0  0  0  0  0  0
   -2.7550    1.0490   -2.6740 O   0  0  0  0  0  0  0  0  0  0  0  0
  1  2  2  0
  2  3  1  0
  3  4  2  0
  3  5  1  0
  5  6  2  0
  5  7  1  0
  7  8  1  0
  7 31  1  0
  8  9  1  0
  9 10  1  0
  9 25  1  0
 10 11  1  0
 11 12  2  0
 11 13  1  0
 13 14  1  0
 14 15  1  0
 15 16  1  1
 15 17  1  0
 15 23  1  0
 17 18  1  0
 18 19  1  0
 19 20  1  1
 19 21  1  0
 19 23  1  0
 21 22  1  0
 23 24  1  0
 25 26  1  0
 26 27  1  0
 26 31  1  0
 27 28  1  0
 28 29  1  0
 29 30  1  0
 31 32  2  0
M  END
