
     RDKit          3D

 30 31  0  0  0  0  0  0  0  0999 V2000
    6.1960    0.2250   -0.0980 N   0  0  0  0  0  0  0  0  0  0  0  0
    4.9530    0.7380    0.2460 O   0  0  0  0  0  0  0  0  0  0  0  0
    4.3400    0.2560    1.3800 C   0  0  0  0  0  0  0  0  0  0  0  0
    3.0380    0.1320    1.4880 C   0  0  0  0  0  0  0  0  0  0  0  0
    2.1300    0.4740    0.4650 N   0  0  0  0  0  0  0  0  0  0  0  0
    0.9160    0.2420    0.8530 C   0  0  0  0  0  0  0  0  0  0  0  0
   -0.1410    0.4920    0.0370 O   0  0  0  0  0  0  0  0  0  0  0  0
   -0.4540   -0.0100   -1.2000 C   0  0  1  0  0  0  0  0  0  0  0  0
    0.3570    0.1360   -2.2650 O   0  0  0  0  0  0  0  0  0  0  0  0
    1.8830   -0.5710   -2.2840 P   0  0  0  0  0  0  0  0  0  0  0  0
   -0.7660   -1.8910   -1.1650 P   0  0  0  0  0  0  0  0  0  0  0  0
   -2.1230   -2.5140   -0.4410 C   0  0  0  0  0  0  0  0  0  0  0  0
   -2.4890   -3.8420   -0.3340 O   0  0  0  0  0  0  0  0  0  0  0  0
   -3.2290   -1.2480    0.2830 P   0  0  0  0  0  0  0  0  0  0  0  0
   -3.1960   -1.4220    1.9940 O   0  0  0  0  0  0  0  0  0  0  0  0
   -1.8510   -2.3930    2.5070 P   0  0  0  0  0  0  0  0  0  0  0  0
   -1.4490   -2.1530    4.1570 O   0  0  0  0  0  0  0  0  0  0  0  0
   -2.2590   -4.0650    2.2820 O   0  0  0  0  0  0  0  0  0  0  0  0
   -2.6550    0.3900   -0.2760 C   0  0  0  0  0  0  0  0  0  0  0  0
   -2.9200    1.3760    0.3700 O   0  0  0  0  0  0  0  0  0  0  0  0
   -1.8700    0.5160   -1.5130 C   0  0  2  0  0  0  0  0  0  0  0  0
   -2.3530   -0.3290   -2.5000 O   0  0  0  0  0  0  0  0  0  0  0  0
   -1.8190    1.9130   -2.0540 C   0  0  0  0  0  0  0  0  0  0  0  0
   -1.0580    3.1220   -0.9010 P   0  0  0  0  0  0  0  0  0  0  0  0
    0.6280    3.3400   -1.1620 O   0  0  0  0  0  0  0  0  0  0  0  0
   -1.8280    4.6720   -1.0590 O   0  0  0  0  0  0  0  0  0  0  0  0
   -3.1200    4.5110   -1.3480 O   0  0  0  0  0  0  0  0  0  0  0  0
    0.9070   -0.2620    2.1340 O   0  0  0  0  0  0  0  0  0  0  0  0
    2.2330   -0.3560    2.5970 C   0  0  0  0  0  0  0  0  0  0  0  0
    2.6680   -0.7560    3.6890 O   0  0  0  0  0  0  0  0  0  0  0  0
  1  2  1  0
  2  3  1  0
  3  4  2  3
  4  5  1  0
  4 29  1  0
  5  6  2  0
  6  7  1  0
  6 28  1  0
  8  7  1  1
  8  9  1  0
  8 11  1  0
  8 21  1  0
  9 10  1  0
 11 12  2  0
 12 13  1  0
 12 14  1  0
 14 15  1  0
 14 19  1  0
 15 16  1  0
 16 17  1  0
 16 18  1  0
 19 20  2  0
 19 21  1  0
 21 22  1  6
 21 23  1  0
 23 24  1  0
 24 25  1  0
 24 26  1  0
 26 27  1  0
 28 29  1  0
 29 30  2  0
M  END
