
     RDKit          3D

 32 33  0  0  0  0  0  0  0  0999 V2000
   -5.7790    3.1770   -0.0650 C   0  0  0  0  0  0  0  0  0  0  0  0
   -6.4660    1.4630   -0.2730 P   0  0  0  0  0  0  0  0  0  0  0  0
   -6.6940    0.7310    1.3070 O   0  0  0  0  0  0  0  0  0  0  0  0
   -5.4330    0.4730   -1.2530 O   0  0  0  0  0  0  0  0  0  0  0  0
   -5.2520   -1.0630   -0.4500 P   0  0  0  0  0  0  0  0  0  0  0  0
   -3.5560   -1.3320    0.1230 C   0  0  0  0  0  0  0  0  0  0  0  0
   -3.3550   -2.0240    1.1540 O   0  0  0  0  0  0  0  0  0  0  0  0
   -2.4740   -0.7980   -0.5410 O   0  0  0  0  0  0  0  0  0  0  0  0
   -1.1450   -0.9660   -0.1570 C   0  0  1  0  0  0  0  0  0  0  0  0
   -0.8450   -2.3250   -0.1620 O   0  0  0  0  0  0  0  0  0  0  0  0
    0.7890   -2.6440    0.3090 P   0  0  0  0  0  0  0  0  0  0  0  0
    0.8360   -2.8710    2.0300 O   0  0  0  0  0  0  0  0  0  0  0  0
    1.2450   -4.1640   -0.4100 O   0  0  0  0  0  0  0  0  0  0  0  0
    0.2610   -5.0410   -0.1070 O   0  0  0  0  0  0  0  0  0  0  0  0
    0.6470   -6.3030    0.3430 C   0  0  0  0  0  0  0  0  0  0  0  0
    1.8690   -6.5780    0.4500 O   0  0  0  0  0  0  0  0  0  0  0  0
   -0.2510   -0.3860   -1.1430 O   0  0  0  0  0  0  0  0  0  0  0  0
    0.7110    0.2900   -0.3910 C   0  0  0  0  0  0  0  0  0  0  0  0
    2.0140    0.5470   -0.4920 C   0  0  0  0  0  0  0  0  0  0  0  0
    2.6910    0.0620   -1.6160 O   0  0  0  0  0  0  0  0  0  0  0  0
    2.7050    1.2660    0.4950 N   0  0  0  0  0  0  0  0  0  0  0  0
    4.0740    1.5660    0.4070 C   0  0  0  0  0  0  0  0  0  0  0  0
    4.5990    2.2330    1.3790 O   0  0  0  0  0  0  0  0  0  0  0  0
    4.9510    1.2210   -0.6300 N   0  0  0  0  0  0  0  0  0  0  0  0
    6.6890    1.7250   -0.5220 P   0  0  0  0  0  0  0  0  0  0  0  0
    6.8080    3.7320    0.3710 P   0  0  0  0  0  0  0  0  0  0  0  0
    1.9480    1.7110    1.6420 C   0  0  0  0  0  0  0  0  0  0  0  0
    2.5630    2.3640    2.5340 O   0  0  0  0  0  0  0  0  0  0  0  0
    0.6140    1.4090    1.7150 O   0  0  0  0  0  0  0  0  0  0  0  0
   -0.1340    0.7810    0.7620 C   0  0  1  0  0  0  0  0  0  0  0  0
   -1.0040    1.7400    0.2020 O   0  0  0  0  0  0  0  0  0  0  0  0
   -0.8210   -0.3660    1.0670 O   0  0  0  0  0  0  0  0  0  0  0  0
  1  2  1  0
  2  3  1  0
  2  4  1  0
  4  5  1  0
  5  6  1  0
  6  7  2  0
  6  8  1  0
  9  8  1  6
  9 10  1  0
  9 17  1  0
  9 32  1  0
 10 11  1  0
 11 12  1  0
 11 13  1  0
 13 14  1  0
 14 15  1  0
 15 16  2  0
 17 18  1  0
 18 19  2  0
 18 30  1  0
 19 20  1  0
 19 21  1  0
 21 22  1  0
 21 27  1  0
 22 23  2  0
 22 24  1  0
 24 25  1  0
 25 26  1  0
 27 28  2  0
 27 29  1  0
 29 30  1  0
 30 31  1  6
 30 32  1  0
M  END
