
     RDKit          3D

 41 44  0  0  0  0  0  0  0  0999 V2000
    2.1020    1.1350    1.2630 C   0  0  0  0  0  0  0  0  0  0  0  0
    2.2580    0.0490    0.3350 O   0  0  0  0  0  0  0  0  0  0  0  0
    2.9810    0.3430   -0.7930 C   0  0  0  0  0  0  0  0  0  0  0  0
    2.4530    0.8140   -2.0090 C   0  0  0  0  0  0  0  0  0  0  0  0
    1.3010    1.0770   -2.4580 C   0  0  0  0  0  0  0  0  0  0  0  0
   -0.0650    1.0670   -2.0800 C   0  0  0  0  0  0  0  0  0  0  0  0
   -0.8900    1.5220   -3.0030 O   0  0  0  0  0  0  0  0  0  0  0  0
   -0.7050    0.6570   -0.9000 N   0  0  0  0  0  0  0  0  0  0  0  0
   -2.1090    0.7630   -0.7330 C   0  0  0  0  0  0  0  0  0  0  0  0
   -2.8200    1.8080   -1.2460 C   0  0  0  0  0  0  0  0  0  0  0  0
   -4.2150    1.8610   -1.0960 C   0  0  0  0  0  0  0  0  0  0  0  0
   -4.9020    0.8750   -0.4350 C   0  0  0  0  0  0  0  0  0  0  0  0
   -6.3470    0.9580   -0.3060 C   0  0  0  0  0  0  0  0  0  0  0  0
   -7.1650    0.0830   -0.9900 C   0  0  0  0  0  0  0  0  0  0  0  0
   -8.5280    0.1920   -0.8370 C   0  0  0  0  0  0  0  0  0  0  0  0
   -9.1050    1.1420   -0.0260 C   0  0  0  0  0  0  0  0  0  0  0  0
  -10.5520    1.2600    0.1390 C   0  0  0  0  0  0  0  0  0  0  0  0
   -8.2840    1.9870    0.6330 N   0  0  0  0  0  0  0  0  0  0  0  0
   -6.9450    1.9000    0.4990 C   0  0  0  0  0  0  0  0  0  0  0  0
   -4.1970   -0.1910    0.0910 C   0  0  0  0  0  0  0  0  0  0  0  0
   -4.8510   -1.2750    0.7990 C   0  0  0  0  0  0  0  0  0  0  0  0
   -4.8120   -2.5370    0.2490 C   0  0  0  0  0  0  0  0  0  0  0  0
   -5.4030   -3.6420    0.8220 C   0  0  0  0  0  0  0  0  0  0  0  0
   -6.0710   -3.4710    2.0170 C   0  0  0  0  0  0  0  0  0  0  0  0
   -6.1220   -2.2100    2.5890 C   0  0  0  0  0  0  0  0  0  0  0  0
   -5.5200   -1.1170    1.9920 C   0  0  0  0  0  0  0  0  0  0  0  0
   -2.8220   -0.2260   -0.0680 C   0  0  0  0  0  0  0  0  0  0  0  0
    4.3470    0.1610   -0.7120 C   0  0  0  0  0  0  0  0  0  0  0  0
    4.9040   -0.3150    0.5230 C   0  0  0  0  0  0  0  0  0  0  0  0
    6.1690   -0.5210    0.7160 C   0  0  0  0  0  0  0  0  0  0  0  0
    7.2240   -0.3110   -0.2640 C   0  0  0  0  0  0  0  0  0  0  0  0
    8.4780   -0.5510    0.0700 C   0  0  0  0  0  0  0  0  0  0  0  0
    8.8900   -1.0120    1.3600 C   0  0  0  0  0  0  0  0  0  0  0  0
    9.8050   -2.0160    1.6090 C   0  0  0  0  0  0  0  0  0  0  0  0
    9.9250   -2.1510    2.9730 C   0  0  0  0  0  0  0  0  0  0  0  0
    9.0790   -1.2220    3.5070 C   0  0  0  0  0  0  0  0  0  0  0  0
    8.5020   -0.5870    2.5210 O   0  0  0  0  0  0  0  0  0  0  0  0
    6.9870    0.1340   -1.5450 O   0  0  0  0  0  0  0  0  0  0  0  0
    7.6170    1.2100   -2.1860 C   0  0  0  0  0  0  0  0  0  0  0  0
    7.0400    1.3400   -3.5620 C   0  0  0  0  0  0  0  0  0  0  0  0
    7.4890    2.2420   -4.2590 O   0  0  0  0  0  0  0  0  0  0  0  0
  1  2  1  0
  2  3  1  0
  3  4  1  0
  3 28  2  3
  4  5  2  3
  5  6  1  0
  6  7  2  0
  6  8  1  0
  8  9  1  0
  9 10  2  0
  9 27  1  0
 10 11  1  0
 11 12  2  0
 12 13  1  0
 12 20  1  0
 13 14  2  0
 13 19  1  0
 14 15  1  0
 15 16  2  0
 16 17  1  0
 16 18  1  0
 18 19  2  0
 20 21  1  0
 20 27  2  0
 21 22  2  0
 21 26  1  0
 22 23  1  0
 23 24  2  0
 24 25  1  0
 25 26  2  0
 28 29  1  0
 29 30  2  3
 30 31  1  0
 31 32  2  3
 31 38  1  0
 32 33  1  0
 33 34  2  0
 33 37  1  0
 34 35  1  0
 35 36  2  0
 36 37  1  0
 38 39  1  0
 39 40  1  0
 40 41  2  0
M  END
