
     RDKit          3D

 41 46  0  0  0  0  0  0  0  0999 V2000
    7.6730    0.9190   -2.1780 N   0  0  0  0  0  0  0  0  0  0  0  0
    8.4660    1.7290   -1.2770 C   0  0  0  0  0  0  0  0  0  0  0  0
    9.4300    0.8460   -0.5010 C   0  0  0  0  0  0  0  0  0  0  0  0
    8.7010   -0.1630    0.2940 C   0  0  0  0  0  0  0  0  0  0  0  0
    8.3290    0.1940    1.5920 C   0  0  0  0  0  0  0  0  0  0  0  0
    7.6410   -0.7570    2.3300 C   0  0  0  0  0  0  0  0  0  0  0  0
    7.3310   -1.9960    1.8290 C   0  0  0  0  0  0  0  0  0  0  0  0
    6.5870   -2.9970    2.6160 C   0  0  0  0  0  0  0  0  0  0  0  0
    5.2210   -3.0040    2.0720 N   0  0  0  0  0  0  0  0  0  0  0  0
    4.4340   -1.8260    2.0610 C   0  0  0  0  0  0  0  0  0  0  0  0
    3.1460   -1.7600    1.5590 C   0  0  0  0  0  0  0  0  0  0  0  0
    2.6920   -0.4670    1.7070 C   0  0  0  0  0  0  0  0  0  0  0  0
    1.3660    0.0630    1.3080 C   0  0  0  0  0  0  0  0  0  0  0  0
    0.5520   -0.7330    0.7850 O   0  0  0  0  0  0  0  0  0  0  0  0
    1.0880    1.4220    1.5310 N   0  0  0  0  0  0  0  0  0  0  0  0
   -0.2070    1.9880    1.1500 C   0  0  0  0  0  0  0  0  0  0  0  0
   -1.2780    1.4750    0.5960 C   0  0  0  0  0  0  0  0  0  0  0  0
   -2.3720    2.2230    0.3300 C   0  0  0  0  0  0  0  0  0  0  0  0
   -3.6310    1.7230   -0.3160 C   0  0  0  0  0  0  0  0  0  0  0  0
   -4.8280    1.8500    0.3180 C   0  0  0  0  0  0  0  0  0  0  0  0
   -5.9840    1.3400   -0.2860 C   0  0  0  0  0  0  0  0  0  0  0  0
   -7.5460    1.5250    0.5570 S   0  0  0  0  0  0  0  0  0  0  0  0
   -8.8640    0.7770   -0.4330 C   0  0  0  0  0  0  0  0  0  0  0  0
   -8.7230   -0.7270   -0.5340 C   0  0  1  0  0  0  0  0  0  0  0  0
   -8.7770   -1.3660    0.8550 C   0  0  0  0  0  0  0  0  0  0  0  0
  -10.2630   -1.1990    1.1800 C   0  0  0  0  0  0  0  0  0  0  0  0
  -10.8820   -1.1460   -0.1810 C   0  0  0  0  0  0  0  0  0  0  0  0
   -9.8610   -1.2380   -1.1210 O   0  0  0  0  0  0  0  0  0  0  0  0
   -5.8940    0.7350   -1.4770 N   0  0  0  0  0  0  0  0  0  0  0  0
   -4.7260    0.5930   -2.1320 C   0  0  0  0  0  0  0  0  0  0  0  0
   -4.6460   -0.0170   -3.3580 C   0  0  0  0  0  0  0  0  0  0  0  0
   -3.4560   -0.1470   -4.0280 C   0  0  0  0  0  0  0  0  0  0  0  0
   -2.2950    0.3430   -3.4690 C   0  0  0  0  0  0  0  0  0  0  0  0
   -2.3810    0.9650   -2.2170 C   0  0  0  0  0  0  0  0  0  0  0  0
   -3.5630    1.1060   -1.5270 C   0  0  0  0  0  0  0  0  0  0  0  0
   -2.2750    3.5740    0.6890 C   0  0  0  0  0  0  0  0  0  0  0  0
   -0.6210    3.6780    1.3820 S   0  0  0  0  0  0  0  0  0  0  0  0
    3.6640    0.1980    2.2700 O   0  0  0  0  0  0  0  0  0  0  0  0
    4.6960   -0.5840    2.4860 N   0  0  0  0  0  0  0  0  0  0  0  0
    7.7200   -2.3010    0.5450 C   0  0  0  0  0  0  0  0  0  0  0  0
    8.4090   -1.3920   -0.2410 C   0  0  0  0  0  0  0  0  0  0  0  0
  1  2  1  0
  2  3  1  0
  3  4  1  0
  4  5  2  0
  4 41  1  0
  5  6  1  0
  6  7  2  0
  7  8  1  0
  7 40  1  0
  8  9  1  0
  9 10  1  0
 10 11  1  0
 10 39  2  0
 11 12  2  0
 12 13  1  0
 12 38  1  0
 13 14  2  0
 13 15  1  0
 15 16  1  0
 16 17  2  0
 16 37  1  0
 17 18  1  0
 18 19  1  0
 18 36  2  0
 19 20  2  0
 19 35  1  0
 20 21  1  0
 21 22  1  0
 21 29  2  0
 22 23  1  0
 24 23  1  1
 24 25  1  0
 24 28  1  0
 25 26  1  0
 26 27  1  0
 27 28  1  0
 29 30  1  0
 30 31  2  0
 30 35  1  0
 31 32  1  0
 32 33  2  0
 33 34  1  0
 34 35  2  0
 36 37  1  0
 38 39  1  0
 40 41  2  0
M  CHG  1   1   1
M  END
