
     RDKit          3D

 41 44  0  0  0  0  0  0  0  0999 V2000
    7.3750    4.3010   -2.4480 C   0  0  0  0  0  0  0  0  0  0  0  0
    6.5720    4.3340   -1.2900 O   0  0  0  0  0  0  0  0  0  0  0  0
    5.4560    3.5470   -1.1260 C   0  0  0  0  0  0  0  0  0  0  0  0
    4.7030    3.6600    0.0500 C   0  0  0  0  0  0  0  0  0  0  0  0
    3.5860    2.8800    0.2350 C   0  0  0  0  0  0  0  0  0  0  0  0
    3.1620    1.9640   -0.7150 C   0  0  0  0  0  0  0  0  0  0  0  0
    1.7230    0.9920   -0.4410 S   0  0  1  0  0  0  0  0  0  0  0  0
    0.7710    1.9450    0.2840 O   0  0  0  0  0  0  0  0  0  0  0  0
    1.0770    0.6570   -1.7430 O   0  0  0  0  0  0  0  0  0  0  0  0
    1.9910   -0.3070    0.5940 N   0  0  0  0  0  0  0  0  0  0  0  0
    2.9300   -1.2890    0.2280 C   0  0  0  0  0  0  0  0  0  0  0  0
    4.3580   -0.9710    0.5850 C   0  0  1  0  0  0  0  0  0  0  0  0
    4.5360   -0.7810    2.0810 C   0  0  0  0  0  0  0  0  0  0  0  0
    5.2080   -2.1600    0.1840 C   0  0  0  0  0  0  0  0  0  0  0  0
    1.0650   -0.5940    1.5830 C   0  0  0  0  0  0  0  0  0  0  0  0
    0.0470   -1.6470    1.4640 C   0  0  1  0  0  0  0  0  0  0  0  0
   -0.6670   -1.5550    2.7240 O   0  0  0  0  0  0  0  0  0  0  0  0
   -1.0000   -1.5640    0.4290 C   0  0  2  0  0  0  0  0  0  0  0  0
   -0.7160   -2.2560   -0.8850 C   0  0  0  0  0  0  0  0  0  0  0  0
   -0.5380   -3.7100   -0.6820 C   0  0  0  0  0  0  0  0  0  0  0  0
    0.6510   -4.3570   -0.5050 C   0  0  0  0  0  0  0  0  0  0  0  0
    0.7570   -5.7340   -0.2970 C   0  0  0  0  0  0  0  0  0  0  0  0
   -0.3980   -6.4750   -0.2720 C   0  0  0  0  0  0  0  0  0  0  0  0
   -1.6400   -5.8660   -0.4480 C   0  0  0  0  0  0  0  0  0  0  0  0
   -1.6860   -4.5030   -0.6480 C   0  0  0  0  0  0  0  0  0  0  0  0
   -1.7610   -0.3640    0.3310 N   0  0  0  0  0  0  0  0  0  0  0  0
   -3.0500   -0.2410    0.9170 C   0  0  0  0  0  0  0  0  0  0  0  0
   -3.5970   -1.1780    1.5590 O   0  0  0  0  0  0  0  0  0  0  0  0
   -3.7970    0.9380    0.8130 O   0  0  0  0  0  0  0  0  0  0  0  0
   -5.0540    1.0350    1.3980 C   0  0  1  0  0  0  0  0  0  0  0  0
   -5.2220    2.1880    2.3200 C   0  0  0  0  0  0  0  0  0  0  0  0
   -6.4630    2.7380    2.1700 O   0  0  0  0  0  0  0  0  0  0  0  0
   -7.1690    2.0140    1.2390 C   0  0  1  0  0  0  0  0  0  0  0  0
   -7.8730    2.7910    0.3660 O   0  0  0  0  0  0  0  0  0  0  0  0
   -7.1460    3.0040   -0.7730 C   0  0  0  0  0  0  0  0  0  0  0  0
   -5.8710    2.1950   -0.6960 C   0  0  2  0  0  0  0  0  0  0  0  0
   -5.6540    1.5900   -1.9300 O   0  0  0  0  0  0  0  0  0  0  0  0
   -4.4640    2.0850   -2.4530 C   0  0  0  0  0  0  0  0  0  0  0  0
   -6.1710    1.2410    0.4050 C   0  0  1  0  0  0  0  0  0  0  0  0
    3.8970    1.8510   -1.8670 C   0  0  0  0  0  0  0  0  0  0  0  0
    5.0240    2.6300   -2.0680 C   0  0  0  0  0  0  0  0  0  0  0  0
  1  2  1  0
  2  3  1  0
  3  4  2  0
  3 41  1  0
  4  5  1  0
  5  6  2  0
  6  7  1  0
  6 40  1  0
  7  8  2  0
  7  9  2  0
  7 10  1  1
 10 11  1  0
 10 15  1  0
 11 12  1  0
 12 13  1  1
 12 14  1  0
 15 16  1  0
 16 17  1  1
 16 18  1  0
 18 19  1  6
 18 26  1  0
 19 20  1  0
 20 21  2  0
 20 25  1  0
 21 22  1  0
 22 23  2  0
 23 24  1  0
 24 25  2  0
 26 27  1  0
 27 28  2  0
 27 29  1  0
 30 29  1  6
 30 31  1  0
 39 30  1  1
 31 32  1  0
 33 32  1  1
 33 34  1  0
 33 39  1  0
 34 35  1  0
 35 36  1  0
 36 37  1  6
 36 39  1  0
 37 38  1  0
 40 41  2  0
M  END
