
     RDKit          3D

 41 45  0  0  0  0  0  0  0  0999 V2000
   10.1260   -0.8960    3.1850 C   0  0  0  0  0  0  0  0  0  0  0  0
    9.9900   -1.7110    1.9660 C   0  0  0  0  0  0  0  0  0  0  0  0
    8.9690   -1.4480    1.1380 C   0  0  0  0  0  0  0  0  0  0  0  0
    8.8850   -2.2510   -0.0060 N   0  0  0  0  0  0  0  0  0  0  0  0
    8.0380   -0.3860    1.4800 C   0  0  0  0  0  0  0  0  0  0  0  0
    8.0020    0.6660    0.5020 N   0  0  0  0  0  0  0  0  0  0  0  0
    7.5870    0.4370   -0.8130 C   0  0  0  0  0  0  0  0  0  0  0  0
    7.2250   -0.6930   -1.1840 O   0  0  0  0  0  0  0  0  0  0  0  0
    7.5940    1.6070   -1.7700 C   0  0  0  0  0  0  0  0  0  0  0  0
    7.0180    1.0040   -3.3630 S   0  0  0  0  0  0  0  0  0  0  0  0
    5.2850    0.5300   -3.1760 C   0  0  0  0  0  0  0  0  0  0  0  0
    4.6350    0.0210   -4.2870 C   0  0  0  0  0  0  0  0  0  0  0  0
    3.2840   -0.3570   -4.1670 C   0  0  0  0  0  0  0  0  0  0  0  0
    2.6260   -0.2250   -2.9830 C   0  0  0  0  0  0  0  0  0  0  0  0
    3.2680    0.2780   -1.8860 C   0  0  0  0  0  0  0  0  0  0  0  0
    4.6160    0.6620   -1.9810 C   0  0  0  0  0  0  0  0  0  0  0  0
    2.5480    0.3940   -0.6850 N   0  0  0  0  0  0  0  0  0  0  0  0
    1.3320    1.1280   -0.7500 C   0  0  0  0  0  0  0  0  0  0  0  0
    0.2670    0.5520   -1.6100 C   0  0  2  0  0  0  0  0  0  0  0  0
   -0.8650   -0.0450   -0.8450 C   0  0  0  0  0  0  0  0  0  0  0  0
   -0.8170   -1.0670    0.0740 C   0  0  0  0  0  0  0  0  0  0  0  0
   -2.1070   -1.2630    0.5080 C   0  0  0  0  0  0  0  0  0  0  0  0
   -2.8900   -0.3520   -0.1650 C   0  0  0  0  0  0  0  0  0  0  0  0
   -4.3660   -0.1960   -0.0140 C   0  0  0  0  0  0  0  0  0  0  0  0
   -4.9370    0.7360   -0.7440 C   0  0  0  0  0  0  0  0  0  0  0  0
   -6.3690    1.0020   -0.7020 C   0  0  0  0  0  0  0  0  0  0  0  0
   -6.8280    1.9300   -1.4510 O   0  0  0  0  0  0  0  0  0  0  0  0
   -7.2530    0.2770    0.1290 N   0  0  0  0  0  0  0  0  0  0  0  0
   -8.6340    0.4550    0.2420 C   0  0  0  0  0  0  0  0  0  0  0  0
   -9.3240    1.3880   -0.4690 C   0  0  0  0  0  0  0  0  0  0  0  0
  -10.7100    1.4760   -0.2700 C   0  0  0  0  0  0  0  0  0  0  0  0
  -11.3520    0.6410    0.6180 C   0  0  0  0  0  0  0  0  0  0  0  0
  -10.6460   -0.2920    1.3260 C   0  0  0  0  0  0  0  0  0  0  0  0
   -9.2890   -0.3980    1.1510 C   0  0  0  0  0  0  0  0  0  0  0  0
   -8.5610   -1.3790    1.8980 N   0  0  0  0  0  0  0  0  0  0  0  0
   -8.4880   -2.6730    1.6700 C   0  0  0  0  0  0  0  0  0  0  0  0
   -7.6800   -3.2700    2.6270 C   0  0  0  0  0  0  0  0  0  0  0  0
   -7.2520   -2.2640    3.4670 C   0  0  0  0  0  0  0  0  0  0  0  0
   -7.8220   -1.1020    2.9800 C   0  0  0  0  0  0  0  0  0  0  0  0
   -2.1090    0.3290   -0.9380 O   0  0  0  0  0  0  0  0  0  0  0  0
    0.9360   -0.6870   -2.7950 S   0  0  0  0  0  0  0  0  0  0  0  0
  1  2  1  0
  2  3  2  3
  3  4  1  0
  3  5  1  0
  5  6  1  0
  6  7  1  0
  7  8  2  0
  7  9  1  0
  9 10  1  0
 10 11  1  0
 11 12  2  0
 11 16  1  0
 12 13  1  0
 13 14  2  0
 14 15  1  0
 14 41  1  0
 15 16  2  0
 15 17  1  0
 17 18  1  0
 18 19  1  0
 19 20  1  1
 19 41  1  0
 20 21  2  0
 20 40  1  0
 21 22  1  0
 22 23  2  0
 23 24  1  0
 23 40  1  0
 24 25  2  3
 25 26  1  0
 26 27  2  0
 26 28  1  0
 28 29  1  0
 29 30  2  0
 29 34  1  0
 30 31  1  0
 31 32  2  0
 32 33  1  0
 33 34  2  0
 34 35  1  0
 35 36  1  0
 35 39  1  0
 36 37  2  0
 37 38  1  0
 38 39  2  0
M  CHG  1  17   1
M  END
