
     RDKit          3D

 41 45  0  0  0  0  0  0  0  0999 V2000
    2.8360   -3.9470    0.2430 C   0  0  0  0  0  0  0  0  0  0  0  0
    4.0510   -3.7350    0.6610 C   0  0  0  0  0  0  0  0  0  0  0  0
    4.7120   -4.8460    1.2460 O   0  0  0  0  0  0  0  0  0  0  0  0
    6.0050   -4.7150    1.7110 C   0  0  0  0  0  0  0  0  0  0  0  0
    6.5970   -3.5410    1.5960 C   0  0  0  0  0  0  0  0  0  0  0  0
    5.9470   -2.3810    1.0030 C   0  0  0  0  0  0  0  0  0  0  0  0
    4.6940   -2.4620    0.5400 C   0  0  0  0  0  0  0  0  0  0  0  0
    4.0920   -1.2890   -0.0620 C   0  0  0  0  0  0  0  0  0  0  0  0
    2.9650   -0.7070    0.6180 N   0  0  0  0  0  0  0  0  0  0  0  0
    2.0390   -0.2040   -0.3840 C   0  0  0  0  0  0  0  0  0  0  0  0
    1.0050    0.6760    0.1290 C   0  0  0  0  0  0  0  0  0  0  0  0
    1.2250    2.2680    0.7540 S   0  0  0  0  0  0  0  0  0  0  0  0
    2.6080    3.2660    0.2750 C   0  0  0  0  0  0  0  0  0  0  0  0
    2.6310    4.4720    0.6620 N   0  0  0  0  0  0  0  0  0  0  0  0
    3.5100    5.5140    0.4930 C   0  0  0  0  0  0  0  0  0  0  0  0
    3.2360    6.8090    0.9840 C   0  0  0  0  0  0  0  0  0  0  0  0
    4.0820    7.8570    0.7510 C   0  0  0  0  0  0  0  0  0  0  0  0
    5.2480    7.6410    0.0060 C   0  0  0  0  0  0  0  0  0  0  0  0
    5.5310    6.3900   -0.4790 C   0  0  0  0  0  0  0  0  0  0  0  0
    4.6750    5.3540   -0.2330 C   0  0  0  0  0  0  0  0  0  0  0  0
    5.0630    3.7110   -0.7940 S   0  0  0  0  0  0  0  0  0  0  0  0
    3.6160    2.6830   -0.6120 C   0  0  0  0  0  0  0  0  0  0  0  0
   -0.2970    0.2780    0.0720 C   0  0  0  0  0  0  0  0  0  0  0  0
   -0.6840   -0.9720   -0.4730 C   0  0  0  0  0  0  0  0  0  0  0  0
   -1.9970   -1.3430   -0.5050 C   0  0  0  0  0  0  0  0  0  0  0  0
   -2.3000   -2.6660   -1.0930 C   0  0  0  0  0  0  0  0  0  0  0  0
   -3.0410   -2.5180   -2.3950 C   0  0  0  0  0  0  0  0  0  0  0  0
   -3.4150   -3.8620   -2.9780 C   0  0  0  0  0  0  0  0  0  0  0  0
   -4.0980   -3.6610   -4.1690 O   0  0  0  0  0  0  0  0  0  0  0  0
   -2.9960   -0.4500    0.0350 C   0  0  0  0  0  0  0  0  0  0  0  0
   -4.4220   -0.8460    0.1420 C   0  0  0  0  0  0  0  0  0  0  0  0
   -4.8650   -1.9380   -0.2610 O   0  0  0  0  0  0  0  0  0  0  0  0
   -5.3390    0.0540    0.7290 N   0  0  0  0  0  0  0  0  0  0  0  0
   -6.7210   -0.1820    0.8950 C   0  0  0  0  0  0  0  0  0  0  0  0
   -7.4130    0.6100    1.8270 C   0  0  0  0  0  0  0  0  0  0  0  0
   -8.7500    0.4430    2.0260 C   0  0  0  0  0  0  0  0  0  0  0  0
   -9.4810   -0.4940    1.3350 C   0  0  0  0  0  0  0  0  0  0  0  0
   -8.8420   -1.2750    0.4250 C   0  0  0  0  0  0  0  0  0  0  0  0
   -7.4640   -1.1050    0.2190 C   0  0  0  0  0  0  0  0  0  0  0  0
   -2.6590    0.6890    0.5320 N   0  0  0  0  0  0  0  0  0  0  0  0
   -1.3310    1.1160    0.5810 N   0  0  0  0  0  0  0  0  0  0  0  0
  1  2  2  0
  2  3  1  0
  2  7  1  0
  3  4  1  0
  4  5  2  0
  5  6  1  0
  6  7  2  0
  7  8  1  0
  8  9  1  0
  9 10  1  0
 10 11  1  0
 11 12  1  0
 11 23  2  3
 12 13  1  0
 13 14  2  0
 13 22  1  0
 14 15  1  0
 15 16  2  0
 15 20  1  0
 16 17  1  0
 17 18  2  0
 18 19  1  0
 19 20  2  0
 20 21  1  0
 21 22  1  0
 23 24  1  0
 23 41  1  0
 24 25  2  0
 25 26  1  0
 25 30  1  0
 26 27  1  0
 27 28  1  0
 28 29  1  0
 30 31  1  0
 30 40  2  0
 31 32  2  0
 31 33  1  0
 33 34  1  0
 34 35  2  0
 34 39  1  0
 35 36  1  0
 36 37  2  0
 37 38  1  0
 38 39  2  0
 40 41  1  0
M  CHG  1   9   1
M  END
