
     RDKit          3D

 41 45  0  0  0  0  0  0  0  0999 V2000
    9.8290    1.1700    1.5790 C   0  0  0  0  0  0  0  0  0  0  0  0
    9.3410    0.1810    0.8230 C   0  0  0  0  0  0  0  0  0  0  0  0
    8.9450    0.4830   -0.5610 C   0  0  0  0  0  0  0  0  0  0  0  0
    7.6200    0.2240   -0.7920 O   0  0  0  0  0  0  0  0  0  0  0  0
    6.9800   -0.9820   -0.7460 C   0  0  0  0  0  0  0  0  0  0  0  0
    7.5810   -2.1680   -0.4900 C   0  0  0  0  0  0  0  0  0  0  0  0
    6.8530   -3.3400   -0.4590 C   0  0  0  0  0  0  0  0  0  0  0  0
    5.5060   -3.2830   -0.6940 C   0  0  0  0  0  0  0  0  0  0  0  0
    4.8680   -2.1190   -0.9540 C   0  0  0  0  0  0  0  0  0  0  0  0
    5.5710   -0.9080   -0.9940 C   0  0  0  0  0  0  0  0  0  0  0  0
    5.0160    0.2220   -1.2360 O   0  0  0  0  0  0  0  0  0  0  0  0
    4.4580    1.3500   -1.4780 C   0  0  0  0  0  0  0  0  0  0  0  0
    3.3970    1.6670   -0.4560 C   0  0  0  0  0  0  0  0  0  0  0  0
    3.7200    2.0520    0.8160 C   0  0  0  0  0  0  0  0  0  0  0  0
    2.7070    2.3240    1.7050 C   0  0  0  0  0  0  0  0  0  0  0  0
    1.3870    2.2080    1.3130 C   0  0  0  0  0  0  0  0  0  0  0  0
    1.0570    1.8230    0.0400 C   0  0  0  0  0  0  0  0  0  0  0  0
   -0.3620    1.6840   -0.4010 C   0  0  2  0  0  0  0  0  0  0  0  0
   -0.8830    3.0600   -0.6160 C   0  0  0  0  0  0  0  0  0  0  0  0
   -1.0340    0.8670    0.5410 N   0  0  0  0  0  0  0  0  0  0  0  0
   -2.3850    0.5020    0.4040 C   0  0  0  0  0  0  0  0  0  0  0  0
   -3.4240    1.3590    0.1720 C   0  0  0  0  0  0  0  0  0  0  0  0
   -4.7380    0.9060   -0.0080 C   0  0  0  0  0  0  0  0  0  0  0  0
   -5.7990    1.8920   -0.2320 C   0  0  0  0  0  0  0  0  0  0  0  0
   -6.9750    1.5240   -0.4510 O   0  0  0  0  0  0  0  0  0  0  0  0
   -5.5350    3.2540   -0.2070 O   0  0  0  0  0  0  0  0  0  0  0  0
   -6.6240    4.1580   -0.4370 C   0  0  1  0  0  0  0  0  0  0  0  0
   -6.7530    5.0260    0.8280 C   0  0  0  0  0  0  0  0  0  0  0  0
   -6.2690    5.1160   -1.5470 C   0  0  0  0  0  0  0  0  0  0  0  0
   -4.9530   -0.4350    0.0550 C   0  0  0  0  0  0  0  0  0  0  0  0
   -3.9460   -1.3550    0.2870 C   0  0  0  0  0  0  0  0  0  0  0  0
   -4.2350   -2.7980    0.3390 C   0  0  0  0  0  0  0  0  0  0  0  0
   -5.4200   -3.4070    0.1780 N   0  0  0  0  0  0  0  0  0  0  0  0
   -5.2420   -4.7490    0.3030 C   0  0  0  0  0  0  0  0  0  0  0  0
   -3.9130   -4.9170    0.5430 C   0  0  0  0  0  0  0  0  0  0  0  0
   -3.3540   -3.7200    0.5550 O   0  0  0  0  0  0  0  0  0  0  0  0
   -3.5650   -6.3600    0.7040 C   0  0  0  0  0  0  0  0  0  0  0  0
   -4.9060   -7.0140    0.8880 C   0  0  0  0  0  0  0  0  0  0  0  0
   -5.9020   -6.0780    0.2800 C   0  0  0  0  0  0  0  0  0  0  0  0
   -2.6750   -0.8690    0.4580 C   0  0  0  0  0  0  0  0  0  0  0  0
    2.0790    1.5530   -0.8430 C   0  0  0  0  0  0  0  0  0  0  0  0
  1  2  2  0
  2  3  1  0
  3  4  1  0
  4  5  1  0
  5  6  2  0
  5 10  1  0
  6  7  1  0
  7  8  2  0
  8  9  1  0
  9 10  2  0
 10 11  1  0
 11 12  1  0
 12 13  1  0
 13 14  2  0
 13 41  1  0
 14 15  1  0
 15 16  2  0
 16 17  1  0
 17 18  1  0
 17 41  2  0
 18 19  1  1
 18 20  1  0
 20 21  1  0
 21 22  2  0
 21 40  1  0
 22 23  1  0
 23 24  1  0
 23 30  2  0
 24 25  2  0
 24 26  1  0
 26 27  1  0
 27 28  1  1
 27 29  1  0
 30 31  1  0
 31 32  1  0
 31 40  2  0
 32 33  2  0
 32 36  1  0
 33 34  1  0
 34 35  2  0
 34 39  1  0
 35 36  1  0
 35 37  1  0
 37 38  1  0
 38 39  1  0
M  END
