
     RDKit          3D

 41 44  0  0  0  0  0  0  0  0999 V2000
  -11.6980   -0.1110    0.2760 C   0  0  0  0  0  0  0  0  0  0  0  0
  -10.9470    1.0240    0.3770 O   0  0  0  0  0  0  0  0  0  0  0  0
   -9.7080    0.9900   -0.2710 C   0  0  0  0  0  0  0  0  0  0  0  0
   -9.7810    0.8730   -1.7220 C   0  0  0  0  0  0  0  0  0  0  0  0
  -10.9510    0.8370   -2.2830 O   0  0  0  0  0  0  0  0  0  0  0  0
   -8.6760    0.7920   -2.6080 C   0  0  0  0  0  0  0  0  0  0  0  0
   -7.3820    0.8100   -2.4710 C   0  0  0  0  0  0  0  0  0  0  0  0
   -6.5370    0.9270   -1.3150 C   0  0  0  0  0  0  0  0  0  0  0  0
   -5.1340    0.9000   -1.4140 C   0  0  0  0  0  0  0  0  0  0  0  0
   -4.6560    1.0370   -0.1430 C   0  0  0  0  0  0  0  0  0  0  0  0
   -5.6900    1.1410    0.7050 C   0  0  0  0  0  0  0  0  0  0  0  0
   -5.7620    1.2940    2.1440 C   0  0  0  0  0  0  0  0  0  0  0  0
   -5.0060    1.0750    3.1260 C   0  0  0  0  0  0  0  0  0  0  0  0
   -3.7270    0.5680    3.4690 C   0  0  0  0  0  0  0  0  0  0  0  0
   -3.3580    0.7680    4.7440 O   0  0  0  0  0  0  0  0  0  0  0  0
   -2.6980   -0.1380    2.7590 C   0  0  0  0  0  0  0  0  0  0  0  0
   -2.9000   -0.9490    1.6660 C   0  0  0  0  0  0  0  0  0  0  0  0
   -1.8860   -1.5480    0.9690 C   0  0  0  0  0  0  0  0  0  0  0  0
   -0.5430   -1.3670    1.3370 C   0  0  0  0  0  0  0  0  0  0  0  0
    0.4670   -2.0250    0.6010 N   0  0  0  0  0  0  0  0  0  0  0  0
    1.6510   -1.3790    0.2000 C   0  0  0  0  0  0  0  0  0  0  0  0
    1.8470   -0.0180    0.3380 C   0  0  0  0  0  0  0  0  0  0  0  0
    3.0290    0.5920   -0.1090 C   0  0  0  0  0  0  0  0  0  0  0  0
    4.0350   -0.1390   -0.7000 C   0  0  0  0  0  0  0  0  0  0  0  0
    5.2580    0.4970   -1.1490 C   0  0  0  0  0  0  0  0  0  0  0  0
    5.7800    0.1120   -2.2250 O   0  0  0  0  0  0  0  0  0  0  0  0
    5.9220    1.5450   -0.4450 N   0  0  0  0  0  0  0  0  0  0  0  0
    7.1400    2.1570   -0.9280 C   0  0  0  0  0  0  0  0  0  0  0  0
    8.3190    1.3100   -0.7660 C   0  0  0  0  0  0  0  0  0  0  0  0
    9.5540    1.7480   -1.1720 C   0  0  0  0  0  0  0  0  0  0  0  0
   10.6810    0.9280   -1.0290 C   0  0  0  0  0  0  0  0  0  0  0  0
   10.5590   -0.3220   -0.4800 C   0  0  0  0  0  0  0  0  0  0  0  0
   11.7750   -1.1990   -0.3390 C   0  0  0  0  0  0  0  0  0  0  0  0
    9.3310   -0.7620   -0.0750 C   0  0  0  0  0  0  0  0  0  0  0  0
    8.2220    0.0540   -0.2200 C   0  0  0  0  0  0  0  0  0  0  0  0
    3.7970   -1.4970   -0.8190 C   0  0  0  0  0  0  0  0  0  0  0  0
    2.6650   -2.1280   -0.3980 C   0  0  0  0  0  0  0  0  0  0  0  0
    2.4840   -3.6190   -0.5590 C   0  0  0  0  0  0  0  0  0  0  0  0
   -0.3410   -0.5610    2.4310 C   0  0  0  0  0  0  0  0  0  0  0  0
   -1.3530    0.0450    3.1360 C   0  0  0  0  0  0  0  0  0  0  0  0
   -6.7750    1.0690   -0.0600 O   0  0  0  0  0  0  0  0  0  0  0  0
  1  2  1  0
  2  3  1  0
  3  4  1  0
  4  5  2  0
  4  6  1  0
  6  7  2  3
  7  8  1  0
  8  9  2  0
  8 41  1  0
  9 10  1  0
 10 11  2  0
 11 12  1  0
 11 41  1  0
 12 13  2  3
 13 14  1  0
 14 15  2  0
 14 16  1  0
 16 17  2  0
 16 40  1  0
 17 18  1  0
 18 19  2  0
 19 20  1  0
 19 39  1  0
 20 21  1  0
 21 22  2  0
 21 37  1  0
 22 23  1  0
 23 24  2  0
 24 25  1  0
 24 36  1  0
 25 26  2  0
 25 27  1  0
 27 28  1  0
 28 29  1  0
 29 30  2  0
 29 35  1  0
 30 31  1  0
 31 32  2  0
 32 33  1  0
 32 34  1  0
 34 35  2  0
 36 37  2  0
 37 38  1  0
 39 40  2  0
M  END
