
     RDKit          3D

 41 45  0  0  0  0  0  0  0  0999 V2000
    3.9010   -3.4360    1.1160 C   0  0  0  0  0  0  0  0  0  0  0  0
    4.8550   -2.6210    0.4210 O   0  0  0  0  0  0  0  0  0  0  0  0
    4.5270   -1.3550   -0.0280 C   0  0  0  0  0  0  0  0  0  0  0  0
    3.2360   -0.8200    0.1200 C   0  0  0  0  0  0  0  0  0  0  0  0
    2.9450    0.4450   -0.3380 C   0  0  0  0  0  0  0  0  0  0  0  0
    1.6650    1.0410   -0.3570 N   0  0  0  0  0  0  0  0  0  0  0  0
    0.4260    0.4420   -0.1500 C   0  0  0  0  0  0  0  0  0  0  0  0
    0.3470   -0.8180   -0.0070 O   0  0  0  0  0  0  0  0  0  0  0  0
   -0.8100    1.1550   -0.0840 N   0  0  0  0  0  0  0  0  0  0  0  0
   -2.0610    0.5300    0.0920 C   0  0  0  0  0  0  0  0  0  0  0  0
   -2.4160   -0.6490   -0.5200 C   0  0  0  0  0  0  0  0  0  0  0  0
   -3.6370   -1.2400   -0.2790 C   0  0  0  0  0  0  0  0  0  0  0  0
   -4.1320   -2.8010   -0.9790 S   0  0  0  0  0  0  0  0  0  0  0  0
   -5.2790   -2.5120   -2.3530 C   0  0  0  0  0  0  0  0  0  0  0  0
   -6.1530   -3.4390   -2.7700 C   0  0  0  0  0  0  0  0  0  0  0  0
   -6.9430   -2.9170   -3.8990 C   0  0  0  0  0  0  0  0  0  0  0  0
   -6.4590   -1.5310   -4.0890 C   0  0  0  0  0  0  0  0  0  0  0  0
   -5.4880   -1.3530   -3.1640 C   0  0  0  0  0  0  0  0  0  0  0  0
   -4.5520   -0.6790    0.5800 C   0  0  0  0  0  0  0  0  0  0  0  0
   -5.9050   -1.3380    0.7380 C   0  0  0  0  0  0  0  0  0  0  0  0
   -6.0270   -2.0850    2.3850 S   0  0  0  0  0  0  0  0  0  0  0  0
   -4.2320    0.5040    1.1990 C   0  0  0  0  0  0  0  0  0  0  0  0
   -5.3360    1.2560    1.8650 C   0  0  0  0  0  0  0  0  0  0  0  0
   -5.3780    1.3990    3.0670 O   0  0  0  0  0  0  0  0  0  0  0  0
   -6.3350    1.7990    1.0050 N   0  0  0  0  0  0  0  0  0  0  0  0
   -7.4960    2.5290    1.2940 C   0  0  0  0  0  0  0  0  0  0  0  0
   -8.7590    2.1550    1.0230 C   0  0  0  0  0  0  0  0  0  0  0  0
   -9.7060    3.1940    1.4750 C   0  0  0  0  0  0  0  0  0  0  0  0
   -8.8500    4.2340    2.0320 C   0  0  0  0  0  0  0  0  0  0  0  0
   -7.5980    3.8350    1.9200 C   0  0  0  0  0  0  0  0  0  0  0  0
   -3.0020    1.1000    0.9620 C   0  0  0  0  0  0  0  0  0  0  0  0
    3.9710    1.1400   -0.9310 N   0  0  0  0  0  0  0  0  0  0  0  0
    5.2110    0.6130   -1.0690 C   0  0  0  0  0  0  0  0  0  0  0  0
    5.5530   -0.6420   -0.6390 C   0  0  0  0  0  0  0  0  0  0  0  0
    6.8960   -1.2550   -0.8270 C   0  0  0  0  0  0  0  0  0  0  0  0
    7.8110   -0.4220   -1.5210 N   0  0  0  0  0  0  0  0  0  0  0  0
    8.8930    0.1070   -0.8020 C   0  0  1  0  0  0  0  0  0  0  0  0
    9.0270    1.6320   -0.7890 C   0  0  0  0  0  0  0  0  0  0  0  0
   10.2730    1.7400    0.1500 C   0  0  0  0  0  0  0  0  0  0  0  0
   10.1520    0.6070    1.1170 C   0  0  0  0  0  0  0  0  0  0  0  0
    8.9250   -0.1870    0.6820 C   0  0  0  0  0  0  0  0  0  0  0  0
  1  2  1  0
  2  3  1  0
  3  4  2  0
  3 34  1  0
  4  5  1  0
  5  6  1  0
  5 32  2  0
  6  7  1  0
  7  8  2  0
  7  9  1  0
  9 10  1  0
 10 11  2  0
 10 31  1  0
 11 12  1  0
 12 13  1  0
 12 19  2  0
 13 14  1  0
 14 15  2  0
 14 18  1  0
 15 16  1  0
 16 17  1  0
 17 18  2  0
 19 20  1  0
 19 22  1  0
 20 21  1  0
 22 23  1  0
 22 31  2  0
 23 24  2  0
 23 25  1  0
 25 26  1  0
 26 27  2  0
 26 30  1  0
 27 28  1  0
 28 29  1  0
 29 30  2  0
 32 33  1  0
 33 34  2  0
 34 35  1  0
 35 36  1  0
 37 36  1  1
 37 38  1  0
 37 41  1  0
 38 39  1  0
 39 40  1  0
 40 41  1  0
M  CHG  1  36   1
M  END
