
     RDKit          3D

 10 10  0  0  0  0  0  0  0  0999 V2000
   -0.9830    2.3590   -1.1460 N   0  0  0  0  0  0  0  0  0  0  0  0
   -1.3870    1.0050   -1.0830 C   0  0  0  0  0  0  0  0  0  0  0  0
   -0.7070    0.1320   -0.3830 C   0  0  0  0  0  0  0  0  0  0  0  0
   -1.2310   -1.2400   -0.4000 C   0  0  0  0  0  0  0  0  0  0  0  0
   -0.5900   -2.3670   -0.1600 C   0  0  0  0  0  0  0  0  0  0  0  0
    0.8340   -2.4950    0.1880 C   0  0  0  0  0  0  0  0  0  0  0  0
    1.7060   -1.5590    0.5640 C   0  0  0  0  0  0  0  0  0  0  0  0
    1.5180   -0.1350    0.7440 C   0  0  0  0  0  0  0  0  0  0  0  0
    0.4780    0.5840    0.3340 C   0  0  0  0  0  0  0  0  0  0  0  0
    0.4960    1.9660    0.6270 N   0  0  0  0  0  0  0  0  0  0  0  0
  1  2  1  0
  2  3  2  3
  3  4  1  0
  3  9  1  0
  4  5  2  0
  5  6  1  0
  6  7  2  0
  7  8  1  0
  8  9  2  0
  9 10  1  0
M  END
