
     RDKit          3D

 11 12  0  0  0  0  0  0  0  0999 V2000
   -2.9290    0.1060    0.2830 N   0  0  0  0  0  0  0  0  0  0  0  0
   -1.5530    0.3750    0.1880 C   0  0  0  0  0  0  0  0  0  0  0  0
   -1.0770    1.6670    0.2920 C   0  0  0  0  0  0  0  0  0  0  0  0
    0.2790    1.9490    0.2000 C   0  0  0  0  0  0  0  0  0  0  0  0
    1.1610    0.9090   -0.0000 C   0  0  0  0  0  0  0  0  0  0  0  0
    2.5300    0.8140   -0.1370 C   0  0  0  0  0  0  0  0  0  0  0  0
    2.8570   -0.5140   -0.3190 C   0  0  0  0  0  0  0  0  0  0  0  0
    1.7110   -1.2430   -0.2980 N   0  0  0  0  0  0  0  0  0  0  0  0
    0.6750   -0.3910   -0.1050 C   0  0  0  0  0  0  0  0  0  0  0  0
   -0.6750   -0.6810   -0.0140 C   0  0  0  0  0  0  0  0  0  0  0  0
   -1.1260   -2.0200   -0.1260 N   0  0  0  0  0  0  0  0  0  0  0  0
  1  2  1  0
  2  3  2  0
  2 10  1  0
  3  4  1  0
  4  5  2  0
  5  6  1  0
  5  9  1  0
  6  7  2  0
  7  8  1  0
  8  9  1  0
  9 10  2  0
 10 11  1  0
M  END
