
     RDKit          3D

 11 11  0  0  0  0  0  0  0  0999 V2000
    3.4790   -0.9900   -0.0380 N   0  0  0  0  0  0  0  0  0  0  0  0
    2.1530   -0.4980   -0.1910 C   0  0  0  0  0  0  0  0  0  0  0  0
    2.0970    0.7230   -0.7020 C   0  0  0  0  0  0  0  0  0  0  0  0
    0.9050    1.5130   -0.9860 C   0  0  0  0  0  0  0  0  0  0  0  0
   -0.3730    1.2710   -0.7000 C   0  0  0  0  0  0  0  0  0  0  0  0
   -0.8810    0.1060   -0.0060 C   0  0  0  0  0  0  0  0  0  0  0  0
   -2.1360    0.1570    0.3960 C   0  0  0  0  0  0  0  0  0  0  0  0
   -2.8830    1.3430    0.1190 N   0  0  0  0  0  0  0  0  0  0  0  0
   -2.7100   -0.9410    1.0820 N   0  0  0  0  0  0  0  0  0  0  0  0
   -0.1800   -1.1270    0.3070 C   0  0  0  0  0  0  0  0  0  0  0  0
    1.1220   -1.4340    0.2430 C   0  0  0  0  0  0  0  0  0  0  0  0
  1  2  1  0
  2  3  2  0
  2 11  1  0
  3  4  1  0
  4  5  2  0
  5  6  1  0
  6  7  2  3
  6 10  1  0
  7  8  1  0
  7  9  1  0
 10 11  2  0
M  END
