
     RDKit          3D

 11 12  0  0  0  0  0  0  0  0999 V2000
   -2.4680    1.5540    0.1300 N   0  0  0  0  0  0  0  0  0  0  0  0
   -1.2750    0.7790    0.0660 C   0  0  0  0  0  0  0  0  0  0  0  0
   -0.0280    1.3550   -0.0560 C   0  0  0  0  0  0  0  0  0  0  0  0
    1.1420    0.6260   -0.1190 C   0  0  0  0  0  0  0  0  0  0  0  0
    2.4740    0.9400   -0.2370 C   0  0  0  0  0  0  0  0  0  0  0  0
    3.2160   -0.2160   -0.2500 C   0  0  0  0  0  0  0  0  0  0  0  0
    2.3300   -1.2350   -0.1390 N   0  0  0  0  0  0  0  0  0  0  0  0
    1.0740   -0.7720   -0.0580 C   0  0  0  0  0  0  0  0  0  0  0  0
   -0.1640   -1.3810    0.0650 C   0  0  0  0  0  0  0  0  0  0  0  0
   -1.3140   -0.6080    0.1250 C   0  0  0  0  0  0  0  0  0  0  0  0
   -2.5970   -1.2250    0.2510 N   0  0  0  0  0  0  0  0  0  0  0  0
  1  2  1  0
  2  3  2  0
  2 10  1  0
  3  4  1  0
  4  5  1  0
  4  8  2  0
  5  6  2  0
  6  7  1  0
  7  8  1  0
  8  9  1  0
  9 10  2  0
 10 11  1  0
M  END
