
     RDKit          3D

 11 12  0  0  0  0  0  0  0  0999 V2000
    2.9880   -0.0230    0.1690 N   0  0  0  0  0  0  0  0  0  0  0  0
    1.6000    0.2570    0.1080 C   0  0  0  0  0  0  0  0  0  0  0  0
    1.1730    1.5830    0.1670 C   0  0  0  0  0  0  0  0  0  0  0  0
   -0.1690    1.8950    0.1110 C   0  0  0  0  0  0  0  0  0  0  0  0
   -1.1440    0.9260   -0.0040 C   0  0  0  0  0  0  0  0  0  0  0  0
   -2.4970    0.9540   -0.0780 N   0  0  0  0  0  0  0  0  0  0  0  0
   -2.9670   -0.3060   -0.1830 C   0  0  0  0  0  0  0  0  0  0  0  0
   -1.8720   -1.1440   -0.1740 C   0  0  0  0  0  0  0  0  0  0  0  0
   -0.7060   -0.3810   -0.0610 C   0  0  0  0  0  0  0  0  0  0  0  0
    0.6340   -0.7030   -0.0060 C   0  0  0  0  0  0  0  0  0  0  0  0
    1.0600   -2.0620   -0.0670 N   0  0  0  0  0  0  0  0  0  0  0  0
  1  2  1  0
  2  3  2  0
  2 10  1  0
  3  4  1  0
  4  5  2  0
  5  6  1  0
  5  9  1  0
  6  7  1  0
  7  8  2  0
  8  9  1  0
  9 10  2  0
 10 11  1  0
M  END
