
     RDKit          3D

 12 13  0  0  0  0  0  0  0  0999 V2000
   -3.1290   -1.0920   -0.0590 N   0  0  0  0  0  0  0  0  0  0  0  0
   -1.8590   -0.4650    0.0040 C   0  0  0  0  0  0  0  0  0  0  0  0
   -0.7280   -1.0830   -0.3790 N   0  0  0  0  0  0  0  0  0  0  0  0
    0.4930   -0.5280   -0.3370 C   0  0  0  0  0  0  0  0  0  0  0  0
    1.7410   -0.9570   -0.6640 N   0  0  0  0  0  0  0  0  0  0  0  0
    2.6210    0.0290   -0.4150 C   0  0  0  0  0  0  0  0  0  0  0  0
    4.4040    0.0070   -0.6630 S   0  0  0  0  0  0  0  0  0  0  0  0
    1.9050    1.0670    0.0690 N   0  0  0  0  0  0  0  0  0  0  0  0
    0.6170    0.7470    0.1230 C   0  0  0  0  0  0  0  0  0  0  0  0
   -0.5380    1.3980    0.5210 C   0  0  0  0  0  0  0  0  0  0  0  0
   -0.4250    2.5690    0.9430 O   0  0  0  0  0  0  0  0  0  0  0  0
   -1.7400    0.8110    0.4640 N   0  0  0  0  0  0  0  0  0  0  0  0
  1  2  1  0
  2  3  1  0
  2 12  2  0
  3  4  1  0
  4  5  1  0
  4  9  2  0
  5  6  2  0
  6  7  1  0
  6  8  1  0
  8  9  1  0
  9 10  1  0
 10 11  2  0
 10 12  1  0
M  CHG  1  12   1
M  END
