
     RDKit          3D

 24 26  0  0  0  0  0  0  0  0999 V2000
    7.4020    0.0270   -0.1170 C   0  0  0  0  0  0  0  0  0  0  0  0
    6.2480    0.6650    0.3980 O   0  0  0  0  0  0  0  0  0  0  0  0
    4.9880    0.1120    0.2160 C   0  0  0  0  0  0  0  0  0  0  0  0
    4.8490   -0.9540   -0.4040 O   0  0  0  0  0  0  0  0  0  0  0  0
    3.8260    0.7520    0.7340 N   0  0  0  0  0  0  0  0  0  0  0  0
    2.5380    0.1720    0.5400 C   0  0  0  0  0  0  0  0  0  0  0  0
    1.3880    0.4010    0.8060 N   0  0  0  0  0  0  0  0  0  0  0  0
    0.3400   -0.3060    0.5140 C   0  0  0  0  0  0  0  0  0  0  0  0
    0.5860   -1.4820   -0.2000 C   0  0  0  0  0  0  0  0  0  0  0  0
    2.3170   -1.4490   -0.3800 S   0  0  0  0  0  0  0  0  0  0  0  0
   -0.4930   -2.3790   -0.5950 C   0  0  0  0  0  0  0  0  0  0  0  0
   -0.1740   -3.5230   -0.9890 O   0  0  0  0  0  0  0  0  0  0  0  0
   -1.9440   -1.9750   -0.5420 C   0  0  0  0  0  0  0  0  0  0  0  0
   -1.8880   -0.4710   -0.4430 C   0  0  1  0  0  0  0  0  0  0  0  0
   -3.2320    0.1740   -0.4580 C   0  0  0  0  0  0  0  0  0  0  0  0
   -4.3990   -0.4490   -0.3600 C   0  0  0  0  0  0  0  0  0  0  0  0
   -5.5740    0.2460   -0.3740 C   0  0  0  0  0  0  0  0  0  0  0  0
   -6.9140   -0.0860   -0.2940 O   0  0  0  0  0  0  0  0  0  0  0  0
   -4.9250    1.9620   -0.5460 S   0  0  0  0  0  0  0  0  0  0  0  0
   -3.2710    1.5740   -0.5760 C   0  0  0  0  0  0  0  0  0  0  0  0
   -1.9760    2.7220   -0.7340 S   0  0  1  0  0  0  0  0  0  0  0  0
   -2.1420    3.5680   -1.9790 O   0  0  0  0  0  0  0  0  0  0  0  0
   -1.9020    3.5430    0.4970 O   0  0  0  0  0  0  0  0  0  0  0  0
   -1.1160   -0.0790    0.8120 C   0  0  0  0  0  0  0  0  0  0  0  0
  1  2  1  0
  2  3  1  0
  3  4  2  0
  3  5  1  0
  5  6  1  0
  6  7  2  0
  6 10  1  0
  7  8  1  0
  8  9  2  0
  8 24  1  0
  9 10  1  0
  9 11  1  0
 11 12  2  0
 11 13  1  0
 13 14  1  0
 14 15  1  1
 14 24  1  0
 15 16  1  0
 15 20  2  0
 16 17  2  0
 17 18  1  0
 17 19  1  0
 19 20  1  0
 21 20  1  1
 21 22  2  0
 21 23  2  0
M  END
