
     RDKit          3D

 21 23  0  0  0  0  0  0  0  0999 V2000
   -1.8800   -2.2570   -1.5680 C   0  0  0  0  0  0  0  0  0  0  0  0
   -2.5340   -1.0510   -1.0050 C   0  0  0  0  0  0  0  0  0  0  0  0
   -1.8270   -0.2540   -0.2270 C   0  0  0  0  0  0  0  0  0  0  0  0
   -0.4480   -0.5140    0.0980 C   0  0  0  0  0  0  0  0  0  0  0  0
   -0.0380   -1.7340    0.4760 N   0  0  0  0  0  0  0  0  0  0  0  0
    1.2320   -2.0360    0.7940 C   0  0  0  0  0  0  0  0  0  0  0  0
    1.6330   -3.4100    1.2090 C   0  0  0  0  0  0  0  0  0  0  0  0
    2.1580   -1.0210    0.7210 C   0  0  0  0  0  0  0  0  0  0  0  0
    1.7700    0.2400    0.3360 C   0  0  0  0  0  0  0  0  0  0  0  0
    2.8290    1.3070    0.2700 C   0  0  1  0  0  0  0  0  0  0  0  0
    3.8750    0.8310   -0.7690 C   0  0  0  0  0  0  0  0  0  0  0  0
    2.2860    2.5880   -0.2540 C   0  0  0  0  0  0  0  0  0  0  0  0
    0.5080    0.4610    0.0390 N   0  0  0  0  0  0  0  0  0  0  0  0
   -2.4500    0.9460    0.3450 C   0  0  0  0  0  0  0  0  0  0  0  0
   -1.7560    1.7710    1.1360 N   0  0  0  0  0  0  0  0  0  0  0  0
   -2.2980    2.8590    1.6620 N   0  0  0  0  0  0  0  0  0  0  0  0
   -3.5890    3.1960    1.4270 C   0  0  0  0  0  0  0  0  0  0  0  0
   -4.2980    2.3810    0.6380 N   0  0  0  0  0  0  0  0  0  0  0  0
   -3.7840    1.2660    0.0840 C   0  0  0  0  0  0  0  0  0  0  0  0
   -4.4840    0.4020   -0.7350 O   0  0  0  0  0  0  0  0  0  0  0  0
   -3.9180   -0.7210   -1.2770 N   0  0  0  0  0  0  0  0  0  0  0  0
  1  2  1  0
  2  3  2  0
  2 21  1  0
  3  4  1  0
  3 14  1  0
  4  5  2  0
  4 13  1  0
  5  6  1  0
  6  7  1  0
  6  8  2  0
  8  9  1  0
  9 10  1  0
  9 13  2  0
 10 11  1  6
 10 12  1  0
 14 15  2  0
 14 19  1  0
 15 16  1  0
 16 17  2  0
 17 18  1  0
 18 19  2  0
 19 20  1  0
 20 21  1  0
M  END
