
     RDKit          3D

 24 26  0  0  0  0  0  0  0  0999 V2000
   -2.5250   -2.3090   -0.0950 C   0  0  0  0  0  0  0  0  0  0  0  0
   -1.9670   -0.9080    0.0520 C   0  0  0  0  0  0  0  0  0  0  0  0
   -0.8140   -0.7070    0.6500 C   0  0  0  0  0  0  0  0  0  0  0  0
   -0.0050   -1.7950    1.2030 N   0  0  0  0  0  0  0  0  0  0  0  0
   -0.3500    0.6870    0.7550 C   0  0  1  0  0  0  0  0  0  0  0  0
    1.3700    0.9020    0.7040 S   0  0  2  0  0  0  0  0  0  0  0  0
    1.9790    0.2290    1.9010 O   0  0  0  0  0  0  0  0  0  0  0  0
    1.6470    2.3910    0.7990 O   0  0  0  0  0  0  0  0  0  0  0  0
    2.1220    0.3290   -0.6740 O   0  0  0  0  0  0  0  0  0  0  0  0
    3.5030    0.2230   -0.7020 C   0  0  0  0  0  0  0  0  0  0  0  0
    4.1700   -0.6050   -1.4890 C   0  0  0  0  0  0  0  0  0  0  0  0
    5.6300   -0.4690   -1.2710 C   0  0  0  0  0  0  0  0  0  0  0  0
    5.7220    0.5740   -0.2270 C   0  0  0  0  0  0  0  0  0  0  0  0
    4.4980    0.9480    0.0760 C   0  0  0  0  0  0  0  0  0  0  0  0
    4.2300    1.9260    1.0350 O   0  0  0  0  0  0  0  0  0  0  0  0
   -1.1960    1.3900   -0.6930 S   0  0  0  0  0  0  0  0  0  0  0  0
   -2.6140    0.2640   -0.4460 C   0  0  0  0  0  0  0  0  0  0  0  0
   -3.8240    0.5980   -0.6730 C   0  0  0  0  0  0  0  0  0  0  0  0
   -4.3520    2.2430   -1.3440 S   0  0  0  0  0  0  0  0  0  0  0  0
   -5.9270    2.2110   -0.4400 C   0  0  0  0  0  0  0  0  0  0  0  0
   -6.5440    3.1990   -0.0060 O   0  0  0  0  0  0  0  0  0  0  0  0
   -6.2110    0.8240   -0.3880 N   0  0  0  0  0  0  0  0  0  0  0  0
   -5.1190   -0.0330   -0.5090 C   0  0  0  0  0  0  0  0  0  0  0  0
   -5.2580   -1.2990   -0.4770 O   0  0  0  0  0  0  0  0  0  0  0  0
  1  2  1  0
  2  3  2  0
  2 17  1  0
  3  4  1  0
  3  5  1  0
  5  6  1  0
  5 16  1  6
  6  7  2  0
  6  8  2  0
  6  9  1  6
  9 10  1  0
 10 11  2  0
 10 14  1  0
 11 12  1  0
 12 13  1  0
 13 14  2  0
 14 15  1  0
 16 17  1  0
 17 18  2  3
 18 19  1  0
 18 23  1  0
 19 20  1  0
 20 21  2  0
 20 22  1  0
 22 23  1  0
 23 24  2  0
M  END
