
     RDKit          3D

 23 24  0  0  0  0  0  0  0  0999 V2000
   -6.7210    0.5420    0.0420 C   0  0  0  0  0  0  0  0  0  0  0  0
   -6.3220   -0.8790   -0.1790 C   0  0  0  0  0  0  0  0  0  0  0  0
   -4.9580   -1.0320    0.0870 O   0  0  0  0  0  0  0  0  0  0  0  0
   -3.9700   -0.3270   -0.6150 C   0  0  0  0  0  0  0  0  0  0  0  0
   -4.3970    0.4540   -1.5040 O   0  0  0  0  0  0  0  0  0  0  0  0
   -2.5570   -0.5000   -0.3230 C   0  0  0  0  0  0  0  0  0  0  0  0
   -1.7550    0.2330   -1.0710 C   0  0  0  0  0  0  0  0  0  0  0  0
   -0.3060    0.3000   -1.0400 C   0  0  0  0  0  0  0  0  0  0  0  0
    0.5490    0.1010   -0.0510 C   0  0  0  0  0  0  0  0  0  0  0  0
    1.9500    0.2680   -0.4430 C   0  0  0  0  0  0  0  0  0  0  0  0
    2.2400    0.5830   -1.6310 O   0  0  0  0  0  0  0  0  0  0  0  0
    2.9480    0.0690    0.5220 N   0  0  0  0  0  0  0  0  0  0  0  0
    4.3770    0.2070    0.2680 C   0  0  0  0  0  0  0  0  0  0  0  0
    4.8380    0.5340   -0.9170 C   0  0  0  0  0  0  0  0  0  0  0  0
    6.6030    0.5730   -0.7230 S   0  0  1  0  0  0  0  0  0  0  0  0
    7.2560   -0.4520   -1.5860 O   0  0  0  0  0  0  0  0  0  0  0  0
    7.1230    1.9540   -0.9430 O   0  0  0  0  0  0  0  0  0  0  0  0
    6.6100    0.1420    0.9600 C   0  0  0  0  0  0  0  0  0  0  0  0
    5.3490   -0.0060    1.2890 C   0  0  0  0  0  0  0  0  0  0  0  0
    0.2930   -0.2270    1.3070 N   0  0  0  0  0  0  0  0  0  0  0  0
   -0.7400   -1.0990    1.8140 C   0  0  0  0  0  0  0  0  0  0  0  0
   -0.5040   -1.6200    3.3400 S   0  0  0  0  0  0  0  0  0  0  0  0
   -2.2200   -1.6650    0.9870 S   0  0  0  0  0  0  0  0  0  0  0  0
  1  2  1  0
  2  3  1  0
  3  4  1  0
  4  5  2  0
  4  6  1  0
  6  7  2  0
  6 23  1  0
  7  8  1  0
  8  9  2  0
  9 10  1  0
  9 20  1  0
 10 11  2  0
 10 12  1  0
 12 13  1  0
 13 14  2  0
 13 19  1  0
 15 14  1  6
 15 16  2  0
 15 17  2  0
 15 18  1  0
 18 19  2  0
 20 21  1  0
 21 22  2  0
 21 23  1  0
M  END
