
     RDKit          3D

 24 26  0  0  0  0  0  0  0  0999 V2000
    5.4220    1.2390    1.9720 O   0  0  0  0  0  0  0  0  0  0  0  0
    6.6010    0.8260    1.2340 S   0  0  0  0  0  0  0  0  0  0  0  0
    6.1820    0.1860   -0.6350 S   0  0  1  0  0  0  0  0  0  0  0  0
    6.2540    1.4370   -1.4460 O   0  0  0  0  0  0  0  0  0  0  0  0
    7.2150   -0.7350   -1.1920 O   0  0  0  0  0  0  0  0  0  0  0  0
    4.7850   -0.7470   -0.8910 N   0  0  0  0  0  0  0  0  0  0  0  0
    3.6150   -0.3250   -0.6640 C   0  0  0  0  0  0  0  0  0  0  0  0
    2.4220   -0.8090   -0.7680 N   0  0  0  0  0  0  0  0  0  0  0  0
    1.3540   -0.1350   -0.4550 C   0  0  0  0  0  0  0  0  0  0  0  0
    1.5360    1.1730    0.0120 C   0  0  0  0  0  0  0  0  0  0  0  0
    3.2380    1.3780   -0.0170 S   0  0  0  0  0  0  0  0  0  0  0  0
    0.3920    2.0260    0.3860 C   0  0  0  0  0  0  0  0  0  0  0  0
    0.4770    3.2340    0.1070 O   0  0  0  0  0  0  0  0  0  0  0  0
   -0.7570    1.4070    1.0540 C   0  0  0  0  0  0  0  0  0  0  0  0
   -0.8020   -0.0710    0.7650 C   0  0  1  0  0  0  0  0  0  0  0  0
   -2.2460   -0.4430    0.6170 C   0  0  0  0  0  0  0  0  0  0  0  0
   -2.8300   -1.3590    1.4540 C   0  0  0  0  0  0  0  0  0  0  0  0
   -4.1600   -1.6740    1.2850 C   0  0  0  0  0  0  0  0  0  0  0  0
   -4.9430   -1.1060    0.3040 C   0  0  0  0  0  0  0  0  0  0  0  0
   -6.2950   -1.4500    0.1610 O   0  0  0  0  0  0  0  0  0  0  0  0
   -4.3230   -0.1900   -0.5170 C   0  0  0  0  0  0  0  0  0  0  0  0
   -5.0700    0.4230   -1.5350 O   0  0  0  0  0  0  0  0  0  0  0  0
   -2.9940    0.1440   -0.3710 C   0  0  0  0  0  0  0  0  0  0  0  0
   -0.1280   -0.4830   -0.4900 C   0  0  0  0  0  0  0  0  0  0  0  0
  1  2  2  0
  2  3  1  0
  3  4  2  0
  3  5  2  0
  3  6  1  1
  6  7  2  3
  7  8  1  0
  7 11  1  0
  8  9  1  0
  9 10  2  0
  9 24  1  0
 10 11  1  0
 10 12  1  0
 12 13  2  0
 12 14  1  0
 14 15  1  0
 15 16  1  6
 15 24  1  0
 16 17  2  0
 16 23  1  0
 17 18  1  0
 18 19  2  0
 19 20  1  0
 19 21  1  0
 21 22  1  0
 21 23  2  0
M  END
