
     RDKit          3D

 24 25  0  0  0  0  0  0  0  0999 V2000
    8.3070    0.5880   -0.1110 C   0  0  0  0  0  0  0  0  0  0  0  0
    6.9170    0.4440   -0.2360 O   0  0  0  0  0  0  0  0  0  0  0  0
    6.1990   -0.3980    0.5900 C   0  0  0  0  0  0  0  0  0  0  0  0
    6.8620   -1.0240    1.4550 O   0  0  0  0  0  0  0  0  0  0  0  0
    4.7310   -0.5730    0.4850 C   0  0  0  0  0  0  0  0  0  0  0  0
    4.0200    0.0620   -0.4000 C   0  0  0  0  0  0  0  0  0  0  0  0
    4.5670    1.0470   -1.4240 C   0  0  0  0  0  0  0  0  0  0  0  0
    2.2970   -0.3030   -0.3380 S   0  0  0  0  0  0  0  0  0  0  0  0
    1.7340   -0.6430   -1.7080 O   0  0  0  0  0  0  0  0  0  0  0  0
    2.2180   -1.6470    0.7780 C   0  0  0  0  0  0  0  0  0  0  0  0
    1.2630   -2.4450    1.0100 N   0  0  0  0  0  0  0  0  0  0  0  0
    0.0520   -2.3340    0.3410 N   0  0  0  0  0  0  0  0  0  0  0  0
   -1.0050   -1.5580    0.8670 C   0  0  0  0  0  0  0  0  0  0  0  0
   -0.8860   -0.9460    1.9530 O   0  0  0  0  0  0  0  0  0  0  0  0
   -2.5370   -1.4510   -0.0360 S   0  0  0  0  0  0  0  0  0  0  0  0
   -3.7330   -0.3900    0.8590 C   0  0  1  0  0  0  0  0  0  0  0  0
   -3.2200    1.0020    0.8730 C   0  0  0  0  0  0  0  0  0  0  0  0
   -3.6650    1.8550   -0.2720 C   0  0  0  0  0  0  0  0  0  0  0  0
   -5.1990    1.8660   -0.2280 C   0  0  0  0  0  0  0  0  0  0  0  0
   -5.6360    0.4670   -0.5470 C   0  0  0  0  0  0  0  0  0  0  0  0
   -5.1180   -0.5720    0.3730 C   0  0  2  0  0  0  0  0  0  0  0  0
   -6.0170   -0.7260    1.4530 O   0  0  0  0  0  0  0  0  0  0  0  0
   -5.1720   -1.8100   -0.3100 O   0  0  0  0  0  0  0  0  0  0  0  0
    3.8180   -1.6620    1.5470 S   0  0  0  0  0  0  0  0  0  0  0  0
  1  2  1  0
  2  3  1  0
  3  4  2  0
  3  5  1  0
  5  6  2  0
  5 24  1  0
  6  7  1  0
  8  6  1  6
  8  9  2  0
  8 10  1  0
 10 11  2  3
 10 24  1  0
 11 12  1  0
 12 13  1  0
 13 14  2  0
 13 15  1  0
 16 15  1  6
 16 17  1  0
 16 21  1  0
 17 18  1  0
 18 19  1  0
 19 20  1  0
 20 21  1  0
 21 22  1  1
 21 23  1  0
M  END
