
     RDKit          3D

 24 25  0  0  0  0  0  0  0  0999 V2000
   -2.7500   -3.2550   -2.2930 O   0  0  0  0  0  0  0  0  0  0  0  0
   -2.3030   -2.4210   -1.4240 C   0  0  0  0  0  0  0  0  0  0  0  0
   -1.1910   -1.6120   -1.7840 C   0  0  0  0  0  0  0  0  0  0  0  0
   -0.0210   -2.0710   -2.4170 N   0  0  0  0  0  0  0  0  0  0  0  0
    0.7510   -0.5210   -2.7900 S   0  0  1  0  0  0  0  0  0  0  0  0
    1.9900   -0.7580   -3.5820 O   0  0  0  0  0  0  0  0  0  0  0  0
   -0.2570    0.2210   -3.6110 O   0  0  0  0  0  0  0  0  0  0  0  0
    1.1110    0.3050   -1.2650 C   0  0  0  0  0  0  0  0  0  0  0  0
    2.2460   -0.1480   -0.6930 C   0  0  0  0  0  0  0  0  0  0  0  0
    2.6840    0.4120    0.5440 N   0  0  0  0  0  0  0  0  0  0  0  0
    4.0850    0.6730    0.7380 C   0  0  0  0  0  0  0  0  0  0  0  0
    4.3200    1.2690    2.1270 C   0  0  0  0  0  0  0  0  0  0  0  0
    6.1140    1.5730    2.2960 S   0  0  0  0  0  0  0  0  0  0  0  0
    0.3260    1.3600   -0.6580 C   0  0  0  0  0  0  0  0  0  0  0  0
    1.0670    2.3850   -0.3460 O   0  0  0  0  0  0  0  0  0  0  0  0
   -0.9820    1.4790   -0.3630 O   0  0  0  0  0  0  0  0  0  0  0  0
   -2.2060    1.4870   -0.9340 C   0  0  0  0  0  0  0  0  0  0  0  0
   -3.2160    0.5070   -0.4610 C   0  0  0  0  0  0  0  0  0  0  0  0
   -2.8200   -0.2120    0.8190 C   0  0  0  0  0  0  0  0  0  0  0  0
   -2.6940   -1.5040    0.8900 C   0  0  0  0  0  0  0  0  0  0  0  0
   -2.2930   -2.0430    2.2470 C   0  0  0  0  0  0  0  0  0  0  0  0
   -2.9610   -0.6920    3.2990 S   0  0  0  0  0  0  0  0  0  0  0  0
   -2.5720    0.5780    2.0630 C   0  0  0  0  0  0  0  0  0  0  0  0
   -2.9150   -2.3560   -0.2130 O   0  0  0  0  0  0  0  0  0  0  0  0
  1  2  2  0
  2  3  1  0
  2 24  1  0
  3  4  1  0
  5  4  1  1
  5  6  2  0
  5  7  2  0
  5  8  1  0
  8  9  2  3
  8 14  1  0
  9 10  1  0
 10 11  1  0
 11 12  1  0
 12 13  1  0
 14 15  2  0
 14 16  1  0
 16 17  1  0
 17 18  1  0
 18 19  1  0
 19 20  2  0
 19 23  1  0
 20 21  1  0
 20 24  1  0
 21 22  1  0
 22 23  1  0
M  END
