
     RDKit          3D

 24 25  0  0  0  0  0  0  0  0999 V2000
   -4.4960    2.0040   -1.4820 C   0  0  0  0  0  0  0  0  0  0  0  0
   -4.7200    0.2380   -1.4810 S   0  0  0  0  0  0  0  0  0  0  0  0
   -6.1620   -0.1730   -1.6120 O   0  0  0  0  0  0  0  0  0  0  0  0
   -3.9760   -0.4450    0.0020 C   0  0  1  0  0  0  0  0  0  0  0  0
   -4.6560    0.1680    1.1890 C   0  0  0  0  0  0  0  0  0  0  0  0
   -4.2480   -1.9560   -0.0480 C   0  0  0  0  0  0  0  0  0  0  0  0
   -2.5320   -0.2410   -0.0450 C   0  0  0  0  0  0  0  0  0  0  0  0
   -2.0650    0.3510   -1.0830 O   0  0  0  0  0  0  0  0  0  0  0  0
   -1.6260   -0.6450    0.9590 N   0  0  0  0  0  0  0  0  0  0  0  0
   -0.2720   -0.4000    0.8080 N   0  0  0  0  0  0  0  0  0  0  0  0
    0.6040   -1.3700    0.2550 C   0  0  0  0  0  0  0  0  0  0  0  0
    0.0990   -2.4650   -0.0940 O   0  0  0  0  0  0  0  0  0  0  0  0
    2.0950   -1.1060    0.0860 C   0  0  0  0  0  0  0  0  0  0  0  0
    2.4170    0.5270    0.6840 S   0  0  0  0  0  0  0  0  0  0  0  0
    4.1320    0.9780    0.5430 C   0  0  0  0  0  0  0  0  0  0  0  0
    5.2030    0.3890    0.1090 C   0  0  0  0  0  0  0  0  0  0  0  0
    5.5540   -0.9330   -0.4810 C   0  0  0  0  0  0  0  0  0  0  0  0
    4.8200   -1.8950   -0.7230 O   0  0  0  0  0  0  0  0  0  0  0  0
    6.9380   -0.8870   -0.7250 O   0  0  0  0  0  0  0  0  0  0  0  0
    7.4360    0.3210   -0.3410 C   0  0  0  0  0  0  0  0  0  0  0  0
    6.4420    1.0890    0.1520 C   0  0  0  0  0  0  0  0  0  0  0  0
    6.3930    2.4360    0.6920 C   0  0  0  0  0  0  0  0  0  0  0  0
    7.3260    3.2910    0.8480 O   0  0  0  0  0  0  0  0  0  0  0  0
    4.6790    2.6330    1.1030 S   0  0  0  0  0  0  0  0  0  0  0  0
  2  1  1  1
  2  3  2  0
  2  4  1  0
  4  5  1  1
  4  6  1  0
  4  7  1  0
  7  8  2  0
  7  9  1  0
  9 10  1  0
 10 11  1  0
 11 12  2  0
 11 13  1  0
 13 14  1  0
 14 15  1  0
 15 16  2  0
 15 24  1  0
 16 17  1  0
 16 21  1  0
 17 18  2  0
 17 19  1  0
 19 20  1  0
 20 21  2  0
 21 22  1  0
 22 23  2  0
 22 24  1  0
M  END
