
     RDKit          3D

 10 10  0  0  0  0  0  0  0  0999 V2000
    2.8910    0.4990    0.2680 N   0  0  0  0  0  0  0  0  0  0  0  0
    1.7190    0.3520   -0.5780 C   0  0  0  0  0  0  0  0  0  0  0  0
    0.6340   -0.2340    0.2700 C   0  0  2  0  0  0  0  0  0  0  0  0
    1.0500   -1.4570    0.7460 O   0  0  0  0  0  0  0  0  0  0  0  0
   -0.6850   -0.3580   -0.4430 C   0  0  1  0  0  0  0  0  0  0  0  0
   -0.6190   -1.2250   -1.5300 O   0  0  0  0  0  0  0  0  0  0  0  0
   -1.7300   -0.7900    0.5700 C   0  0  0  0  0  0  0  0  0  0  0  0
   -2.8470    0.2180    0.4240 C   0  0  0  0  0  0  0  0  0  0  0  0
   -2.5990    0.9240   -0.7420 O   0  0  0  0  0  0  0  0  0  0  0  0
   -1.2040    1.0050   -0.8490 C   0  0  0  0  0  0  0  0  0  0  0  0
  1  2  1  0
  2  3  1  0
  3  4  1  6
  3  5  1  0
  5  6  1  6
  5  7  1  0
  5 10  1  0
  7  8  1  0
  8  9  1  0
  9 10  1  0
M  CHG  1   1   1
M  END
