
     RDKit          3D

 10 10  0  0  0  0  0  0  0  0999 V2000
   -2.3960    0.0910   -0.8070 N   0  0  0  0  0  0  0  0  0  0  0  0
   -1.7340   -0.4220    0.3910 C   0  0  1  0  0  0  0  0  0  0  0  0
   -0.8290   -1.5920    0.0650 C   0  0  0  0  0  0  0  0  0  0  0  0
    0.3610   -1.1000   -0.3870 O   0  0  0  0  0  0  0  0  0  0  0  0
    0.4270    0.2480   -0.1670 C   0  0  2  0  0  0  0  0  0  0  0  0
    1.7390    0.6590    0.4720 C   0  0  0  0  0  0  0  0  0  0  0  0
    2.9060    0.2790   -0.4280 C   0  0  0  0  0  0  0  0  0  0  0  0
    2.8990   -1.1130   -0.6220 O   0  0  0  0  0  0  0  0  0  0  0  0
   -0.6760    0.6060    0.8180 C   0  0  1  0  0  0  0  0  0  0  0  0
   -1.1910    1.8640    0.5880 O   0  0  0  0  0  0  0  0  0  0  0  0
  2  1  1  6
  2  3  1  0
  2  9  1  0
  3  4  1  0
  4  5  1  0
  5  6  1  1
  5  9  1  0
  6  7  1  0
  7  8  1  0
  9 10  1  6
M  CHG  1   1   1
M  END
