
     RDKit          3D

 10 10  0  0  0  0  0  0  0  0999 V2000
   -2.8000   -0.6160   -0.1730 N   0  0  0  0  0  0  0  0  0  0  0  0
   -1.9180    0.4750    0.1310 C   0  0  0  0  0  0  0  0  0  0  0  0
   -0.8380    0.6310   -0.8990 C   0  0  2  0  0  0  0  0  0  0  0  0
    0.1080   -0.5290   -0.8720 C   0  0  0  0  0  0  0  0  0  0  0  0
    1.0570   -0.1900    0.2500 C   0  0  1  0  0  0  0  0  0  0  0  0
    0.8400   -0.9370    1.3930 O   0  0  0  0  0  0  0  0  0  0  0  0
    2.4610   -0.3630   -0.2740 C   0  0  0  0  0  0  0  0  0  0  0  0
    3.3670    0.0530    0.7120 O   0  0  0  0  0  0  0  0  0  0  0  0
    0.7260    1.2620    0.5200 C   0  0  0  0  0  0  0  0  0  0  0  0
   -0.0240    1.6980   -0.5470 O   0  0  0  0  0  0  0  0  0  0  0  0
  1  2  1  0
  3  2  1  1
  3  4  1  0
  3 10  1  0
  4  5  1  0
  5  6  1  1
  5  7  1  0
  5  9  1  0
  7  8  1  0
  9 10  1  0
M  CHG  1   1   1
M  END
