
     RDKit          3D

 10 10  0  0  0  0  0  0  0  0999 V2000
   -0.9940   -0.7540    1.2620 N   0  0  0  0  0  0  0  0  0  0  0  0
   -0.5720   -0.0810    0.0800 C   0  0  2  0  0  0  0  0  0  0  0  0
   -1.7940    0.4170   -0.6860 C   0  0  0  0  0  0  0  0  0  0  0  0
   -2.6380   -0.5960   -1.0620 O   0  0  0  0  0  0  0  0  0  0  0  0
    0.2250   -0.9500   -0.8620 C   0  0  0  0  0  0  0  0  0  0  0  0
    1.0440    0.0810   -1.5930 C   0  0  0  0  0  0  0  0  0  0  0  0
    0.8570    1.2890   -0.9830 O   0  0  0  0  0  0  0  0  0  0  0  0
    0.3390    1.0720    0.2830 C   0  0  2  0  0  0  0  0  0  0  0  0
    1.4660    0.8330    1.2330 C   0  0  0  0  0  0  0  0  0  0  0  0
    2.2250   -0.2570    0.8890 O   0  0  0  0  0  0  0  0  0  0  0  0
  2  1  1  1
  2  3  1  0
  2  5  1  0
  2  8  1  0
  3  4  1  0
  5  6  1  0
  6  7  1  0
  7  8  1  0
  8  9  1  1
  9 10  1  0
M  CHG  1   1   1
M  END
