
     RDKit          3D

 10 10  0  0  0  0  0  0  0  0999 V2000
   -1.4520   -1.9810    0.9850 O   0  0  0  0  0  0  0  0  0  0  0  0
   -1.7110   -0.6400    0.7970 C   0  0  0  0  0  0  0  0  0  0  0  0
   -0.5160    0.0800    0.1900 C   0  0  1  0  0  0  0  0  0  0  0  0
   -0.9240    1.5220   -0.0080 C   0  0  0  0  0  0  0  0  0  0  0  0
   -1.2480    2.0570    1.2200 O   0  0  0  0  0  0  0  0  0  0  0  0
    0.6900    0.0020    1.0660 C   0  0  0  0  0  0  0  0  0  0  0  0
    1.7570   -0.6300    0.1850 C   0  0  2  0  0  0  0  0  0  0  0  0
    2.9380    0.0890    0.3760 O   0  0  0  0  0  0  0  0  0  0  0  0
    1.2570   -0.3890   -1.2180 C   0  0  0  0  0  0  0  0  0  0  0  0
   -0.1760   -0.4870   -1.0920 N   0  0  0  0  0  0  0  0  0  0  0  0
  1  2  1  0
  3  2  1  1
  3  4  1  0
  3  6  1  0
  3 10  1  0
  4  5  1  0
  6  7  1  0
  7  8  1  6
  7  9  1  0
  9 10  1  0
M  CHG  1  10   1
M  END
