
     RDKit          3D

 10 10  0  0  0  0  0  0  0  0999 V2000
   -2.5970   -0.7220    0.7700 N   0  0  0  0  0  0  0  0  0  0  0  0
   -1.2530   -0.7090    0.2070 C   0  0  1  0  0  0  0  0  0  0  0  0
   -1.2620   -0.1900   -1.2120 C   0  0  0  0  0  0  0  0  0  0  0  0
   -0.0140   -0.3970   -1.7670 O   0  0  0  0  0  0  0  0  0  0  0  0
    0.9830    0.3130   -1.1040 C   0  0  2  0  0  0  0  0  0  0  0  0
    2.0880   -0.6320   -0.6210 C   0  0  0  0  0  0  0  0  0  0  0  0
    3.0520    0.1170    0.0290 O   0  0  0  0  0  0  0  0  0  0  0  0
    0.4750    1.0550    0.0920 C   0  0  2  0  0  0  0  0  0  0  0  0
    1.5790    1.5010    0.8180 O   0  0  0  0  0  0  0  0  0  0  0  0
   -0.3550    0.2080    1.0130 C   0  0  0  0  0  0  0  0  0  0  0  0
  2  1  1  1
  2  3  1  0
  2 10  1  0
  3  4  1  0
  4  5  1  0
  5  6  1  1
  5  8  1  0
  6  7  1  0
  8  9  1  1
  8 10  1  0
M  CHG  1   1   1
M  END
