
     RDKit          3D

 22 22  0  0  0  0  0  0  0  0999 V2000
   -1.7690   -2.1380   -0.2150 C   0  0  0  0  0  0  0  0  0  0  0  0
   -1.6660   -1.9630    1.1150 C   0  0  0  0  0  0  0  0  0  0  0  0
   -2.1140   -3.1180    1.9050 C   0  0  0  0  0  0  0  0  0  0  0  0
   -1.1600   -0.7540    1.6720 C   0  0  0  0  0  0  0  0  0  0  0  0
   -1.0480   -0.5560    2.9710 C   0  0  0  0  0  0  0  0  0  0  0  0
   -1.3690   -1.4090    4.0840 C   0  0  0  0  0  0  0  0  0  0  0  0
   -0.7130    0.3940    0.8370 C   0  0  2  0  0  0  0  0  0  0  0  0
   -1.7970    1.1080    0.1470 C   0  0  0  0  0  0  0  0  0  0  0  0
   -3.0800    1.4250    0.8020 C   0  0  0  0  0  0  0  0  0  0  0  0
   -1.3790    1.3630   -1.0730 C   0  0  0  0  0  0  0  0  0  0  0  0
   -2.1140    2.0590   -2.1250 C   0  0  0  0  0  0  0  0  0  0  0  0
   -3.4830    2.6020   -1.9340 C   0  0  0  0  0  0  0  0  0  0  0  0
   -1.6430    2.2550   -3.2870 O   0  0  0  0  0  0  0  0  0  0  0  0
   -0.0020    0.7870   -1.2210 C   0  0  0  0  0  0  0  0  0  0  0  0
    0.7710    0.9250   -2.4760 C   0  0  0  0  0  0  0  0  0  0  0  0
    0.3710    0.2110   -0.0990 C   0  0  0  0  0  0  0  0  0  0  0  0
    1.5890   -0.5110    0.1770 C   0  0  0  0  0  0  0  0  0  0  0  0
    1.7500   -0.9790    1.3880 O   0  0  0  0  0  0  0  0  0  0  0  0
    2.7120   -0.8200   -0.7060 C   0  0  0  0  0  0  0  0  0  0  0  0
    3.9870   -0.0960   -0.3140 C   0  0  1  0  0  0  0  0  0  0  0  0
    5.1110   -0.4480   -1.2610 C   0  0  0  0  0  0  0  0  0  0  0  0
    3.8710    1.3850   -0.2520 C   0  0  0  0  0  0  0  0  0  0  0  0
  1  2  2  0
  2  3  1  0
  2  4  1  0
  4  5  2  3
  7  4  1  6
  5  6  1  0
  7  8  1  0
  7 16  1  0
  8  9  1  0
  8 10  2  0
 10 11  1  0
 10 14  1  0
 11 12  1  0
 11 13  2  0
 14 15  1  0
 14 16  2  0
 16 17  1  0
 17 18  2  0
 17 19  1  0
 19 20  1  0
 20 21  1  6
 20 22  1  0
M  END
