
     RDKit          3D

 11 11  0  0  0  0  0  0  0  0999 V2000
   -2.8350   -0.0420   -1.1040 O   0  0  0  0  0  0  0  0  0  0  0  0
   -2.1020   -0.1670    0.0730 C   0  0  0  0  0  0  0  0  0  0  0  0
   -0.8530    0.6950    0.0540 C   0  0  1  0  0  0  0  0  0  0  0  0
   -0.1640    0.5090    1.2880 N   0  0  0  0  0  0  0  0  0  0  0  0
    0.6380   -0.6820    1.3460 C   0  0  0  0  0  0  0  0  0  0  0  0
    1.7070   -0.5380    0.2580 C   0  0  2  0  0  0  0  0  0  0  0  0
    2.2310    0.7370    0.3780 O   0  0  0  0  0  0  0  0  0  0  0  0
    0.9760   -0.6190   -1.0620 C   0  0  1  0  0  0  0  0  0  0  0  0
    0.3970   -1.8770   -1.2510 O   0  0  0  0  0  0  0  0  0  0  0  0
   -0.0370    0.4860   -1.1710 C   0  0  2  0  0  0  0  0  0  0  0  0
    0.5580    1.6550   -1.6440 O   0  0  0  0  0  0  0  0  0  0  0  0
  1  2  1  0
  3  2  1  6
  3  4  1  0
  3 10  1  0
  4  5  1  0
  5  6  1  0
  6  7  1  1
  6  8  1  0
  8  9  1  1
  8 10  1  0
 10 11  1  1
M  CHG  1   4   1
M  END
