
     RDKit          3D

 11 11  0  0  0  0  0  0  0  0999 V2000
   -3.9480   -0.3050   -0.0970 N   0  0  0  0  0  0  0  0  0  0  0  0
   -2.6790   -0.1280   -0.7850 C   0  0  0  0  0  0  0  0  0  0  0  0
   -1.5380   -0.0500    0.2120 C   0  0  0  0  0  0  0  0  0  0  0  0
   -0.3620    0.1200   -0.5480 O   0  0  0  0  0  0  0  0  0  0  0  0
    0.6830    0.1930    0.3410 C   0  0  2  0  0  0  0  0  0  0  0  0
    1.4530    1.4870    0.1330 C   0  0  0  0  0  0  0  0  0  0  0  0
    2.6430    1.1880    0.8210 O   0  0  0  0  0  0  0  0  0  0  0  0
    3.0360    0.0100    0.1660 C   0  0  2  0  0  0  0  0  0  0  0  0
    3.5220    0.3860   -1.0800 O   0  0  0  0  0  0  0  0  0  0  0  0
    1.7830   -0.8250    0.0310 C   0  0  1  0  0  0  0  0  0  0  0  0
    1.7440   -1.8790    0.9360 O   0  0  0  0  0  0  0  0  0  0  0  0
  1  2  1  0
  2  3  1  0
  3  4  1  0
  5  4  1  6
  5  6  1  0
  5 10  1  0
  6  7  1  0
  7  8  1  0
  8  9  1  6
  8 10  1  0
 10 11  1  1
M  CHG  1   1   1
M  END
