
     RDKit          3D

 11 11  0  0  0  0  0  0  0  0999 V2000
   -0.9140    0.2340   -1.6180 N   0  0  0  0  0  0  0  0  0  0  0  0
   -0.6430    0.0320   -0.2450 C   0  0  2  0  0  0  0  0  0  0  0  0
   -1.8650   -0.6530    0.3810 C   0  0  0  0  0  0  0  0  0  0  0  0
   -1.5660   -0.8360    1.7280 O   0  0  0  0  0  0  0  0  0  0  0  0
   -0.4150    1.2990    0.5440 C   0  0  0  0  0  0  0  0  0  0  0  0
    0.5170    0.8210    1.6340 C   0  0  0  0  0  0  0  0  0  0  0  0
    0.7390   -0.5180    1.4450 O   0  0  0  0  0  0  0  0  0  0  0  0
    0.5430   -0.7900    0.0820 C   0  0  2  0  0  0  0  0  0  0  0  0
    1.7990   -0.4250   -0.6340 C   0  0  2  0  0  0  0  0  0  0  0  0
    2.1510    0.9110   -0.5010 O   0  0  0  0  0  0  0  0  0  0  0  0
    1.8220   -0.8050   -1.9640 O   0  0  0  0  0  0  0  0  0  0  0  0
  2  1  1  6
  2  3  1  0
  2  5  1  0
  2  8  1  0
  3  4  1  0
  5  6  1  0
  6  7  1  0
  8  7  1  1
  8  9  1  0
  9 10  1  6
  9 11  1  0
M  CHG  1   1   1
M  END
