
     RDKit          3D

 11 11  0  0  0  0  0  0  0  0999 V2000
   -1.1340    1.0540   -0.2130 N   0  0  0  0  0  0  0  0  0  0  0  0
   -0.3650   -0.0910    0.2050 C   0  0  2  0  0  0  0  0  0  0  0  0
   -1.2150   -1.0690    1.0100 C   0  0  2  0  0  0  0  0  0  0  0  0
   -2.2800   -1.5140    0.2300 O   0  0  0  0  0  0  0  0  0  0  0  0
   -1.6570   -0.5030    2.2040 O   0  0  0  0  0  0  0  0  0  0  0  0
    0.7680    0.4090    1.0680 C   0  0  0  0  0  0  0  0  0  0  0  0
    1.7410    1.1720    0.2130 C   0  0  0  0  0  0  0  0  0  0  0  0
    2.2490    0.3540   -0.8040 O   0  0  0  0  0  0  0  0  0  0  0  0
    1.2390    0.0120   -1.6950 C   0  0  0  0  0  0  0  0  0  0  0  0
    0.1980   -0.8200   -0.9810 C   0  0  1  0  0  0  0  0  0  0  0  0
    0.8100   -2.0030   -0.5650 O   0  0  0  0  0  0  0  0  0  0  0  0
  2  1  1  6
  2  3  1  0
  2  6  1  0
  2 10  1  0
  3  4  1  6
  3  5  1  0
  6  7  1  0
  7  8  1  0
  8  9  1  0
  9 10  1  0
 10 11  1  1
M  CHG  1   1   1
M  END
