
     RDKit          3D

 11 11  0  0  0  0  0  0  0  0999 V2000
   -1.8870   -1.1960    0.2330 N   0  0  0  0  0  0  0  0  0  0  0  0
   -1.0960   -0.1190   -0.2820 C   0  0  1  0  0  0  0  0  0  0  0  0
   -1.2350    1.0730    0.6110 C   0  0  0  0  0  0  0  0  0  0  0  0
   -2.6060    1.4160    0.6200 O   0  0  0  0  0  0  0  0  0  0  0  0
    0.3280   -0.5050   -0.5620 C   0  0  1  0  0  0  0  0  0  0  0  0
    0.2820   -1.5440   -1.5190 O   0  0  0  0  0  0  0  0  0  0  0  0
    1.0420    0.6420   -1.2210 C   0  0  0  0  0  0  0  0  0  0  0  0
    1.6530    1.4440   -0.2700 O   0  0  0  0  0  0  0  0  0  0  0  0
    2.5840    0.8110    0.4990 C   0  0  0  0  0  0  0  0  0  0  0  0
    2.3960   -0.5330    0.6820 O   0  0  0  0  0  0  0  0  0  0  0  0
    1.0800   -0.9460    0.6450 C   0  0  0  0  0  0  0  0  0  0  0  0
  2  1  1  1
  2  3  1  0
  2  5  1  0
  3  4  1  0
  5  6  1  6
  5  7  1  0
  5 11  1  0
  7  8  1  0
  8  9  1  0
  9 10  1  0
 10 11  1  0
M  CHG  1   1   1
M  END
