
     RDKit          3D

 11 11  0  0  0  0  0  0  0  0999 V2000
    1.3020    0.5760   -1.3430 N   0  0  0  0  0  0  0  0  0  0  0  0
    0.8700   -0.3160   -0.2810 C   0  0  1  0  0  0  0  0  0  0  0  0
    1.7060   -0.0520    0.9680 C   0  0  0  0  0  0  0  0  0  0  0  0
    1.5870    1.2360    1.4240 O   0  0  0  0  0  0  0  0  0  0  0  0
   -0.5830   -0.3020   -0.0410 C   0  0  2  0  0  0  0  0  0  0  0  0
   -1.2050    0.9750    0.3530 C   0  0  0  0  0  0  0  0  0  0  0  0
   -1.0710    2.0120   -0.5500 O   0  0  0  0  0  0  0  0  0  0  0  0
   -0.9540   -1.3640    0.9640 C   0  0  0  0  0  0  0  0  0  0  0  0
   -1.8550   -2.1840    0.2490 O   0  0  0  0  0  0  0  0  0  0  0  0
   -2.4110   -1.4220   -0.6660 O   0  0  0  0  0  0  0  0  0  0  0  0
   -1.2650   -0.8750   -1.2910 C   0  0  0  0  0  0  0  0  0  0  0  0
  2  1  1  6
  2  3  1  0
  2  5  1  0
  3  4  1  0
  5  6  1  1
  5  8  1  0
  5 11  1  0
  6  7  1  0
  8  9  1  0
  9 10  1  0
 10 11  1  0
M  CHG  1   1   1
M  END
