
     RDKit          3D

 10 10  0  0  0  0  0  0  0  0999 V2000
    3.2880    0.9770    0.6210 O   0  0  0  0  0  0  0  0  0  0  0  0
    2.1230    0.7520   -0.1340 C   0  0  0  0  0  0  0  0  0  0  0  0
    1.2150   -0.2360    0.5510 C   0  0  2  0  0  0  0  0  0  0  0  0
    1.8860   -1.4170    0.6990 O   0  0  0  0  0  0  0  0  0  0  0  0
   -0.0650   -0.3350   -0.2130 C   0  0  2  0  0  0  0  0  0  0  0  0
    0.0930   -0.8010   -1.5040 O   0  0  0  0  0  0  0  0  0  0  0  0
   -0.7440    1.0180   -0.2630 C   0  0  0  0  0  0  0  0  0  0  0  0
   -2.1430    0.5970   -0.6610 C   0  0  0  0  0  0  0  0  0  0  0  0
   -2.3900   -0.4970    0.2600 N   0  0  0  0  0  0  0  0  0  0  0  0
   -1.1190   -1.1660    0.4590 C   0  0  0  0  0  0  0  0  0  0  0  0
  1  2  1  0
  2  3  1  0
  3  4  1  6
  3  5  1  0
  5  6  1  6
  5  7  1  0
  5 10  1  0
  7  8  1  0
  8  9  1  0
  9 10  1  0
M  CHG  1   9   1
M  END
