
     RDKit          3D

 11 11  0  0  0  0  0  0  0  0999 V2000
   -2.1330    0.9100    0.6860 N   0  0  0  0  0  0  0  0  0  0  0  0
   -1.5640   -0.3710    1.0360 C   0  0  1  0  0  0  0  0  0  0  0  0
   -1.7570   -1.2610   -0.1890 C   0  0  0  0  0  0  0  0  0  0  0  0
   -1.2680   -0.5970   -1.2950 O   0  0  0  0  0  0  0  0  0  0  0  0
    0.0710   -0.2830   -1.2300 C   0  0  0  0  0  0  0  0  0  0  0  0
    0.4330    0.4800    0.0110 C   0  0  2  0  0  0  0  0  0  0  0  0
    1.8700    0.8650    0.0450 C   0  0  0  0  0  0  0  0  0  0  0  0
    2.7500   -0.1550    0.3300 O   0  0  0  0  0  0  0  0  0  0  0  0
    3.9720    0.3340    0.2190 O   0  0  0  0  0  0  0  0  0  0  0  0
   -0.0460   -0.2960    1.2010 C   0  0  2  0  0  0  0  0  0  0  0  0
    0.3720   -1.6150    1.2220 O   0  0  0  0  0  0  0  0  0  0  0  0
  2  1  1  6
  2  3  1  0
  2 10  1  0
  3  4  1  0
  4  5  1  0
  5  6  1  0
  6  7  1  1
  6 10  1  0
  7  8  1  0
  8  9  1  0
 10 11  1  6
M  CHG  1   1   1
M  END
