
     RDKit          3D

 28 31  0  0  0  0  0  0  0  0999 V2000
    9.7140    0.0860    0.6880 C   0  0  0  0  0  0  0  0  0  0  0  0
    8.3480    0.4430    0.5640 O   0  0  0  0  0  0  0  0  0  0  0  0
    7.3760   -0.4390    0.1340 C   0  0  0  0  0  0  0  0  0  0  0  0
    7.7460   -1.6060   -0.1540 O   0  0  0  0  0  0  0  0  0  0  0  0
    5.9740   -0.0700    0.0070 C   0  0  0  0  0  0  0  0  0  0  0  0
    5.5320    1.1900    0.3110 C   0  0  0  0  0  0  0  0  0  0  0  0
    4.1950    1.5610    0.1970 C   0  0  0  0  0  0  0  0  0  0  0  0
    3.2820    0.6240   -0.2400 C   0  0  0  0  0  0  0  0  0  0  0  0
    1.8380    0.9220   -0.3960 C   0  0  0  0  0  0  0  0  0  0  0  0
    1.0760   -0.1790    0.0880 N   0  0  0  0  0  0  0  0  0  0  0  0
   -0.3680   -0.1710    0.0560 C   0  0  0  0  0  0  0  0  0  0  0  0
   -1.0740   -1.2550    0.5330 C   0  0  0  0  0  0  0  0  0  0  0  0
   -2.4650   -1.2600    0.5080 C   0  0  0  0  0  0  0  0  0  0  0  0
   -3.1460   -0.1730    0.0020 C   0  0  0  0  0  0  0  0  0  0  0  0
   -2.4600    0.9300   -0.4840 C   0  0  0  0  0  0  0  0  0  0  0  0
   -1.0710    0.8850   -0.4360 C   0  0  0  0  0  0  0  0  0  0  0  0
   -3.3630    1.8240   -0.9070 N   0  0  0  0  0  0  0  0  0  0  0  0
   -4.6230    1.3750   -0.7280 C   0  0  0  0  0  0  0  0  0  0  0  0
   -5.8720    1.9260   -1.0020 C   0  0  0  0  0  0  0  0  0  0  0  0
   -5.9980    3.5140   -1.7240 Cl  0  0  0  0  0  0  0  0  0  0  0  0
   -6.9620    1.2120   -0.7000 N   0  0  0  0  0  0  0  0  0  0  0  0
   -6.8830   -0.0040   -0.1480 C   0  0  0  0  0  0  0  0  0  0  0  0
   -8.1020   -0.7710    0.1750 C   0  0  0  0  0  0  0  0  0  0  0  0
   -5.6480   -0.5700    0.1330 C   0  0  0  0  0  0  0  0  0  0  0  0
   -5.5420   -1.9220    0.7470 C   0  0  0  0  0  0  0  0  0  0  0  0
   -4.4870    0.1150   -0.1550 C   0  0  0  0  0  0  0  0  0  0  0  0
    3.7160   -0.6470   -0.5490 C   0  0  0  0  0  0  0  0  0  0  0  0
    5.0560   -0.9940   -0.4260 C   0  0  0  0  0  0  0  0  0  0  0  0
  1  2  1  0
  2  3  1  0
  3  4  2  0
  3  5  1  0
  5  6  2  0
  5 28  1  0
  6  7  1  0
  7  8  2  0
  8  9  1  0
  8 27  1  0
  9 10  1  0
 10 11  1  0
 11 12  2  0
 11 16  1  0
 12 13  1  0
 13 14  2  0
 14 15  1  0
 14 26  1  0
 15 16  2  0
 15 17  1  0
 17 18  1  0
 18 19  2  0
 18 26  1  0
 19 20  1  0
 19 21  1  0
 21 22  2  0
 22 23  1  0
 22 24  1  0
 24 25  1  0
 24 26  2  0
 27 28  2  0
M  END
