
     RDKit          3D

 28 31  0  0  0  0  0  0  0  0999 V2000
   -4.7320    2.9040    0.4160 C   0  0  0  0  0  0  0  0  0  0  0  0
   -3.6670    2.4350    1.2940 C   0  0  0  0  0  0  0  0  0  0  0  0
   -2.8530    1.4260    1.3100 C   0  0  0  0  0  0  0  0  0  0  0  0
   -1.9140    1.3980    2.4280 N   0  0  0  0  0  0  0  0  0  0  0  0
   -0.4810    1.1830    2.2610 C   0  0  0  0  0  0  0  0  0  0  0  0
    0.1630    0.5140    1.3020 C   0  0  0  0  0  0  0  0  0  0  0  0
    1.6470    0.4860    1.4140 C   0  0  0  0  0  0  0  0  0  0  0  0
    2.0760    1.1060    2.4170 O   0  0  0  0  0  0  0  0  0  0  0  0
    2.5000   -0.1490    0.5210 N   0  0  0  0  0  0  0  0  0  0  0  0
    3.8990   -0.1810    0.6410 C   0  0  0  0  0  0  0  0  0  0  0  0
    4.5270    0.1250    1.8410 C   0  0  0  0  0  0  0  0  0  0  0  0
    5.9160    0.0210    1.9780 C   0  0  0  0  0  0  0  0  0  0  0  0
    6.7000   -0.3860    0.9330 C   0  0  0  0  0  0  0  0  0  0  0  0
    8.4380   -0.4930    1.1800 Cl  0  0  0  0  0  0  0  0  0  0  0  0
    6.1050   -0.6910   -0.2540 C   0  0  0  0  0  0  0  0  0  0  0  0
    4.7160   -0.5930   -0.4130 C   0  0  0  0  0  0  0  0  0  0  0  0
    4.1890   -0.8840   -1.7080 C   0  0  0  0  0  0  0  0  0  0  0  0
    3.0090   -0.7910   -2.0520 O   0  0  0  0  0  0  0  0  0  0  0  0
   -0.4600   -0.2230    0.2130 C   0  0  0  0  0  0  0  0  0  0  0  0
   -1.7310   -0.2370   -0.2380 C   0  0  0  0  0  0  0  0  0  0  0  0
   -1.9490   -1.1360   -1.3650 C   0  0  0  0  0  0  0  0  0  0  0  0
   -1.1410   -1.8760   -2.0940 C   0  0  0  0  0  0  0  0  0  0  0  0
   -1.9570   -2.5920   -3.1200 C   0  0  0  0  0  0  0  0  0  0  0  0
   -3.3320   -2.1560   -2.8750 C   0  0  0  0  0  0  0  0  0  0  0  0
   -3.3350   -1.3110   -1.8580 C   0  0  0  0  0  0  0  0  0  0  0  0
   -4.4070   -0.5810   -1.1910 C   0  0  0  0  0  0  0  0  0  0  0  0
   -4.1990    0.2290   -0.1760 C   0  0  0  0  0  0  0  0  0  0  0  0
   -2.8670    0.4200    0.3120 N   0  0  0  0  0  0  0  0  0  0  0  0
  1  2  1  0
  2  3  2  3
  3  4  1  0
  3 28  1  0
  4  5  1  0
  5  6  2  0
  6  7  1  0
  6 19  1  0
  7  8  2  0
  7  9  1  0
  9 10  1  0
 10 11  2  0
 10 16  1  0
 11 12  1  0
 12 13  2  0
 13 14  1  0
 13 15  1  0
 15 16  2  0
 16 17  1  0
 17 18  2  0
 19 20  2  0
 20 21  1  0
 20 28  1  0
 21 22  2  0
 21 25  1  0
 22 23  1  0
 23 24  1  0
 24 25  2  0
 25 26  1  0
 26 27  2  0
 27 28  1  0
M  END
