
     RDKit          3D

 28 31  0  0  0  0  0  0  0  0999 V2000
   -1.7450    4.3370    1.6240 C   0  0  0  0  0  0  0  0  0  0  0  0
   -2.1750    3.0840    0.9380 C   0  0  0  0  0  0  0  0  0  0  0  0
   -3.3910    3.0200    0.4330 C   0  0  0  0  0  0  0  0  0  0  0  0
   -3.7510    1.7750   -0.2230 C   0  0  0  0  0  0  0  0  0  0  0  0
   -4.8980    1.6610   -0.7210 O   0  0  0  0  0  0  0  0  0  0  0  0
   -2.8090    0.6580   -0.3130 C   0  0  0  0  0  0  0  0  0  0  0  0
   -1.6040    0.7670    0.2060 C   0  0  0  0  0  0  0  0  0  0  0  0
   -1.2370    1.9550    0.8410 C   0  0  0  0  0  0  0  0  0  0  0  0
    0.0120    2.1160    1.3990 C   0  0  0  0  0  0  0  0  0  0  0  0
    0.8710    1.1300    1.3310 N   0  0  0  0  0  0  0  0  0  0  0  0
    0.5620   -0.0350    0.7280 C   0  0  0  0  0  0  0  0  0  0  0  0
    1.5600   -1.0280    0.7520 N   0  0  0  0  0  0  0  0  0  0  0  0
    2.8840   -0.7770    1.3370 C   0  0  0  0  0  0  0  0  0  0  0  0
    3.9130   -0.6190    0.2990 C   0  0  0  0  0  0  0  0  0  0  0  0
    4.9900   -1.4140    0.1770 C   0  0  0  0  0  0  0  0  0  0  0  0
    5.3180   -2.7650    1.2560 Cl  0  0  0  0  0  0  0  0  0  0  0  0
    5.8080   -0.9750   -0.9610 C   0  0  0  0  0  0  0  0  0  0  0  0
    5.0880    0.1500   -1.4720 N   0  0  0  0  0  0  0  0  0  0  0  0
    4.0040    0.3610   -0.7600 C   0  0  0  0  0  0  0  0  0  0  0  0
    3.0500    1.4830   -1.0620 C   0  0  0  0  0  0  0  0  0  0  0  0
   -0.6830   -0.2860    0.1330 C   0  0  0  0  0  0  0  0  0  0  0  0
   -0.9020   -1.4220   -0.4290 C   0  0  0  0  0  0  0  0  0  0  0  0
   -1.9650   -2.0880   -1.1320 C   0  0  0  0  0  0  0  0  0  0  0  0
   -2.2150   -2.1010   -2.5020 C   0  0  0  0  0  0  0  0  0  0  0  0
   -3.3010   -2.9270   -2.6700 C   0  0  0  0  0  0  0  0  0  0  0  0
   -3.6670   -3.3690   -1.4950 O   0  0  0  0  0  0  0  0  0  0  0  0
   -2.9080   -2.9020   -0.5470 C   0  0  0  0  0  0  0  0  0  0  0  0
   -3.0390   -3.1990    0.9140 C   0  0  0  0  0  0  0  0  0  0  0  0
  1  2  1  0
  2  3  2  0
  2  8  1  0
  3  4  1  0
  4  5  2  0
  4  6  1  0
  6  7  2  0
  7  8  1  0
  7 21  1  0
  8  9  2  0
  9 10  1  0
 10 11  2  0
 11 12  1  0
 11 21  1  0
 12 13  1  0
 13 14  1  0
 14 15  2  0
 14 19  1  0
 15 16  1  0
 15 17  1  0
 17 18  1  0
 18 19  2  0
 19 20  1  0
 21 22  2  3
 22 23  1  0
 23 24  1  0
 23 27  2  0
 24 25  2  0
 25 26  1  0
 26 27  1  0
 27 28  1  0
M  END
