
     RDKit          3D

 28 31  0  0  0  0  0  0  0  0999 V2000
    8.4990    0.8860    0.4710 C   0  0  0  0  0  0  0  0  0  0  0  0
    7.4940    1.3130    1.3040 O   0  0  0  0  0  0  0  0  0  0  0  0
    6.2840    0.6610    1.0700 C   0  0  0  0  0  0  0  0  0  0  0  0
    5.7840    0.8740   -0.3420 C   0  0  0  0  0  0  0  0  0  0  0  0
    4.4860    0.1220   -0.4480 C   0  0  0  0  0  0  0  0  0  0  0  0
    3.2610    0.6050   -0.1800 N   0  0  0  0  0  0  0  0  0  0  0  0
    2.3370   -0.3510   -0.3850 C   0  0  0  0  0  0  0  0  0  0  0  0
    0.9410   -0.3700   -0.2550 C   0  0  0  0  0  0  0  0  0  0  0  0
    0.2180   -1.4970   -0.5320 C   0  0  0  0  0  0  0  0  0  0  0  0
   -1.2570   -1.5090   -0.3980 C   0  0  0  0  0  0  0  0  0  0  0  0
   -1.8200   -2.6010   -0.4630 O   0  0  0  0  0  0  0  0  0  0  0  0
   -2.0070   -0.3250   -0.2040 N   0  0  0  0  0  0  0  0  0  0  0  0
   -3.4090   -0.2260   -0.0640 C   0  0  0  0  0  0  0  0  0  0  0  0
   -4.2720   -1.2930   -0.1030 C   0  0  0  0  0  0  0  0  0  0  0  0
   -5.6520   -1.2020    0.0320 C   0  0  0  0  0  0  0  0  0  0  0  0
   -6.5130   -2.4130   -0.0230 C   0  0  0  0  0  0  0  0  0  0  0  0
   -6.1960    0.0360    0.2190 C   0  0  0  0  0  0  0  0  0  0  0  0
   -5.3690    1.1400    0.2660 C   0  0  0  0  0  0  0  0  0  0  0  0
   -5.9460    2.3960    0.4570 C   0  0  0  0  0  0  0  0  0  0  0  0
   -5.1570    3.5180    0.5100 C   0  0  0  0  0  0  0  0  0  0  0  0
   -3.8010    3.4360    0.3780 C   0  0  0  0  0  0  0  0  0  0  0  0
   -2.7850    4.8630    0.4440 Cl  0  0  0  0  0  0  0  0  0  0  0  0
   -3.2170    2.1800    0.1850 C   0  0  0  0  0  0  0  0  0  0  0  0
   -3.9840    1.0420    0.1290 C   0  0  0  0  0  0  0  0  0  0  0  0
    0.8850   -2.6420   -0.9490 C   0  0  0  0  0  0  0  0  0  0  0  0
    2.2550   -2.6100   -1.0720 C   0  0  0  0  0  0  0  0  0  0  0  0
    3.0000   -1.4850   -0.7980 C   0  0  0  0  0  0  0  0  0  0  0  0
    4.3050   -1.1560   -0.8230 N   0  0  0  0  0  0  0  0  0  0  0  0
  1  2  1  0
  2  3  1  0
  3  4  1  0
  4  5  1  0
  5  6  2  0
  5 28  1  0
  6  7  1  0
  7  8  2  0
  7 27  1  0
  8  9  1  0
  9 10  1  0
  9 25  2  0
 10 11  2  0
 10 12  1  0
 12 13  1  0
 13 14  2  0
 13 24  1  0
 14 15  1  0
 15 16  1  0
 15 17  2  0
 17 18  1  0
 18 19  2  0
 18 24  1  0
 19 20  1  0
 20 21  2  0
 21 22  1  0
 21 23  1  0
 23 24  2  0
 25 26  1  0
 26 27  2  0
 27 28  1  0
M  END
