
     RDKit          3D

 25 28  0  0  0  0  0  0  0  0999 V2000
    4.1830    1.4170   -1.2040 C   0  0  0  0  0  0  0  0  0  0  0  0
    3.3470    0.2160   -1.4100 C   0  0  2  0  0  0  0  0  0  0  0  0
    2.1090    0.4280   -2.2710 C   0  0  0  0  0  0  0  0  0  0  0  0
    1.2000   -0.6820   -1.9120 C   0  0  0  0  0  0  0  0  0  0  0  0
    0.4860   -0.3910   -0.6050 N   0  0  2  0  0  0  0  0  0  0  0  0
    1.5030   -0.0920    0.3220 C   0  0  2  0  0  0  0  0  0  0  0  0
    1.7590    1.2410    0.8650 C   0  0  0  0  0  0  0  0  0  0  0  0
    0.7650    2.0440    1.4680 O   0  0  0  0  0  0  0  0  0  0  0  0
   -0.5590    2.0160    0.8710 C   0  0  0  0  0  0  0  0  0  0  0  0
   -0.9970    2.8260   -0.1100 C   0  0  0  0  0  0  0  0  0  0  0  0
   -2.3130    2.5500   -0.5670 C   0  0  0  0  0  0  0  0  0  0  0  0
   -3.0940    1.5260   -0.0470 C   0  0  0  0  0  0  0  0  0  0  0  0
   -2.6410    0.7180    0.9850 C   0  0  0  0  0  0  0  0  0  0  0  0
   -1.3480    0.9830    1.4310 C   0  0  0  0  0  0  0  0  0  0  0  0
   -0.7310    0.3120    2.4020 O   0  0  0  0  0  0  0  0  0  0  0  0
   -0.0910   -0.3110    3.3160 C   0  0  0  0  0  0  0  0  0  0  0  0
   -0.4620   -1.7770    3.3210 C   0  0  0  0  0  0  0  0  0  0  0  0
   -0.0750   -2.4530    2.0830 C   0  0  0  0  0  0  0  0  0  0  0  0
   -0.0410   -2.3720    0.8300 C   0  0  0  0  0  0  0  0  0  0  0  0
   -0.3730   -1.5280   -0.3290 C   0  0  1  0  0  0  0  0  0  0  0  0
   -1.7920   -1.5200   -0.7390 C   0  0  0  0  0  0  0  0  0  0  0  0
   -2.4390   -0.4540   -1.4960 C   0  0  0  0  0  0  0  0  0  0  0  0
   -3.8890   -0.3470   -1.4340 N   0  0  0  0  0  0  0  0  0  0  0  0
   -4.2910    0.9560   -0.8060 C   0  0  0  0  0  0  0  0  0  0  0  0
    2.9260   -0.5360   -0.2020 C   0  0  0  0  0  0  0  0  0  0  0  0
  2  1  1  1
  2  3  1  0
  2 25  1  0
  3  4  1  0
  5  4  1  6
  5  6  1  0
  5 20  1  0
  6  7  1  0
  6 25  1  6
  7  8  1  0
  8  9  1  0
  9 10  2  0
  9 14  1  0
 10 11  1  0
 11 12  2  0
 12 13  1  0
 12 24  1  0
 13 14  2  0
 14 15  1  0
 15 16  1  0
 16 17  1  0
 17 18  1  0
 18 19  2  0
 19 20  1  0
 20 21  1  1
 21 22  1  0
 22 23  1  0
 23 24  1  0
M  CHG  1   5   1
M  END
