
     RDKit          3D

 25 28  0  0  0  0  0  0  0  0999 V2000
   -1.1290    4.0990   -0.3400 C   0  0  0  0  0  0  0  0  0  0  0  0
   -1.0640    2.7700   -1.1020 C   0  0  2  0  0  0  0  0  0  0  0  0
   -2.3560    2.5780   -1.7900 C   0  0  0  0  0  0  0  0  0  0  0  0
   -3.4040    2.0010   -0.8660 C   0  0  0  0  0  0  0  0  0  0  0  0
   -2.8720    0.6400   -0.4720 C   0  0  1  0  0  0  0  0  0  0  0  0
   -1.7160    0.9140    0.4510 C   0  0  0  0  0  0  0  0  0  0  0  0
   -0.5980    1.6590   -0.2360 C   0  0  1  0  0  0  0  0  0  0  0  0
    0.2470    0.6790   -0.9500 N   0  0  0  0  0  0  0  0  0  0  0  0
    1.2620    0.1020   -0.1430 C   0  0  2  0  0  0  0  0  0  0  0  0
    2.5700    0.7740   -0.5230 C   0  0  0  0  0  0  0  0  0  0  0  0
    3.7290    0.2800    0.2480 C   0  0  0  0  0  0  0  0  0  0  0  0
    3.7920   -0.6000    1.1830 N   0  0  0  0  0  0  0  0  0  0  0  0
    5.1220   -0.7890    1.6740 C   0  0  0  0  0  0  0  0  0  0  0  0
    5.9240    0.1630    0.8580 C   0  0  0  0  0  0  0  0  0  0  0  0
    5.1010    0.7660    0.0450 C   0  0  0  0  0  0  0  0  0  0  0  0
    1.4430   -1.3860   -0.1850 C   0  0  2  0  0  0  0  0  0  0  0  0
    0.5800   -2.1510   -1.1090 C   0  0  0  0  0  0  0  0  0  0  0  0
   -0.7490   -2.5860   -0.6010 C   0  0  0  0  0  0  0  0  0  0  0  0
   -0.6710   -2.8250    0.9420 C   0  0  0  0  0  0  0  0  0  0  0  0
   -1.7960   -2.7550    1.5830 C   0  0  0  0  0  0  0  0  0  0  0  0
   -3.1020   -2.4510    0.8290 C   0  0  0  0  0  0  0  0  0  0  0  0
   -3.5100   -1.0380    1.0590 C   0  0  0  0  0  0  0  0  0  0  0  0
   -3.7430   -0.2530   -0.0100 O   0  0  0  0  0  0  0  0  0  0  0  0
    0.7340   -3.0490    1.2830 C   0  0  0  0  0  0  0  0  0  0  0  0
    1.5590   -1.9580    1.0760 O   0  0  0  0  0  0  0  0  0  0  0  0
  2  1  1  1
  2  3  1  0
  2  7  1  0
  3  4  1  0
  5  4  1  1
  5  6  1  0
  5 23  1  0
  6  7  1  0
  7  8  1  6
  8  9  1  0
  9 10  1  6
  9 16  1  0
 10 11  1  0
 11 12  2  0
 11 15  1  0
 12 13  1  0
 13 14  1  0
 14 15  2  0
 16 17  1  0
 16 25  1  1
 17 18  1  0
 18 19  1  0
 19 20  2  0
 19 24  1  0
 20 21  1  0
 21 22  1  0
 22 23  1  0
 24 25  1  0
M  CHG  1   8   1
M  END
