
     RDKit          3D

 22 24  0  0  0  0  0  0  0  0999 V2000
   -0.3680    2.1950   -3.6100 O   0  0  0  0  0  0  0  0  0  0  0  0
    0.3100    1.8110   -2.6260 C   0  0  0  0  0  0  0  0  0  0  0  0
    1.4530    2.5440   -2.2320 N   0  0  0  0  0  0  0  0  0  0  0  0
    2.2040    2.0710   -1.0980 C   0  0  0  0  0  0  0  0  0  0  0  0
    1.9130    1.0100   -0.3990 C   0  0  0  0  0  0  0  0  0  0  0  0
    2.7450    0.6290    0.7260 C   0  0  0  0  0  0  0  0  0  0  0  0
    3.8630    1.2960    1.1570 C   0  0  0  0  0  0  0  0  0  0  0  0
    4.5920    0.8330    2.2610 C   0  0  0  0  0  0  0  0  0  0  0  0
    4.2310   -0.2690    2.9350 N   0  0  0  0  0  0  0  0  0  0  0  0
    3.1440   -0.9470    2.5430 C   0  0  0  0  0  0  0  0  0  0  0  0
    2.4170   -0.5050    1.4610 C   0  0  0  0  0  0  0  0  0  0  0  0
    0.7270    0.1400   -0.7100 C   0  0  0  0  0  0  0  0  0  0  0  0
   -0.0380    0.6220   -1.8620 C   0  0  0  0  0  0  0  0  0  0  0  0
   -1.0870   -0.1010   -2.1770 N   0  0  0  0  0  0  0  0  0  0  0  0
   -1.4450   -1.2540   -1.4550 C   0  0  0  0  0  0  0  0  0  0  0  0
   -0.7330   -2.2700   -1.5300 O   0  0  0  0  0  0  0  0  0  0  0  0
   -2.6330   -1.2490   -0.6350 C   0  0  0  0  0  0  0  0  0  0  0  0
   -3.4580   -0.1310   -0.5240 C   0  0  0  0  0  0  0  0  0  0  0  0
   -4.5850   -0.1500    0.2640 C   0  0  0  0  0  0  0  0  0  0  0  0
   -4.9530   -1.2730    0.9810 C   0  0  0  0  0  0  0  0  0  0  0  0
   -4.1500   -2.3900    0.8840 C   0  0  0  0  0  0  0  0  0  0  0  0
   -3.0400   -2.3590    0.1030 C   0  0  0  0  0  0  0  0  0  0  0  0
  1  2  2  0
  2  3  1  0
  2 13  1  0
  3  4  1  0
  4  5  2  0
  5  6  1  0
  5 12  1  0
  6  7  2  0
  6 11  1  0
  7  8  1  0
  8  9  2  0
  9 10  1  0
 10 11  2  0
 12 13  1  0
 13 14  2  3
 14 15  1  0
 15 16  2  0
 15 17  1  0
 17 18  2  0
 17 22  1  0
 18 19  1  0
 19 20  2  0
 20 21  1  0
 21 22  2  0
M  END
