
     RDKit          3D

 25 29  0  0  0  0  0  0  0  0999 V2000
   -0.0940    3.9470   -0.1480 C   0  0  0  0  0  0  0  0  0  0  0  0
    0.0430    2.4960   -0.3250 N   0  0  1  0  0  0  0  0  0  0  0  0
    0.7280    1.8840    0.7960 C   0  0  0  0  0  0  0  0  0  0  0  0
    1.4260    0.7880    0.6700 O   0  0  0  0  0  0  0  0  0  0  0  0
    2.7130    0.5120    0.7440 C   0  0  1  0  0  0  0  0  0  0  0  0
    2.7530   -0.8930    1.4720 C   0  0  2  0  0  0  0  0  0  0  0  0
    4.1880   -1.2210    1.5720 C   0  0  0  0  0  0  0  0  0  0  0  0
    4.6180   -0.8250    0.1710 C   0  0  0  0  0  0  0  0  0  0  0  0
    3.2590   -0.4050   -0.3840 C   0  0  2  0  0  0  0  0  0  0  0  0
    3.2600    0.1450   -1.7360 C   0  0  0  0  0  0  0  0  0  0  0  0
    2.2270   -1.2920    0.1400 C   0  0  1  0  0  0  0  0  0  0  0  0
    1.9660   -2.5780   -0.2810 N   0  0  0  0  0  0  0  0  0  0  0  0
    0.5740   -2.8500   -0.7740 C   0  0  0  0  0  0  0  0  0  0  0  0
    0.3940   -4.0120   -1.1680 O   0  0  0  0  0  0  0  0  0  0  0  0
   -0.4590   -1.7800   -0.7600 C   0  0  0  0  0  0  0  0  0  0  0  0
   -1.5820   -2.2050   -0.0130 C   0  0  0  0  0  0  0  0  0  0  0  0
   -2.5810   -1.3570    0.4000 C   0  0  0  0  0  0  0  0  0  0  0  0
   -2.4270   -0.0460    0.0460 C   0  0  0  0  0  0  0  0  0  0  0  0
   -1.3230    0.4260   -0.6990 C   0  0  0  0  0  0  0  0  0  0  0  0
   -0.3500   -0.4430   -1.1150 C   0  0  0  0  0  0  0  0  0  0  0  0
   -1.2590    1.9250   -0.6620 C   0  0  0  0  0  0  0  0  0  0  0  0
   -3.5490    0.8710    0.4410 C   0  0  0  0  0  0  0  0  0  0  0  0
   -4.8390    0.1110    0.0890 C   0  0  0  0  0  0  0  0  0  0  0  0
   -4.9960   -1.1810    0.7820 C   0  0  0  0  0  0  0  0  0  0  0  0
   -3.7350   -1.8370    1.2020 C   0  0  0  0  0  0  0  0  0  0  0  0
  2  1  1  1
  2  3  1  0
  2 21  1  0
  3  4  1  0
  5  4  1  6
  5  6  1  0
  5  9  1  0
  6  7  1  6
  6 11  1  0
  7  8  1  0
  8  9  1  0
  9 10  1  6
  9 11  1  0
 11 12  1  6
 12 13  1  0
 13 14  2  0
 13 15  1  0
 15 16  1  0
 15 20  2  0
 16 17  2  0
 17 18  1  0
 17 25  1  0
 18 19  2  0
 18 22  1  0
 19 20  1  0
 19 21  1  0
 22 23  1  0
 23 24  1  0
 24 25  1  0
M  CHG  1   2   1
M  END
