
     RDKit          3D

 25 28  0  0  0  0  0  0  0  0999 V2000
    2.4160   -2.0200    2.3150 C   0  0  0  0  0  0  0  0  0  0  0  0
    1.4660   -0.8900    2.0970 C   0  0  0  0  0  0  0  0  0  0  0  0
    1.0210   -0.6980    0.6510 C   0  0  2  0  0  0  0  0  0  0  0  0
    0.4040   -1.8640    0.2410 N   0  0  0  0  0  0  0  0  0  0  0  0
   -0.6070   -1.8090   -0.7860 C   0  0  1  0  0  0  0  0  0  0  0  0
   -1.8080   -2.6950   -0.5360 C   0  0  0  0  0  0  0  0  0  0  0  0
   -3.0420   -2.2910   -1.2060 C   0  0  0  0  0  0  0  0  0  0  0  0
   -3.3130   -0.9820   -1.4950 O   0  0  0  0  0  0  0  0  0  0  0  0
   -2.5400   -0.1870   -0.6880 C   0  0  2  0  0  0  0  0  0  0  0  0
   -2.8950   -0.3290    0.7310 C   0  0  0  0  0  0  0  0  0  0  0  0
   -3.8380    0.7400    1.2620 C   0  0  0  0  0  0  0  0  0  0  0  0
   -3.4480    2.0470    1.0420 O   0  0  0  0  0  0  0  0  0  0  0  0
   -2.2150    1.9380    0.3460 C   0  0  2  0  0  0  0  0  0  0  0  0
   -1.4110    3.1620    0.2910 C   0  0  0  0  0  0  0  0  0  0  0  0
    0.0280    3.0520    0.0040 C   0  0  0  0  0  0  0  0  0  0  0  0
    0.8940    2.2170    0.8900 C   0  0  0  0  0  0  0  0  0  0  0  0
    1.9090    1.4490    0.0900 C   0  0  0  0  0  0  0  0  0  0  0  0
    1.9670    0.1150   -0.0230 C   0  0  0  0  0  0  0  0  0  0  0  0
    3.0070   -0.4430   -0.8880 C   0  0  0  0  0  0  0  0  0  0  0  0
    3.0890   -1.8750   -1.0880 C   0  0  0  0  0  0  0  0  0  0  0  0
    3.8740    0.3480   -1.5420 C   0  0  0  0  0  0  0  0  0  0  0  0
    3.8710    1.7950   -1.4640 C   0  0  0  0  0  0  0  0  0  0  0  0
    2.8650    2.2560   -0.5790 N   0  0  0  0  0  0  0  0  0  0  0  0
   -2.6300    1.3190   -0.9760 C   0  0  0  0  0  0  0  0  0  0  0  0
   -1.1310   -0.4840   -1.1430 C   0  0  0  0  0  0  0  0  0  0  0  0
  1  2  1  0
  3  2  1  1
  3  4  1  0
  3 18  1  0
  4  5  1  0
  5  6  1  1
  5 25  1  0
  6  7  1  0
  7  8  1  0
  8  9  1  0
  9 10  1  1
  9 24  1  0
  9 25  1  0
 10 11  1  0
 11 12  1  0
 12 13  1  0
 13 14  1  6
 13 24  1  0
 14 15  1  0
 15 16  1  0
 16 17  1  0
 17 18  2  0
 17 23  1  0
 18 19  1  0
 19 20  1  0
 19 21  2  0
 21 22  1  0
 22 23  1  0
M  CHG  1   4   1
M  END
