
     RDKit          3D

 31 34  0  0  0  0  0  0  0  0999 V2000
    9.7520    0.6180   -1.0490 C   0  0  0  0  0  0  0  0  0  0  0  0
    8.4160    0.9230   -0.4340 C   0  0  0  0  0  0  0  0  0  0  0  0
    8.1210    2.1200   -0.3180 O   0  0  0  0  0  0  0  0  0  0  0  0
    7.5380   -0.0830   -0.0100 N   0  0  0  0  0  0  0  0  0  0  0  0
    6.2610    0.0920    0.5740 C   0  0  0  0  0  0  0  0  0  0  0  0
    5.6210    1.2930    0.7530 C   0  0  0  0  0  0  0  0  0  0  0  0
    4.3510    1.3840    1.3370 C   0  0  0  0  0  0  0  0  0  0  0  0
    3.7030    0.2540    1.7540 C   0  0  0  0  0  0  0  0  0  0  0  0
    2.3120    0.3260    2.3170 C   0  0  0  0  0  0  0  0  0  0  0  0
    1.4400   -0.1050    1.2100 N   0  0  0  0  0  0  0  0  0  0  0  0
    0.0760   -0.0770    1.3110 C   0  0  0  0  0  0  0  0  0  0  0  0
   -0.3430    0.3680    2.4530 O   0  0  0  0  0  0  0  0  0  0  0  0
   -1.0530   -0.3730    0.5750 N   0  0  0  0  0  0  0  0  0  0  0  0
   -1.4350   -0.9290   -0.6210 C   0  0  0  0  0  0  0  0  0  0  0  0
   -0.4940   -1.2530   -1.3470 O   0  0  0  0  0  0  0  0  0  0  0  0
   -2.8530   -1.0840   -0.8840 C   0  0  0  0  0  0  0  0  0  0  0  0
   -3.4020   -2.1790   -1.4920 N   0  0  0  0  0  0  0  0  0  0  0  0
   -4.7010   -2.0130   -1.6250 C   0  0  0  0  0  0  0  0  0  0  0  0
   -4.9900   -0.7950   -1.1010 C   0  0  0  0  0  0  0  0  0  0  0  0
   -3.8470   -0.1680   -0.6150 C   0  0  0  0  0  0  0  0  0  0  0  0
   -3.9560    1.1480   -0.0010 C   0  0  1  0  0  0  0  0  0  0  0  0
   -2.8050    2.0650   -0.3630 C   0  0  0  0  0  0  0  0  0  0  0  0
   -5.2180    1.7640   -0.2340 N   0  0  0  0  0  0  0  0  0  0  0  0
   -6.3220    0.8140    0.0160 C   0  0  0  0  0  0  0  0  0  0  0  0
   -6.3390   -0.1860   -1.0920 C   0  0  2  0  0  0  0  0  0  0  0  0
   -7.3200   -1.2010   -0.9920 N   0  0  0  0  0  0  0  0  0  0  0  0
   -7.1110   -2.2090   -1.9640 N   0  0  0  0  0  0  0  0  0  0  0  0
   -5.8290   -2.8140   -2.1100 C   0  0  0  0  0  0  0  0  0  0  0  0
   -5.6020   -3.9340   -2.6020 O   0  0  0  0  0  0  0  0  0  0  0  0
    4.3250   -0.9620    1.5890 C   0  0  0  0  0  0  0  0  0  0  0  0
    5.5690   -1.0340    1.0140 C   0  0  0  0  0  0  0  0  0  0  0  0
  1  2  1  0
  2  3  2  0
  2  4  1  0
  4  5  1  0
  5  6  2  0
  5 31  1  0
  6  7  1  0
  7  8  2  0
  8  9  1  0
  8 30  1  0
  9 10  1  0
 10 11  1  0
 11 12  2  0
 11 13  1  0
 13 14  1  0
 14 15  2  0
 14 16  1  0
 16 17  1  0
 16 20  2  0
 17 18  1  0
 18 19  2  0
 18 28  1  0
 19 20  1  0
 19 25  1  0
 20 21  1  0
 21 22  1  6
 21 23  1  0
 23 24  1  0
 25 24  1  1
 25 26  1  0
 26 27  1  0
 27 28  1  0
 28 29  2  0
 30 31  2  0
M  END
