
     RDKit          3D

 30 33  0  0  0  0  0  0  0  0999 V2000
    7.9410    1.2740   -1.1760 C   0  0  0  0  0  0  0  0  0  0  0  0
    7.8720   -0.1210   -0.9500 O   0  0  0  0  0  0  0  0  0  0  0  0
    6.6530   -0.7230   -0.5800 C   0  0  0  0  0  0  0  0  0  0  0  0
    6.5720   -2.0800   -0.3580 C   0  0  0  0  0  0  0  0  0  0  0  0
    5.3720   -2.6540    0.0030 C   0  0  0  0  0  0  0  0  0  0  0  0
    4.2170   -1.8730    0.1500 C   0  0  0  0  0  0  0  0  0  0  0  0
    4.2910   -0.5320   -0.0680 C   0  0  0  0  0  0  0  0  0  0  0  0
    5.5070    0.0240   -0.4300 C   0  0  0  0  0  0  0  0  0  0  0  0
    3.1530    0.3590    0.0640 C   0  0  0  0  0  0  0  0  0  0  0  0
    1.7900   -0.3020   -0.0080 C   0  0  2  0  0  0  0  0  0  0  0  0
    0.8710    0.4790    0.7130 N   0  0  2  0  0  0  0  0  0  0  0  0
    0.9210    0.0780    2.0290 O   0  0  0  0  0  0  0  0  0  0  0  0
   -0.4170    0.4930    0.3510 O   0  0  0  0  0  0  0  0  0  0  0  0
   -1.5110    0.2510    1.1520 C   0  0  0  0  0  0  0  0  0  0  0  0
   -1.1890   -0.0030    2.3380 O   0  0  0  0  0  0  0  0  0  0  0  0
   -2.8840    0.2820    0.6940 C   0  0  0  0  0  0  0  0  0  0  0  0
   -3.2520    0.5580   -0.6010 C   0  0  0  0  0  0  0  0  0  0  0  0
   -4.5400    0.5890   -1.0430 C   0  0  0  0  0  0  0  0  0  0  0  0
   -4.9130    0.8920   -2.4550 C   0  0  0  0  0  0  0  0  0  0  0  0
   -5.5580    0.3230   -0.1170 C   0  0  0  0  0  0  0  0  0  0  0  0
   -5.2250    0.0420    1.1910 C   0  0  0  0  0  0  0  0  0  0  0  0
   -3.8890    0.0200    1.6000 C   0  0  0  0  0  0  0  0  0  0  0  0
   -6.4320   -0.1850    1.9000 N   0  0  0  0  0  0  0  0  0  0  0  0
   -7.5420   -0.0450    1.0280 C   0  0  0  0  0  0  0  0  0  0  0  0
   -8.7540   -0.1900    1.3840 O   0  0  0  0  0  0  0  0  0  0  0  0
   -7.0110    0.2890   -0.3110 C   0  0  1  0  0  0  0  0  0  0  0  0
   -7.4080    1.5670   -0.7280 O   0  0  0  0  0  0  0  0  0  0  0  0
    1.8630   -1.6590    0.6560 C   0  0  0  0  0  0  0  0  0  0  0  0
    0.8890   -2.0820    1.3350 O   0  0  0  0  0  0  0  0  0  0  0  0
    3.0100   -2.4280    0.5100 O   0  0  0  0  0  0  0  0  0  0  0  0
  1  2  1  0
  2  3  1  0
  3  4  2  0
  3  8  1  0
  4  5  1  0
  5  6  2  0
  6  7  1  0
  6 30  1  0
  7  8  2  0
  7  9  1  0
 10  9  1  1
 10 11  1  0
 10 28  1  0
 11 12  1  1
 11 13  1  0
 13 14  1  0
 14 15  2  0
 14 16  1  0
 16 17  2  0
 16 22  1  0
 17 18  1  0
 18 19  1  0
 18 20  2  0
 20 21  1  0
 20 26  1  0
 21 22  2  0
 21 23  1  0
 23 24  1  0
 24 25  2  0
 24 26  1  0
 26 27  1  1
 28 29  2  0
 28 30  1  0
M  CHG  2  11   1  12  -1
M  END
