
     RDKit          3D

 30 33  0  0  0  0  0  0  0  0999 V2000
   -3.4120    0.0690    4.9530 C   0  0  0  0  0  0  0  0  0  0  0  0
   -2.6380    0.2150    3.9260 O   0  0  0  0  0  0  0  0  0  0  0  0
   -2.0020    0.2010    2.7950 C   0  0  0  0  0  0  0  0  0  0  0  0
   -2.4370   -0.6410    1.7550 C   0  0  0  0  0  0  0  0  0  0  0  0
   -1.7520   -0.6420    0.5700 C   0  0  0  0  0  0  0  0  0  0  0  0
   -2.2500   -1.5290   -0.4920 C   0  0  0  0  0  0  0  0  0  0  0  0
   -3.2730   -2.2550   -0.2430 O   0  0  0  0  0  0  0  0  0  0  0  0
   -1.7090   -1.6670   -1.7780 N   0  0  0  0  0  0  0  0  0  0  0  0
   -2.2230   -2.5460   -2.7920 C   0  0  0  0  0  0  0  0  0  0  0  0
   -3.2320   -3.4540   -2.7660 C   0  0  0  0  0  0  0  0  0  0  0  0
   -3.3090   -4.0250   -4.0320 C   0  0  0  0  0  0  0  0  0  0  0  0
   -2.3950   -3.4850   -4.7680 O   0  0  0  0  0  0  0  0  0  0  0  0
   -1.7210   -2.6000   -4.0820 C   0  0  0  0  0  0  0  0  0  0  0  0
   -0.6460    0.1490    0.3460 C   0  0  0  0  0  0  0  0  0  0  0  0
   -0.2390    0.9660    1.3810 C   0  0  0  0  0  0  0  0  0  0  0  0
   -0.8660    1.0230    2.5830 C   0  0  0  0  0  0  0  0  0  0  0  0
   -0.5040    1.8200    3.6530 O   0  0  0  0  0  0  0  0  0  0  0  0
    0.4240    1.2280    4.5740 C   0  0  0  0  0  0  0  0  0  0  0  0
    0.9690    1.7060    0.8620 C   0  0  0  0  0  0  0  0  0  0  0  0
    1.4640    0.6650   -0.1240 C   0  0  2  0  0  0  0  0  0  0  0  0
    2.5130    1.1020   -1.0160 C   0  0  0  0  0  0  0  0  0  0  0  0
    2.9330    2.4100   -1.0660 C   0  0  0  0  0  0  0  0  0  0  0  0
    3.9420    2.8110   -1.9290 C   0  0  0  0  0  0  0  0  0  0  0  0
    4.3920    4.1220   -2.0070 O   0  0  0  0  0  0  0  0  0  0  0  0
    4.5410    1.9130   -2.7470 N   0  0  0  0  0  0  0  0  0  0  0  0
    4.1540    0.6170   -2.7250 C   0  0  0  0  0  0  0  0  0  0  0  0
    4.7870   -0.2780   -3.5760 O   0  0  0  0  0  0  0  0  0  0  0  0
    3.1390    0.2050   -1.8600 C   0  0  0  0  0  0  0  0  0  0  0  0
    2.7440   -1.0990   -1.8330 O   0  0  0  0  0  0  0  0  0  0  0  0
    0.2270    0.3410   -0.7420 O   0  0  0  0  0  0  0  0  0  0  0  0
  1  2  1  0
  2  3  1  0
  3  4  2  0
  3 16  1  0
  4  5  1  0
  5  6  1  0
  5 14  2  0
  6  7  2  0
  6  8  1  0
  8  9  1  0
  9 10  1  0
  9 13  2  0
 10 11  2  0
 11 12  1  0
 12 13  1  0
 14 15  1  0
 14 30  1  0
 15 16  2  0
 15 19  1  0
 16 17  1  0
 17 18  1  0
 19 20  1  0
 20 21  1  6
 20 30  1  0
 21 22  2  0
 21 28  1  0
 22 23  1  0
 23 24  1  0
 23 25  2  0
 25 26  1  0
 26 27  1  0
 26 28  2  0
 28 29  1  0
M  CHG  2  25   1  27  -1
M  END
