
     RDKit          3D

 30 33  0  0  0  0  0  0  0  0999 V2000
   -6.2610   -1.3830    0.8010 C   0  0  0  0  0  0  0  0  0  0  0  0
   -4.9590   -0.7680    0.3840 C   0  0  0  0  0  0  0  0  0  0  0  0
   -4.1670   -1.5250   -0.4250 C   0  0  0  0  0  0  0  0  0  0  0  0
   -2.9490   -1.0030   -0.7980 C   0  0  0  0  0  0  0  0  0  0  0  0
   -2.4860    0.2280   -0.4040 C   0  0  0  0  0  0  0  0  0  0  0  0
   -3.3250    0.9570    0.3950 C   0  0  0  0  0  0  0  0  0  0  0  0
   -4.5650    0.4840    0.8100 C   0  0  0  0  0  0  0  0  0  0  0  0
   -5.4790    1.1750    1.7410 C   0  0  0  0  0  0  0  0  0  0  0  0
   -6.0020    2.4250    1.1440 N   0  0  0  0  0  0  0  0  0  0  0  0
   -1.2420    0.7610   -0.7320 O   0  0  0  0  0  0  0  0  0  0  0  0
   -0.0750   -0.0190   -0.8520 C   0  0  0  0  0  0  0  0  0  0  0  0
    1.1610    0.6690   -0.7090 C   0  0  0  0  0  0  0  0  0  0  0  0
    2.3660    0.0430   -0.8060 C   0  0  0  0  0  0  0  0  0  0  0  0
    3.6730    0.6710   -0.7220 N   0  0  0  0  0  0  0  0  0  0  0  0
    4.8470   -0.1520   -0.4530 C   0  0  0  0  0  0  0  0  0  0  0  0
    4.6360   -1.3520   -0.2010 O   0  0  0  0  0  0  0  0  0  0  0  0
    6.2260    0.3420   -0.4820 C   0  0  2  0  0  0  0  0  0  0  0  0
    6.9900   -0.9730   -0.4030 O   0  0  0  0  0  0  0  0  0  0  0  0
    7.2700   -1.1420    0.9280 C   0  0  0  0  0  0  0  0  0  0  0  0
    7.6670   -2.1810    1.5650 O   0  0  0  0  0  0  0  0  0  0  0  0
    7.0490    0.0900    1.6130 O   0  0  0  0  0  0  0  0  0  0  0  0
    6.9660    1.0080    0.5550 C   0  0  2  0  0  0  0  0  0  0  0  0
    6.7590    2.3900    0.9090 C   0  0  0  0  0  0  0  0  0  0  0  0
    5.6470    3.0080    0.6730 O   0  0  0  0  0  0  0  0  0  0  0  0
    7.7430    3.1510    1.5120 O   0  0  0  0  0  0  0  0  0  0  0  0
    2.3480   -1.3450   -1.0610 C   0  0  0  0  0  0  0  0  0  0  0  0
    1.2070   -2.0640   -1.2100 C   0  0  0  0  0  0  0  0  0  0  0  0
    0.0250   -1.3930   -1.1030 C   0  0  0  0  0  0  0  0  0  0  0  0
   -1.0480   -2.2780   -1.2900 O   0  0  0  0  0  0  0  0  0  0  0  0
   -2.3380   -1.9200   -1.7710 C   0  0  0  0  0  0  0  0  0  0  0  0
  1  2  1  0
  2  3  2  0
  2  7  1  0
  3  4  1  0
  4  5  2  0
  4 30  1  0
  5  6  1  0
  5 10  1  0
  6  7  2  0
  7  8  1  0
  8  9  1  0
 10 11  1  0
 11 12  2  0
 11 28  1  0
 12 13  1  0
 13 14  1  0
 13 26  2  0
 14 15  1  0
 15 16  2  0
 17 15  1  1
 17 18  1  0
 17 22  1  0
 18 19  1  0
 19 20  2  0
 19 21  1  0
 21 22  1  0
 22 23  1  1
 23 24  2  0
 23 25  1  0
 26 27  1  0
 27 28  2  0
 28 29  1  0
 29 30  1  0
M  CHG  2   9   1  25  -1
M  END
