
     RDKit          3D

 29 32  0  0  0  0  0  0  0  0999 V2000
    8.2770    0.2620    0.2290 C   0  0  0  0  0  0  0  0  0  0  0  0
    6.8710    0.3440   -0.0030 O   0  0  0  0  0  0  0  0  0  0  0  0
    6.0210   -0.7250    0.1280 C   0  0  0  0  0  0  0  0  0  0  0  0
    6.4690   -1.8470    0.4670 O   0  0  0  0  0  0  0  0  0  0  0  0
    4.5940   -0.5680   -0.1250 C   0  0  0  0  0  0  0  0  0  0  0  0
    4.0390    0.6260   -0.4970 C   0  0  0  0  0  0  0  0  0  0  0  0
    2.6960    0.7320   -0.7260 C   0  0  0  0  0  0  0  0  0  0  0  0
    1.8310   -0.3400   -0.5970 C   0  0  0  0  0  0  0  0  0  0  0  0
    0.3620   -0.1910   -0.8540 C   0  0  0  0  0  0  0  0  0  0  0  0
   -0.3680    0.1710    0.3240 N   0  0  0  0  0  0  0  0  0  0  0  0
   -1.2570    1.2490    0.0000 C   0  0  1  0  0  0  0  0  0  0  0  0
   -2.2290    0.9410   -1.0770 C   0  0  0  0  0  0  0  0  0  0  0  0
   -3.3040    0.0760   -0.5220 C   0  0  0  0  0  0  0  0  0  0  0  0
   -4.1280   -0.5670   -1.4360 C   0  0  0  0  0  0  0  0  0  0  0  0
   -5.1700   -1.4030   -1.0420 C   0  0  0  0  0  0  0  0  0  0  0  0
   -5.9780   -2.0320   -2.0370 N   0  0  0  0  0  0  0  0  0  0  0  0
   -5.7250   -1.8110   -3.3410 O   0  0  0  0  0  0  0  0  0  0  0  0
   -5.3930   -1.6000    0.2990 C   0  0  0  0  0  0  0  0  0  0  0  0
   -6.4030   -2.4120    0.7570 O   0  0  0  0  0  0  0  0  0  0  0  0
   -4.5520   -0.9440    1.2030 C   0  0  0  0  0  0  0  0  0  0  0  0
   -3.5270   -0.1210    0.8230 C   0  0  0  0  0  0  0  0  0  0  0  0
   -2.6840    0.5370    1.7060 O   0  0  0  0  0  0  0  0  0  0  0  0
   -2.0620    1.6870    1.2370 C   0  0  1  0  0  0  0  0  0  0  0  0
   -0.9870    2.2590    2.0710 C   0  0  0  0  0  0  0  0  0  0  0  0
   -0.1030    2.8720    1.1190 O   0  0  0  0  0  0  0  0  0  0  0  0
   -0.4530    2.4700   -0.1850 C   0  0  0  0  0  0  0  0  0  0  0  0
   -0.1230    3.0620   -1.2530 O   0  0  0  0  0  0  0  0  0  0  0  0
    2.3870   -1.5410   -0.2220 C   0  0  0  0  0  0  0  0  0  0  0  0
    3.7360   -1.6560    0.0090 C   0  0  0  0  0  0  0  0  0  0  0  0
  1  2  1  0
  2  3  1  0
  3  4  2  0
  3  5  1  0
  5  6  2  0
  5 29  1  0
  6  7  1  0
  7  8  2  0
  8  9  1  0
  8 28  1  0
  9 10  1  0
 11 10  1  1
 11 12  1  0
 11 23  1  0
 11 26  1  0
 12 13  1  0
 13 14  2  0
 13 21  1  0
 14 15  1  0
 15 16  1  0
 15 18  2  0
 16 17  1  0
 18 19  1  0
 18 20  1  0
 20 21  2  0
 21 22  1  0
 22 23  1  0
 23 24  1  1
 24 25  1  0
 25 26  1  0
 26 27  2  0
 28 29  2  0
M  CHG  2  10   1  17  -1
M  END
