
     RDKit          3D

 30 33  0  0  0  0  0  0  0  0999 V2000
    6.9150    3.3840   -2.3000 C   0  0  0  0  0  0  0  0  0  0  0  0
    5.9980    2.6360   -1.4740 N   0  0  0  0  0  0  0  0  0  0  0  0
    6.1710    1.2420   -1.2850 C   0  0  0  0  0  0  0  0  0  0  0  0
    7.2070    0.6300   -1.8930 N   0  0  0  0  0  0  0  0  0  0  0  0
    7.4380   -0.6870   -1.7620 C   0  0  0  0  0  0  0  0  0  0  0  0
    6.5500   -1.4070   -0.9590 C   0  0  0  0  0  0  0  0  0  0  0  0
    5.4840   -0.8130   -0.3260 C   0  0  0  0  0  0  0  0  0  0  0  0
    4.5300   -1.5150    0.5230 C   0  0  0  0  0  0  0  0  0  0  0  0
    3.5330   -0.8610    1.0920 C   0  0  0  0  0  0  0  0  0  0  0  0
    2.5070   -1.4370    1.9640 C   0  0  1  0  0  0  0  0  0  0  0  0
    1.1630   -1.2800    1.3760 N   0  0  0  0  0  0  0  0  0  0  0  0
    0.1540   -0.5350    2.0320 C   0  0  0  0  0  0  0  0  0  0  0  0
    0.4930   -0.0210    3.1490 O   0  0  0  0  0  0  0  0  0  0  0  0
   -1.1810   -0.3540    1.4910 C   0  0  0  0  0  0  0  0  0  0  0  0
   -1.6290   -0.8940    0.3140 C   0  0  0  0  0  0  0  0  0  0  0  0
   -2.9170   -0.6870   -0.1570 C   0  0  0  0  0  0  0  0  0  0  0  0
   -3.8110    0.0780    0.5470 C   0  0  0  0  0  0  0  0  0  0  0  0
   -5.1390    0.2850    0.0560 N   0  0  0  0  0  0  0  0  0  0  0  0
   -5.5210   -0.3960   -1.1510 C   0  0  0  0  0  0  0  0  0  0  0  0
   -6.9590   -0.2640   -1.5080 C   0  0  0  0  0  0  0  0  0  0  0  0
   -7.3940    1.1640   -1.2590 C   0  0  0  0  0  0  0  0  0  0  0  0
   -7.2890    1.5110    0.2100 C   0  0  0  0  0  0  0  0  0  0  0  0
   -5.9750    1.1560    0.8050 C   0  0  0  0  0  0  0  0  0  0  0  0
   -3.3590    0.6260    1.7390 C   0  0  0  0  0  0  0  0  0  0  0  0
   -2.0790    0.4220    2.2090 C   0  0  0  0  0  0  0  0  0  0  0  0
    2.6800   -2.8890    2.1710 C   0  0  0  0  0  0  0  0  0  0  0  0
    1.8560   -3.5230    2.9100 O   0  0  0  0  0  0  0  0  0  0  0  0
    3.7570   -3.5540    1.5470 N   0  0  0  0  0  0  0  0  0  0  0  0
    4.5990   -2.9420    0.8000 C   0  0  0  0  0  0  0  0  0  0  0  0
    5.3390    0.5080   -0.5200 N   0  0  0  0  0  0  0  0  0  0  0  0
  1  2  1  0
  2  3  1  0
  3  4  2  0
  3 30  1  0
  4  5  1  0
  5  6  2  0
  6  7  1  0
  7  8  1  0
  7 30  2  0
  8  9  2  0
  8 29  1  0
  9 10  1  0
 10 11  1  6
 10 26  1  0
 11 12  1  0
 12 13  2  0
 12 14  1  0
 14 15  2  0
 14 25  1  0
 15 16  1  0
 16 17  2  0
 17 18  1  0
 17 24  1  0
 18 19  1  0
 18 23  1  0
 19 20  1  0
 20 21  1  0
 21 22  1  0
 22 23  1  0
 24 25  2  0
 26 27  2  0
 26 28  1  0
 28 29  2  0
M  END
