
     RDKit          3D

 31 34  0  0  0  0  0  0  0  0999 V2000
   -8.9300   -0.7330   -1.7360 N   0  0  0  0  0  0  0  0  0  0  0  0
   -8.9090    0.3220   -0.7980 C   0  0  0  0  0  0  0  0  0  0  0  0
   -9.7510    1.2470   -0.9320 O   0  0  0  0  0  0  0  0  0  0  0  0
   -7.9220    0.3380    0.3140 C   0  0  2  0  0  0  0  0  0  0  0  0
   -8.1280    1.4680    1.0660 O   0  0  0  0  0  0  0  0  0  0  0  0
   -6.5570    0.2460   -0.2860 C   0  0  0  0  0  0  0  0  0  0  0  0
   -5.5040    0.2370    0.6820 N   0  0  0  0  0  0  0  0  0  0  0  0
   -4.1490    0.1500    0.1840 C   0  0  0  0  0  0  0  0  0  0  0  0
   -3.9740    0.0880   -1.0550 O   0  0  0  0  0  0  0  0  0  0  0  0
   -3.0400    0.1340    1.0530 N   0  0  0  0  0  0  0  0  0  0  0  0
   -1.6780    0.0600    0.7130 C   0  0  0  0  0  0  0  0  0  0  0  0
   -1.2200    0.1270   -0.5660 C   0  0  0  0  0  0  0  0  0  0  0  0
    0.1410    0.0410   -0.8720 C   0  0  0  0  0  0  0  0  0  0  0  0
    1.0510   -0.1100    0.0840 N   0  0  0  0  0  0  0  0  0  0  0  0
    2.3460   -0.1910   -0.2170 N   0  0  0  0  0  0  0  0  0  0  0  0
    3.2760   -0.3440    0.7400 C   0  0  0  0  0  0  0  0  0  0  0  0
    4.7070   -0.4390    0.4730 C   0  0  0  0  0  0  0  0  0  0  0  0
    5.5030   -1.3860    1.0840 C   0  0  0  0  0  0  0  0  0  0  0  0
    6.8580   -1.4660    0.8230 C   0  0  0  0  0  0  0  0  0  0  0  0
    7.4710   -0.6010   -0.0590 C   0  0  0  0  0  0  0  0  0  0  0  0
    8.8310   -0.6800   -0.3210 C   0  0  0  0  0  0  0  0  0  0  0  0
    9.4200    0.1720   -1.1860 N   0  0  0  0  0  0  0  0  0  0  0  0
    8.6590    1.1020   -1.7900 C   0  0  0  0  0  0  0  0  0  0  0  0
    7.3040    1.2100   -1.5540 C   0  0  0  0  0  0  0  0  0  0  0  0
    6.6810    0.3480   -0.6720 C   0  0  0  0  0  0  0  0  0  0  0  0
    5.3220    0.4260   -0.4090 C   0  0  0  0  0  0  0  0  0  0  0  0
    2.8260   -0.4140    2.0420 C   0  0  0  0  0  0  0  0  0  0  0  0
    3.6420   -0.5570    2.9850 O   0  0  0  0  0  0  0  0  0  0  0  0
    1.5110   -0.3310    2.3380 N   0  0  0  0  0  0  0  0  0  0  0  0
    0.6130   -0.1780    1.3550 C   0  0  0  0  0  0  0  0  0  0  0  0
   -0.7070   -0.0990    1.6990 C   0  0  0  0  0  0  0  0  0  0  0  0
  1  2  1  0
  2  3  2  0
  2  4  1  0
  4  5  1  6
  4  6  1  0
  6  7  1  0
  7  8  1  0
  8  9  2  0
  8 10  1  0
 10 11  1  0
 11 12  1  0
 11 31  2  0
 12 13  2  0
 13 14  1  0
 14 15  1  0
 14 30  1  0
 15 16  2  0
 16 17  1  0
 16 27  1  0
 17 18  2  0
 17 26  1  0
 18 19  1  0
 19 20  2  0
 20 21  1  0
 20 25  1  0
 21 22  2  0
 22 23  1  0
 23 24  2  0
 24 25  1  0
 25 26  2  0
 27 28  2  0
 27 29  1  0
 29 30  2  0
 30 31  1  0
M  END
