
     RDKit          3D

 15 16  0  0  0  0  0  0  0  0999 V2000
    3.7680   -1.6300   -0.0690 N   0  0  0  0  0  0  0  0  0  0  0  0
    2.4460   -1.2760    0.2690 C   0  0  0  0  0  0  0  0  0  0  0  0
    2.0870   -1.4380    1.4590 O   0  0  0  0  0  0  0  0  0  0  0  0
    1.4830   -0.7350   -0.6870 C   0  0  0  0  0  0  0  0  0  0  0  0
    0.1940   -0.4430   -0.1240 N   0  0  0  0  0  0  0  0  0  0  0  0
   -0.6370   -1.5850    0.2890 C   0  0  0  0  0  0  0  0  0  0  0  0
   -1.9810   -1.5440   -0.3890 C   0  0  0  0  0  0  0  0  0  0  0  0
   -2.9620   -0.6030    0.2240 C   0  0  0  0  0  0  0  0  0  0  0  0
   -2.7610    0.7890   -0.1310 N   0  0  0  0  0  0  0  0  0  0  0  0
   -1.5280    1.5090   -0.0240 C   0  0  0  0  0  0  0  0  0  0  0  0
   -1.6760    2.7830    0.0820 N   0  0  0  0  0  0  0  0  0  0  0  0
   -0.5520    3.5480    0.1890 O   0  0  0  0  0  0  0  0  0  0  0  0
    0.7660    3.1340    0.2180 C   0  0  0  0  0  0  0  0  0  0  0  0
    0.9040    1.6760    0.0950 C   0  0  0  0  0  0  0  0  0  0  0  0
   -0.1740    0.9290   -0.0180 C   0  0  0  0  0  0  0  0  0  0  0  0
  1  2  1  0
  2  3  2  0
  2  4  1  0
  4  5  1  0
  5  6  1  0
  5 15  1  0
  6  7  1  0
  7  8  1  0
  8  9  1  0
  9 10  1  0
 10 11  2  0
 10 15  1  0
 11 12  1  0
 12 13  1  0
 13 14  1  0
 14 15  2  0
M  END
