
     RDKit          3D

 22 23  0  0  0  0  0  0  0  0999 V2000
    7.3830    1.0600   -1.4330 O   0  0  0  0  0  0  0  0  0  0  0  0
    6.1820    1.0730   -0.7290 C   0  0  0  0  0  0  0  0  0  0  0  0
    5.4710   -0.2630   -0.8000 C   0  0  1  0  0  0  0  0  0  0  0  0
    6.2640   -1.2670   -0.2620 O   0  0  0  0  0  0  0  0  0  0  0  0
    4.1650   -0.1080   -0.0520 C   0  0  0  0  0  0  0  0  0  0  0  0
    3.4080   -1.2720   -0.0750 O   0  0  0  0  0  0  0  0  0  0  0  0
    2.2360   -1.0330    0.6330 C   0  0  2  0  0  0  0  0  0  0  0  0
    2.2540   -1.9660    1.6990 O   0  0  0  0  0  0  0  0  0  0  0  0
    1.0040   -1.3660   -0.1690 C   0  0  0  0  0  0  0  0  0  0  0  0
   -0.2110   -1.0870    0.6540 C   0  0  1  0  0  0  0  0  0  0  0  0
   -0.1430   -1.8840    1.8010 O   0  0  0  0  0  0  0  0  0  0  0  0
   -0.4070    0.3500    1.0310 C   0  0  0  0  0  0  0  0  0  0  0  0
   -1.0790    1.0260   -0.1710 C   0  0  0  0  0  0  0  0  0  0  0  0
   -2.5380    0.5670   -0.1220 C   0  0  1  0  0  0  0  0  0  0  0  0
   -3.2420    1.5370    0.8330 C   0  0  0  0  0  0  0  0  0  0  0  0
   -4.5530    0.8850    1.2050 C   0  0  0  0  0  0  0  0  0  0  0  0
   -5.0860    0.0420    0.0870 C   0  0  0  0  0  0  0  0  0  0  0  0
   -4.6910    0.5280   -1.2790 C   0  0  1  0  0  0  0  0  0  0  0  0
   -5.4140    1.6930   -1.5930 O   0  0  0  0  0  0  0  0  0  0  0  0
   -3.2160    0.7030   -1.4530 C   0  0  0  0  0  0  0  0  0  0  0  0
   -2.5510   -0.7230    0.3710 O   0  0  0  0  0  0  0  0  0  0  0  0
   -1.4940   -1.4920   -0.0880 C   0  0  0  0  0  0  0  0  0  0  0  0
  1  2  1  0
  2  3  1  0
  3  4  1  1
  3  5  1  0
  5  6  1  0
  6  7  1  0
  7  8  1  1
  7  9  1  0
  9 10  1  0
 10 11  1  1
 10 12  1  0
 10 22  1  0
 12 13  1  0
 14 13  1  6
 14 15  1  0
 14 20  1  0
 14 21  1  0
 15 16  1  0
 16 17  1  0
 17 18  1  0
 18 19  1  1
 18 20  1  0
 21 22  1  0
M  END
