
     RDKit          3D

 22 23  0  0  0  0  0  0  0  0999 V2000
    5.7270   -0.0660    1.6680 C   0  0  0  0  0  0  0  0  0  0  0  0
    4.4030   -0.6750    1.2870 C   0  0  0  0  0  0  0  0  0  0  0  0
    3.3860    0.4770    1.1920 C   0  0  0  0  0  0  0  0  0  0  0  0
    2.0640    0.0010    0.8280 C   0  0  0  0  0  0  0  0  0  0  0  0
    1.3250    0.2750   -0.2220 C   0  0  0  0  0  0  0  0  0  0  0  0
    1.7830    1.1860   -1.2710 C   0  0  0  0  0  0  0  0  0  0  0  0
    3.0100    1.8340   -1.2530 O   0  0  0  0  0  0  0  0  0  0  0  0
    0.9820    1.4150   -2.3110 C   0  0  0  0  0  0  0  0  0  0  0  0
   -0.2560    0.8350   -2.4470 O   0  0  0  0  0  0  0  0  0  0  0  0
   -0.7530   -0.0270   -1.5090 C   0  0  0  0  0  0  0  0  0  0  0  0
   -0.0060   -0.3120   -0.4250 C   0  0  0  0  0  0  0  0  0  0  0  0
   -0.6330   -1.2290    0.5230 C   0  0  0  0  0  0  0  0  0  0  0  0
   -1.9410   -0.7920    0.7630 O   0  0  0  0  0  0  0  0  0  0  0  0
   -2.7670   -0.8010   -0.3190 C   0  0  1  0  0  0  0  0  0  0  0  0
   -3.6200   -2.0690   -0.2750 C   0  0  0  0  0  0  0  0  0  0  0  0
   -2.8090   -3.2050   -0.3030 O   0  0  0  0  0  0  0  0  0  0  0  0
   -3.7460    0.3670   -0.1830 C   0  0  1  0  0  0  0  0  0  0  0  0
   -4.5050    0.2470    0.9790 O   0  0  0  0  0  0  0  0  0  0  0  0
   -2.9990    1.6830   -0.0900 C   0  0  0  0  0  0  0  0  0  0  0  0
   -2.1810    1.6480    1.0490 O   0  0  0  0  0  0  0  0  0  0  0  0
   -2.0950   -0.6720   -1.6370 C   0  0  2  0  0  0  0  0  0  0  0  0
   -1.9150   -1.9310   -2.2440 O   0  0  0  0  0  0  0  0  0  0  0  0
  1  2  1  0
  2  3  1  0
  3  4  1  0
  4  5  2  3
  5  6  1  0
  5 11  1  0
  6  7  1  0
  6  8  2  0
  8  9  1  0
  9 10  1  0
 10 11  2  0
 10 21  1  0
 11 12  1  0
 12 13  1  0
 13 14  1  0
 14 15  1  6
 14 17  1  0
 14 21  1  0
 15 16  1  0
 17 18  1  1
 17 19  1  0
 19 20  1  0
 21 22  1  1
M  END
