
     RDKit          3D

 15 16  0  0  0  0  0  0  0  0999 V2000
   -2.3490   -0.9150    1.6230 C   0  0  0  0  0  0  0  0  0  0  0  0
   -2.0400    0.0420    0.7600 C   0  0  0  0  0  0  0  0  0  0  0  0
   -2.8760    0.1780   -0.4560 C   0  0  0  0  0  0  0  0  0  0  0  0
   -0.8800    0.9410    1.0300 C   0  0  0  0  0  0  0  0  0  0  0  0
    0.1170    0.8590   -0.0030 N   0  0  0  0  0  0  0  0  0  0  0  0
    0.2370    1.5780   -1.1340 C   0  0  0  0  0  0  0  0  0  0  0  0
   -0.5690    2.4830   -1.4610 O   0  0  0  0  0  0  0  0  0  0  0  0
    1.3350    1.1620   -1.8200 N   0  0  0  0  0  0  0  0  0  0  0  0
    1.9140    0.1730   -1.1160 C   0  0  0  0  0  0  0  0  0  0  0  0
    3.0420   -0.5790   -1.3710 C   0  0  0  0  0  0  0  0  0  0  0  0
    3.7410   -0.3980   -2.4240 O   0  0  0  0  0  0  0  0  0  0  0  0
    3.3640   -1.5090   -0.4530 N   0  0  0  0  0  0  0  0  0  0  0  0
    2.6460   -1.7140    0.6530 C   0  0  0  0  0  0  0  0  0  0  0  0
    1.5360   -0.9660    0.8940 N   0  0  0  0  0  0  0  0  0  0  0  0
    1.1540   -0.0170    0.0200 C   0  0  0  0  0  0  0  0  0  0  0  0
  1  2  2  0
  2  3  1  0
  2  4  1  0
  4  5  1  0
  5  6  1  0
  5 15  1  0
  6  7  2  0
  6  8  1  0
  8  9  1  0
  9 10  1  0
  9 15  2  0
 10 11  2  0
 10 12  1  0
 12 13  2  0
 13 14  1  0
 14 15  1  0
M  END
