
     RDKit          3D

 15 16  0  0  0  0  0  0  0  0999 V2000
   -0.1370   -3.6140    0.7690 O   0  0  0  0  0  0  0  0  0  0  0  0
   -0.1230   -2.8490    1.7750 C   0  0  0  0  0  0  0  0  0  0  0  0
   -0.1910   -1.4570    1.5270 N   0  0  0  0  0  0  0  0  0  0  0  0
   -0.2710   -0.9580    0.1950 C   0  0  2  0  0  0  0  0  0  0  0  0
    0.9270   -0.1340   -0.1420 C   0  0  0  0  0  0  0  0  0  0  0  0
    1.8900   -0.3660   -1.0210 C   0  0  0  0  0  0  0  0  0  0  0  0
    2.8840    0.7090   -1.0350 C   0  0  0  0  0  0  0  0  0  0  0  0
    2.3650    1.6450   -0.0100 C   0  0  0  0  0  0  0  0  0  0  0  0
    1.2480    1.1610    0.4980 C   0  0  0  0  0  0  0  0  0  0  0  0
   -1.4720   -0.1630   -0.0780 C   0  0  0  0  0  0  0  0  0  0  0  0
   -2.7590   -0.3850    0.2440 N   0  0  0  0  0  0  0  0  0  0  0  0
   -3.5250    0.5900   -0.2010 N   0  0  0  0  0  0  0  0  0  0  0  0
   -2.7380    1.4780   -0.8290 C   0  0  0  0  0  0  0  0  0  0  0  0
   -3.0830    2.5510   -1.3930 O   0  0  0  0  0  0  0  0  0  0  0  0
   -1.4840    1.0000   -0.7430 N   0  0  0  0  0  0  0  0  0  0  0  0
  1  2  2  0
  2  3  1  0
  4  3  1  1
  4  5  1  0
  4 10  1  0
  5  6  2  0
  5  9  1  0
  6  7  1  0
  7  8  1  0
  8  9  2  0
 10 11  2  0
 10 15  1  0
 11 12  1  0
 12 13  1  0
 13 14  2  0
 13 15  1  0
M  END
