
     RDKit          3D

 15 16  0  0  0  0  0  0  0  0999 V2000
    4.7340    0.5470   -0.2760 N   0  0  0  0  0  0  0  0  0  0  0  0
    3.3760    0.9550   -0.3890 C   0  0  0  0  0  0  0  0  0  0  0  0
    3.1740    2.1690   -0.6490 O   0  0  0  0  0  0  0  0  0  0  0  0
    2.2670    0.0030   -0.2110 C   0  0  0  0  0  0  0  0  0  0  0  0
    2.5690   -1.2140    0.0520 N   0  0  0  0  0  0  0  0  0  0  0  0
    1.5790   -2.1690    0.2330 N   0  0  0  0  0  0  0  0  0  0  0  0
    0.2470   -1.7650    0.1220 N   0  0  0  0  0  0  0  0  0  0  0  0
   -0.0990   -0.5570   -0.1400 C   0  0  0  0  0  0  0  0  0  0  0  0
   -1.5440   -0.2370   -0.2360 C   0  0  0  0  0  0  0  0  0  0  0  0
   -1.9250    0.9860   -0.5010 C   0  0  0  0  0  0  0  0  0  0  0  0
   -3.3480    1.3400   -0.6040 C   0  0  0  0  0  0  0  0  0  0  0  0
   -4.2250    0.2680   -0.3960 O   0  0  0  0  0  0  0  0  0  0  0  0
   -3.8320   -1.0290   -0.1150 C   0  0  0  0  0  0  0  0  0  0  0  0
   -2.5420   -1.2740   -0.0380 C   0  0  0  0  0  0  0  0  0  0  0  0
    0.8970    0.5120   -0.3450 C   0  0  0  0  0  0  0  0  0  0  0  0
  1  2  1  0
  2  3  2  0
  2  4  1  0
  4  5  2  0
  4 15  1  0
  5  6  1  0
  6  7  1  0
  7  8  2  0
  8  9  1  0
  8 15  1  0
  9 10  2  0
  9 14  1  0
 10 11  1  0
 11 12  1  0
 12 13  1  0
 13 14  2  0
M  END
