
     RDKit          3D

 15 16  0  0  0  0  0  0  0  0999 V2000
    4.0460   -0.3820    1.0710 N   0  0  0  0  0  0  0  0  0  0  0  0
    2.6320   -0.2550    1.0400 C   0  0  0  0  0  0  0  0  0  0  0  0
    1.9730    0.3850    1.9040 O   0  0  0  0  0  0  0  0  0  0  0  0
    1.8330   -0.9070   -0.0700 C   0  0  0  0  0  0  0  0  0  0  0  0
    1.2400    0.1150   -0.8840 N   0  0  0  0  0  0  0  0  0  0  0  0
    0.0580    0.6700   -0.7190 C   0  0  0  0  0  0  0  0  0  0  0  0
   -1.0350    0.4870    0.2440 C   0  0  1  0  0  0  0  0  0  0  0  0
   -2.3380    0.5450   -0.5980 C   0  0  0  0  0  0  0  0  0  0  0  0
   -3.3560    0.0810    0.3950 C   0  0  0  0  0  0  0  0  0  0  0  0
   -2.6330   -0.7550    1.4030 C   0  0  0  0  0  0  0  0  0  0  0  0
   -1.1770   -0.8400    0.8740 C   0  0  0  0  0  0  0  0  0  0  0  0
   -0.0480    1.5890   -1.7280 N   0  0  0  0  0  0  0  0  0  0  0  0
    1.0230    1.5730   -2.4530 N   0  0  0  0  0  0  0  0  0  0  0  0
    1.8580    0.6720   -1.9700 C   0  0  0  0  0  0  0  0  0  0  0  0
    2.9990    0.3250   -2.3530 O   0  0  0  0  0  0  0  0  0  0  0  0
  1  2  1  0
  2  3  2  0
  2  4  1  0
  4  5  1  0
  5  6  1  0
  5 14  1  0
  7  6  1  6
  6 12  2  0
  7  8  1  0
  7 11  1  0
  8  9  1  0
  9 10  1  0
 10 11  1  0
 12 13  1  0
 13 14  1  0
 14 15  2  0
M  END
