
     RDKit          3D

 18 18  0  0  0  0  0  0  0  0999 V2000
   -2.8170    2.7660   -1.5650 C   0  0  0  0  0  0  0  0  0  0  0  0
   -3.8550    1.8070   -1.0840 C   0  0  0  0  0  0  0  0  0  0  0  0
   -3.2860    0.3950   -0.8980 C   0  0  0  0  0  0  0  0  0  0  0  0
   -2.1790    0.4520    0.1270 C   0  0  0  0  0  0  0  0  0  0  0  0
   -1.5340   -0.8220    0.4250 C   0  0  0  0  0  0  0  0  0  0  0  0
   -2.0400   -1.8510    1.1950 C   0  0  0  0  0  0  0  0  0  0  0  0
   -3.3610   -1.9140    1.8750 C   0  0  0  0  0  0  0  0  0  0  0  0
   -1.1360   -2.7930    1.2290 O   0  0  0  0  0  0  0  0  0  0  0  0
   -0.0740   -2.4530    0.5350 C   0  0  0  0  0  0  0  0  0  0  0  0
    1.1460   -3.2910    0.3620 C   0  0  0  0  0  0  0  0  0  0  0  0
   -0.2610   -1.2050   -0.0060 C   0  0  0  0  0  0  0  0  0  0  0  0
    0.5980   -0.4060   -0.8680 C   0  0  0  0  0  0  0  0  0  0  0  0
    0.5030   -0.6210   -2.1270 O   0  0  0  0  0  0  0  0  0  0  0  0
    1.5530    0.6150   -0.4330 C   0  0  0  0  0  0  0  0  0  0  0  0
    2.9340    0.4320   -0.9880 C   0  0  2  0  0  0  0  0  0  0  0  0
    3.5240   -0.8950   -0.5470 C   0  0  0  0  0  0  0  0  0  0  0  0
    3.8380    1.5850   -0.5780 C   0  0  0  0  0  0  0  0  0  0  0  0
    3.9370    1.6700    0.9370 C   0  0  0  0  0  0  0  0  0  0  0  0
  1  2  1  0
  2  3  1  0
  3  4  1  0
  4  5  1  0
  5  6  2  0
  5 11  1  0
  6  7  1  0
  6  8  1  0
  8  9  1  0
  9 10  1  0
  9 11  2  0
 11 12  1  0
 12 13  2  0
 12 14  1  0
 14 15  1  0
 15 16  1  1
 15 17  1  0
 17 18  1  0
M  END
