
     RDKit          3D

 18 18  0  0  0  0  0  0  0  0999 V2000
   -3.4420    2.2590    1.8740 C   0  0  0  0  0  0  0  0  0  0  0  0
   -4.1120    1.3670    1.1880 C   0  0  0  0  0  0  0  0  0  0  0  0
   -3.4950    0.2140    0.5610 C   0  0  0  0  0  0  0  0  0  0  0  0
   -2.1330   -0.0090    0.6590 C   0  0  0  0  0  0  0  0  0  0  0  0
   -1.6070   -1.1200    0.0430 C   0  0  0  0  0  0  0  0  0  0  0  0
   -0.1300   -1.3450    0.1600 C   0  0  0  0  0  0  0  0  0  0  0  0
    0.4930   -0.6460   -0.9950 C   0  0  0  0  0  0  0  0  0  0  0  0
    2.0060   -0.8500   -0.9710 C   0  0  1  0  0  0  0  0  0  0  0  0
    2.5020   -0.1590   -2.1200 O   0  0  0  0  0  0  0  0  0  0  0  0
    2.5710   -0.2520    0.2640 C   0  0  0  0  0  0  0  0  0  0  0  0
    4.0410   -0.4120    0.3910 C   0  0  0  0  0  0  0  0  0  0  0  0
    4.8260    0.2130   -0.7070 C   0  0  0  0  0  0  0  0  0  0  0  0
    4.5460    1.5670   -0.7960 O   0  0  0  0  0  0  0  0  0  0  0  0
    4.8540    2.2650    0.3530 C   0  0  0  0  0  0  0  0  0  0  0  0
   -2.3890   -1.9910   -0.6490 C   0  0  0  0  0  0  0  0  0  0  0  0
   -3.7500   -1.7630   -0.7430 C   0  0  0  0  0  0  0  0  0  0  0  0
   -4.3140   -0.6700   -0.1460 C   0  0  0  0  0  0  0  0  0  0  0  0
   -5.7900   -0.3970   -0.2310 C   0  0  0  0  0  0  0  0  0  0  0  0
  1  2  2  0
  2  3  1  0
  3  4  2  0
  3 17  1  0
  4  5  1  0
  5  6  1  0
  5 15  2  0
  6  7  1  0
  7  8  1  0
  8  9  1  6
  8 10  1  0
 10 11  1  0
 11 12  1  0
 12 13  1  0
 13 14  1  0
 15 16  1  0
 16 17  2  0
 17 18  1  0
M  END
