
     RDKit          3D

 18 18  0  0  0  0  0  0  0  0999 V2000
    3.2800   -1.8660   -1.5150 C   0  0  0  0  0  0  0  0  0  0  0  0
    2.6000   -0.5460   -1.8100 C   0  0  0  0  0  0  0  0  0  0  0  0
    2.5760    0.2640   -0.5170 C   0  0  0  0  0  0  0  0  0  0  0  0
    1.8980    1.6140   -0.7440 C   0  0  2  0  0  0  0  0  0  0  0  0
    2.6970    2.3390   -1.7970 C   0  0  0  0  0  0  0  0  0  0  0  0
    1.8080    2.2420    0.4460 O   0  0  0  0  0  0  0  0  0  0  0  0
    0.5800    2.5390    0.9500 C   0  0  0  0  0  0  0  0  0  0  0  0
   -0.1820    1.2740    1.1320 C   0  0  0  0  0  0  0  0  0  0  0  0
    0.1150    0.5080    2.2550 C   0  0  0  0  0  0  0  0  0  0  0  0
   -0.5370   -0.6730    2.5120 C   0  0  0  0  0  0  0  0  0  0  0  0
   -0.2350   -1.5050    3.7040 C   0  0  0  0  0  0  0  0  0  0  0  0
   -1.5100   -1.0960    1.6200 C   0  0  0  0  0  0  0  0  0  0  0  0
   -2.2010   -2.2970    1.8440 O   0  0  0  0  0  0  0  0  0  0  0  0
   -1.8370   -0.3730    0.4980 C   0  0  0  0  0  0  0  0  0  0  0  0
   -2.8850   -0.8570   -0.4340 C   0  0  2  0  0  0  0  0  0  0  0  0
   -3.0470    0.1220   -1.5830 C   0  0  0  0  0  0  0  0  0  0  0  0
   -4.2160   -1.0210    0.2390 C   0  0  0  0  0  0  0  0  0  0  0  0
   -1.1420    0.8140    0.2940 C   0  0  0  0  0  0  0  0  0  0  0  0
  1  2  1  0
  2  3  1  0
  3  4  1  0
  4  5  1  6
  4  6  1  0
  6  7  1  0
  7  8  1  0
  8  9  2  0
  8 18  1  0
  9 10  1  0
 10 11  1  0
 10 12  2  0
 12 13  1  0
 12 14  1  0
 14 15  1  0
 14 18  2  0
 15 16  1  6
 15 17  1  0
M  END
