
     RDKit          3D

 18 17  0  0  0  0  0  0  0  0999 V2000
   -6.3530    1.4190   -0.7600 C   0  0  0  0  0  0  0  0  0  0  0  0
   -6.0820    0.9600    0.6560 C   0  0  0  0  0  0  0  0  0  0  0  0
   -5.9860   -0.5060    0.7670 C   0  0  0  0  0  0  0  0  0  0  0  0
   -5.0140   -1.2770    0.0010 C   0  0  0  0  0  0  0  0  0  0  0  0
   -3.5530   -1.1000    0.1490 C   0  0  0  0  0  0  0  0  0  0  0  0
   -2.9750    0.2130   -0.1970 C   0  0  0  0  0  0  0  0  0  0  0  0
   -1.4490    0.2750   -0.0820 C   0  0  0  0  0  0  0  0  0  0  0  0
   -1.0480   -0.0060    1.3190 C   0  0  0  0  0  0  0  0  0  0  0  0
    0.4610    0.0800    1.4950 C   0  0  0  0  0  0  0  0  0  0  0  0
    1.1450   -0.9220    0.6190 C   0  0  0  0  0  0  0  0  0  0  0  0
    2.6410   -0.8680    0.8040 C   0  0  0  0  0  0  0  0  0  0  0  0
    3.2020    0.4660    0.4590 C   0  0  0  0  0  0  0  0  0  0  0  0
    4.7200    0.4880    0.6570 C   0  0  0  0  0  0  0  0  0  0  0  0
    5.3990   -0.5320   -0.1990 C   0  0  0  0  0  0  0  0  0  0  0  0
    6.8910   -0.5250   -0.0150 C   0  0  0  0  0  0  0  0  0  0  0  0
    7.4290    0.7940   -0.3750 C   0  0  0  0  0  0  0  0  0  0  0  0
    7.3630    1.7240    0.4940 O   0  0  0  0  0  0  0  0  0  0  0  0
    7.9870    0.9940   -1.6300 O   0  0  0  0  0  0  0  0  0  0  0  0
  1  2  1  0
  2  3  1  0
  3  4  1  0
  4  5  1  0
  5  6  1  0
  6  7  1  0
  7  8  1  0
  8  9  1  0
  9 10  1  0
 10 11  1  0
 11 12  1  0
 12 13  1  0
 13 14  1  0
 14 15  1  0
 15 16  1  0
 16 17  2  0
 16 18  1  0
M  END
