
     RDKit          3D

 18 18  0  0  0  0  0  0  0  0999 V2000
    4.5780    0.5440    1.4810 C   0  0  0  0  0  0  0  0  0  0  0  0
    4.7860   -0.4590    0.4040 C   0  0  0  0  0  0  0  0  0  0  0  0
    3.9310   -0.3830   -0.7980 C   0  0  0  0  0  0  0  0  0  0  0  0
    2.4680   -0.6050   -0.6660 C   0  0  0  0  0  0  0  0  0  0  0  0
    1.7880    0.3560    0.2450 C   0  0  0  0  0  0  0  0  0  0  0  0
    0.3120    0.0710    0.2220 C   0  0  0  0  0  0  0  0  0  0  0  0
   -0.1280   -0.8200    1.2160 C   0  0  0  0  0  0  0  0  0  0  0  0
   -1.4290   -1.2540    1.2590 C   0  0  0  0  0  0  0  0  0  0  0  0
   -1.8910   -2.2080    2.3250 C   0  0  0  0  0  0  0  0  0  0  0  0
   -2.3010   -0.7940    0.3020 C   0  0  0  0  0  0  0  0  0  0  0  0
   -3.6410   -1.2080    0.3030 O   0  0  0  0  0  0  0  0  0  0  0  0
   -4.5400   -0.7290   -0.6900 C   0  0  0  0  0  0  0  0  0  0  0  0
   -5.9150   -1.3070   -0.4890 C   0  0  0  0  0  0  0  0  0  0  0  0
   -1.8820    0.0730   -0.6650 C   0  0  0  0  0  0  0  0  0  0  0  0
   -0.5600    0.5270   -0.7240 C   0  0  0  0  0  0  0  0  0  0  0  0
   -0.1550    1.5330   -1.7080 C   0  0  0  0  0  0  0  0  0  0  0  0
   -0.2820    2.9540   -1.3410 C   0  0  0  0  0  0  0  0  0  0  0  0
    0.3970    3.4100   -0.2390 O   0  0  0  0  0  0  0  0  0  0  0  0
  1  2  1  0
  2  3  1  0
  3  4  1  0
  4  5  1  0
  5  6  1  0
  6  7  2  0
  6 15  1  0
  7  8  1  0
  8  9  1  0
  8 10  2  0
 10 11  1  0
 10 14  1  0
 11 12  1  0
 12 13  1  0
 14 15  2  0
 15 16  1  0
 16 17  1  0
 17 18  1  0
M  END
