
     RDKit          3D

 18 18  0  0  0  0  0  0  0  0999 V2000
    5.2550    2.4750   -0.2390 C   0  0  0  0  0  0  0  0  0  0  0  0
    5.3230    1.1650   -0.2390 C   0  0  0  0  0  0  0  0  0  0  0  0
    4.1360    0.2690   -0.5060 C   0  0  0  0  0  0  0  0  0  0  0  0
    3.9330   -0.6130    0.6930 C   0  0  0  0  0  0  0  0  0  0  0  0
    2.7760   -1.5360    0.5110 C   0  0  0  0  0  0  0  0  0  0  0  0
    1.5010   -0.7540    0.3620 C   0  0  0  0  0  0  0  0  0  0  0  0
    0.3020   -1.6710    0.1850 C   0  0  0  0  0  0  0  0  0  0  0  0
   -0.9270   -0.8500    0.1120 C   0  0  0  0  0  0  0  0  0  0  0  0
   -0.9780    0.5250    0.1940 C   0  0  0  0  0  0  0  0  0  0  0  0
   -2.1380    1.2420    0.1780 C   0  0  0  0  0  0  0  0  0  0  0  0
   -2.0830    2.6830    0.3610 C   0  0  0  0  0  0  0  0  0  0  0  0
   -2.8150    3.4410   -0.5650 O   0  0  0  0  0  0  0  0  0  0  0  0
   -3.3530    0.5990    0.0760 C   0  0  0  0  0  0  0  0  0  0  0  0
   -4.5810    1.4340    0.0490 C   0  0  0  0  0  0  0  0  0  0  0  0
   -3.3330   -0.7810   -0.0090 C   0  0  0  0  0  0  0  0  0  0  0  0
   -2.1670   -1.5150    0.0080 C   0  0  0  0  0  0  0  0  0  0  0  0
   -2.1930   -2.8900   -0.0770 O   0  0  0  0  0  0  0  0  0  0  0  0
   -3.4580   -3.5450   -0.1880 C   0  0  0  0  0  0  0  0  0  0  0  0
  1  2  2  0
  2  3  1  0
  3  4  1  0
  4  5  1  0
  5  6  1  0
  6  7  1  0
  7  8  1  0
  8  9  2  0
  8 16  1  0
  9 10  1  0
 10 11  1  0
 10 13  2  0
 11 12  1  0
 13 14  1  0
 13 15  1  0
 15 16  2  0
 16 17  1  0
 17 18  1  0
M  END
