
     RDKit          3D

 18 18  0  0  0  0  0  0  0  0999 V2000
   -1.9810   -2.7300    0.7250 C   0  0  0  0  0  0  0  0  0  0  0  0
   -0.7270   -2.0860    1.2090 C   0  0  1  0  0  0  0  0  0  0  0  0
    0.1070   -3.1610    1.9290 C   0  0  0  0  0  0  0  0  0  0  0  0
    0.1410   -1.5400    0.1300 C   0  0  0  0  0  0  0  0  0  0  0  0
   -0.5810   -0.4540   -0.7200 C   0  0  2  0  0  0  0  0  0  0  0  0
    0.4380   -0.0510   -1.7160 C   0  0  0  0  0  0  0  0  0  0  0  0
    1.7000    0.4890   -1.1550 C   0  0  0  0  0  0  0  0  0  0  0  0
    2.0420    1.7850   -0.8900 C   0  0  0  0  0  0  0  0  0  0  0  0
    3.3330    1.7380   -0.3720 C   0  0  0  0  0  0  0  0  0  0  0  0
    3.7110    0.4160   -0.3490 C   0  0  0  0  0  0  0  0  0  0  0  0
    5.0350   -0.1340    0.1330 C   0  0  0  0  0  0  0  0  0  0  0  0
    5.0150   -1.5200   -0.0100 O   0  0  0  0  0  0  0  0  0  0  0  0
    2.7250   -0.2690   -0.8150 O   0  0  0  0  0  0  0  0  0  0  0  0
   -1.2460    0.5050    0.1420 C   0  0  0  0  0  0  0  0  0  0  0  0
   -2.0400    1.6240   -0.3580 C   0  0  1  0  0  0  0  0  0  0  0  0
   -1.4640    2.6830   -1.1970 C   0  0  0  0  0  0  0  0  0  0  0  0
   -3.2920    1.1080   -1.1190 C   0  0  0  0  0  0  0  0  0  0  0  0
   -2.6760    2.3510    0.8590 C   0  0  0  0  0  0  0  0  0  0  0  0
  2  1  1  6
  2  3  1  0
  2  4  1  0
  5  4  1  1
  5  6  1  0
  5 14  1  0
  6  7  1  0
  7  8  2  0
  7 13  1  0
  8  9  1  0
  9 10  2  0
 10 11  1  0
 10 13  1  0
 11 12  1  0
 14 15  1  0
 15 16  1  6
 15 17  1  0
 15 18  1  0
M  END
