
     RDKit          3D

 18 18  0  0  0  0  0  0  0  0999 V2000
    5.6050    1.0450   -1.0670 C   0  0  0  0  0  0  0  0  0  0  0  0
    4.8880    1.5790    0.1330 C   0  0  0  0  0  0  0  0  0  0  0  0
    3.7310    0.7520    0.5830 C   0  0  0  0  0  0  0  0  0  0  0  0
    2.6450    0.5930   -0.4540 C   0  0  0  0  0  0  0  0  0  0  0  0
    1.5670   -0.2630    0.1760 C   0  0  0  0  0  0  0  0  0  0  0  0
    0.4430   -0.4830   -0.7660 C   0  0  0  0  0  0  0  0  0  0  0  0
    0.5310    0.0400   -1.9060 O   0  0  0  0  0  0  0  0  0  0  0  0
   -0.7120   -1.2800   -0.3640 C   0  0  0  0  0  0  0  0  0  0  0  0
   -0.8140   -2.6400   -0.5410 C   0  0  0  0  0  0  0  0  0  0  0  0
    0.2020   -3.5620   -1.1620 C   0  0  0  0  0  0  0  0  0  0  0  0
   -1.9810   -2.9890   -0.0590 O   0  0  0  0  0  0  0  0  0  0  0  0
   -2.6500   -1.9710    0.4170 C   0  0  0  0  0  0  0  0  0  0  0  0
   -4.0230   -2.0270    1.0420 C   0  0  0  0  0  0  0  0  0  0  0  0
   -1.8760   -0.8420    0.2460 C   0  0  0  0  0  0  0  0  0  0  0  0
   -2.1880    0.5440    0.6190 C   0  0  0  0  0  0  0  0  0  0  0  0
   -2.5720    1.4120   -0.5300 C   0  0  2  0  0  0  0  0  0  0  0  0
   -2.8660    2.8150    0.0110 C   0  0  0  0  0  0  0  0  0  0  0  0
   -3.8820    0.9470   -1.1770 C   0  0  0  0  0  0  0  0  0  0  0  0
  1  2  1  0
  2  3  1  0
  3  4  1  0
  4  5  1  0
  5  6  1  0
  6  7  2  0
  6  8  1  0
  8  9  2  0
  8 14  1  0
  9 10  1  0
  9 11  1  0
 11 12  1  0
 12 13  1  0
 12 14  2  0
 14 15  1  0
 15 16  1  0
 16 17  1  1
 16 18  1  0
M  END
