
     RDKit          3D

 18 18  0  0  0  0  0  0  0  0999 V2000
   -1.9500    2.7790   -0.0770 C   0  0  0  0  0  0  0  0  0  0  0  0
   -2.9380    1.7130   -0.3350 C   0  0  0  0  0  0  0  0  0  0  0  0
   -2.3520    0.2790   -0.2740 C   0  0  2  0  0  0  0  0  0  0  0  0
   -3.5030   -0.5900   -0.5530 C   0  0  0  0  0  0  0  0  0  0  0  0
   -3.3930   -2.0460   -0.5970 C   0  0  0  0  0  0  0  0  0  0  0  0
   -1.8340    0.1920    1.0970 C   0  0  0  0  0  0  0  0  0  0  0  0
   -1.0710   -0.9120    1.7210 C   0  0  0  0  0  0  0  0  0  0  0  0
    0.4290   -0.8390    1.6550 C   0  0  0  0  0  0  0  0  0  0  0  0
    1.2280   -1.5060    0.6020 C   0  0  0  0  0  0  0  0  0  0  0  0
    1.1270   -0.8500   -0.8120 C   0  0  2  0  0  0  0  0  0  0  0  0
    1.3640   -1.8460   -1.7640 O   0  0  0  0  0  0  0  0  0  0  0  0
    2.1360    0.2520   -0.9570 C   0  0  0  0  0  0  0  0  0  0  0  0
    3.5590   -0.1630   -0.8110 C   0  0  0  0  0  0  0  0  0  0  0  0
    4.4540    1.0410   -0.9860 C   0  0  0  0  0  0  0  0  0  0  0  0
    5.9370    0.9080   -0.8880 C   0  0  0  0  0  0  0  0  0  0  0  0
    3.9740    2.1370   -1.2110 O   0  0  0  0  0  0  0  0  0  0  0  0
   -0.2100   -0.3820   -0.7910 C   0  0  0  0  0  0  0  0  0  0  0  0
   -1.2910    0.2700   -1.4120 C   0  0  0  0  0  0  0  0  0  0  0  0
  1  2  1  0
  3  2  1  1
  3  4  1  0
  3  6  1  0
  3 18  1  0
  4  5  1  0
  6  7  1  0
  7  8  1  0
  8  9  1  0
  9 10  1  0
 10 11  1  6
 10 12  1  0
 10 17  1  0
 12 13  1  0
 13 14  1  0
 14 15  1  0
 14 16  2  0
 17 18  1  0
M  END
