
     RDKit          3D

 21 24  0  0  0  0  0  0  0  0999 V2000
   -3.5640   -0.1350    0.6780 C   0  0  0  0  0  0  0  0  0  0  0  0
   -2.6400    0.9340    0.2080 C   0  0  2  0  0  0  0  0  0  0  0  0
   -2.7860    1.1200   -1.1110 O   0  0  0  0  0  0  0  0  0  0  0  0
   -1.9260    0.7120   -2.0240 C   0  0  0  0  0  0  0  0  0  0  0  0
   -0.5140    0.3940   -1.5990 C   0  0  1  0  0  0  0  0  0  0  0  0
    0.3600    1.5360   -1.7930 C   0  0  0  0  0  0  0  0  0  0  0  0
    1.3750    1.8340   -0.7930 C   0  0  0  0  0  0  0  0  0  0  0  0
    1.8930    3.0610   -0.7110 C   0  0  0  0  0  0  0  0  0  0  0  0
    2.8890    3.1370    0.3550 C   0  0  0  0  0  0  0  0  0  0  0  0
    2.9060    1.7850    0.9130 C   0  0  0  0  0  0  0  0  0  0  0  0
    2.0320    1.0520    0.2420 C   0  0  0  0  0  0  0  0  0  0  0  0
    1.8340   -0.3530    0.5790 C   0  0  0  0  0  0  0  0  0  0  0  0
    0.5950   -1.0100    0.1680 C   0  0  1  0  0  0  0  0  0  0  0  0
    0.9510   -1.9290   -1.0180 C   0  0  0  0  0  0  0  0  0  0  0  0
    1.5930   -3.1160   -0.2930 C   0  0  0  0  0  0  0  0  0  0  0  0
    0.5550   -3.3840    0.7560 C   0  0  0  0  0  0  0  0  0  0  0  0
    0.1880   -2.0210    1.2490 C   0  0  0  0  0  0  0  0  0  0  0  0
   -0.5880   -0.2390   -0.2300 C   0  0  2  0  0  0  0  0  0  0  0  0
   -1.5950   -1.2460   -0.3770 O   0  0  0  0  0  0  0  0  0  0  0  0
   -1.1870    0.7550    0.6640 C   0  0  2  0  0  0  0  0  0  0  0  0
   -1.1000    0.5840    2.1260 C   0  0  0  0  0  0  0  0  0  0  0  0
  2  1  1  6
  2  3  1  0
  2 20  1  0
  3  4  1  0
  5  4  1  1
  5  6  1  0
  5 18  1  0
  6  7  1  0
  7  8  2  0
  7 11  1  0
  8  9  1  0
  9 10  1  0
 10 11  2  0
 11 12  1  0
 13 12  1  1
 13 14  1  0
 13 17  1  0
 13 18  1  0
 14 15  1  0
 15 16  1  0
 16 17  1  0
 18 19  1  6
 18 20  1  0
 20 21  1  1
M  END
