
     RDKit          3D

 26 27  0  0  0  0  0  0  0  0999 V2000
   -4.1340    0.0350   -1.1690 C   0  0  0  0  0  0  0  0  0  0  0  0
   -4.4580   -0.2580    0.2540 C   0  0  1  0  0  0  0  0  0  0  0  0
   -3.3370   -1.3880    1.0270 S   0  0  0  0  0  0  0  0  0  0  0  0
   -1.6400   -0.7090    1.2780 C   0  0  0  0  0  0  0  0  0  0  0  0
   -1.0270   -0.5440   -0.0290 C   0  0  0  0  0  0  0  0  0  0  0  0
    0.2450   -0.0640   -0.3470 N   0  0  0  0  0  0  0  0  0  0  0  0
    0.6880    1.3230   -0.2710 C   0  0  0  0  0  0  0  0  0  0  0  0
   -0.2010    2.1990   -0.2630 O   0  0  0  0  0  0  0  0  0  0  0  0
    2.1350    1.5010   -0.2120 C   0  0  2  0  0  0  0  0  0  0  0  0
    2.5450    2.8250    0.1780 N   0  0  0  0  0  0  0  0  0  0  0  0
    3.3080    3.1430    1.3230 C   0  0  0  0  0  0  0  0  0  0  0  0
    3.6990    4.4490    1.6860 N   0  0  0  0  0  0  0  0  0  0  0  0
    3.6660    2.2020    2.0720 O   0  0  0  0  0  0  0  0  0  0  0  0
    2.7530    1.0280   -1.4810 C   0  0  0  0  0  0  0  0  0  0  0  0
    2.0940   -0.1820   -2.0770 C   0  0  1  0  0  0  0  0  0  0  0  0
    2.9340   -1.0300   -2.7460 O   0  0  0  0  0  0  0  0  0  0  0  0
    3.0180   -2.3600   -2.5350 C   0  0  0  0  0  0  0  0  0  0  0  0
    3.8260   -3.1000   -3.1680 O   0  0  0  0  0  0  0  0  0  0  0  0
    2.1690   -2.9620   -1.5640 N   0  0  0  0  0  0  0  0  0  0  0  0
    1.2360   -2.1470   -0.8260 C   0  0  0  0  0  0  0  0  0  0  0  0
    0.4780   -2.6540    0.3140 C   0  0  0  0  0  0  0  0  0  0  0  0
    1.5040   -3.5050    1.0320 N   0  0  0  0  0  0  0  0  0  0  0  0
    1.2000   -0.8730   -1.0780 C   0  0  0  0  0  0  0  0  0  0  0  0
   -4.6740    0.9950    1.0290 C   0  0  0  0  0  0  0  0  0  0  0  0
   -5.7240    1.8490    0.6070 N   0  0  0  0  0  0  0  0  0  0  0  0
   -3.9880    1.3250    2.0150 O   0  0  0  0  0  0  0  0  0  0  0  0
  2  1  1  6
  2  3  1  0
  2 24  1  0
  3  4  1  0
  4  5  1  0
  5  6  1  0
  6  7  1  0
  6 23  1  0
  7  8  2  0
  7  9  1  0
  9 10  1  6
  9 14  1  0
 10 11  1  0
 11 12  1  0
 11 13  2  0
 15 14  1  1
 15 16  1  0
 15 23  1  0
 16 17  1  0
 17 18  2  0
 17 19  1  0
 19 20  1  0
 20 21  1  0
 20 23  2  0
 21 22  1  0
 24 25  1  0
 24 26  2  0
M  CHG  1  22   1
M  END
