
     RDKit          3D

 26 27  0  0  0  0  0  0  0  0999 V2000
   -7.2260    0.2420    1.6110 C   0  0  0  0  0  0  0  0  0  0  0  0
   -6.6230    1.4770    1.6750 O   0  0  0  0  0  0  0  0  0  0  0  0
   -5.4690    1.5570    2.3920 C   0  0  0  0  0  0  0  0  0  0  0  0
   -4.3020    0.8310    1.8810 C   0  0  0  0  0  0  0  0  0  0  0  0
   -3.2970    0.7650    2.6650 O   0  0  0  0  0  0  0  0  0  0  0  0
   -4.1580    0.2050    0.6330 N   0  0  0  0  0  0  0  0  0  0  0  0
   -2.9620   -0.4810    0.2570 C   0  0  0  0  0  0  0  0  0  0  0  0
   -2.7650   -1.0850   -0.8890 C   0  0  0  0  0  0  0  0  0  0  0  0
   -3.7630   -1.1410   -1.9700 N   0  0  0  0  0  0  0  0  0  0  0  0
   -1.4690   -1.7540   -1.0320 C   0  0  0  0  0  0  0  0  0  0  0  0
   -0.4190   -0.9600   -0.2900 C   0  0  2  0  0  0  0  0  0  0  0  0
   -0.2030    0.2990   -0.9460 N   0  0  0  0  0  0  0  0  0  0  0  0
    1.0040    0.9920   -0.6920 C   0  0  0  0  0  0  0  0  0  0  0  0
    1.0600    2.2320   -0.9430 O   0  0  0  0  0  0  0  0  0  0  0  0
    2.1870    0.2880   -0.1430 C   0  0  2  0  0  0  0  0  0  0  0  0
    2.3410    0.5920    1.3380 C   0  0  0  0  0  0  0  0  0  0  0  0
    3.3860    0.7930   -0.9230 C   0  0  0  0  0  0  0  0  0  0  0  0
    4.6510    0.1830   -0.4920 C   0  0  0  0  0  0  0  0  0  0  0  0
    4.6490   -0.6570    0.4520 O   0  0  0  0  0  0  0  0  0  0  0  0
    5.8710    0.5240   -1.1170 N   0  0  0  0  0  0  0  0  0  0  0  0
    7.0880   -0.1340   -0.6200 C   0  0  0  0  0  0  0  0  0  0  0  0
    8.2630    0.2880   -1.3280 N   0  0  0  0  0  0  0  0  0  0  0  0
    2.0510   -1.1530   -0.2620 N   0  0  0  0  0  0  0  0  0  0  0  0
    0.7750   -1.7120    0.0290 C   0  0  0  0  0  0  0  0  0  0  0  0
    0.7110   -2.8510    0.5600 O   0  0  0  0  0  0  0  0  0  0  0  0
   -1.4570   -0.6500    1.2140 S   0  0  0  0  0  0  0  0  0  0  0  0
  1  2  1  0
  2  3  1  0
  3  4  1  0
  4  5  2  0
  4  6  1  0
  6  7  1  0
  7  8  2  0
  7 26  1  0
  8  9  1  0
  8 10  1  0
 11 10  1  6
 11 12  1  0
 11 24  1  0
 11 26  1  0
 12 13  1  0
 13 14  2  0
 13 15  1  0
 15 16  1  1
 15 17  1  0
 15 23  1  0
 17 18  1  0
 18 19  2  0
 18 20  1  0
 20 21  1  0
 21 22  1  0
 23 24  1  0
 24 25  2  0
M  CHG  1   9   1
M  END
