
     RDKit          3D

 26 28  0  0  0  0  0  0  0  0999 V2000
   -7.3480    1.4100    0.4550 N   0  0  0  0  0  0  0  0  0  0  0  0
   -6.0410    1.0140    0.7980 C   0  0  0  0  0  0  0  0  0  0  0  0
   -5.5640    1.0510    2.0500 N   0  0  0  0  0  0  0  0  0  0  0  0
   -4.3190    0.6790    2.3950 C   0  0  0  0  0  0  0  0  0  0  0  0
   -3.5150    0.2450    1.4100 N   0  0  0  0  0  0  0  0  0  0  0  0
   -3.8820    0.1630    0.1150 C   0  0  0  0  0  0  0  0  0  0  0  0
   -5.1760    0.5590   -0.1930 C   0  0  0  0  0  0  0  0  0  0  0  0
   -5.3170    0.3960   -1.5090 N   0  0  0  0  0  0  0  0  0  0  0  0
   -4.1470   -0.0850   -2.0010 C   0  0  0  0  0  0  0  0  0  0  0  0
   -3.2590   -0.2320   -1.0160 N   0  0  0  0  0  0  0  0  0  0  0  0
   -1.8950   -0.7110   -1.0830 C   0  0  2  0  0  0  0  0  0  0  0  0
   -1.1210   -0.1630   -0.0590 O   0  0  0  0  0  0  0  0  0  0  0  0
    0.1250    0.0030   -0.6090 C   0  0  2  0  0  0  0  0  0  0  0  0
    1.1200    0.7230    0.2190 C   0  0  0  0  0  0  0  0  0  0  0  0
    2.6990    0.8740   -0.6100 S   0  0  0  0  0  0  0  0  0  0  0  0
    3.5570   -0.6440   -0.8880 C   0  0  0  0  0  0  0  0  0  0  0  0
    4.0480   -1.3780    0.3160 C   0  0  0  0  0  0  0  0  0  0  0  0
    5.0520   -0.6950    1.1790 C   0  0  2  0  0  0  0  0  0  0  0  0
    5.3560   -1.6450    2.2580 N   0  0  0  0  0  0  0  0  0  0  0  0
    4.6310    0.5530    1.8240 C   0  0  0  0  0  0  0  0  0  0  0  0
    4.3500    0.5470    3.0750 O   0  0  0  0  0  0  0  0  0  0  0  0
    4.5050    1.7870    1.1990 O   0  0  0  0  0  0  0  0  0  0  0  0
   -0.2340    0.7180   -1.9110 C   0  0  1  0  0  0  0  0  0  0  0  0
    0.8270    0.8400   -2.7690 O   0  0  0  0  0  0  0  0  0  0  0  0
   -1.2830   -0.2970   -2.3990 C   0  0  1  0  0  0  0  0  0  0  0  0
   -0.5340   -1.3680   -2.9000 O   0  0  0  0  0  0  0  0  0  0  0  0
  1  2  1  0
  2  3  2  0
  2  7  1  0
  3  4  1  0
  4  5  2  0
  5  6  1  0
  6  7  2  0
  6 10  1  0
  7  8  1  0
  8  9  2  0
  9 10  1  0
 11 10  1  6
 11 12  1  0
 11 25  1  0
 12 13  1  0
 13 14  1  1
 13 23  1  0
 14 15  1  0
 15 16  1  0
 16 17  1  0
 17 18  1  0
 18 19  1  1
 18 20  1  0
 20 21  2  0
 20 22  1  0
 23 24  1  6
 23 25  1  0
 25 26  1  1
M  CHG  1  19   1
M  END
