
     RDKit          3D

 26 27  0  0  0  0  0  0  0  0999 V2000
   -5.0750   -1.4180   -0.5670 C   0  0  0  0  0  0  0  0  0  0  0  0
   -4.2330   -0.1500   -0.6970 C   0  0  1  0  0  0  0  0  0  0  0  0
   -5.1000    0.8830   -1.3210 C   0  0  0  0  0  0  0  0  0  0  0  0
   -6.2840    1.3430   -0.6940 N   0  0  0  0  0  0  0  0  0  0  0  0
   -4.7970    1.3790   -2.4380 O   0  0  0  0  0  0  0  0  0  0  0  0
   -3.7610    0.3010    0.6570 C   0  0  0  0  0  0  0  0  0  0  0  0
   -2.3840   -0.2890    0.9900 C   0  0  0  0  0  0  0  0  0  0  0  0
   -1.4020    0.3430    0.0490 C   0  0  1  0  0  0  0  0  0  0  0  0
   -0.1840   -0.3620   -0.1130 N   0  0  0  0  0  0  0  0  0  0  0  0
    1.1120    0.2040    0.2100 C   0  0  0  0  0  0  0  0  0  0  0  0
    1.0450    1.3570    0.6360 O   0  0  0  0  0  0  0  0  0  0  0  0
    2.2810   -0.5290    0.0340 N   0  0  0  0  0  0  0  0  0  0  0  0
    3.6380   -0.0270    0.2900 C   0  0  0  0  0  0  0  0  0  0  0  0
    3.8320    1.2380    0.2870 C   0  0  0  0  0  0  0  0  0  0  0  0
    4.8560    2.1830    0.4660 C   0  0  0  0  0  0  0  0  0  0  0  0
    4.4530    3.6170    0.3450 N   0  0  0  0  0  0  0  0  0  0  0  0
    6.0600    2.1210    0.7080 O   0  0  0  0  0  0  0  0  0  0  0  0
    4.6110   -1.1180    0.5600 C   0  0  0  0  0  0  0  0  0  0  0  0
    4.2240   -2.3840    0.5180 C   0  0  0  0  0  0  0  0  0  0  0  0
    5.6280   -3.4030    0.8840 S   0  0  0  0  0  0  0  0  0  0  0  0
    6.0140   -4.2850   -0.2860 O   0  0  0  0  0  0  0  0  0  0  0  0
    6.7430   -2.0740    1.1320 C   0  0  0  0  0  0  0  0  0  0  0  0
    7.9400   -2.1760    1.4490 O   0  0  0  0  0  0  0  0  0  0  0  0
    5.9440   -0.9110    0.8830 N   0  0  0  0  0  0  0  0  0  0  0  0
   -2.0560    0.5300   -1.2860 C   0  0  0  0  0  0  0  0  0  0  0  0
   -3.1080   -0.4250   -1.5460 N   0  0  0  0  0  0  0  0  0  0  0  0
  2  1  1  1
  2  3  1  0
  2  6  1  0
  2 26  1  0
  3  4  1  0
  3  5  2  0
  6  7  1  0
  7  8  1  0
  8  9  1  6
  8 25  1  0
  9 10  1  0
 10 11  2  0
 10 12  1  0
 12 13  1  0
 13 14  2  3
 13 18  1  0
 14 15  1  0
 15 16  1  0
 15 17  2  0
 18 19  2  0
 18 24  1  0
 20 19  1  6
 20 21  2  0
 20 22  1  0
 22 23  2  0
 22 24  1  0
 25 26  1  0
M  CHG  1  26   1
M  END
