
     RDKit          3D

 26 28  0  0  0  0  0  0  0  0999 V2000
    0.2150   -0.2720    1.7370 C   0  0  0  0  0  0  0  0  0  0  0  0
   -0.1100   -0.8280    0.3950 C   0  0  2  0  0  0  0  0  0  0  0  0
   -1.3800   -1.5180    0.2080 C   0  0  0  0  0  0  0  0  0  0  0  0
   -2.7020   -0.9770    0.3690 C   0  0  1  0  0  0  0  0  0  0  0  0
   -3.1860   -0.4190    1.6460 C   0  0  0  0  0  0  0  0  0  0  0  0
   -2.5370    0.6520    2.1790 O   0  0  0  0  0  0  0  0  0  0  0  0
   -3.1860   -0.0720   -0.7630 C   0  0  0  0  0  0  0  0  0  0  0  0
   -4.4920    0.3450   -0.4080 O   0  0  0  0  0  0  0  0  0  0  0  0
   -5.2550    1.1970   -1.2230 C   0  0  0  0  0  0  0  0  0  0  0  0
   -4.9950    1.1270   -2.4970 N   0  0  0  0  0  0  0  0  0  0  0  0
   -6.2350    2.0670   -0.7010 N   0  0  0  0  0  0  0  0  0  0  0  0
    0.8970   -1.8860    0.1240 N   0  0  0  0  0  0  0  0  0  0  0  0
    2.1340   -1.4560    0.5910 N   0  0  0  0  0  0  0  0  0  0  0  0
    2.6410   -0.2260   -0.0290 C   0  0  0  0  0  0  0  0  0  0  0  0
    1.7090    0.5150   -0.5960 C   0  0  0  0  0  0  0  0  0  0  0  0
    2.5890    1.8840   -1.2320 S   0  0  0  0  0  0  0  0  0  0  0  0
    4.2190    1.3660   -0.6790 C   0  0  0  0  0  0  0  0  0  0  0  0
    5.4920    1.9150   -0.7860 C   0  0  0  0  0  0  0  0  0  0  0  0
    5.6100    3.0160   -1.3910 O   0  0  0  0  0  0  0  0  0  0  0  0
    6.5390    1.2640   -0.2500 N   0  0  0  0  0  0  0  0  0  0  0  0
    6.2860    0.1060    0.3660 C   0  0  0  0  0  0  0  0  0  0  0  0
    7.2340   -0.5680    0.9000 O   0  0  0  0  0  0  0  0  0  0  0  0
    5.0840   -0.4170    0.4700 N   0  0  0  0  0  0  0  0  0  0  0  0
    3.9380    0.1690   -0.0460 C   0  0  0  0  0  0  0  0  0  0  0  0
    0.2200    0.2030   -0.6590 C   0  0  1  0  0  0  0  0  0  0  0  0
   -0.0050   -0.2430   -1.9440 O   0  0  0  0  0  0  0  0  0  0  0  0
  2  1  1  1
  2  3  1  0
  2 12  1  0
  2 25  1  0
  4  3  1  1
  4  5  1  0
  4  7  1  0
  5  6  1  0
  7  8  1  0
  8  9  1  0
  9 10  2  0
  9 11  1  0
 12 13  1  0
 13 14  1  0
 14 15  2  0
 14 24  1  0
 15 16  1  0
 15 25  1  0
 16 17  1  0
 17 18  1  0
 17 24  2  0
 18 19  2  0
 18 20  1  0
 20 21  1  0
 21 22  2  0
 21 23  1  0
 23 24  1  0
 25 26  1  6
M  CHG  1  12   1
M  END
