
     RDKit          3D

 26 28  0  0  0  0  0  0  0  0999 V2000
   -3.6190    2.4740   -0.8950 C   0  0  0  0  0  0  0  0  0  0  0  0
   -4.3570    1.2920   -0.3160 C   0  0  1  0  0  0  0  0  0  0  0  0
   -4.7860    1.5400    1.0900 C   0  0  0  0  0  0  0  0  0  0  0  0
   -3.8730    1.6800    2.1390 N   0  0  0  0  0  0  0  0  0  0  0  0
   -6.0220    1.6300    1.3640 O   0  0  0  0  0  0  0  0  0  0  0  0
   -5.6140    1.1870   -1.0920 N   0  0  0  0  0  0  0  0  0  0  0  0
   -6.1730   -0.0940   -1.2810 C   0  0  0  0  0  0  0  0  0  0  0  0
   -7.4200   -0.2130   -1.2900 O   0  0  0  0  0  0  0  0  0  0  0  0
   -5.2240   -1.2390   -1.4610 C   0  0  0  0  0  0  0  0  0  0  0  0
   -3.9660   -0.6240   -1.6580 O   0  0  0  0  0  0  0  0  0  0  0  0
   -3.6540   -0.0100   -0.4200 C   0  0  1  0  0  0  0  0  0  0  0  0
   -2.1930    0.0110   -0.2230 C   0  0  0  0  0  0  0  0  0  0  0  0
   -1.2780    0.8930    0.2650 C   0  0  0  0  0  0  0  0  0  0  0  0
    0.0250    0.5350    0.2700 C   0  0  0  0  0  0  0  0  0  0  0  0
    0.3940   -0.6520   -0.1920 C   0  0  0  0  0  0  0  0  0  0  0  0
    1.6750   -1.2840   -0.3070 N   0  0  0  0  0  0  0  0  0  0  0  0
    2.8890   -0.7190    0.0820 C   0  0  0  0  0  0  0  0  0  0  0  0
    2.9190    0.4130    0.5700 O   0  0  0  0  0  0  0  0  0  0  0  0
    4.1250   -1.4130   -0.0650 N   0  0  0  0  0  0  0  0  0  0  0  0
    5.3720   -0.8860    0.3120 C   0  0  1  0  0  0  0  0  0  0  0  0
    6.1420   -1.6640    1.3390 C   0  0  0  0  0  0  0  0  0  0  0  0
    7.4170   -0.9390    1.3100 N   0  0  0  0  0  0  0  0  0  0  0  0
    7.6110   -0.8040   -0.1120 C   0  0  0  0  0  0  0  0  0  0  0  0
    8.7330   -0.7340   -0.6780 O   0  0  0  0  0  0  0  0  0  0  0  0
    6.3380   -0.7640   -0.7560 N   0  0  0  0  0  0  0  0  0  0  0  0
   -1.1350   -1.3820   -0.6900 S   0  0  0  0  0  0  0  0  0  0  0  0
  2  1  1  6
  2  3  1  0
  2  6  1  0
  2 11  1  0
  3  4  1  0
  3  5  2  0
  6  7  1  0
  7  8  2  0
  7  9  1  0
  9 10  1  0
 10 11  1  0
 11 12  1  6
 12 13  2  0
 12 26  1  0
 13 14  1  0
 14 15  2  0
 15 16  1  0
 15 26  1  0
 16 17  1  0
 17 18  2  0
 17 19  1  0
 20 19  1  6
 20 21  1  0
 20 25  1  0
 21 22  1  0
 22 23  1  0
 23 24  2  0
 23 25  1  0
M  CHG  1  22   1
M  END
