
     RDKit          3D

 26 27  0  0  0  0  0  0  0  0999 V2000
    7.6030    1.6640    1.1860 N   0  0  0  0  0  0  0  0  0  0  0  0
    6.2120    1.3840    1.2160 C   0  0  0  0  0  0  0  0  0  0  0  0
    5.8490    0.1920    1.2060 O   0  0  0  0  0  0  0  0  0  0  0  0
    5.2170    2.4890    1.2580 C   0  0  0  0  0  0  0  0  0  0  0  0
    3.8900    1.9220    1.2760 N   0  0  0  0  0  0  0  0  0  0  0  0
    3.4760    1.1460    0.2530 C   0  0  0  0  0  0  0  0  0  0  0  0
    4.2870    0.9150   -0.7630 O   0  0  0  0  0  0  0  0  0  0  0  0
    2.3320    0.5190    0.0440 N   0  0  0  0  0  0  0  0  0  0  0  0
    1.1680   -0.0870   -0.1120 C   0  0  0  0  0  0  0  0  0  0  0  0
    1.1240   -0.7700   -1.2370 O   0  0  0  0  0  0  0  0  0  0  0  0
    0.0260   -0.1450    0.6380 N   0  0  0  0  0  0  0  0  0  0  0  0
   -1.0980   -0.8910    0.1970 C   0  0  0  0  0  0  0  0  0  0  0  0
   -2.2300   -0.3850   -0.1440 C   0  0  0  0  0  0  0  0  0  0  0  0
   -2.7580    0.9340   -0.2180 C   0  0  0  0  0  0  0  0  0  0  0  0
   -4.0610    1.1050   -0.6190 C   0  0  0  0  0  0  0  0  0  0  0  0
   -4.5580    2.4710   -0.6770 C   0  0  0  0  0  0  0  0  0  0  0  0
   -3.8100    3.4160   -1.5370 C   0  0  0  0  0  0  0  0  0  0  0  0
   -2.4100    3.4570   -1.3540 N   0  0  0  0  0  0  0  0  0  0  0  0
   -2.0070    2.4760    0.0860 S   0  0  0  0  0  0  0  0  0  0  0  0
   -0.5420    2.5150    0.3150 O   0  0  0  0  0  0  0  0  0  0  0  0
   -0.8260   -2.3570    0.1800 C   0  0  0  0  0  0  0  0  0  0  0  0
    0.3250   -2.7890    0.5420 O   0  0  0  0  0  0  0  0  0  0  0  0
   -1.7640   -3.3220   -0.2140 N   0  0  0  0  0  0  0  0  0  0  0  0
   -1.3810   -4.7340   -0.1840 C   0  0  1  0  0  0  0  0  0  0  0  0
   -2.4080   -5.7750    0.0670 C   0  0  0  0  0  0  0  0  0  0  0  0
   -1.9610   -5.5430   -1.3380 C   0  0  0  0  0  0  0  0  0  0  0  0
  1  2  1  0
  2  3  2  0
  2  4  1  0
  4  5  1  0
  5  6  1  0
  6  7  2  0
  6  8  1  0
  8  9  1  0
  9 10  2  0
  9 11  1  0
 11 12  1  0
 12 13  2  3
 12 21  1  0
 13 14  1  0
 14 15  2  0
 14 19  1  0
 15 16  1  0
 16 17  1  0
 17 18  1  0
 19 18  1  6
 19 20  2  0
 21 22  2  0
 21 23  1  0
 24 23  1  6
 24 25  1  0
 24 26  1  0
 25 26  1  0
M  CHG  1  18   1
M  END
