
     RDKit          3D

 39 43  0  0  0  0  0  0  0  0999 V2000
   -2.6800    5.1690    1.0650 C   0  0  0  0  0  0  0  0  0  0  0  0
   -2.0390    4.0280    1.6610 O   0  0  0  0  0  0  0  0  0  0  0  0
   -1.8810    2.8500    0.9400 C   0  0  0  0  0  0  0  0  0  0  0  0
   -2.3070    2.8170   -0.2330 O   0  0  0  0  0  0  0  0  0  0  0  0
   -1.2300    1.6480    1.5010 C   0  0  2  0  0  0  0  0  0  0  0  0
    0.1950    1.8850    1.7050 C   0  0  0  0  0  0  0  0  0  0  0  0
    1.1710    1.1870    0.8220 C   0  0  0  0  0  0  0  0  0  0  0  0
    0.6710    0.1560   -0.0160 N   0  0  0  0  0  0  0  0  0  0  0  0
    1.4740   -0.8730   -0.5290 C   0  0  0  0  0  0  0  0  0  0  0  0
    0.7130   -1.8090   -1.1210 O   0  0  0  0  0  0  0  0  0  0  0  0
    2.8380   -1.1890   -0.5880 C   0  0  0  0  0  0  0  0  0  0  0  0
    3.9900   -0.6620   -0.2730 C   0  0  0  0  0  0  0  0  0  0  0  0
    5.2670   -1.4680   -0.5500 C   0  0  0  0  0  0  0  0  0  0  0  0
    6.3260   -0.5650   -0.1250 C   0  0  0  0  0  0  0  0  0  0  0  0
    7.7770   -0.8750   -0.1830 C   0  0  0  0  0  0  0  0  0  0  0  0
    8.3440   -2.0440   -0.6250 C   0  0  0  0  0  0  0  0  0  0  0  0
    9.7340   -1.9130   -0.5080 C   0  0  0  0  0  0  0  0  0  0  0  0
    9.9480   -0.6840   -0.0070 N   0  0  0  0  0  0  0  0  0  0  0  0
    8.8020   -0.0380    0.1990 C   0  0  0  0  0  0  0  0  0  0  0  0
    5.8670    0.5440    0.3080 N   0  0  0  0  0  0  0  0  0  0  0  0
    4.4390    0.5430    0.2380 N   0  0  0  0  0  0  0  0  0  0  0  0
   -0.7220    0.1940   -0.4200 C   0  0  0  0  0  0  0  0  0  0  0  0
   -1.6040    0.3620    0.7710 C   0  0  2  0  0  0  0  0  0  0  0  0
   -3.0030    0.3070    0.5440 N   0  0  0  0  0  0  0  0  0  0  0  0
   -3.8780   -0.6150   -0.0210 C   0  0  0  0  0  0  0  0  0  0  0  0
   -4.1800   -0.6110   -1.3670 C   0  0  0  0  0  0  0  0  0  0  0  0
   -3.4970    0.2370   -2.3730 C   0  0  1  0  0  0  0  0  0  0  0  0
   -4.2030    0.4570   -3.7020 C   0  0  0  0  0  0  0  0  0  0  0  0
   -3.8970    1.6060   -2.7130 C   0  0  0  0  0  0  0  0  0  0  0  0
   -5.1740   -1.4530   -1.8750 C   0  0  0  0  0  0  0  0  0  0  0  0
   -5.8790   -2.3040   -1.0690 C   0  0  0  0  0  0  0  0  0  0  0  0
   -5.5800   -2.3100    0.2620 C   0  0  0  0  0  0  0  0  0  0  0  0
   -6.5110   -3.3970    1.2830 Cl  0  0  0  0  0  0  0  0  0  0  0  0
   -4.5830   -1.4770    0.8040 C   0  0  0  0  0  0  0  0  0  0  0  0
   -4.3260   -1.6660    2.2270 C   0  0  0  0  0  0  0  0  0  0  0  0
   -3.3690   -2.7680    2.4860 C   0  0  1  0  0  0  0  0  0  0  0  0
   -2.1370   -2.7160    1.9620 F   0  0  0  0  0  0  0  0  0  0  0  0
   -3.1860   -2.9410    3.8780 F   0  0  0  0  0  0  0  0  0  0  0  0
   -3.9310   -3.9920    2.0630 F   0  0  0  0  0  0  0  0  0  0  0  0
  1  2  1  0
  2  3  1  0
  3  4  2  0
  5  3  1  6
  5  6  1  0
  5 23  1  0
  6  7  1  0
  7  8  1  0
  8  9  1  0
  8 22  1  0
  9 10  2  0
  9 11  1  0
 11 12  2  3
 12 13  1  0
 12 21  1  0
 13 14  1  0
 14 15  1  0
 14 20  2  0
 15 16  1  0
 15 19  2  0
 16 17  2  0
 17 18  1  0
 18 19  1  0
 20 21  1  0
 22 23  1  0
 23 24  1  6
 24 25  1  0
 25 26  1  0
 25 34  2  0
 27 26  1  1
 26 30  2  0
 27 28  1  0
 27 29  1  0
 28 29  1  0
 30 31  1  0
 31 32  2  0
 32 33  1  0
 32 34  1  0
 34 35  1  0
 35 36  1  0
 36 37  1  6
 36 38  1  0
 36 39  1  0
M  END
