
     RDKit          3D

 39 43  0  0  0  0  0  0  0  0999 V2000
   -5.1280    1.5680   -1.8710 C   0  0  0  0  0  0  0  0  0  0  0  0
   -3.7320    1.1480   -1.5580 C   0  0  0  0  0  0  0  0  0  0  0  0
   -3.4850    0.4270   -0.3170 C   0  0  1  0  0  0  0  0  0  0  0  0
   -2.0550    0.1510   -0.2120 N   0  0  0  0  0  0  0  0  0  0  0  0
   -1.1870    1.3090   -0.1500 C   0  0  0  0  0  0  0  0  0  0  0  0
   -1.5800    2.4900   -0.1700 O   0  0  0  0  0  0  0  0  0  0  0  0
    0.2630    1.1150   -0.0540 C   0  0  0  0  0  0  0  0  0  0  0  0
    0.8560   -0.0730   -0.4200 C   0  0  0  0  0  0  0  0  0  0  0  0
    2.2180   -0.1930   -0.2960 C   0  0  0  0  0  0  0  0  0  0  0  0
    3.0600    0.8240    0.1830 C   0  0  0  0  0  0  0  0  0  0  0  0
    4.4440    0.5980    0.2570 N   0  0  0  0  0  0  0  0  0  0  0  0
    5.3680    1.4130    0.9060 C   0  0  0  0  0  0  0  0  0  0  0  0
    5.0030    2.4720    1.5080 O   0  0  0  0  0  0  0  0  0  0  0  0
    6.8160    1.1060    0.9360 C   0  0  0  0  0  0  0  0  0  0  0  0
    7.7900    1.8670    1.4600 N   0  0  0  0  0  0  0  0  0  0  0  0
    8.9550    1.2960    1.3170 N   0  0  0  0  0  0  0  0  0  0  0  0
    8.8070    0.1030    0.6780 C   0  0  0  0  0  0  0  0  0  0  0  0
    7.4590   -0.0280    0.4330 C   0  0  0  0  0  0  0  0  0  0  0  0
    7.2140   -1.3010   -0.2500 C   0  0  0  0  0  0  0  0  0  0  0  0
    8.5130   -2.0400   -0.2370 C   0  0  0  0  0  0  0  0  0  0  0  0
    9.5610   -1.0600    0.1660 C   0  0  0  0  0  0  0  0  0  0  0  0
    2.4300    1.9860    0.5350 C   0  0  0  0  0  0  0  0  0  0  0  0
    1.0350    2.1510    0.4240 C   0  0  0  0  0  0  0  0  0  0  0  0
   -3.8340    1.1400    0.9760 C   0  0  0  0  0  0  0  0  0  0  0  0
   -2.9760    1.5430    1.7850 O   0  0  0  0  0  0  0  0  0  0  0  0
   -5.2110    1.3570    1.2810 N   0  0  0  0  0  0  0  0  0  0  0  0
   -6.1800    0.4330    0.7560 C   0  0  0  0  0  0  0  0  0  0  0  0
   -7.4980    0.6770    0.9810 C   0  0  0  0  0  0  0  0  0  0  0  0
   -7.8990    1.7200    1.7330 F   0  0  0  0  0  0  0  0  0  0  0  0
   -8.4420   -0.1680    0.4200 C   0  0  0  0  0  0  0  0  0  0  0  0
   -8.0520   -1.2360   -0.3540 C   0  0  0  0  0  0  0  0  0  0  0  0
   -6.7060   -1.4440   -0.5520 C   0  0  0  0  0  0  0  0  0  0  0  0
   -6.3430   -2.3790   -1.4380 F   0  0  0  0  0  0  0  0  0  0  0  0
   -5.7240   -0.6320   -0.0040 C   0  0  0  0  0  0  0  0  0  0  0  0
   -4.3150   -0.8470   -0.2510 C   0  0  0  0  0  0  0  0  0  0  0  0
   -3.7940   -2.0100   -0.3880 C   0  0  0  0  0  0  0  0  0  0  0  0
   -4.1760   -3.4030   -0.3750 C   0  0  1  0  0  0  0  0  0  0  0  0
   -5.2470   -3.7770    0.3870 F   0  0  0  0  0  0  0  0  0  0  0  0
   -4.1140   -4.2650   -1.9200 Cl  0  0  0  0  0  0  0  0  0  0  0  0
  1  2  1  0
  3  2  1  6
  3  4  1  0
  3 24  1  0
  3 35  1  0
  4  5  1  0
  5  6  2  0
  5  7  1  0
  7  8  2  0
  7 23  1  0
  8  9  1  0
  9 10  2  0
 10 11  1  0
 10 22  1  0
 11 12  1  0
 12 13  2  0
 12 14  1  0
 14 15  2  0
 14 18  1  0
 15 16  1  0
 16 17  1  0
 17 18  2  0
 17 21  1  0
 18 19  1  0
 19 20  1  0
 20 21  1  0
 22 23  2  0
 24 25  2  0
 24 26  1  0
 26 27  1  0
 27 28  2  0
 27 34  1  0
 28 29  1  0
 28 30  1  0
 30 31  2  0
 31 32  1  0
 32 33  1  0
 32 34  2  0
 34 35  1  0
 35 36  2  3
 36 37  1  0
 37 38  1  6
 37 39  1  0
M  END
