
     RDKit          3D

 39 43  0  0  0  0  0  0  0  0999 V2000
   -1.6600   -4.5510    0.1190 C   0  0  0  0  0  0  0  0  0  0  0  0
   -2.2420   -3.1980    0.0110 C   0  0  0  0  0  0  0  0  0  0  0  0
   -3.4510   -3.0080   -0.6120 C   0  0  0  0  0  0  0  0  0  0  0  0
   -3.9610   -1.7090   -0.6640 C   0  0  0  0  0  0  0  0  0  0  0  0
   -5.2540   -1.5170   -1.3960 C   0  0  0  0  0  0  0  0  0  0  0  0
   -3.3100   -0.6400   -0.1270 C   0  0  0  0  0  0  0  0  0  0  0  0
   -3.7960    0.6520   -0.2350 N   0  0  0  0  0  0  0  0  0  0  0  0
   -4.7380    1.2840    0.6140 C   0  0  0  0  0  0  0  0  0  0  0  0
   -5.4710    0.7630    1.6380 C   0  0  0  0  0  0  0  0  0  0  0  0
   -6.2500    1.7110    2.1760 N   0  0  0  0  0  0  0  0  0  0  0  0
   -6.0590    2.8830    1.5310 C   0  0  0  0  0  0  0  0  0  0  0  0
   -5.1210    2.6320    0.5560 C   0  0  0  0  0  0  0  0  0  0  0  0
   -4.8660    3.7440   -0.1170 C   0  0  0  0  0  0  0  0  0  0  0  0
   -5.7250    4.8170    0.4460 C   0  0  0  0  0  0  0  0  0  0  0  0
   -6.4340    4.1170    1.4930 N   0  0  0  0  0  0  0  0  0  0  0  0
   -2.0900   -0.8580    0.4910 C   0  0  0  0  0  0  0  0  0  0  0  0
   -1.3670    0.2660    1.1490 C   0  0  2  0  0  0  0  0  0  0  0  0
   -2.2500    1.2920    1.4250 O   0  0  0  0  0  0  0  0  0  0  0  0
   -0.2310    0.7640    0.3900 C   0  0  0  0  0  0  0  0  0  0  0  0
    0.8650   -0.0170   -0.0320 N   0  0  0  0  0  0  0  0  0  0  0  0
    1.0040   -0.8510   -1.2340 C   0  0  0  0  0  0  0  0  0  0  0  0
    2.4730   -0.7680   -1.6530 C   0  0  0  0  0  0  0  0  0  0  0  0
    3.1190   -0.0240   -0.5610 C   0  0  2  0  0  0  0  0  0  0  0  0
    4.5030   -0.3070   -0.2540 C   0  0  0  0  0  0  0  0  0  0  0  0
    4.7720   -1.2610    0.5220 O   0  0  0  0  0  0  0  0  0  0  0  0
    5.5790    0.4430   -0.7890 N   0  0  0  0  0  0  0  0  0  0  0  0
    6.9570    0.2840   -0.5360 C   0  0  0  0  0  0  0  0  0  0  0  0
    7.4890   -0.6900    0.2840 C   0  0  0  0  0  0  0  0  0  0  0  0
    8.8590   -0.7310    0.5120 C   0  0  0  0  0  0  0  0  0  0  0  0
    9.4960   -1.9990    1.5630 Cl  0  0  0  0  0  0  0  0  0  0  0  0
    9.7490    0.1490   -0.0380 C   0  0  0  0  0  0  0  0  0  0  0  0
   11.0890    0.1100    0.2000 F   0  0  0  0  0  0  0  0  0  0  0  0
    9.2300    1.1320   -0.8710 C   0  0  0  0  0  0  0  0  0  0  0  0
    7.8820    1.1760   -1.0950 C   0  0  0  0  0  0  0  0  0  0  0  0
    7.3640    2.1440   -1.9110 F   0  0  0  0  0  0  0  0  0  0  0  0
    2.1690   -0.1850    0.6030 C   0  0  0  0  0  0  0  0  0  0  0  0
    2.4120   -0.3910    1.7550 O   0  0  0  0  0  0  0  0  0  0  0  0
   -1.5590   -2.1150    0.5630 C   0  0  0  0  0  0  0  0  0  0  0  0
   -0.3800   -2.3260    1.2260 F   0  0  0  0  0  0  0  0  0  0  0  0
  1  2  1  0
  2  3  2  0
  2 38  1  0
  3  4  1  0
  4  5  1  0
  4  6  2  0
  6  7  1  0
  6 16  1  0
  7  8  1  0
  8  9  2  0
  8 12  1  0
  9 10  1  0
 10 11  1  0
 11 12  1  0
 11 15  2  0
 12 13  2  0
 13 14  1  0
 14 15  1  0
 16 17  1  0
 16 38  2  0
 17 18  1  6
 17 19  1  0
 19 20  1  0
 20 21  1  0
 20 36  1  0
 21 22  1  0
 22 23  1  0
 23 24  1  1
 23 36  1  0
 24 25  2  0
 24 26  1  0
 26 27  1  0
 27 28  2  0
 27 34  1  0
 28 29  1  0
 29 30  1  0
 29 31  2  0
 31 32  1  0
 31 33  1  0
 33 34  2  0
 34 35  1  0
 36 37  2  0
 38 39  1  0
M  END
