
     RDKit          3D

 39 43  0  0  0  0  0  0  0  0999 V2000
    7.1220    3.6620    1.2390 C   0  0  0  0  0  0  0  0  0  0  0  0
    6.4990    2.5370    1.9930 C   0  0  0  0  0  0  0  0  0  0  0  0
    5.7370    1.6110    1.1240 C   0  0  0  0  0  0  0  0  0  0  0  0
    4.3650    1.6600    1.1060 C   0  0  0  0  0  0  0  0  0  0  0  0
    3.6050    0.8200    0.3110 C   0  0  0  0  0  0  0  0  0  0  0  0
    2.2230    0.8810    0.3040 C   0  0  0  0  0  0  0  0  0  0  0  0
    1.4930    0.0270   -0.5000 C   0  0  0  0  0  0  0  0  0  0  0  0
    0.0300    0.1110   -0.4900 C   0  0  0  0  0  0  0  0  0  0  0  0
   -0.5490    0.8830   -1.2990 O   0  0  0  0  0  0  0  0  0  0  0  0
   -0.6770   -0.6820    0.4330 N   0  0  0  0  0  0  0  0  0  0  0  0
   -2.0940   -0.6190    0.4610 C   0  0  0  0  0  0  0  0  0  0  0  0
   -2.8940    0.1220   -0.3020 N   0  0  0  0  0  0  0  0  0  0  0  0
   -4.2010   -0.0580   -0.0170 C   0  0  0  0  0  0  0  0  0  0  0  0
   -5.3090    0.6080   -0.6750 C   0  0  2  0  0  0  0  0  0  0  0  0
   -6.2120    1.4350    0.1760 C   0  0  0  0  0  0  0  0  0  0  0  0
   -6.8290    2.4360   -0.6900 N   0  0  0  0  0  0  0  0  0  0  0  0
   -7.3210    1.8950   -1.9350 C   0  0  0  0  0  0  0  0  0  0  0  0
   -8.0400    2.6590   -2.6300 O   0  0  0  0  0  0  0  0  0  0  0  0
   -7.0000    0.5690   -2.3330 N   0  0  0  0  0  0  0  0  0  0  0  0
   -6.2020   -0.3120   -1.5070 C   0  0  1  0  0  0  0  0  0  0  0  0
   -5.3910   -1.2850   -2.3260 C   0  0  1  0  0  0  0  0  0  0  0  0
   -4.5400   -0.6570   -3.2120 F   0  0  0  0  0  0  0  0  0  0  0  0
   -4.6550   -2.0500   -1.4430 F   0  0  0  0  0  0  0  0  0  0  0  0
   -6.2580   -2.1150   -2.9740 F   0  0  0  0  0  0  0  0  0  0  0  0
   -4.2020   -0.9670    0.9850 N   0  0  0  0  0  0  0  0  0  0  0  0
   -5.2320   -1.5110    1.6530 C   0  0  0  0  0  0  0  0  0  0  0  0
   -5.0190   -2.4320    2.6540 C   0  0  0  0  0  0  0  0  0  0  0  0
   -3.7450   -2.8200    2.9970 C   0  0  0  0  0  0  0  0  0  0  0  0
   -2.6970   -2.2390    2.2860 C   0  0  0  0  0  0  0  0  0  0  0  0
   -2.9470   -1.3220    1.2930 C   0  0  0  0  0  0  0  0  0  0  0  0
    2.0930   -0.9080   -1.3170 C   0  0  0  0  0  0  0  0  0  0  0  0
    1.1770   -1.9850   -2.3310 Cl  0  0  0  0  0  0  0  0  0  0  0  0
    3.4920   -0.9710   -1.3120 C   0  0  0  0  0  0  0  0  0  0  0  0
    4.2060   -0.1120   -0.5040 C   0  0  0  0  0  0  0  0  0  0  0  0
    5.5940   -0.1670   -0.4910 C   0  0  0  0  0  0  0  0  0  0  0  0
    6.2330   -1.1620   -1.3700 C   0  0  0  0  0  0  0  0  0  0  0  0
    6.0890   -2.5550   -0.7610 C   0  0  0  0  0  0  0  0  0  0  0  0
    6.3620    0.6690    0.3010 C   0  0  0  0  0  0  0  0  0  0  0  0
    7.7310    0.6450    0.3420 O   0  0  0  0  0  0  0  0  0  0  0  0
  1  2  1  0
  2  3  1  0
  3  4  2  0
  3 38  1  0
  4  5  1  0
  5  6  2  0
  5 34  1  0
  6  7  1  0
  7  8  1  0
  7 31  2  0
  8  9  2  0
  8 10  1  0
 10 11  1  0
 11 12  1  0
 11 30  2  0
 12 13  2  0
 14 13  1  1
 13 25  1  0
 14 15  1  0
 14 20  1  0
 15 16  1  0
 16 17  1  0
 17 18  2  0
 17 19  1  0
 20 19  1  6
 20 21  1  0
 21 22  1  6
 21 23  1  0
 21 24  1  0
 25 26  1  0
 25 30  1  0
 26 27  2  0
 27 28  1  0
 28 29  2  0
 29 30  1  0
 31 32  1  0
 31 33  1  0
 33 34  2  0
 34 35  1  0
 35 36  1  0
 35 38  2  0
 36 37  1  0
 38 39  1  0
M  END
