
     RDKit          3D

 39 41  0  0  0  0  0  0  0  0999 V2000
   -0.0510   -5.0970   -0.7080 C   0  0  0  0  0  0  0  0  0  0  0  0
   -0.1610   -4.0140   -2.1200 S   0  0  0  0  0  0  0  0  0  0  0  0
   -0.5020   -2.3050   -1.7780 C   0  0  0  0  0  0  0  0  0  0  0  0
   -0.4620   -1.9090   -0.3430 C   0  0  1  0  0  0  0  0  0  0  0  0
    0.8010   -2.1340    0.3550 C   0  0  0  0  0  0  0  0  0  0  0  0
    0.9560   -2.9700    1.3020 O   0  0  0  0  0  0  0  0  0  0  0  0
    1.9690   -1.4050   -0.0010 N   0  0  0  0  0  0  0  0  0  0  0  0
    3.2390   -1.6150    0.6750 C   0  0  0  0  0  0  0  0  0  0  0  0
    4.2610   -0.6810    0.0780 C   0  0  0  0  0  0  0  0  0  0  0  0
    3.8980    0.0790   -0.8050 O   0  0  0  0  0  0  0  0  0  0  0  0
    5.5000   -0.7130    0.5250 O   0  0  0  0  0  0  0  0  0  0  0  0
    6.6480   -0.0780    0.2990 C   0  0  0  0  0  0  0  0  0  0  0  0
    7.0050    0.9910   -0.3390 C   0  0  0  0  0  0  0  0  0  0  0  0
    6.2360    1.9560   -1.0910 C   0  0  2  0  0  0  0  0  0  0  0  0
    7.1580    2.9270   -1.7680 N   0  0  0  0  0  0  0  0  0  0  0  0
    5.4270    2.7890   -0.2430 N   0  0  0  0  0  0  0  0  0  0  0  0
    6.2370    3.5520    0.6330 N   0  0  0  0  0  0  0  0  0  0  0  0
    7.8210   -0.8150    0.9620 C   0  0  0  0  0  0  0  0  0  0  0  0
    9.0640   -0.2750    0.7940 O   0  0  0  0  0  0  0  0  0  0  0  0
    7.6080   -1.9100    1.6510 C   0  0  0  0  0  0  0  0  0  0  0  0
    8.6100   -2.6270    2.2730 O   0  0  0  0  0  0  0  0  0  0  0  0
   -0.8990   -0.4460   -0.1970 C   0  0  0  0  0  0  0  0  0  0  0  0
   -2.3690   -0.3890   -0.5210 C   0  0  0  0  0  0  0  0  0  0  0  0
   -3.0420   -1.3530    0.2820 N   0  0  0  0  0  0  0  0  0  0  0  0
   -4.3730   -1.2920    0.7910 C   0  0  0  0  0  0  0  0  0  0  0  0
   -4.8020   -2.2060    1.5060 O   0  0  0  0  0  0  0  0  0  0  0  0
   -5.1670   -0.1870    0.4650 N   0  0  0  0  0  0  0  0  0  0  0  0
   -6.4900    0.0830    0.8580 C   0  0  0  0  0  0  0  0  0  0  0  0
   -7.0560    1.2060    0.4160 C   0  0  0  0  0  0  0  0  0  0  0  0
   -6.4920    2.2720   -0.4650 C   0  0  0  0  0  0  0  0  0  0  0  0
   -7.3690    3.3790   -0.1160 N   0  0  0  0  0  0  0  0  0  0  0  0
   -7.0540    4.7630   -0.2850 C   0  0  0  0  0  0  0  0  0  0  0  0
   -8.5560    2.8570    0.4020 N   0  0  0  0  0  0  0  0  0  0  0  0
   -8.4160    1.6170    0.7170 C   0  0  0  0  0  0  0  0  0  0  0  0
   -9.3580    0.6290    1.2810 C   0  0  0  0  0  0  0  0  0  0  0  0
   -8.6080   -0.2690    2.0430 O   0  0  0  0  0  0  0  0  0  0  0  0
   -7.3130   -0.7180    1.7320 C   0  0  0  0  0  0  0  0  0  0  0  0
   -6.9110   -1.7940    2.2210 O   0  0  0  0  0  0  0  0  0  0  0  0
   -1.8700   -2.6830    0.5160 S   0  0  0  0  0  0  0  0  0  0  0  0
  1  2  1  0
  2  3  1  0
  4  3  1  6
  4  5  1  0
  4 22  1  0
  4 39  1  0
  5  6  2  0
  5  7  1  0
  7  8  1  0
  8  9  1  0
  9 10  2  0
  9 11  1  0
 11 12  1  0
 12 13  2  3
 12 18  1  0
 13 14  1  0
 14 15  1  1
 14 16  1  0
 16 17  1  0
 18 19  1  0
 18 20  2  3
 20 21  1  0
 22 23  1  0
 23 24  1  0
 24 25  1  0
 24 39  1  0
 25 26  2  0
 25 27  1  0
 27 28  1  0
 28 29  2  0
 28 37  1  0
 29 30  1  0
 29 34  1  0
 30 31  1  0
 31 32  1  0
 31 33  1  0
 33 34  2  0
 34 35  1  0
 35 36  1  0
 36 37  1  0
 37 38  2  0
M  END
