
     RDKit          3D

 39 43  0  0  0  0  0  0  0  0999 V2000
    5.0490    1.2460    0.7640 O   0  0  0  0  0  0  0  0  0  0  0  0
    5.0700    0.1400    0.2230 C   0  0  0  0  0  0  0  0  0  0  0  0
    5.9930   -0.8780    0.5730 N   0  0  0  0  0  0  0  0  0  0  0  0
    6.9970   -0.7820    1.5610 C   0  0  0  0  0  0  0  0  0  0  0  0
    7.1900    0.3520    2.3140 C   0  0  0  0  0  0  0  0  0  0  0  0
    8.1940    0.4130    3.2840 C   0  0  0  0  0  0  0  0  0  0  0  0
    8.3880    1.5250    4.0280 F   0  0  0  0  0  0  0  0  0  0  0  0
    8.9840   -0.6850    3.4700 C   0  0  0  0  0  0  0  0  0  0  0  0
    9.9620   -0.6360    4.4100 F   0  0  0  0  0  0  0  0  0  0  0  0
    8.7920   -1.8240    2.7150 C   0  0  0  0  0  0  0  0  0  0  0  0
    7.8110   -1.8900    1.7640 C   0  0  0  0  0  0  0  0  0  0  0  0
    7.5890   -3.3520    0.8190 Cl  0  0  0  0  0  0  0  0  0  0  0  0
    4.0870   -0.0690   -0.8040 N   0  0  0  0  0  0  0  0  0  0  0  0
    3.1610    0.9360   -1.1620 C   0  0  1  0  0  0  0  0  0  0  0  0
    3.2820    1.4070   -2.5890 C   0  0  0  0  0  0  0  0  0  0  0  0
    2.2850    2.4670   -2.9110 C   0  0  0  0  0  0  0  0  0  0  0  0
    1.3770    2.8300   -1.7480 C   0  0  0  0  0  0  0  0  0  0  0  0
    0.8080    1.5410   -1.2520 C   0  0  0  0  0  0  0  0  0  0  0  0
   -0.5160    1.2930   -1.0910 C   0  0  0  0  0  0  0  0  0  0  0  0
   -0.9060    0.0360   -0.6170 C   0  0  0  0  0  0  0  0  0  0  0  0
   -0.0020   -0.9420   -0.3130 C   0  0  0  0  0  0  0  0  0  0  0  0
   -0.4080   -2.2340    0.1740 C   0  0  0  0  0  0  0  0  0  0  0  0
   -1.5670   -2.6820    0.3950 N   0  0  0  0  0  0  0  0  0  0  0  0
   -2.8100   -2.1430    0.2640 N   0  0  0  0  0  0  0  0  0  0  0  0
   -3.5840   -1.6140    1.3450 C   0  0  0  0  0  0  0  0  0  0  0  0
   -3.0720   -1.6530    2.4900 O   0  0  0  0  0  0  0  0  0  0  0  0
   -4.9100   -1.0510    1.1370 C   0  0  0  0  0  0  0  0  0  0  0  0
   -5.6050   -0.5510    2.2150 C   0  0  0  0  0  0  0  0  0  0  0  0
   -6.8590   -0.0080    2.0890 C   0  0  0  0  0  0  0  0  0  0  0  0
   -7.4330    0.0310    0.8290 C   0  0  0  0  0  0  0  0  0  0  0  0
   -6.7390   -0.4680   -0.2430 C   0  0  0  0  0  0  0  0  0  0  0  0
   -5.5090   -0.9880   -0.0480 N   0  0  0  0  0  0  0  0  0  0  0  0
   -7.5680   -0.3220   -1.5010 C   0  0  1  0  0  0  0  0  0  0  0  0
   -7.4730   -1.4320   -2.2960 F   0  0  0  0  0  0  0  0  0  0  0  0
   -8.9690   -0.2930   -0.9070 C   0  0  0  0  0  0  0  0  0  0  0  0
   -8.7480    0.5430    0.3290 C   0  0  2  0  0  0  0  0  0  0  0  0
   -8.6380    1.8800   -0.0610 O   0  0  0  0  0  0  0  0  0  0  0  0
    1.3660   -0.6760   -0.4830 C   0  0  0  0  0  0  0  0  0  0  0  0
    1.7420    0.5570   -0.9480 C   0  0  0  0  0  0  0  0  0  0  0  0
  1  2  2  0
  2  3  1  0
  2 13  1  0
  3  4  1  0
  4  5  2  0
  4 11  1  0
  5  6  1  0
  6  7  1  0
  6  8  2  0
  8  9  1  0
  8 10  1  0
 10 11  2  0
 11 12  1  0
 14 13  1  6
 14 15  1  0
 14 39  1  0
 15 16  1  0
 16 17  1  0
 17 18  1  0
 18 19  2  0
 18 39  1  0
 19 20  1  0
 20 21  2  0
 21 22  1  0
 21 38  1  0
 22 23  2  3
 23 24  1  0
 24 25  1  0
 25 26  2  0
 25 27  1  0
 27 28  2  0
 27 32  1  0
 28 29  1  0
 29 30  2  0
 30 31  1  0
 30 36  1  0
 31 32  2  0
 31 33  1  0
 33 34  1  6
 33 35  1  0
 35 36  1  0
 36 37  1  6
 38 39  2  0
M  END
