
     RDKit          3D

 35 38  0  0  0  0  0  0  0  0999 V2000
    2.5810   -1.9280   -2.6410 C   0  0  0  0  0  0  0  0  0  0  0  0
    1.8570   -1.4930   -1.3540 C   0  0  1  0  0  0  0  0  0  0  0  0
    2.6450   -0.3150   -0.8400 C   0  0  0  0  0  0  0  0  0  0  0  0
    4.0750   -0.8110   -0.5800 C   0  0  0  0  0  0  0  0  0  0  0  0
    4.9020    0.3310   -0.0640 C   0  0  0  0  0  0  0  0  0  0  0  0
    4.4100    1.4830    0.0970 O   0  0  0  0  0  0  0  0  0  0  0  0
    6.2670    0.1050    0.2470 N   0  0  0  0  0  0  0  0  0  0  0  0
    7.0860    1.1930    0.7460 C   0  0  0  0  0  0  0  0  0  0  0  0
    8.4890    0.6830    0.9950 C   0  0  0  0  0  0  0  0  0  0  0  0
    9.3980    2.1330    1.6110 S   0  0  1  0  0  0  0  0  0  0  0  0
    8.7720    2.6580    2.8790 O   0  0  0  0  0  0  0  0  0  0  0  0
   10.9200    1.3170    1.9570 O   0  0  0  0  0  0  0  0  0  0  0  0
    9.6380    3.0480    0.4360 O   0  0  0  0  0  0  0  0  0  0  0  0
    0.4590   -1.1850   -1.7560 C   0  0  1  0  0  0  0  0  0  0  0  0
   -0.1030   -2.4870   -2.3450 C   0  0  0  0  0  0  0  0  0  0  0  0
   -1.4810   -2.6610   -1.7430 C   0  0  0  0  0  0  0  0  0  0  0  0
   -1.8150   -1.2730   -1.3440 C   0  0  1  0  0  0  0  0  0  0  0  0
   -2.9980   -1.1020   -0.4750 C   0  0  1  0  0  0  0  0  0  0  0  0
   -3.0530    0.3640   -0.0410 C   0  0  2  0  0  0  0  0  0  0  0  0
   -1.7840    0.7660    0.6180 C   0  0  0  0  0  0  0  0  0  0  0  0
   -0.6680    0.6370   -0.4290 C   0  0  2  0  0  0  0  0  0  0  0  0
   -1.1740    1.2200   -1.5950 O   0  0  0  0  0  0  0  0  0  0  0  0
   -0.5000   -0.8400   -0.6760 C   0  0  2  0  0  0  0  0  0  0  0  0
   -0.2380   -1.6260    0.5740 C   0  0  0  0  0  0  0  0  0  0  0  0
   -4.2520    0.4770    0.8670 C   0  0  1  0  0  0  0  0  0  0  0  0
   -4.2380   -0.5700    1.9570 C   0  0  0  0  0  0  0  0  0  0  0  0
   -4.2470    1.8250    1.5120 C   0  0  0  0  0  0  0  0  0  0  0  0
   -5.5310    2.1850    2.1940 C   0  0  0  0  0  0  0  0  0  0  0  0
   -6.7100    1.9500    1.2900 C   0  0  2  0  0  0  0  0  0  0  0  0
   -7.8860    2.2790    1.9470 O   0  0  0  0  0  0  0  0  0  0  0  0
   -6.6850    0.4810    0.8800 C   0  0  0  0  0  0  0  0  0  0  0  0
   -5.4690    0.3130   -0.0140 C   0  0  2  0  0  0  0  0  0  0  0  0
   -5.5020   -1.0140   -0.6990 C   0  0  0  0  0  0  0  0  0  0  0  0
   -4.2230   -1.4710   -1.2760 C   0  0  1  0  0  0  0  0  0  0  0  0
   -4.0230   -1.0870   -2.6070 O   0  0  0  0  0  0  0  0  0  0  0  0
  2  1  1  6
  2  3  1  0
  2 14  1  0
  3  4  1  0
  4  5  1  0
  5  6  2  0
  5  7  1  0
  7  8  1  0
  8  9  1  0
  9 10  1  0
 10 11  1  1
 10 12  1  0
 10 13  1  0
 14 15  1  1
 14 23  1  0
 15 16  1  0
 17 16  1  1
 17 18  1  0
 17 23  1  0
 18 19  1  0
 18 34  1  6
 19 20  1  1
 19 25  1  0
 20 21  1  0
 21 22  1  6
 21 23  1  0
 23 24  1  1
 25 26  1  1
 25 27  1  0
 25 32  1  0
 27 28  1  0
 28 29  1  0
 29 30  1  1
 29 31  1  0
 32 31  1  1
 32 33  1  0
 33 34  1  0
 34 35  1  6
M  END
