
     RDKit          3D

 46 50  0  0  0  0  0  0  0  0999 V2000
   -2.0780   -0.1030   -3.4420 C   0  0  0  0  0  0  0  0  0  0  0  0
   -1.1780    0.8690   -3.7510 O   0  0  0  0  0  0  0  0  0  0  0  0
   -0.0490    0.8550   -2.8160 C   0  0  2  0  0  0  0  0  0  0  0  0
   -0.0520    2.0940   -2.2990 O   0  0  0  0  0  0  0  0  0  0  0  0
   -0.5210    2.4070   -1.0870 C   0  0  0  0  0  0  0  0  0  0  0  0
   -1.9870    2.1700   -0.8830 C   0  0  0  0  0  0  0  0  0  0  0  0
   -2.8440    2.8430   -1.7170 C   0  0  0  0  0  0  0  0  0  0  0  0
   -4.2010    2.6870   -1.6050 C   0  0  0  0  0  0  0  0  0  0  0  0
   -4.7220    1.8500   -0.6500 C   0  0  0  0  0  0  0  0  0  0  0  0
   -3.8870    1.1520    0.2110 C   0  0  0  0  0  0  0  0  0  0  0  0
   -4.4420    0.2890    1.1930 N   0  0  0  0  0  0  0  0  0  0  0  0
   -4.8880   -1.0510    0.9850 C   0  0  0  0  0  0  0  0  0  0  0  0
   -4.4710   -1.8440    0.1210 O   0  0  0  0  0  0  0  0  0  0  0  0
   -5.9480   -1.3590    1.9770 C   0  0  1  0  0  0  0  0  0  0  0  0
   -5.8250   -2.6970    2.6260 C   0  0  0  0  0  0  0  0  0  0  0  0
   -5.8720   -3.8690    1.6990 C   0  0  0  0  0  0  0  0  0  0  0  0
   -5.7510   -5.0200    2.5160 O   0  0  0  0  0  0  0  0  0  0  0  0
   -5.8070   -0.2840    2.9960 C   0  0  2  0  0  0  0  0  0  0  0  0
   -7.0990    0.4950    3.1530 C   0  0  0  0  0  0  0  0  0  0  0  0
   -7.4830    1.0980    1.9620 O   0  0  0  0  0  0  0  0  0  0  0  0
   -8.9410    1.9700    2.1760 S   0  0  0  0  0  0  0  0  0  0  0  0
   -4.6910    0.5460    2.5660 C   0  0  0  0  0  0  0  0  0  0  0  0
   -4.0570    1.3600    3.3030 O   0  0  0  0  0  0  0  0  0  0  0  0
   -2.5060    1.3340    0.0690 C   0  0  0  0  0  0  0  0  0  0  0  0
    1.0810    0.5250   -3.7130 C   0  0  2  0  0  0  0  0  0  0  0  0
    0.9350   -0.8000   -4.4580 C   0  0  0  0  0  0  0  0  0  0  0  0
    2.2950   -0.8730   -5.1360 C   0  0  0  0  0  0  0  0  0  0  0  0
    3.1690    0.2010   -4.4500 C   0  0  0  0  0  0  0  0  0  0  0  0
    2.4070    0.3660   -3.1940 N   0  0  0  0  0  0  0  0  0  0  0  0
    2.9180    0.3580   -1.8970 C   0  0  0  0  0  0  0  0  0  0  0  0
    2.0990    0.4680   -0.9520 O   0  0  0  0  0  0  0  0  0  0  0  0
    4.3150    0.2350   -1.5080 C   0  0  0  0  0  0  0  0  0  0  0  0
    5.1530    0.1540   -2.4170 O   0  0  0  0  0  0  0  0  0  0  0  0
    4.7390    0.2060   -0.1680 N   0  0  0  0  0  0  0  0  0  0  0  0
    6.0580    0.0980    0.3160 C   0  0  0  0  0  0  0  0  0  0  0  0
    7.1290    0.2090   -0.5230 C   0  0  0  0  0  0  0  0  0  0  0  0
    8.4190    0.1380   -0.0490 C   0  0  0  0  0  0  0  0  0  0  0  0
    8.6580   -0.0450    1.2810 C   0  0  0  0  0  0  0  0  0  0  0  0
    7.6340   -0.1620    2.1630 C   0  0  0  0  0  0  0  0  0  0  0  0
    7.9170   -0.3540    3.4870 C   0  0  0  0  0  0  0  0  0  0  0  0
    9.2450   -0.4200    4.0570 C   0  0  0  0  0  0  0  0  0  0  0  0
   10.3460   -0.2490    3.5230 O   0  0  0  0  0  0  0  0  0  0  0  0
    6.8130   -0.4820    4.3590 C   0  0  0  0  0  0  0  0  0  0  0  0
    5.5340   -0.4150    3.9000 C   0  0  0  0  0  0  0  0  0  0  0  0
    5.2750   -0.2180    2.5480 C   0  0  0  0  0  0  0  0  0  0  0  0
    6.3140   -0.0890    1.6730 C   0  0  0  0  0  0  0  0  0  0  0  0
  1  2  1  0
  3  2  1  6
  3  4  1  0
  3 25  1  0
  4  5  1  0
  5  6  1  0
  6  7  2  0
  6 24  1  0
  7  8  1  0
  8  9  2  0
  9 10  1  0
 10 11  1  0
 10 24  2  0
 11 12  1  0
 11 22  1  0
 12 13  2  0
 12 14  1  0
 14 15  1  1
 14 18  1  0
 15 16  1  0
 16 17  1  0
 18 19  1  6
 18 22  1  0
 19 20  1  0
 20 21  1  0
 22 23  2  0
 25 26  1  1
 25 29  1  0
 26 27  1  0
 27 28  1  0
 28 29  1  0
 29 30  1  0
 30 31  2  0
 30 32  1  0
 32 33  2  0
 32 34  1  0
 34 35  1  0
 35 36  2  0
 35 46  1  0
 36 37  1  0
 37 38  2  0
 38 39  1  0
 39 40  2  0
 39 46  1  0
 40 41  1  0
 40 43  1  0
 41 42  2  0
 43 44  2  0
 44 45  1  0
 45 46  2  0
M  END
