
     RDKit          3D

 46 50  0  0  0  0  0  0  0  0999 V2000
   -1.0380    7.0870   -1.2090 C   0  0  0  0  0  0  0  0  0  0  0  0
   -0.2090    5.9930   -1.4390 O   0  0  0  0  0  0  0  0  0  0  0  0
   -0.3030    4.7890   -0.8100 C   0  0  0  0  0  0  0  0  0  0  0  0
    0.6140    3.8080   -1.1450 C   0  0  0  0  0  0  0  0  0  0  0  0
    0.5330    2.5690   -0.5020 C   0  0  0  0  0  0  0  0  0  0  0  0
   -0.3980    2.2940    0.4260 C   0  0  0  0  0  0  0  0  0  0  0  0
   -0.4870    1.0940    1.0760 O   0  0  0  0  0  0  0  0  0  0  0  0
    0.4180    0.0230    0.9450 C   0  0  1  0  0  0  0  0  0  0  0  0
    1.4530    0.0980    2.0610 C   0  0  0  0  0  0  0  0  0  0  0  0
    1.9730   -1.2000    2.3120 N   0  0  0  0  0  0  0  0  0  0  0  0
    3.3510   -1.4550    2.1440 C   0  0  0  0  0  0  0  0  0  0  0  0
    3.8230   -2.6050    2.3950 O   0  0  0  0  0  0  0  0  0  0  0  0
    4.3310   -0.4370    1.6740 C   0  0  0  0  0  0  0  0  0  0  0  0
    5.6990   -1.0630    1.5980 C   0  0  0  0  0  0  0  0  0  0  0  0
    6.6780   -0.8000    2.5170 C   0  0  0  0  0  0  0  0  0  0  0  0
    7.9160   -1.3840    2.4530 C   0  0  0  0  0  0  0  0  0  0  0  0
    8.2490   -2.2990    1.4240 C   0  0  0  0  0  0  0  0  0  0  0  0
    9.8340   -3.0230    1.3780 S   0  0  1  0  0  0  0  0  0  0  0  0
   10.7650   -2.1930    2.2570 O   0  0  0  0  0  0  0  0  0  0  0  0
    9.7280   -4.3740    2.0260 O   0  0  0  0  0  0  0  0  0  0  0  0
    7.2570   -2.5530    0.5080 C   0  0  0  0  0  0  0  0  0  0  0  0
    6.0070   -1.9450    0.5980 C   0  0  0  0  0  0  0  0  0  0  0  0
    1.0930   -2.2610    2.7370 C   0  0  0  0  0  0  0  0  0  0  0  0
   -0.3200   -1.8730    2.3810 C   0  0  0  0  0  0  0  0  0  0  0  0
   -0.2980   -1.2790    0.9700 C   0  0  1  0  0  0  0  0  0  0  0  0
   -1.5830   -1.1600    0.4390 O   0  0  0  0  0  0  0  0  0  0  0  0
   -2.0180   -1.7980   -0.6860 C   0  0  0  0  0  0  0  0  0  0  0  0
   -1.2490   -2.6580   -1.3900 C   0  0  0  0  0  0  0  0  0  0  0  0
   -1.7010   -3.3030   -2.5440 C   0  0  0  0  0  0  0  0  0  0  0  0
   -3.0120   -3.0270   -2.9680 C   0  0  0  0  0  0  0  0  0  0  0  0
   -3.3180   -3.6790   -4.2450 N   0  0  0  0  0  0  0  0  0  0  0  0
   -2.4570   -3.2920   -5.1590 C   0  0  0  0  0  0  0  0  0  0  0  0
   -2.2690   -3.5750   -6.4480 C   0  0  0  0  0  0  0  0  0  0  0  0
   -2.7160   -4.2930   -7.3730 O   0  0  0  0  0  0  0  0  0  0  0  0
   -3.7930   -2.1820   -2.2840 C   0  0  0  0  0  0  0  0  0  0  0  0
   -3.3380   -1.5350   -1.1260 C   0  0  0  0  0  0  0  0  0  0  0  0
   -4.0770   -0.5980   -0.3830 N   0  0  0  0  0  0  0  0  0  0  0  0
   -5.4680   -0.3850   -0.4370 C   0  0  0  0  0  0  0  0  0  0  0  0
   -6.2020   -1.0800   -1.2040 O   0  0  0  0  0  0  0  0  0  0  0  0
   -6.0800    0.6610    0.4170 C   0  0  2  0  0  0  0  0  0  0  0  0
   -6.9650    1.5510   -0.3950 C   0  0  0  0  0  0  0  0  0  0  0  0
   -6.6970    2.8890    0.3530 C   0  0  0  0  0  0  0  0  0  0  0  0
   -5.1660    2.7160    0.4530 C   0  0  0  0  0  0  0  0  0  0  0  0
   -5.1220    1.4450    1.0470 O   0  0  0  0  0  0  0  0  0  0  0  0
   -1.3070    3.2790    0.7480 C   0  0  0  0  0  0  0  0  0  0  0  0
   -1.2780    4.5380    0.1420 C   0  0  0  0  0  0  0  0  0  0  0  0
  1  2  1  0
  2  3  1  0
  3  4  2  0
  3 46  1  0
  4  5  1  0
  5  6  2  0
  6  7  1  0
  6 45  1  0
  8  7  1  1
  8  9  1  0
  8 25  1  0
  9 10  1  0
 10 11  1  0
 10 23  1  0
 11 12  2  0
 11 13  1  0
 13 14  1  0
 14 15  2  0
 14 22  1  0
 15 16  1  0
 16 17  2  0
 18 17  1  1
 17 21  1  0
 18 19  2  0
 18 20  2  0
 21 22  2  0
 23 24  1  0
 24 25  1  0
 25 26  1  1
 26 27  1  0
 27 28  2  0
 27 36  1  0
 28 29  1  0
 29 30  2  0
 30 31  1  0
 30 35  1  0
 31 32  2  3
 32 33  1  0
 33 34  2  0
 35 36  2  0
 36 37  1  0
 37 38  1  0
 38 39  2  0
 40 38  1  6
 40 41  1  0
 40 44  1  0
 41 42  1  0
 42 43  1  0
 43 44  1  0
 45 46  2  0
M  END
