
     RDKit          3D

 46 50  0  0  0  0  0  0  0  0999 V2000
   12.9550    1.8720   -0.4240 C   0  0  0  0  0  0  0  0  0  0  0  0
   11.9400    0.8110   -0.0750 C   0  0  0  0  0  0  0  0  0  0  0  0
   10.6550    1.3590   -0.2630 O   0  0  0  0  0  0  0  0  0  0  0  0
    9.4960    0.6100   -0.0180 C   0  0  0  0  0  0  0  0  0  0  0  0
    9.6050   -0.6930    0.4150 C   0  0  0  0  0  0  0  0  0  0  0  0
    8.4560   -1.4160    0.6510 C   0  0  0  0  0  0  0  0  0  0  0  0
    7.1980   -0.8620    0.4620 C   0  0  0  0  0  0  0  0  0  0  0  0
    7.0780    0.4460    0.0270 C   0  0  0  0  0  0  0  0  0  0  0  0
    8.2400    1.1440   -0.2010 C   0  0  0  0  0  0  0  0  0  0  0  0
    8.1370    2.5630   -0.6760 C   0  0  0  0  0  0  0  0  0  0  0  0
    5.7090    0.7560   -0.0810 O   0  0  0  0  0  0  0  0  0  0  0  0
    4.9360   -0.2440    0.5750 C   0  0  2  0  0  0  0  0  0  0  0  0
    4.5460    0.1550    1.8320 O   0  0  0  0  0  0  0  0  0  0  0  0
    3.1640    0.0920    1.9440 C   0  0  0  0  0  0  0  0  0  0  0  0
    2.6000   -1.2850    1.7930 C   0  0  0  0  0  0  0  0  0  0  0  0
    0.8140   -1.3320    1.9880 S   0  0  0  0  0  0  0  0  0  0  0  0
   -0.1010   -0.4830    0.7060 C   0  0  1  0  0  0  0  0  0  0  0  0
    0.1090    1.0200    0.8360 C   0  0  0  0  0  0  0  0  0  0  0  0
    0.4320   -0.8890   -0.6400 C   0  0  0  0  0  0  0  0  0  0  0  0
    1.3670   -0.2870   -1.2090 O   0  0  0  0  0  0  0  0  0  0  0  0
   -0.1580   -2.0030   -1.2820 N   0  0  0  0  0  0  0  0  0  0  0  0
   -1.4410   -2.5220   -0.9260 C   0  0  0  0  0  0  0  0  0  0  0  0
   -1.8630   -3.5220   -1.5630 O   0  0  0  0  0  0  0  0  0  0  0  0
   -2.1590   -1.9090    0.1050 N   0  0  0  0  0  0  0  0  0  0  0  0
   -3.4730   -2.3060    0.5080 C   0  0  0  0  0  0  0  0  0  0  0  0
   -4.5810   -1.6210   -0.0700 N   0  0  0  0  0  0  0  0  0  0  0  0
   -4.9360   -1.5190   -1.4030 C   0  0  0  0  0  0  0  0  0  0  0  0
   -4.2480   -2.0690   -2.2860 O   0  0  0  0  0  0  0  0  0  0  0  0
   -6.1330   -0.7650   -1.8620 C   0  0  0  0  0  0  0  0  0  0  0  0
   -6.2280   -0.4070   -3.2080 C   0  0  0  0  0  0  0  0  0  0  0  0
   -7.3250    0.2860   -3.6620 C   0  0  0  0  0  0  0  0  0  0  0  0
   -8.3270    0.6220   -2.7750 C   0  0  0  0  0  0  0  0  0  0  0  0
   -8.2800    0.2930   -1.4400 C   0  0  0  0  0  0  0  0  0  0  0  0
   -9.3240    0.6320   -0.4810 C   0  0  0  0  0  0  0  0  0  0  0  0
  -10.6600    0.7200   -0.8180 C   0  0  0  0  0  0  0  0  0  0  0  0
  -11.6260    1.0410    0.1170 C   0  0  0  0  0  0  0  0  0  0  0  0
  -11.2950    1.2910    1.4400 C   0  0  0  0  0  0  0  0  0  0  0  0
  -12.3130    1.6290    2.4270 C   0  0  0  0  0  0  0  0  0  0  0  0
  -11.9500    1.8430    3.6090 O   0  0  0  0  0  0  0  0  0  0  0  0
   -9.9600    1.2030    1.7730 C   0  0  0  0  0  0  0  0  0  0  0  0
   -9.0000    0.8820    0.8380 C   0  0  0  0  0  0  0  0  0  0  0  0
   -7.1510   -0.4120   -1.0100 C   0  0  0  0  0  0  0  0  0  0  0  0
   -1.5520   -0.7820    0.7540 C   0  0  0  0  0  0  0  0  0  0  0  0
   -2.3040   -0.0050    1.4030 O   0  0  0  0  0  0  0  0  0  0  0  0
    5.8620   -1.4140    0.6370 C   0  0  0  0  0  0  0  0  0  0  0  0
    5.5070   -2.6040    0.8070 O   0  0  0  0  0  0  0  0  0  0  0  0
  1  2  1  0
  2  3  1  0
  3  4  1  0
  4  5  2  0
  4  9  1  0
  5  6  1  0
  6  7  2  0
  7  8  1  0
  7 45  1  0
  8  9  2  0
  8 11  1  0
  9 10  1  0
 11 12  1  0
 12 13  1  1
 12 45  1  0
 13 14  1  0
 14 15  1  0
 15 16  1  0
 16 17  1  0
 17 18  1  1
 17 19  1  0
 17 43  1  0
 19 20  2  0
 19 21  1  0
 21 22  1  0
 22 23  2  0
 22 24  1  0
 24 25  1  0
 24 43  1  0
 25 26  1  0
 26 27  1  0
 27 28  2  0
 27 29  1  0
 29 30  2  0
 29 42  1  0
 30 31  1  0
 31 32  2  0
 32 33  1  0
 33 34  1  0
 33 42  2  0
 34 35  2  0
 34 41  1  0
 35 36  1  0
 36 37  2  0
 37 38  1  0
 37 40  1  0
 38 39  2  0
 40 41  2  0
 43 44  2  0
 45 46  2  0
M  END
