
     RDKit          3D

 46 50  0  0  0  0  0  0  0  0999 V2000
    8.6340    3.0640    0.6290 C   0  0  0  0  0  0  0  0  0  0  0  0
    8.5600    2.6440    1.9900 O   0  0  0  0  0  0  0  0  0  0  0  0
    9.7170    2.1720    2.6080 C   0  0  0  0  0  0  0  0  0  0  0  0
   10.7810    2.1320    1.9490 O   0  0  0  0  0  0  0  0  0  0  0  0
    9.6580    1.7370    4.0070 C   0  0  0  0  0  0  0  0  0  0  0  0
    7.9480    1.9160    4.6390 S   0  0  0  0  0  0  0  0  0  0  0  0
    6.9030    0.7340    3.7500 C   0  0  0  0  0  0  0  0  0  0  0  0
    7.2820   -0.0970    2.7970 C   0  0  0  0  0  0  0  0  0  0  0  0
    6.1410   -0.8800    2.3390 C   0  0  0  0  0  0  0  0  0  0  0  0
    5.7730   -1.8450    1.4730 N   0  0  0  0  0  0  0  0  0  0  0  0
    4.4420   -2.1110    1.5990 C   0  0  0  0  0  0  0  0  0  0  0  0
    3.6840   -3.1070    0.8380 C   0  0  0  0  0  0  0  0  0  0  0  0
    3.0190   -2.5920   -0.3470 N   0  0  0  0  0  0  0  0  0  0  0  0
    1.8380   -1.8530   -0.3120 C   0  0  0  0  0  0  0  0  0  0  0  0
    1.3650   -1.6570    0.8740 O   0  0  0  0  0  0  0  0  0  0  0  0
    1.1040   -1.2970   -1.4330 C   0  0  0  0  0  0  0  0  0  0  0  0
   -0.1440   -0.7110   -1.1990 C   0  0  0  0  0  0  0  0  0  0  0  0
   -0.9600   -0.2400   -2.1910 C   0  0  0  0  0  0  0  0  0  0  0  0
   -2.2550    0.3620   -1.8990 C   0  0  0  0  0  0  0  0  0  0  0  0
   -2.5650    0.4890   -0.6780 O   0  0  0  0  0  0  0  0  0  0  0  0
   -3.1670    0.7990   -2.8270 O   0  0  0  0  0  0  0  0  0  0  0  0
   -4.4230    1.3770   -2.4040 C   0  0  0  0  0  0  0  0  0  0  0  0
   -5.0930    0.3210   -1.5600 C   0  0  0  0  0  0  0  0  0  0  0  0
   -5.1950   -0.9590   -2.0590 C   0  0  0  0  0  0  0  0  0  0  0  0
   -5.7720   -1.9140   -1.2720 C   0  0  0  0  0  0  0  0  0  0  0  0
   -6.2610   -1.6230    0.0200 C   0  0  0  0  0  0  0  0  0  0  0  0
   -6.8950   -2.7130    0.7920 C   0  0  0  0  0  0  0  0  0  0  0  0
   -6.1680   -0.3570    0.5320 C   0  0  0  0  0  0  0  0  0  0  0  0
   -6.5740   -0.0250    1.8710 C   0  0  0  0  0  0  0  0  0  0  0  0
   -6.2250   -0.8280    2.8070 O   0  0  0  0  0  0  0  0  0  0  0  0
   -7.3650    1.1630    2.2770 C   0  0  2  0  0  0  0  0  0  0  0  0
   -8.8390    0.9800    1.8000 C   0  0  0  0  0  0  0  0  0  0  0  0
   -7.9400    2.1340    1.3610 C   0  0  1  0  0  0  0  0  0  0  0  0
   -8.3790    3.4660    1.9910 C   0  0  0  0  0  0  0  0  0  0  0  0
   -5.5690    0.6040   -0.3010 C   0  0  0  0  0  0  0  0  0  0  0  0
   -0.5120   -0.3560   -3.4860 C   0  0  0  0  0  0  0  0  0  0  0  0
    0.7180   -0.9280   -3.7540 C   0  0  0  0  0  0  0  0  0  0  0  0
    1.1740   -1.0450   -5.0490 O   0  0  0  0  0  0  0  0  0  0  0  0
    0.4610   -0.6100   -6.1730 C   0  0  0  0  0  0  0  0  0  0  0  0
    1.5430   -1.4050   -2.7190 C   0  0  0  0  0  0  0  0  0  0  0  0
    2.7530   -1.9450   -3.1170 O   0  0  0  0  0  0  0  0  0  0  0  0
    3.8500   -1.0130   -3.2790 C   0  0  0  0  0  0  0  0  0  0  0  0
    4.0250   -1.2500    2.5890 C   0  0  0  0  0  0  0  0  0  0  0  0
    5.0650   -0.4950    3.0440 N   0  0  0  0  0  0  0  0  0  0  0  0
    5.4800    0.5170    3.9470 C   0  0  0  0  0  0  0  0  0  0  0  0
    4.7500    1.1360    4.7880 O   0  0  0  0  0  0  0  0  0  0  0  0
  1  2  1  0
  2  3  1  0
  3  4  2  0
  3  5  1  0
  5  6  1  0
  6  7  1  0
  7  8  2  0
  7 45  1  0
  8  9  1  0
  9 10  2  0
  9 44  1  0
 10 11  1  0
 11 12  1  0
 11 43  2  0
 12 13  1  0
 13 14  1  0
 14 15  2  0
 14 16  1  0
 16 17  2  0
 16 40  1  0
 17 18  1  0
 18 19  1  0
 18 36  2  0
 19 20  2  0
 19 21  1  0
 21 22  1  0
 22 23  1  0
 23 24  2  0
 23 35  1  0
 24 25  1  0
 25 26  2  0
 26 27  1  0
 26 28  1  0
 28 29  1  0
 28 35  2  0
 29 30  2  0
 31 29  1  6
 31 32  1  0
 31 33  1  0
 32 33  1  0
 33 34  1  1
 36 37  1  0
 37 38  1  0
 37 40  2  0
 38 39  1  0
 40 41  1  0
 41 42  1  0
 43 44  1  0
 44 45  1  0
 45 46  2  0
M  END
