
     RDKit          3D

 46 50  0  0  0  0  0  0  0  0999 V2000
   -0.5450    6.7500    2.6930 C   0  0  0  0  0  0  0  0  0  0  0  0
   -1.6970    6.3030    1.8000 C   0  0  0  0  0  0  0  0  0  0  0  0
   -1.5060    4.9070    1.5770 O   0  0  0  0  0  0  0  0  0  0  0  0
   -2.3190    4.1270    0.8230 C   0  0  0  0  0  0  0  0  0  0  0  0
   -3.3210    4.6830    0.2800 O   0  0  0  0  0  0  0  0  0  0  0  0
   -2.0440    2.7050    0.6430 C   0  0  0  0  0  0  0  0  0  0  0  0
   -1.0210    2.1580    1.2360 C   0  0  0  0  0  0  0  0  0  0  0  0
   -0.0480    2.7790    2.1120 C   0  0  0  0  0  0  0  0  0  0  0  0
   -0.5400    3.2340    3.3500 C   0  0  0  0  0  0  0  0  0  0  0  0
    0.2730    3.8270    4.2550 C   0  0  0  0  0  0  0  0  0  0  0  0
    1.6120    3.9680    3.9140 C   0  0  0  0  0  0  0  0  0  0  0  0
    2.0950    3.5310    2.7210 C   0  0  0  0  0  0  0  0  0  0  0  0
    1.2660    2.9060    1.7510 C   0  0  0  0  0  0  0  0  0  0  0  0
    1.8270    2.5070    0.5930 O   0  0  0  0  0  0  0  0  0  0  0  0
    1.4140    1.9380   -0.5570 C   0  0  1  0  0  0  0  0  0  0  0  0
    1.9180    2.8050   -1.7320 C   0  0  0  0  0  0  0  0  0  0  0  0
    1.9860    0.5620   -0.7850 C   0  0  0  0  0  0  0  0  0  0  0  0
    1.2330   -0.5020   -1.2180 C   0  0  0  0  0  0  0  0  0  0  0  0
    1.8550   -1.7180   -1.3970 C   0  0  0  0  0  0  0  0  0  0  0  0
    3.1890   -1.8890   -1.1570 N   0  0  0  0  0  0  0  0  0  0  0  0
    3.9300   -0.8750   -0.7400 C   0  0  0  0  0  0  0  0  0  0  0  0
    5.2780   -0.9570   -0.4730 O   0  0  0  0  0  0  0  0  0  0  0  0
    5.9630   -2.1720   -0.6420 C   0  0  0  0  0  0  0  0  0  0  0  0
    5.8500   -2.5790   -2.0650 C   0  0  0  0  0  0  0  0  0  0  0  0
    5.2200   -1.9120   -2.8950 O   0  0  0  0  0  0  0  0  0  0  0  0
    6.5070   -3.7880   -2.4420 N   0  0  0  0  0  0  0  0  0  0  0  0
    6.4570   -4.2400   -3.7890 C   0  0  0  0  0  0  0  0  0  0  0  0
    7.1820   -5.5020   -4.1180 C   0  0  0  0  0  0  0  0  0  0  0  0
    5.8320   -3.6090   -4.6690 O   0  0  0  0  0  0  0  0  0  0  0  0
    3.3230    0.3590   -0.5530 C   0  0  0  0  0  0  0  0  0  0  0  0
   -2.9640    1.9940   -0.2280 C   0  0  0  0  0  0  0  0  0  0  0  0
   -3.9580    2.6020   -0.7610 O   0  0  0  0  0  0  0  0  0  0  0  0
   -2.7950    0.6220   -0.5120 N   0  0  0  0  0  0  0  0  0  0  0  0
   -3.6800   -0.1130   -1.3570 C   0  0  1  0  0  0  0  0  0  0  0  0
   -2.8730   -0.7060   -2.9000 S   0  0  0  0  0  0  0  0  0  0  0  0
   -4.0740   -2.0930   -3.1390 C   0  0  0  0  0  0  0  0  0  0  0  0
   -4.2910   -2.4220   -1.6850 C   0  0  0  0  0  0  0  0  0  0  0  0
   -4.6820   -3.6910   -1.2120 C   0  0  0  0  0  0  0  0  0  0  0  0
   -4.8630   -3.9860    0.1090 C   0  0  0  0  0  0  0  0  0  0  0  0
   -4.6430   -2.9650    1.0050 C   0  0  0  0  0  0  0  0  0  0  0  0
   -4.2620   -1.7220    0.5610 C   0  0  0  0  0  0  0  0  0  0  0  0
   -4.0820   -1.4390   -0.8080 C   0  0  0  0  0  0  0  0  0  0  0  0
   -4.8120   -3.2140    2.3810 O   0  0  0  0  0  0  0  0  0  0  0  0
   -4.6310   -4.5930    2.7370 C   0  0  0  0  0  0  0  0  0  0  0  0
   -5.6650   -5.3710    1.9130 C   0  0  0  0  0  0  0  0  0  0  0  0
   -5.2480   -5.2350    0.5640 O   0  0  0  0  0  0  0  0  0  0  0  0
  1  2  1  0
  2  3  1  0
  3  4  1  0
  4  5  2  0
  4  6  1  0
  6  7  2  3
  6 31  1  0
  7  8  1  0
  8  9  2  0
  8 13  1  0
  9 10  1  0
 10 11  2  0
 11 12  1  0
 12 13  2  0
 13 14  1  0
 14 15  1  0
 15 16  1  6
 15 17  1  0
 17 18  2  0
 17 30  1  0
 18 19  1  0
 19 20  2  0
 20 21  1  0
 21 22  1  0
 21 30  2  0
 22 23  1  0
 23 24  1  0
 24 25  2  0
 24 26  1  0
 26 27  1  0
 27 28  1  0
 27 29  2  0
 31 32  2  0
 31 33  1  0
 34 33  1  1
 34 35  1  0
 34 42  1  0
 35 36  1  0
 36 37  1  0
 37 38  2  0
 37 42  1  0
 38 39  1  0
 39 40  2  0
 39 46  1  0
 40 41  1  0
 40 43  1  0
 41 42  2  0
 43 44  1  0
 44 45  1  0
 45 46  1  0
M  END
