
     RDKit          3D

 35 39  0  0  0  0  0  0  0  0999 V2000
   -4.8760    1.7130   -0.9030 N   0  0  0  0  0  0  0  0  0  0  0  0
   -3.7660    1.4590   -0.7520 C   0  0  0  0  0  0  0  0  0  0  0  0
   -2.3580    1.1190   -0.5410 C   0  0  0  0  0  0  0  0  0  0  0  0
   -1.5520    1.9770   -0.0710 C   0  0  0  0  0  0  0  0  0  0  0  0
   -1.6110    3.4120    0.3820 C   0  0  0  0  0  0  0  0  0  0  0  0
   -2.7100    4.0440    0.6760 C   0  0  0  0  0  0  0  0  0  0  0  0
   -2.9020    5.4160    1.1210 C   0  0  0  0  0  0  0  0  0  0  0  0
   -1.6990    6.1380    1.3100 N   0  0  0  0  0  0  0  0  0  0  0  0
   -0.1970    3.8270    0.3470 C   0  0  0  0  0  0  0  0  0  0  0  0
    0.4530    2.7680   -0.3820 O   0  0  0  0  0  0  0  0  0  0  0  0
   -0.1120    1.6630    0.2270 C   0  0  2  0  0  0  0  0  0  0  0  0
    0.3100    0.3470   -0.1960 C   0  0  0  0  0  0  0  0  0  0  0  0
    1.5740    0.0130   -0.0040 O   0  0  0  0  0  0  0  0  0  0  0  0
    2.0810   -1.1650   -0.3440 C   0  0  0  0  0  0  0  0  0  0  0  0
    3.5110   -1.4310   -0.0880 C   0  0  0  0  0  0  0  0  0  0  0  0
    4.2880   -0.5020    0.2540 O   0  0  0  0  0  0  0  0  0  0  0  0
    3.9970   -2.7450   -0.2330 N   0  0  0  0  0  0  0  0  0  0  0  0
    5.3750   -2.9910   -0.0490 C   0  0  0  0  0  0  0  0  0  0  0  0
    5.8300   -4.3440   -0.1360 C   0  0  0  0  0  0  0  0  0  0  0  0
    7.1400   -4.5680   -0.0120 N   0  0  0  0  0  0  0  0  0  0  0  0
    8.0530   -3.6240    0.1870 C   0  0  0  0  0  0  0  0  0  0  0  0
    7.6100   -2.2910    0.2730 C   0  0  0  0  0  0  0  0  0  0  0  0
    6.3020   -2.0800    0.1480 N   0  0  0  0  0  0  0  0  0  0  0  0
    1.2760   -2.1120   -0.9300 C   0  0  0  0  0  0  0  0  0  0  0  0
   -0.0650   -1.7820   -1.1440 C   0  0  0  0  0  0  0  0  0  0  0  0
   -0.7710   -2.6650   -1.6780 O   0  0  0  0  0  0  0  0  0  0  0  0
   -0.5490   -0.5550   -0.7780 C   0  0  0  0  0  0  0  0  0  0  0  0
   -1.9420   -0.2410   -1.0220 C   0  0  1  0  0  0  0  0  0  0  0  0
   -2.8890   -1.3050   -0.7040 C   0  0  0  0  0  0  0  0  0  0  0  0
   -3.4730   -2.0710   -1.7150 C   0  0  0  0  0  0  0  0  0  0  0  0
   -4.3520   -3.0980   -1.5060 C   0  0  0  0  0  0  0  0  0  0  0  0
   -4.7110   -3.4300   -0.2080 C   0  0  0  0  0  0  0  0  0  0  0  0
   -4.1520   -2.6910    0.8340 C   0  0  0  0  0  0  0  0  0  0  0  0
   -4.6380   -3.1560    2.4690 Cl  0  0  0  0  0  0  0  0  0  0  0  0
   -3.2700   -1.6620    0.5950 C   0  0  0  0  0  0  0  0  0  0  0  0
  1  2  3  0
  2  3  1  0
  3  4  2  0
  3 28  1  0
  4  5  1  0
  4 11  1  0
  5  6  2  3
  5  9  1  0
  6  7  1  0
  7  8  1  0
  9 10  1  0
 11 10  1  6
 11 12  1  0
 12 13  1  0
 12 27  2  0
 13 14  1  0
 14 15  1  0
 14 24  2  0
 15 16  2  0
 15 17  1  0
 17 18  1  0
 18 19  2  0
 18 23  1  0
 19 20  1  0
 20 21  2  0
 21 22  1  0
 22 23  2  0
 24 25  1  0
 25 26  2  0
 25 27  1  0
 27 28  1  0
 28 29  1  1
 29 30  2  0
 29 35  1  0
 30 31  1  0
 31 32  2  0
 32 33  1  0
 33 34  1  0
 33 35  2  0
M  CHG  1   8   1
M  END
