
     RDKit          3D

 35 39  0  0  0  0  0  0  0  0999 V2000
   -4.3500   -6.1880   -0.4900 C   0  0  0  0  0  0  0  0  0  0  0  0
   -3.6170   -4.9170   -0.6240 C   0  0  0  0  0  0  0  0  0  0  0  0
   -2.4300   -4.8800   -1.3440 C   0  0  0  0  0  0  0  0  0  0  0  0
   -1.7420   -3.7010   -1.4720 C   0  0  0  0  0  0  0  0  0  0  0  0
   -2.2640   -2.5420   -0.8620 C   0  0  0  0  0  0  0  0  0  0  0  0
   -3.4310   -2.5840   -0.1590 C   0  0  0  0  0  0  0  0  0  0  0  0
   -4.1060   -3.7840   -0.0420 C   0  0  0  0  0  0  0  0  0  0  0  0
   -4.0200   -1.4020    0.4630 C   0  0  2  0  0  0  0  0  0  0  0  0
   -5.3850   -1.1810   -0.0030 N   0  0  0  0  0  0  0  0  0  0  0  0
   -3.1930   -0.1750    0.3480 C   0  0  0  0  0  0  0  0  0  0  0  0
   -3.5960    0.9120    0.9450 C   0  0  0  0  0  0  0  0  0  0  0  0
   -5.1320    0.8040    1.8580 Cl  0  0  0  0  0  0  0  0  0  0  0  0
   -2.9830    2.2150    0.9830 C   0  0  0  0  0  0  0  0  0  0  0  0
   -1.7250    2.6160    1.2170 N   0  0  0  0  0  0  0  0  0  0  0  0
   -1.6720    3.9300    1.1360 N   0  0  0  0  0  0  0  0  0  0  0  0
   -2.9050    4.3760    0.8480 C   0  0  0  0  0  0  0  0  0  0  0  0
   -3.2240    5.8280    0.6790 C   0  0  0  0  0  0  0  0  0  0  0  0
   -3.6640    3.3470    0.7630 O   0  0  0  0  0  0  0  0  0  0  0  0
   -1.9620   -0.2200   -0.4210 C   0  0  0  0  0  0  0  0  0  0  0  0
   -1.1210    0.8590   -0.6450 O   0  0  0  0  0  0  0  0  0  0  0  0
    0.2670    0.7750   -0.4130 C   0  0  0  0  0  0  0  0  0  0  0  0
    0.9780    1.9310   -0.6910 C   0  0  0  0  0  0  0  0  0  0  0  0
    2.3590    1.9570   -0.4930 C   0  0  0  0  0  0  0  0  0  0  0  0
    3.0520    0.8730   -0.0280 C   0  0  0  0  0  0  0  0  0  0  0  0
    4.4520    0.9020    0.1760 N   0  0  0  0  0  0  0  0  0  0  0  0
    5.3160   -0.1930   -0.2310 C   0  0  0  0  0  0  0  0  0  0  0  0
    6.4200    0.4710   -1.0570 C   0  0  0  0  0  0  0  0  0  0  0  0
    7.2680    1.3920   -0.2550 C   0  0  0  0  0  0  0  0  0  0  0  0
    6.5800    2.0610    0.9020 C   0  0  2  0  0  0  0  0  0  0  0  0
    6.9500    1.5240    2.1230 O   0  0  0  0  0  0  0  0  0  0  0  0
    5.0960    2.0080    0.7940 C   0  0  0  0  0  0  0  0  0  0  0  0
    4.3770    2.9340    1.2450 O   0  0  0  0  0  0  0  0  0  0  0  0
    2.2980   -0.2690    0.2380 C   0  0  0  0  0  0  0  0  0  0  0  0
    0.9290   -0.3090    0.0460 C   0  0  0  0  0  0  0  0  0  0  0  0
   -1.5430   -1.3280   -0.9780 N   0  0  0  0  0  0  0  0  0  0  0  0
  1  2  1  0
  2  3  2  0
  2  7  1  0
  3  4  1  0
  4  5  2  0
  5  6  1  0
  5 35  1  0
  6  7  2  0
  6  8  1  0
  8  9  1  6
  8 10  1  0
 10 11  2  3
 10 19  1  0
 11 12  1  0
 11 13  1  0
 13 14  2  0
 13 18  1  0
 14 15  1  0
 15 16  2  0
 16 17  1  0
 16 18  1  0
 19 20  1  0
 19 35  2  0
 20 21  1  0
 21 22  2  0
 21 34  1  0
 22 23  1  0
 23 24  2  0
 24 25  1  0
 24 33  1  0
 25 26  1  0
 25 31  1  0
 26 27  1  0
 27 28  1  0
 28 29  1  0
 29 30  1  1
 29 31  1  0
 31 32  2  0
 33 34  2  0
M  CHG  1   9   1
M  END
