
     RDKit          3D

 19 20  0  0  0  0  0  0  0  0999 V2000
   -3.0100    2.4720   -2.1170 O   0  0  0  0  0  0  0  0  0  0  0  0
   -1.9890    1.8370   -1.6470 C   0  0  0  0  0  0  0  0  0  0  0  0
   -0.7870    2.1420   -2.1990 O   0  0  0  0  0  0  0  0  0  0  0  0
   -2.2490    0.8810   -0.5910 C   0  0  0  0  0  0  0  0  0  0  0  0
   -3.5690    0.7470   -0.1160 C   0  0  0  0  0  0  0  0  0  0  0  0
   -3.8760   -0.1130    0.9090 C   0  0  0  0  0  0  0  0  0  0  0  0
   -2.8820   -0.8680    1.4960 C   0  0  0  0  0  0  0  0  0  0  0  0
   -1.5900   -0.7370    1.0290 C   0  0  0  0  0  0  0  0  0  0  0  0
   -1.2510    0.1370   -0.0180 C   0  0  0  0  0  0  0  0  0  0  0  0
    0.0840    0.1420   -0.5230 N   0  0  0  0  0  0  0  0  0  0  0  0
    1.2220   -0.1950    0.2730 C   0  0  0  0  0  0  0  0  0  0  0  0
    1.2260   -0.0180    1.6330 C   0  0  0  0  0  0  0  0  0  0  0  0
    2.3130   -0.2350    2.4350 C   0  0  0  0  0  0  0  0  0  0  0  0
    3.4720   -0.6560    1.8260 C   0  0  0  0  0  0  0  0  0  0  0  0
    3.5110   -0.8450    0.4660 C   0  0  0  0  0  0  0  0  0  0  0  0
    2.3780   -0.6160   -0.3420 C   0  0  0  0  0  0  0  0  0  0  0  0
    2.4960   -0.8740   -1.7630 C   0  0  0  0  0  0  0  0  0  0  0  0
    3.6390   -1.2530   -2.1940 O   0  0  0  0  0  0  0  0  0  0  0  0
    1.5300   -0.7650   -2.7290 O   0  0  0  0  0  0  0  0  0  0  0  0
  1  2  2  0
  2  3  1  0
  2  4  1  0
  4  5  2  0
  4  9  1  0
  5  6  1  0
  6  7  2  0
  7  8  1  0
  8  9  2  0
  9 10  1  0
 10 11  1  0
 11 12  2  0
 11 16  1  0
 12 13  1  0
 13 14  2  0
 14 15  1  0
 15 16  2  0
 16 17  1  0
 17 18  2  0
 17 19  1  0
M  END
