
     RDKit          3D

 20 22  0  0  0  0  0  0  0  0999 V2000
    4.3170   -0.1180    2.1580 C   0  0  0  0  0  0  0  0  0  0  0  0
    4.5660    0.1020    0.7100 C   0  0  0  0  0  0  0  0  0  0  0  0
    5.7840    0.3740    0.1530 N   0  0  0  0  0  0  0  0  0  0  0  0
    5.6580    0.4650   -1.1570 N   0  0  0  0  0  0  0  0  0  0  0  0
    4.3710    0.2560   -1.4710 C   0  0  0  0  0  0  0  0  0  0  0  0
    3.6410    0.0200   -0.2990 C   0  0  0  0  0  0  0  0  0  0  0  0
    2.2140   -0.1940   -0.1980 C   0  0  0  0  0  0  0  0  0  0  0  0
    1.6240   -0.8960   -1.1010 O   0  0  0  0  0  0  0  0  0  0  0  0
    1.4280    0.3440    0.8570 N   0  0  0  0  0  0  0  0  0  0  0  0
    0.0510    0.0680    0.8760 N   0  0  0  0  0  0  0  0  0  0  0  0
   -0.7480    0.3730   -0.2430 C   0  0  0  0  0  0  0  0  0  0  0  0
   -0.1600    0.9090   -1.2270 O   0  0  0  0  0  0  0  0  0  0  0  0
   -2.2120    0.0980   -0.2960 C   0  0  0  0  0  0  0  0  0  0  0  0
   -2.8350   -0.4440    0.7220 C   0  0  0  0  0  0  0  0  0  0  0  0
   -4.2340   -0.7840    0.8460 C   0  0  1  0  0  0  0  0  0  0  0  0
   -5.1960    0.4120    0.9650 C   0  0  0  0  0  0  0  0  0  0  0  0
   -5.1720   -0.5030   -0.2120 C   0  0  1  0  0  0  0  0  0  0  0  0
   -4.5170    0.0250   -1.7600 S   0  0  0  0  0  0  0  0  0  0  0  0
   -4.7390   -0.9330   -2.8920 O   0  0  0  0  0  0  0  0  0  0  0  0
   -2.8470    0.4400   -1.5180 N   0  0  0  0  0  0  0  0  0  0  0  0
  1  2  1  0
  2  3  2  0
  2  6  1  0
  3  4  1  0
  4  5  1  0
  5  6  2  0
  6  7  1  0
  7  8  2  0
  7  9  1  0
  9 10  1  0
 10 11  1  0
 11 12  2  0
 11 13  1  0
 13 14  2  0
 13 20  1  0
 14 15  1  0
 15 16  1  1
 15 17  1  0
 17 16  1  1
 17 18  1  0
 18 19  2  0
 18 20  1  1
M  END
