
     RDKit          3D

 25 25  0  0  0  0  0  0  0  0999 V2000
   -2.0410    6.5750    0.1640 C   0  0  0  0  0  0  0  0  0  0  0  0
   -1.4120    5.6080    0.9500 O   0  0  0  0  0  0  0  0  0  0  0  0
   -1.7230    4.0180    0.4170 S   0  0  0  0  0  0  0  0  0  0  0  0
   -2.2140    2.9850    1.7060 O   0  0  0  0  0  0  0  0  0  0  0  0
   -1.2440    1.5700    1.7080 S   0  0  0  0  0  0  0  0  0  0  0  0
   -0.7350    1.1500    0.0380 C   0  0  2  0  0  0  0  0  0  0  0  0
   -2.1500    0.6690   -0.9720 S   0  0  0  0  0  0  0  0  0  0  0  0
   -2.2360   -1.1400   -0.8670 C   0  0  2  0  0  0  0  0  0  0  0  0
   -3.5860   -1.6350   -0.4210 C   0  0  1  0  0  0  0  0  0  0  0  0
   -3.4990   -3.1530   -0.3870 C   0  0  0  0  0  0  0  0  0  0  0  0
   -4.7160   -3.7170    0.0200 O   0  0  0  0  0  0  0  0  0  0  0  0
   -3.9320   -1.1860    0.9750 C   0  0  0  0  0  0  0  0  0  0  0  0
   -3.0330   -1.6310    1.9190 O   0  0  0  0  0  0  0  0  0  0  0  0
   -0.9720   -1.4320    0.4330 S   0  0  0  0  0  0  0  0  0  0  0  0
    0.1810   -0.0690    0.0190 C   0  0  1  0  0  0  0  0  0  0  0  0
    0.6210   -0.2370   -1.4100 C   0  0  0  0  0  0  0  0  0  0  0  0
    1.1980    0.0500    0.9160 O   0  0  0  0  0  0  0  0  0  0  0  0
    2.0050   -1.0550    0.9370 C   0  0  2  0  0  0  0  0  0  0  0  0
    1.8810   -1.5750    2.2560 O   0  0  0  0  0  0  0  0  0  0  0  0
    3.4660   -0.8040    0.7480 C   0  0  2  0  0  0  0  0  0  0  0  0
    4.1120   -2.0430    0.7920 O   0  0  0  0  0  0  0  0  0  0  0  0
    4.0070   -0.0600    1.8030 O   0  0  0  0  0  0  0  0  0  0  0  0
    3.8030   -0.0960   -0.5300 C   0  0  0  0  0  0  0  0  0  0  0  0
    5.3210    0.1030   -0.6200 C   0  0  0  0  0  0  0  0  0  0  0  0
    5.9620   -1.1330   -0.5960 O   0  0  0  0  0  0  0  0  0  0  0  0
  1  2  1  0
  2  3  1  0
  3  4  1  0
  4  5  1  0
  6  5  1  1
  6  7  1  0
  6 15  1  0
  8  7  1  1
  8  9  1  0
  8 14  1  0
  9 10  1  1
  9 12  1  0
 10 11  1  0
 12 13  1  0
 14 15  1  0
 15 16  1  6
 15 17  1  0
 17 18  1  0
 18 19  1  1
 18 20  1  0
 20 21  1  6
 20 22  1  0
 20 23  1  0
 23 24  1  0
 24 25  1  0
M  END
