
     RDKit          3D

 20 22  0  0  0  0  0  0  0  0999 V2000
   -2.4530   -2.8310    0.1340 C   0  0  0  0  0  0  0  0  0  0  0  0
   -2.4180   -1.3740    0.5010 C   0  0  2  0  0  0  0  0  0  0  0  0
   -3.3500   -0.6410   -0.4510 C   0  0  0  0  0  0  0  0  0  0  0  0
   -3.3920    0.8140   -0.0090 C   0  0  1  0  0  0  0  0  0  0  0  0
   -4.1990    1.8190   -0.7520 C   0  0  0  0  0  0  0  0  0  0  0  0
   -5.0140    1.2900    0.7010 S   0  0  0  0  0  0  0  0  0  0  0  0
   -5.0250    2.1550    1.9380 O   0  0  0  0  0  0  0  0  0  0  0  0
   -1.0300   -0.9970    0.3730 N   0  0  0  0  0  0  0  0  0  0  0  0
   -0.4650   -0.1040   -0.5280 C   0  0  0  0  0  0  0  0  0  0  0  0
   -1.1590    0.4800   -1.3810 O   0  0  0  0  0  0  0  0  0  0  0  0
    0.9910    0.1320   -0.4410 C   0  0  0  0  0  0  0  0  0  0  0  0
    1.8490   -0.4510    0.4510 C   0  0  0  0  0  0  0  0  0  0  0  0
    3.1050    0.0250    0.2080 N   0  0  0  0  0  0  0  0  0  0  0  0
    3.0250    0.8800   -0.8090 C   0  0  0  0  0  0  0  0  0  0  0  0
    1.7140    0.9440   -1.2090 N   0  0  0  0  0  0  0  0  0  0  0  0
    4.2220    1.5810   -1.3290 C   0  0  0  0  0  0  0  0  0  0  0  0
    5.4360    1.2480   -0.6390 N   0  0  0  0  0  0  0  0  0  0  0  0
    5.4920    0.3320    0.4430 C   0  0  0  0  0  0  0  0  0  0  0  0
    6.6190    0.0960    0.9980 O   0  0  0  0  0  0  0  0  0  0  0  0
    4.3030   -0.2920    0.8750 N   0  0  0  0  0  0  0  0  0  0  0  0
  2  1  1  6
  2  3  1  0
  2  8  1  0
  4  3  1  6
  4  5  1  0
  4  6  1  0
  6  5  1  6
  6  7  2  0
  8  9  1  0
  9 10  2  0
  9 11  1  0
 11 12  2  0
 11 15  1  0
 12 13  1  0
 13 14  1  0
 13 20  1  0
 14 15  2  0
 14 16  1  0
 16 17  1  0
 17 18  1  0
 18 19  2  0
 18 20  1  0
M  END
