
     RDKit          3D

 26 25  0  0  0  0  0  0  0  0999 V2000
   -3.4410   -4.4890    1.9890 C   0  0  0  0  0  0  0  0  0  0  0  0
   -2.5740   -3.4130    1.6670 O   0  0  0  0  0  0  0  0  0  0  0  0
   -2.1820   -2.4500    2.5900 C   0  0  0  0  0  0  0  0  0  0  0  0
   -2.6990   -2.6550    3.7570 O   0  0  0  0  0  0  0  0  0  0  0  0
   -1.1620   -1.0980    2.4080 S   0  0  0  0  0  0  0  0  0  0  0  0
   -0.2690   -0.6080    0.6820 S   0  0  1  0  0  0  0  0  0  0  0  0
   -1.1900    1.1710    0.2280 S   0  0  0  0  0  0  0  0  0  0  0  0
   -0.3110    2.5290    0.0810 O   0  0  0  0  0  0  0  0  0  0  0  0
   -0.9330    3.4510   -0.6270 O   0  0  0  0  0  0  0  0  0  0  0  0
   -2.2560    3.4990   -0.2050 C   0  0  0  0  0  0  0  0  0  0  0  0
   -3.0290    4.5370   -0.9780 C   0  0  0  0  0  0  0  0  0  0  0  0
   -2.4990    5.8150   -0.8240 O   0  0  0  0  0  0  0  0  0  0  0  0
    1.6930   -0.8370    1.2040 S   0  0  0  0  0  0  0  0  0  0  0  0
    2.7470    0.5210    1.2750 C   0  0  2  0  0  0  0  0  0  0  0  0
    2.3220    1.5090    2.3750 C   0  0  0  0  0  0  0  0  0  0  0  0
    2.3550    0.8450    3.6140 O   0  0  0  0  0  0  0  0  0  0  0  0
    3.0930    1.2460    0.0000 C   0  0  0  0  0  0  0  0  0  0  0  0
    3.7920    0.2900   -0.9560 C   0  0  0  0  0  0  0  0  0  0  0  0
    4.2170    1.1130   -2.5100 S   0  0  0  0  0  0  0  0  0  0  0  0
    5.4000    2.3120   -2.1750 O   0  0  0  0  0  0  0  0  0  0  0  0
   -0.4000   -1.5180   -0.8150 C   0  0  2  0  0  0  0  0  0  0  0  0
    0.4200   -0.8010   -1.8820 C   0  0  0  0  0  0  0  0  0  0  0  0
   -1.8270   -1.5260   -1.3650 C   0  0  0  0  0  0  0  0  0  0  0  0
   -1.8930   -2.2440   -2.5350 O   0  0  0  0  0  0  0  0  0  0  0  0
    0.1350   -2.9200   -0.7320 C   0  0  0  0  0  0  0  0  0  0  0  0
   -0.0290   -3.5300   -1.9810 O   0  0  0  0  0  0  0  0  0  0  0  0
  1  2  1  0
  2  3  1  0
  3  4  2  0
  3  5  1  0
  6  5  1  1
  6  7  1  0
  6 13  1  0
  6 21  1  0
  7  8  1  0
  8  9  1  0
  9 10  1  0
 10 11  1  0
 11 12  1  0
 13 14  1  0
 14 15  1  1
 14 17  1  0
 15 16  1  0
 17 18  1  0
 18 19  1  0
 19 20  1  0
 21 22  1  6
 21 23  1  0
 21 25  1  0
 23 24  1  0
 25 26  1  0
M  END
