
     RDKit          3D

 20 22  0  0  0  0  0  0  0  0999 V2000
    5.2770    0.4070   -1.2910 C   0  0  0  0  0  0  0  0  0  0  0  0
    3.7660    0.2730   -1.4110 C   0  0  0  0  0  0  0  0  0  0  0  0
    3.2370   -0.5950   -0.3280 C   0  0  1  0  0  0  0  0  0  0  0  0
    3.5970    0.0660    1.3500 S   0  0  0  0  0  0  0  0  0  0  0  0
    2.0650   -0.5410    2.1710 C   0  0  0  0  0  0  0  0  0  0  0  0
    1.5050   -1.4110    1.0570 C   0  0  0  0  0  0  0  0  0  0  0  0
    1.7280   -0.6500   -0.2380 C   0  0  1  0  0  0  0  0  0  0  0  0
    1.1170    0.6340   -0.1480 N   0  0  0  0  0  0  0  0  0  0  0  0
   -0.3060    0.7280   -0.0690 C   0  0  0  0  0  0  0  0  0  0  0  0
   -0.9220    1.9150    0.0170 N   0  0  0  0  0  0  0  0  0  0  0  0
   -2.2560    1.9630    0.0890 C   0  0  0  0  0  0  0  0  0  0  0  0
   -2.9150    3.1880    0.1790 O   0  0  0  0  0  0  0  0  0  0  0  0
   -3.0320    0.8440    0.0790 C   0  0  0  0  0  0  0  0  0  0  0  0
   -2.4000   -0.3850   -0.0100 C   0  0  0  0  0  0  0  0  0  0  0  0
   -1.0730   -0.3830   -0.0790 N   0  0  0  0  0  0  0  0  0  0  0  0
   -3.1970   -1.5140   -0.0190 O   0  0  0  0  0  0  0  0  0  0  0  0
   -4.5870   -1.5040    0.2190 C   0  0  0  0  0  0  0  0  0  0  0  0
   -5.2000   -0.2550   -0.1830 N   0  0  0  0  0  0  0  0  0  0  0  0
   -5.5490   -0.2690   -1.4910 O   0  0  0  0  0  0  0  0  0  0  0  0
   -4.4460    0.8500    0.1540 N   0  0  0  0  0  0  0  0  0  0  0  0
  1  2  1  0
  3  2  1  6
  3  4  1  0
  3  7  1  0
  4  5  1  0
  5  6  1  0
  6  7  1  0
  7  8  1  1
  8  9  1  0
  9 10  2  0
  9 15  1  0
 10 11  1  0
 11 12  1  0
 11 13  2  0
 13 14  1  0
 13 20  1  0
 14 15  2  0
 14 16  1  0
 16 17  1  0
 17 18  1  0
 18 19  1  0
 18 20  1  0
M  END
