
     RDKit          3D

 26 26  0  0  0  0  0  0  0  0999 V2000
   -4.8500   -0.2270   -1.6370 C   0  0  0  0  0  0  0  0  0  0  0  0
   -3.2230   -0.5960   -1.5030 S   0  0  2  0  0  0  0  0  0  0  0  0
   -2.6720   -0.0450   -2.7150 O   0  0  0  0  0  0  0  0  0  0  0  0
   -3.1570   -2.0010   -1.8070 O   0  0  0  0  0  0  0  0  0  0  0  0
   -2.4740    0.0820   -0.0700 S   0  0  0  0  0  0  0  0  0  0  0  0
   -1.7900   -1.2810    0.5880 O   0  0  0  0  0  0  0  0  0  0  0  0
   -3.5210   -0.0970    1.1750 C   0  0  1  0  0  0  0  0  0  0  0  0
   -4.7340    0.6710    1.1960 O   0  0  0  0  0  0  0  0  0  0  0  0
   -4.1490   -1.3580    1.3810 O   0  0  0  0  0  0  0  0  0  0  0  0
   -2.6900    1.4310   -0.0000 O   0  0  0  0  0  0  0  0  0  0  0  0
   -2.8320    2.2470   -1.0620 C   0  0  0  0  0  0  0  0  0  0  0  0
   -1.4750    2.5910   -1.6600 C   0  0  0  0  0  0  0  0  0  0  0  0
   -0.5270    1.9560   -0.7170 C   0  0  1  0  0  0  0  0  0  0  0  0
   -0.5190    2.8000    0.4250 O   0  0  0  0  0  0  0  0  0  0  0  0
   -0.9550    0.5140   -0.3120 C   0  0  2  0  0  0  0  0  0  0  0  0
   -0.0810   -0.4950   -1.5390 S   0  0  0  0  0  0  0  0  0  0  0  0
    0.2010   -2.1870   -0.9880 C   0  0  0  0  0  0  0  0  0  0  0  0
    1.2820   -2.3340    0.4300 S   0  0  0  0  0  0  0  0  0  0  0  0
    2.9750   -1.8840   -0.0300 C   0  0  1  0  0  0  0  0  0  0  0  0
    3.0200   -0.4230   -0.3580 C   0  0  0  0  0  0  0  0  0  0  0  0
    4.4080    0.0590   -0.7310 C   0  0  0  0  0  0  0  0  0  0  0  0
    4.3160    1.4220   -1.0040 O   0  0  0  0  0  0  0  0  0  0  0  0
    4.1800   -2.4700    1.1390 S   0  0  0  0  0  0  0  0  0  0  0  0
    4.1220   -1.7990    2.7780 C   0  0  0  0  0  0  0  0  0  0  0  0
    4.5450   -0.3620    2.8150 C   0  0  0  0  0  0  0  0  0  0  0  0
    4.4620    0.0380    4.1630 O   0  0  0  0  0  0  0  0  0  0  0  0
  2  1  1  1
  2  3  2  0
  2  4  2  0
  2  5  1  0
  5  6  2  0
  5  7  1  0
  5 10  1  0
  5 15  1  0
  7  8  1  6
  7  9  1  0
 10 11  1  0
 11 12  1  0
 12 13  1  0
 13 14  1  1
 13 15  1  0
 15 16  1  6
 16 17  1  0
 17 18  1  0
 18 19  1  0
 19 20  1  1
 19 23  1  0
 20 21  1  0
 21 22  1  0
 23 24  1  0
 24 25  1  0
 25 26  1  0
M  END
