
     RDKit          3D

 23 23  0  0  0  0  0  0  0  0999 V2000
    6.3570   -2.3520    0.1450 C   0  0  0  0  0  0  0  0  0  0  0  0
    5.1700   -1.4150   -0.0190 C   0  0  0  0  0  0  0  0  0  0  0  0
    4.0270   -2.1240    0.3750 O   0  0  0  0  0  0  0  0  0  0  0  0
    2.6780   -1.0950    0.2020 S   0  0  0  0  0  0  0  0  0  0  0  0
    1.6050   -1.3670    1.5130 O   0  0  0  0  0  0  0  0  0  0  0  0
    0.5820   -0.0090    1.7410 S   0  0  0  0  0  0  0  0  0  0  0  0
   -0.1840    0.4730    0.1280 C   0  0  2  0  0  0  0  0  0  0  0  0
   -0.9720    1.5520    0.4110 O   0  0  0  0  0  0  0  0  0  0  0  0
   -0.6390    2.7490   -0.1280 C   0  0  1  0  0  0  0  0  0  0  0  0
   -0.5970    2.8460   -1.4920 O   0  0  0  0  0  0  0  0  0  0  0  0
   -1.6660    3.7750    0.3840 C   0  0  0  0  0  0  0  0  0  0  0  0
   -0.8560    5.0410    0.2080 C   0  0  0  0  0  0  0  0  0  0  0  0
    0.4640    4.7310    0.3680 O   0  0  0  0  0  0  0  0  0  0  0  0
    0.6130    3.3700    0.4650 C   0  0  0  0  0  0  0  0  0  0  0  0
   -1.0270   -0.7080   -0.3110 C   0  0  2  0  0  0  0  0  0  0  0  0
   -1.6580   -0.3070   -1.6510 C   0  0  0  0  0  0  0  0  0  0  0  0
   -0.6200   -0.0520   -2.5360 O   0  0  0  0  0  0  0  0  0  0  0  0
   -2.0990   -0.9130    0.7310 C   0  0  2  0  0  0  0  0  0  0  0  0
   -1.4380   -1.1590    1.9400 O   0  0  0  0  0  0  0  0  0  0  0  0
   -3.0950   -1.9700    0.4230 C   0  0  0  0  0  0  0  0  0  0  0  0
   -2.5800   -3.3510    0.2520 C   0  0  2  0  0  0  0  0  0  0  0  0
   -1.6660   -3.4260   -0.7880 O   0  0  0  0  0  0  0  0  0  0  0  0
   -3.6450   -4.2050   -0.1190 O   0  0  0  0  0  0  0  0  0  0  0  0
  1  2  1  0
  2  3  1  0
  3  4  1  0
  4  5  1  0
  5  6  1  0
  6  7  1  0
  7  8  1  1
  7 15  1  0
  8  9  1  0
  9 10  1  6
  9 11  1  0
  9 14  1  0
 11 12  1  0
 12 13  1  0
 13 14  1  0
 15 16  1  6
 15 18  1  0
 16 17  1  0
 18 19  1  1
 18 20  1  0
 20 21  1  0
 21 22  1  6
 21 23  1  0
M  END
