
     RDKit          3D

 20 21  0  0  0  0  0  0  0  0999 V2000
   -5.0020    1.2590    0.4740 N   0  0  0  0  0  0  0  0  0  0  0  0
   -3.9120    0.3500    0.7120 C   0  0  0  0  0  0  0  0  0  0  0  0
   -4.0240   -0.5220    1.5700 O   0  0  0  0  0  0  0  0  0  0  0  0
   -2.7060    0.5820   -0.1560 C   0  0  1  0  0  0  0  0  0  0  0  0
   -2.2700    1.9920    0.1820 C   0  0  0  0  0  0  0  0  0  0  0  0
   -0.9430    2.2880   -0.0720 O   0  0  0  0  0  0  0  0  0  0  0  0
    0.0520    1.3640    0.1430 C   0  0  0  0  0  0  0  0  0  0  0  0
    1.2590    1.6910    0.3020 O   0  0  0  0  0  0  0  0  0  0  0  0
   -0.3120   -0.0500    0.1870 C   0  0  0  0  0  0  0  0  0  0  0  0
    0.6330   -0.9560    0.3560 C   0  0  0  0  0  0  0  0  0  0  0  0
    1.9770   -0.5370    0.4910 N   0  0  0  0  0  0  0  0  0  0  0  0
    2.9100   -0.7250   -0.5900 C   0  0  0  0  0  0  0  0  0  0  0  0
    4.2850   -0.2230   -0.2280 C   0  0  0  0  0  0  0  0  0  0  0  0
    4.2860    1.1180    0.0740 O   0  0  0  0  0  0  0  0  0  0  0  0
    5.4930    1.5100    0.3820 O   0  0  0  0  0  0  0  0  0  0  0  0
    0.3550   -2.3920    0.4120 C   0  0  0  0  0  0  0  0  0  0  0  0
   -0.9990   -2.7030    0.1880 O   0  0  0  0  0  0  0  0  0  0  0  0
   -2.0100   -1.7680    0.0100 C   0  0  0  0  0  0  0  0  0  0  0  0
   -3.1910   -2.2370   -0.1420 O   0  0  0  0  0  0  0  0  0  0  0  0
   -1.6900   -0.4060    0.0060 N   0  0  0  0  0  0  0  0  0  0  0  0
  1  2  1  0
  2  3  2  0
  4  2  1  1
  4  5  1  0
  4 20  1  0
  5  6  1  0
  6  7  1  0
  7  8  2  0
  7  9  1  0
  9 10  2  0
  9 20  1  0
 10 11  1  0
 10 16  1  0
 11 12  1  0
 12 13  1  0
 13 14  1  0
 14 15  1  0
 16 17  1  0
 17 18  1  0
 18 19  2  0
 18 20  1  0
M  END
