
     RDKit          3D

 20 20  0  0  0  0  0  0  0  0999 V2000
   -3.9690    2.7300    0.2480 C   0  0  0  0  0  0  0  0  0  0  0  0
   -4.0230    1.3500    0.0490 O   0  0  0  0  0  0  0  0  0  0  0  0
   -2.9930    0.7630    0.5750 O   0  0  0  0  0  0  0  0  0  0  0  0
   -3.0000   -0.5980    0.1590 C   0  0  0  0  0  0  0  0  0  0  0  0
   -1.7920   -1.2720    0.7780 C   0  0  1  0  0  0  0  0  0  0  0  0
   -2.0110   -1.2230    2.2840 C   0  0  0  0  0  0  0  0  0  0  0  0
   -1.6700   -2.6470    0.2390 C   0  0  0  0  0  0  0  0  0  0  0  0
   -0.3140   -2.7740   -0.0620 O   0  0  0  0  0  0  0  0  0  0  0  0
    0.0600   -1.5540   -0.4510 C   0  0  2  0  0  0  0  0  0  0  0  0
   -0.2970   -1.2780   -1.8830 C   0  0  0  0  0  0  0  0  0  0  0  0
    1.4840   -1.3010   -0.3150 N   0  0  0  0  0  0  0  0  0  0  0  0
    1.9480   -0.0450   -0.4920 C   0  0  0  0  0  0  0  0  0  0  0  0
    0.9720    0.8390   -0.8070 O   0  0  0  0  0  0  0  0  0  0  0  0
    3.0920    0.5810   -0.4410 N   0  0  0  0  0  0  0  0  0  0  0  0
    4.2010    1.4060   -0.4260 C   0  0  0  0  0  0  0  0  0  0  0  0
    3.8290    2.5860   -0.7540 O   0  0  0  0  0  0  0  0  0  0  0  0
    5.4180    0.8750   -0.0730 N   0  0  0  0  0  0  0  0  0  0  0  0
    6.2760    2.3970   -0.0050 C   0  0  0  0  0  0  0  0  0  0  0  0
    5.6270    3.3450   -0.2040 O   0  0  0  0  0  0  0  0  0  0  0  0
   -0.6240   -0.6440    0.3980 O   0  0  0  0  0  0  0  0  0  0  0  0
  1  2  1  0
  2  3  1  0
  3  4  1  0
  4  5  1  0
  5  6  1  1
  5  7  1  0
  5 20  1  0
  7  8  1  0
  8  9  1  0
  9 10  1  6
  9 11  1  0
  9 20  1  0
 11 12  1  0
 12 13  2  0
 12 14  1  0
 14 15  1  0
 15 16  2  0
 15 17  1  0
 17 18  1  0
 18 19  2  0
M  END
