
     RDKit          3D

 20 21  0  0  0  0  0  0  0  0999 V2000
   -3.5910    2.7760   -0.0070 O   0  0  0  0  0  0  0  0  0  0  0  0
   -3.7410    1.5150   -0.0030 C   0  0  0  0  0  0  0  0  0  0  0  0
   -2.6170    0.7100   -0.2690 N   0  0  0  0  0  0  0  0  0  0  0  0
   -2.7570   -0.7020   -0.2700 C   0  0  0  0  0  0  0  0  0  0  0  0
   -1.7680   -1.4920   -0.5060 N   0  0  0  0  0  0  0  0  0  0  0  0
   -0.4810   -0.9050   -0.7770 C   0  0  0  0  0  0  0  0  0  0  0  0
    0.6010   -1.9550   -0.9250 C   0  0  0  0  0  0  0  0  0  0  0  0
    1.8540   -1.3670   -1.1890 O   0  0  0  0  0  0  0  0  0  0  0  0
    2.3830   -0.4870   -0.2640 C   0  0  0  0  0  0  0  0  0  0  0  0
    3.2460    0.4030   -0.6810 C   0  0  0  0  0  0  0  0  0  0  0  0
    3.8500    1.3690    0.2460 C   0  0  2  0  0  0  0  0  0  0  0  0
    5.2490    1.2270    0.2230 O   0  0  0  0  0  0  0  0  0  0  0  0
    5.8370    2.3410   -0.1730 O   0  0  0  0  0  0  0  0  0  0  0  0
    3.4250    1.2460    1.5650 O   0  0  0  0  0  0  0  0  0  0  0  0
    2.5330    0.3180    1.9670 N   0  0  0  0  0  0  0  0  0  0  0  0
    2.0050   -0.5280    1.1550 C   0  0  0  0  0  0  0  0  0  0  0  0
   -4.0900   -1.2320    0.0110 C   0  0  0  0  0  0  0  0  0  0  0  0
   -4.4290   -2.3650   -0.3480 O   0  0  0  0  0  0  0  0  0  0  0  0
   -5.0430   -0.3600    0.7510 C   0  0  0  0  0  0  0  0  0  0  0  0
   -4.9770    0.9600    0.2550 O   0  0  0  0  0  0  0  0  0  0  0  0
  1  2  2  0
  2  3  1  0
  2 20  1  0
  3  4  1  0
  4  5  2  3
  4 17  1  0
  5  6  1  0
  6  7  1  0
  7  8  1  0
  8  9  1  0
  9 10  2  0
  9 16  1  0
 10 11  1  0
 11 12  1  1
 11 14  1  0
 12 13  1  0
 14 15  1  0
 15 16  2  0
 17 18  2  0
 17 19  1  0
 19 20  1  0
M  END
