
     RDKit          3D

 20 20  0  0  0  0  0  0  0  0999 V2000
    0.6680    1.4080   -2.1490 C   0  0  0  0  0  0  0  0  0  0  0  0
    1.2070    0.7240   -0.8620 C   0  0  2  0  0  0  0  0  0  0  0  0
    2.5300    0.1870   -1.2530 C   0  0  0  0  0  0  0  0  0  0  0  0
    3.2950   -0.5120   -0.2130 C   0  0  0  0  0  0  0  0  0  0  0  0
    4.5620   -1.1040   -0.5340 N   0  0  0  0  0  0  0  0  0  0  0  0
    2.8850   -0.6120    0.9490 O   0  0  0  0  0  0  0  0  0  0  0  0
    0.2690   -0.1490   -0.3860 O   0  0  0  0  0  0  0  0  0  0  0  0
   -0.4220    0.1970    0.7450 C   0  0  2  0  0  0  0  0  0  0  0  0
   -0.2040   -0.7780    1.8920 C   0  0  0  0  0  0  0  0  0  0  0  0
   -0.4410   -2.1640    1.4880 C   0  0  0  0  0  0  0  0  0  0  0  0
    0.2780   -3.0920    1.9990 N   0  0  0  0  0  0  0  0  0  0  0  0
    0.0600   -4.4030    1.6220 O   0  0  0  0  0  0  0  0  0  0  0  0
   -1.4320   -2.5230    0.5570 O   0  0  0  0  0  0  0  0  0  0  0  0
   -2.6530   -1.9710    0.4810 O   0  0  0  0  0  0  0  0  0  0  0  0
   -2.5230   -0.7860   -0.2390 C   0  0  0  0  0  0  0  0  0  0  0  0
   -1.9160    0.3400    0.5010 C   0  0  2  0  0  0  0  0  0  0  0  0
   -2.2060    1.5630   -0.1600 N   0  0  0  0  0  0  0  0  0  0  0  0
   -2.8430    2.6180    0.5320 C   0  0  0  0  0  0  0  0  0  0  0  0
   -3.1410    2.4270    1.7520 O   0  0  0  0  0  0  0  0  0  0  0  0
   -3.1580    3.8450   -0.0520 O   0  0  0  0  0  0  0  0  0  0  0  0
  2  1  1  6
  2  3  1  0
  2  7  1  0
  3  4  1  0
  4  5  1  0
  4  6  2  0
  8  7  1  6
  8  9  1  0
  8 16  1  0
  9 10  1  0
 10 11  2  3
 10 13  1  0
 11 12  1  0
 13 14  1  0
 14 15  1  0
 15 16  1  0
 16 17  1  6
 17 18  1  0
 18 19  2  0
 18 20  1  0
M  END
