
     RDKit          3D

 21 22  0  0  0  0  0  0  0  0999 V2000
   -1.8700   -3.9880    0.4850 O   0  0  0  0  0  0  0  0  0  0  0  0
   -1.4950   -3.2950   -0.4920 C   0  0  0  0  0  0  0  0  0  0  0  0
   -1.3230   -1.9440   -0.3230 O   0  0  0  0  0  0  0  0  0  0  0  0
   -1.5680   -1.3570    0.9430 C   0  0  0  0  0  0  0  0  0  0  0  0
   -1.2910    0.1250    0.8000 C   0  0  1  0  0  0  0  0  0  0  0  0
    0.1140    0.3370    0.3920 C   0  0  0  0  0  0  0  0  0  0  0  0
    1.1390    0.0130    1.0880 N   0  0  0  0  0  0  0  0  0  0  0  0
    2.4700    0.2450    0.6370 C   0  0  0  0  0  0  0  0  0  0  0  0
    3.1310    1.3050    1.0060 N   0  0  0  0  0  0  0  0  0  0  0  0
    4.4160    1.5390    0.5780 O   0  0  0  0  0  0  0  0  0  0  0  0
    4.8700    0.8020   -0.5430 C   0  0  0  0  0  0  0  0  0  0  0  0
    4.4980   -0.6610   -0.2670 C   0  0  0  0  0  0  0  0  0  0  0  0
    3.0710   -0.6780   -0.2090 O   0  0  0  0  0  0  0  0  0  0  0  0
    0.1710    0.9530   -0.8880 N   0  0  0  0  0  0  0  0  0  0  0  0
   -1.1330    1.3640   -1.2180 C   0  0  0  0  0  0  0  0  0  0  0  0
   -1.4320    2.1920   -2.1110 O   0  0  0  0  0  0  0  0  0  0  0  0
   -2.0830    0.6620   -0.3450 C   0  0  2  0  0  0  0  0  0  0  0  0
   -3.0550    1.6160    0.0780 O   0  0  0  0  0  0  0  0  0  0  0  0
   -4.3780    1.4240   -0.2220 C   0  0  0  0  0  0  0  0  0  0  0  0
   -4.7600    0.4130   -0.8690 O   0  0  0  0  0  0  0  0  0  0  0  0
   -5.3660    2.3390    0.1760 O   0  0  0  0  0  0  0  0  0  0  0  0
  1  2  2  0
  2  3  1  0
  3  4  1  0
  5  4  1  6
  5  6  1  0
  5 17  1  0
  6  7  2  3
  6 14  1  0
  7  8  1  0
  8  9  2  0
  8 13  1  0
  9 10  1  0
 10 11  1  0
 11 12  1  0
 12 13  1  0
 14 15  1  0
 15 16  2  0
 15 17  1  0
 17 18  1  1
 18 19  1  0
 19 20  2  0
 19 21  1  0
M  END
