
     RDKit          3D

 19 20  0  0  0  0  0  0  0  0999 V2000
   -2.4230    2.2030   -0.6820 N   0  0  0  0  0  0  0  0  0  0  0  0
   -2.3030    0.7660   -0.5580 C   0  0  1  0  0  0  0  0  0  0  0  0
   -0.8760    0.4760   -0.1400 C   0  0  0  0  0  0  0  0  0  0  0  0
   -0.5170   -0.9040   -0.1000 N   0  0  0  0  0  0  0  0  0  0  0  0
    0.8470   -1.1940    0.1100 C   0  0  0  0  0  0  0  0  0  0  0  0
    1.0790   -2.4940    0.0980 O   0  0  0  0  0  0  0  0  0  0  0  0
    1.9710   -0.3420    0.3260 C   0  0  0  0  0  0  0  0  0  0  0  0
    2.0810    0.9450    0.4020 C   0  0  0  0  0  0  0  0  0  0  0  0
    3.5040    1.3200    0.6420 C   0  0  0  0  0  0  0  0  0  0  0  0
    3.9680    2.4750    0.7680 O   0  0  0  0  0  0  0  0  0  0  0  0
    4.1810    0.0890    0.6910 N   0  0  0  0  0  0  0  0  0  0  0  0
    3.3460   -0.8570    0.5170 C   0  0  0  0  0  0  0  0  0  0  0  0
    3.7730   -2.1950    0.5220 O   0  0  0  0  0  0  0  0  0  0  0  0
   -1.3950   -2.0600   -0.2460 C   0  0  0  0  0  0  0  0  0  0  0  0
   -0.8470   -3.0450   -0.7720 O   0  0  0  0  0  0  0  0  0  0  0  0
   -2.7290   -2.1210    0.1460 O   0  0  0  0  0  0  0  0  0  0  0  0
   -3.5780   -1.1300    0.5620 O   0  0  0  0  0  0  0  0  0  0  0  0
   -3.2950    0.2350    0.3950 C   0  0  0  0  0  0  0  0  0  0  0  0
   -3.9460    1.0500    1.1190 O   0  0  0  0  0  0  0  0  0  0  0  0
  2  1  1  1
  2  3  1  0
  2 18  1  0
  3  4  1  0
  4  5  1  0
  4 14  1  0
  5  6  2  0
  5  7  1  0
  7  8  2  0
  7 12  1  0
  8  9  1  0
  9 10  2  0
  9 11  1  0
 11 12  2  0
 12 13  1  0
 14 15  2  0
 14 16  1  0
 16 17  1  0
 17 18  1  0
 18 19  2  0
M  END
