
     RDKit          3D

 20 20  0  0  0  0  0  0  0  0999 V2000
   -4.9990    1.7840   -1.2480 C   0  0  0  0  0  0  0  0  0  0  0  0
   -4.2130    1.0090   -0.5220 C   0  0  0  0  0  0  0  0  0  0  0  0
   -4.7790    0.2720    0.5800 C   0  0  0  0  0  0  0  0  0  0  0  0
   -5.9900    0.3450    0.8680 O   0  0  0  0  0  0  0  0  0  0  0  0
   -3.9640   -0.5570    1.3650 O   0  0  0  0  0  0  0  0  0  0  0  0
   -2.7900    0.9140   -0.8500 C   0  0  0  0  0  0  0  0  0  0  0  0
   -2.3110    1.5610   -1.8120 O   0  0  0  0  0  0  0  0  0  0  0  0
   -1.9710    0.0980   -0.0820 O   0  0  0  0  0  0  0  0  0  0  0  0
   -0.5970    0.0420   -0.4430 C   0  0  0  0  0  0  0  0  0  0  0  0
    0.1640   -0.8610    0.4510 C   0  0  0  0  0  0  0  0  0  0  0  0
   -0.4670   -1.4380    1.3750 O   0  0  0  0  0  0  0  0  0  0  0  0
    1.5430   -1.0340    0.2330 N   0  0  0  0  0  0  0  0  0  0  0  0
    2.1810   -0.3340   -0.8480 C   0  0  0  0  0  0  0  0  0  0  0  0
    3.4930    0.2460   -0.4150 C   0  0  1  0  0  0  0  0  0  0  0  0
    3.3660    1.1670    0.6890 N   0  0  0  0  0  0  0  0  0  0  0  0
    4.3520   -0.8760    0.0420 C   0  0  0  0  0  0  0  0  0  0  0  0
    5.5360   -1.0030   -0.3560 O   0  0  0  0  0  0  0  0  0  0  0  0
    3.7710   -1.8030    0.9530 N   0  0  0  0  0  0  0  0  0  0  0  0
    2.3360   -1.8810    1.0480 C   0  0  0  0  0  0  0  0  0  0  0  0
    1.8280   -2.6960    1.8470 O   0  0  0  0  0  0  0  0  0  0  0  0
  1  2  2  0
  2  3  1  0
  2  6  1  0
  3  4  2  0
  3  5  1  0
  6  7  2  0
  6  8  1  0
  8  9  1  0
  9 10  1  0
 10 11  2  0
 10 12  1  0
 12 13  1  0
 12 19  1  0
 13 14  1  0
 14 15  1  1
 14 16  1  0
 16 17  2  0
 16 18  1  0
 18 19  1  0
 19 20  2  0
M  END
