
     RDKit          3D

 20 20  0  0  0  0  0  0  0  0999 V2000
   -4.6330    1.1240    0.5400 C   0  0  0  0  0  0  0  0  0  0  0  0
   -3.9090    0.5640    1.6480 O   0  0  0  0  0  0  0  0  0  0  0  0
   -2.5990    0.6700    1.6450 N   0  0  0  0  0  0  0  0  0  0  0  0
   -1.9710    0.0920    0.6370 C   0  0  0  0  0  0  0  0  0  0  0  0
   -0.6560    0.3780    0.8960 N   0  0  0  0  0  0  0  0  0  0  0  0
    0.4020    0.4130    0.0080 C   0  0  0  0  0  0  0  0  0  0  0  0
    0.0030    0.2190   -1.1660 O   0  0  0  0  0  0  0  0  0  0  0  0
    1.7040    0.6520    0.4520 N   0  0  0  0  0  0  0  0  0  0  0  0
    2.7160    0.7190   -0.5320 C   0  0  0  0  0  0  0  0  0  0  0  0
    4.0570    1.0120    0.1240 C   0  0  1  0  0  0  0  0  0  0  0  0
    4.0070    2.2370    0.8220 O   0  0  0  0  0  0  0  0  0  0  0  0
    4.5660   -0.0400    0.8740 O   0  0  0  0  0  0  0  0  0  0  0  0
    5.7290   -0.7380    0.6030 C   0  0  0  0  0  0  0  0  0  0  0  0
    6.3890   -0.3990   -0.4030 O   0  0  0  0  0  0  0  0  0  0  0  0
    6.0920   -1.7660    1.4620 O   0  0  0  0  0  0  0  0  0  0  0  0
   -2.7940   -0.7600   -0.1150 C   0  0  0  0  0  0  0  0  0  0  0  0
   -2.9820   -0.8570   -1.4450 C   0  0  0  0  0  0  0  0  0  0  0  0
   -3.8800   -1.8670   -1.6520 C   0  0  0  0  0  0  0  0  0  0  0  0
   -4.2100   -2.3510   -0.4030 C   0  0  0  0  0  0  0  0  0  0  0  0
   -3.5620   -1.6860    0.4820 O   0  0  0  0  0  0  0  0  0  0  0  0
  1  2  1  0
  2  3  1  0
  3  4  2  3
  4  5  1  0
  4 16  1  0
  5  6  1  0
  6  7  2  0
  6  8  1  0
  8  9  1  0
  9 10  1  0
 10 11  1  1
 10 12  1  0
 12 13  1  0
 13 14  2  0
 13 15  1  0
 16 17  2  0
 16 20  1  0
 17 18  1  0
 18 19  2  0
 19 20  1  0
M  END
