
     RDKit          3D

 10 10  0  0  0  0  0  0  0  0999 V2000
   -1.6950   -1.3340    0.4670 O   0  0  0  0  0  0  0  0  0  0  0  0
   -1.8580    0.0210    0.3550 C   0  0  0  0  0  0  0  0  0  0  0  0
   -0.9030    0.5990   -0.6940 C   0  0  0  0  0  0  0  0  0  0  0  0
    0.5100    0.3310   -0.3180 C   0  0  0  0  0  0  0  0  0  0  0  0
    1.1860   -0.8670   -0.4250 C   0  0  0  0  0  0  0  0  0  0  0  0
    0.5820   -2.3860   -1.0250 Cl  0  0  0  0  0  0  0  0  0  0  0  0
    2.4680   -0.6720    0.0340 C   0  0  0  0  0  0  0  0  0  0  0  0
    2.5860    0.5980    0.4130 O   0  0  0  0  0  0  0  0  0  0  0  0
    1.4200    1.2100    0.2070 C   0  0  0  0  0  0  0  0  0  0  0  0
    1.1050    2.8970    0.5610 Cl  0  0  0  0  0  0  0  0  0  0  0  0
  1  2  1  0
  2  3  1  0
  3  4  1  0
  4  5  1  0
  4  9  2  0
  5  6  1  0
  5  7  2  0
  7  8  1  0
  8  9  1  0
  9 10  1  0
M  END
