
     RDKit          3D

 10 10  0  0  0  0  0  0  0  0999 V2000
   -2.9930   -1.6400   -0.8850 Cl  0  0  0  0  0  0  0  0  0  0  0  0
   -2.8380   -0.2140    0.1730 C   0  0  0  0  0  0  0  0  0  0  0  0
   -1.4570    0.3580   -0.0590 C   0  0  0  0  0  0  0  0  0  0  0  0
   -0.4410   -0.5780    0.2510 O   0  0  0  0  0  0  0  0  0  0  0  0
    0.8690   -0.1490    0.0710 C   0  0  0  0  0  0  0  0  0  0  0  0
    1.3450    1.0690   -0.3710 C   0  0  0  0  0  0  0  0  0  0  0  0
    2.6480    1.0470   -0.3910 O   0  0  0  0  0  0  0  0  0  0  0  0
    3.1270   -0.0960    0.0040 C   0  0  0  0  0  0  0  0  0  0  0  0
    2.0360   -0.8850    0.3070 C   0  0  0  0  0  0  0  0  0  0  0  0
    2.1030   -2.5190    0.8850 Cl  0  0  0  0  0  0  0  0  0  0  0  0
  1  2  1  0
  2  3  1  0
  3  4  1  0
  4  5  1  0
  5  6  2  0
  5  9  1  0
  6  7  1  0
  7  8  1  0
  8  9  2  0
  9 10  1  0
M  END
