
     RDKit          3D

 10  9  0  0  0  0  0  0  0  0999 V2000
   -1.3660   -0.6840    0.9830 C   0  0  0  0  0  0  0  0  0  0  0  0
   -1.1880   -0.1030   -0.3850 C   0  0  1  0  0  0  0  0  0  0  0  0
   -2.4480    0.5640   -0.8970 C   0  0  0  0  0  0  0  0  0  0  0  0
   -0.1590    0.8650   -0.3290 O   0  0  0  0  0  0  0  0  0  0  0  0
    1.1350    0.5590    0.0550 C   0  0  0  0  0  0  0  0  0  0  0  0
    1.7280   -0.6860   -0.4490 C   0  0  0  0  0  0  0  0  0  0  0  0
    3.0230   -0.8630    0.0150 O   0  0  0  0  0  0  0  0  0  0  0  0
    1.7800    1.3640    0.8370 C   0  0  0  0  0  0  0  0  0  0  0  0
    1.0130    2.8280    1.3990 Cl  0  0  0  0  0  0  0  0  0  0  0  0
    3.4080    0.9760    1.3180 Cl  0  0  0  0  0  0  0  0  0  0  0  0
  2  1  1  1
  2  3  1  0
  2  4  1  0
  4  5  1  0
  5  6  1  0
  5  8  2  3
  6  7  1  0
  8  9  1  0
  8 10  1  0
M  END
