
     RDKit          3D

 27 29  0  0  0  0  0  0  0  0999 V2000
   -5.2370    2.4510   -1.2270 C   0  0  0  0  0  0  0  0  0  0  0  0
   -5.3710    1.4790   -0.1660 N   0  0  0  0  0  0  0  0  0  0  0  0
   -6.1390    1.7400    0.9160 C   0  0  0  0  0  0  0  0  0  0  0  0
   -6.2340    0.7840    1.8950 C   0  0  0  0  0  0  0  0  0  0  0  0
   -5.5580   -0.4280    1.7830 C   0  0  0  0  0  0  0  0  0  0  0  0
   -4.7840   -0.6730    0.6780 C   0  0  0  0  0  0  0  0  0  0  0  0
   -4.0710   -1.9360    0.5390 C   0  0  0  0  0  0  0  0  0  0  0  0
   -2.7940   -1.9950    1.1820 N   0  0  0  0  0  0  0  0  0  0  0  0
   -1.6080   -1.3920    0.7050 C   0  0  0  0  0  0  0  0  0  0  0  0
   -1.6720   -0.7510   -0.3690 O   0  0  0  0  0  0  0  0  0  0  0  0
   -0.3340   -1.5300    1.4760 C   0  0  2  0  0  0  0  0  0  0  0  0
   -0.5280   -0.7660    2.7580 C   0  0  0  0  0  0  0  0  0  0  0  0
   -0.3060    0.6750    2.2770 C   0  0  0  0  0  0  0  0  0  0  0  0
    0.9850    0.4560    1.4780 C   0  0  0  0  0  0  0  0  0  0  0  0
    0.7420   -0.8400    0.8220 N   0  0  0  0  0  0  0  0  0  0  0  0
    1.4610   -1.3410   -0.3010 C   0  0  0  0  0  0  0  0  0  0  0  0
    1.1230   -2.4670   -0.7460 O   0  0  0  0  0  0  0  0  0  0  0  0
    2.5720   -0.5840   -0.9440 C   0  0  2  0  0  0  0  0  0  0  0  0
    2.9680   -1.3320   -2.1500 N   0  0  0  0  0  0  0  0  0  0  0  0
    3.8200   -0.5620   -0.0810 C   0  0  0  0  0  0  0  0  0  0  0  0
    4.8700    0.2040   -0.7820 C   0  0  0  0  0  0  0  0  0  0  0  0
    4.9830    1.5780   -0.5830 C   0  0  0  0  0  0  0  0  0  0  0  0
    5.9500    2.3280   -1.2170 C   0  0  0  0  0  0  0  0  0  0  0  0
    6.8430    1.7210   -2.0780 C   0  0  0  0  0  0  0  0  0  0  0  0
    6.7580    0.3710   -2.2950 C   0  0  0  0  0  0  0  0  0  0  0  0
    5.7850   -0.3770   -1.6560 C   0  0  0  0  0  0  0  0  0  0  0  0
   -4.7050    0.2990   -0.2880 C   0  0  0  0  0  0  0  0  0  0  0  0
  1  2  1  0
  2  3  2  0
  2 27  1  0
  3  4  1  0
  4  5  2  0
  5  6  1  0
  6  7  1  0
  6 27  2  0
  7  8  1  0
  8  9  1  0
  9 10  2  0
 11  9  1  6
 11 12  1  0
 11 15  1  0
 12 13  1  0
 13 14  1  0
 14 15  1  0
 15 16  1  0
 16 17  2  0
 16 18  1  0
 18 19  1  6
 18 20  1  0
 20 21  1  0
 21 22  2  0
 21 26  1  0
 22 23  1  0
 23 24  2  0
 24 25  1  0
 25 26  2  0
M  CHG  2   2   1  19   1
M  END
