
     RDKit          3D

  9  9  0  0  0  0  0  0  0  0999 V2000
    0.5590    1.8750    0.8250 O   0  0  0  0  0  0  0  0  0  0  0  0
    0.0640    0.8470    0.0230 C   0  0  1  0  0  0  0  0  0  0  0  0
   -0.8590    1.4470   -0.8560 O   0  0  0  0  0  0  0  0  0  0  0  0
    1.1200    0.2130   -0.8080 C   0  0  0  0  0  0  0  0  0  0  0  0
    2.2400   -0.4060   -0.0390 C   0  0  0  0  0  0  0  0  0  0  0  0
    1.7370   -1.6810    1.0540 Cl  0  0  0  0  0  0  0  0  0  0  0  0
   -0.6980   -0.1770    0.8140 C   0  0  2  0  0  0  0  0  0  0  0  0
   -1.2540   -1.3080    0.0040 C   0  0  0  0  0  0  0  0  0  0  0  0
   -2.1720   -0.3100    0.6830 C   0  0  0  0  0  0  0  0  0  0  0  0
  2  1  1  1
  2  3  1  0
  2  4  1  0
  2  7  1  0
  4  5  1  0
  5  6  1  0
  7  8  1  6
  7  9  1  0
  8  9  1  0
M  END
