
     RDKit          3D

 21 21  0  0  0  0  0  0  0  0999 V2000
    4.1370   -0.9910    1.1420 C   0  0  0  0  0  0  0  0  0  0  0  0
    4.7100   -0.9320   -0.0550 C   0  0  0  0  0  0  0  0  0  0  0  0
    6.1650   -1.8640   -0.3320 Cl  0  0  0  0  0  0  0  0  0  0  0  0
    4.1390   -0.1380   -1.0990 C   0  0  0  0  0  0  0  0  0  0  0  0
    4.6190    0.0170   -2.3220 C   0  0  0  0  0  0  0  0  0  0  0  0
    5.8590   -0.6410   -2.7800 C   0  0  0  0  0  0  0  0  0  0  0  0
    2.9080    0.5690   -0.7790 N   0  0  0  0  0  0  0  0  0  0  0  0
    1.7010   -0.1020   -0.4870 C   0  0  0  0  0  0  0  0  0  0  0  0
    1.6730   -1.3600   -0.5110 O   0  0  0  0  0  0  0  0  0  0  0  0
    0.4740    0.6920   -0.1560 C   0  0  0  0  0  0  0  0  0  0  0  0
   -0.5690   -0.2140    0.0880 O   0  0  0  0  0  0  0  0  0  0  0  0
   -1.8600    0.2240    0.4270 C   0  0  0  0  0  0  0  0  0  0  0  0
   -2.1380    1.4960    0.5670 C   0  0  0  0  0  0  0  0  0  0  0  0
   -3.4680    1.9760    0.9180 C   0  0  1  0  0  0  0  0  0  0  0  0
   -4.0460    2.6500   -0.2350 N   0  0  0  0  0  0  0  0  0  0  0  0
   -4.3910    0.9550    1.4950 C   0  0  0  0  0  0  0  0  0  0  0  0
   -4.1690   -0.3390    0.9580 O   0  0  0  0  0  0  0  0  0  0  0  0
   -2.8910   -0.7730    0.6220 C   0  0  0  0  0  0  0  0  0  0  0  0
   -2.5920   -2.0460    0.4770 C   0  0  0  0  0  0  0  0  0  0  0  0
   -3.6400   -3.1130    0.6720 C   0  0  0  0  0  0  0  0  0  0  0  0
   -5.2110   -2.4160    1.0940 Cl  0  0  0  0  0  0  0  0  0  0  0  0
  1  2  2  0
  2  3  1  0
  2  4  1  0
  4  5  2  3
  4  7  1  0
  5  6  1  0
  7  8  1  0
  8  9  2  0
  8 10  1  0
 10 11  1  0
 11 12  1  0
 12 13  2  0
 12 18  1  0
 13 14  1  0
 14 15  1  6
 14 16  1  0
 16 17  1  0
 17 18  1  0
 18 19  2  3
 19 20  1  0
 20 21  1  0
M  CHG  1  15   1
M  END
