
     RDKit          3D

 21 21  0  0  0  0  0  0  0  0999 V2000
    5.1720    0.5780    1.6340 C   0  0  0  0  0  0  0  0  0  0  0  0
    4.5830    0.9900    0.5510 C   0  0  0  0  0  0  0  0  0  0  0  0
    5.1930    2.4830   -0.1610 Cl  0  0  0  0  0  0  0  0  0  0  0  0
    3.4690    0.3390   -0.1320 C   0  0  0  0  0  0  0  0  0  0  0  0
    2.9690    0.8850   -1.2470 C   0  0  0  0  0  0  0  0  0  0  0  0
    1.8480    0.3270   -2.0350 C   0  0  1  0  0  0  0  0  0  0  0  0
    1.7660   -1.4210   -1.9810 Cl  0  0  0  0  0  0  0  0  0  0  0  0
    0.5580    1.0380   -1.7430 C   0  0  0  0  0  0  0  0  0  0  0  0
   -0.6280    0.4640   -2.4140 C   0  0  0  0  0  0  0  0  0  0  0  0
   -1.3030   -0.6840   -1.7560 C   0  0  0  0  0  0  0  0  0  0  0  0
   -1.8190   -0.3540   -0.4280 N   0  0  0  0  0  0  0  0  0  0  0  0
   -3.2010   -0.7100   -0.4070 C   0  0  0  0  0  0  0  0  0  0  0  0
   -3.9270   -0.4420    0.8610 C   0  0  0  0  0  0  0  0  0  0  0  0
   -3.9260    0.9610    1.2330 N   0  0  0  0  0  0  0  0  0  0  0  0
   -1.1300   -1.1570    0.5940 C   0  0  0  0  0  0  0  0  0  0  0  0
   -0.5180   -0.3090    1.6540 C   0  0  1  0  0  0  0  0  0  0  0  0
   -1.1990   -0.5260    2.8760 O   0  0  0  0  0  0  0  0  0  0  0  0
    0.9440   -0.5740    1.9140 C   0  0  0  0  0  0  0  0  0  0  0  0
    1.6410   -1.1400    0.8360 O   0  0  0  0  0  0  0  0  0  0  0  0
    2.9470   -0.8940    0.4590 C   0  0  0  0  0  0  0  0  0  0  0  0
    3.8200   -1.8260    0.6310 O   0  0  0  0  0  0  0  0  0  0  0  0
  1  2  2  0
  2  3  1  0
  2  4  1  0
  4  5  2  0
  4 20  1  0
  5  6  1  0
  6  7  1  1
  6  8  1  0
  8  9  1  0
  9 10  1  0
 10 11  1  0
 11 12  1  0
 11 15  1  0
 12 13  1  0
 13 14  1  0
 15 16  1  0
 16 17  1  1
 16 18  1  0
 18 19  1  0
 19 20  1  0
 20 21  2  0
M  CHG  1  14   1
M  END
