
     RDKit          3D

 16 18  0  0  0  0  0  0  0  0999 V2000
    5.2990    1.3650   -1.0720 O   0  0  0  0  0  0  0  0  0  0  0  0
    3.9800    1.0280   -0.7960 C   0  0  0  0  0  0  0  0  0  0  0  0
    3.5770   -0.2920   -0.6580 C   0  0  0  0  0  0  0  0  0  0  0  0
    2.2500   -0.5870   -0.3810 C   0  0  0  0  0  0  0  0  0  0  0  0
    1.3250    0.4260   -0.2420 C   0  0  0  0  0  0  0  0  0  0  0  0
   -0.0830    0.1370    0.0500 C   0  0  0  0  0  0  0  0  0  0  0  0
   -1.0730    1.0270    0.2080 N   0  0  0  0  0  0  0  0  0  0  0  0
   -2.2310    0.3730    0.4660 C   0  0  0  0  0  0  0  0  0  0  0  0
   -3.5370    0.7420    0.7100 C   0  0  0  0  0  0  0  0  0  0  0  0
   -4.5270   -0.1890    0.9470 C   0  0  0  0  0  0  0  0  0  0  0  0
   -4.1820   -1.4830    0.9350 N   0  0  0  0  0  0  0  0  0  0  0  0
   -2.8980   -1.8770    0.6980 C   0  0  0  0  0  0  0  0  0  0  0  0
   -1.8890   -0.9670    0.4570 C   0  0  0  0  0  0  0  0  0  0  0  0
   -0.6040   -1.0460    0.2060 O   0  0  0  0  0  0  0  0  0  0  0  0
    1.7650    1.6890   -0.3850 N   0  0  0  0  0  0  0  0  0  0  0  0
    3.0310    1.9670   -0.6480 N   0  0  0  0  0  0  0  0  0  0  0  0
  1  2  1  0
  2  3  2  0
  2 16  1  0
  3  4  1  0
  4  5  2  0
  5  6  1  0
  5 15  1  0
  6  7  2  0
  6 14  1  0
  7  8  1  0
  8  9  2  0
  8 13  1  0
  9 10  1  0
 10 11  2  0
 11 12  1  0
 12 13  2  0
 13 14  1  0
 15 16  2  0
M  END
