
     RDKit          3D

 16 18  0  0  0  0  0  0  0  0999 V2000
   -3.0690   -1.3360   -0.2280 C   0  0  0  0  0  0  0  0  0  0  0  0
   -2.2310   -0.7990    0.7900 O   0  0  0  0  0  0  0  0  0  0  0  0
   -1.1400   -0.0300    0.4880 C   0  0  0  0  0  0  0  0  0  0  0  0
   -1.1790    1.3420    0.3600 C   0  0  0  0  0  0  0  0  0  0  0  0
   -2.3880    1.9960    0.5440 O   0  0  0  0  0  0  0  0  0  0  0  0
   -0.0590    2.0850    0.0550 C   0  0  0  0  0  0  0  0  0  0  0  0
   -0.1530    3.3440   -0.0510 N   0  0  0  0  0  0  0  0  0  0  0  0
    1.1470    1.4960   -0.1350 N   0  0  0  0  0  0  0  0  0  0  0  0
    2.3680    1.8760   -0.4250 N   0  0  0  0  0  0  0  0  0  0  0  0
    3.2030    0.7970   -0.4900 C   0  0  0  0  0  0  0  0  0  0  0  0
    2.4350   -0.3070   -0.2220 C   0  0  0  0  0  0  0  0  0  0  0  0
    2.6110   -1.6760   -0.1220 C   0  0  0  0  0  0  0  0  0  0  0  0
    1.5250   -2.4710    0.1810 C   0  0  0  0  0  0  0  0  0  0  0  0
    0.2750   -1.9610    0.3880 N   0  0  0  0  0  0  0  0  0  0  0  0
    0.1020   -0.6290    0.2920 C   0  0  0  0  0  0  0  0  0  0  0  0
    1.1680    0.1580   -0.0070 C   0  0  0  0  0  0  0  0  0  0  0  0
  1  2  1  0
  2  3  1  0
  3  4  2  0
  3 15  1  0
  4  5  1  0
  4  6  1  0
  6  7  2  0
  6  8  1  0
  8  9  1  0
  8 16  1  0
  9 10  2  0
 10 11  1  0
 11 12  1  0
 11 16  2  0
 12 13  2  0
 13 14  1  0
 14 15  2  0
 15 16  1  0
M  END
