
     RDKit          3D

 16 17  0  0  0  0  0  0  0  0999 V2000
    5.8970    0.5930    0.3030 N   0  0  0  0  0  0  0  0  0  0  0  0
    4.6670    0.1010   -0.2170 C   0  0  0  0  0  0  0  0  0  0  0  0
    4.2120    0.6400   -1.2380 O   0  0  0  0  0  0  0  0  0  0  0  0
    3.9760   -0.9630    0.3970 N   0  0  0  0  0  0  0  0  0  0  0  0
    2.7250   -1.5010   -0.0860 C   0  0  0  0  0  0  0  0  0  0  0  0
    1.6990   -0.4170   -0.0730 C   0  0  0  0  0  0  0  0  0  0  0  0
    0.0910   -1.0220   -0.6670 S   0  0  0  0  0  0  0  0  0  0  0  0
   -0.3860   -2.0510    0.3540 O   0  0  0  0  0  0  0  0  0  0  0  0
   -1.0290    0.3680   -0.5980 C   0  0  2  0  0  0  0  0  0  0  0  0
   -1.1720    0.9120    0.8160 C   0  0  0  0  0  0  0  0  0  0  0  0
   -2.3570    1.7350    0.6430 N   0  0  0  0  0  0  0  0  0  0  0  0
   -3.2580    0.8510   -0.0590 C   0  0  0  0  0  0  0  0  0  0  0  0
   -4.5440    0.5900   -0.2080 C   0  0  0  0  0  0  0  0  0  0  0  0
   -4.6710   -0.5380   -1.1630 C   0  0  0  0  0  0  0  0  0  0  0  0
   -3.2640   -0.8400   -1.5010 C   0  0  0  0  0  0  0  0  0  0  0  0
   -2.4440   -0.0460   -0.8700 C   0  0  0  0  0  0  0  0  0  0  0  0
  1  2  1  0
  2  3  2  0
  2  4  1  0
  4  5  1  0
  5  6  1  0
  7  6  1  1
  7  8  2  0
  7  9  1  0
  9 10  1  1
  9 16  1  0
 10 11  1  0
 11 12  1  0
 12 13  2  0
 12 16  1  0
 13 14  1  0
 14 15  1  0
 15 16  2  0
M  CHG  1  11   1
M  END
