
     RDKit          3D

 16 17  0  0  0  0  0  0  0  0999 V2000
   -2.0920   -1.8280    0.0120 C   0  0  0  0  0  0  0  0  0  0  0  0
   -1.5480   -0.6230    0.7350 C   0  0  2  0  0  0  0  0  0  0  0  0
   -2.7520   -0.0420    1.5170 C   0  0  0  0  0  0  0  0  0  0  0  0
   -1.1340    0.3720   -0.2260 N   0  0  0  0  0  0  0  0  0  0  0  0
   -2.1060    1.1590   -0.8090 C   0  0  0  0  0  0  0  0  0  0  0  0
   -1.4590    2.0500   -1.6320 C   0  0  0  0  0  0  0  0  0  0  0  0
   -0.1750    1.7890   -1.5290 N   0  0  0  0  0  0  0  0  0  0  0  0
    0.0630    0.7440   -0.6600 C   0  0  0  0  0  0  0  0  0  0  0  0
    1.4090    0.3050   -0.3290 C   0  0  0  0  0  0  0  0  0  0  0  0
    2.4500    1.2550   -0.3870 C   0  0  0  0  0  0  0  0  0  0  0  0
    3.7220    0.9530   -0.1600 N   0  0  0  0  0  0  0  0  0  0  0  0
    4.0800   -0.2840    0.1370 C   0  0  0  0  0  0  0  0  0  0  0  0
    5.3070   -0.5050    0.3430 O   0  0  0  0  0  0  0  0  0  0  0  0
    3.1440   -1.2230    0.2050 N   0  0  0  0  0  0  0  0  0  0  0  0
    1.8110   -0.9590   -0.0230 C   0  0  0  0  0  0  0  0  0  0  0  0
    1.0320   -1.9190    0.0620 O   0  0  0  0  0  0  0  0  0  0  0  0
  2  1  1  6
  2  3  1  0
  2  4  1  0
  4  5  1  0
  4  8  1  0
  5  6  2  0
  6  7  1  0
  7  8  2  0
  8  9  1  0
  9 10  2  0
  9 15  1  0
 10 11  1  0
 11 12  1  0
 12 13  2  0
 12 14  1  0
 14 15  1  0
 15 16  2  0
M  END
