
     RDKit          3D

 15 17  0  0  0  0  0  0  0  0999 V2000
    0.7970    2.3250    0.2210 C   0  0  0  0  0  0  0  0  0  0  0  0
    0.5070    0.8780    0.0460 C   0  0  0  0  0  0  0  0  0  0  0  0
   -0.7900    0.4340   -0.0190 C   0  0  0  0  0  0  0  0  0  0  0  0
   -1.0200   -0.8820   -0.1780 N   0  0  0  0  0  0  0  0  0  0  0  0
    0.0180   -1.7340   -0.2700 C   0  0  0  0  0  0  0  0  0  0  0  0
   -0.1940   -2.9630   -0.4190 O   0  0  0  0  0  0  0  0  0  0  0  0
    1.3370   -1.3310   -0.2110 C   0  0  0  0  0  0  0  0  0  0  0  0
    2.5340   -1.9180   -0.2700 N   0  0  0  0  0  0  0  0  0  0  0  0
    3.5300   -1.0130   -0.1530 C   0  0  0  0  0  0  0  0  0  0  0  0
    4.7800   -1.2090   -0.1660 O   0  0  0  0  0  0  0  0  0  0  0  0
    2.9180    0.1790   -0.0160 N   0  0  0  0  0  0  0  0  0  0  0  0
    1.5910    0.0210   -0.0470 C   0  0  0  0  0  0  0  0  0  0  0  0
   -2.4580   -1.1150   -0.2180 C   0  0  0  0  0  0  0  0  0  0  0  0
   -3.0420    0.1100    0.4670 C   0  0  0  0  0  0  0  0  0  0  0  0
   -2.0570    1.1930    0.0610 C   0  0  0  0  0  0  0  0  0  0  0  0
  1  2  1  0
  2  3  2  0
  2 12  1  0
  3  4  1  0
  3 15  1  0
  4  5  1  0
  4 13  1  0
  5  6  2  0
  5  7  1  0
  7  8  1  0
  7 12  2  0
  8  9  1  0
  9 10  2  0
  9 11  1  0
 11 12  1  0
 13 14  1  0
 14 15  1  0
M  END
