
     RDKit          3D

 16 17  0  0  0  0  0  0  0  0999 V2000
   -1.9970    2.5690    0.9220 C   0  0  0  0  0  0  0  0  0  0  0  0
   -2.5950    1.6220    0.3100 C   0  0  0  0  0  0  0  0  0  0  0  0
   -2.0040    0.3600   -0.2220 C   0  0  0  0  0  0  0  0  0  0  0  0
   -2.8320   -0.4540   -0.8110 C   0  0  0  0  0  0  0  0  0  0  0  0
   -2.5410   -1.7510   -1.4230 C   0  0  0  0  0  0  0  0  0  0  0  0
   -0.5820    0.1590   -0.0360 C   0  0  0  0  0  0  0  0  0  0  0  0
    0.1890   -0.9070   -0.4290 C   0  0  0  0  0  0  0  0  0  0  0  0
    1.5240   -0.6770   -0.0380 C   0  0  0  0  0  0  0  0  0  0  0  0
    2.6680   -1.3800   -0.1680 N   0  0  0  0  0  0  0  0  0  0  0  0
    3.8170   -0.8850    0.3220 C   0  0  0  0  0  0  0  0  0  0  0  0
    4.9080   -1.5390    0.2070 O   0  0  0  0  0  0  0  0  0  0  0  0
    3.8130    0.3110    0.9390 N   0  0  0  0  0  0  0  0  0  0  0  0
    2.6480    1.0010    1.0580 C   0  0  0  0  0  0  0  0  0  0  0  0
    2.7150    2.1130    1.6460 O   0  0  0  0  0  0  0  0  0  0  0  0
    1.4990    0.5130    0.5720 N   0  0  0  0  0  0  0  0  0  0  0  0
    0.2850    0.9890    0.5700 N   0  0  0  0  0  0  0  0  0  0  0  0
  1  2  2  0
  2  3  1  0
  3  4  2  3
  3  6  1  0
  4  5  1  0
  6  7  1  0
  6 16  2  0
  7  8  2  0
  8  9  1  0
  8 15  1  0
  9 10  1  0
 10 11  2  0
 10 12  1  0
 12 13  1  0
 13 14  2  0
 13 15  1  0
 15 16  1  0
M  END
