
     RDKit          3D

 16 17  0  0  0  0  0  0  0  0999 V2000
   -3.8750    0.8020    0.8090 C   0  0  0  0  0  0  0  0  0  0  0  0
   -3.0740    0.5120   -0.4540 C   0  0  2  0  0  0  0  0  0  0  0  0
   -3.8490   -0.5010   -1.2580 C   0  0  0  0  0  0  0  0  0  0  0  0
   -1.7060    0.0930   -0.1560 C   0  0  0  0  0  0  0  0  0  0  0  0
   -0.6540    0.8640   -0.6000 C   0  0  0  0  0  0  0  0  0  0  0  0
    0.6800    0.5190   -0.3480 C   0  0  0  0  0  0  0  0  0  0  0  0
    0.9830   -0.6020    0.3520 C   0  0  0  0  0  0  0  0  0  0  0  0
    2.2720   -1.0710    0.6740 N   0  0  0  0  0  0  0  0  0  0  0  0
    3.4190   -0.3320    0.2860 C   0  0  0  0  0  0  0  0  0  0  0  0
    3.5710    0.9490    0.2920 N   0  0  0  0  0  0  0  0  0  0  0  0
    4.9090    1.2800   -0.1850 C   0  0  0  0  0  0  0  0  0  0  0  0
    5.3960    0.0980   -0.7570 O   0  0  0  0  0  0  0  0  0  0  0  0
    4.6680   -0.8660   -0.1960 N   0  0  0  0  0  0  0  0  0  0  0  0
   -0.1090   -1.3620    0.7880 C   0  0  0  0  0  0  0  0  0  0  0  0
    0.0820   -2.4230    1.4480 O   0  0  0  0  0  0  0  0  0  0  0  0
   -1.3810   -1.0130    0.5350 N   0  0  0  0  0  0  0  0  0  0  0  0
  2  1  1  1
  2  3  1  0
  2  4  1  0
  4  5  2  0
  4 16  1  0
  5  6  1  0
  6  7  2  0
  7  8  1  0
  7 14  1  0
  8  9  1  0
  9 10  2  0
  9 13  1  0
 10 11  1  0
 11 12  1  0
 12 13  1  0
 14 15  2  0
 14 16  1  0
M  END
