
     RDKit          3D

 27 29  0  0  0  0  0  0  0  0999 V2000
   -6.3510    0.2740    2.7640 C   0  0  0  0  0  0  0  0  0  0  0  0
   -5.7480    0.3340    1.4390 N   0  0  0  0  0  0  0  0  0  0  0  0
   -4.6220   -0.3490    1.1760 C   0  0  0  0  0  0  0  0  0  0  0  0
   -3.9940   -0.3370   -0.0660 C   0  0  0  0  0  0  0  0  0  0  0  0
   -4.5320    0.4060   -1.0950 C   0  0  0  0  0  0  0  0  0  0  0  0
   -3.9440    0.4910   -2.4580 C   0  0  0  0  0  0  0  0  0  0  0  0
   -2.7840   -0.3330   -2.6150 N   0  0  0  0  0  0  0  0  0  0  0  0
   -1.4990    0.0270   -2.0640 C   0  0  0  0  0  0  0  0  0  0  0  0
   -1.5030    1.1110   -1.4470 O   0  0  0  0  0  0  0  0  0  0  0  0
   -0.3300   -0.7900   -2.2140 C   0  0  2  0  0  0  0  0  0  0  0  0
   -0.5270   -2.2410   -1.7780 C   0  0  0  0  0  0  0  0  0  0  0  0
    0.9070   -2.7650   -1.8580 C   0  0  0  0  0  0  0  0  0  0  0  0
    1.7610   -1.5540   -2.1400 C   0  0  0  0  0  0  0  0  0  0  0  0
    0.8860   -0.4840   -1.5360 N   0  0  0  0  0  0  0  0  0  0  0  0
    1.3080    0.4360   -0.5710 C   0  0  0  0  0  0  0  0  0  0  0  0
    0.5430    1.3430   -0.1800 O   0  0  0  0  0  0  0  0  0  0  0  0
    2.6590    0.4110    0.0470 C   0  0  2  0  0  0  0  0  0  0  0  0
    3.0720   -0.8530    0.5470 N   0  0  0  0  0  0  0  0  0  0  0  0
    2.8740    1.5870    0.9590 C   0  0  0  0  0  0  0  0  0  0  0  0
    4.2120    1.5490    1.5620 C   0  0  0  0  0  0  0  0  0  0  0  0
    4.4310    1.0340    2.8090 C   0  0  0  0  0  0  0  0  0  0  0  0
    5.7060    0.9850    3.3700 C   0  0  0  0  0  0  0  0  0  0  0  0
    6.7920    1.4620    2.6720 C   0  0  0  0  0  0  0  0  0  0  0  0
    6.5750    1.9830    1.4150 C   0  0  0  0  0  0  0  0  0  0  0  0
    5.3090    2.0340    0.8530 C   0  0  0  0  0  0  0  0  0  0  0  0
   -5.6890    1.1060   -0.8190 C   0  0  0  0  0  0  0  0  0  0  0  0
   -6.2810    1.0600    0.4430 C   0  0  0  0  0  0  0  0  0  0  0  0
  1  2  1  0
  2  3  2  0
  2 27  1  0
  3  4  1  0
  4  5  2  0
  5  6  1  0
  5 26  1  0
  6  7  1  0
  7  8  1  0
  8  9  2  0
 10  8  1  1
 10 11  1  0
 10 14  1  0
 11 12  1  0
 12 13  1  0
 13 14  1  0
 14 15  1  0
 15 16  2  0
 15 17  1  0
 17 18  1  1
 17 19  1  0
 19 20  1  0
 20 21  2  0
 20 25  1  0
 21 22  1  0
 22 23  2  0
 23 24  1  0
 24 25  2  0
 26 27  2  0
M  CHG  2   2   1  18   1
M  END
