
     RDKit          3D

 11 12  0  0  0  0  0  0  0  0999 V2000
    3.1650    0.7770   -1.1020 C   0  0  0  0  0  0  0  0  0  0  0  0
    3.5120   -0.3370   -0.4990 C   0  0  0  0  0  0  0  0  0  0  0  0
    2.4450   -0.7810    0.2960 N   0  0  0  0  0  0  0  0  0  0  0  0
    1.4230    0.1670    0.1160 C   0  0  0  0  0  0  0  0  0  0  0  0
    0.0500    0.1600    0.7510 C   0  0  1  0  0  0  0  0  0  0  0  0
   -0.7340    1.3610    0.2880 C   0  0  0  0  0  0  0  0  0  0  0  0
   -2.1120    1.2160    0.9010 C   0  0  0  0  0  0  0  0  0  0  0  0
   -2.7710    0.1130    0.1150 C   0  0  0  0  0  0  0  0  0  0  0  0
   -1.9940   -1.1360    0.0200 C   0  0  0  0  0  0  0  0  0  0  0  0
   -0.6180   -1.1360    0.5470 C   0  0  0  0  0  0  0  0  0  0  0  0
    1.8400    1.0680   -0.6930 N   0  0  0  0  0  0  0  0  0  0  0  0
  1  2  2  0
  1 11  1  0
  2  3  1  0
  3  4  1  0
  5  4  1  6
  4 11  2  0
  5  6  1  0
  5 10  1  0
  6  7  1  0
  7  8  1  0
  8  9  1  0
  9 10  1  0
M  CHG  1   3   1
M  END
