
     RDKit          3D

 12 12  0  0  0  0  0  0  0  0999 V2000
   -1.8900    1.1650    0.8320 C   0  0  0  0  0  0  0  0  0  0  0  0
   -1.7120   -0.1530    0.1790 C   0  0  2  0  0  0  0  0  0  0  0  0
   -1.8720    0.0510   -1.2620 N   0  0  0  0  0  0  0  0  0  0  0  0
   -2.8640   -1.0480    0.6770 C   0  0  0  0  0  0  0  0  0  0  0  0
   -4.4750   -0.3930    0.2650 S   0  0  0  0  0  0  0  0  0  0  0  0
   -0.4780   -0.9180    0.4890 C   0  0  0  0  0  0  0  0  0  0  0  0
    0.7670   -0.3740    0.1920 N   0  0  0  0  0  0  0  0  0  0  0  0
    1.2930    0.7160    0.8980 C   0  0  0  0  0  0  0  0  0  0  0  0
    2.1450    1.5130   -0.1160 C   0  0  0  0  0  0  0  0  0  0  0  0
    3.3400    0.6080   -0.3540 C   0  0  0  0  0  0  0  0  0  0  0  0
    2.9410   -0.7070   -0.9530 C   0  0  0  0  0  0  0  0  0  0  0  0
    1.6230   -1.2280   -0.5140 C   0  0  0  0  0  0  0  0  0  0  0  0
  2  1  1  1
  2  3  1  0
  2  4  1  0
  2  6  1  0
  4  5  1  0
  6  7  1  0
  7  8  1  0
  7 12  1  0
  8  9  1  0
  9 10  1  0
 10 11  1  0
 11 12  1  0
M  CHG  1   3   1
M  END
