
     RDKit          3D

 12 13  0  0  0  0  0  0  0  0999 V2000
   -0.8570    0.8500   -0.2580 C   0  0  0  0  0  0  0  0  0  0  0  0
   -1.1900   -0.4300   -0.3100 C   0  0  0  0  0  0  0  0  0  0  0  0
   -0.5470   -1.4050   -1.1280 N   0  0  0  0  0  0  0  0  0  0  0  0
    0.7480   -1.9320   -0.8250 C   0  0  0  0  0  0  0  0  0  0  0  0
    1.8070   -0.8720   -0.7840 C   0  0  0  0  0  0  0  0  0  0  0  0
    2.1920   -0.0970    0.3340 C   0  0  0  0  0  0  0  0  0  0  0  0
    3.1500    0.7820    0.1570 C   0  0  0  0  0  0  0  0  0  0  0  0
    3.7680    0.9570   -1.0630 C   0  0  0  0  0  0  0  0  0  0  0  0
    2.8510   -0.3000   -2.0640 S   0  0  0  0  0  0  0  0  0  0  0  0
   -2.3180   -0.6110    0.6310 C   0  0  0  0  0  0  0  0  0  0  0  0
   -2.9240    0.6910    0.6880 N   0  0  0  0  0  0  0  0  0  0  0  0
   -1.7610    1.5620    0.7160 C   0  0  0  0  0  0  0  0  0  0  0  0
  1  2  2  0
  1 12  1  0
  2  3  1  0
  2 10  1  0
  3  4  1  0
  4  5  1  0
  5  6  2  0
  5  9  1  0
  6  7  1  0
  7  8  2  0
  8  9  1  0
 10 11  1  0
 11 12  1  0
M  CHG  1  11   1
M  END
