
     RDKit          3D

 26 28  0  0  0  0  0  0  0  0999 V2000
   -3.2630   -0.4380   -4.7260 C   0  0  0  0  0  0  0  0  0  0  0  0
   -2.9880   -0.2900   -3.3500 O   0  0  0  0  0  0  0  0  0  0  0  0
   -3.9350   -0.0800   -2.3870 C   0  0  0  0  0  0  0  0  0  0  0  0
   -5.1320   -0.0250   -2.8400 O   0  0  0  0  0  0  0  0  0  0  0  0
   -3.7220    0.0790   -0.9710 C   0  0  0  0  0  0  0  0  0  0  0  0
   -4.8890    0.2830   -0.2030 C   0  0  0  0  0  0  0  0  0  0  0  0
   -4.8360    0.4480    1.1530 C   0  0  0  0  0  0  0  0  0  0  0  0
   -6.0120    0.6520    1.9080 O   0  0  0  0  0  0  0  0  0  0  0  0
   -3.6100    0.4090    1.7500 C   0  0  0  0  0  0  0  0  0  0  0  0
   -3.5520    0.5770    3.1330 O   0  0  0  0  0  0  0  0  0  0  0  0
   -2.3040    0.5430    3.7860 C   0  0  0  0  0  0  0  0  0  0  0  0
   -2.4270    0.2090    1.0300 C   0  0  0  0  0  0  0  0  0  0  0  0
   -2.5020    0.0470   -0.3260 C   0  0  0  0  0  0  0  0  0  0  0  0
   -1.3210   -0.1540   -1.0650 N   0  0  0  0  0  0  0  0  0  0  0  0
    0.0240   -0.2190   -0.5550 C   0  0  2  0  0  0  0  0  0  0  0  0
    0.2830   -1.2990    0.4400 C   0  0  0  0  0  0  0  0  0  0  0  0
    1.2000   -0.8310    1.5490 C   0  0  0  0  0  0  0  0  0  0  0  0
    2.3170   -0.0640    1.1040 N   0  0  0  0  0  0  0  0  0  0  0  0
    3.3570   -0.9740    0.6790 C   0  0  0  0  0  0  0  0  0  0  0  0
    4.5720   -0.2000    0.1940 C   0  0  0  0  0  0  0  0  0  0  0  0
    5.0290   -0.3060   -0.9990 C   0  0  0  0  0  0  0  0  0  0  0  0
    6.2170    0.4900   -1.3730 C   0  0  0  0  0  0  0  0  0  0  0  0
    6.2150    1.7440   -0.0300 S   0  0  0  0  0  0  0  0  0  0  0  0
    5.2460    0.7090    1.1370 C   0  0  0  0  0  0  0  0  0  0  0  0
    2.0780    0.8870    0.0760 C   0  0  0  0  0  0  0  0  0  0  0  0
    0.5800    1.1030   -0.1020 C   0  0  0  0  0  0  0  0  0  0  0  0
  1  2  1  0
  2  3  1  0
  3  4  2  0
  3  5  1  0
  5  6  2  0
  5 13  1  0
  6  7  1  0
  7  8  1  0
  7  9  2  0
  9 10  1  0
  9 12  1  0
 10 11  1  0
 12 13  2  0
 13 14  1  0
 15 14  1  1
 15 16  1  0
 15 26  1  0
 16 17  1  0
 17 18  1  0
 18 19  1  0
 18 25  1  0
 19 20  1  0
 20 21  2  0
 20 24  1  0
 21 22  1  0
 22 23  1  0
 23 24  1  0
 25 26  1  0
M  END
