
     RDKit          3D

 26 28  0  0  0  0  0  0  0  0999 V2000
    6.0610    1.5260   -2.6370 C   0  0  0  0  0  0  0  0  0  0  0  0
    5.2450    0.5880   -1.8110 C   0  0  0  0  0  0  0  0  0  0  0  0
    4.9420   -0.6270   -2.3980 C   0  0  0  0  0  0  0  0  0  0  0  0
    4.1890   -1.5140   -1.6600 C   0  0  0  0  0  0  0  0  0  0  0  0
    3.7300   -1.2370   -0.3700 C   0  0  0  0  0  0  0  0  0  0  0  0
    2.9740   -2.2480    0.3070 C   0  0  0  0  0  0  0  0  0  0  0  0
    1.8600   -2.0860    0.9700 C   0  0  0  0  0  0  0  0  0  0  0  0
    0.9290   -3.4130    1.8260 S   0  0  0  0  0  0  0  0  0  0  0  0
    0.1030   -2.2880    2.9440 C   0  0  0  0  0  0  0  0  0  0  0  0
   -0.3460   -2.5900    4.0450 O   0  0  0  0  0  0  0  0  0  0  0  0
    0.1020   -1.0570    2.2750 N   0  0  0  0  0  0  0  0  0  0  0  0
   -0.8060    0.0430    2.6500 C   0  0  0  0  0  0  0  0  0  0  0  0
   -2.1000   -0.1010    1.8600 C   0  0  0  0  0  0  0  0  0  0  0  0
   -3.0010    1.0500    2.2580 C   0  0  0  0  0  0  0  0  0  0  0  0
   -4.2360    0.9880    1.5700 O   0  0  0  0  0  0  0  0  0  0  0  0
   -4.3430    1.0190    0.1900 C   0  0  0  0  0  0  0  0  0  0  0  0
   -4.0070    2.1220   -0.4880 C   0  0  0  0  0  0  0  0  0  0  0  0
   -4.0950    2.2290   -1.9610 C   0  0  0  0  0  0  0  0  0  0  0  0
   -4.5620    1.0680   -2.5860 O   0  0  0  0  0  0  0  0  0  0  0  0
   -4.9040   -0.0560   -1.8900 C   0  0  0  0  0  0  0  0  0  0  0  0
   -4.8160   -0.1200   -0.5770 C   0  0  0  0  0  0  0  0  0  0  0  0
   -5.1850   -1.3110    0.0830 N   0  0  0  0  0  0  0  0  0  0  0  0
    1.0210   -0.9250    1.2270 C   0  0  0  0  0  0  0  0  0  0  0  0
    1.1640    0.1270    0.4990 O   0  0  0  0  0  0  0  0  0  0  0  0
    4.0660   -0.0040    0.1640 C   0  0  0  0  0  0  0  0  0  0  0  0
    4.8230    0.9190   -0.5460 C   0  0  0  0  0  0  0  0  0  0  0  0
  1  2  1  0
  2  3  2  0
  2 26  1  0
  3  4  1  0
  4  5  2  0
  5  6  1  0
  5 25  1  0
  6  7  2  3
  7  8  1  0
  7 23  1  0
  8  9  1  0
  9 10  2  0
  9 11  1  0
 11 12  1  0
 11 23  1  0
 12 13  1  0
 13 14  1  0
 14 15  1  0
 15 16  1  0
 16 17  2  0
 16 21  1  0
 17 18  1  0
 18 19  1  0
 19 20  1  0
 20 21  2  0
 21 22  1  0
 23 24  2  0
 25 26  2  0
M  END
