
     RDKit          3D

 12 13  0  0  0  0  0  0  0  0999 V2000
   -3.8240    0.5480    0.2240 N   0  0  0  0  0  0  0  0  0  0  0  0
   -3.1320    0.2470   -1.0140 C   0  0  0  0  0  0  0  0  0  0  0  0
   -1.8410   -0.4440   -0.6520 C   0  0  0  0  0  0  0  0  0  0  0  0
   -1.8460   -1.8200   -0.3900 C   0  0  0  0  0  0  0  0  0  0  0  0
   -0.1520   -2.1550   -0.0250 S   0  0  0  0  0  0  0  0  0  0  0  0
    0.3740   -0.3660   -0.2730 C   0  0  0  0  0  0  0  0  0  0  0  0
    1.7970   -0.0090   -0.0880 C   0  0  0  0  0  0  0  0  0  0  0  0
    2.7850   -0.8060    0.2410 C   0  0  0  0  0  0  0  0  0  0  0  0
    4.0350   -0.0290    0.3150 C   0  0  0  0  0  0  0  0  0  0  0  0
    3.6370    1.3390   -0.0180 C   0  0  0  0  0  0  0  0  0  0  0  0
    2.3450    1.3230   -0.2450 C   0  0  0  0  0  0  0  0  0  0  0  0
   -0.6780    0.1240   -0.5540 N   0  0  0  0  0  0  0  0  0  0  0  0
  1  2  1  0
  2  3  1  0
  3  4  2  0
  3 12  1  0
  4  5  1  0
  5  6  1  0
  6  7  1  0
  6 12  2  0
  7  8  2  0
  7 11  1  0
  8  9  1  0
  9 10  1  0
 10 11  2  0
M  CHG  1   1   1
M  END
