
     RDKit          3D

 12 13  0  0  0  0  0  0  0  0999 V2000
    4.2240   -0.2360    0.7110 N   0  0  0  0  0  0  0  0  0  0  0  0
    2.8780   -0.5160    0.2560 C   0  0  0  0  0  0  0  0  0  0  0  0
    2.6590   -0.3790   -1.0390 C   0  0  0  0  0  0  0  0  0  0  0  0
    1.1180   -0.6410   -1.9460 S   0  0  0  0  0  0  0  0  0  0  0  0
   -0.2400   -0.1180   -0.8710 C   0  0  0  0  0  0  0  0  0  0  0  0
   -0.3240   -0.2250    0.4260 C   0  0  0  0  0  0  0  0  0  0  0  0
    0.6750   -0.8030    1.3290 C   0  0  0  0  0  0  0  0  0  0  0  0
    1.9490   -0.9070    1.2380 N   0  0  0  0  0  0  0  0  0  0  0  0
   -1.4710    0.2290    1.2440 C   0  0  0  0  0  0  0  0  0  0  0  0
   -2.6690    0.6020    0.4590 C   0  0  0  0  0  0  0  0  0  0  0  0
   -2.6360    0.1370   -0.9750 C   0  0  0  0  0  0  0  0  0  0  0  0
   -1.3450    0.4950   -1.6320 C   0  0  0  0  0  0  0  0  0  0  0  0
  1  2  1  0
  2  3  2  0
  2  8  1  0
  3  4  1  0
  4  5  1  0
  5  6  2  0
  5 12  1  0
  6  7  1  0
  6  9  1  0
  7  8  2  0
  9 10  1  0
 10 11  1  0
 11 12  1  0
M  END
