
     RDKit          3D

 10 10  0  0  0  0  0  0  0  0999 V2000
    3.5080   -1.4430   -1.3010 O   0  0  0  0  0  0  0  0  0  0  0  0
    2.5680   -0.7640   -0.8400 C   0  0  0  0  0  0  0  0  0  0  0  0
    2.5430    0.5160   -0.2520 N   0  0  0  0  0  0  0  0  0  0  0  0
    1.3270    1.0010    0.1650 C   0  0  0  0  0  0  0  0  0  0  0  0
    1.1690    2.1510    0.7150 O   0  0  0  0  0  0  0  0  0  0  0  0
    0.1860    0.1500   -0.0390 C   0  0  0  0  0  0  0  0  0  0  0  0
   -1.0690    0.3310    0.2470 C   0  0  0  0  0  0  0  0  0  0  0  0
   -2.1090   -0.6680   -0.0410 C   0  0  0  0  0  0  0  0  0  0  0  0
   -3.0910   -0.1710   -0.9000 O   0  0  0  0  0  0  0  0  0  0  0  0
    0.8490   -1.3210   -0.8170 S   0  0  0  0  0  0  0  0  0  0  0  0
  1  2  2  0
  2  3  1  0
  2 10  1  0
  3  4  1  0
  4  5  2  0
  4  6  1  0
  6  7  2  3
  6 10  1  0
  7  8  1  0
  8  9  1  0
M  END
