
     RDKit          3D

 24 26  0  0  0  0  0  0  0  0999 V2000
   -7.4090   -0.5860    0.4000 C   0  0  0  0  0  0  0  0  0  0  0  0
   -6.2540   -0.8120    1.3310 C   0  0  0  0  0  0  0  0  0  0  0  0
   -5.0340   -0.4090    0.9380 C   0  0  0  0  0  0  0  0  0  0  0  0
   -3.8260   -0.5480    1.7030 C   0  0  0  0  0  0  0  0  0  0  0  0
   -2.8100   -0.0190    0.9680 C   0  0  0  0  0  0  0  0  0  0  0  0
   -1.4780   -0.0130    1.4690 C   0  0  0  0  0  0  0  0  0  0  0  0
   -1.3560   -0.5760    2.6650 O   0  0  0  0  0  0  0  0  0  0  0  0
   -0.2790    0.4670    0.9560 N   0  0  0  0  0  0  0  0  0  0  0  0
   -0.0750    1.1490   -0.3010 C   0  0  0  0  0  0  0  0  0  0  0  0
    1.4200    1.6050   -0.2710 C   0  0  0  0  0  0  0  0  0  0  0  0
    2.2140    0.3360   -0.2650 C   0  0  1  0  0  0  0  0  0  0  0  0
    3.5850    0.5030   -0.7610 C   0  0  0  0  0  0  0  0  0  0  0  0
    4.1060    1.7540   -0.9600 N   0  0  0  0  0  0  0  0  0  0  0  0
    5.3440    1.6210   -1.4060 C   0  0  0  0  0  0  0  0  0  0  0  0
    5.6430    0.3120   -1.5010 N   0  0  0  0  0  0  0  0  0  0  0  0
    4.5390   -0.4000   -1.0960 C   0  0  0  0  0  0  0  0  0  0  0  0
    4.4420   -1.8530   -1.0510 C   0  0  0  0  0  0  0  0  0  0  0  0
    4.6410   -2.3480    0.3550 C   0  0  0  0  0  0  0  0  0  0  0  0
    2.1050   -0.2450    1.1090 C   0  0  0  0  0  0  0  0  0  0  0  0
    0.9090    0.2400    1.8180 C   0  0  0  0  0  0  0  0  0  0  0  0
   -3.3640    0.4620   -0.2760 C   0  0  0  0  0  0  0  0  0  0  0  0
   -2.7140    1.0940   -1.4010 N   0  0  0  0  0  0  0  0  0  0  0  0
   -4.6880    0.2330   -0.3010 C   0  0  0  0  0  0  0  0  0  0  0  0
   -5.5480    0.5650   -1.3430 O   0  0  0  0  0  0  0  0  0  0  0  0
  1  2  1  0
  2  3  2  3
  3  4  1  0
  3 23  1  0
  4  5  2  0
  5  6  1  0
  5 21  1  0
  6  7  2  0
  6  8  1  0
  8  9  1  0
  8 20  1  0
  9 10  1  0
 10 11  1  0
 11 12  1  1
 11 19  1  0
 12 13  1  0
 12 16  2  0
 13 14  1  0
 14 15  2  0
 15 16  1  0
 16 17  1  0
 17 18  1  0
 19 20  1  0
 21 22  1  0
 21 23  2  0
 23 24  1  0
M  CHG  1  15   1
M  END
