
     RDKit          3D

 24 26  0  0  0  0  0  0  0  0999 V2000
    8.2710    0.7530    1.0930 C   0  0  0  0  0  0  0  0  0  0  0  0
    6.9630    0.5590    0.3720 C   0  0  0  0  0  0  0  0  0  0  0  0
    6.8780    0.7610   -0.9310 C   0  0  0  0  0  0  0  0  0  0  0  0
    5.6200    0.5680   -1.5880 C   0  0  0  0  0  0  0  0  0  0  0  0
    4.5370    0.1850   -0.8900 C   0  0  0  0  0  0  0  0  0  0  0  0
    4.5780   -0.0510    0.5420 C   0  0  0  0  0  0  0  0  0  0  0  0
    3.5560   -0.4470    1.2690 C   0  0  0  0  0  0  0  0  0  0  0  0
    2.2630   -0.7010    0.7180 C   0  0  0  0  0  0  0  0  0  0  0  0
    2.0660   -1.5140   -0.3630 C   0  0  0  0  0  0  0  0  0  0  0  0
    0.8210   -1.7170   -0.8880 N   0  0  0  0  0  0  0  0  0  0  0  0
   -0.2450   -1.1080   -0.3370 C   0  0  0  0  0  0  0  0  0  0  0  0
   -1.5630   -1.3650   -0.9480 C   0  0  0  0  0  0  0  0  0  0  0  0
   -2.6150   -0.5880   -0.3160 N   0  0  0  0  0  0  0  0  0  0  0  0
   -3.7300   -0.5970   -1.2360 C   0  0  0  0  0  0  0  0  0  0  0  0
   -4.9650    0.0350   -0.7000 C   0  0  1  0  0  0  0  0  0  0  0  0
   -5.9660   -0.0310   -1.6780 O   0  0  0  0  0  0  0  0  0  0  0  0
   -5.5160   -0.7350    0.4960 C   0  0  0  0  0  0  0  0  0  0  0  0
   -6.4720    0.3230    1.0640 C   0  0  0  0  0  0  0  0  0  0  0  0
   -5.5080    1.5150    1.1400 C   0  0  0  0  0  0  0  0  0  0  0  0
   -4.8300    1.4310   -0.2330 C   0  0  0  0  0  0  0  0  0  0  0  0
   -0.0540   -0.3020    0.7370 N   0  0  0  0  0  0  0  0  0  0  0  0
    1.1670   -0.0850    1.2730 C   0  0  0  0  0  0  0  0  0  0  0  0
    1.2400    0.6830    2.2720 O   0  0  0  0  0  0  0  0  0  0  0  0
    5.8680    0.1560    1.1670 N   0  0  0  0  0  0  0  0  0  0  0  0
  1  2  1  0
  2  3  2  0
  2 24  1  0
  3  4  1  0
  4  5  2  0
  5  6  1  0
  6  7  2  3
  6 24  1  0
  7  8  1  0
  8  9  2  0
  8 22  1  0
  9 10  1  0
 10 11  2  0
 11 12  1  0
 11 21  1  0
 12 13  1  0
 13 14  1  0
 14 15  1  0
 15 16  1  6
 15 17  1  0
 15 20  1  0
 17 18  1  0
 18 19  1  0
 19 20  1  0
 21 22  1  0
 22 23  2  0
M  CHG  1  13   1
M  END
