
     RDKit          3D

 11 11  0  0  0  0  0  0  0  0999 V2000
    3.3520    0.8510   -1.1470 O   0  0  0  0  0  0  0  0  0  0  0  0
    2.4710    0.5050   -0.2850 C   0  0  0  0  0  0  0  0  0  0  0  0
    1.7110    1.5230    0.4990 C   0  0  0  0  0  0  0  0  0  0  0  0
   -0.0650    1.2520    0.2760 S   0  0  0  0  0  0  0  0  0  0  0  0
   -0.3080   -0.5220    0.0840 C   0  0  0  0  0  0  0  0  0  0  0  0
   -1.5250   -1.0160   -0.0830 C   0  0  0  0  0  0  0  0  0  0  0  0
   -2.7370   -0.1740   -0.1230 C   0  0  0  0  0  0  0  0  0  0  0  0
   -2.4440    1.1770    0.0340 O   0  0  0  0  0  0  0  0  0  0  0  0
    0.8770   -1.3680    0.1190 C   0  0  0  0  0  0  0  0  0  0  0  0
    0.6780   -2.6040    0.3200 O   0  0  0  0  0  0  0  0  0  0  0  0
    2.1960   -0.8710   -0.0580 N   0  0  0  0  0  0  0  0  0  0  0  0
  1  2  2  0
  2  3  1  0
  2 11  1  0
  3  4  1  0
  4  5  1  0
  5  6  2  3
  5  9  1  0
  6  7  1  0
  7  8  1  0
  9 10  2  0
  9 11  1  0
M  END
