
     RDKit          3D

 11 11  0  0  0  0  0  0  0  0999 V2000
    1.6460    1.6940   -1.3880 O   0  0  0  0  0  0  0  0  0  0  0  0
    1.7940    0.8250   -0.4920 C   0  0  0  0  0  0  0  0  0  0  0  0
    2.8490    0.0580   -0.3740 O   0  0  0  0  0  0  0  0  0  0  0  0
    2.9580   -0.8200    0.5620 C   0  0  0  0  0  0  0  0  0  0  0  0
    1.9230   -0.9540    1.4700 C   0  0  0  0  0  0  0  0  0  0  0  0
    0.7940   -0.1840    1.4030 N   0  0  0  0  0  0  0  0  0  0  0  0
    0.7290    0.7100    0.4180 C   0  0  0  0  0  0  0  0  0  0  0  0
   -0.7010    1.7620    0.2560 S   0  0  0  0  0  0  0  0  0  0  0  0
   -1.9280    0.9970   -0.8210 C   0  0  0  0  0  0  0  0  0  0  0  0
   -2.5540   -0.2410   -0.2550 C   0  0  0  0  0  0  0  0  0  0  0  0
   -1.6980   -1.2690    0.0330 O   0  0  0  0  0  0  0  0  0  0  0  0
  1  2  2  0
  2  3  1  0
  2  7  1  0
  3  4  1  0
  4  5  2  0
  5  6  1  0
  6  7  2  0
  7  8  1  0
  8  9  1  0
  9 10  1  0
 10 11  1  0
M  END
