
     RDKit          3D

 24 26  0  0  0  0  0  0  0  0999 V2000
    6.4870   -0.3880   -0.4100 C   0  0  0  0  0  0  0  0  0  0  0  0
    6.0000   -1.3670    0.6130 C   0  0  0  0  0  0  0  0  0  0  0  0
    4.8170   -0.8440    1.4050 C   0  0  0  0  0  0  0  0  0  0  0  0
    3.6790   -0.5520    0.4620 C   0  0  0  0  0  0  0  0  0  0  0  0
    2.5350   -0.0510    1.1940 N   0  0  0  0  0  0  0  0  0  0  0  0
    1.3420    0.2910    0.5000 C   0  0  0  0  0  0  0  0  0  0  0  0
    1.2940    0.1530   -0.7510 O   0  0  0  0  0  0  0  0  0  0  0  0
    0.1860    0.7880    1.1630 N   0  0  0  0  0  0  0  0  0  0  0  0
   -0.9950    1.1130    0.4340 C   0  0  0  0  0  0  0  0  0  0  0  0
   -1.3120    2.4240    0.3000 C   0  0  0  0  0  0  0  0  0  0  0  0
   -2.4680    2.9140   -0.4050 C   0  0  0  0  0  0  0  0  0  0  0  0
   -3.2830    2.0460   -0.9630 C   0  0  0  0  0  0  0  0  0  0  0  0
   -4.3960    2.7500   -1.6320 C   0  0  0  0  0  0  0  0  0  0  0  0
   -5.1760    2.2550   -2.5020 N   0  0  0  0  0  0  0  0  0  0  0  0
   -4.3720    4.1280   -1.0500 C   0  0  0  0  0  0  0  0  0  0  0  0
   -2.9850    4.2380   -0.6660 N   0  0  0  0  0  0  0  0  0  0  0  0
   -3.0240    0.6160   -0.8680 C   0  0  0  0  0  0  0  0  0  0  0  0
   -3.8050   -0.1960   -1.4000 O   0  0  0  0  0  0  0  0  0  0  0  0
   -1.8380    0.1130   -0.1420 C   0  0  0  0  0  0  0  0  0  0  0  0
   -1.6400   -1.1730    0.0140 C   0  0  0  0  0  0  0  0  0  0  0  0
   -0.6320   -1.9500    0.7350 C   0  0  0  0  0  0  0  0  0  0  0  0
   -1.3170   -3.3260    0.9860 C   0  0  0  0  0  0  0  0  0  0  0  0
   -2.0260   -3.5640   -0.3320 C   0  0  0  0  0  0  0  0  0  0  0  0
   -2.5670   -2.1860   -0.6120 C   0  0  0  0  0  0  0  0  0  0  0  0
  1  2  1  0
  2  3  1  0
  3  4  1  0
  4  5  1  0
  5  6  1  0
  6  7  2  0
  6  8  1  0
  8  9  1  0
  9 10  2  0
  9 19  1  0
 10 11  1  0
 11 12  2  0
 11 16  1  0
 12 13  1  0
 12 17  1  0
 13 14  2  0
 13 15  1  0
 15 16  1  0
 17 18  2  0
 17 19  1  0
 19 20  2  3
 20 21  1  0
 20 24  1  0
 21 22  1  0
 22 23  1  0
 23 24  1  0
M  CHG  1  14   1
M  END
