
     RDKit          3D

 10 10  0  0  0  0  0  0  0  0999 V2000
    3.8230    0.6580   -0.1420 C   0  0  0  0  0  0  0  0  0  0  0  0
    2.4030    0.3040   -0.4340 C   0  0  0  0  0  0  0  0  0  0  0  0
    1.5810    0.2300    0.7430 O   0  0  0  0  0  0  0  0  0  0  0  0
    0.2580   -0.1030    0.5080 C   0  0  0  0  0  0  0  0  0  0  0  0
   -0.1870   -1.4140    0.3870 C   0  0  0  0  0  0  0  0  0  0  0  0
   -1.5670   -1.3730    0.1550 C   0  0  0  0  0  0  0  0  0  0  0  0
   -1.8640   -0.0290    0.1530 C   0  0  0  0  0  0  0  0  0  0  0  0
   -3.1950    0.5880   -0.0500 C   0  0  0  0  0  0  0  0  0  0  0  0
   -3.7750    0.7300    1.1970 O   0  0  0  0  0  0  0  0  0  0  0  0
   -0.7660    0.6620    0.3630 O   0  0  0  0  0  0  0  0  0  0  0  0
  1  2  1  0
  2  3  1  0
  3  4  1  0
  4  5  2  0
  4 10  1  0
  5  6  1  0
  6  7  2  0
  7  8  1  0
  7 10  1  0
  8  9  1  0
M  END
