
     RDKit          3D

 10 10  0  0  0  0  0  0  0  0999 V2000
    3.4360   -0.3510   -0.3110 C   0  0  0  0  0  0  0  0  0  0  0  0
    2.6860    0.5600   -1.0410 O   0  0  0  0  0  0  0  0  0  0  0  0
    1.4850    0.9070   -0.4480 C   0  0  0  0  0  0  0  0  0  0  0  0
    0.6420   -0.3020   -0.2760 C   0  0  0  0  0  0  0  0  0  0  0  0
   -0.6990   -0.0340    0.3510 C   0  0  1  0  0  0  0  0  0  0  0  0
   -0.6200    0.5150    1.6050 O   0  0  0  0  0  0  0  0  0  0  0  0
   -1.6080    0.7920   -0.5170 C   0  0  0  0  0  0  0  0  0  0  0  0
   -2.9610    0.2130   -0.0800 C   0  0  0  0  0  0  0  0  0  0  0  0
   -2.7580   -1.1170    0.1680 O   0  0  0  0  0  0  0  0  0  0  0  0
   -1.4400   -1.3530    0.4120 C   0  0  0  0  0  0  0  0  0  0  0  0
  1  2  1  0
  2  3  1  0
  3  4  1  0
  4  5  1  0
  5  6  1  1
  5  7  1  0
  5 10  1  0
  7  8  1  0
  8  9  1  0
  9 10  1  0
M  END
