
     RDKit          3D

 10 10  0  0  0  0  0  0  0  0999 V2000
    3.7090    0.5320    0.4740 O   0  0  0  0  0  0  0  0  0  0  0  0
    2.5340   -0.2430    0.3480 C   0  0  0  0  0  0  0  0  0  0  0  0
    1.7090    0.4190   -0.7010 C   0  0  0  0  0  0  0  0  0  0  0  0
    0.4130   -0.2340   -1.0150 C   0  0  0  0  0  0  0  0  0  0  0  0
   -0.5610   -0.3600    0.0940 C   0  0  1  0  0  0  0  0  0  0  0  0
   -0.1220   -1.0940    1.1700 O   0  0  0  0  0  0  0  0  0  0  0  0
   -1.1710    0.9640    0.5140 C   0  0  0  0  0  0  0  0  0  0  0  0
   -2.6260    0.6040    0.6810 C   0  0  0  0  0  0  0  0  0  0  0  0
   -2.7300   -0.7700    0.5260 O   0  0  0  0  0  0  0  0  0  0  0  0
   -1.8080   -1.0620   -0.4640 C   0  0  0  0  0  0  0  0  0  0  0  0
  1  2  1  0
  2  3  1  0
  3  4  1  0
  4  5  1  0
  5  6  1  1
  5  7  1  0
  5 10  1  0
  7  8  1  0
  8  9  1  0
  9 10  1  0
M  END
