
     RDKit          3D

 10 10  0  0  0  0  0  0  0  0999 V2000
   -3.8500    0.3590   -0.0210 C   0  0  0  0  0  0  0  0  0  0  0  0
   -2.6100   -0.2780   -0.1760 O   0  0  0  0  0  0  0  0  0  0  0  0
   -1.6700    0.5370    0.4440 C   0  0  0  0  0  0  0  0  0  0  0  0
   -0.3010   -0.0420    0.3440 C   0  0  0  0  0  0  0  0  0  0  0  0
    0.0970   -1.2110   -0.2550 C   0  0  0  0  0  0  0  0  0  0  0  0
    1.4530   -1.2690   -0.0610 C   0  0  0  0  0  0  0  0  0  0  0  0
    1.8450   -0.1570    0.6370 C   0  0  0  0  0  0  0  0  0  0  0  0
    3.2460    0.1720    1.0590 C   0  0  0  0  0  0  0  0  0  0  0  0
    3.9180    0.9130    0.1040 O   0  0  0  0  0  0  0  0  0  0  0  0
    0.7570    0.5420    0.8530 O   0  0  0  0  0  0  0  0  0  0  0  0
  1  2  1  0
  2  3  1  0
  3  4  1  0
  4  5  2  0
  4 10  1  0
  5  6  1  0
  6  7  2  0
  7  8  1  0
  7 10  1  0
  8  9  1  0
M  END
