
     RDKit          3D

 10 10  0  0  0  0  0  0  0  0999 V2000
   -2.2100    1.1570    1.1510 C   0  0  0  0  0  0  0  0  0  0  0  0
   -1.6990    0.2740    0.3110 C   0  0  0  0  0  0  0  0  0  0  0  0
   -2.5650   -0.4730   -0.4350 O   0  0  0  0  0  0  0  0  0  0  0  0
   -0.2320    0.1350    0.2170 C   0  0  0  0  0  0  0  0  0  0  0  0
    0.3610   -0.7150   -0.5870 C   0  0  0  0  0  0  0  0  0  0  0  0
   -0.4660   -1.5880   -1.4540 C   0  0  0  0  0  0  0  0  0  0  0  0
    1.7590   -0.7940   -0.6250 O   0  0  0  0  0  0  0  0  0  0  0  0
    2.4680   -0.2110    0.4470 C   0  0  0  0  0  0  0  0  0  0  0  0
    1.8730    1.1960    0.5940 C   0  0  0  0  0  0  0  0  0  0  0  0
    0.5500    0.9690    1.0450 O   0  0  0  0  0  0  0  0  0  0  0  0
  1  2  2  0
  2  3  1  0
  2  4  1  0
  4  5  2  0
  4 10  1  0
  5  6  1  0
  5  7  1  0
  7  8  1  0
  8  9  1  0
  9 10  1  0
M  END
