
     RDKit          3D

 25 26  0  0  0  0  0  0  0  0999 V2000
   -6.7380    0.8160    0.0220 C   0  0  0  0  0  0  0  0  0  0  0  0
   -5.2620    0.7960    0.0950 C   0  0  0  0  0  0  0  0  0  0  0  0
   -4.4920    0.3060   -0.9290 C   0  0  0  0  0  0  0  0  0  0  0  0
   -5.1820   -0.1780   -2.0560 C   0  0  0  0  0  0  0  0  0  0  0  0
   -4.8700   -0.7530   -3.1520 C   0  0  0  0  0  0  0  0  0  0  0  0
   -3.1990   -1.2600   -3.7890 Br  0  0  0  0  0  0  0  0  0  0  0  0
   -3.0740    0.3270   -0.6610 C   0  0  0  0  0  0  0  0  0  0  0  0
   -2.0710    0.5340   -1.5570 C   0  0  0  0  0  0  0  0  0  0  0  0
   -0.7070    0.4330   -1.2880 C   0  0  0  0  0  0  0  0  0  0  0  0
   -0.3410    0.1010   -0.0140 C   0  0  0  0  0  0  0  0  0  0  0  0
    0.9800   -0.0440    0.4300 N   0  0  0  0  0  0  0  0  0  0  0  0
    2.1580    0.1140   -0.3090 C   0  0  0  0  0  0  0  0  0  0  0  0
    2.0720    0.4280   -1.5370 O   0  0  0  0  0  0  0  0  0  0  0  0
    3.4650   -0.0730    0.3030 C   0  0  0  0  0  0  0  0  0  0  0  0
    3.6110   -0.3960    1.5620 C   0  0  0  0  0  0  0  0  0  0  0  0
    4.9590   -0.5750    2.1390 C   0  0  0  0  0  0  0  0  0  0  0  0
    6.0480   -0.4200    1.4240 C   0  0  0  0  0  0  0  0  0  0  0  0
    7.3710   -0.6180    2.0750 C   0  0  0  0  0  0  0  0  0  0  0  0
    5.9600   -0.0630    0.0230 C   0  0  0  0  0  0  0  0  0  0  0  0
    7.0340    0.0810   -0.6450 O   0  0  0  0  0  0  0  0  0  0  0  0
    4.6540    0.1200   -0.5720 C   0  0  0  0  0  0  0  0  0  0  0  0
    4.5250    0.4290   -1.7780 O   0  0  0  0  0  0  0  0  0  0  0  0
   -1.3590   -0.1160    0.9380 C   0  0  0  0  0  0  0  0  0  0  0  0
   -1.0340   -0.4240    2.1290 O   0  0  0  0  0  0  0  0  0  0  0  0
   -2.6410   -0.0040    0.6100 N   0  0  0  0  0  0  0  0  0  0  0  0
  1  2  1  0
  2  3  2  3
  3  4  1  0
  3  7  1  0
  4  5  2  3
  5  6  1  0
  7  8  2  0
  7 25  1  0
  8  9  1  0
  9 10  2  0
 10 11  1  0
 10 23  1  0
 11 12  1  0
 12 13  2  0
 12 14  1  0
 14 15  2  0
 14 21  1  0
 15 16  1  0
 16 17  2  0
 17 18  1  0
 17 19  1  0
 19 20  2  0
 19 21  1  0
 21 22  2  0
 23 24  2  0
 23 25  1  0
M  END
