
     RDKit          3D

 25 26  0  0  0  0  0  0  0  0999 V2000
   -3.4420   -1.7230    0.7500 C   0  0  0  0  0  0  0  0  0  0  0  0
   -3.5650   -0.6700   -0.0150 C   0  0  0  0  0  0  0  0  0  0  0  0
   -4.7230   -0.4780   -0.9420 C   0  0  2  0  0  0  0  0  0  0  0  0
   -4.1230   -0.0910   -2.7260 Br  0  0  0  0  0  0  0  0  0  0  0  0
   -5.3660    0.8130   -0.4070 C   0  0  0  0  0  0  0  0  0  0  0  0
   -4.4420    1.9570   -0.5790 C   0  0  0  0  0  0  0  0  0  0  0  0
   -3.0220    1.7700   -0.1910 C   0  0  0  0  0  0  0  0  0  0  0  0
   -2.6310    0.3890    0.0060 N   0  0  0  0  0  0  0  0  0  0  0  0
   -1.2250    0.1130    0.2910 C   0  0  2  0  0  0  0  0  0  0  0  0
   -0.3520    1.0500   -0.5090 C   0  0  0  0  0  0  0  0  0  0  0  0
    0.9880    0.8410   -0.3480 O   0  0  0  0  0  0  0  0  0  0  0  0
    1.8530   -0.0950   -0.7950 C   0  0  0  0  0  0  0  0  0  0  0  0
    1.4540   -1.0010   -1.5440 O   0  0  0  0  0  0  0  0  0  0  0  0
    3.2560   -0.0680   -0.4160 C   0  0  0  0  0  0  0  0  0  0  0  0
    3.6980    0.9330    0.4110 C   0  0  0  0  0  0  0  0  0  0  0  0
    5.0080    1.0290    0.8150 C   0  0  0  0  0  0  0  0  0  0  0  0
    5.4690    2.1050    1.7000 C   0  0  0  0  0  0  0  0  0  0  0  0
    6.6610    2.1820    2.0610 O   0  0  0  0  0  0  0  0  0  0  0  0
    5.8910    0.0660    0.3540 C   0  0  0  0  0  0  0  0  0  0  0  0
    5.4630   -0.9400   -0.4740 C   0  0  0  0  0  0  0  0  0  0  0  0
    4.1610   -1.0140   -0.8600 C   0  0  0  0  0  0  0  0  0  0  0  0
    3.6910   -2.0850   -1.7440 C   0  0  0  0  0  0  0  0  0  0  0  0
   -0.8280   -1.2740    0.0590 C   0  0  0  0  0  0  0  0  0  0  0  0
   -1.3600   -2.0530   -1.0010 N   0  0  0  0  0  0  0  0  0  0  0  0
    0.0300   -1.7970    0.8410 O   0  0  0  0  0  0  0  0  0  0  0  0
  1  2  2  0
  2  3  1  0
  2  8  1  0
  3  4  1  6
  3  5  1  0
  5  6  1  0
  6  7  1  0
  7  8  1  0
  8  9  1  0
  9 10  1  6
  9 23  1  0
 10 11  1  0
 11 12  1  0
 12 13  2  0
 12 14  1  0
 14 15  2  0
 14 21  1  0
 15 16  1  0
 16 17  1  0
 16 19  2  0
 17 18  2  0
 19 20  1  0
 20 21  2  0
 21 22  1  0
 23 24  1  0
 23 25  2  0
M  END
