
     RDKit          3D

 25 25  0  0  0  0  0  0  0  0999 V2000
   -4.6940    1.0980    1.7090 C   0  0  0  0  0  0  0  0  0  0  0  0
   -4.2440    0.7060    0.3420 C   0  0  0  0  0  0  0  0  0  0  0  0
   -2.9850    0.2870    0.0850 C   0  0  0  0  0  0  0  0  0  0  0  0
   -2.1190    0.2560    1.2370 N   0  0  0  0  0  0  0  0  0  0  0  0
   -0.7690    0.6270    1.3440 C   0  0  0  0  0  0  0  0  0  0  0  0
   -0.4380    1.4340    2.2730 O   0  0  0  0  0  0  0  0  0  0  0  0
    0.3470    0.1780    0.4730 C   0  0  0  0  0  0  0  0  0  0  0  0
    0.7350   -1.0670    0.3660 C   0  0  0  0  0  0  0  0  0  0  0  0
    1.8630   -1.3870   -0.5370 C   0  0  0  0  0  0  0  0  0  0  0  0
    2.4840   -0.2330   -1.1290 N   0  0  0  0  0  0  0  0  0  0  0  0
    3.1900    0.7740   -0.4010 C   0  0  0  0  0  0  0  0  0  0  0  0
    3.2900    0.6490    0.8450 O   0  0  0  0  0  0  0  0  0  0  0  0
    3.7880    1.9320   -1.0910 C   0  0  0  0  0  0  0  0  0  0  0  0
    4.4660    2.8330   -0.1040 C   0  0  0  0  0  0  0  0  0  0  0  0
    5.0450    3.9350   -0.6830 O   0  0  0  0  0  0  0  0  0  0  0  0
    6.0130    3.6510   -1.6150 C   0  0  0  0  0  0  0  0  0  0  0  0
    0.1810   -2.1280    1.0310 O   0  0  0  0  0  0  0  0  0  0  0  0
   -0.9840   -2.4650    1.5630 C   0  0  0  0  0  0  0  0  0  0  0  0
   -2.0710   -2.9680    0.9400 C   0  0  0  0  0  0  0  0  0  0  0  0
   -3.2690   -3.2570    1.8330 C   0  0  0  0  0  0  0  0  0  0  0  0
   -2.1590   -3.2630   -0.4750 C   0  0  0  0  0  0  0  0  0  0  0  0
   -2.2790   -2.5340   -1.5390 C   0  0  0  0  0  0  0  0  0  0  0  0
   -2.3870   -1.1700   -1.8960 C   0  0  0  0  0  0  0  0  0  0  0  0
   -2.6660   -0.0570   -1.2710 C   0  0  0  0  0  0  0  0  0  0  0  0
   -2.8330    1.5020   -2.5030 Br  0  0  0  0  0  0  0  0  0  0  0  0
  1  2  1  0
  2  3  2  3
  3  4  1  0
  3 24  1  0
  4  5  1  0
  5  6  2  0
  5  7  1  0
  7  8  2  0
  8  9  1  0
  8 17  1  0
  9 10  1  0
 10 11  1  0
 11 12  2  0
 11 13  1  0
 13 14  1  0
 14 15  1  0
 15 16  1  0
 17 18  1  0
 18 19  2  0
 19 20  1  0
 19 21  1  0
 21 22  2  0
 22 23  1  0
 23 24  2  0
 24 25  1  0
M  END
