
     RDKit          3D

 25 26  0  0  0  0  0  0  0  0999 V2000
    3.3790    1.7900   -2.5370 C   0  0  0  0  0  0  0  0  0  0  0  0
    2.5720    0.6840   -2.1980 O   0  0  0  0  0  0  0  0  0  0  0  0
    2.0030    0.5680   -0.9440 C   0  0  0  0  0  0  0  0  0  0  0  0
    2.7070   -0.0980   -0.0470 C   0  0  0  0  0  0  0  0  0  0  0  0
    3.9850   -0.6730   -0.3360 C   0  0  0  0  0  0  0  0  0  0  0  0
    4.7090   -1.3390    0.5300 C   0  0  0  0  0  0  0  0  0  0  0  0
    5.9740   -1.9160    0.2710 O   0  0  0  0  0  0  0  0  0  0  0  0
    6.5760   -2.3230    1.4660 C   0  0  0  0  0  0  0  0  0  0  0  0
    5.5180   -2.3890    2.4180 O   0  0  0  0  0  0  0  0  0  0  0  0
    4.4470   -1.6640    1.9250 C   0  0  0  0  0  0  0  0  0  0  0  0
    3.4330   -1.3480    2.5750 O   0  0  0  0  0  0  0  0  0  0  0  0
    0.6930    1.1660   -0.6790 C   0  0  1  0  0  0  0  0  0  0  0  0
    0.4970    2.4500   -1.3780 N   0  0  0  0  0  0  0  0  0  0  0  0
   -0.4830    0.3200   -0.6350 C   0  0  0  0  0  0  0  0  0  0  0  0
   -1.4160    0.4270    0.4190 C   0  0  0  0  0  0  0  0  0  0  0  0
   -2.5460   -0.3670    0.5090 C   0  0  0  0  0  0  0  0  0  0  0  0
   -3.5200   -0.1880    1.5970 C   0  0  0  0  0  0  0  0  0  0  0  0
   -4.6620    0.7020    1.3570 C   0  0  1  0  0  0  0  0  0  0  0  0
   -5.6060    0.4250    0.2640 C   0  0  0  0  0  0  0  0  0  0  0  0
   -5.4870    0.7970    2.6480 C   0  0  0  0  0  0  0  0  0  0  0  0
   -2.7790   -1.3080   -0.4660 C   0  0  0  0  0  0  0  0  0  0  0  0
   -4.2850   -2.5120   -0.4010 Br  0  0  0  0  0  0  0  0  0  0  0  0
   -1.8930   -1.4020   -1.4580 N   0  0  0  0  0  0  0  0  0  0  0  0
   -0.7780   -0.6280   -1.5620 C   0  0  0  0  0  0  0  0  0  0  0  0
    0.1000   -0.8460   -2.7360 C   0  0  0  0  0  0  0  0  0  0  0  0
  1  2  1  0
  2  3  1  0
  3  4  2  3
  3 12  1  0
  4  5  1  0
  5  6  2  3
  6  7  1  0
  6 10  1  0
  7  8  1  0
  8  9  1  0
  9 10  1  0
 10 11  2  0
 12 13  1  6
 12 14  1  0
 14 15  2  0
 14 24  1  0
 15 16  1  0
 16 17  1  0
 16 21  2  0
 17 18  1  0
 18 19  1  6
 18 20  1  0
 21 22  1  0
 21 23  1  0
 23 24  2  0
 24 25  1  0
M  END
