
     RDKit          3D

 25 26  0  0  0  0  0  0  0  0999 V2000
    5.5250   -1.2070   -1.1120 C   0  0  0  0  0  0  0  0  0  0  0  0
    4.5050   -0.3170   -1.7870 C   0  0  0  0  0  0  0  0  0  0  0  0
    3.5970    0.2750   -0.7840 C   0  0  0  0  0  0  0  0  0  0  0  0
    2.3140   -0.1710   -0.5910 C   0  0  0  0  0  0  0  0  0  0  0  0
    1.4420    0.3850    0.3620 C   0  0  0  0  0  0  0  0  0  0  0  0
    0.1320   -0.1640    0.4720 N   0  0  0  0  0  0  0  0  0  0  0  0
   -0.9000    0.2660    1.3230 C   0  0  0  0  0  0  0  0  0  0  0  0
   -0.6980    1.2250    2.0810 O   0  0  0  0  0  0  0  0  0  0  0  0
   -2.2380   -0.3770    1.3610 C   0  0  2  0  0  0  0  0  0  0  0  0
   -2.2130   -1.8370    1.6320 C   0  0  0  0  0  0  0  0  0  0  0  0
   -3.4990   -2.3810    1.4780 O   0  0  0  0  0  0  0  0  0  0  0  0
   -4.6620   -1.6640    1.2480 C   0  0  0  0  0  0  0  0  0  0  0  0
   -5.8300   -2.0330    1.6300 N   0  0  0  0  0  0  0  0  0  0  0  0
   -4.4600   -0.3740    0.4920 C   0  0  0  0  0  0  0  0  0  0  0  0
   -5.5100    0.3530    0.2890 C   0  0  0  0  0  0  0  0  0  0  0  0
   -5.6910    1.6160   -0.3790 C   0  0  0  0  0  0  0  0  0  0  0  0
   -6.8790    2.1270   -0.4390 O   0  0  0  0  0  0  0  0  0  0  0  0
   -4.3040    2.6130   -1.1920 Br  0  0  0  0  0  0  0  0  0  0  0  0
   -3.0440   -0.1260    0.0840 C   0  0  2  0  0  0  0  0  0  0  0  0
   -2.6760   -1.0300   -0.8990 O   0  0  0  0  0  0  0  0  0  0  0  0
   -2.2150   -0.4170   -2.0520 C   0  0  0  0  0  0  0  0  0  0  0  0
    1.9300    1.4140    1.1120 C   0  0  0  0  0  0  0  0  0  0  0  0
    3.2140    1.8710    0.9300 C   0  0  0  0  0  0  0  0  0  0  0  0
    4.0560    1.3180   -0.0070 C   0  0  0  0  0  0  0  0  0  0  0  0
    5.4190    1.8190   -0.1870 C   0  0  0  0  0  0  0  0  0  0  0  0
  1  2  1  0
  2  3  1  0
  3  4  2  0
  3 24  1  0
  4  5  1  0
  5  6  1  0
  5 22  2  0
  6  7  1  0
  7  8  2  0
  9  7  1  6
  9 10  1  0
  9 19  1  0
 10 11  1  0
 11 12  1  0
 12 13  2  0
 12 14  1  0
 14 15  2  3
 14 19  1  0
 15 16  1  0
 16 17  2  0
 16 18  1  0
 19 20  1  6
 20 21  1  0
 22 23  1  0
 23 24  2  0
 24 25  1  0
M  END
