
     RDKit          3D

 32 33  0  0  0  0  0  0  0  0999 V2000
    1.7720    3.8940   -2.9680 C   0  0  0  0  0  0  0  0  0  0  0  0
    1.7530    2.8620   -1.8420 C   0  0  0  0  0  0  0  0  0  0  0  0
    0.5170    3.0980   -0.9360 C   0  0  0  0  0  0  0  0  0  0  0  0
    0.5570    4.3750   -0.2220 C   0  0  0  0  0  0  0  0  0  0  0  0
    0.3510    5.5920   -0.8870 N   0  0  0  0  0  0  0  0  0  0  0  0
    1.5070    6.4970   -0.6470 C   0  0  0  0  0  0  0  0  0  0  0  0
   -0.2490    2.0990   -0.7720 C   0  0  0  0  0  0  0  0  0  0  0  0
    0.2270    0.8540   -1.4570 N   0  0  0  0  0  0  0  0  0  0  0  0
    1.3110    0.0910   -0.9750 C   0  0  0  0  0  0  0  0  0  0  0  0
    1.1130   -0.6300    0.3180 C   0  0  0  0  0  0  0  0  0  0  0  0
    2.3450   -1.3410    0.6910 N   0  0  1  0  0  0  0  0  0  0  0  0
    3.2920   -0.3610    1.1430 C   0  0  0  0  0  0  0  0  0  0  0  0
    4.3510   -0.9480    2.0590 C   0  0  0  0  0  0  0  0  0  0  0  0
    4.9780   -2.1830    1.4530 C   0  0  0  0  0  0  0  0  0  0  0  0
    4.3000   -3.4470    1.9010 C   0  0  0  0  0  0  0  0  0  0  0  0
    2.8980   -3.5920    1.3530 C   0  0  0  0  0  0  0  0  0  0  0  0
    2.0640   -2.3750    1.6720 C   0  0  0  0  0  0  0  0  0  0  0  0
   -1.5920    1.9190   -0.2170 C   0  0  0  0  0  0  0  0  0  0  0  0
   -2.0500    0.6560   -0.1880 C   0  0  0  0  0  0  0  0  0  0  0  0
   -3.2490    0.0540    0.2550 C   0  0  0  0  0  0  0  0  0  0  0  0
   -4.2230    0.6270    0.7660 O   0  0  0  0  0  0  0  0  0  0  0  0
   -3.4550   -1.3880    0.1370 N   0  0  0  0  0  0  0  0  0  0  0  0
   -2.4210   -2.2140   -0.3910 C   0  0  0  0  0  0  0  0  0  0  0  0
   -3.1060   -3.5470   -0.7590 C   0  0  1  0  0  0  0  0  0  0  0  0
   -2.0750   -4.4880   -1.3350 C   0  0  0  0  0  0  0  0  0  0  0  0
   -3.5680   -4.1140    0.4290 O   0  0  0  0  0  0  0  0  0  0  0  0
   -4.5310   -3.3630    1.0720 C   0  0  2  0  0  0  0  0  0  0  0  0
   -5.9050   -4.0400    0.9780 C   0  0  0  0  0  0  0  0  0  0  0  0
   -4.7030   -1.9720    0.5390 C   0  0  0  0  0  0  0  0  0  0  0  0
   -2.4920    2.9380    0.1980 C   0  0  0  0  0  0  0  0  0  0  0  0
   -2.2590    4.3330    0.1940 N   0  0  0  0  0  0  0  0  0  0  0  0
   -3.6700    2.6090    0.6360 O   0  0  0  0  0  0  0  0  0  0  0  0
  1  2  1  0
  2  3  1  0
  3  4  1  0
  3  7  2  3
  4  5  1  0
  5  6  1  0
  7  8  1  0
  7 18  1  0
  8  9  1  0
  9 10  1  0
 11 10  1  1
 11 12  1  0
 11 17  1  0
 12 13  1  0
 13 14  1  0
 14 15  1  0
 15 16  1  0
 16 17  1  0
 18 19  2  3
 18 30  1  0
 19 20  1  0
 20 21  2  0
 20 22  1  0
 22 23  1  0
 22 29  1  0
 23 24  1  0
 24 25  1  1
 24 26  1  0
 26 27  1  0
 27 28  1  6
 27 29  1  0
 30 31  1  0
 30 32  2  0
M  CHG  2   5   1  11   1
M  END
