
     RDKit          3D

 33 36  0  0  0  0  0  0  0  0999 V2000
   -7.9580    2.3940   -1.1310 C   0  0  0  0  0  0  0  0  0  0  0  0
   -7.0760    1.4310   -0.4330 C   0  0  0  0  0  0  0  0  0  0  0  0
   -7.4880    0.9160    0.7720 C   0  0  0  0  0  0  0  0  0  0  0  0
   -6.7100    0.0150    1.4680 C   0  0  0  0  0  0  0  0  0  0  0  0
   -7.1560   -0.5480    2.7810 C   0  0  0  0  0  0  0  0  0  0  0  0
   -5.5120   -0.3410    0.9040 C   0  0  0  0  0  0  0  0  0  0  0  0
   -5.0460    0.1560   -0.3230 C   0  0  0  0  0  0  0  0  0  0  0  0
   -3.7350   -0.3060   -0.8260 C   0  0  0  0  0  0  0  0  0  0  0  0
   -2.7710   -1.4740    0.1030 S   0  0  0  0  0  0  0  0  0  0  0  0
   -1.4060   -1.5710   -1.0220 C   0  0  0  0  0  0  0  0  0  0  0  0
   -0.1650   -2.4010   -0.8880 C   0  0  0  0  0  0  0  0  0  0  0  0
    0.9000   -1.7210   -0.2320 N   0  0  0  0  0  0  0  0  0  0  0  0
    0.5800   -1.3090    1.0990 C   0  0  0  0  0  0  0  0  0  0  0  0
    1.8380   -0.9610    1.8250 C   0  0  0  0  0  0  0  0  0  0  0  0
    2.8420   -0.4600    0.9390 N   0  0  0  0  0  0  0  0  0  0  0  0
    4.1980   -0.4590    1.3780 C   0  0  0  0  0  0  0  0  0  0  0  0
    4.4740   -0.9030    2.5460 O   0  0  0  0  0  0  0  0  0  0  0  0
    5.3030    0.0500    0.5050 C   0  0  0  0  0  0  0  0  0  0  0  0
    6.6010   -0.0970    1.2680 C   0  0  0  0  0  0  0  0  0  0  0  0
    7.7170    0.3850    0.4610 N   0  0  0  0  0  0  0  0  0  0  0  0
    8.4750   -0.4160   -0.4320 C   0  0  0  0  0  0  0  0  0  0  0  0
    8.2750   -1.6360   -0.6340 O   0  0  0  0  0  0  0  0  0  0  0  0
    9.4720    0.3890   -1.0370 N   0  0  0  0  0  0  0  0  0  0  0  0
    9.3560    1.7210   -0.5310 C   0  0  0  0  0  0  0  0  0  0  0  0
   10.0690    2.7110   -0.8380 O   0  0  0  0  0  0  0  0  0  0  0  0
    8.2560    1.6920    0.4000 C   0  0  0  0  0  0  0  0  0  0  0  0
    7.8080    2.6550    1.0770 O   0  0  0  0  0  0  0  0  0  0  0  0
    2.5750    0.0540   -0.3870 C   0  0  0  0  0  0  0  0  0  0  0  0
    1.3930   -0.6190   -1.0340 C   0  0  0  0  0  0  0  0  0  0  0  0
   -1.7920   -0.7020   -2.0210 C   0  0  0  0  0  0  0  0  0  0  0  0
   -2.9790   -0.0780   -1.8900 C   0  0  0  0  0  0  0  0  0  0  0  0
   -3.4410    0.8940   -2.9800 C   0  0  0  0  0  0  0  0  0  0  0  0
   -5.8310    1.0310   -0.9700 C   0  0  0  0  0  0  0  0  0  0  0  0
  1  2  1  0
  2  3  2  0
  2 33  1  0
  3  4  1  0
  4  5  1  0
  4  6  2  0
  6  7  1  0
  7  8  1  0
  7 33  2  0
  8  9  1  0
  8 31  2  0
  9 10  1  0
 10 11  1  0
 10 30  2  0
 11 12  1  0
 12 13  1  0
 12 29  1  0
 13 14  1  0
 14 15  1  0
 15 16  1  0
 15 28  1  0
 16 17  2  0
 16 18  1  0
 18 19  1  0
 19 20  1  0
 20 21  1  0
 20 26  1  0
 21 22  2  0
 21 23  1  0
 23 24  1  0
 24 25  2  0
 24 26  1  0
 26 27  2  0
 28 29  1  0
 30 31  1  0
 31 32  1  0
M  END
