
     RDKit          3D

 33 35  0  0  0  0  0  0  0  0999 V2000
   -4.2660    1.5310   -2.3670 C   0  0  0  0  0  0  0  0  0  0  0  0
   -4.4120    1.8650   -0.9270 C   0  0  0  0  0  0  0  0  0  0  0  0
   -4.1210    0.8730    0.0350 N   0  0  0  0  0  0  0  0  0  0  0  0
   -3.4220   -0.2990   -0.3450 C   0  0  1  0  0  0  0  0  0  0  0  0
   -1.9480   -0.2710   -0.0050 C   0  0  1  0  0  0  0  0  0  0  0  0
   -1.3130    0.8940   -0.7370 C   0  0  0  0  0  0  0  0  0  0  0  0
    0.1830    0.9340   -0.3460 C   0  0  0  0  0  0  0  0  0  0  0  0
    0.1850    1.4620    0.9780 N   0  0  0  0  0  0  0  0  0  0  0  0
    1.2230    2.2910    1.4500 C   0  0  0  0  0  0  0  0  0  0  0  0
    1.1810    2.7580    2.6510 O   0  0  0  0  0  0  0  0  0  0  0  0
    2.3910    2.6970    0.6690 C   0  0  0  0  0  0  0  0  0  0  0  0
    3.6740    2.6090    1.4240 C   0  0  0  0  0  0  0  0  0  0  0  0
    4.0030    1.2620    1.7480 N   0  0  0  0  0  0  0  0  0  0  0  0
    3.7540    0.6690    2.9070 C   0  0  0  0  0  0  0  0  0  0  0  0
    3.2430    1.2880    3.8630 O   0  0  0  0  0  0  0  0  0  0  0  0
    4.0650   -0.6590    3.0890 N   0  0  0  0  0  0  0  0  0  0  0  0
    4.6160   -1.3940    2.1380 C   0  0  0  0  0  0  0  0  0  0  0  0
    4.9110   -2.6200    2.2810 O   0  0  0  0  0  0  0  0  0  0  0  0
    4.8890   -0.7960    0.9200 C   0  0  0  0  0  0  0  0  0  0  0  0
    5.4710   -1.5630   -0.0550 N   0  0  0  0  0  0  0  0  0  0  0  0
    5.7790   -1.0650   -1.2600 C   0  0  0  0  0  0  0  0  0  0  0  0
    6.4080   -1.8890   -2.3270 C   0  0  0  0  0  0  0  0  0  0  0  0
    7.8620   -1.8730   -2.2180 N   0  0  0  0  0  0  0  0  0  0  0  0
    5.4800    0.2590   -1.4670 C   0  0  0  0  0  0  0  0  0  0  0  0
    4.8850    1.0660   -0.4880 C   0  0  0  0  0  0  0  0  0  0  0  0
    4.5760    0.5270    0.7460 C   0  0  0  0  0  0  0  0  0  0  0  0
   -0.9120    1.1230    1.8390 C   0  0  0  0  0  0  0  0  0  0  0  0
   -1.5880   -0.1780    1.4150 C   0  0  0  0  0  0  0  0  0  0  0  0
   -4.1070   -1.5940   -0.0940 C   0  0  1  0  0  0  0  0  0  0  0  0
   -3.2740   -2.8010   -0.5220 C   0  0  0  0  0  0  0  0  0  0  0  0
   -4.4030   -1.8460    1.3950 C   0  0  0  0  0  0  0  0  0  0  0  0
   -5.3940   -1.7940   -0.8010 C   0  0  0  0  0  0  0  0  0  0  0  0
   -6.5500   -0.9510   -0.6200 C   0  0  0  0  0  0  0  0  0  0  0  0
  1  2  1  0
  2  3  1  0
  4  3  1  1
  4  5  1  0
  4 29  1  0
  5  6  1  6
  5 28  1  0
  6  7  1  0
  7  8  1  0
  8  9  1  0
  8 27  1  0
  9 10  2  0
  9 11  1  0
 11 12  1  0
 12 13  1  0
 13 14  1  0
 13 26  1  0
 14 15  2  0
 14 16  1  0
 16 17  1  0
 17 18  2  0
 17 19  1  0
 19 20  2  0
 19 26  1  0
 20 21  1  0
 21 22  1  0
 21 24  2  0
 22 23  1  0
 24 25  1  0
 25 26  2  0
 27 28  1  0
 29 30  1  6
 29 31  1  0
 29 32  1  0
 32 33  1  0
M  CHG  2   3   1  23   1
M  END
