
     RDKit          3D

 33 36  0  0  0  0  0  0  0  0999 V2000
   -5.8130    2.9950   -2.0830 C   0  0  0  0  0  0  0  0  0  0  0  0
   -4.7410    2.2910   -1.4810 O   0  0  0  0  0  0  0  0  0  0  0  0
   -4.2690    2.7490   -0.2660 C   0  0  0  0  0  0  0  0  0  0  0  0
   -4.7810    3.8390    0.3840 C   0  0  0  0  0  0  0  0  0  0  0  0
   -4.2970    4.2810    1.5960 C   0  0  0  0  0  0  0  0  0  0  0  0
   -3.2460    3.5990    2.1930 C   0  0  0  0  0  0  0  0  0  0  0  0
   -2.7240    2.4970    1.5440 C   0  0  0  0  0  0  0  0  0  0  0  0
   -3.2130    2.0650    0.3350 C   0  0  0  0  0  0  0  0  0  0  0  0
   -2.7090    0.9290   -0.3610 N   0  0  0  0  0  0  0  0  0  0  0  0
   -1.5870    0.1960    0.0910 C   0  0  0  0  0  0  0  0  0  0  0  0
   -0.5830    0.8150    0.5820 N   0  0  0  0  0  0  0  0  0  0  0  0
    0.6000    0.2080    1.0680 C   0  0  0  0  0  0  0  0  0  0  0  0
    1.9050    1.2350    1.7290 S   0  0  0  0  0  0  0  0  0  0  0  0
    3.2580    0.1540    2.2740 C   0  0  0  0  0  0  0  0  0  0  0  0
    3.8370   -0.4890    1.0760 C   0  0  0  0  0  0  0  0  0  0  0  0
    3.3230   -1.5940    0.7160 O   0  0  0  0  0  0  0  0  0  0  0  0
    4.9060    0.0460    0.3280 N   0  0  0  0  0  0  0  0  0  0  0  0
    5.5360    1.2950    0.6760 C   0  0  0  0  0  0  0  0  0  0  0  0
    7.0410    1.0420    0.8190 C   0  0  0  0  0  0  0  0  0  0  0  0
    7.3550   -0.2900    0.5250 O   0  0  0  0  0  0  0  0  0  0  0  0
    6.9230   -0.5650   -0.7660 C   0  0  1  0  0  0  0  0  0  0  0  0
    7.5290   -1.8530   -1.2950 C   0  0  0  0  0  0  0  0  0  0  0  0
    5.3960   -0.6720   -0.8260 C   0  0  0  0  0  0  0  0  0  0  0  0
    0.6940   -1.0880    1.0170 N   0  0  0  0  0  0  0  0  0  0  0  0
   -0.3480   -1.8990    0.4940 C   0  0  0  0  0  0  0  0  0  0  0  0
   -0.1890   -3.1290    0.4760 O   0  0  0  0  0  0  0  0  0  0  0  0
   -1.5480   -1.2910    0.0020 C   0  0  0  0  0  0  0  0  0  0  0  0
   -2.5700   -1.9020   -0.4880 C   0  0  0  0  0  0  0  0  0  0  0  0
   -2.6780   -3.3280   -0.6390 C   0  0  0  0  0  0  0  0  0  0  0  0
   -3.8040   -3.8340   -1.1640 C   0  0  0  0  0  0  0  0  0  0  0  0
   -3.9320   -5.2930   -1.3270 C   0  0  0  0  0  0  0  0  0  0  0  0
   -4.8700   -2.8840   -1.5510 C   0  0  0  0  0  0  0  0  0  0  0  0
   -3.8160    4.8010    2.9010 C   0  0  0  0  0  0  0  0  0  0  0  0
  1  2  1  0
  2  3  1  0
  3  4  2  0
  3  8  1  0
  4  5  1  0
  5  6  2  0
  5 33  1  0
  6  7  1  0
  6 33  1  0
  7  8  2  0
  8  9  1  0
  9 10  1  0
 10 11  2  0
 10 27  1  0
 11 12  1  0
 12 13  1  0
 12 24  2  0
 13 14  1  0
 14 15  1  0
 15 16  2  0
 15 17  1  0
 17 18  1  0
 17 23  1  0
 18 19  1  0
 19 20  1  0
 20 21  1  0
 21 22  1  1
 21 23  1  0
 24 25  1  0
 25 26  2  0
 25 27  1  0
 27 28  2  3
 28 29  1  0
 29 30  2  3
 30 31  1  0
 30 32  1  0
M  END
