
     RDKit          3D

 33 36  0  0  0  0  0  0  0  0999 V2000
   -6.8500   -2.1880    1.7670 C   0  0  0  0  0  0  0  0  0  0  0  0
   -7.1290   -1.2300    0.6780 C   0  0  0  0  0  0  0  0  0  0  0  0
   -8.1620   -1.4540   -0.2590 C   0  0  0  0  0  0  0  0  0  0  0  0
   -8.3630   -0.5060   -1.2440 C   0  0  0  0  0  0  0  0  0  0  0  0
   -7.6210    0.6070   -1.3380 N   0  0  0  0  0  0  0  0  0  0  0  0
   -6.6480    0.8170   -0.4550 C   0  0  0  0  0  0  0  0  0  0  0  0
   -5.9170    1.8520   -0.5060 O   0  0  0  0  0  0  0  0  0  0  0  0
   -6.3860   -0.1010    0.5710 C   0  0  0  0  0  0  0  0  0  0  0  0
   -5.3000    0.2260    1.4840 C   0  0  0  0  0  0  0  0  0  0  0  0
   -5.4640    0.1230    2.6970 O   0  0  0  0  0  0  0  0  0  0  0  0
   -4.0120    0.6830    0.9700 C   0  0  0  0  0  0  0  0  0  0  0  0
   -3.4840    0.2780   -0.7110 S   0  0  0  0  0  0  0  0  0  0  0  0
   -1.8280    1.2800   -0.4680 C   0  0  0  0  0  0  0  0  0  0  0  0
   -0.9540    1.2470   -1.6690 C   0  0  0  0  0  0  0  0  0  0  0  0
   -0.0020    0.1180   -1.5800 C   0  0  0  0  0  0  0  0  0  0  0  0
    1.1730    0.2120   -0.7240 C   0  0  0  0  0  0  0  0  0  0  0  0
    1.2770    0.8210    0.4940 C   0  0  0  0  0  0  0  0  0  0  0  0
    2.4080    0.7980    1.2260 N   0  0  0  0  0  0  0  0  0  0  0  0
    3.4810    0.1670    0.7720 C   0  0  0  0  0  0  0  0  0  0  0  0
    3.4640   -0.4740   -0.4430 C   0  0  0  0  0  0  0  0  0  0  0  0
    4.6020   -1.1320   -1.0440 C   0  0  0  0  0  0  0  0  0  0  0  0
    4.3460   -2.1830   -1.7190 O   0  0  0  0  0  0  0  0  0  0  0  0
    5.9660   -0.7320   -0.9630 N   0  0  0  0  0  0  0  0  0  0  0  0
    6.4410    0.5230   -0.4630 C   0  0  0  0  0  0  0  0  0  0  0  0
    7.8170    0.5380    0.0980 C   0  0  0  0  0  0  0  0  0  0  0  0
    8.1930   -0.8630    0.5560 C   0  0  0  0  0  0  0  0  0  0  0  0
    8.2870   -1.6950   -0.6900 C   0  0  0  0  0  0  0  0  0  0  0  0
    6.9760   -1.6870   -1.3920 C   0  0  0  0  0  0  0  0  0  0  0  0
    6.7250   -2.4740   -2.3110 O   0  0  0  0  0  0  0  0  0  0  0  0
    2.3110   -0.4620   -1.2090 C   0  0  0  0  0  0  0  0  0  0  0  0
   -2.0170    1.6170    0.5940 N   0  0  0  0  0  0  0  0  0  0  0  0
   -2.9970    1.4310    1.4430 C   0  0  0  0  0  0  0  0  0  0  0  0
   -3.0110    1.9590    2.8420 C   0  0  0  0  0  0  0  0  0  0  0  0
  1  2  1  0
  2  3  1  0
  2  8  2  0
  3  4  2  0
  4  5  1  0
  5  6  1  0
  6  7  2  0
  6  8  1  0
  8  9  1  0
  9 10  2  0
  9 11  1  0
 11 12  1  0
 11 32  2  0
 12 13  1  0
 13 14  1  0
 13 31  2  0
 14 15  1  0
 15 16  1  0
 16 17  2  0
 16 30  1  0
 17 18  1  0
 18 19  2  0
 19 20  1  0
 20 21  1  0
 20 30  2  0
 21 22  2  0
 21 23  1  0
 23 24  1  0
 23 28  1  0
 24 25  1  0
 25 26  1  0
 26 27  1  0
 27 28  1  0
 28 29  2  0
 31 32  1  0
 32 33  1  0
M  END
