
     RDKit          3D

 33 35  0  0  0  0  0  0  0  0999 V2000
    9.6590   -0.5470   -1.5220 C   0  0  0  0  0  0  0  0  0  0  0  0
    9.2680   -1.7200   -0.5960 C   0  0  0  0  0  0  0  0  0  0  0  0
    8.0840   -1.5770   -0.1950 O   0  0  0  0  0  0  0  0  0  0  0  0
    6.8560   -1.4670    0.2360 C   0  0  0  0  0  0  0  0  0  0  0  0
    6.3720   -2.5400    0.7530 O   0  0  0  0  0  0  0  0  0  0  0  0
    6.0290   -0.2320    0.1780 C   0  0  0  0  0  0  0  0  0  0  0  0
    5.2300    0.1460    1.3540 C   0  0  1  0  0  0  0  0  0  0  0  0
    4.6050    1.5140    1.0160 C   0  0  0  0  0  0  0  0  0  0  0  0
    3.1340    1.5210    1.2190 C   0  0  0  0  0  0  0  0  0  0  0  0
    2.3780    0.4780    0.4070 C   0  0  2  0  0  0  0  0  0  0  0  0
    2.6100    0.6330   -1.0110 N   0  0  0  0  0  0  0  0  0  0  0  0
    1.5970    1.1630   -1.8100 C   0  0  0  0  0  0  0  0  0  0  0  0
    0.9950    0.4550    0.7960 C   0  0  0  0  0  0  0  0  0  0  0  0
    0.6420   -0.5740    1.5710 O   0  0  0  0  0  0  0  0  0  0  0  0
   -0.1290    1.2630    0.5280 N   0  0  0  0  0  0  0  0  0  0  0  0
   -1.4890    0.8330    0.8420 C   0  0  0  0  0  0  0  0  0  0  0  0
   -1.5420   -0.6900    0.7330 C   0  0  0  0  0  0  0  0  0  0  0  0
   -2.7480   -1.2670    1.0430 C   0  0  0  0  0  0  0  0  0  0  0  0
   -3.8670   -0.5090    1.4320 C   0  0  0  0  0  0  0  0  0  0  0  0
   -3.8000    0.9300    1.5230 C   0  0  0  0  0  0  0  0  0  0  0  0
   -2.4970    1.3320    1.1760 C   0  0  0  0  0  0  0  0  0  0  0  0
   -5.0380    1.4290    1.8910 N   0  0  0  0  0  0  0  0  0  0  0  0
   -6.0070    0.3420    1.3730 C   0  0  1  0  0  0  0  0  0  0  0  0
   -5.9190    0.4970   -0.0890 C   0  0  0  0  0  0  0  0  0  0  0  0
   -6.6640   -0.2060   -1.0450 N   0  0  1  0  0  0  0  0  0  0  0  0
   -7.8410   -0.8820   -0.4880 C   0  0  0  0  0  0  0  0  0  0  0  0
   -8.9840   -0.9020   -1.4530 C   0  0  0  0  0  0  0  0  0  0  0  0
   -7.2310    0.8300   -2.1190 C   0  0  0  0  0  0  0  0  0  0  0  0
   -6.7000    0.1040   -3.3940 C   0  0  0  0  0  0  0  0  0  0  0  0
   -6.2340   -0.5700   -4.5710 N   0  0  0  0  0  0  0  0  0  0  0  0
   -5.1890   -0.8240    1.7940 N   0  0  0  0  0  0  0  0  0  0  0  0
    3.0160   -0.8560    0.7740 C   0  0  0  0  0  0  0  0  0  0  0  0
    4.1320   -0.7540    1.7620 C   0  0  0  0  0  0  0  0  0  0  0  0
  1  2  1  0
  2  3  1  0
  3  4  1  0
  4  5  2  0
  4  6  1  0
  7  6  1  6
  7  8  1  0
  7 33  1  0
  8  9  1  0
  9 10  1  0
 10 11  1  6
 10 13  1  0
 10 32  1  0
 11 12  1  0
 13 14  2  0
 13 15  1  0
 15 16  1  0
 16 17  2  0
 16 21  1  0
 17 18  1  0
 18 19  2  0
 19 20  1  0
 19 31  1  0
 20 21  2  0
 20 22  1  0
 22 23  1  0
 23 24  1  6
 23 31  1  0
 25 24  1  1
 25 26  1  0
 25 28  1  0
 26 27  1  0
 28 29  1  0
 29 30  3  0
 32 33  1  0
M  CHG  2  11   1  25   1
M  END
