
     RDKit          3D

 33 36  0  0  0  0  0  0  0  0999 V2000
   10.8650   -0.5250   -0.3160 C   0  0  0  0  0  0  0  0  0  0  0  0
    9.4690   -0.3280   -0.0400 N   0  0  0  0  0  0  0  0  0  0  0  0
    8.6870    0.3840   -0.8860 C   0  0  0  0  0  0  0  0  0  0  0  0
    7.3470    0.5470   -0.6850 C   0  0  0  0  0  0  0  0  0  0  0  0
    6.7350   -0.0150    0.3990 C   0  0  0  0  0  0  0  0  0  0  0  0
    5.2960    0.0100    0.5640 C   0  0  0  0  0  0  0  0  0  0  0  0
    4.6980    0.6680    1.3870 O   0  0  0  0  0  0  0  0  0  0  0  0
    4.6260   -0.8620   -0.3770 N   0  0  0  0  0  0  0  0  0  0  0  0
    3.1820   -0.8680   -0.2730 C   0  0  0  0  0  0  0  0  0  0  0  0
    2.6850    0.4470   -0.6750 C   0  0  0  0  0  0  0  0  0  0  0  0
    2.2440    0.6520   -1.8350 O   0  0  0  0  0  0  0  0  0  0  0  0
    2.6960    1.5170    0.2460 O   0  0  0  0  0  0  0  0  0  0  0  0
    2.0580    2.7300   -0.3130 C   0  0  0  0  0  0  0  0  0  0  0  0
    0.6400    2.2250   -0.3430 C   0  0  0  0  0  0  0  0  0  0  0  0
   -0.0250    1.7990    0.5320 N   0  0  0  0  0  0  0  0  0  0  0  0
   -1.2120    1.2730    0.4880 C   0  0  0  0  0  0  0  0  0  0  0  0
   -1.7410    1.2220   -0.7810 C   0  0  0  0  0  0  0  0  0  0  0  0
   -0.4360    1.9560   -1.7900 S   0  0  0  0  0  0  0  0  0  0  0  0
   -3.0840    0.6800   -1.1090 C   0  0  0  0  0  0  0  0  0  0  0  0
   -3.4370   -0.4260   -0.1610 C   0  0  2  0  0  0  0  0  0  0  0  0
   -3.1810   -1.6990   -1.0030 C   0  0  0  0  0  0  0  0  0  0  0  0
   -4.8070   -0.4660    0.1600 N   0  0  0  0  0  0  0  0  0  0  0  0
   -5.4300    0.6380    0.7670 C   0  0  0  0  0  0  0  0  0  0  0  0
   -6.4240    1.1970   -0.2500 C   0  0  0  0  0  0  0  0  0  0  0  0
   -7.7760    0.6370   -0.1130 C   0  0  0  0  0  0  0  0  0  0  0  0
   -7.9420   -0.6760    0.5020 C   0  0  0  0  0  0  0  0  0  0  0  0
   -6.8180   -1.6030    0.6610 C   0  0  0  0  0  0  0  0  0  0  0  0
   -5.6520   -1.4630   -0.2800 C   0  0  0  0  0  0  0  0  0  0  0  0
   -2.5880   -0.6070    1.0370 C   0  0  0  0  0  0  0  0  0  0  0  0
   -2.0170    0.6780    1.5920 C   0  0  0  0  0  0  0  0  0  0  0  0
    7.5200   -0.7510    1.2980 C   0  0  0  0  0  0  0  0  0  0  0  0
    8.8820   -0.8950    1.0560 C   0  0  0  0  0  0  0  0  0  0  0  0
    9.6430   -1.5440    1.8220 O   0  0  0  0  0  0  0  0  0  0  0  0
  1  2  1  0
  2  3  1  0
  2 32  1  0
  3  4  2  0
  4  5  1  0
  5  6  1  0
  5 31  2  0
  6  7  2  0
  6  8  1  0
  8  9  1  0
  9 10  1  0
 10 11  2  0
 10 12  1  0
 12 13  1  0
 13 14  1  0
 14 15  2  0
 14 18  1  0
 15 16  1  0
 16 17  2  0
 16 30  1  0
 17 18  1  0
 17 19  1  0
 19 20  1  0
 20 21  1  6
 20 22  1  0
 20 29  1  0
 22 23  1  0
 22 28  1  0
 23 24  1  0
 24 25  1  0
 25 26  1  0
 26 27  1  0
 27 28  1  0
 29 30  1  0
 31 32  1  0
 32 33  2  0
M  END
