
     RDKit          3D

 33 36  0  0  0  0  0  0  0  0999 V2000
   -6.7350   -2.2420   -0.0740 C   0  0  0  0  0  0  0  0  0  0  0  0
   -7.0870   -0.9450   -0.5090 C   0  0  0  0  0  0  0  0  0  0  0  0
   -7.1090    0.2380   -0.8700 C   0  0  0  0  0  0  0  0  0  0  0  0
   -8.3940    0.9260   -1.2240 C   0  0  0  0  0  0  0  0  0  0  0  0
   -9.5350    0.4800   -0.8880 N   0  0  0  0  0  0  0  0  0  0  0  0
   -8.3280    2.2420   -1.8480 C   0  0  0  0  0  0  0  0  0  0  0  0
   -7.2140    2.8460   -2.1010 C   0  0  0  0  0  0  0  0  0  0  0  0
   -5.9690    2.1910   -1.7480 C   0  0  0  0  0  0  0  0  0  0  0  0
   -5.8720    1.0010   -1.1830 C   0  0  0  0  0  0  0  0  0  0  0  0
   -4.5750    0.4870   -0.8070 C   0  0  0  0  0  0  0  0  0  0  0  0
   -3.9770   -0.4470   -0.2080 N   0  0  0  0  0  0  0  0  0  0  0  0
   -2.9500   -0.7820    0.0480 C   0  0  0  0  0  0  0  0  0  0  0  0
   -1.5610   -1.2360    0.3950 C   0  0  0  0  0  0  0  0  0  0  0  0
   -1.6880   -2.5740    0.7210 O   0  0  0  0  0  0  0  0  0  0  0  0
   -0.2820   -0.8530    0.5200 N   0  0  0  0  0  0  0  0  0  0  0  0
    0.6780   -1.9720    0.9040 C   0  0  0  0  0  0  0  0  0  0  0  0
    1.9740   -1.6730    0.2550 C   0  0  0  0  0  0  0  0  0  0  0  0
    2.5440   -0.5490    1.0010 N   0  0  0  0  0  0  0  0  0  0  0  0
    3.8390   -0.4190    1.3440 C   0  0  0  0  0  0  0  0  0  0  0  0
    4.2600    0.6670    1.9440 O   0  0  0  0  0  0  0  0  0  0  0  0
    4.9770   -1.3780    1.1470 C   0  0  0  0  0  0  0  0  0  0  0  0
    6.2950   -0.7410    1.3980 C   0  0  0  0  0  0  0  0  0  0  0  0
    6.6400    0.3520    0.4980 C   0  0  0  0  0  0  0  0  0  0  0  0
    5.8380    0.8050   -0.3510 O   0  0  0  0  0  0  0  0  0  0  0  0
    7.9620    0.9420    0.5720 C   0  0  0  0  0  0  0  0  0  0  0  0
    9.0110    0.6650    1.3820 C   0  0  0  0  0  0  0  0  0  0  0  0
   10.1500    1.3550    1.2330 C   0  0  0  0  0  0  0  0  0  0  0  0
   10.2190    2.3240    0.2630 C   0  0  0  0  0  0  0  0  0  0  0  0
    8.5950    2.2510   -0.4720 S   0  0  0  0  0  0  0  0  0  0  0  0
    1.5520    0.4420    1.4150 C   0  0  0  0  0  0  0  0  0  0  0  0
    0.3410    0.4490    0.4590 C   0  0  0  0  0  0  0  0  0  0  0  0
   -2.4180    0.5930   -0.7640 C   0  0  0  0  0  0  0  0  0  0  0  0
   -3.4720    1.1660   -1.1670 O   0  0  0  0  0  0  0  0  0  0  0  0
  1  2  1  0
  2  3  2  3
  3  4  1  0
  3  9  1  0
  4  5  2  0
  4  6  1  0
  6  7  2  0
  7  8  1  0
  8  9  2  0
  9 10  1  0
 10 11  2  0
 10 33  1  0
 11 12  1  0
 12 13  1  0
 12 32  2  0
 13 14  2  0
 13 15  1  0
 15 16  1  0
 15 31  1  0
 16 17  1  0
 17 18  1  0
 18 19  1  0
 18 30  1  0
 19 20  2  0
 19 21  1  0
 21 22  1  0
 22 23  1  0
 23 24  2  0
 23 25  1  0
 25 26  2  0
 25 29  1  0
 26 27  1  0
 27 28  2  0
 28 29  1  0
 30 31  1  0
 32 33  1  0
M  END
