
     RDKit          3D

 33 36  0  0  0  0  0  0  0  0999 V2000
   -2.7390   -3.3630    3.2100 C   0  0  0  0  0  0  0  0  0  0  0  0
   -2.0900   -4.1310    2.1560 N   0  0  0  0  0  0  0  0  0  0  0  0
   -1.4760   -3.4850    1.0680 C   0  0  0  0  0  0  0  0  0  0  0  0
   -1.4790   -2.0840    1.0760 C   0  0  0  0  0  0  0  0  0  0  0  0
   -0.8910   -1.3550    0.0630 C   0  0  0  0  0  0  0  0  0  0  0  0
   -0.9000    0.0980    0.0660 N   0  0  0  0  0  0  0  0  0  0  0  0
   -0.6020    0.8200    1.2590 C   0  0  0  0  0  0  0  0  0  0  0  0
    0.7540    1.2260    1.5560 C   0  0  0  0  0  0  0  0  0  0  0  0
    0.8340    1.9140    2.6810 O   0  0  0  0  0  0  0  0  0  0  0  0
    1.9640    1.0200    0.8780 N   0  0  0  0  0  0  0  0  0  0  0  0
    3.1760    1.6090    1.4840 C   0  0  0  0  0  0  0  0  0  0  0  0
    4.0870    2.2530    0.5040 C   0  0  0  0  0  0  0  0  0  0  0  0
    3.7020    1.9670   -0.7970 O   0  0  0  0  0  0  0  0  0  0  0  0
    3.5740    0.5760   -0.8980 C   0  0  0  0  0  0  0  0  0  0  0  0
    2.1750    0.2750   -0.3400 C   0  0  0  0  0  0  0  0  0  0  0  0
   -1.2560    0.6830   -1.1650 C   0  0  0  0  0  0  0  0  0  0  0  0
   -1.5850   -0.0220   -2.1600 O   0  0  0  0  0  0  0  0  0  0  0  0
   -1.2770    2.1560   -1.4030 C   0  0  0  0  0  0  0  0  0  0  0  0
   -1.6410    2.7410   -2.6030 C   0  0  0  0  0  0  0  0  0  0  0  0
   -1.4910    4.5100   -2.3090 S   0  0  0  0  0  0  0  0  0  0  0  0
   -0.9280    4.2000   -0.5140 C   0  0  0  0  0  0  0  0  0  0  0  0
   -0.6270    5.4550    0.3060 C   0  0  1  0  0  0  0  0  0  0  0  0
    0.3550    6.2810   -0.5060 C   0  0  0  0  0  0  0  0  0  0  0  0
   -1.9040    6.3010    0.3930 C   0  0  0  0  0  0  0  0  0  0  0  0
   -0.9590    3.0530   -0.4950 N   0  0  0  0  0  0  0  0  0  0  0  0
   -0.2870   -2.0220   -0.9800 C   0  0  0  0  0  0  0  0  0  0  0  0
   -0.2750   -3.4110   -1.0060 C   0  0  0  0  0  0  0  0  0  0  0  0
   -0.8640   -4.1360    0.0070 C   0  0  0  0  0  0  0  0  0  0  0  0
   -0.8710   -5.6220   -0.0130 C   0  0  0  0  0  0  0  0  0  0  0  0
   -0.8200   -6.1400   -1.4370 C   0  0  0  0  0  0  0  0  0  0  0  0
    0.2610   -5.5490   -2.2570 C   0  0  0  0  0  0  0  0  0  0  0  0
    0.3740   -4.0920   -2.1000 C   0  0  0  0  0  0  0  0  0  0  0  0
    1.0390   -3.3770   -2.9090 O   0  0  0  0  0  0  0  0  0  0  0  0
  1  2  1  0
  2  3  1  0
  3  4  2  0
  3 28  1  0
  4  5  1  0
  5  6  1  0
  5 26  2  0
  6  7  1  0
  6 16  1  0
  7  8  1  0
  8  9  2  0
  8 10  1  0
 10 11  1  0
 10 15  1  0
 11 12  1  0
 12 13  1  0
 13 14  1  0
 14 15  1  0
 16 17  2  0
 16 18  1  0
 18 19  2  0
 18 25  1  0
 19 20  1  0
 20 21  1  0
 21 22  1  0
 21 25  2  0
 22 23  1  6
 22 24  1  0
 26 27  1  0
 27 28  2  0
 27 32  1  0
 28 29  1  0
 29 30  1  0
 30 31  1  0
 31 32  1  0
 32 33  2  0
M  END
