
     RDKit          3D

 33 35  0  0  0  0  0  0  0  0999 V2000
   -6.3760   -3.4280   -1.1560 C   0  0  0  0  0  0  0  0  0  0  0  0
   -5.7390   -2.2560   -1.0900 C   0  0  0  0  0  0  0  0  0  0  0  0
   -6.4430   -1.0380   -0.7670 C   0  0  0  0  0  0  0  0  0  0  0  0
   -5.7610    0.1040   -0.7140 C   0  0  0  0  0  0  0  0  0  0  0  0
   -4.3100    0.1480   -0.9780 C   0  0  0  0  0  0  0  0  0  0  0  0
   -3.6680    1.3860   -0.8880 N   0  0  0  0  0  0  0  0  0  0  0  0
   -2.4250    1.3560   -0.1810 C   0  0  2  0  0  0  0  0  0  0  0  0
   -1.3880    0.4840   -0.8620 C   0  0  0  0  0  0  0  0  0  0  0  0
   -0.0630    0.4860   -0.1240 C   0  0  0  0  0  0  0  0  0  0  0  0
   -0.2300    0.4670    1.2940 N   0  0  0  0  0  0  0  0  0  0  0  0
    0.5400   -0.3770    2.1070 C   0  0  0  0  0  0  0  0  0  0  0  0
    0.3430   -0.3890    3.3700 O   0  0  0  0  0  0  0  0  0  0  0  0
    1.5590   -1.2610    1.6650 N   0  0  0  0  0  0  0  0  0  0  0  0
    2.2400   -2.1400    2.5650 C   0  0  0  0  0  0  0  0  0  0  0  0
    1.9230   -2.1070    3.7780 O   0  0  0  0  0  0  0  0  0  0  0  0
    3.2930   -3.0700    2.0780 C   0  0  0  0  0  0  0  0  0  0  0  0
    3.6350   -2.7920    0.7190 O   0  0  0  0  0  0  0  0  0  0  0  0
    4.2060   -1.5730    0.4860 C   0  0  0  0  0  0  0  0  0  0  0  0
    4.4130   -0.7710    1.4020 O   0  0  0  0  0  0  0  0  0  0  0  0
    4.6020   -1.1660   -0.8840 C   0  0  0  0  0  0  0  0  0  0  0  0
    5.8310   -1.9090   -1.3270 C   0  0  0  0  0  0  0  0  0  0  0  0
    7.2640   -1.6920   -0.2820 S   0  0  0  0  0  0  0  0  0  0  0  0
    7.9420   -0.0450   -0.3430 C   0  0  0  0  0  0  0  0  0  0  0  0
    7.5690    1.0000   -1.0470 C   0  0  0  0  0  0  0  0  0  0  0  0
    8.4640    2.1180   -0.7290 C   0  0  0  0  0  0  0  0  0  0  0  0
    9.4230    1.5860    0.2570 C   0  0  0  0  0  0  0  0  0  0  0  0
    9.1150    0.3340    0.4770 C   0  0  0  0  0  0  0  0  0  0  0  0
   -1.2150    1.3360    1.9000 C   0  0  0  0  0  0  0  0  0  0  0  0
   -2.5360    0.9070    1.2360 C   0  0  0  0  0  0  0  0  0  0  0  0
   -4.3900    2.5650   -0.6390 C   0  0  0  0  0  0  0  0  0  0  0  0
   -5.6540    2.3840    0.1510 C   0  0  0  0  0  0  0  0  0  0  0  0
   -6.4460    1.3020   -0.3970 N   0  0  0  0  0  0  0  0  0  0  0  0
   -7.8800    1.4590   -0.5980 C   0  0  0  0  0  0  0  0  0  0  0  0
  1  2  2  0
  2  3  1  0
  3  4  2  3
  4  5  1  0
  4 32  1  0
  5  6  1  0
  7  6  1  6
  6 30  1  0
  7  8  1  0
  7 29  1  0
  8  9  1  0
  9 10  1  0
 10 11  1  0
 10 28  1  0
 11 12  2  0
 11 13  1  0
 13 14  1  0
 14 15  2  0
 14 16  1  0
 16 17  1  0
 17 18  1  0
 18 19  2  0
 18 20  1  0
 20 21  1  0
 21 22  1  0
 22 23  1  0
 23 24  2  0
 23 27  1  0
 24 25  1  0
 25 26  1  0
 26 27  2  0
 28 29  1  0
 30 31  1  0
 31 32  1  0
 32 33  1  0
M  END
