
     RDKit          3D

 33 35  0  0  0  0  0  0  0  0999 V2000
   -5.8990   -2.8740    0.5170 C   0  0  0  0  0  0  0  0  0  0  0  0
   -5.5580   -1.4830    1.0340 C   0  0  0  0  0  0  0  0  0  0  0  0
   -5.0110   -0.6450   -0.0130 N   0  0  0  0  0  0  0  0  0  0  0  0
   -4.0620    0.3530    0.5060 C   0  0  1  0  0  0  0  0  0  0  0  0
   -2.7650   -0.3170    0.6630 C   0  0  2  0  0  0  0  0  0  0  0  0
   -1.6080    0.4690    1.1730 C   0  0  0  0  0  0  0  0  0  0  0  0
   -0.5990    0.6020    0.0080 C   0  0  0  0  0  0  0  0  0  0  0  0
   -0.0750   -0.7010   -0.2870 N   0  0  0  0  0  0  0  0  0  0  0  0
    1.2390   -0.8620   -0.7880 C   0  0  0  0  0  0  0  0  0  0  0  0
    1.6160   -2.0270   -1.0140 O   0  0  0  0  0  0  0  0  0  0  0  0
    2.0520    0.3240   -0.9990 C   0  0  0  0  0  0  0  0  0  0  0  0
    3.2130    0.2630   -1.9200 C   0  0  0  0  0  0  0  0  0  0  0  0
    4.2420   -0.6960   -1.6460 N   0  0  0  0  0  0  0  0  0  0  0  0
    4.2400   -1.8850   -2.3190 C   0  0  0  0  0  0  0  0  0  0  0  0
    3.3730   -2.0720   -3.2210 O   0  0  0  0  0  0  0  0  0  0  0  0
    5.1430   -2.8180   -2.0280 N   0  0  0  0  0  0  0  0  0  0  0  0
    6.0560   -2.6090   -1.0870 C   0  0  0  0  0  0  0  0  0  0  0  0
    6.8920   -3.5040   -0.8340 O   0  0  0  0  0  0  0  0  0  0  0  0
    6.1100   -1.4300   -0.3800 C   0  0  0  0  0  0  0  0  0  0  0  0
    7.0410   -1.2010    0.5640 N   0  0  0  0  0  0  0  0  0  0  0  0
    7.0960   -0.0400    1.2390 C   0  0  0  0  0  0  0  0  0  0  0  0
    8.1330    0.2120    2.2900 C   0  0  0  0  0  0  0  0  0  0  0  0
    9.2740    0.8100    1.6110 N   0  0  0  0  0  0  0  0  0  0  0  0
    6.1680    0.9190    0.9370 C   0  0  0  0  0  0  0  0  0  0  0  0
    5.1770    0.7430   -0.0300 C   0  0  0  0  0  0  0  0  0  0  0  0
    5.1550   -0.4550   -0.6930 C   0  0  0  0  0  0  0  0  0  0  0  0
   -0.9470   -1.8210   -0.0500 C   0  0  0  0  0  0  0  0  0  0  0  0
   -2.3700   -1.3210   -0.3970 C   0  0  0  0  0  0  0  0  0  0  0  0
   -4.2570    1.6020   -0.2080 C   0  0  1  0  0  0  0  0  0  0  0  0
   -3.4010    2.7820    0.1620 C   0  0  0  0  0  0  0  0  0  0  0  0
   -4.1820    1.5130   -1.7200 C   0  0  0  0  0  0  0  0  0  0  0  0
   -5.6870    2.1060    0.0520 C   0  0  0  0  0  0  0  0  0  0  0  0
   -5.9870    2.3430    1.4910 C   0  0  0  0  0  0  0  0  0  0  0  0
  1  2  1  0
  2  3  1  0
  4  3  1  6
  4  5  1  0
  4 29  1  0
  5  6  1  6
  5 28  1  0
  6  7  1  0
  7  8  1  0
  8  9  1  0
  8 27  1  0
  9 10  2  0
  9 11  1  0
 11 12  1  0
 12 13  1  0
 13 14  1  0
 13 26  1  0
 14 15  2  0
 14 16  1  0
 16 17  1  0
 17 18  2  0
 17 19  1  0
 19 20  2  0
 19 26  1  0
 20 21  1  0
 21 22  1  0
 21 24  2  0
 22 23  1  0
 24 25  1  0
 25 26  2  0
 27 28  1  0
 29 30  1  1
 29 31  1  0
 29 32  1  0
 32 33  1  0
M  CHG  2   3   1  23   1
M  END
