
     RDKit          3D

 33 35  0  0  0  0  0  0  0  0999 V2000
   -8.5230   -2.9270    2.2040 C   0  0  0  0  0  0  0  0  0  0  0  0
   -7.1270   -3.2220    1.6730 C   0  0  0  0  0  0  0  0  0  0  0  0
   -6.4610   -1.9980    1.4450 O   0  0  0  0  0  0  0  0  0  0  0  0
   -7.0130   -1.1080    0.5450 C   0  0  0  0  0  0  0  0  0  0  0  0
   -8.0780   -1.3980   -0.0460 O   0  0  0  0  0  0  0  0  0  0  0  0
   -6.3930    0.1920    0.2440 C   0  0  0  0  0  0  0  0  0  0  0  0
   -5.0730    0.4190    0.9200 C   0  0  1  0  0  0  0  0  0  0  0  0
   -4.0040   -0.5590    0.5700 C   0  0  0  0  0  0  0  0  0  0  0  0
   -3.5260   -0.3180   -0.8430 C   0  0  0  0  0  0  0  0  0  0  0  0
   -2.8280    1.0220   -0.9380 C   0  0  2  0  0  0  0  0  0  0  0  0
   -2.9210    1.5030   -2.2790 N   0  0  0  0  0  0  0  0  0  0  0  0
   -4.2230    2.0310   -2.6330 C   0  0  0  0  0  0  0  0  0  0  0  0
   -1.3690    0.7180   -0.6770 C   0  0  0  0  0  0  0  0  0  0  0  0
   -1.0630    0.3310    0.4750 O   0  0  0  0  0  0  0  0  0  0  0  0
   -0.3700    0.8480   -1.6460 N   0  0  0  0  0  0  0  0  0  0  0  0
    1.0120    0.5980   -1.5010 C   0  0  0  0  0  0  0  0  0  0  0  0
    1.8280    0.5100   -2.6500 C   0  0  0  0  0  0  0  0  0  0  0  0
    3.1800    0.2850   -2.5800 C   0  0  0  0  0  0  0  0  0  0  0  0
    3.7960    0.1330   -1.3520 C   0  0  0  0  0  0  0  0  0  0  0  0
    3.0210    0.2150   -0.2130 C   0  0  0  0  0  0  0  0  0  0  0  0
    1.6330    0.4470   -0.2940 C   0  0  0  0  0  0  0  0  0  0  0  0
    3.8990    0.0270    0.8670 N   0  0  0  0  0  0  0  0  0  0  0  0
    5.2540    0.3630    0.3880 C   0  0  1  0  0  0  0  0  0  0  0  0
    6.2070   -0.3970    1.2480 C   0  0  0  0  0  0  0  0  0  0  0  0
    7.5920   -0.2170    0.9640 N   0  0  1  0  0  0  0  0  0  0  0  0
    8.0500   -1.3810    0.2040 C   0  0  0  0  0  0  0  0  0  0  0  0
    9.4230   -1.8160    0.6720 C   0  0  0  0  0  0  0  0  0  0  0  0
    7.9240    0.9580    0.2090 C   0  0  0  0  0  0  0  0  0  0  0  0
    7.7020    2.1900    0.9920 C   0  0  0  0  0  0  0  0  0  0  0  0
    7.5270    3.1460    1.6230 N   0  0  0  0  0  0  0  0  0  0  0  0
    5.1630   -0.1090   -0.9710 N   0  0  0  0  0  0  0  0  0  0  0  0
   -3.2560    1.9790    0.1170 C   0  0  0  0  0  0  0  0  0  0  0  0
   -4.6400    1.8290    0.6330 C   0  0  0  0  0  0  0  0  0  0  0  0
  1  2  1  0
  2  3  1  0
  3  4  1  0
  4  5  2  0
  4  6  1  0
  7  6  1  6
  7  8  1  0
  7 33  1  0
  8  9  1  0
  9 10  1  0
 10 11  1  6
 10 13  1  0
 10 32  1  0
 11 12  1  0
 13 14  2  0
 13 15  1  0
 15 16  1  0
 16 17  2  0
 16 21  1  0
 17 18  1  0
 18 19  2  0
 19 20  1  0
 19 31  1  0
 20 21  2  0
 20 22  1  0
 22 23  1  0
 23 24  1  1
 23 31  1  0
 25 24  1  6
 25 26  1  0
 25 28  1  0
 26 27  1  0
 28 29  1  0
 29 30  3  0
 32 33  1  0
M  CHG  2  11   1  25   1
M  END
