
     RDKit          3D

 19 20  0  0  0  0  0  0  0  0999 V2000
   -5.3870   -0.3600    0.5680 C   0  0  0  0  0  0  0  0  0  0  0  0
   -5.2310    0.7820   -0.4120 C   0  0  0  0  0  0  0  0  0  0  0  0
   -4.1960    0.5640   -1.3900 N   0  0  0  0  0  0  0  0  0  0  0  0
   -2.8300    0.4140   -1.0250 C   0  0  0  0  0  0  0  0  0  0  0  0
   -1.8590    0.1360   -1.9590 C   0  0  0  0  0  0  0  0  0  0  0  0
   -0.5130   -0.0120   -1.6310 C   0  0  0  0  0  0  0  0  0  0  0  0
   -0.0990    0.1160   -0.3470 C   0  0  0  0  0  0  0  0  0  0  0  0
    1.2150    0.0030    0.1470 N   0  0  0  0  0  0  0  0  0  0  0  0
    2.3800   -0.1850   -0.6100 C   0  0  0  0  0  0  0  0  0  0  0  0
    2.2850   -0.2650   -1.8610 O   0  0  0  0  0  0  0  0  0  0  0  0
    3.7160   -0.2920    0.0260 C   0  0  0  0  0  0  0  0  0  0  0  0
    3.9540   -0.2270    1.2930 C   0  0  0  0  0  0  0  0  0  0  0  0
    5.6020   -0.3820    1.7600 S   0  0  1  0  0  0  0  0  0  0  0  0
    5.9480    0.6250    2.8340 O   0  0  0  0  0  0  0  0  0  0  0  0
    5.9470   -1.7510    2.2690 O   0  0  0  0  0  0  0  0  0  0  0  0
    6.4970   -0.0670    0.2610 C   0  0  0  0  0  0  0  0  0  0  0  0
    5.1910   -0.5250   -0.9480 S   0  0  0  0  0  0  0  0  0  0  0  0
   -1.0810    0.3980    0.6100 C   0  0  0  0  0  0  0  0  0  0  0  0
   -2.4040    0.5420    0.2780 C   0  0  0  0  0  0  0  0  0  0  0  0
  1  2  1  0
  2  3  1  0
  3  4  1  0
  4  5  2  0
  4 19  1  0
  5  6  1  0
  6  7  2  0
  7  8  1  0
  7 18  1  0
  8  9  1  0
  9 10  2  0
  9 11  1  0
 11 12  2  0
 11 17  1  0
 12 13  1  0
 13 14  2  0
 13 15  2  0
 13 16  1  6
 16 17  1  0
 18 19  2  0
M  END
