
     RDKit          3D

 19 20  0  0  0  0  0  0  0  0999 V2000
    1.2620    3.1680   -0.0370 C   0  0  0  0  0  0  0  0  0  0  0  0
    1.7850    1.7740    0.0040 C   0  0  0  0  0  0  0  0  0  0  0  0
    3.4710    1.3080    0.5230 S   0  0  0  0  0  0  0  0  0  0  0  0
    3.1990   -0.4540    0.2390 C   0  0  0  0  0  0  0  0  0  0  0  0
    4.2190   -1.4570    0.4880 C   0  0  0  0  0  0  0  0  0  0  0  0
    3.9280   -2.8140    0.3010 N   0  0  0  0  0  0  0  0  0  0  0  0
    5.3610   -1.1080    0.8690 O   0  0  0  0  0  0  0  0  0  0  0  0
    1.9370   -0.5480   -0.1970 C   0  0  0  0  0  0  0  0  0  0  0  0
    1.2010    0.5600   -0.3250 C   0  0  0  0  0  0  0  0  0  0  0  0
   -0.2490    0.5650   -0.7790 C   0  0  0  0  0  0  0  0  0  0  0  0
   -0.5430    1.0950   -1.8480 O   0  0  0  0  0  0  0  0  0  0  0  0
   -1.1990   -0.0450    0.0510 N   0  0  0  0  0  0  0  0  0  0  0  0
   -2.6140   -0.1220   -0.2640 C   0  0  0  0  0  0  0  0  0  0  0  0
   -3.1950    0.2560   -1.4120 C   0  0  0  0  0  0  0  0  0  0  0  0
   -4.5040    0.1380   -1.6160 C   0  0  0  0  0  0  0  0  0  0  0  0
   -5.1210   -0.6000   -0.0420 S   0  0  0  0  0  0  0  0  0  0  0  0
   -3.4550   -0.6470    0.7020 C   0  0  0  0  0  0  0  0  0  0  0  0
   -3.2200   -1.1520    2.0310 C   0  0  0  0  0  0  0  0  0  0  0  0
   -2.1090   -1.2150    2.6030 O   0  0  0  0  0  0  0  0  0  0  0  0
  1  2  1  0
  2  3  1  0
  2  9  2  0
  3  4  1  0
  4  5  1  0
  4  8  2  0
  5  6  1  0
  5  7  2  0
  8  9  1  0
  9 10  1  0
 10 11  2  0
 10 12  1  0
 12 13  1  0
 13 14  1  0
 13 17  2  0
 14 15  2  0
 15 16  1  0
 16 17  1  0
 17 18  1  0
 18 19  2  0
M  END
