
     RDKit          3D

 19 20  0  0  0  0  0  0  0  0999 V2000
   -2.2290   -3.2390    0.2890 C   0  0  0  0  0  0  0  0  0  0  0  0
   -1.5480   -1.9500    0.0400 C   0  0  0  0  0  0  0  0  0  0  0  0
   -0.2530   -1.7340    0.0180 N   0  0  0  0  0  0  0  0  0  0  0  0
    0.0010   -0.4260   -0.2450 C   0  0  0  0  0  0  0  0  0  0  0  0
    1.3810    0.1080   -0.3550 C   0  0  0  0  0  0  0  0  0  0  0  0
    2.4680   -0.3050   -0.2650 N   0  0  0  0  0  0  0  0  0  0  0  0
    3.6010    0.3110   -0.4390 C   0  0  0  0  0  0  0  0  0  0  0  0
    4.9540   -0.3550   -0.2850 C   0  0  0  0  0  0  0  0  0  0  0  0
    5.4950   -0.1720    1.4500 S   0  0  0  0  0  0  0  0  0  0  0  0
    3.5410    1.6340   -0.7760 C   0  0  0  0  0  0  0  0  0  0  0  0
    1.7080    1.8720   -0.8110 S   0  0  0  0  0  0  0  0  0  0  0  0
   -1.2080    0.1880   -0.3880 C   0  0  0  0  0  0  0  0  0  0  0  0
   -1.5180    1.6110   -0.6100 C   0  0  0  0  0  0  0  0  0  0  0  0
   -1.5990    2.4470    0.6160 C   0  0  0  0  0  0  0  0  0  0  0  0
   -0.5070    2.5170    1.4180 O   0  0  0  0  0  0  0  0  0  0  0  0
   -2.2180   -0.7700   -0.2120 C   0  0  0  0  0  0  0  0  0  0  0  0
   -3.6690   -0.5840   -0.2720 C   0  0  0  0  0  0  0  0  0  0  0  0
   -4.2270    0.5070   -0.5000 O   0  0  0  0  0  0  0  0  0  0  0  0
   -4.4850   -1.6770   -0.0660 O   0  0  0  0  0  0  0  0  0  0  0  0
  1  2  1  0
  2  3  1  0
  2 16  2  0
  3  4  1  0
  4  5  1  0
  4 12  2  0
  5  6  2  0
  5 11  1  0
  6  7  1  0
  7  8  1  0
  7 10  2  0
  8  9  1  0
 10 11  1  0
 12 13  1  0
 12 16  1  0
 13 14  1  0
 14 15  1  0
 16 17  1  0
 17 18  2  0
 17 19  1  0
M  END
