
     RDKit          3D

 19 20  0  0  0  0  0  0  0  0999 V2000
   -5.7870   -1.5070    0.3210 N   0  0  0  0  0  0  0  0  0  0  0  0
   -5.0950   -0.1250    1.0940 S   0  0  1  0  0  0  0  0  0  0  0  0
   -6.0270    1.0310    0.8710 O   0  0  0  0  0  0  0  0  0  0  0  0
   -4.9200   -0.4170    2.5730 O   0  0  0  0  0  0  0  0  0  0  0  0
   -3.5250    0.1910    0.4140 C   0  0  0  0  0  0  0  0  0  0  0  0
   -2.4220   -0.3960    0.9730 C   0  0  0  0  0  0  0  0  0  0  0  0
   -1.1650   -0.1600    0.4500 C   0  0  0  0  0  0  0  0  0  0  0  0
   -0.9410    0.6520   -0.6310 C   0  0  0  0  0  0  0  0  0  0  0  0
    0.3350    0.9240   -1.1880 N   0  0  0  0  0  0  0  0  0  0  0  0
    1.5920    0.5410   -0.7010 C   0  0  0  0  0  0  0  0  0  0  0  0
    1.6600   -0.1210    0.3490 O   0  0  0  0  0  0  0  0  0  0  0  0
    2.8760    0.8790   -1.3700 C   0  0  0  0  0  0  0  0  0  0  0  0
    4.0280    0.3530   -0.6440 C   0  0  0  0  0  0  0  0  0  0  0  0
    4.5780   -0.8890   -0.8620 C   0  0  0  0  0  0  0  0  0  0  0  0
    5.6350   -1.2620   -0.1320 C   0  0  0  0  0  0  0  0  0  0  0  0
    6.1270   -0.3610    0.8200 C   0  0  0  0  0  0  0  0  0  0  0  0
    4.9970    1.0410    0.6120 S   0  0  0  0  0  0  0  0  0  0  0  0
   -2.0820    1.2450   -1.1910 C   0  0  0  0  0  0  0  0  0  0  0  0
   -3.3270    1.0070   -0.6680 C   0  0  0  0  0  0  0  0  0  0  0  0
  2  1  1  6
  2  3  2  0
  2  4  2  0
  2  5  1  0
  5  6  2  0
  5 19  1  0
  6  7  1  0
  7  8  2  0
  8  9  1  0
  8 18  1  0
  9 10  1  0
 10 11  2  0
 10 12  1  0
 12 13  1  0
 13 14  2  0
 13 17  1  0
 14 15  1  0
 15 16  2  0
 16 17  1  0
 18 19  2  0
M  END
