
     RDKit          3D

 21 21  0  0  0  0  0  0  0  0999 V2000
    4.3300   -2.7680   -1.5460 C   0  0  0  0  0  0  0  0  0  0  0  0
    3.2240   -2.0870   -1.9600 O   0  0  0  0  0  0  0  0  0  0  0  0
    2.4880   -1.5520   -0.9080 C   0  0  0  0  0  0  0  0  0  0  0  0
    3.2490   -0.5730   -0.0800 C   0  0  0  0  0  0  0  0  0  0  0  0
    2.4210   -0.0630    0.9860 N   0  0  0  0  0  0  0  0  0  0  0  0
    1.2380    0.6670    0.6820 C   0  0  0  0  0  0  0  0  0  0  0  0
    0.9190    0.8770   -0.4970 O   0  0  0  0  0  0  0  0  0  0  0  0
    0.3950    1.1720    1.7030 N   0  0  0  0  0  0  0  0  0  0  0  0
   -0.8140    1.8690    1.5630 C   0  0  0  0  0  0  0  0  0  0  0  0
   -0.7570    3.1910    1.8160 C   0  0  0  0  0  0  0  0  0  0  0  0
    0.5100    3.7740    2.2000 C   0  0  0  0  0  0  0  0  0  0  0  0
    0.5940    5.1740    2.4740 N   0  0  0  0  0  0  0  0  0  0  0  0
    1.5730    3.1230    2.3160 O   0  0  0  0  0  0  0  0  0  0  0  0
   -2.1120    1.2870    1.2840 C   0  0  0  0  0  0  0  0  0  0  0  0
   -2.4620    0.6640    0.1760 O   0  0  0  0  0  0  0  0  0  0  0  0
   -1.9550   -0.4710   -0.3070 C   0  0  2  0  0  0  0  0  0  0  0  0
   -1.6380   -0.3420   -1.7790 C   0  0  0  0  0  0  0  0  0  0  0  0
   -2.7890   -0.6270   -2.4600 O   0  0  0  0  0  0  0  0  0  0  0  0
   -3.5700   -1.5130   -1.7890 C   0  0  1  0  0  0  0  0  0  0  0  0
   -3.6350   -2.8210   -2.4220 N   0  0  0  0  0  0  0  0  0  0  0  0
   -3.0060   -1.5930   -0.3980 C   0  0  0  0  0  0  0  0  0  0  0  0
  1  2  1  0
  2  3  1  0
  3  4  1  0
  4  5  1  0
  5  6  1  0
  6  7  2  0
  6  8  1  0
  8  9  1  0
  9 10  2  3
  9 14  1  0
 10 11  1  0
 11 12  1  0
 11 13  2  0
 14 15  1  0
 16 15  1  6
 16 17  1  0
 16 21  1  0
 17 18  1  0
 18 19  1  0
 19 20  1  6
 19 21  1  0
M  END
