
     RDKit          3D

 21 20  0  0  0  0  0  0  0  0999 V2000
   -5.8780   -0.1740    0.8010 C   0  0  0  0  0  0  0  0  0  0  0  0
   -4.4120   -0.3790    0.9470 C   0  0  0  0  0  0  0  0  0  0  0  0
   -3.6410    0.5020    0.0140 C   0  0  1  0  0  0  0  0  0  0  0  0
   -4.0210    0.1610   -1.3850 C   0  0  0  0  0  0  0  0  0  0  0  0
   -4.0300    1.9960    0.2860 C   0  0  0  0  0  0  0  0  0  0  0  0
   -5.3460    2.2410    0.0790 O   0  0  0  0  0  0  0  0  0  0  0  0
   -2.2730    0.4750    0.1690 N   0  0  0  0  0  0  0  0  0  0  0  0
   -1.4200   -0.8120    0.0120 C   0  0  0  0  0  0  0  0  0  0  0  0
   -2.1070   -1.7260   -0.2050 O   0  0  0  0  0  0  0  0  0  0  0  0
   -0.1260   -0.4130    0.1810 N   0  0  0  0  0  0  0  0  0  0  0  0
    0.6300   -1.8940   -0.3500 C   0  0  0  0  0  0  0  0  0  0  0  0
   -0.1680   -2.7130   -0.6200 O   0  0  0  0  0  0  0  0  0  0  0  0
    2.0590   -1.8420   -0.3760 C   0  0  0  0  0  0  0  0  0  0  0  0
    2.7950   -0.7190    0.1000 N   0  0  0  0  0  0  0  0  0  0  0  0
    4.2370   -0.7170   -0.1150 C   0  0  0  0  0  0  0  0  0  0  0  0
    4.7400   -1.7000   -0.7310 O   0  0  0  0  0  0  0  0  0  0  0  0
    5.0750    0.3940    0.3630 C   0  0  2  0  0  0  0  0  0  0  0  0
    4.8880    1.7210   -0.3380 C   0  0  0  0  0  0  0  0  0  0  0  0
    6.4680   -0.0470    0.3100 C   0  0  0  0  0  0  0  0  0  0  0  0
    7.0060   -0.9610   -0.5840 N   0  0  0  0  0  0  0  0  0  0  0  0
    7.2970    0.4590    1.1770 O   0  0  0  0  0  0  0  0  0  0  0  0
  1  2  1  0
  2  3  1  0
  3  4  1  6
  3  5  1  0
  3  7  1  0
  5  6  1  0
  7  8  1  0
  8  9  2  0
  8 10  1  0
 10 11  1  0
 11 12  2  0
 11 13  1  0
 13 14  1  0
 14 15  1  0
 15 16  2  0
 15 17  1  0
 17 18  1  6
 17 19  1  0
 19 20  1  0
 19 21  2  0
M  END
