
     RDKit          3D

 21 20  0  0  0  0  0  0  0  0999 V2000
    5.7340   -1.6100   -0.5650 C   0  0  0  0  0  0  0  0  0  0  0  0
    6.0150   -0.1460   -0.4570 C   0  0  2  0  0  0  0  0  0  0  0  0
    7.4490    0.2040   -0.1690 C   0  0  0  0  0  0  0  0  0  0  0  0
    5.0720    0.4660    0.5800 C   0  0  1  0  0  0  0  0  0  0  0  0
    5.3810    1.9000    0.6790 N   0  0  0  0  0  0  0  0  0  0  0  0
    3.7080    0.4300   -0.0350 C   0  0  0  0  0  0  0  0  0  0  0  0
    3.4610    1.1910   -1.0340 O   0  0  0  0  0  0  0  0  0  0  0  0
    2.6750   -0.4150    0.4560 N   0  0  0  0  0  0  0  0  0  0  0  0
    1.4500   -0.3510   -0.2210 N   0  0  0  0  0  0  0  0  0  0  0  0
    0.2900    0.2640    0.3120 C   0  0  0  0  0  0  0  0  0  0  0  0
    0.3310    0.7860    1.4610 O   0  0  0  0  0  0  0  0  0  0  0  0
   -0.9260    0.2880   -0.4790 C   0  0  0  0  0  0  0  0  0  0  0  0
   -0.9350   -0.2590   -1.6070 O   0  0  0  0  0  0  0  0  0  0  0  0
   -2.0820    0.9290    0.0280 N   0  0  0  0  0  0  0  0  0  0  0  0
   -3.3040    0.9830   -0.7170 C   0  0  0  0  0  0  0  0  0  0  0  0
   -3.8430   -0.4010   -0.9630 C   0  0  0  0  0  0  0  0  0  0  0  0
   -5.0000   -0.3980   -1.6910 O   0  0  0  0  0  0  0  0  0  0  0  0
   -6.0830    0.2700   -1.2310 C   0  0  0  0  0  0  0  0  0  0  0  0
   -6.6840   -0.1970    0.0590 C   0  0  1  0  0  0  0  0  0  0  0  0
   -7.3790   -1.5140   -0.1120 C   0  0  0  0  0  0  0  0  0  0  0  0
   -5.7490   -0.1540    1.0780 O   0  0  0  0  0  0  0  0  0  0  0  0
  2  1  1  1
  2  3  1  0
  2  4  1  0
  4  5  1  6
  4  6  1  0
  6  7  2  0
  6  8  1  0
  8  9  1  0
  9 10  1  0
 10 11  2  0
 10 12  1  0
 12 13  2  0
 12 14  1  0
 14 15  1  0
 15 16  1  0
 16 17  1  0
 17 18  1  0
 18 19  1  0
 19 20  1  6
 19 21  1  0
M  END
