
     RDKit          3D

 21 20  0  0  0  0  0  0  0  0999 V2000
   -3.1050    1.4630    2.7960 C   0  0  0  0  0  0  0  0  0  0  0  0
   -3.5030    0.2500    2.6180 N   0  0  0  0  0  0  0  0  0  0  0  0
   -3.5980   -0.3150    1.2910 C   0  0  0  0  0  0  0  0  0  0  0  0
   -4.7880   -0.3630    0.7550 C   0  0  0  0  0  0  0  0  0  0  0  0
   -5.9620    0.1410    1.4860 C   0  0  0  0  0  0  0  0  0  0  0  0
   -2.3670   -0.8020    0.6100 C   0  0  2  0  0  0  0  0  0  0  0  0
   -1.3300    0.2990    0.5000 C   0  0  0  0  0  0  0  0  0  0  0  0
   -0.1520   -0.1800   -0.1550 N   0  0  0  0  0  0  0  0  0  0  0  0
    0.9870    0.6170   -0.4030 C   0  0  0  0  0  0  0  0  0  0  0  0
    1.0110    1.8140   -0.0440 O   0  0  0  0  0  0  0  0  0  0  0  0
    2.1620    0.0430   -1.0870 C   0  0  0  0  0  0  0  0  0  0  0  0
    2.1450   -1.1610   -1.4500 O   0  0  0  0  0  0  0  0  0  0  0  0
    3.2840    0.8720   -1.3160 N   0  0  0  0  0  0  0  0  0  0  0  0
    4.4930    0.4440   -1.9590 C   0  0  0  0  0  0  0  0  0  0  0  0
    5.2540   -0.6260   -1.2530 C   0  0  2  0  0  0  0  0  0  0  0  0
    4.5330   -1.7840   -1.1110 O   0  0  0  0  0  0  0  0  0  0  0  0
    5.6860   -0.1360    0.1220 C   0  0  0  0  0  0  0  0  0  0  0  0
    4.5670    0.1070    0.9000 O   0  0  0  0  0  0  0  0  0  0  0  0
   -2.6680   -1.3260   -0.7320 C   0  0  0  0  0  0  0  0  0  0  0  0
   -3.1920   -0.5530   -1.8070 N   0  0  0  0  0  0  0  0  0  0  0  0
   -2.4660   -2.5580   -1.0110 O   0  0  0  0  0  0  0  0  0  0  0  0
  1  2  2  0
  2  3  1  0
  3  4  2  3
  3  6  1  0
  4  5  1  0
  6  7  1  6
  6 19  1  0
  7  8  1  0
  8  9  1  0
  9 10  2  0
  9 11  1  0
 11 12  2  0
 11 13  1  0
 13 14  1  0
 14 15  1  0
 15 16  1  1
 15 17  1  0
 17 18  1  0
 19 20  1  0
 19 21  2  0
M  END
