
     RDKit          3D

 21 20  0  0  0  0  0  0  0  0999 V2000
    6.3560   -1.9150    0.7420 C   0  0  0  0  0  0  0  0  0  0  0  0
    6.1920   -1.4210   -0.6620 C   0  0  0  0  0  0  0  0  0  0  0  0
    5.1340   -0.5040   -0.8120 O   0  0  0  0  0  0  0  0  0  0  0  0
    5.0820    0.6950   -0.1350 C   0  0  0  0  0  0  0  0  0  0  0  0
    6.0370    0.9520    0.6440 O   0  0  0  0  0  0  0  0  0  0  0  0
    4.0360    1.6250   -0.2710 N   0  0  0  0  0  0  0  0  0  0  0  0
    4.0310    2.8660    0.4620 C   0  0  0  0  0  0  0  0  0  0  0  0
    2.9280    1.3260   -1.1760 C   0  0  0  0  0  0  0  0  0  0  0  0
    1.8680    0.5910   -0.3780 C   0  0  0  0  0  0  0  0  0  0  0  0
    0.7720    0.2940   -1.2690 N   0  0  0  0  0  0  0  0  0  0  0  0
   -0.4170   -0.4090   -0.8280 C   0  0  0  0  0  0  0  0  0  0  0  0
   -0.3840   -0.7210    0.3840 O   0  0  0  0  0  0  0  0  0  0  0  0
   -1.4740   -0.6880   -1.7130 N   0  0  0  0  0  0  0  0  0  0  0  0
   -2.6740   -1.3430   -1.3430 C   0  0  0  0  0  0  0  0  0  0  0  0
   -3.4490   -0.5160   -0.3770 C   0  0  2  0  0  0  0  0  0  0  0  0
   -2.7350   -0.3070    0.7760 O   0  0  0  0  0  0  0  0  0  0  0  0
   -4.7750   -1.0960    0.0010 C   0  0  2  0  0  0  0  0  0  0  0  0
   -5.6680   -1.3580   -1.0630 N   0  0  0  0  0  0  0  0  0  0  0  0
   -5.4300   -0.2160    1.0180 C   0  0  0  0  0  0  0  0  0  0  0  0
   -5.6320    1.1580    0.4290 C   0  0  0  0  0  0  0  0  0  0  0  0
   -6.2710    2.0120    1.3420 O   0  0  0  0  0  0  0  0  0  0  0  0
  1  2  1  0
  2  3  1  0
  3  4  1  0
  4  5  2  0
  4  6  1  0
  6  7  1  0
  6  8  1  0
  8  9  1  0
  9 10  1  0
 10 11  1  0
 11 12  2  0
 11 13  1  0
 13 14  1  0
 14 15  1  0
 15 16  1  1
 15 17  1  0
 17 18  1  6
 17 19  1  0
 19 20  1  0
 20 21  1  0
M  END
