
     RDKit          3D

 21 20  0  0  0  0  0  0  0  0999 V2000
   -5.4940    1.2090   -0.8830 C   0  0  0  0  0  0  0  0  0  0  0  0
   -4.9140   -0.0020   -0.2560 C   0  0  0  0  0  0  0  0  0  0  0  0
   -3.4360   -0.1620   -0.4810 C   0  0  1  0  0  0  0  0  0  0  0  0
   -2.8890   -1.3800    0.1230 C   0  0  0  0  0  0  0  0  0  0  0  0
   -3.0540   -1.5770    1.5320 N   0  0  0  0  0  0  0  0  0  0  0  0
   -3.3810   -0.5080   -2.0490 C   0  0  0  0  0  0  0  0  0  0  0  0
   -4.1180   -1.6350   -2.2430 O   0  0  0  0  0  0  0  0  0  0  0  0
   -2.7500    1.1410   -0.4010 C   0  0  0  0  0  0  0  0  0  0  0  0
   -1.3330    1.1640   -0.5630 N   0  0  0  0  0  0  0  0  0  0  0  0
   -0.3420    0.6890    0.3830 C   0  0  0  0  0  0  0  0  0  0  0  0
   -0.8150    0.2800    1.4520 O   0  0  0  0  0  0  0  0  0  0  0  0
    1.0190    0.7230    0.0270 C   0  0  0  0  0  0  0  0  0  0  0  0
    1.6140    0.9340   -0.9340 O   0  0  0  0  0  0  0  0  0  0  0  0
    2.0100    0.3450    1.4120 N   0  0  0  0  0  0  0  0  0  0  0  0
    3.2000    0.2800    0.7440 C   0  0  0  0  0  0  0  0  0  0  0  0
    3.5300    0.2410   -0.3900 O   0  0  0  0  0  0  0  0  0  0  0  0
    4.3010    0.2560    1.7570 N   0  0  0  0  0  0  0  0  0  0  0  0
    5.6530    0.0760    1.5670 C   0  0  0  0  0  0  0  0  0  0  0  0
    6.4120    0.7700    0.5020 C   0  0  0  0  0  0  0  0  0  0  0  0
    6.0060    0.4330   -0.8140 O   0  0  0  0  0  0  0  0  0  0  0  0
    6.2930   -0.9510   -1.0010 C   0  0  0  0  0  0  0  0  0  0  0  0
  1  2  1  0
  3  2  1  1
  3  4  1  0
  3  6  1  0
  3  8  1  0
  4  5  1  0
  6  7  1  0
  8  9  1  0
  9 10  1  0
 10 11  2  0
 10 12  1  0
 12 13  2  0
 12 14  1  0
 14 15  1  0
 15 16  2  0
 15 17  1  0
 17 18  1  0
 18 19  1  0
 19 20  1  0
 20 21  1  0
M  END
