
     RDKit          3D

 21 20  0  0  0  0  0  0  0  0999 V2000
    5.8710   -0.1470    0.0910 C   0  0  0  0  0  0  0  0  0  0  0  0
    5.3270   -1.5490    0.2000 C   0  0  0  0  0  0  0  0  0  0  0  0
    4.0020   -1.4940    0.7010 O   0  0  0  0  0  0  0  0  0  0  0  0
    3.0100   -0.8140    0.0230 C   0  0  0  0  0  0  0  0  0  0  0  0
    3.2580   -0.2200   -1.0690 O   0  0  0  0  0  0  0  0  0  0  0  0
    1.6680   -0.7290    0.4840 N   0  0  0  0  0  0  0  0  0  0  0  0
    0.6460   -0.0040   -0.2550 C   0  0  0  0  0  0  0  0  0  0  0  0
   -0.6940   -0.0830    0.4750 C   0  0  2  0  0  0  0  0  0  0  0  0
   -1.1410   -1.4680    0.6210 C   0  0  0  0  0  0  0  0  0  0  0  0
   -2.3240   -1.9760    0.3620 C   0  0  0  0  0  0  0  0  0  0  0  0
   -3.4410   -1.2620   -0.1280 N   0  0  0  0  0  0  0  0  0  0  0  0
   -2.5590   -3.4400    0.5900 C   0  0  0  0  0  0  0  0  0  0  0  0
   -2.9470   -4.1290   -0.6500 C   0  0  0  0  0  0  0  0  0  0  0  0
   -3.0390   -3.5100   -1.6810 O   0  0  0  0  0  0  0  0  0  0  0  0
   -1.7100    0.8790   -0.0200 C   0  0  0  0  0  0  0  0  0  0  0  0
   -1.2900    2.2900    0.1330 C   0  0  0  0  0  0  0  0  0  0  0  0
   -0.2300    2.5910    0.7190 O   0  0  0  0  0  0  0  0  0  0  0  0
   -2.0670    3.3680   -0.3780 N   0  0  0  0  0  0  0  0  0  0  0  0
   -1.6760    4.7250   -0.2380 C   0  0  0  0  0  0  0  0  0  0  0  0
   -2.4990    5.7500   -0.7710 N   0  0  0  0  0  0  0  0  0  0  0  0
   -0.5950    5.0020    0.3610 O   0  0  0  0  0  0  0  0  0  0  0  0
  1  2  1  0
  2  3  1  0
  3  4  1  0
  4  5  2  0
  4  6  1  0
  6  7  1  0
  8  7  1  6
  8  9  1  0
  8 15  1  0
  9 10  2  3
 10 11  1  0
 10 12  1  0
 12 13  1  0
 13 14  2  0
 15 16  1  0
 16 17  2  0
 16 18  1  0
 18 19  1  0
 19 20  1  0
 19 21  2  0
M  END
