
     RDKit          3D

 13 13  0  0  0  0  0  0  0  0999 V2000
    3.5410    0.8000   -0.5700 C   0  0  0  0  0  0  0  0  0  0  0  0
    2.6050   -0.2470    0.5130 S   0  0  2  0  0  0  0  0  0  0  0  0
    2.4730    0.4390    1.8380 O   0  0  0  0  0  0  0  0  0  0  0  0
    3.3470   -1.5370    0.7100 O   0  0  0  0  0  0  0  0  0  0  0  0
    1.0150   -0.5210   -0.1010 N   0  0  0  0  0  0  0  0  0  0  0  0
    0.0110    0.3420    0.2530 N   0  0  0  0  0  0  0  0  0  0  0  0
   -1.2500    0.0950    0.1770 C   0  0  0  0  0  0  0  0  0  0  0  0
   -1.9560   -1.0410   -0.2560 N   0  0  0  0  0  0  0  0  0  0  0  0
   -3.3520   -0.8670   -0.1650 C   0  0  0  0  0  0  0  0  0  0  0  0
   -4.5680   -1.8910   -0.5460 S   0  0  0  0  0  0  0  0  0  0  0  0
   -3.5550    0.4400    0.3500 N   0  0  0  0  0  0  0  0  0  0  0  0
   -2.2760    1.0690    0.5750 C   0  0  0  0  0  0  0  0  0  0  0  0
   -2.0800    2.2380    1.0290 O   0  0  0  0  0  0  0  0  0  0  0  0
  2  1  1  6
  2  3  2  0
  2  4  2  0
  2  5  1  0
  5  6  1  0
  6  7  2  3
  7  8  1  0
  7 12  1  0
  8  9  1  0
  9 10  2  0
  9 11  1  0
 11 12  1  0
 12 13  2  0
M  END
