
     RDKit          3D

 13 13  0  0  0  0  0  0  0  0999 V2000
    4.3290   -0.0150    0.8520 N   0  0  0  0  0  0  0  0  0  0  0  0
    3.1070   -0.6010   -0.2150 S   0  0  1  0  0  0  0  0  0  0  0  0
    3.5650   -0.7070   -1.6180 O   0  0  0  0  0  0  0  0  0  0  0  0
    2.6110   -1.9640    0.2090 O   0  0  0  0  0  0  0  0  0  0  0  0
    1.7760    0.4860   -0.1370 N   0  0  0  0  0  0  0  0  0  0  0  0
    0.7770    0.2650    0.8070 N   0  0  0  0  0  0  0  0  0  0  0  0
   -0.4590    0.4040    0.5590 C   0  0  0  0  0  0  0  0  0  0  0  0
   -0.9200    0.8160   -0.7740 C   0  0  0  0  0  0  0  0  0  0  0  0
   -2.0790    0.0710   -1.2220 N   0  0  0  0  0  0  0  0  0  0  0  0
   -3.1340   -0.3340   -0.3750 C   0  0  0  0  0  0  0  0  0  0  0  0
   -3.9700   -1.2270   -0.7030 O   0  0  0  0  0  0  0  0  0  0  0  0
   -3.2910    0.2960    0.9540 C   0  0  0  0  0  0  0  0  0  0  0  0
   -1.6760    0.1050    1.8110 S   0  0  0  0  0  0  0  0  0  0  0  0
  2  1  1  1
  2  3  2  0
  2  4  2  0
  2  5  1  0
  5  6  1  0
  6  7  2  3
  7  8  1  0
  7 13  1  0
  8  9  1  0
  9 10  1  0
 10 11  2  0
 10 12  1  0
 12 13  1  0
M  END
