
     RDKit          3D

 12 12  0  0  0  0  0  0  0  0999 V2000
    3.5380    0.6980   -0.2920 N   0  0  0  0  0  0  0  0  0  0  0  0
    2.7760   -0.3290    0.8610 S   0  0  2  0  0  0  0  0  0  0  0  0
    3.2930   -0.0950    2.2550 O   0  0  0  0  0  0  0  0  0  0  0  0
    3.0290   -1.7730    0.5320 O   0  0  0  0  0  0  0  0  0  0  0  0
    1.0420   -0.0100    0.8370 C   0  0  0  0  0  0  0  0  0  0  0  0
    0.3510   -0.3380   -0.8040 S   0  0  0  0  0  0  0  0  0  0  0  0
   -1.3990   -0.0100   -0.8030 C   0  0  0  0  0  0  0  0  0  0  0  0
   -2.0650    1.1230   -1.0740 N   0  0  0  0  0  0  0  0  0  0  0  0
   -3.3790    0.9300   -0.9550 N   0  0  0  0  0  0  0  0  0  0  0  0
   -3.5540   -0.3580   -0.5990 C   0  0  0  0  0  0  0  0  0  0  0  0
   -4.6850   -0.8720   -0.4030 O   0  0  0  0  0  0  0  0  0  0  0  0
   -2.3380   -0.9310   -0.5070 N   0  0  0  0  0  0  0  0  0  0  0  0
  2  1  1  6
  2  3  2  0
  2  4  2  0
  2  5  1  0
  5  6  1  0
  6  7  1  0
  7  8  2  0
  7 12  1  0
  8  9  1  0
  9 10  1  0
 10 11  2  0
 10 12  1  0
M  END
