
     RDKit          3D

 18 19  0  0  0  0  0  0  0  0999 V2000
    5.0940    1.1250    0.6940 C   0  0  0  0  0  0  0  0  0  0  0  0
    4.4810    0.2060   -0.3340 C   0  0  1  0  0  0  0  0  0  0  0  0
    4.9740   -1.1840   -0.0880 C   0  0  0  0  0  0  0  0  0  0  0  0
    2.9880    0.2750   -0.1680 C   0  0  0  0  0  0  0  0  0  0  0  0
    2.1790    0.6620   -1.2150 C   0  0  0  0  0  0  0  0  0  0  0  0
    0.8070    0.7200   -1.0440 C   0  0  0  0  0  0  0  0  0  0  0  0
    0.2400    0.3950    0.1660 C   0  0  0  0  0  0  0  0  0  0  0  0
   -1.1540    0.4300    0.4210 N   0  0  0  0  0  0  0  0  0  0  0  0
   -1.9880   -0.3470   -0.1090 N   0  0  0  0  0  0  0  0  0  0  0  0
   -3.3800   -0.3150    0.1420 C   0  0  0  0  0  0  0  0  0  0  0  0
   -4.2030    0.1090   -0.8820 C   0  0  0  0  0  0  0  0  0  0  0  0
   -5.5750    0.1800   -0.7490 C   0  0  0  0  0  0  0  0  0  0  0  0
   -6.1670   -0.1860    0.4530 C   0  0  0  0  0  0  0  0  0  0  0  0
   -7.5430   -0.1240    0.6140 O   0  0  0  0  0  0  0  0  0  0  0  0
   -5.3400   -0.6090    1.4730 C   0  0  0  0  0  0  0  0  0  0  0  0
   -3.9700   -0.6730    1.3210 C   0  0  0  0  0  0  0  0  0  0  0  0
    1.0690    0.0140    1.1920 C   0  0  0  0  0  0  0  0  0  0  0  0
    2.4230   -0.0460    1.0290 C   0  0  0  0  0  0  0  0  0  0  0  0
  2  1  1  1
  2  3  1  0
  2  4  1  0
  4  5  2  0
  4 18  1  0
  5  6  1  0
  6  7  2  0
  7  8  1  0
  7 17  1  0
  8  9  2  3
  9 10  1  0
 10 11  2  0
 10 16  1  0
 11 12  1  0
 12 13  2  0
 13 14  1  0
 13 15  1  0
 15 16  2  0
 17 18  2  0
M  END
