
     RDKit          3D

 13 13  0  0  0  0  0  0  0  0999 V2000
   -1.9530    0.7740   -1.4880 O   0  0  0  0  0  0  0  0  0  0  0  0
   -2.1200    0.0260   -0.4910 C   0  0  0  0  0  0  0  0  0  0  0  0
   -3.2830    0.1820    0.3010 N   0  0  0  0  0  0  0  0  0  0  0  0
   -4.2090    1.1180    0.0020 O   0  0  0  0  0  0  0  0  0  0  0  0
   -1.1100   -0.9440   -0.2250 N   0  0  0  0  0  0  0  0  0  0  0  0
    0.0240   -1.0960   -0.9970 N   0  0  0  0  0  0  0  0  0  0  0  0
    1.1480   -0.5620   -0.8100 C   0  0  0  0  0  0  0  0  0  0  0  0
    2.5620   -0.8480   -1.9070 S   0  0  0  0  0  0  0  0  0  0  0  0
    3.7920   -0.2780   -0.7230 C   0  0  0  0  0  0  0  0  0  0  0  0
    5.4030   -0.5860   -0.7540 S   0  0  0  0  0  0  0  0  0  0  0  0
    3.0570    0.4790    0.2150 N   0  0  0  0  0  0  0  0  0  0  0  0
    1.6790    0.3440    0.1840 C   0  0  0  0  0  0  0  0  0  0  0  0
    0.8660    0.9620    0.9700 O   0  0  0  0  0  0  0  0  0  0  0  0
  1  2  2  0
  2  3  1  0
  2  5  1  0
  3  4  1  0
  5  6  1  0
  6  7  2  3
  7  8  1  0
  7 12  1  0
  8  9  1  0
  9 10  2  0
  9 11  1  0
 11 12  1  0
 12 13  2  0
M  END
