
     RDKit          3D

 13 13  0  0  0  0  0  0  0  0999 V2000
    3.2280    0.5630   -1.1190 C   0  0  0  0  0  0  0  0  0  0  0  0
    2.2430   -0.4190   -0.5180 C   0  0  0  0  0  0  0  0  0  0  0  0
    1.3930    0.2570    0.4380 N   0  0  0  0  0  0  0  0  0  0  0  0
    0.2840   -0.9050    1.0990 S   0  0  2  0  0  0  0  0  0  0  0  0
   -0.0360   -0.5650    2.5130 O   0  0  0  0  0  0  0  0  0  0  0  0
    0.9510   -2.2550    1.0990 O   0  0  0  0  0  0  0  0  0  0  0  0
   -1.1360   -0.9410    0.1300 N   0  0  0  0  0  0  0  0  0  0  0  0
   -2.2340   -0.0320    0.4790 C   0  0  0  0  0  0  0  0  0  0  0  0
   -2.2510    0.8120    1.4570 N   0  0  0  0  0  0  0  0  0  0  0  0
   -3.1730    1.5710    1.7450 N   0  0  0  0  0  0  0  0  0  0  0  0
   -4.4800    1.2000    0.4570 S   0  0  0  0  0  0  0  0  0  0  0  0
   -3.3690   -0.0810   -0.3200 C   0  0  0  0  0  0  0  0  0  0  0  0
   -3.6860   -0.7450   -1.3050 O   0  0  0  0  0  0  0  0  0  0  0  0
  1  2  1  0
  2  3  1  0
  4  3  1  6
  4  5  2  0
  4  6  2  0
  4  7  1  0
  7  8  1  0
  8  9  2  0
  8 12  1  0
  9 10  1  0
 10 11  1  0
 11 12  1  0
 12 13  2  0
M  END
