
     RDKit          3D

 12 12  0  0  0  0  0  0  0  0999 V2000
   -2.4690    0.2290    1.2290 N   0  0  0  0  0  0  0  0  0  0  0  0
   -2.4330   -0.7530    0.1680 C   0  0  1  0  0  0  0  0  0  0  0  0
   -2.2470   -0.0050   -1.4590 S   0  0  0  0  0  0  0  0  0  0  0  0
   -0.9590   -1.7910    0.5050 S   0  0  0  0  0  0  0  0  0  0  0  0
    0.5020   -0.7950    0.2870 C   0  0  0  0  0  0  0  0  0  0  0  0
    1.0370   -0.0860    1.2980 N   0  0  0  0  0  0  0  0  0  0  0  0
    2.1280    0.6570    1.1700 N   0  0  0  0  0  0  0  0  0  0  0  0
    2.7090    0.6830   -0.0510 C   0  0  0  0  0  0  0  0  0  0  0  0
    3.7510    1.3890   -0.1870 O   0  0  0  0  0  0  0  0  0  0  0  0
    2.2090   -0.0080   -1.0840 N   0  0  0  0  0  0  0  0  0  0  0  0
    1.0970   -0.7660   -0.9560 C   0  0  0  0  0  0  0  0  0  0  0  0
    0.6590   -1.3970   -1.9430 O   0  0  0  0  0  0  0  0  0  0  0  0
  2  1  1  1
  2  3  1  0
  2  4  1  0
  4  5  1  0
  5  6  2  0
  5 11  1  0
  6  7  1  0
  7  8  1  0
  8  9  2  0
  8 10  1  0
 10 11  1  0
 11 12  2  0
M  END
