
     RDKit          3D

 13 13  0  0  0  0  0  0  0  0999 V2000
    3.6930   -0.1720   -0.5670 N   0  0  0  0  0  0  0  0  0  0  0  0
    2.5250    0.4390   -0.1150 C   0  0  0  0  0  0  0  0  0  0  0  0
    2.5930    1.4730    0.5880 O   0  0  0  0  0  0  0  0  0  0  0  0
    1.2050   -0.1670   -0.4900 C   0  0  0  0  0  0  0  0  0  0  0  0
    1.2080   -1.1790   -1.1810 O   0  0  0  0  0  0  0  0  0  0  0  0
    0.0220    0.4050   -0.0650 N   0  0  0  0  0  0  0  0  0  0  0  0
   -1.3210   -0.0370   -0.3270 N   0  0  0  0  0  0  0  0  0  0  0  0
   -2.3540    0.6400    0.1650 C   0  0  0  0  0  0  0  0  0  0  0  0
   -2.2020    1.7210    0.8960 O   0  0  0  0  0  0  0  0  0  0  0  0
   -3.5890    0.2490   -0.0650 N   0  0  0  0  0  0  0  0  0  0  0  0
   -3.4430   -1.1810   -1.0430 S   0  0  0  0  0  0  0  0  0  0  0  0
   -1.5680   -1.1100   -1.0500 C   0  0  0  0  0  0  0  0  0  0  0  0
   -0.7590   -2.2390   -1.8420 S   0  0  0  0  0  0  0  0  0  0  0  0
  1  2  1  0
  2  3  2  0
  2  4  1  0
  4  5  2  0
  4  6  1  0
  6  7  1  0
  7  8  1  0
  7 12  1  0
  8  9  2  0
  8 10  1  0
 10 11  1  0
 11 12  1  0
 12 13  2  0
M  END
