
     RDKit          3D

 13 13  0  0  0  0  0  0  0  0999 V2000
    0.8170   -0.9690    1.0680 O   0  0  0  0  0  0  0  0  0  0  0  0
    1.4510   -0.8680   -0.0130 C   0  0  0  0  0  0  0  0  0  0  0  0
    0.8110   -1.1270   -1.3320 C   0  0  0  0  0  0  0  0  0  0  0  0
   -0.8930   -1.6480   -1.1760 S   0  0  0  0  0  0  0  0  0  0  0  0
   -1.9100   -0.3510   -0.5060 C   0  0  0  0  0  0  0  0  0  0  0  0
   -1.4870    0.8720   -0.1560 N   0  0  0  0  0  0  0  0  0  0  0  0
   -2.4960    1.6030    0.3130 N   0  0  0  0  0  0  0  0  0  0  0  0
   -3.5880    0.8220    0.2600 C   0  0  0  0  0  0  0  0  0  0  0  0
   -4.7340    1.1600    0.6160 O   0  0  0  0  0  0  0  0  0  0  0  0
   -3.2310   -0.3740   -0.2410 N   0  0  0  0  0  0  0  0  0  0  0  0
    2.8400   -0.4910    0.0150 N   0  0  0  0  0  0  0  0  0  0  0  0
    3.4820   -0.2390    1.1890 O   0  0  0  0  0  0  0  0  0  0  0  0
    4.1240    1.3580    1.0940 S   0  0  0  0  0  0  0  0  0  0  0  0
  1  2  2  0
  2  3  1  0
  2 11  1  0
  3  4  1  0
  4  5  1  0
  5  6  2  0
  5 10  1  0
  6  7  1  0
  7  8  1  0
  8  9  2  0
  8 10  1  0
 11 12  1  0
 12 13  1  0
M  END
