
     RDKit          3D

 24 26  0  0  0  0  0  0  0  0999 V2000
    6.4390    1.1650   -1.8040 C   0  0  0  0  0  0  0  0  0  0  0  0
    5.4690    0.6880   -0.7770 C   0  0  0  0  0  0  0  0  0  0  0  0
    5.0230   -0.6170   -0.8000 C   0  0  0  0  0  0  0  0  0  0  0  0
    4.1250   -1.0950    0.1350 C   0  0  0  0  0  0  0  0  0  0  0  0
    3.6340   -0.2820    1.1370 C   0  0  0  0  0  0  0  0  0  0  0  0
    2.4970   -0.8920    2.3200 S   0  0  2  0  0  0  0  0  0  0  0  0
    2.7360   -0.2010    3.6060 O   0  0  0  0  0  0  0  0  0  0  0  0
    2.7800   -2.3560    2.4970 O   0  0  0  0  0  0  0  0  0  0  0  0
    0.8940   -0.6440    1.7270 N   0  0  0  0  0  0  0  0  0  0  0  0
    0.6500   -1.3460    0.5060 C   0  0  0  0  0  0  0  0  0  0  0  0
   -0.7110   -1.1370   -0.0040 C   0  0  0  0  0  0  0  0  0  0  0  0
   -1.1630   -1.7730   -1.1400 C   0  0  0  0  0  0  0  0  0  0  0  0
   -2.4590   -1.5650   -1.6140 C   0  0  0  0  0  0  0  0  0  0  0  0
   -3.2530   -0.7260   -0.9290 N   0  0  0  0  0  0  0  0  0  0  0  0
   -2.8520   -0.0860    0.1830 C   0  0  0  0  0  0  0  0  0  0  0  0
   -3.7000    0.7900    0.8860 O   0  0  0  0  0  0  0  0  0  0  0  0
   -4.9730    0.9660    0.3810 C   0  0  0  0  0  0  0  0  0  0  0  0
   -5.2650    1.3850   -0.8160 C   0  0  0  0  0  0  0  0  0  0  0  0
   -6.7340    1.4310   -0.9520 C   0  0  0  0  0  0  0  0  0  0  0  0
   -7.2360    0.9710    0.3580 C   0  0  0  0  0  0  0  0  0  0  0  0
   -6.2010    0.7080    1.1110 C   0  0  0  0  0  0  0  0  0  0  0  0
   -1.5640   -0.2880    0.6600 C   0  0  0  0  0  0  0  0  0  0  0  0
    4.0840    1.0230    1.1560 C   0  0  0  0  0  0  0  0  0  0  0  0
    4.9830    1.5050    0.2220 C   0  0  0  0  0  0  0  0  0  0  0  0
  1  2  1  0
  2  3  2  0
  2 24  1  0
  3  4  1  0
  4  5  2  0
  5  6  1  0
  5 23  1  0
  6  7  2  0
  6  8  2  0
  6  9  1  6
  9 10  1  0
 10 11  1  0
 11 12  2  0
 11 22  1  0
 12 13  1  0
 13 14  2  0
 14 15  1  0
 15 16  1  0
 15 22  2  0
 16 17  1  0
 17 18  2  0
 17 21  1  0
 18 19  1  0
 19 20  1  0
 20 21  2  0
 23 24  2  0
M  END
