
     RDKit          3D

 24 26  0  0  0  0  0  0  0  0999 V2000
    2.6510   -3.8910   -0.1660 C   0  0  0  0  0  0  0  0  0  0  0  0
    3.5580   -2.8060   -0.2300 O   0  0  0  0  0  0  0  0  0  0  0  0
    3.0360   -1.5250   -0.1180 C   0  0  0  0  0  0  0  0  0  0  0  0
    3.9500   -0.4730   -0.1840 C   0  0  0  0  0  0  0  0  0  0  0  0
    3.4920    0.8060   -0.0780 C   0  0  0  0  0  0  0  0  0  0  0  0
    4.3740    1.9860   -0.1490 C   0  0  0  0  0  0  0  0  0  0  0  0
    6.1000    1.5570   -0.3350 S   0  0  0  0  0  0  0  0  0  0  0  0
    6.8040    0.7740    1.1370 C   0  0  0  0  0  0  0  0  0  0  0  0
    2.1270    1.0380    0.0920 C   0  0  0  0  0  0  0  0  0  0  0  0
    1.5840    2.4210    0.2100 C   0  0  0  0  0  0  0  0  0  0  0  0
    1.2070    0.0120    0.1600 C   0  0  0  0  0  0  0  0  0  0  0  0
   -0.2100    0.3000    0.3460 C   0  0  0  0  0  0  0  0  0  0  0  0
   -0.7730    1.0920   -0.4530 O   0  0  0  0  0  0  0  0  0  0  0  0
   -1.0010   -0.2670    1.3840 N   0  0  0  0  0  0  0  0  0  0  0  0
   -2.3910    0.0500    1.5290 C   0  0  0  0  0  0  0  0  0  0  0  0
   -3.1860   -0.3040    0.3130 C   0  0  0  0  0  0  0  0  0  0  0  0
   -2.7890   -0.8380   -0.8120 O   0  0  0  0  0  0  0  0  0  0  0  0
   -3.7870   -0.9900   -1.6300 N   0  0  0  0  0  0  0  0  0  0  0  0
   -4.9120   -0.5430   -1.0460 C   0  0  0  0  0  0  0  0  0  0  0  0
   -4.5390   -0.1010    0.2010 C   0  0  0  0  0  0  0  0  0  0  0  0
   -5.7700    0.4050    0.8930 C   0  0  0  0  0  0  0  0  0  0  0  0
   -6.6170    0.8580   -0.2760 C   0  0  0  0  0  0  0  0  0  0  0  0
   -6.3970   -0.3370   -1.2220 C   0  0  0  0  0  0  0  0  0  0  0  0
    1.6940   -1.2750    0.0510 C   0  0  0  0  0  0  0  0  0  0  0  0
  1  2  1  0
  2  3  1  0
  3  4  2  0
  3 24  1  0
  4  5  1  0
  5  6  1  0
  5  9  2  0
  6  7  1  0
  7  8  1  0
  9 10  1  0
  9 11  1  0
 11 12  1  0
 11 24  2  0
 12 13  2  0
 12 14  1  0
 14 15  1  0
 15 16  1  0
 16 17  1  0
 16 20  2  0
 17 18  1  0
 18 19  2  0
 19 20  1  0
 19 23  1  0
 20 21  1  0
 21 22  1  0
 22 23  1  0
M  END
