
     RDKit          3D

 24 26  0  0  0  0  0  0  0  0999 V2000
    2.1740    1.5860    0.4410 O   0  0  0  0  0  0  0  0  0  0  0  0
    2.8160    0.5610    0.2850 C   0  0  0  0  0  0  0  0  0  0  0  0
    2.0590   -0.7320    0.4070 C   0  0  0  0  0  0  0  0  0  0  0  0
    0.3440   -0.4390    0.7630 S   0  0  1  0  0  0  0  0  0  0  0  0
   -0.3290   -1.7840    0.8080 O   0  0  0  0  0  0  0  0  0  0  0  0
    0.2490    0.2120    2.0920 O   0  0  0  0  0  0  0  0  0  0  0  0
   -0.4250    0.5170   -0.5190 C   0  0  0  0  0  0  0  0  0  0  0  0
   -1.8400    0.7470   -0.2040 C   0  0  0  0  0  0  0  0  0  0  0  0
   -2.3310    1.8320    0.5160 C   0  0  0  0  0  0  0  0  0  0  0  0
   -3.6950    1.6280    0.5600 C   0  0  0  0  0  0  0  0  0  0  0  0
   -4.0370    0.4660   -0.1030 C   0  0  0  0  0  0  0  0  0  0  0  0
   -5.3930   -0.0670   -0.2600 C   0  0  0  0  0  0  0  0  0  0  0  0
   -6.4590    0.6150    0.2860 C   0  0  0  0  0  0  0  0  0  0  0  0
   -7.7610    0.1750    0.1800 C   0  0  0  0  0  0  0  0  0  0  0  0
   -7.9600   -1.0090   -0.5150 C   0  0  0  0  0  0  0  0  0  0  0  0
   -6.9150   -1.6720   -1.0470 N   0  0  0  0  0  0  0  0  0  0  0  0
   -5.6370   -1.2220   -0.9320 C   0  0  0  0  0  0  0  0  0  0  0  0
   -2.8810   -0.0370   -0.5520 N   0  0  0  0  0  0  0  0  0  0  0  0
    4.2590    0.6030   -0.0060 C   0  0  1  0  0  0  0  0  0  0  0  0
    5.0740   -0.1190    1.0600 C   0  0  0  0  0  0  0  0  0  0  0  0
    6.5060   -0.0550    0.6240 C   0  0  0  0  0  0  0  0  0  0  0  0
    6.7460   -0.5380   -0.6100 C   0  0  0  0  0  0  0  0  0  0  0  0
    5.5530   -1.0550   -1.3390 C   0  0  0  0  0  0  0  0  0  0  0  0
    4.4900    0.0140   -1.3740 C   0  0  0  0  0  0  0  0  0  0  0  0
  1  2  2  0
  2  3  1  0
 19  2  1  1
  4  3  1  6
  4  5  2  0
  4  6  2  0
  4  7  1  0
  7  8  1  0
  8  9  2  0
  8 18  1  0
  9 10  1  0
 10 11  2  0
 11 12  1  0
 11 18  1  0
 12 13  2  0
 12 17  1  0
 13 14  1  0
 14 15  2  0
 15 16  1  0
 16 17  2  0
 19 20  1  0
 19 24  1  0
 20 21  1  0
 21 22  2  0
 22 23  1  0
 23 24  1  0
M  END
