
     RDKit          3D

 24 26  0  0  0  0  0  0  0  0999 V2000
    0.2510    1.5900    2.9140 C   0  0  0  0  0  0  0  0  0  0  0  0
    0.4780    0.5710    1.7880 C   0  0  2  0  0  0  0  0  0  0  0  0
    1.3290    1.1460    0.8290 O   0  0  0  0  0  0  0  0  0  0  0  0
    2.5660    0.6120    0.5940 C   0  0  0  0  0  0  0  0  0  0  0  0
    2.9740   -0.3920    1.2180 O   0  0  0  0  0  0  0  0  0  0  0  0
    3.4380    1.2340   -0.4140 C   0  0  0  0  0  0  0  0  0  0  0  0
    4.7060    0.6100   -0.5970 N   0  0  0  0  0  0  0  0  0  0  0  0
    5.5610    0.7560    0.5350 C   0  0  0  0  0  0  0  0  0  0  0  0
    4.6590   -0.6810   -1.1910 C   0  0  0  0  0  0  0  0  0  0  0  0
    6.0160   -1.3160   -1.3790 C   0  0  0  0  0  0  0  0  0  0  0  0
    6.6280   -1.4550   -0.1580 O   0  0  0  0  0  0  0  0  0  0  0  0
   -0.8590    0.2460    1.2370 C   0  0  0  0  0  0  0  0  0  0  0  0
   -1.6990    0.7720    0.5270 N   0  0  0  0  0  0  0  0  0  0  0  0
   -2.8450    0.2800    0.1630 C   0  0  0  0  0  0  0  0  0  0  0  0
   -3.8090    0.8920   -0.6560 C   0  0  0  0  0  0  0  0  0  0  0  0
   -4.9770    0.2260   -0.9450 C   0  0  0  0  0  0  0  0  0  0  0  0
   -5.9560    0.7940   -1.7500 C   0  0  0  0  0  0  0  0  0  0  0  0
   -7.1180    0.1510   -2.0470 C   0  0  0  0  0  0  0  0  0  0  0  0
   -7.3980   -1.1060   -1.5670 C   0  0  0  0  0  0  0  0  0  0  0  0
   -6.4330   -1.6990   -0.7580 C   0  0  0  0  0  0  0  0  0  0  0  0
   -5.2740   -1.0400   -0.4710 C   0  0  0  0  0  0  0  0  0  0  0  0
   -4.3260   -1.6450    0.3360 C   0  0  0  0  0  0  0  0  0  0  0  0
   -3.1570   -0.9590    0.6150 C   0  0  0  0  0  0  0  0  0  0  0  0
   -1.7150   -1.3800    1.5930 S   0  0  0  0  0  0  0  0  0  0  0  0
  2  1  1  1
  2  3  1  0
  2 12  1  0
  3  4  1  0
  4  5  2  0
  4  6  1  0
  6  7  1  0
  7  8  1  0
  7  9  1  0
  9 10  1  0
 10 11  1  0
 12 13  2  0
 12 24  1  0
 13 14  1  0
 14 15  2  0
 14 23  1  0
 15 16  1  0
 16 17  2  0
 16 21  1  0
 17 18  1  0
 18 19  2  0
 19 20  1  0
 20 21  2  0
 21 22  1  0
 22 23  2  0
 23 24  1  0
M  END
