
     RDKit          3D

 24 26  0  0  0  0  0  0  0  0999 V2000
    6.7310    2.6160   -0.7050 C   0  0  0  0  0  0  0  0  0  0  0  0
    6.0960    1.2870   -0.4250 C   0  0  0  0  0  0  0  0  0  0  0  0
    4.8460    1.0980   -0.6040 N   0  0  0  0  0  0  0  0  0  0  0  0
    4.1800   -0.1160   -0.3720 C   0  0  0  0  0  0  0  0  0  0  0  0
    4.8510   -1.3170   -0.3820 C   0  0  0  0  0  0  0  0  0  0  0  0
    4.1770   -2.5000   -0.1920 C   0  0  0  0  0  0  0  0  0  0  0  0
    2.8140   -2.4680    0.0110 C   0  0  0  0  0  0  0  0  0  0  0  0
    2.0860   -1.2940    0.0340 C   0  0  0  0  0  0  0  0  0  0  0  0
    0.7160   -1.3300    0.2390 O   0  0  0  0  0  0  0  0  0  0  0  0
    0.0450   -0.0680    0.3070 C   0  0  0  0  0  0  0  0  0  0  0  0
   -1.4280   -0.2300    0.4360 C   0  0  0  0  0  0  0  0  0  0  0  0
   -2.2730    0.4890   -0.4280 C   0  0  0  0  0  0  0  0  0  0  0  0
   -3.6280    0.4370   -0.3730 C   0  0  0  0  0  0  0  0  0  0  0  0
   -4.4820    1.2360   -1.2720 C   0  0  0  0  0  0  0  0  0  0  0  0
   -4.1200    1.5110   -2.4240 O   0  0  0  0  0  0  0  0  0  0  0  0
   -5.7380    1.6920   -0.7820 N   0  0  0  0  0  0  0  0  0  0  0  0
   -6.6400    2.4840   -1.5920 C   0  0  0  0  0  0  0  0  0  0  0  0
   -4.1890   -0.3720    0.5950 C   0  0  0  0  0  0  0  0  0  0  0  0
   -3.3800   -1.0750    1.4410 C   0  0  0  0  0  0  0  0  0  0  0  0
   -2.0130   -1.0450    1.4140 C   0  0  0  0  0  0  0  0  0  0  0  0
   -1.3740   -1.8070    2.3350 O   0  0  0  0  0  0  0  0  0  0  0  0
   -2.0710   -2.9790    2.7370 C   0  0  0  0  0  0  0  0  0  0  0  0
   -3.7620   -2.2260    2.7540 S   0  0  0  0  0  0  0  0  0  0  0  0
    2.8020   -0.1140   -0.1620 C   0  0  0  0  0  0  0  0  0  0  0  0
  1  2  1  0
  2  3  2  3
  3  4  1  0
  4  5  2  0
  4 24  1  0
  5  6  1  0
  6  7  2  0
  7  8  1  0
  8  9  1  0
  8 24  2  0
  9 10  1  0
 10 11  1  0
 11 12  2  0
 11 20  1  0
 12 13  1  0
 13 14  1  0
 13 18  2  0
 14 15  2  0
 14 16  1  0
 16 17  1  0
 18 19  1  0
 19 20  2  0
 19 23  1  0
 20 21  1  0
 21 22  1  0
 22 23  1  0
M  END
