
     RDKit          3D

 28 30  0  0  0  0  0  0  0  0999 V2000
   -6.2560    3.8000    0.6090 C   0  0  0  0  0  0  0  0  0  0  0  0
   -5.8680    2.4330    0.4630 O   0  0  0  0  0  0  0  0  0  0  0  0
   -4.5480    2.0610    0.3800 C   0  0  0  0  0  0  0  0  0  0  0  0
   -3.6820    2.9630    0.4370 O   0  0  0  0  0  0  0  0  0  0  0  0
   -4.1210    0.6720    0.2310 C   0  0  0  0  0  0  0  0  0  0  0  0
   -5.0190   -0.3640    0.1630 C   0  0  0  0  0  0  0  0  0  0  0  0
   -4.5570   -1.6500    0.0220 C   0  0  0  0  0  0  0  0  0  0  0  0
   -5.4400   -2.6910   -0.0470 F   0  0  0  0  0  0  0  0  0  0  0  0
   -3.2290   -1.9610   -0.0560 C   0  0  0  0  0  0  0  0  0  0  0  0
   -2.7450   -3.3540   -0.2070 C   0  0  0  0  0  0  0  0  0  0  0  0
   -2.2950   -0.9040    0.0130 C   0  0  0  0  0  0  0  0  0  0  0  0
   -0.9480   -1.2310   -0.0680 N   0  0  0  0  0  0  0  0  0  0  0  0
    0.1420   -0.3490   -0.0200 C   0  0  0  0  0  0  0  0  0  0  0  0
   -0.0450    0.8750    0.1060 O   0  0  0  0  0  0  0  0  0  0  0  0
    1.5340   -0.8630   -0.1210 C   0  0  0  0  0  0  0  0  0  0  0  0
    1.8890   -2.1320   -0.2590 N   0  0  0  0  0  0  0  0  0  0  0  0
    3.2190   -2.2460   -0.3180 N   0  0  0  0  0  0  0  0  0  0  0  0
    3.9990   -3.4580   -0.4650 C   0  0  0  0  0  0  0  0  0  0  0  0
    3.7240   -0.9820   -0.2110 C   0  0  0  0  0  0  0  0  0  0  0  0
    2.6670   -0.0940   -0.0860 C   0  0  0  0  0  0  0  0  0  0  0  0
    2.9260    1.1930    0.0320 C   0  0  0  0  0  0  0  0  0  0  0  0
    4.2720    1.7460    0.0380 C   0  0  0  0  0  0  0  0  0  0  0  0
    4.4730    3.0270    0.1570 N   0  0  0  0  0  0  0  0  0  0  0  0
    3.4190    3.8730    0.2780 O   0  0  0  0  0  0  0  0  0  0  0  0
    5.7480    3.5060    0.1590 O   0  0  0  0  0  0  0  0  0  0  0  0
    5.4260    0.8380   -0.0930 C   0  0  0  0  0  0  0  0  0  0  0  0
    4.9690   -0.5550   -0.2140 C   0  0  0  0  0  0  0  0  0  0  0  0
   -2.7550    0.3830    0.1540 C   0  0  0  0  0  0  0  0  0  0  0  0
  1  2  1  0
  2  3  1  0
  3  4  2  0
  3  5  1  0
  5  6  2  0
  5 28  1  0
  6  7  1  0
  7  8  1  0
  7  9  2  0
  9 10  1  0
  9 11  1  0
 11 12  1  0
 11 28  2  0
 12 13  1  0
 13 14  2  0
 13 15  1  0
 15 16  2  0
 15 20  1  0
 16 17  1  0
 17 18  1  0
 17 19  1  0
 19 20  1  0
 19 27  2  0
 20 21  2  0
 21 22  1  0
 22 23  2  3
 22 26  1  0
 23 24  1  0
 23 25  1  0
 26 27  1  0
M  CHG  2  23   1  24  -1
M  END
