
     RDKit          3D

 28 30  0  0  0  0  0  0  0  0999 V2000
    3.7190   -1.6190    1.2200 C   0  0  0  0  0  0  0  0  0  0  0  0
    2.8760   -0.6260    0.5190 C   0  0  0  0  0  0  0  0  0  0  0  0
    1.5380   -0.7600    0.6140 N   0  0  0  0  0  0  0  0  0  0  0  0
    0.6900    0.0930    0.0100 C   0  0  0  0  0  0  0  0  0  0  0  0
   -0.6430   -0.0480    0.1100 N   0  0  0  0  0  0  0  0  0  0  0  0
   -1.5330    0.7760   -0.4720 C   0  0  0  0  0  0  0  0  0  0  0  0
   -2.9360    0.5910   -0.3410 N   0  0  0  0  0  0  0  0  0  0  0  0
   -3.4480   -0.5080    0.4350 C   0  0  0  0  0  0  0  0  0  0  0  0
   -4.9240   -0.5330    0.4530 C   0  0  0  0  0  0  0  0  0  0  0  0
   -5.6080    0.1480    1.4420 C   0  0  0  0  0  0  0  0  0  0  0  0
   -6.9950    0.1400    1.4810 C   0  0  0  0  0  0  0  0  0  0  0  0
   -7.6830   -0.5340    0.5500 N   0  0  0  0  0  0  0  0  0  0  0  0
   -9.0640   -0.5500    0.5770 O   0  0  0  0  0  0  0  0  0  0  0  0
   -7.0560   -1.2060   -0.4240 C   0  0  0  0  0  0  0  0  0  0  0  0
   -7.7950   -1.8800   -1.3520 F   0  0  0  0  0  0  0  0  0  0  0  0
   -5.6640   -1.2200   -0.4930 C   0  0  0  0  0  0  0  0  0  0  0  0
   -1.0080    1.8250   -1.2130 C   0  0  0  0  0  0  0  0  0  0  0  0
    0.3560    1.9910   -1.3310 C   0  0  0  0  0  0  0  0  0  0  0  0
    1.2520    1.1280   -0.7210 C   0  0  0  0  0  0  0  0  0  0  0  0
    2.6160    1.2860   -0.8330 C   0  0  0  0  0  0  0  0  0  0  0  0
    3.4700    0.3930   -0.2010 C   0  0  0  0  0  0  0  0  0  0  0  0
    4.9010    0.5490   -0.3110 C   0  0  0  0  0  0  0  0  0  0  0  0
    5.3600    1.5030   -0.9860 O   0  0  0  0  0  0  0  0  0  0  0  0
    5.7520   -0.3310    0.3110 O   0  0  0  0  0  0  0  0  0  0  0  0
    7.1530   -0.1960    0.2130 C   0  0  0  0  0  0  0  0  0  0  0  0
    7.5430   -0.2990   -1.2050 C   0  0  0  0  0  0  0  0  0  0  0  0
    6.6650   -0.4910   -2.0740 O   0  0  0  0  0  0  0  0  0  0  0  0
    8.8660   -0.1880   -1.5890 O   0  0  0  0  0  0  0  0  0  0  0  0
  1  2  1  0
  2  3  2  0
  2 21  1  0
  3  4  1  0
  4  5  2  0
  4 19  1  0
  5  6  1  0
  6  7  1  0
  6 17  2  0
  7  8  1  0
  8  9  1  0
  9 10  2  0
  9 16  1  0
 10 11  1  0
 11 12  2  0
 12 13  1  0
 12 14  1  0
 14 15  1  0
 14 16  2  0
 17 18  1  0
 18 19  2  0
 19 20  1  0
 20 21  2  0
 21 22  1  0
 22 23  2  0
 22 24  1  0
 24 25  1  0
 25 26  1  0
 26 27  2  0
 26 28  1  0
M  CHG  3  12   1  13  -1  28  -1
M  END
