
     RDKit          3D

 28 30  0  0  0  0  0  0  0  0999 V2000
    1.7730   -0.4330    1.2310 O   0  0  0  0  0  0  0  0  0  0  0  0
    1.5480    0.4540    0.4070 C   0  0  0  0  0  0  0  0  0  0  0  0
    0.2860    1.1600    0.4760 N   0  0  0  0  0  0  0  0  0  0  0  0
   -0.7930    0.4550    0.4320 C   0  0  0  0  0  0  0  0  0  0  0  0
   -2.0460    1.2040    0.5030 C   0  0  0  0  0  0  0  0  0  0  0  0
   -3.2160    0.6080    0.8790 C   0  0  0  0  0  0  0  0  0  0  0  0
   -4.4130    1.3420    0.9480 C   0  0  0  0  0  0  0  0  0  0  0  0
   -4.3720    2.6830    0.6250 C   0  0  0  0  0  0  0  0  0  0  0  0
   -5.5770    3.5560    0.6640 C   0  0  0  0  0  0  0  0  0  0  0  0
   -5.7640    4.1740    1.8680 F   0  0  0  0  0  0  0  0  0  0  0  0
   -3.2120    3.2480    0.2590 N   0  0  0  0  0  0  0  0  0  0  0  0
   -3.1730    4.5920   -0.0600 O   0  0  0  0  0  0  0  0  0  0  0  0
   -2.0590    2.5410    0.1920 C   0  0  0  0  0  0  0  0  0  0  0  0
   -0.7390   -0.9520    0.3170 N   0  0  0  0  0  0  0  0  0  0  0  0
   -0.3740   -1.6390   -0.8950 C   0  0  0  0  0  0  0  0  0  0  0  0
   -1.4970   -2.5760   -1.2520 C   0  0  0  0  0  0  0  0  0  0  0  0
   -2.4340   -2.7240   -0.2780 O   0  0  0  0  0  0  0  0  0  0  0  0
   -1.9520   -2.9270    1.0070 C   0  0  0  0  0  0  0  0  0  0  0  0
   -1.0590   -1.7820    1.4530 C   0  0  0  0  0  0  0  0  0  0  0  0
    2.4670    0.8190   -0.6090 N   0  0  0  0  0  0  0  0  0  0  0  0
    3.7090    0.2000   -0.7760 C   0  0  0  0  0  0  0  0  0  0  0  0
    4.0050   -1.0250   -0.2750 C   0  0  0  0  0  0  0  0  0  0  0  0
    5.2660   -1.5890   -0.4530 C   0  0  0  0  0  0  0  0  0  0  0  0
    6.2090   -0.8690   -1.1530 C   0  0  0  0  0  0  0  0  0  0  0  0
    7.4610   -1.3910   -1.3490 O   0  0  0  0  0  0  0  0  0  0  0  0
    7.6830   -2.1360   -2.4440 O   0  0  0  0  0  0  0  0  0  0  0  0
    5.9070    0.3890   -1.6670 C   0  0  0  0  0  0  0  0  0  0  0  0
    4.6650    0.9480   -1.4940 C   0  0  0  0  0  0  0  0  0  0  0  0
  1  2  2  0
  2  3  1  0
  2 20  1  0
  3  4  2  3
  4  5  1  0
  4 14  1  0
  5  6  2  0
  5 13  1  0
  6  7  1  0
  7  8  2  0
  8  9  1  0
  8 11  1  0
  9 10  1  0
 11 12  1  0
 11 13  2  0
 14 15  1  0
 14 19  1  0
 15 16  1  0
 16 17  1  0
 17 18  1  0
 18 19  1  0
 20 21  1  0
 21 22  2  0
 21 28  1  0
 22 23  1  0
 23 24  2  0
 24 25  1  0
 24 27  1  0
 25 26  1  0
 27 28  2  0
M  CHG  3  11   1  12  -1  26  -1
M  END
