
     RDKit          3D

 27 29  0  0  0  0  0  0  0  0999 V2000
    2.3720    4.2450    1.7370 C   0  0  0  0  0  0  0  0  0  0  0  0
    1.8960    2.8410    1.4340 C   0  0  0  0  0  0  0  0  0  0  0  0
    0.8500    2.2080    1.9770 N   0  0  0  0  0  0  0  0  0  0  0  0
    0.7720    0.9830    1.4400 N   0  0  0  0  0  0  0  0  0  0  0  0
    1.7600    0.8470    0.5660 C   0  0  0  0  0  0  0  0  0  0  0  0
    2.1380   -0.2980   -0.2990 C   0  0  0  0  0  0  0  0  0  0  0  0
    3.3190   -0.1990   -1.0490 C   0  0  0  0  0  0  0  0  0  0  0  0
    3.7420   -1.2650   -1.8060 C   0  0  0  0  0  0  0  0  0  0  0  0
    3.0520   -2.4570   -1.8700 C   0  0  0  0  0  0  0  0  0  0  0  0
    3.5350   -3.5900   -2.6990 C   0  0  0  0  0  0  0  0  0  0  0  0
    4.3730   -4.3930   -1.9820 F   0  0  0  0  0  0  0  0  0  0  0  0
    1.9000   -2.5440   -1.1370 C   0  0  0  0  0  0  0  0  0  0  0  0
    1.4470   -1.4620   -0.3550 C   0  0  0  0  0  0  0  0  0  0  0  0
    0.1310   -1.5880    0.2870 C   0  0  0  0  0  0  0  0  0  0  0  0
   -0.0540   -2.5660    1.0130 O   0  0  0  0  0  0  0  0  0  0  0  0
   -0.8870   -0.6340    0.0710 N   0  0  0  0  0  0  0  0  0  0  0  0
   -2.1780   -0.6590    0.6250 C   0  0  0  0  0  0  0  0  0  0  0  0
   -2.7170   -1.6180    1.4330 C   0  0  0  0  0  0  0  0  0  0  0  0
   -4.0240   -1.5830    1.9220 C   0  0  0  0  0  0  0  0  0  0  0  0
   -4.8540   -0.5190    1.5810 C   0  0  0  0  0  0  0  0  0  0  0  0
   -4.3180    0.4520    0.7680 C   0  0  0  0  0  0  0  0  0  0  0  0
   -3.0320    0.3950    0.3030 C   0  0  0  0  0  0  0  0  0  0  0  0
   -2.5290    1.4840   -0.5560 C   0  0  0  0  0  0  0  0  0  0  0  0
   -3.4910    2.5240   -0.8240 N   0  0  0  0  0  0  0  0  0  0  0  0
   -3.2400    3.6840   -0.4230 O   0  0  0  0  0  0  0  0  0  0  0  0
   -4.6630    2.3070   -1.4930 O   0  0  0  0  0  0  0  0  0  0  0  0
    2.4290    2.0030    0.5870 O   0  0  0  0  0  0  0  0  0  0  0  0
  1  2  1  0
  2  3  2  0
  2 27  1  0
  3  4  1  0
  4  5  2  0
  5  6  1  0
  5 27  1  0
  6  7  2  0
  6 13  1  0
  7  8  1  0
  8  9  2  0
  9 10  1  0
  9 12  1  0
 10 11  1  0
 12 13  2  0
 13 14  1  0
 14 15  2  0
 14 16  1  0
 16 17  1  0
 17 18  2  0
 17 22  1  0
 18 19  1  0
 19 20  2  0
 20 21  1  0
 21 22  2  0
 22 23  1  0
 23 24  1  0
 24 25  2  0
 24 26  1  0
M  CHG  2  24   1  26  -1
M  END
