
     RDKit          3D

 27 30  0  0  0  0  0  0  0  0999 V2000
   -4.8530    1.9510    2.2510 O   0  0  0  0  0  0  0  0  0  0  0  0
   -4.6440    0.9810    1.5110 C   0  0  0  0  0  0  0  0  0  0  0  0
   -3.2890    0.3600    1.3970 C   0  0  0  0  0  0  0  0  0  0  0  0
   -3.2500   -0.1810    0.0520 N   0  0  0  0  0  0  0  0  0  0  0  0
   -2.3100    0.3340   -0.8650 C   0  0  0  0  0  0  0  0  0  0  0  0
   -2.7520    0.9970   -2.0240 C   0  0  0  0  0  0  0  0  0  0  0  0
   -1.8550    1.5170   -2.9300 C   0  0  0  0  0  0  0  0  0  0  0  0
   -2.3120    2.1550   -4.0470 F   0  0  0  0  0  0  0  0  0  0  0  0
   -0.5170    1.3660   -2.6630 C   0  0  0  0  0  0  0  0  0  0  0  0
   -0.0390    0.7220   -1.5370 C   0  0  0  0  0  0  0  0  0  0  0  0
    1.2620    0.5740   -1.2790 N   0  0  0  0  0  0  0  0  0  0  0  0
    1.7540   -0.0480   -0.1960 C   0  0  0  0  0  0  0  0  0  0  0  0
    3.2110   -0.1710    0.0180 C   0  0  0  0  0  0  0  0  0  0  0  0
    4.1090    0.3500   -0.8890 C   0  0  0  0  0  0  0  0  0  0  0  0
    5.4710    0.2430   -0.7030 C   0  0  0  0  0  0  0  0  0  0  0  0
    5.9930   -0.3980    0.4110 C   0  0  0  0  0  0  0  0  0  0  0  0
    7.3880   -0.5140    0.6140 N   0  0  0  0  0  0  0  0  0  0  0  0
    8.2060   -0.0480   -0.1970 O   0  0  0  0  0  0  0  0  0  0  0  0
    7.8710   -1.1530    1.7260 O   0  0  0  0  0  0  0  0  0  0  0  0
    5.0820   -0.9140    1.3090 C   0  0  0  0  0  0  0  0  0  0  0  0
    3.7200   -0.8070    1.1240 C   0  0  0  0  0  0  0  0  0  0  0  0
    0.8790   -0.5510    0.6790 N   0  0  0  0  0  0  0  0  0  0  0  0
   -0.4680   -0.4330    0.4740 C   0  0  0  0  0  0  0  0  0  0  0  0
   -0.9640    0.2020   -0.6310 C   0  0  0  0  0  0  0  0  0  0  0  0
   -4.2030   -1.2200   -0.2610 C   0  0  0  0  0  0  0  0  0  0  0  0
   -5.5350   -0.9520    0.4050 C   0  0  0  0  0  0  0  0  0  0  0  0
   -5.6590    0.4340    0.7590 O   0  0  0  0  0  0  0  0  0  0  0  0
  1  2  2  0
  2  3  1  0
  2 27  1  0
  3  4  1  0
  4  5  1  0
  4 25  1  0
  5  6  2  0
  5 24  1  0
  6  7  1  0
  7  8  1  0
  7  9  2  0
  9 10  1  0
 10 11  2  0
 10 24  1  0
 11 12  1  0
 12 13  1  0
 12 22  2  0
 13 14  2  0
 13 21  1  0
 14 15  1  0
 15 16  2  0
 16 17  1  0
 16 20  1  0
 17 18  2  0
 17 19  1  0
 20 21  2  0
 22 23  1  0
 23 24  2  0
 25 26  1  0
 26 27  1  0
M  CHG  2  17   1  19  -1
M  END
