
     RDKit          3D

 27 28  0  0  0  0  0  0  0  0999 V2000
    7.0550   -0.9930    0.4660 C   0  0  0  0  0  0  0  0  0  0  0  0
    6.1340   -0.2580   -0.4960 C   0  0  0  0  0  0  0  0  0  0  0  0
    4.8810   -0.0840   -0.1830 C   0  0  0  0  0  0  0  0  0  0  0  0
    3.9010    0.5720   -0.9620 N   0  0  0  0  0  0  0  0  0  0  0  0
    2.6610    0.7040   -0.4090 C   0  0  0  0  0  0  0  0  0  0  0  0
    2.4210    0.1710    0.9770 C   0  0  0  0  0  0  0  0  0  0  0  0
    1.6350    1.3140   -1.0750 C   0  0  0  0  0  0  0  0  0  0  0  0
    0.3240    1.4270   -0.3780 C   0  0  0  0  0  0  0  0  0  0  0  0
    0.1630    2.4690    0.2750 O   0  0  0  0  0  0  0  0  0  0  0  0
   -0.6160    0.3810   -0.4970 N   0  0  0  0  0  0  0  0  0  0  0  0
   -0.2680   -0.7560   -1.3810 C   0  0  0  0  0  0  0  0  0  0  0  0
   -1.8700    0.3180    0.1470 C   0  0  0  0  0  0  0  0  0  0  0  0
   -2.1750    1.2700    1.0960 C   0  0  0  0  0  0  0  0  0  0  0  0
   -3.3890    1.2340    1.7490 C   0  0  0  0  0  0  0  0  0  0  0  0
   -4.3230    0.2540    1.4780 C   0  0  0  0  0  0  0  0  0  0  0  0
   -5.6120    0.2290    2.1970 C   0  0  0  0  0  0  0  0  0  0  0  0
   -6.6950    0.8470    1.4840 N   0  0  0  0  0  0  0  0  0  0  0  0
   -6.5700    1.3580    0.3560 O   0  0  0  0  0  0  0  0  0  0  0  0
   -7.9270    0.8760    2.0690 O   0  0  0  0  0  0  0  0  0  0  0  0
   -3.9990   -0.6870    0.5280 C   0  0  0  0  0  0  0  0  0  0  0  0
   -2.7960   -0.6920   -0.1540 C   0  0  0  0  0  0  0  0  0  0  0  0
   -2.5250   -1.6710   -1.1050 O   0  0  0  0  0  0  0  0  0  0  0  0
   -3.3730   -2.7130   -1.4740 C   0  0  0  0  0  0  0  0  0  0  0  0
    1.8720    1.8010   -2.3260 C   0  0  0  0  0  0  0  0  0  0  0  0
    3.0960    1.6620   -2.8520 N   0  0  0  0  0  0  0  0  0  0  0  0
    4.0880    1.0590   -2.1800 C   0  0  0  0  0  0  0  0  0  0  0  0
    5.2290    0.9570   -2.7280 O   0  0  0  0  0  0  0  0  0  0  0  0
  1  2  1  0
  2  3  2  3
  3  4  1  0
  4  5  1  0
  4 26  1  0
  5  6  1  0
  5  7  2  0
  7  8  1  0
  7 24  1  0
  8  9  2  0
  8 10  1  0
 10 11  1  0
 10 12  1  0
 12 13  2  0
 12 21  1  0
 13 14  1  0
 14 15  2  0
 15 16  1  0
 15 20  1  0
 16 17  1  0
 17 18  2  0
 17 19  1  0
 20 21  2  0
 21 22  1  0
 22 23  1  0
 24 25  2  0
 25 26  1  0
 26 27  2  0
M  CHG  2  17   1  19  -1
M  END
