
     RDKit          3D

 27 31  0  0  0  0  0  0  0  0999 V2000
    8.1130    0.5890    1.1360 N   0  0  0  0  0  0  0  0  0  0  0  0
    7.1630    0.3850    0.1080 C   0  0  0  0  0  0  0  0  0  0  0  0
    7.5980    0.3720   -1.1990 C   0  0  0  0  0  0  0  0  0  0  0  0
    6.6330    0.1670   -2.1820 C   0  0  0  0  0  0  0  0  0  0  0  0
    5.3010   -0.0140   -1.8580 C   0  0  0  0  0  0  0  0  0  0  0  0
    4.8710    0.0000   -0.5480 C   0  0  0  0  0  0  0  0  0  0  0  0
    3.4650   -0.1920   -0.2170 C   0  0  0  0  0  0  0  0  0  0  0  0
    2.9300   -0.1980    1.0120 N   0  0  0  0  0  0  0  0  0  0  0  0
    1.6050   -0.4020    0.9420 N   0  0  0  0  0  0  0  0  0  0  0  0
    1.2740   -0.5300   -0.3450 C   0  0  0  0  0  0  0  0  0  0  0  0
    0.0040   -0.7210   -0.9530 N   0  0  0  0  0  0  0  0  0  0  0  0
   -1.1660   -0.8780   -0.2040 C   0  0  0  0  0  0  0  0  0  0  0  0
   -1.2680   -1.5960    0.9570 C   0  0  0  0  0  0  0  0  0  0  0  0
   -2.4470   -1.6950    1.6900 C   0  0  0  0  0  0  0  0  0  0  0  0
   -3.5530   -1.0330    1.2070 C   0  0  0  0  0  0  0  0  0  0  0  0
   -4.8210   -0.9400    1.6860 N   0  0  0  0  0  0  0  0  0  0  0  0
   -5.5690   -0.1770    0.8700 C   0  0  0  0  0  0  0  0  0  0  0  0
   -6.8850    0.2310    0.8850 C   0  0  0  0  0  0  0  0  0  0  0  0
   -7.4170    1.0380   -0.1040 C   0  0  0  0  0  0  0  0  0  0  0  0
   -6.5920    1.4470   -1.1430 C   0  0  0  0  0  0  0  0  0  0  0  0
   -7.1010    2.2580   -2.1480 O   0  0  0  0  0  0  0  0  0  0  0  0
   -5.2760    1.0370   -1.1540 C   0  0  0  0  0  0  0  0  0  0  0  0
   -4.7310    0.2260   -0.1640 C   0  0  0  0  0  0  0  0  0  0  0  0
   -3.4750   -0.3060    0.0430 C   0  0  0  0  0  0  0  0  0  0  0  0
   -2.3070   -0.2140   -0.6720 C   0  0  0  0  0  0  0  0  0  0  0  0
    2.4560   -0.3930   -1.0440 N   0  0  0  0  0  0  0  0  0  0  0  0
    5.8340    0.2040    0.4280 C   0  0  0  0  0  0  0  0  0  0  0  0
  1  2  1  0
  2  3  2  0
  2 27  1  0
  3  4  1  0
  4  5  2  0
  5  6  1  0
  6  7  1  0
  6 27  2  0
  7  8  2  0
  7 26  1  0
  8  9  1  0
  9 10  1  0
 10 11  1  0
 10 26  2  0
 11 12  1  0
 12 13  2  0
 12 25  1  0
 13 14  1  0
 14 15  2  0
 15 16  1  0
 15 24  1  0
 16 17  1  0
 17 18  2  0
 17 23  1  0
 18 19  1  0
 19 20  2  0
 20 21  1  0
 20 22  1  0
 22 23  2  0
 23 24  1  0
 24 25  2  0
M  END
