
     RDKit          3D

 34 39  0  0  0  0  0  0  0  0999 V2000
    5.6950   -1.9380   -3.5240 C   0  0  0  0  0  0  0  0  0  0  0  0
    4.7410   -1.2770   -2.5690 C   0  0  0  0  0  0  0  0  0  0  0  0
    3.4310   -1.6450   -2.5770 C   0  0  0  0  0  0  0  0  0  0  0  0
    2.5780   -1.0300   -1.6970 C   0  0  0  0  0  0  0  0  0  0  0  0
    3.0110   -0.0650   -0.8220 C   0  0  0  0  0  0  0  0  0  0  0  0
    2.1750    0.5630    0.0650 O   0  0  0  0  0  0  0  0  0  0  0  0
    0.8320    0.3160    0.1920 C   0  0  0  0  0  0  0  0  0  0  0  0
   -0.1260    1.0120   -0.5420 C   0  0  0  0  0  0  0  0  0  0  0  0
   -1.4670    0.7130   -0.3670 C   0  0  0  0  0  0  0  0  0  0  0  0
   -1.8840   -0.2550    0.5150 C   0  0  0  0  0  0  0  0  0  0  0  0
   -3.3070   -0.5930    0.7200 C   0  0  0  0  0  0  0  0  0  0  0  0
   -3.9190    0.1910    1.7560 N   0  0  1  0  0  0  0  0  0  0  0  0
   -4.7110    1.2720    1.2320 C   0  0  0  0  0  0  0  0  0  0  0  0
   -5.5110    0.8280    0.0600 C   0  0  0  0  0  0  0  0  0  0  0  0
   -5.4730    1.6860   -1.0020 C   0  0  0  0  0  0  0  0  0  0  0  0
   -6.1860    1.3510   -2.1280 C   0  0  0  0  0  0  0  0  0  0  0  0
   -6.9100    0.1790   -2.1600 C   0  0  0  0  0  0  0  0  0  0  0  0
   -6.9540   -0.6790   -1.1110 N   0  0  0  0  0  0  0  0  0  0  0  0
   -6.2560   -0.3520   -0.0090 C   0  0  0  0  0  0  0  0  0  0  0  0
   -6.4080   -1.3760    1.0190 C   0  0  0  0  0  0  0  0  0  0  0  0
   -7.2970   -2.4270    0.9840 C   0  0  0  0  0  0  0  0  0  0  0  0
   -7.0940   -3.1090    2.1220 N   0  0  0  0  0  0  0  0  0  0  0  0
   -6.1400   -2.5310    2.8350 N   0  0  0  0  0  0  0  0  0  0  0  0
   -5.6750   -1.4460    2.1960 C   0  0  0  0  0  0  0  0  0  0  0  0
   -4.6110   -0.6040    2.7500 C   0  0  0  0  0  0  0  0  0  0  0  0
   -0.9560   -0.9180    1.2150 N   0  0  0  0  0  0  0  0  0  0  0  0
    0.3730   -0.6440    1.0620 C   0  0  0  0  0  0  0  0  0  0  0  0
    4.3600    0.2890   -0.8380 C   0  0  0  0  0  0  0  0  0  0  0  0
    4.8360    1.2860    0.0330 N   0  0  0  0  0  0  0  0  0  0  0  0
    6.2340    1.6120    0.1170 C   0  0  0  0  0  0  0  0  0  0  0  0
    7.0460    0.4750    0.7480 C   0  0  1  0  0  0  0  0  0  0  0  0
    8.5550    0.7600    0.8570 C   0  0  0  0  0  0  0  0  0  0  0  0
    7.6910    0.7530    2.0740 C   0  0  0  0  0  0  0  0  0  0  0  0
    5.2360   -0.3200   -1.7180 C   0  0  0  0  0  0  0  0  0  0  0  0
  1  2  1  0
  2  3  2  0
  2 34  1  0
  3  4  1  0
  4  5  2  0
  5  6  1  0
  5 28  1  0
  6  7  1  0
  7  8  2  0
  7 27  1  0
  8  9  1  0
  9 10  2  0
 10 11  1  0
 10 26  1  0
 12 11  1  6
 12 13  1  0
 12 25  1  0
 13 14  1  0
 14 15  2  0
 14 19  1  0
 15 16  1  0
 16 17  2  0
 17 18  1  0
 18 19  2  0
 19 20  1  0
 20 21  1  0
 20 24  2  0
 21 22  2  0
 22 23  1  0
 23 24  1  0
 24 25  1  0
 26 27  2  0
 28 29  1  0
 28 34  2  0
 29 30  1  0
 31 30  1  6
 31 32  1  0
 31 33  1  0
 32 33  1  0
M  CHG  1  12   1
M  END
