
     RDKit          3D

 34 35  0  0  0  0  0  0  0  0999 V2000
    6.1210   -0.6030    3.7500 C   0  0  0  0  0  0  0  0  0  0  0  0
    7.0770   -0.8600    2.6050 C   0  0  0  0  0  0  0  0  0  0  0  0
    6.7220   -0.1290    1.4570 O   0  0  0  0  0  0  0  0  0  0  0  0
    5.5310   -0.1790    0.7890 C   0  0  0  0  0  0  0  0  0  0  0  0
    4.6560   -0.9850    1.2900 O   0  0  0  0  0  0  0  0  0  0  0  0
    5.1380    0.5650   -0.4070 C   0  0  0  0  0  0  0  0  0  0  0  0
    3.7850    1.2190   -0.3290 C   0  0  2  0  0  0  0  0  0  0  0  0
    3.7480    2.2120    0.7970 C   0  0  0  0  0  0  0  0  0  0  0  0
    4.7600    3.2040    0.8910 N   0  0  0  0  0  0  0  0  0  0  0  0
    2.8500    2.1970    1.6660 O   0  0  0  0  0  0  0  0  0  0  0  0
    2.7160    0.3920   -0.1950 O   0  0  0  0  0  0  0  0  0  0  0  0
    2.3600   -0.2130   -1.3590 C   0  0  1  0  0  0  0  0  0  0  0  0
    1.0650   -0.9130   -1.1680 C   0  0  0  0  0  0  0  0  0  0  0  0
    0.4970   -0.8440   -0.0570 O   0  0  0  0  0  0  0  0  0  0  0  0
    0.4570   -1.6600   -2.2190 N   0  0  0  0  0  0  0  0  0  0  0  0
   -0.7930   -2.3360   -2.0470 C   0  0  0  0  0  0  0  0  0  0  0  0
   -1.8620   -1.3800   -1.6960 C   0  0  0  0  0  0  0  0  0  0  0  0
   -1.6330   -0.1560   -1.5420 O   0  0  0  0  0  0  0  0  0  0  0  0
   -3.1630   -1.8240   -1.5280 O   0  0  0  0  0  0  0  0  0  0  0  0
   -4.1340   -0.8740   -1.1930 C   0  0  0  0  0  0  0  0  0  0  0  0
   -4.6290    0.0070   -2.1420 C   0  0  0  0  0  0  0  0  0  0  0  0
   -5.5700    0.9220   -1.7980 C   0  0  0  0  0  0  0  0  0  0  0  0
   -6.0920    1.8260   -2.7250 O   0  0  0  0  0  0  0  0  0  0  0  0
   -5.6580    1.8230   -4.0820 C   0  0  0  0  0  0  0  0  0  0  0  0
   -6.0330    0.9730   -0.5030 C   0  0  0  0  0  0  0  0  0  0  0  0
   -5.5430    0.0950    0.4550 C   0  0  0  0  0  0  0  0  0  0  0  0
   -4.5980   -0.8240    0.1090 C   0  0  0  0  0  0  0  0  0  0  0  0
   -4.0830   -1.7100    1.0070 O   0  0  0  0  0  0  0  0  0  0  0  0
   -4.4530   -1.7520    2.3590 C   0  0  0  0  0  0  0  0  0  0  0  0
   -4.1110   -0.5160    3.1000 C   0  0  0  0  0  0  0  0  0  0  0  0
   -4.4980   -0.4120    4.4750 N   0  0  0  0  0  0  0  0  0  0  0  0
   -3.5040    0.4260    2.5740 O   0  0  0  0  0  0  0  0  0  0  0  0
    2.0480    0.8870   -2.3960 C   0  0  0  0  0  0  0  0  0  0  0  0
    3.4040    2.0330   -1.9280 S   0  0  0  0  0  0  0  0  0  0  0  0
  1  2  1  0
  2  3  1  0
  3  4  1  0
  4  5  2  0
  4  6  1  0
  7  6  1  6
  7  8  1  0
  7 11  1  0
  7 34  1  0
  8  9  1  0
  8 10  2  0
 11 12  1  0
 12 13  1  1
 12 33  1  0
 13 14  2  0
 13 15  1  0
 15 16  1  0
 16 17  1  0
 17 18  2  0
 17 19  1  0
 19 20  1  0
 20 21  2  0
 20 27  1  0
 21 22  1  0
 22 23  1  0
 22 25  2  0
 23 24  1  0
 25 26  1  0
 26 27  2  0
 27 28  1  0
 28 29  1  0
 29 30  1  0
 30 31  1  0
 30 32  2  0
 33 34  1  0
M  END
