
     RDKit          3D

 34 39  0  0  0  0  0  0  0  0999 V2000
    8.0980    2.1130    1.4400 C   0  0  0  0  0  0  0  0  0  0  0  0
    7.2440    1.1760    2.2760 C   0  0  0  0  0  0  0  0  0  0  0  0
    5.8990    1.0360    1.6200 C   0  0  0  0  0  0  0  0  0  0  0  0
    6.0580    0.4790    0.2530 C   0  0  0  0  0  0  0  0  0  0  0  0
    7.2090    0.2080   -0.1660 O   0  0  0  0  0  0  0  0  0  0  0  0
    4.9520    0.2440   -0.5920 N   0  0  0  0  0  0  0  0  0  0  0  0
    5.1580   -0.2990   -1.9140 C   0  0  0  0  0  0  0  0  0  0  0  0
    4.3550   -1.5700   -2.0100 C   0  0  0  0  0  0  0  0  0  0  0  0
    2.9100   -1.3120   -1.7530 C   0  0  1  0  0  0  0  0  0  0  0  0
    2.3270   -2.2100   -0.6830 C   0  0  0  0  0  0  0  0  0  0  0  0
    1.0420   -1.5730   -0.4540 N   0  0  0  0  0  0  0  0  0  0  0  0
    0.0540   -2.1220   -1.3110 C   0  0  0  0  0  0  0  0  0  0  0  0
   -1.2890   -1.5300   -1.1470 C   0  0  0  0  0  0  0  0  0  0  0  0
   -2.2470   -1.8820   -0.2930 N   0  0  0  0  0  0  0  0  0  0  0  0
   -3.3670   -1.1050   -0.4270 C   0  0  0  0  0  0  0  0  0  0  0  0
   -4.6130   -1.3400    0.3090 C   0  0  0  0  0  0  0  0  0  0  0  0
   -4.8400   -2.6770    0.7070 C   0  0  0  0  0  0  0  0  0  0  0  0
   -5.9590   -3.0150    1.4100 C   0  0  0  0  0  0  0  0  0  0  0  0
   -6.8700   -2.0490    1.7320 C   0  0  0  0  0  0  0  0  0  0  0  0
   -6.6450   -0.7350    1.3440 C   0  0  0  0  0  0  0  0  0  0  0  0
   -7.5150    0.2210    1.6860 N   0  0  0  0  0  0  0  0  0  0  0  0
   -7.3510    1.5270    1.3800 C   0  0  0  0  0  0  0  0  0  0  0  0
   -8.2450    2.4690    1.7390 N   0  0  0  0  0  0  0  0  0  0  0  0
   -8.0770    3.7690    1.4330 C   0  0  0  0  0  0  0  0  0  0  0  0
   -6.9860    4.2290    0.7330 C   0  0  0  0  0  0  0  0  0  0  0  0
   -6.0600    3.2640    0.3590 C   0  0  0  0  0  0  0  0  0  0  0  0
   -6.2420    1.9400    0.6780 C   0  0  0  0  0  0  0  0  0  0  0  0
   -5.3280    0.9460    0.3140 C   0  0  0  0  0  0  0  0  0  0  0  0
   -5.5080   -0.3730    0.6280 C   0  0  0  0  0  0  0  0  0  0  0  0
   -3.0600   -0.2350   -1.4240 C   0  0  0  0  0  0  0  0  0  0  0  0
   -1.7920   -0.5110   -1.8460 N   0  0  0  0  0  0  0  0  0  0  0  0
    1.2520   -0.1670   -0.5390 C   0  0  0  0  0  0  0  0  0  0  0  0
    2.5960    0.0470   -1.2310 C   0  0  1  0  0  0  0  0  0  0  0  0
    3.5830    0.5220   -0.2040 C   0  0  0  0  0  0  0  0  0  0  0  0
  1  2  1  0
  2  3  1  0
  3  4  1  0
  4  5  2  0
  4  6  1  0
  6  7  1  0
  6 34  1  0
  7  8  1  0
  9  8  1  1
  9 10  1  0
  9 33  1  0
 10 11  1  0
 11 12  1  0
 11 32  1  0
 12 13  1  0
 13 14  1  0
 13 31  2  0
 14 15  1  0
 15 16  1  0
 15 30  2  0
 16 17  2  0
 16 29  1  0
 17 18  1  0
 18 19  2  0
 19 20  1  0
 20 21  2  0
 20 29  1  0
 21 22  1  0
 22 23  2  0
 22 27  1  0
 23 24  1  0
 24 25  2  0
 25 26  1  0
 26 27  2  0
 27 28  1  0
 28 29  2  0
 30 31  1  0
 33 32  1  1
 33 34  1  0
M  CHG  1  31   1
M  END
