
     RDKit          3D

 34 37  0  0  0  0  0  0  0  0999 V2000
    7.0630   -0.6970   -0.0240 C   0  0  0  0  0  0  0  0  0  0  0  0
    6.4690   -1.5420    1.0980 C   0  0  1  0  0  0  0  0  0  0  0  0
    5.7310   -2.5740    0.6260 F   0  0  0  0  0  0  0  0  0  0  0  0
    7.5560   -2.0900    1.7710 F   0  0  0  0  0  0  0  0  0  0  0  0
    5.6910   -0.6100    1.9870 C   0  0  0  0  0  0  0  0  0  0  0  0
    4.6260    0.0920    1.3600 N   0  0  0  0  0  0  0  0  0  0  0  0
    3.4930   -0.4860    0.7450 C   0  0  0  0  0  0  0  0  0  0  0  0
    3.3530   -1.7260    0.7190 O   0  0  0  0  0  0  0  0  0  0  0  0
    2.4690    0.3230    0.1340 N   0  0  0  0  0  0  0  0  0  0  0  0
    2.4690    1.6720    0.0740 C   0  0  0  0  0  0  0  0  0  0  0  0
    1.3420    2.1120   -0.5780 C   0  0  0  0  0  0  0  0  0  0  0  0
    0.8320    3.3080   -0.9170 N   0  0  0  0  0  0  0  0  0  0  0  0
   -0.3350    3.4300   -1.5760 C   0  0  0  0  0  0  0  0  0  0  0  0
   -0.7700    4.7470   -1.8790 N   0  0  0  0  0  0  0  0  0  0  0  0
   -1.0440    2.3340   -1.9260 N   0  0  0  0  0  0  0  0  0  0  0  0
   -0.5640    1.1270   -1.6040 C   0  0  0  0  0  0  0  0  0  0  0  0
   -1.2820   -0.1040   -1.9550 C   0  0  0  0  0  0  0  0  0  0  0  0
   -1.0550   -0.7230   -3.1430 C   0  0  0  0  0  0  0  0  0  0  0  0
    0.1230   -0.0200   -4.2650 Cl  0  0  0  0  0  0  0  0  0  0  0  0
   -1.6980   -1.8800   -3.5330 C   0  0  0  0  0  0  0  0  0  0  0  0
   -2.6090   -2.4050   -2.6420 C   0  0  0  0  0  0  0  0  0  0  0  0
   -3.4350   -3.8950   -3.1460 Cl  0  0  0  0  0  0  0  0  0  0  0  0
   -2.8800   -1.8360   -1.4410 C   0  0  0  0  0  0  0  0  0  0  0  0
   -2.2140   -0.6590   -1.0660 C   0  0  0  0  0  0  0  0  0  0  0  0
   -2.4090   -0.0450    0.0620 O   0  0  0  0  0  0  0  0  0  0  0  0
   -2.6830    0.4740    1.2050 C   0  0  0  0  0  0  0  0  0  0  0  0
   -4.1000    0.9170    1.5120 C   0  0  0  0  0  0  0  0  0  0  0  0
   -5.0730   -0.1360    1.4500 N   0  0  0  0  0  0  0  0  0  0  0  0
   -5.4510   -0.9270    2.4610 C   0  0  0  0  0  0  0  0  0  0  0  0
   -6.3990   -1.8040    1.9940 C   0  0  0  0  0  0  0  0  0  0  0  0
   -6.5590   -1.4890    0.6590 C   0  0  0  0  0  0  0  0  0  0  0  0
   -5.7380   -0.4690    0.3590 N   0  0  0  0  0  0  0  0  0  0  0  0
    0.6290    0.9890   -0.9290 C   0  0  0  0  0  0  0  0  0  0  0  0
    1.3540   -0.1130   -0.4730 C   0  0  0  0  0  0  0  0  0  0  0  0
  2  1  1  6
  2  3  1  0
  2  4  1  0
  2  5  1  0
  5  6  1  0
  6  7  1  0
  7  8  2  0
  7  9  1  0
  9 10  1  0
  9 34  1  0
 10 11  2  0
 11 12  1  0
 11 33  1  0
 12 13  2  0
 13 14  1  0
 13 15  1  0
 15 16  2  0
 16 17  1  0
 16 33  1  0
 17 18  2  0
 17 24  1  0
 18 19  1  0
 18 20  1  0
 20 21  2  0
 21 22  1  0
 21 23  1  0
 23 24  2  0
 24 25  1  0
 25 26  1  0
 26 27  1  0
 27 28  1  0
 28 29  1  0
 28 32  1  0
 29 30  2  0
 30 31  1  0
 31 32  2  0
 33 34  2  0
M  END
