
     RDKit          3D

 34 35  0  0  0  0  0  0  0  0999 V2000
   -5.6870    1.8790    2.5910 C   0  0  0  0  0  0  0  0  0  0  0  0
   -4.6950    0.9860    2.6110 O   0  0  0  0  0  0  0  0  0  0  0  0
   -4.8100   -0.3300    2.4450 C   0  0  0  0  0  0  0  0  0  0  0  0
   -5.4130   -0.9020    1.2080 C   0  0  1  0  0  0  0  0  0  0  0  0
   -4.7640   -0.3550   -0.0150 C   0  0  0  0  0  0  0  0  0  0  0  0
   -3.4250   -0.6320   -0.1290 O   0  0  0  0  0  0  0  0  0  0  0  0
   -2.4750   -0.3420   -1.0280 C   0  0  0  0  0  0  0  0  0  0  0  0
   -2.6490    0.3910   -2.1990 C   0  0  0  0  0  0  0  0  0  0  0  0
   -1.6180    0.6410   -3.0600 C   0  0  0  0  0  0  0  0  0  0  0  0
   -0.3240    0.1670   -2.7980 C   0  0  0  0  0  0  0  0  0  0  0  0
    0.6760    0.4570   -3.7050 O   0  0  0  0  0  0  0  0  0  0  0  0
    1.9910    0.0700   -3.5520 C   0  0  0  0  0  0  0  0  0  0  0  0
    2.6460    0.6460   -2.3510 C   0  0  0  0  0  0  0  0  0  0  0  0
    2.0210    1.3950   -1.5690 O   0  0  0  0  0  0  0  0  0  0  0  0
    3.9950    0.3450   -2.0820 N   0  0  0  0  0  0  0  0  0  0  0  0
    4.6360    0.9010   -0.9010 C   0  0  0  0  0  0  0  0  0  0  0  0
    6.0150    0.5160   -0.8480 C   0  0  0  0  0  0  0  0  0  0  0  0
    6.7160   -0.1250   -1.5100 O   0  0  0  0  0  0  0  0  0  0  0  0
    6.7690    1.2040    0.5560 N   0  0  0  0  0  0  0  0  0  0  0  0
    8.0310    0.7790    0.3020 C   0  0  0  0  0  0  0  0  0  0  0  0
    8.6100    0.1640   -0.5530 O   0  0  0  0  0  0  0  0  0  0  0  0
    8.8590    1.2550    1.4730 N   0  0  0  0  0  0  0  0  0  0  0  0
   10.2240    0.9330    1.4800 C   0  0  0  0  0  0  0  0  0  0  0  0
   10.5080   -0.5380    1.4850 C   0  0  0  0  0  0  0  0  0  0  0  0
    9.5720   -1.3490    1.4310 O   0  0  0  0  0  0  0  0  0  0  0  0
   -0.1330   -0.5610   -1.6460 C   0  0  0  0  0  0  0  0  0  0  0  0
   -1.1800   -0.8060   -0.7910 C   0  0  0  0  0  0  0  0  0  0  0  0
   -5.2400   -2.3430    1.1890 O   0  0  0  0  0  0  0  0  0  0  0  0
   -5.7410   -3.0100    0.0890 C   0  0  0  0  0  0  0  0  0  0  0  0
   -5.2100   -4.0870   -0.3310 O   0  0  0  0  0  0  0  0  0  0  0  0
   -7.1740   -2.3900   -0.8200 S   0  0  0  0  0  0  0  0  0  0  0  0
   -7.5150   -0.7400   -0.1330 C   0  0  0  0  0  0  0  0  0  0  0  0
   -6.9160   -0.7360    1.2620 C   0  0  1  0  0  0  0  0  0  0  0  0
   -7.4260   -1.9050    1.8970 O   0  0  0  0  0  0  0  0  0  0  0  0
  1  2  1  0
  2  3  1  0
  4  3  1  1
  4  5  1  0
  4 28  1  0
  4 33  1  0
  5  6  1  0
  6  7  1  0
  7  8  2  0
  7 27  1  0
  8  9  1  0
  9 10  2  0
 10 11  1  0
 10 26  1  0
 11 12  1  0
 12 13  1  0
 13 14  2  0
 13 15  1  0
 15 16  1  0
 16 17  1  0
 17 18  2  0
 17 19  1  0
 19 20  1  0
 20 21  2  0
 20 22  1  0
 22 23  1  0
 23 24  1  0
 24 25  2  0
 26 27  2  0
 28 29  1  0
 29 30  2  0
 29 31  1  0
 31 32  1  0
 32 33  1  0
 33 34  1  1
M  END
