
     RDKit          3D

 34 34  0  0  0  0  0  0  0  0999 V2000
   -0.4990   -6.5190    1.6670 C   0  0  0  0  0  0  0  0  0  0  0  0
   -1.3510   -5.6670    1.1170 C   0  0  0  0  0  0  0  0  0  0  0  0
   -1.0940   -4.2340    1.0920 C   0  0  0  0  0  0  0  0  0  0  0  0
   -1.9070   -3.3460    0.5550 C   0  0  0  0  0  0  0  0  0  0  0  0
   -1.6020   -1.9500    0.5610 N   0  0  0  0  0  0  0  0  0  0  0  0
   -1.4470   -1.2040   -0.6320 C   0  0  0  0  0  0  0  0  0  0  0  0
   -1.5790   -1.7760   -1.7350 O   0  0  0  0  0  0  0  0  0  0  0  0
   -1.1290    0.2540   -0.6360 C   0  0  1  0  0  0  0  0  0  0  0  0
   -1.0040    0.7700    0.6240 O   0  0  0  0  0  0  0  0  0  0  0  0
   -1.8590    1.7800    0.9740 C   0  0  0  0  0  0  0  0  0  0  0  0
   -1.6620    2.9680    0.1000 C   0  0  0  0  0  0  0  0  0  0  0  0
   -2.5540    4.1340    0.4120 C   0  0  0  0  0  0  0  0  0  0  0  0
   -2.4160    4.6930    1.7510 C   0  0  0  0  0  0  0  0  0  0  0  0
   -1.5920    4.2270    2.5620 O   0  0  0  0  0  0  0  0  0  0  0  0
   -3.1990    5.7550    2.1510 O   0  0  0  0  0  0  0  0  0  0  0  0
   -3.0860    6.3240    3.4550 C   0  0  0  0  0  0  0  0  0  0  0  0
    0.1510    0.4550   -1.3480 C   0  0  0  0  0  0  0  0  0  0  0  0
    0.2590    0.0570   -2.5300 O   0  0  0  0  0  0  0  0  0  0  0  0
    1.2310    1.0700   -0.7440 O   0  0  0  0  0  0  0  0  0  0  0  0
    2.4780    1.2810   -1.3980 C   0  0  1  0  0  0  0  0  0  0  0  0
    2.7830    2.7290   -1.4600 C   0  0  0  0  0  0  0  0  0  0  0  0
    3.9810    3.1870   -2.0710 N   0  0  0  0  0  0  0  0  0  0  0  0
    1.9640    3.5550   -0.9640 O   0  0  0  0  0  0  0  0  0  0  0  0
    3.5370    0.5140   -0.6700 C   0  0  0  0  0  0  0  0  0  0  0  0
    3.2400   -0.1670    0.3450 O   0  0  0  0  0  0  0  0  0  0  0  0
    4.8710    0.5590   -1.1290 N   0  0  0  0  0  0  0  0  0  0  0  0
    6.0840   -0.3280   -0.2840 S   0  0  1  0  0  0  0  0  0  0  0  0
    7.6690   -0.1460   -1.0370 C   0  0  0  0  0  0  0  0  0  0  0  0
    6.1480    0.1280    1.1320 O   0  0  0  0  0  0  0  0  0  0  0  0
    5.7040   -1.7920   -0.3560 O   0  0  0  0  0  0  0  0  0  0  0  0
   -3.1430   -3.7990   -0.0520 C   0  0  0  0  0  0  0  0  0  0  0  0
   -4.1140   -2.8360   -0.6750 C   0  0  0  0  0  0  0  0  0  0  0  0
   -3.4370   -5.0820   -0.0620 C   0  0  0  0  0  0  0  0  0  0  0  0
   -2.6040   -6.1580    0.5060 C   0  0  0  0  0  0  0  0  0  0  0  0
  1  2  2  0
  2  3  1  0
  2 34  1  0
  3  4  2  0
  4  5  1  0
  4 31  1  0
  5  6  1  0
  6  7  2  0
  6  8  1  0
  8  9  1  1
  8 17  1  0
  9 10  1  0
 10 11  1  0
 11 12  1  0
 12 13  1  0
 13 14  2  0
 13 15  1  0
 15 16  1  0
 17 18  2  0
 17 19  1  0
 20 19  1  1
 20 21  1  0
 20 24  1  0
 21 22  1  0
 21 23  2  0
 24 25  2  0
 24 26  1  0
 26 27  1  0
 27 28  1  6
 27 29  2  0
 27 30  2  0
 31 32  1  0
 31 33  2  0
 33 34  1  0
M  END
