
     RDKit          3D

 13 13  0  0  0  0  0  0  0  0999 V2000
    3.2810    1.1020   -0.4150 C   0  0  0  0  0  0  0  0  0  0  0  0
    1.9180    1.1740   -0.6780 O   0  0  0  0  0  0  0  0  0  0  0  0
    1.2360    0.1200   -0.0720 C   0  0  1  0  0  0  0  0  0  0  0  0
    0.4510    0.6610    0.9040 O   0  0  0  0  0  0  0  0  0  0  0  0
   -0.8810    0.7350    0.6450 C   0  0  2  0  0  0  0  0  0  0  0  0
   -1.6750    1.3340    1.7500 C   0  0  0  0  0  0  0  0  0  0  0  0
   -3.0210    1.3510    1.3590 O   0  0  0  0  0  0  0  0  0  0  0  0
   -1.3580   -0.7090    0.4170 C   0  0  1  0  0  0  0  0  0  0  0  0
   -2.7180   -0.8260    0.5310 O   0  0  0  0  0  0  0  0  0  0  0  0
   -0.8430   -1.0290   -0.9700 C   0  0  2  0  0  0  0  0  0  0  0  0
   -1.1740   -2.3380   -1.3400 O   0  0  0  0  0  0  0  0  0  0  0  0
    0.6040   -0.7360   -1.0840 C   0  0  2  0  0  0  0  0  0  0  0  0
    1.2610   -1.9900   -1.1810 O   0  0  0  0  0  0  0  0  0  0  0  0
  1  2  1  0
  3  2  1  6
  3  4  1  0
  3 12  1  0
  4  5  1  0
  5  6  1  1
  5  8  1  0
  6  7  1  0
  8  9  1  6
  8 10  1  0
 10 11  1  1
 10 12  1  0
 12 13  1  1
M  END
