
     RDKit          3D

 19 21  0  0  0  0  0  0  0  0999 V2000
   -3.6550   -2.1490    0.5570 O   0  0  0  0  0  0  0  0  0  0  0  0
   -4.5960   -1.0150    0.7070 S   0  0  2  0  0  0  0  0  0  0  0  0
   -5.7910   -1.3260    1.5400 O   0  0  0  0  0  0  0  0  0  0  0  0
   -5.0430   -0.2790   -0.8520 C   0  0  0  0  0  0  0  0  0  0  0  0
   -4.0660    0.8000   -1.0470 C   0  0  0  0  0  0  0  0  0  0  0  0
   -3.1470    0.9620    0.0740 C   0  0  2  0  0  0  0  0  0  0  0  0
   -1.8190    0.4040   -0.1980 N   0  0  0  0  0  0  0  0  0  0  0  0
   -1.0140    0.2940    0.9770 C   0  0  0  0  0  0  0  0  0  0  0  0
    0.4450    0.4150    0.6900 C   0  0  0  0  0  0  0  0  0  0  0  0
    1.0640    1.6080    0.7060 N   0  0  0  0  0  0  0  0  0  0  0  0
    2.3750    1.7540    0.4530 C   0  0  0  0  0  0  0  0  0  0  0  0
    3.1570    0.6480    0.1570 C   0  0  0  0  0  0  0  0  0  0  0  0
    2.5260   -0.5770    0.1380 C   0  0  0  0  0  0  0  0  0  0  0  0
    1.1900   -0.6670    0.4040 N   0  0  0  0  0  0  0  0  0  0  0  0
    3.2730   -1.8240   -0.1680 C   0  0  0  0  0  0  0  0  0  0  0  0
    4.7550   -1.6040    0.0410 C   0  0  0  0  0  0  0  0  0  0  0  0
    5.1290   -0.4070   -0.8340 C   0  0  0  0  0  0  0  0  0  0  0  0
    4.6160    0.8150   -0.1250 C   0  0  0  0  0  0  0  0  0  0  0  0
   -3.7320    0.4330    1.3380 C   0  0  0  0  0  0  0  0  0  0  0  0
  1  2  2  0
  2  3  2  0
  2  4  1  6
  2 19  1  0
  4  5  1  0
  5  6  1  0
  6  7  1  6
  6 19  1  0
  7  8  1  0
  8  9  1  0
  9 10  2  0
  9 14  1  0
 10 11  1  0
 11 12  2  0
 12 13  1  0
 12 18  1  0
 13 14  2  0
 13 15  1  0
 15 16  1  0
 16 17  1  0
 17 18  1  0
M  CHG  1   7   1
M  END
