
     RDKit          3D

 20 22  0  0  0  0  0  0  0  0999 V2000
   -3.9460   -1.7800   -0.8970 C   0  0  0  0  0  0  0  0  0  0  0  0
   -3.7460   -0.6890    0.0620 N   0  0  0  0  0  0  0  0  0  0  0  0
   -2.4170   -0.1310   -0.1430 C   0  0  1  0  0  0  0  0  0  0  0  0
   -2.4430    1.3370    0.0500 C   0  0  0  0  0  0  0  0  0  0  0  0
   -2.0020    1.8520    1.3910 C   0  0  0  0  0  0  0  0  0  0  0  0
   -0.4960    1.9300    1.3370 C   0  0  0  0  0  0  0  0  0  0  0  0
    0.0730    2.9510    1.7850 O   0  0  0  0  0  0  0  0  0  0  0  0
    0.3610    0.9180    0.8080 N   0  0  0  0  0  0  0  0  0  0  0  0
    0.0020   -0.3470    0.4750 C   0  0  0  0  0  0  0  0  0  0  0  0
    0.8740   -1.2380   -0.0220 N   0  0  0  0  0  0  0  0  0  0  0  0
    2.1510   -0.8560   -0.1940 C   0  0  0  0  0  0  0  0  0  0  0  0
    3.1010   -1.7270   -0.7030 C   0  0  0  0  0  0  0  0  0  0  0  0
    4.3770   -1.2940   -0.8580 C   0  0  0  0  0  0  0  0  0  0  0  0
    4.8110   -0.0240   -0.5410 C   0  0  0  0  0  0  0  0  0  0  0  0
    6.5020    0.5070   -0.7600 S   0  0  0  0  0  0  0  0  0  0  0  0
    3.8760    0.8370   -0.0380 C   0  0  0  0  0  0  0  0  0  0  0  0
    2.5520    0.4250    0.1350 C   0  0  0  0  0  0  0  0  0  0  0  0
    1.6360    1.3260    0.6450 C   0  0  0  0  0  0  0  0  0  0  0  0
    1.9430    2.5020    0.9620 O   0  0  0  0  0  0  0  0  0  0  0  0
   -1.3760   -0.8910    0.6260 C   0  0  0  0  0  0  0  0  0  0  0  0
  1  2  1  0
  3  2  1  1
  3  4  1  0
  3 20  1  0
  4  5  1  0
  5  6  1  0
  6  7  2  0
  6  8  1  0
  8  9  1  0
  8 18  1  0
  9 10  2  0
  9 20  1  0
 10 11  1  0
 11 12  2  0
 11 17  1  0
 12 13  1  0
 13 14  2  0
 14 15  1  0
 14 16  1  0
 16 17  2  0
 17 18  1  0
 18 19  2  0
M  CHG  1   2   1
M  END
