
     RDKit          3D

 20 21  0  0  0  0  0  0  0  0999 V2000
   -4.9990    2.0230   -2.5680 C   0  0  0  0  0  0  0  0  0  0  0  0
   -5.3750    0.6020   -2.2030 C   0  0  0  0  0  0  0  0  0  0  0  0
   -4.8210    0.1660   -0.5320 S   0  0  0  0  0  0  0  0  0  0  0  0
   -3.0520    0.1420   -0.4680 C   0  0  0  0  0  0  0  0  0  0  0  0
   -2.3720   -0.5700    0.4110 C   0  0  0  0  0  0  0  0  0  0  0  0
   -3.0370   -1.3950    1.3990 C   0  0  0  0  0  0  0  0  0  0  0  0
   -4.2830   -1.4690    1.4610 O   0  0  0  0  0  0  0  0  0  0  0  0
   -2.1930   -2.1080    2.2840 N   0  0  0  0  0  0  0  0  0  0  0  0
   -0.9250   -2.0890    2.2880 C   0  0  0  0  0  0  0  0  0  0  0  0
   -0.1240   -1.3050    1.3500 N   0  0  0  0  0  0  0  0  0  0  0  0
    1.2720   -1.4100    1.4080 C   0  0  0  0  0  0  0  0  0  0  0  0
    2.2860   -1.0730    0.7020 C   0  0  0  0  0  0  0  0  0  0  0  0
    2.2300   -0.3870   -0.5620 C   0  0  0  0  0  0  0  0  0  0  0  0
    2.9580    0.7390   -0.6710 C   0  0  0  0  0  0  0  0  0  0  0  0
    3.0230    1.5690   -1.8760 C   0  0  0  0  0  0  0  0  0  0  0  0
    3.7280    1.0750    0.5560 C   0  0  0  0  0  0  0  0  0  0  0  0
    4.4360   -0.1500    1.0980 C   0  0  0  0  0  0  0  0  0  0  0  0
    3.6430   -1.3200    1.1730 N   0  0  0  0  0  0  0  0  0  0  0  0
   -0.8920   -0.5590    0.4300 C   0  0  0  0  0  0  0  0  0  0  0  0
   -0.3580    0.1610   -0.4200 O   0  0  0  0  0  0  0  0  0  0  0  0
  1  2  1  0
  2  3  1  0
  3  4  1  0
  4  5  2  3
  5  6  1  0
  5 19  1  0
  6  7  2  0
  6  8  1  0
  8  9  2  0
  9 10  1  0
 10 11  1  0
 10 19  1  0
 11 12  2  3
 12 13  1  0
 12 18  1  0
 13 14  2  0
 14 15  1  0
 14 16  1  0
 16 17  1  0
 17 18  1  0
 19 20  2  0
M  CHG  1  18   1
M  END
