
     RDKit          3D

 20 21  0  0  0  0  0  0  0  0999 V2000
    4.1870   -2.7630    1.8900 C   0  0  0  0  0  0  0  0  0  0  0  0
    4.4320   -1.5910    1.3680 C   0  0  0  0  0  0  0  0  0  0  0  0
    3.3890   -0.5960    1.2380 C   0  0  0  0  0  0  0  0  0  0  0  0
    3.7500    0.5470    0.6870 C   0  0  0  0  0  0  0  0  0  0  0  0
    1.7500   -0.7520    1.7940 S   0  0  2  0  0  0  0  0  0  0  0  0
    1.2350    0.5890    2.3060 O   0  0  0  0  0  0  0  0  0  0  0  0
    1.8090   -1.5590    3.0970 O   0  0  0  0  0  0  0  0  0  0  0  0
    0.6420   -1.5530    0.7540 C   0  0  0  0  0  0  0  0  0  0  0  0
    0.3250   -1.1080   -0.5840 C   0  0  2  0  0  0  0  0  0  0  0  0
    1.3840   -1.0290   -1.6190 C   0  0  0  0  0  0  0  0  0  0  0  0
    0.9950    0.0640   -2.4740 N   0  0  0  0  0  0  0  0  0  0  0  0
    0.0450    0.7270   -1.9520 C   0  0  0  0  0  0  0  0  0  0  0  0
   -0.6080    1.9160   -2.5490 C   0  0  0  0  0  0  0  0  0  0  0  0
   -1.8360    2.3670   -2.2690 C   0  0  0  0  0  0  0  0  0  0  0  0
   -2.8230    1.8160   -1.3270 C   0  0  0  0  0  0  0  0  0  0  0  0
   -2.5220    1.1330   -0.2380 C   0  0  0  0  0  0  0  0  0  0  0  0
   -3.6950    0.6830    0.5510 C   0  0  0  0  0  0  0  0  0  0  0  0
   -4.9600    1.0580   -0.0120 N   0  0  0  0  0  0  0  0  0  0  0  0
   -1.2010    0.7410    0.3340 C   0  0  0  0  0  0  0  0  0  0  0  0
   -0.3350    0.1730   -0.6750 N   0  0  0  0  0  0  0  0  0  0  0  0
  1  2  2  0
  2  3  1  0
  3  4  2  0
  3  5  1  0
  5  6  2  0
  5  7  2  0
  5  8  1  6
  9  8  1  1
  9 10  1  0
  9 20  1  0
 10 11  1  0
 11 12  2  0
 12 13  1  0
 12 20  1  0
 13 14  2  0
 14 15  1  0
 15 16  2  0
 16 17  1  0
 16 19  1  0
 17 18  1  0
 19 20  1  0
M  CHG  1  18   1
M  END
