
     RDKit          3D

 20 22  0  0  0  0  0  0  0  0999 V2000
   -1.6300   -2.5020    0.1290 C   0  0  0  0  0  0  0  0  0  0  0  0
   -2.1400   -1.1400    0.1950 C   0  0  0  0  0  0  0  0  0  0  0  0
   -3.1260   -0.8830    1.1060 N   0  0  0  0  0  0  0  0  0  0  0  0
   -3.6320    0.3600    1.1950 C   0  0  0  0  0  0  0  0  0  0  0  0
   -4.5490    0.6260    2.0330 O   0  0  0  0  0  0  0  0  0  0  0  0
   -3.1720    1.3420    0.3940 N   0  0  0  0  0  0  0  0  0  0  0  0
   -3.6930    2.7060    0.4570 C   0  0  0  0  0  0  0  0  0  0  0  0
   -2.1920    1.0880   -0.5120 C   0  0  0  0  0  0  0  0  0  0  0  0
   -1.7630    2.0030   -1.2590 O   0  0  0  0  0  0  0  0  0  0  0  0
   -1.6500   -0.1730   -0.6310 C   0  0  0  0  0  0  0  0  0  0  0  0
   -0.5950   -0.4490   -1.5870 C   0  0  0  0  0  0  0  0  0  0  0  0
    0.7800   -0.5100   -0.9070 C   0  0  0  0  0  0  0  0  0  0  0  0
    1.5860    0.4850   -0.6440 N   0  0  0  0  0  0  0  0  0  0  0  0
    2.7320    0.2450   -0.0630 C   0  0  0  0  0  0  0  0  0  0  0  0
    3.7200    1.1740    0.2970 C   0  0  0  0  0  0  0  0  0  0  0  0
    4.8840    0.7870    0.9060 C   0  0  0  0  0  0  0  0  0  0  0  0
    5.1870   -0.5200    1.2150 C   0  0  0  0  0  0  0  0  0  0  0  0
    4.2270   -1.4460    0.8690 C   0  0  0  0  0  0  0  0  0  0  0  0
    3.0330   -1.0270    0.2420 C   0  0  0  0  0  0  0  0  0  0  0  0
    1.6300   -1.9030   -0.3240 S   0  0  0  0  0  0  0  0  0  0  0  0
  1  2  1  0
  2  3  1  0
  2 10  2  0
  3  4  1  0
  4  5  2  0
  4  6  1  0
  6  7  1  0
  6  8  1  0
  8  9  2  0
  8 10  1  0
 10 11  1  0
 11 12  1  0
 12 13  2  0
 12 20  1  0
 13 14  1  0
 14 15  2  0
 14 19  1  0
 15 16  1  0
 16 17  2  0
 17 18  1  0
 18 19  2  0
 19 20  1  0
M  CHG  1  13   1
M  END
