
     RDKit          3D

  7  6  0  0  0  0  0  0  0  0999 V2000
    2.3140    0.2560    0.6450 C   0  0  0  0  0  0  0  0  0  0  0  0
    1.6380   -0.7930   -0.1790 C   0  0  0  0  0  0  0  0  0  0  0  0
    0.4760   -0.3310   -0.8630 N   0  0  0  0  0  0  0  0  0  0  0  0
   -0.5860    0.0480   -0.0070 C   0  0  1  0  0  0  0  0  0  0  0  0
   -0.9980    1.4540   -0.4300 C   0  0  0  0  0  0  0  0  0  0  0  0
   -1.7630   -0.8770   -0.1410 C   0  0  0  0  0  0  0  0  0  0  0  0
   -2.8030   -0.4670    0.7430 O   0  0  0  0  0  0  0  0  0  0  0  0
  1  2  1  0
  2  3  1  0
  3  4  1  0
  4  5  1  6
  4  6  1  0
  6  7  1  0
M  END
