
     RDKit          3D

 20 21  0  0  0  0  0  0  0  0999 V2000
    6.3850   -0.6780    0.3730 C   0  0  0  0  0  0  0  0  0  0  0  0
    5.0490   -0.4070   -0.0150 O   0  0  0  0  0  0  0  0  0  0  0  0
    3.9500   -0.6390    0.7660 C   0  0  0  0  0  0  0  0  0  0  0  0
    4.1140   -1.1250    1.9100 O   0  0  0  0  0  0  0  0  0  0  0  0
    2.6210   -0.3430    0.3170 N   0  0  0  0  0  0  0  0  0  0  0  0
    2.3890    0.2200   -1.0000 C   0  0  0  0  0  0  0  0  0  0  0  0
    1.7140    1.5500   -0.7610 C   0  0  0  0  0  0  0  0  0  0  0  0
    0.4430    1.4370    0.0250 C   0  0  1  0  0  0  0  0  0  0  0  0
   -0.5890    1.0940   -0.9160 O   0  0  0  0  0  0  0  0  0  0  0  0
   -1.9180    0.9150   -0.4720 C   0  0  0  0  0  0  0  0  0  0  0  0
   -2.5840    2.0900   -0.1030 N   0  0  0  0  0  0  0  0  0  0  0  0
   -2.4360   -0.2820   -0.4310 C   0  0  0  0  0  0  0  0  0  0  0  0
   -3.7420   -0.7100   -0.0250 C   0  0  0  0  0  0  0  0  0  0  0  0
   -4.1790   -1.9860   -0.0220 C   0  0  0  0  0  0  0  0  0  0  0  0
   -5.5450   -2.0570    0.4470 C   0  0  0  0  0  0  0  0  0  0  0  0
   -5.9900   -0.8570    0.7420 C   0  0  0  0  0  0  0  0  0  0  0  0
   -4.8770    0.0630    0.4610 C   0  0  0  0  0  0  0  0  0  0  0  0
   -4.9690    1.3100    0.6390 O   0  0  0  0  0  0  0  0  0  0  0  0
    0.4370    0.4590    1.1180 C   0  0  0  0  0  0  0  0  0  0  0  0
    1.4750   -0.5850    1.1320 C   0  0  0  0  0  0  0  0  0  0  0  0
  1  2  1  0
  2  3  1  0
  3  4  2  0
  3  5  1  0
  5  6  1  0
  5 20  1  0
  6  7  1  0
  7  8  1  0
  8  9  1  6
  8 19  1  0
  9 10  1  0
 10 11  1  0
 10 12  2  3
 12 13  1  0
 13 14  2  0
 13 17  1  0
 14 15  1  0
 15 16  2  0
 16 17  1  0
 17 18  2  0
 19 20  1  0
M  END
