
     RDKit          3D

  7  6  0  0  0  0  0  0  0  0999 V2000
   -1.9630   -1.1340   -0.0290 C   0  0  0  0  0  0  0  0  0  0  0  0
   -1.1790   -0.1910   -0.9070 C   0  0  0  0  0  0  0  0  0  0  0  0
    0.0350    0.1660   -0.2870 N   0  0  0  0  0  0  0  0  0  0  0  0
    1.0310   -0.7890   -0.1390 C   0  0  0  0  0  0  0  0  0  0  0  0
    2.2990   -0.2930    0.5160 C   0  0  0  0  0  0  0  0  0  0  0  0
    0.0640    1.3720    0.4410 C   0  0  0  0  0  0  0  0  0  0  0  0
   -0.2280    2.4180   -0.4260 O   0  0  0  0  0  0  0  0  0  0  0  0
  1  2  1  0
  2  3  1  0
  3  4  1  0
  3  6  1  0
  4  5  1  0
  6  7  1  0
M  END
