
     RDKit          3D

  7  6  0  0  0  0  0  0  0  0999 V2000
    2.7850    0.3990    0.1100 C   0  0  0  0  0  0  0  0  0  0  0  0
    1.4980    0.2900   -0.1830 C   0  0  0  0  0  0  0  0  0  0  0  0
    0.9930   -0.8640   -0.9290 C   0  0  0  0  0  0  0  0  0  0  0  0
    0.0240   -1.6110   -0.2160 O   0  0  0  0  0  0  0  0  0  0  0  0
   -1.1570   -1.0220    0.1970 C   0  0  0  0  0  0  0  0  0  0  0  0
   -1.3260    0.2120   -0.0330 N   0  0  0  0  0  0  0  0  0  0  0  0
   -2.4930    0.9790    0.3280 C   0  0  0  0  0  0  0  0  0  0  0  0
  1  2  2  0
  2  3  1  0
  3  4  1  0
  4  5  1  0
  5  6  2  3
  6  7  1  0
M  END
