
     RDKit          3D

  7  6  0  0  0  0  0  0  0  0999 V2000
   -1.0140   -1.2100    0.4040 C   0  0  0  0  0  0  0  0  0  0  0  0
   -0.4910    0.1110    0.1710 N   0  0  1  0  0  0  0  0  0  0  0  0
   -1.0050    0.5640   -1.1060 C   0  0  0  0  0  0  0  0  0  0  0  0
   -1.0670    0.9870    1.1810 C   0  0  0  0  0  0  0  0  0  0  0  0
    0.9280    0.2000    0.2790 C   0  0  0  0  0  0  0  0  0  0  0  0
    1.6750   -0.6970   -0.6710 C   0  0  0  0  0  0  0  0  0  0  0  0
    3.0430   -0.5180   -0.4680 O   0  0  0  0  0  0  0  0  0  0  0  0
  2  1  1  1
  2  3  1  0
  2  4  1  0
  2  5  1  0
  5  6  1  0
  6  7  1  0
M  CHG  1   2   1
M  END
