
     RDKit          3D

 40 43  0  0  0  0  0  0  0  0999 V2000
    1.4660    6.7760    1.2360 C   0  0  0  0  0  0  0  0  0  0  0  0
    1.1950    5.7810    2.3420 C   0  0  0  0  0  0  0  0  0  0  0  0
    0.5770    4.5320    1.8130 C   0  0  0  0  0  0  0  0  0  0  0  0
   -0.7760    4.3120    1.6800 C   0  0  0  0  0  0  0  0  0  0  0  0
   -0.9110    3.0510    1.1620 C   0  0  0  0  0  0  0  0  0  0  0  0
    0.3490    2.5340    0.9920 C   0  0  0  0  0  0  0  0  0  0  0  0
    0.7710    1.2180    0.4690 C   0  0  1  0  0  0  0  0  0  0  0  0
    0.0420    0.1030    0.9310 N   0  0  0  0  0  0  0  0  0  0  0  0
   -1.1820   -0.4990    0.5440 C   0  0  0  0  0  0  0  0  0  0  0  0
   -2.0990   -0.3400    1.4870 O   0  0  0  0  0  0  0  0  0  0  0  0
   -1.5690   -1.2050   -0.6170 N   0  0  0  0  0  0  0  0  0  0  0  0
   -2.7720   -0.6550   -1.2950 C   0  0  0  0  0  0  0  0  0  0  0  0
   -4.0550   -1.2540   -0.8590 C   0  0  2  0  0  0  0  0  0  0  0  0
   -5.1650   -0.3960   -1.5180 C   0  0  0  0  0  0  0  0  0  0  0  0
   -6.1780   -0.2040   -0.4280 C   0  0  0  0  0  0  0  0  0  0  0  0
   -5.7250   -1.2050    0.6120 C   0  0  0  0  0  0  0  0  0  0  0  0
   -4.3340   -1.1220    0.4940 O   0  0  0  0  0  0  0  0  0  0  0  0
   -1.0340   -2.3950   -1.2190 C   0  0  2  0  0  0  0  0  0  0  0  0
   -1.9990   -3.5600   -0.9580 C   0  0  0  0  0  0  0  0  0  0  0  0
   -2.4620   -3.7990    0.3050 C   0  0  0  0  0  0  0  0  0  0  0  0
   -3.2960   -4.8910    0.2230 C   0  0  0  0  0  0  0  0  0  0  0  0
   -3.2900   -5.2570   -1.1060 C   0  0  0  0  0  0  0  0  0  0  0  0
   -2.5040   -4.4300   -1.7500 O   0  0  0  0  0  0  0  0  0  0  0  0
    0.2970   -2.8070   -1.1100 N   0  0  0  0  0  0  0  0  0  0  0  0
    1.4260   -2.6200   -0.2990 C   0  0  0  0  0  0  0  0  0  0  0  0
    1.7380   -3.6010    0.5450 O   0  0  0  0  0  0  0  0  0  0  0  0
    2.3440   -1.5450   -0.1950 N   0  0  0  0  0  0  0  0  0  0  0  0
    3.0600   -0.8450   -1.2100 C   0  0  0  0  0  0  0  0  0  0  0  0
    3.7350    0.3740   -0.7450 C   0  0  0  0  0  0  0  0  0  0  0  0
    4.7550    0.2860    0.0700 C   0  0  0  0  0  0  0  0  0  0  0  0
    5.2100   -1.0210    0.5070 C   0  0  0  0  0  0  0  0  0  0  0  0
    6.2430   -1.1730    1.3380 C   0  0  0  0  0  0  0  0  0  0  0  0
    6.7040   -2.5060    1.7820 C   0  0  0  0  0  0  0  0  0  0  0  0
    6.8570   -0.0420    1.7620 F   0  0  0  0  0  0  0  0  0  0  0  0
    3.3080    1.7000   -1.1700 C   0  0  0  0  0  0  0  0  0  0  0  0
    4.1250    2.6990   -1.1220 O   0  0  0  0  0  0  0  0  0  0  0  0
    2.0000    1.9770   -1.6550 N   0  0  0  0  0  0  0  0  0  0  0  0
    0.8710    1.4020   -1.0050 C   0  0  0  0  0  0  0  0  0  0  0  0
   -0.1180    1.0390   -1.7430 N   0  0  0  0  0  0  0  0  0  0  0  0
    1.1900    3.4540    1.3940 O   0  0  0  0  0  0  0  0  0  0  0  0
  1  2  1  0
  2  3  1  0
  3  4  2  0
  3 40  1  0
  4  5  1  0
  5  6  2  0
  7  6  1  1
  6 40  1  0
  7  8  1  0
  7 38  1  0
  8  9  1  0
  9 10  2  0
  9 11  1  0
 11 12  1  0
 11 18  1  0
 13 12  1  1
 13 14  1  0
 13 17  1  0
 14 15  1  0
 15 16  1  0
 16 17  1  0
 18 19  1  1
 18 24  1  0
 19 20  2  0
 19 23  1  0
 20 21  1  0
 21 22  2  0
 22 23  1  0
 24 25  1  0
 25 26  2  0
 25 27  1  0
 27 28  1  0
 28 29  1  0
 29 30  2  3
 29 35  1  0
 30 31  1  0
 31 32  2  3
 32 33  1  0
 32 34  1  0
 35 36  2  0
 35 37  1  0
 37 38  1  0
 38 39  2  0
M  END
