
     RDKit          3D

 40 43  0  0  0  0  0  0  0  0999 V2000
    0.3070    2.4480    2.3810 C   0  0  0  0  0  0  0  0  0  0  0  0
   -0.3890    2.9850    1.2080 C   0  0  0  0  0  0  0  0  0  0  0  0
   -0.4390    2.4040   -0.0360 N   0  0  0  0  0  0  0  0  0  0  0  0
   -0.5690    1.0430   -0.3580 C   0  0  2  0  0  0  0  0  0  0  0  0
   -1.9600    0.5300   -0.4480 C   0  0  2  0  0  0  0  0  0  0  0  0
   -2.9920    1.1140    0.4370 C   0  0  0  0  0  0  0  0  0  0  0  0
   -4.3280    0.6960   -0.0070 N   0  0  0  0  0  0  0  0  0  0  0  0
   -5.4420    1.5890   -0.1300 C   0  0  2  0  0  0  0  0  0  0  0  0
   -5.1380    2.6440   -1.1860 C   0  0  0  0  0  0  0  0  0  0  0  0
   -5.7680    2.2930    1.1680 C   0  0  0  0  0  0  0  0  0  0  0  0
   -6.9440    3.2290    1.0150 C   0  0  0  0  0  0  0  0  0  0  0  0
   -4.4800   -0.6820   -0.3210 C   0  0  0  0  0  0  0  0  0  0  0  0
   -5.6440   -1.0850   -0.5760 O   0  0  0  0  0  0  0  0  0  0  0  0
   -3.3520   -1.4440   -0.3190 O   0  0  0  0  0  0  0  0  0  0  0  0
   -2.0640   -0.9960   -0.6780 C   0  0  1  0  0  0  0  0  0  0  0  0
   -1.8770   -1.1860   -2.1240 C   0  0  0  0  0  0  0  0  0  0  0  0
   -1.8830   -2.3750   -2.9180 C   0  0  0  0  0  0  0  0  0  0  0  0
   -3.2350   -3.4760   -3.0690 S   0  0  0  0  0  0  0  0  0  0  0  0
   -3.6520   -4.4700   -1.6500 C   0  0  0  0  0  0  0  0  0  0  0  0
   -1.0630   -1.6540    0.2230 C   0  0  2  0  0  0  0  0  0  0  0  0
   -1.0350   -3.1680    0.1700 C   0  0  0  0  0  0  0  0  0  0  0  0
   -1.2500   -1.3990    1.6850 C   0  0  0  0  0  0  0  0  0  0  0  0
   -2.5290   -1.8730    2.2840 C   0  0  0  0  0  0  0  0  0  0  0  0
    0.3420   -1.2650   -0.1480 C   0  0  0  0  0  0  0  0  0  0  0  0
    0.4920    0.1870    0.2690 C   0  0  1  0  0  0  0  0  0  0  0  0
    1.8470    0.5470   -0.3220 C   0  0  0  0  0  0  0  0  0  0  0  0
    1.8570    1.2840   -1.3250 O   0  0  0  0  0  0  0  0  0  0  0  0
    3.0940    0.0760    0.2110 C   0  0  0  0  0  0  0  0  0  0  0  0
    3.1630   -0.6420    1.3780 C   0  0  0  0  0  0  0  0  0  0  0  0
    4.4110   -1.0820    1.8170 C   0  0  0  0  0  0  0  0  0  0  0  0
    5.5730   -0.8130    1.1120 C   0  0  0  0  0  0  0  0  0  0  0  0
    5.5120   -0.0840   -0.0740 C   0  0  0  0  0  0  0  0  0  0  0  0
    4.2650    0.3290   -0.4710 C   0  0  0  0  0  0  0  0  0  0  0  0
    6.7390    0.2000   -0.8430 C   0  0  1  0  0  0  0  0  0  0  0  0
    6.8890   -0.9520   -1.8460 C   0  0  0  0  0  0  0  0  0  0  0  0
    6.5720    1.4910   -1.6360 C   0  0  0  0  0  0  0  0  0  0  0  0
    7.9450    0.2880    0.0310 C   0  0  0  0  0  0  0  0  0  0  0  0
    8.0040   -0.9400    0.8350 N   0  0  0  0  0  0  0  0  0  0  0  0
    6.8620   -1.2700    1.6030 C   0  0  0  0  0  0  0  0  0  0  0  0
    6.9660   -1.9220    2.6500 O   0  0  0  0  0  0  0  0  0  0  0  0
  1  2  1  0
  2  3  1  0
  4  3  1  1
  4  5  1  0
  4 25  1  0
  5  6  1  1
  5 15  1  0
  6  7  1  0
  7  8  1  0
  7 12  1  0
  8  9  1  6
  8 10  1  0
 10 11  1  0
 12 13  2  0
 12 14  1  0
 14 15  1  0
 15 16  1  6
 15 20  1  0
 16 17  1  0
 17 18  1  0
 18 19  1  0
 20 21  1  1
 20 22  1  0
 20 24  1  0
 22 23  1  0
 24 25  1  0
 25 26  1  6
 26 27  2  0
 26 28  1  0
 28 29  2  0
 28 33  1  0
 29 30  1  0
 30 31  2  0
 31 32  1  0
 31 39  1  0
 32 33  2  0
 32 34  1  0
 34 35  1  6
 34 36  1  0
 34 37  1  0
 37 38  1  0
 38 39  1  0
 39 40  2  0
M  CHG  1   3   1
M  END
