
     RDKit          3D

 40 44  0  0  0  0  0  0  0  0999 V2000
   -5.0220    0.8060    0.1720 O   0  0  0  0  0  0  0  0  0  0  0  0
   -5.4760    0.6450    1.3270 C   0  0  0  0  0  0  0  0  0  0  0  0
   -6.3230    1.4370    2.0900 N   0  0  0  0  0  0  0  0  0  0  0  0
   -6.8190    2.6520    1.5530 C   0  0  0  0  0  0  0  0  0  0  0  0
   -5.8500    3.7510    1.2840 C   0  0  1  0  0  0  0  0  0  0  0  0
   -5.0620    4.3870    2.4500 C   0  0  0  0  0  0  0  0  0  0  0  0
   -4.3930    3.4600    1.4290 C   0  0  0  0  0  0  0  0  0  0  0  0
   -5.0020   -0.5630    1.8380 N   0  0  0  0  0  0  0  0  0  0  0  0
   -4.1190   -1.3670    1.1680 C   0  0  0  0  0  0  0  0  0  0  0  0
   -4.1970   -2.5440    1.6910 N   0  0  0  0  0  0  0  0  0  0  0  0
   -3.3190   -3.4300    1.0420 C   0  0  0  0  0  0  0  0  0  0  0  0
   -3.7390   -4.1970    0.0010 C   0  0  0  0  0  0  0  0  0  0  0  0
   -2.8440   -5.0150   -0.6950 C   0  0  0  0  0  0  0  0  0  0  0  0
   -3.2530   -5.7130   -1.6500 O   0  0  0  0  0  0  0  0  0  0  0  0
   -1.5590   -5.0120   -0.2950 N   0  0  0  0  0  0  0  0  0  0  0  0
   -1.1560   -4.2530    0.7320 C   0  0  0  0  0  0  0  0  0  0  0  0
    0.0510   -4.2630    1.0940 O   0  0  0  0  0  0  0  0  0  0  0  0
   -2.0270   -3.4640    1.4040 N   0  0  0  0  0  0  0  0  0  0  0  0
   -3.0600   -1.1990    0.2500 C   0  0  0  0  0  0  0  0  0  0  0  0
   -3.2940   -1.4120   -1.0780 C   0  0  0  0  0  0  0  0  0  0  0  0
   -2.2770   -1.1080   -1.9560 C   0  0  0  0  0  0  0  0  0  0  0  0
   -1.0880   -0.6150   -1.4870 C   0  0  0  0  0  0  0  0  0  0  0  0
   -0.1090   -0.3210   -2.3840 O   0  0  0  0  0  0  0  0  0  0  0  0
    1.1170    0.1500   -1.9840 C   0  0  0  0  0  0  0  0  0  0  0  0
    2.1480   -0.7360   -1.7350 C   0  0  0  0  0  0  0  0  0  0  0  0
    3.3880   -0.3260   -1.3360 C   0  0  0  0  0  0  0  0  0  0  0  0
    3.6810    1.0140   -1.1570 C   0  0  0  0  0  0  0  0  0  0  0  0
    4.9980    1.4890   -0.7440 C   0  0  0  0  0  0  0  0  0  0  0  0
    5.1450    2.6150   -0.2120 O   0  0  0  0  0  0  0  0  0  0  0  0
    6.1490    0.6710   -0.9420 N   0  0  0  0  0  0  0  0  0  0  0  0
    7.4820    1.0800   -0.5480 C   0  0  1  0  0  0  0  0  0  0  0  0
    8.2310    0.0180    0.1750 C   0  0  0  0  0  0  0  0  0  0  0  0
    9.0620   -0.6100   -0.7500 O   0  0  0  0  0  0  0  0  0  0  0  0
    9.2920    0.2400   -1.8000 C   0  0  2  0  0  0  0  0  0  0  0  0
   10.6000    0.7450   -1.6920 F   0  0  0  0  0  0  0  0  0  0  0  0
    8.3510    1.3930   -1.7510 C   0  0  0  0  0  0  0  0  0  0  0  0
    2.6380    1.8910   -1.4100 C   0  0  0  0  0  0  0  0  0  0  0  0
    1.3830    1.4970   -1.8130 C   0  0  0  0  0  0  0  0  0  0  0  0
   -0.8500   -0.4040   -0.1590 C   0  0  0  0  0  0  0  0  0  0  0  0
   -1.8620   -0.7070    0.7000 C   0  0  0  0  0  0  0  0  0  0  0  0
  1  2  2  0
  2  3  1  0
  2  8  1  0
  3  4  1  0
  5  4  1  1
  5  6  1  0
  5  7  1  0
  6  7  1  0
  8  9  1  0
  9 10  2  3
  9 19  1  0
 10 11  1  0
 11 12  2  0
 11 18  1  0
 12 13  1  0
 13 14  2  0
 13 15  1  0
 15 16  1  0
 16 17  2  0
 16 18  1  0
 19 20  2  0
 19 40  1  0
 20 21  1  0
 21 22  2  0
 22 23  1  0
 22 39  1  0
 23 24  1  0
 24 25  2  0
 24 38  1  0
 25 26  1  0
 26 27  2  0
 27 28  1  0
 27 37  1  0
 28 29  2  0
 28 30  1  0
 31 30  1  6
 31 32  1  0
 31 36  1  0
 32 33  1  0
 33 34  1  0
 34 35  1  1
 34 36  1  0
 37 38  2  0
 39 40  2  0
M  END
