
     RDKit          3D

 40 44  0  0  0  0  0  0  0  0999 V2000
    2.3290   -0.1100    2.3580 C   0  0  0  0  0  0  0  0  0  0  0  0
    3.3620   -0.0510    1.3840 N   0  0  0  0  0  0  0  0  0  0  0  0
    4.6810   -0.5230    1.9600 C   0  0  0  0  0  0  0  0  0  0  0  0
    4.8170   -1.9620    1.7780 C   0  0  0  0  0  0  0  0  0  0  0  0
    3.8450   -2.7770    1.1510 N   0  0  0  0  0  0  0  0  0  0  0  0
    5.8570   -2.5270    2.1990 O   0  0  0  0  0  0  0  0  0  0  0  0
    3.3240    0.3410    0.0720 C   0  0  0  0  0  0  0  0  0  0  0  0
    4.5810    0.2720   -0.4590 O   0  0  0  0  0  0  0  0  0  0  0  0
    2.3900    0.8040   -0.9170 C   0  0  0  0  0  0  0  0  0  0  0  0
    2.8980    1.2320   -2.1050 O   0  0  0  0  0  0  0  0  0  0  0  0
    1.9990    1.6270   -2.9190 C   0  0  0  0  0  0  0  0  0  0  0  0
    0.7780    1.4850   -2.3120 C   0  0  0  0  0  0  0  0  0  0  0  0
    1.0700    0.9570   -1.0440 C   0  0  0  0  0  0  0  0  0  0  0  0
   -0.0050    0.6070   -0.1120 C   0  0  2  0  0  0  0  0  0  0  0  0
   -0.0180   -0.6590    0.4690 N   0  0  0  0  0  0  0  0  0  0  0  0
    0.2810   -1.9340   -0.0420 C   0  0  0  0  0  0  0  0  0  0  0  0
    0.7050   -2.1610   -1.3150 C   0  0  0  0  0  0  0  0  0  0  0  0
    0.9940   -3.4140   -1.7910 C   0  0  0  0  0  0  0  0  0  0  0  0
    0.8630   -4.5250   -0.9780 C   0  0  0  0  0  0  0  0  0  0  0  0
    1.1550   -5.7970   -1.4530 C   0  0  0  0  0  0  0  0  0  0  0  0
    1.5720   -5.9740   -2.7220 F   0  0  0  0  0  0  0  0  0  0  0  0
    1.0150   -6.8820   -0.6210 C   0  0  0  0  0  0  0  0  0  0  0  0
    0.5830   -6.6570    0.6790 C   0  0  0  0  0  0  0  0  0  0  0  0
    0.2980   -5.3970    1.1380 C   0  0  0  0  0  0  0  0  0  0  0  0
    0.4330   -4.2850    0.3090 C   0  0  0  0  0  0  0  0  0  0  0  0
    0.1600   -3.0510    0.7420 N   0  0  0  0  0  0  0  0  0  0  0  0
   -1.3480    1.0700   -0.5970 N   0  0  0  0  0  0  0  0  0  0  0  0
   -1.8250    2.1960    0.0610 C   0  0  0  0  0  0  0  0  0  0  0  0
   -1.0870    2.7180    0.9960 O   0  0  0  0  0  0  0  0  0  0  0  0
   -3.0220    2.8780   -0.1390 N   0  0  0  0  0  0  0  0  0  0  0  0
   -3.3400    4.0510    0.6640 C   0  0  0  0  0  0  0  0  0  0  0  0
   -4.4170    4.0790    1.4270 C   0  0  0  0  0  0  0  0  0  0  0  0
   -4.4540    5.3840    2.0980 C   0  0  2  0  0  0  0  0  0  0  0  0
   -5.5760    6.1390    1.7340 O   0  0  0  0  0  0  0  0  0  0  0  0
   -3.2500    6.1050    1.6190 C   0  0  0  0  0  0  0  0  0  0  0  0
   -2.6290    5.2930    0.7840 C   0  0  0  0  0  0  0  0  0  0  0  0
   -1.4350    5.5970    0.1040 O   0  0  0  0  0  0  0  0  0  0  0  0
   -2.0210    0.3310   -1.6000 C   0  0  2  0  0  0  0  0  0  0  0  0
   -2.8350    0.9880   -2.6810 C   0  0  0  0  0  0  0  0  0  0  0  0
   -3.4840    0.1350   -1.6970 C   0  0  0  0  0  0  0  0  0  0  0  0
  1  2  1  0
  2  3  1  0
  2  7  1  0
  3  4  1  0
  4  5  1  0
  4  6  2  0
  7  8  2  0
  7  9  1  0
  9 10  1  0
  9 13  2  0
 10 11  1  0
 11 12  2  0
 12 13  1  0
 13 14  1  0
 14 15  1  6
 14 27  1  0
 15 16  1  0
 16 17  2  0
 16 26  1  0
 17 18  1  0
 18 19  2  0
 19 20  1  0
 19 25  1  0
 20 21  1  0
 20 22  2  0
 22 23  1  0
 23 24  2  0
 24 25  1  0
 25 26  2  0
 27 28  1  0
 38 27  1  1
 28 29  2  0
 28 30  1  0
 30 31  1  0
 31 32  2  0
 31 36  1  0
 32 33  1  0
 33 34  1  6
 33 35  1  0
 35 36  2  0
 36 37  1  0
 38 39  1  0
 38 40  1  0
 39 40  1  0
M  END
