
     RDKit          3D

 40 45  0  0  0  0  0  0  0  0999 V2000
    7.0300    2.6750   -1.4460 C   0  0  0  0  0  0  0  0  0  0  0  0
    6.6660    1.2890   -1.1670 N   0  0  0  0  0  0  0  0  0  0  0  0
    7.8080    0.4120   -1.3750 C   0  0  0  0  0  0  0  0  0  0  0  0
    7.7370   -0.7030   -0.3810 C   0  0  2  0  0  0  0  0  0  0  0  0
    7.8700   -0.1520    1.0460 C   0  0  0  0  0  0  0  0  0  0  0  0
    9.0280    0.6060    1.1420 O   0  0  0  0  0  0  0  0  0  0  0  0
   10.1720   -0.0080    0.7080 C   0  0  0  0  0  0  0  0  0  0  0  0
   10.0270   -0.9450   -0.4410 C   0  0  0  0  0  0  0  0  0  0  0  0
    8.8000   -1.6000   -0.5080 O   0  0  0  0  0  0  0  0  0  0  0  0
    5.3250    0.8060   -2.1470 S   0  0  1  0  0  0  0  0  0  0  0  0
    5.4200    1.4830   -3.4790 O   0  0  0  0  0  0  0  0  0  0  0  0
    5.3840   -0.6910   -2.4120 O   0  0  0  0  0  0  0  0  0  0  0  0
    3.8750    1.1910   -1.3120 N   0  0  0  0  0  0  0  0  0  0  0  0
    3.1560    0.2890   -0.4840 C   0  0  0  0  0  0  0  0  0  0  0  0
    3.7390   -0.5300    0.4580 C   0  0  0  0  0  0  0  0  0  0  0  0
    2.9760   -1.3990    1.2380 C   0  0  0  0  0  0  0  0  0  0  0  0
    1.6060   -1.4790    1.1050 C   0  0  0  0  0  0  0  0  0  0  0  0
    1.0040   -2.3950    1.9540 C   0  0  0  0  0  0  0  0  0  0  0  0
   -0.2850   -2.8800    1.9900 C   0  0  0  0  0  0  0  0  0  0  0  0
   -1.3970   -2.2180    1.4870 C   0  0  0  0  0  0  0  0  0  0  0  0
   -2.5550   -2.6570    2.0100 N   0  0  0  0  0  0  0  0  0  0  0  0
   -3.7020   -2.0970    1.6110 C   0  0  0  0  0  0  0  0  0  0  0  0
   -3.7810   -1.0740    0.6770 C   0  0  0  0  0  0  0  0  0  0  0  0
   -5.0590   -0.5040    0.2900 C   0  0  0  0  0  0  0  0  0  0  0  0
   -5.4320    0.0300   -0.9210 C   0  0  0  0  0  0  0  0  0  0  0  0
   -6.7300    0.4440   -0.8110 N   0  0  0  0  0  0  0  0  0  0  0  0
   -7.1610    0.1880    0.4050 N   0  0  0  0  0  0  0  0  0  0  0  0
   -8.4580    0.4520    0.9670 C   0  0  1  0  0  0  0  0  0  0  0  0
   -8.8100    1.9170    0.8860 C   0  0  0  0  0  0  0  0  0  0  0  0
   -9.3320    2.3610   -0.4390 C   0  0  0  0  0  0  0  0  0  0  0  0
  -10.2620    1.4530   -1.0360 N   0  0  0  0  0  0  0  0  0  0  0  0
   -9.7730    0.0870   -1.0640 C   0  0  0  0  0  0  0  0  0  0  0  0
   -9.5320   -0.3910    0.3290 C   0  0  0  0  0  0  0  0  0  0  0  0
   -6.1490   -0.3970    1.1040 C   0  0  0  0  0  0  0  0  0  0  0  0
   -2.5950   -0.6290    0.1450 C   0  0  0  0  0  0  0  0  0  0  0  0
   -1.4090   -1.1980    0.5480 C   0  0  0  0  0  0  0  0  0  0  0  0
   -0.3440   -0.5980   -0.1110 C   0  0  0  0  0  0  0  0  0  0  0  0
   -0.6170    0.1150   -1.1130 O   0  0  0  0  0  0  0  0  0  0  0  0
    1.0080   -0.6590    0.1600 C   0  0  0  0  0  0  0  0  0  0  0  0
    1.7660    0.1950   -0.6050 C   0  0  0  0  0  0  0  0  0  0  0  0
  1  2  1  0
  2  3  1  0
  2 10  1  0
  4  3  1  6
  4  5  1  0
  4  9  1  0
  5  6  1  0
  6  7  1  0
  7  8  1  0
  8  9  1  0
 10 11  2  0
 10 12  2  0
 10 13  1  1
 13 14  1  0
 14 15  2  0
 14 40  1  0
 15 16  1  0
 16 17  2  0
 17 18  1  0
 17 39  1  0
 18 19  2  0
 19 20  1  0
 20 21  2  0
 20 36  1  0
 21 22  1  0
 22 23  2  0
 23 24  1  0
 23 35  1  0
 24 25  1  0
 24 34  2  0
 25 26  2  0
 26 27  1  0
 28 27  1  6
 27 34  1  0
 28 29  1  0
 28 33  1  0
 29 30  1  0
 30 31  1  0
 31 32  1  0
 32 33  1  0
 35 36  2  0
 36 37  1  0
 37 38  2  0
 37 39  1  0
 39 40  2  0
M  CHG  1  31   1
M  END
