
     RDKit          3D

 40 43  0  0  0  0  0  0  0  0999 V2000
   -7.0020   -2.2710   -1.3410 C   0  0  0  0  0  0  0  0  0  0  0  0
   -6.9060   -1.4170   -2.5790 C   0  0  0  0  0  0  0  0  0  0  0  0
   -5.8120    0.0160   -2.2700 S   0  0  0  0  0  0  0  0  0  0  0  0
   -4.1630   -0.5990   -2.0590 C   0  0  0  0  0  0  0  0  0  0  0  0
   -3.3780   -0.2880   -1.0740 C   0  0  0  0  0  0  0  0  0  0  0  0
   -2.0040   -0.9780   -1.1490 C   0  0  0  0  0  0  0  0  0  0  0  0
   -1.9190   -1.7540    0.0300 O   0  0  0  0  0  0  0  0  0  0  0  0
   -0.7810   -2.5590    0.2820 C   0  0  0  0  0  0  0  0  0  0  0  0
    0.0930   -2.4870   -0.6050 O   0  0  0  0  0  0  0  0  0  0  0  0
   -0.6890   -3.3800    1.4720 C   0  0  0  0  0  0  0  0  0  0  0  0
   -1.7720   -3.4730    2.3560 C   0  0  0  0  0  0  0  0  0  0  0  0
   -1.7340   -4.3220    3.4330 C   0  0  0  0  0  0  0  0  0  0  0  0
   -0.6160   -5.1090    3.6700 C   0  0  0  0  0  0  0  0  0  0  0  0
    0.4620   -5.0270    2.8090 C   0  0  0  0  0  0  0  0  0  0  0  0
    0.4080   -4.1470    1.7040 C   0  0  0  0  0  0  0  0  0  0  0  0
    1.5960   -4.0060    0.8790 C   0  0  0  0  0  0  0  0  0  0  0  0
    2.0240   -5.0560    0.2870 O   0  0  0  0  0  0  0  0  0  0  0  0
    2.3210   -2.8190    0.6830 N   0  0  0  0  0  0  0  0  0  0  0  0
    3.5110   -2.6890   -0.1630 C   0  0  2  0  0  0  0  0  0  0  0  0
    4.6870   -2.8930    0.8050 C   0  0  0  0  0  0  0  0  0  0  0  0
    5.4520   -1.6220    0.8580 C   0  0  0  0  0  0  0  0  0  0  0  0
    5.0340   -0.8060   -0.3500 C   0  0  2  0  0  0  0  0  0  0  0  0
    5.0110    0.5820    0.1220 N   0  0  0  0  0  0  0  0  0  0  0  0
    6.3530    0.9630    0.5410 C   0  0  0  0  0  0  0  0  0  0  0  0
    6.4830    2.4730    0.5370 C   0  0  0  0  0  0  0  0  0  0  0  0
    6.5010    2.9970   -0.8820 C   0  0  1  0  0  0  0  0  0  0  0  0
    7.9320    2.9460   -1.4050 C   0  0  0  0  0  0  0  0  0  0  0  0
    5.6370    2.0700   -1.7210 C   0  0  2  0  0  0  0  0  0  0  0  0
    4.9940    2.8560   -2.6880 O   0  0  0  0  0  0  0  0  0  0  0  0
    4.5130    1.4520   -0.8930 C   0  0  0  0  0  0  0  0  0  0  0  0
    3.6860   -1.3300   -0.7090 C   0  0  0  0  0  0  0  0  0  0  0  0
   -3.6440    0.6230    0.0380 C   0  0  1  0  0  0  0  0  0  0  0  0
   -2.5870    1.7260    0.1370 C   0  0  0  0  0  0  0  0  0  0  0  0
   -4.9220    1.0010    0.3990 N   0  0  0  0  0  0  0  0  0  0  0  0
   -5.5600    2.2280    0.1520 C   0  0  1  0  0  0  0  0  0  0  0  0
   -5.8990    3.0350    1.4120 C   0  0  0  0  0  0  0  0  0  0  0  0
   -4.9840    4.1360    1.6960 C   0  0  0  0  0  0  0  0  0  0  0  0
   -4.3950    4.7870    0.7190 C   0  0  0  0  0  0  0  0  0  0  0  0
   -4.6200    4.4470   -0.6790 C   0  0  0  0  0  0  0  0  0  0  0  0
   -5.1590    3.0930   -0.9720 C   0  0  0  0  0  0  0  0  0  0  0  0
  1  2  1  0
  2  3  1  0
  3  4  1  0
  4  5  2  3
  5  6  1  0
  5 32  1  0
  6  7  1  0
  7  8  1  0
  8  9  2  0
  8 10  1  0
 10 11  2  0
 10 15  1  0
 11 12  1  0
 12 13  2  0
 13 14  1  0
 14 15  2  0
 15 16  1  0
 16 17  2  0
 16 18  1  0
 19 18  1  1
 19 20  1  0
 19 31  1  0
 20 21  1  0
 21 22  1  0
 22 23  1  1
 22 31  1  0
 23 24  1  0
 23 30  1  0
 24 25  1  0
 25 26  1  0
 26 27  1  6
 26 28  1  0
 28 29  1  6
 28 30  1  0
 32 33  1  6
 32 34  1  0
 35 34  1  1
 35 36  1  0
 35 40  1  0
 36 37  1  0
 37 38  2  0
 38 39  1  0
 39 40  1  0
M  CHG  1  34   1
M  END
