
     RDKit          3D

 39 43  0  0  0  0  0  0  0  0999 V2000
   -3.6540   -5.0260    3.0490 C   0  0  0  0  0  0  0  0  0  0  0  0
   -3.6040   -4.1100    1.9280 N   0  0  0  0  0  0  0  0  0  0  0  0
   -3.6930   -2.7160    2.1550 C   0  0  0  0  0  0  0  0  0  0  0  0
   -4.0470   -2.3100    3.2820 O   0  0  0  0  0  0  0  0  0  0  0  0
   -3.3450   -1.8610    0.9930 C   0  0  1  0  0  0  0  0  0  0  0  0
   -3.3090   -0.4770    1.3040 N   0  0  0  0  0  0  0  0  0  0  0  0
   -4.1260    0.4800    0.6610 C   0  0  0  0  0  0  0  0  0  0  0  0
   -4.9550    0.1570   -0.2480 O   0  0  0  0  0  0  0  0  0  0  0  0
   -4.0680    1.9240    1.0070 C   0  0  0  0  0  0  0  0  0  0  0  0
   -5.0140    2.7480    0.2020 C   0  0  1  0  0  0  0  0  0  0  0  0
   -6.3090    2.2690    0.4600 O   0  0  0  0  0  0  0  0  0  0  0  0
   -4.9630    4.1730    0.7250 C   0  0  0  0  0  0  0  0  0  0  0  0
   -5.7480    5.0560   -0.1900 C   0  0  0  0  0  0  0  0  0  0  0  0
   -6.6730    4.3200   -1.1140 C   0  0  0  0  0  0  0  0  0  0  0  0
   -5.9950    3.2790   -1.9530 C   0  0  0  0  0  0  0  0  0  0  0  0
   -4.7140    2.7970   -1.2590 C   0  0  0  0  0  0  0  0  0  0  0  0
   -2.0840   -2.4310    0.4010 C   0  0  2  0  0  0  0  0  0  0  0  0
   -1.2460   -1.3670   -0.7610 S   0  0  0  0  0  0  0  0  0  0  0  0
   -0.5450    0.1170   -0.0610 C   0  0  1  0  0  0  0  0  0  0  0  0
    0.5780   -0.1770    0.9120 C   0  0  0  0  0  0  0  0  0  0  0  0
    1.8920   -0.3920    0.1490 C   0  0  0  0  0  0  0  0  0  0  0  0
    2.3810    0.9480   -0.3690 C   0  0  1  0  0  0  0  0  0  0  0  0
    3.1350    0.8270   -1.5920 N   0  0  0  0  0  0  0  0  0  0  0  0
    4.1770   -0.1690   -1.5160 C   0  0  0  0  0  0  0  0  0  0  0  0
    5.2680    0.1770   -0.5460 C   0  0  1  0  0  0  0  0  0  0  0  0
    6.2770   -0.9600   -0.5830 C   0  0  0  0  0  0  0  0  0  0  0  0
    7.4360   -0.7230    0.3450 C   0  0  0  0  0  0  0  0  0  0  0  0
    8.1280    0.5720   -0.0010 C   0  0  0  0  0  0  0  0  0  0  0  0
    7.1470    1.7030   -0.0310 C   0  0  1  0  0  0  0  0  0  0  0  0
    6.7040    2.0360    1.3770 C   0  0  0  0  0  0  0  0  0  0  0  0
    7.8790    2.9240   -0.5690 C   0  0  0  0  0  0  0  0  0  0  0  0
    5.9680    1.4530   -0.9270 C   0  0  0  0  0  0  0  0  0  0  0  0
    1.1630    1.8260   -0.6760 C   0  0  0  0  0  0  0  0  0  0  0  0
    0.0970    0.9140   -1.2020 C   0  0  0  0  0  0  0  0  0  0  0  0
   -2.4350   -3.7780   -0.2020 C   0  0  1  0  0  0  0  0  0  0  0  0
   -1.2450   -4.6830   -0.3080 C   0  0  0  0  0  0  0  0  0  0  0  0
   -1.8690   -6.0540   -0.4510 C   0  0  0  0  0  0  0  0  0  0  0  0
   -3.0150   -5.9930    0.5510 C   0  0  0  0  0  0  0  0  0  0  0  0
   -3.4650   -4.5430    0.5500 C   0  0  1  0  0  0  0  0  0  0  0  0
  1  2  1  0
  2  3  1  0
  2 39  1  0
  3  4  2  0
  3  5  1  0
  5  6  1  1
  5 17  1  0
  6  7  1  0
  7  8  2  0
  7  9  1  0
  9 10  1  0
 10 11  1  6
 10 12  1  0
 10 16  1  0
 12 13  1  0
 13 14  1  0
 14 15  1  0
 15 16  1  0
 17 18  1  6
 17 35  1  0
 19 18  1  6
 19 20  1  0
 19 34  1  0
 20 21  1  0
 21 22  1  0
 22 23  1  6
 22 33  1  0
 23 24  1  0
 25 24  1  6
 25 26  1  0
 25 32  1  0
 26 27  1  0
 27 28  1  0
 28 29  1  0
 29 30  1  1
 29 31  1  0
 29 32  1  0
 33 34  1  0
 35 36  1  1
 35 39  1  0
 36 37  1  0
 37 38  1  0
 39 38  1  1
M  CHG  1  23   1
M  END
