
     RDKit          3D

 22 23  0  0  0  0  0  0  0  0999 V2000
    7.1570    1.6170    0.3180 N   0  0  0  0  0  0  0  0  0  0  0  0
    5.9910    1.0380    0.1450 C   0  0  0  0  0  0  0  0  0  0  0  0
    5.7030   -0.4600   -0.1920 C   0  0  0  0  0  0  0  0  0  0  0  0
    4.5040   -0.6460   -0.2560 C   0  0  0  0  0  0  0  0  0  0  0  0
    3.3730    0.0560   -0.0620 C   0  0  0  0  0  0  0  0  0  0  0  0
    2.0290   -0.1720   -0.1550 C   0  0  0  0  0  0  0  0  0  0  0  0
    1.1210    0.7680   -0.4270 O   0  0  0  0  0  0  0  0  0  0  0  0
    1.2080   -1.6410    0.2160 N   0  0  0  0  0  0  0  0  0  0  0  0
    0.0370   -1.4320   -0.5410 C   0  0  0  0  0  0  0  0  0  0  0  0
   -0.0680   -1.0310   -1.6140 O   0  0  0  0  0  0  0  0  0  0  0  0
   -1.1020   -1.9460    0.3450 N   0  0  0  0  0  0  0  0  0  0  0  0
   -2.3870   -2.1000   -0.3160 C   0  0  0  0  0  0  0  0  0  0  0  0
   -3.1660   -0.8610   -0.1840 C   0  0  0  0  0  0  0  0  0  0  0  0
   -3.4860   -0.0510   -1.1860 C   0  0  0  0  0  0  0  0  0  0  0  0
   -4.1410    1.1450   -1.0350 C   0  0  0  0  0  0  0  0  0  0  0  0
   -4.5250    1.4900    0.2840 C   0  0  0  0  0  0  0  0  0  0  0  0
   -5.1060    2.7570    0.5220 N   0  0  0  0  0  0  0  0  0  0  0  0
   -5.5570    3.0390    1.6240 O   0  0  0  0  0  0  0  0  0  0  0  0
   -5.1910    3.6990   -0.4840 O   0  0  0  0  0  0  0  0  0  0  0  0
   -4.1880    0.6520    1.3430 C   0  0  0  0  0  0  0  0  0  0  0  0
   -3.5140   -0.5150    1.1300 C   0  0  0  0  0  0  0  0  0  0  0  0
    4.2930    1.5530    0.2950 S   0  0  0  0  0  0  0  0  0  0  0  0
  1  2  1  0
  2  3  2  0
  2 22  1  0
  3  4  1  0
  4  5  2  0
  5  6  1  0
  5 22  1  0
  6  7  2  0
  6  8  1  0
  8  9  1  0
  9 10  2  0
  9 11  1  0
 11 12  1  0
 12 13  1  0
 13 14  2  0
 13 21  1  0
 14 15  1  0
 15 16  2  0
 16 17  1  0
 16 20  1  0
 17 18  2  0
 17 19  1  0
 20 21  2  0
M  CHG  2  17   1  19  -1
M  END
