
     RDKit          3D

 23 24  0  0  0  0  0  0  0  0999 V2000
   -5.8320    2.1350    0.6080 N   0  0  0  0  0  0  0  0  0  0  0  0
   -5.4030    0.8330    0.2510 C   0  0  0  0  0  0  0  0  0  0  0  0
   -6.2350    0.0360   -0.2310 O   0  0  0  0  0  0  0  0  0  0  0  0
   -4.0030    0.4990    0.4710 C   0  0  0  0  0  0  0  0  0  0  0  0
   -2.8000    1.5800    1.1390 S   0  0  0  0  0  0  0  0  0  0  0  0
   -1.4470    0.3470    1.0360 C   0  0  0  0  0  0  0  0  0  0  0  0
   -2.0440   -0.7600    0.5060 C   0  0  0  0  0  0  0  0  0  0  0  0
   -1.2160   -2.0170    0.2910 C   0  0  0  0  0  0  0  0  0  0  0  0
    0.1560   -1.8330    0.6460 N   0  0  0  0  0  0  0  0  0  0  0  0
    1.0220   -0.9040   -0.0500 C   0  0  0  0  0  0  0  0  0  0  0  0
    0.5180   -0.2640   -0.9910 O   0  0  0  0  0  0  0  0  0  0  0  0
    2.3590   -0.7350    0.3150 N   0  0  0  0  0  0  0  0  0  0  0  0
    3.2910    0.1190   -0.2700 C   0  0  0  0  0  0  0  0  0  0  0  0
    3.0010    0.9470   -1.3220 C   0  0  0  0  0  0  0  0  0  0  0  0
    3.9580    1.8050   -1.9000 C   0  0  0  0  0  0  0  0  0  0  0  0
    5.2260    1.8090   -1.3890 C   0  0  0  0  0  0  0  0  0  0  0  0
    5.5460    1.0000   -0.3480 C   0  0  0  0  0  0  0  0  0  0  0  0
    4.5920    0.1480    0.2260 C   0  0  0  0  0  0  0  0  0  0  0  0
    5.0290   -0.6270    1.2760 O   0  0  0  0  0  0  0  0  0  0  0  0
   -3.3390   -0.6880    0.2180 C   0  0  0  0  0  0  0  0  0  0  0  0
   -4.1010   -1.7850   -0.3480 N   0  0  0  0  0  0  0  0  0  0  0  0
   -4.4310   -2.7760    0.3000 O   0  0  0  0  0  0  0  0  0  0  0  0
   -4.4300   -1.6330   -1.6790 O   0  0  0  0  0  0  0  0  0  0  0  0
  1  2  1  0
  2  3  2  0
  2  4  1  0
  4  5  1  0
  4 20  2  0
  5  6  1  0
  6  7  2  0
  7  8  1  0
  7 20  1  0
  8  9  1  0
  9 10  1  0
 10 11  2  0
 10 12  1  0
 12 13  1  0
 13 14  2  0
 13 18  1  0
 14 15  1  0
 15 16  2  0
 16 17  1  0
 17 18  2  0
 18 19  1  0
 20 21  1  0
 21 22  2  0
 21 23  1  0
M  CHG  2  21   1  23  -1
M  END
