
     RDKit          3D

 14 15  0  0  0  0  0  0  0  0999 V2000
   -0.9280    1.0550    1.3840 N   0  0  0  0  0  0  0  0  0  0  0  0
   -0.3390   -0.2500    1.1850 C   0  0  2  0  0  0  0  0  0  0  0  0
    1.1280   -0.1560    1.4480 C   0  0  0  0  0  0  0  0  0  0  0  0
    1.8100   -0.6500    0.2770 N   0  0  0  0  0  0  0  0  0  0  0  0
    3.1410   -0.4010   -0.0650 C   0  0  0  0  0  0  0  0  0  0  0  0
    3.6310   -0.8980   -1.1350 O   0  0  0  0  0  0  0  0  0  0  0  0
    4.0100    0.3740    0.6930 O   0  0  0  0  0  0  0  0  0  0  0  0
    0.8600   -1.4400   -0.4600 C   0  0  0  0  0  0  0  0  0  0  0  0
   -0.4290   -0.7370   -0.2280 C   0  0  1  0  0  0  0  0  0  0  0  0
   -1.6050   -1.6680   -0.4460 C   0  0  0  0  0  0  0  0  0  0  0  0
   -2.3690   -1.1060   -1.4680 O   0  0  0  0  0  0  0  0  0  0  0  0
   -2.2480    0.2710   -1.1910 C   0  0  2  0  0  0  0  0  0  0  0  0
   -2.8390    1.0650   -2.1200 O   0  0  0  0  0  0  0  0  0  0  0  0
   -0.7140    0.3650   -1.2130 C   0  0  0  0  0  0  0  0  0  0  0  0
  2  1  1  6
  2  3  1  0
  2  9  1  0
  3  4  1  0
  4  5  1  0
  4  8  1  0
  5  6  2  0
  5  7  1  0
  9  8  1  6
  9 10  1  0
  9 14  1  0
 10 11  1  0
 11 12  1  0
 12 13  1  6
 12 14  1  0
M  END
