
     RDKit          3D

 23 24  0  0  0  0  0  0  0  0999 V2000
   -6.7580   -1.1570    0.3360 C   0  0  0  0  0  0  0  0  0  0  0  0
   -6.2090   -0.7150   -0.8860 N   0  0  0  0  0  0  0  0  0  0  0  0
   -5.1620   -0.0800   -1.1270 C   0  0  0  0  0  0  0  0  0  0  0  0
   -4.4490    0.2530    0.0130 N   0  0  0  0  0  0  0  0  0  0  0  0
   -3.0560    0.1300    0.1370 C   0  0  0  0  0  0  0  0  0  0  0  0
   -2.5780   -0.4270   -0.8650 O   0  0  0  0  0  0  0  0  0  0  0  0
   -2.3560    0.6060    1.3190 C   0  0  0  0  0  0  0  0  0  0  0  0
   -0.9460    0.2940    1.2120 N   0  0  0  0  0  0  0  0  0  0  0  0
   -0.0990    0.7830    0.1850 C   0  0  0  0  0  0  0  0  0  0  0  0
   -0.6190    1.5310   -0.6770 O   0  0  0  0  0  0  0  0  0  0  0  0
    1.3130    0.4540    0.1010 C   0  0  0  0  0  0  0  0  0  0  0  0
    2.1530    0.9150   -0.8840 C   0  0  0  0  0  0  0  0  0  0  0  0
    3.4130    0.4240   -0.6780 C   0  0  0  0  0  0  0  0  0  0  0  0
    4.6170    0.5780   -1.3680 C   0  0  0  0  0  0  0  0  0  0  0  0
    5.7560   -0.0380   -0.9360 C   0  0  0  0  0  0  0  0  0  0  0  0
    6.9370    0.1440   -1.6570 O   0  0  0  0  0  0  0  0  0  0  0  0
    5.7120   -0.8180    0.1930 C   0  0  0  0  0  0  0  0  0  0  0  0
    6.8720   -1.4350    0.6200 O   0  0  0  0  0  0  0  0  0  0  0  0
    4.5040   -0.9710    0.8840 C   0  0  0  0  0  0  0  0  0  0  0  0
    3.3430   -0.3490    0.4520 C   0  0  0  0  0  0  0  0  0  0  0  0
    2.0700   -0.3150    0.9010 N   0  0  0  0  0  0  0  0  0  0  0  0
   -5.2200    0.5420   -2.8370 S   0  0  0  0  0  0  0  0  0  0  0  0
   -4.4940    2.0380   -3.0650 O   0  0  0  0  0  0  0  0  0  0  0  0
  1  2  1  0
  2  3  2  3
  3  4  1  0
  3 22  1  0
  4  5  1  0
  5  6  2  0
  5  7  1  0
  7  8  1  0
  8  9  1  0
  9 10  2  0
  9 11  1  0
 11 12  2  0
 11 21  1  0
 12 13  1  0
 13 14  2  0
 13 20  1  0
 14 15  1  0
 15 16  1  0
 15 17  2  0
 17 18  1  0
 17 19  1  0
 19 20  2  0
 20 21  1  0
 22 23  1  0
M  CHG  1  23  -1
M  END
