
     RDKit          3D

 23 23  0  0  0  0  0  0  0  0999 V2000
   -3.7500    2.8670   -1.0400 C   0  0  0  0  0  0  0  0  0  0  0  0
   -4.2750    1.6760   -0.8020 C   0  0  0  0  0  0  0  0  0  0  0  0
   -3.4210    0.5790   -0.4110 C   0  0  0  0  0  0  0  0  0  0  0  0
   -2.0500    0.6890   -0.5590 C   0  0  0  0  0  0  0  0  0  0  0  0
   -1.1890   -0.3200   -0.1810 C   0  0  0  0  0  0  0  0  0  0  0  0
    0.2790   -0.1740   -0.3040 C   0  0  0  0  0  0  0  0  0  0  0  0
    0.9640   -1.1060   -0.7630 O   0  0  0  0  0  0  0  0  0  0  0  0
    0.9110    1.0250    0.1060 N   0  0  0  0  0  0  0  0  0  0  0  0
    2.2960    1.2890    0.0540 C   0  0  0  0  0  0  0  0  0  0  0  0
    2.8240    2.7750    0.5990 S   0  0  0  0  0  0  0  0  0  0  0  0
    3.2710    0.4030   -0.4250 N   0  0  0  0  0  0  0  0  0  0  0  0
    4.6160    0.7830   -0.4110 N   0  0  0  0  0  0  0  0  0  0  0  0
    5.5710   -0.0740    0.1810 C   0  0  0  0  0  0  0  0  0  0  0  0
    5.1830   -1.1600    0.6740 O   0  0  0  0  0  0  0  0  0  0  0  0
    6.9340    0.2310    0.2440 O   0  0  0  0  0  0  0  0  0  0  0  0
    7.8040   -0.7130    0.8620 C   0  0  0  0  0  0  0  0  0  0  0  0
   -1.7310   -1.4540    0.3540 C   0  0  0  0  0  0  0  0  0  0  0  0
   -3.1160   -1.5930    0.5180 C   0  0  0  0  0  0  0  0  0  0  0  0
   -3.6430   -2.7760    1.0980 N   0  0  0  0  0  0  0  0  0  0  0  0
   -2.8680   -3.3830    1.8930 O   0  0  0  0  0  0  0  0  0  0  0  0
   -4.8610   -3.3120    0.8960 O   0  0  0  0  0  0  0  0  0  0  0  0
   -3.9750   -0.5830    0.1380 C   0  0  0  0  0  0  0  0  0  0  0  0
   -5.4170   -0.7630    0.3180 C   0  0  0  0  0  0  0  0  0  0  0  0
  1  2  2  0
  2  3  1  0
  3  4  2  0
  3 22  1  0
  4  5  1  0
  5  6  1  0
  5 17  2  0
  6  7  2  0
  6  8  1  0
  8  9  1  0
  9 10  2  0
  9 11  1  0
 11 12  1  0
 12 13  1  0
 13 14  2  0
 13 15  1  0
 15 16  1  0
 17 18  1  0
 18 19  1  0
 18 22  2  0
 19 20  2  0
 19 21  1  0
 22 23  1  0
M  CHG  2  19   1  21  -1
M  END
