
     RDKit          3D

 14 14  0  0  0  0  0  0  0  0999 V2000
   -2.7180   -2.5290    0.0890 C   0  0  0  0  0  0  0  0  0  0  0  0
   -2.3980   -1.1750   -0.0540 O   0  0  0  0  0  0  0  0  0  0  0  0
   -1.1190   -0.6660   -0.0160 C   0  0  0  0  0  0  0  0  0  0  0  0
   -0.0500   -1.5190    0.1760 C   0  0  0  0  0  0  0  0  0  0  0  0
    1.2280   -1.0030    0.2140 C   0  0  0  0  0  0  0  0  0  0  0  0
    2.3210   -1.9180    0.4150 N   0  0  0  0  0  0  0  0  0  0  0  0
    1.4320    0.3440    0.0620 C   0  0  0  0  0  0  0  0  0  0  0  0
    2.7900    0.8590    0.1060 C   0  0  0  0  0  0  0  0  0  0  0  0
    3.7330    0.0530    0.2820 O   0  0  0  0  0  0  0  0  0  0  0  0
    3.0750    2.2060   -0.0390 O   0  0  0  0  0  0  0  0  0  0  0  0
    0.3650    1.2300   -0.1340 C   0  0  0  0  0  0  0  0  0  0  0  0
   -0.9010    0.6890   -0.1670 C   0  0  0  0  0  0  0  0  0  0  0  0
   -1.9850    1.5660   -0.3630 O   0  0  0  0  0  0  0  0  0  0  0  0
   -1.7960    2.9380   -0.5190 C   0  0  0  0  0  0  0  0  0  0  0  0
  1  2  1  0
  2  3  1  0
  3  4  2  0
  3 12  1  0
  4  5  1  0
  5  6  1  0
  5  7  2  0
  7  8  1  0
  7 11  1  0
  8  9  2  0
  8 10  1  0
 11 12  2  0
 12 13  1  0
 13 14  1  0
M  END
