
     RDKit          3D

 26 27  0  0  0  0  0  0  0  0999 V2000
    3.2640    0.7920    1.1330 O   0  0  0  0  0  0  0  0  0  0  0  0
    3.2170   -0.1900    0.3510 C   0  0  0  0  0  0  0  0  0  0  0  0
    2.1520   -0.1540   -0.6160 N   0  0  0  0  0  0  0  0  0  0  0  0
    1.2390    0.9560   -0.6340 C   0  0  0  0  0  0  0  0  0  0  0  0
   -0.0370    0.6900   -0.4410 C   0  0  0  0  0  0  0  0  0  0  0  0
   -1.0170    1.7740   -0.4460 C   0  0  0  0  0  0  0  0  0  0  0  0
   -0.7240    3.0890   -0.6400 C   0  0  0  0  0  0  0  0  0  0  0  0
   -1.6900    4.0900   -0.6370 C   0  0  0  0  0  0  0  0  0  0  0  0
   -2.9880    3.7140   -0.4280 C   0  0  0  0  0  0  0  0  0  0  0  0
   -3.3140    2.3900   -0.2290 C   0  0  0  0  0  0  0  0  0  0  0  0
   -2.3530    1.4100   -0.2340 C   0  0  0  0  0  0  0  0  0  0  0  0
   -2.6520    0.0980   -0.0390 O   0  0  0  0  0  0  0  0  0  0  0  0
   -3.8620   -0.5240    0.1880 C   0  0  1  0  0  0  0  0  0  0  0  0
   -4.1840   -1.4890   -0.9400 C   0  0  0  0  0  0  0  0  0  0  0  0
   -5.4860   -1.3100   -1.4080 O   0  0  0  0  0  0  0  0  0  0  0  0
   -6.4290   -1.3130   -0.3930 C   0  0  0  0  0  0  0  0  0  0  0  0
   -6.0440   -2.2550    0.6800 C   0  0  0  0  0  0  0  0  0  0  0  0
   -6.8540   -3.1810    0.9430 O   0  0  0  0  0  0  0  0  0  0  0  0
   -4.8800   -2.2440    1.4460 O   0  0  0  0  0  0  0  0  0  0  0  0
   -3.9080   -1.2330    1.5300 C   0  0  0  0  0  0  0  0  0  0  0  0
    4.1380   -1.2610    0.4050 N   0  0  0  0  0  0  0  0  0  0  0  0
    5.2130   -1.3070    1.3590 C   0  0  0  0  0  0  0  0  0  0  0  0
    6.1170   -0.1240    1.1220 C   0  0  0  0  0  0  0  0  0  0  0  0
    6.6230   -0.2700   -0.3220 C   0  0  0  0  0  0  0  0  0  0  0  0
    7.2960   -1.4780   -0.3720 O   0  0  0  0  0  0  0  0  0  0  0  0
    7.7920   -1.7530   -1.5420 O   0  0  0  0  0  0  0  0  0  0  0  0
  1  2  2  0
  2  3  1  0
  2 21  1  0
  3  4  1  0
  4  5  2  3
  5  6  1  0
  6  7  2  0
  6 11  1  0
  7  8  1  0
  8  9  2  0
  9 10  1  0
 10 11  2  0
 11 12  1  0
 13 12  1  6
 13 14  1  0
 13 20  1  0
 14 15  1  0
 15 16  1  0
 16 17  1  0
 17 18  2  0
 17 19  1  0
 19 20  1  0
 21 22  1  0
 22 23  1  0
 23 24  1  0
 24 25  1  0
 25 26  1  0
M  END
