
     RDKit          3D

 25 26  0  0  0  0  0  0  0  0999 V2000
   -5.1150    1.8810   -1.9620 C   0  0  0  0  0  0  0  0  0  0  0  0
   -4.2200    2.2270   -0.9110 O   0  0  0  0  0  0  0  0  0  0  0  0
   -3.9960    1.3340    0.1680 C   0  0  0  0  0  0  0  0  0  0  0  0
   -4.1780    0.1300    0.0220 N   0  0  0  0  0  0  0  0  0  0  0  0
   -4.1250   -1.0880    0.6540 C   0  0  0  0  0  0  0  0  0  0  0  0
   -3.1960   -2.0490    0.5480 C   0  0  0  0  0  0  0  0  0  0  0  0
   -2.0390   -2.0640   -0.2290 N   0  0  0  0  0  0  0  0  0  0  0  0
   -0.7580   -1.4110   -0.0700 C   0  0  2  0  0  0  0  0  0  0  0  0
    0.3060   -2.4930   -0.4080 C   0  0  0  0  0  0  0  0  0  0  0  0
    0.7940   -3.0120    0.9050 C   0  0  0  0  0  0  0  0  0  0  0  0
   -0.0400   -2.2350    1.8960 C   0  0  0  0  0  0  0  0  0  0  0  0
   -0.3870   -1.1090    1.2060 O   0  0  0  0  0  0  0  0  0  0  0  0
   -0.5090   -0.3110   -1.0750 C   0  0  0  0  0  0  0  0  0  0  0  0
    0.3220    0.8280   -0.5850 C   0  0  1  0  0  0  0  0  0  0  0  0
    1.4250    1.1090   -1.3280 O   0  0  0  0  0  0  0  0  0  0  0  0
    2.6370    1.1890   -0.7500 C   0  0  0  0  0  0  0  0  0  0  0  0
    3.0260   -0.1000   -0.0980 C   0  0  0  0  0  0  0  0  0  0  0  0
    4.3840   -0.0140    0.5650 C   0  0  0  0  0  0  0  0  0  0  0  0
    5.4440    0.3190   -0.4420 C   0  0  0  0  0  0  0  0  0  0  0  0
    6.7090    0.3900    0.1850 O   0  0  0  0  0  0  0  0  0  0  0  0
    7.5610    0.6860   -0.7830 O   0  0  0  0  0  0  0  0  0  0  0  0
   -0.5720    2.1000   -0.4400 C   0  0  0  0  0  0  0  0  0  0  0  0
   -1.4620    1.7600    0.7320 C   0  0  0  0  0  0  0  0  0  0  0  0
   -2.3330    2.7440    1.1190 O   0  0  0  0  0  0  0  0  0  0  0  0
   -3.5380    2.0540    1.4120 C   0  0  0  0  0  0  0  0  0  0  0  0
  1  2  1  0
  2  3  1  0
  3  4  2  0
  3 25  1  0
  4  5  1  0
  5  6  2  0
  6  7  1  0
  7  8  1  0
  8  9  1  6
  8 12  1  0
  8 13  1  0
  9 10  1  0
 10 11  1  0
 11 12  1  0
 13 14  1  0
 14 15  1  6
 14 22  1  0
 15 16  1  0
 16 17  1  0
 17 18  1  0
 18 19  1  0
 19 20  1  0
 20 21  1  0
 22 23  1  0
 23 24  1  0
 24 25  1  0
M  END
