
     RDKit          3D

 16 16  0  0  0  0  0  0  0  0999 V2000
   -0.1180    4.0730    0.8310 O   0  0  0  0  0  0  0  0  0  0  0  0
   -0.1300    2.8390    0.5810 C   0  0  0  0  0  0  0  0  0  0  0  0
    1.1710    2.1890    0.2800 C   0  0  0  0  0  0  0  0  0  0  0  0
    0.9570    1.0830   -0.5430 O   0  0  0  0  0  0  0  0  0  0  0  0
    1.6380   -0.0400   -0.0780 C   0  0  2  0  0  0  0  0  0  0  0  0
    2.9840    0.0020   -0.3610 O   0  0  0  0  0  0  0  0  0  0  0  0
    3.6730   -0.0170    0.7370 O   0  0  0  0  0  0  0  0  0  0  0  0
    4.9010   -0.4480    0.5520 O   0  0  0  0  0  0  0  0  0  0  0  0
    1.0490   -1.1570   -0.7080 O   0  0  0  0  0  0  0  0  0  0  0  0
    0.0670   -1.7090    0.1340 C   0  0  0  0  0  0  0  0  0  0  0  0
   -1.0890   -2.2620   -0.6300 C   0  0  0  0  0  0  0  0  0  0  0  0
   -2.0870   -1.3470   -0.8970 O   0  0  0  0  0  0  0  0  0  0  0  0
   -2.7070   -0.8310    0.2070 C   0  0  0  0  0  0  0  0  0  0  0  0
   -2.8560    0.6650   -0.0180 C   0  0  0  0  0  0  0  0  0  0  0  0
   -1.5620    1.1370   -0.3140 O   0  0  0  0  0  0  0  0  0  0  0  0
   -1.2640    2.0690    0.5710 O   0  0  0  0  0  0  0  0  0  0  0  0
  1  2  2  0
  2  3  1  0
  2 16  1  0
  3  4  1  0
  4  5  1  0
  5  6  1  6
  5  9  1  0
  6  7  1  0
  7  8  1  0
  9 10  1  0
 10 11  1  0
 11 12  1  0
 12 13  1  0
 13 14  1  0
 14 15  1  0
 15 16  1  0
M  END
