
     RDKit          3D

 25 26  0  0  0  0  0  0  0  0999 V2000
    5.0420    1.2430   -1.8860 C   0  0  0  0  0  0  0  0  0  0  0  0
    5.5440    1.1040   -0.6770 C   0  0  0  0  0  0  0  0  0  0  0  0
    7.0110    1.2290   -0.5080 C   0  0  0  0  0  0  0  0  0  0  0  0
    7.2210    2.3000    0.3810 O   0  0  0  0  0  0  0  0  0  0  0  0
    4.7220    0.8390    0.4720 C   0  0  0  0  0  0  0  0  0  0  0  0
    5.1600    0.7000    1.6420 O   0  0  0  0  0  0  0  0  0  0  0  0
    3.3420    0.7270    0.2850 O   0  0  0  0  0  0  0  0  0  0  0  0
    2.4420    0.4690    1.3380 C   0  0  0  0  0  0  0  0  0  0  0  0
    1.0790    0.4170    0.7770 C   0  0  0  0  0  0  0  0  0  0  0  0
    0.3280   -0.7120    0.8920 C   0  0  0  0  0  0  0  0  0  0  0  0
   -0.9850   -0.7120    0.3320 C   0  0  0  0  0  0  0  0  0  0  0  0
   -1.8450   -1.7140    0.3530 C   0  0  0  0  0  0  0  0  0  0  0  0
   -1.5050   -2.9790    0.9820 C   0  0  0  0  0  0  0  0  0  0  0  0
   -0.2810   -3.1580    1.6370 O   0  0  0  0  0  0  0  0  0  0  0  0
   -2.3410   -4.0300    0.9670 C   0  0  0  0  0  0  0  0  0  0  0  0
   -3.5970   -3.9770    0.3450 N   0  0  0  0  0  0  0  0  0  0  0  0
   -3.9770   -2.7700   -0.2800 C   0  0  0  0  0  0  0  0  0  0  0  0
   -5.1240   -2.7680   -0.8320 O   0  0  0  0  0  0  0  0  0  0  0  0
   -3.1220   -1.5900   -0.3010 N   0  0  0  0  0  0  0  0  0  0  0  0
   -3.6430   -0.4380   -0.8400 C   0  0  0  0  0  0  0  0  0  0  0  0
   -4.7950   -0.6430   -1.4940 O   0  0  0  0  0  0  0  0  0  0  0  0
   -3.3060    0.9730   -0.9010 C   0  0  2  0  0  0  0  0  0  0  0  0
   -3.3380    1.7680    0.3930 C   0  0  0  0  0  0  0  0  0  0  0  0
   -3.9090    2.9320   -0.4330 C   0  0  0  0  0  0  0  0  0  0  0  0
   -4.5620    1.8590   -1.2780 C   0  0  0  0  0  0  0  0  0  0  0  0
  1  2  2  0
  2  3  1  0
  2  5  1  0
  3  4  1  0
  5  6  2  0
  5  7  1  0
  7  8  1  0
  8  9  1  0
  9 10  2  3
 10 11  1  0
 11 12  2  3
 12 13  1  0
 12 19  1  0
 13 14  1  0
 13 15  2  0
 15 16  1  0
 16 17  1  0
 17 18  2  0
 17 19  1  0
 19 20  1  0
 20 21  2  0
 22 20  1  1
 22 23  1  0
 22 25  1  0
 23 24  1  0
 24 25  1  0
M  END
