
     RDKit          3D

 14 13  0  0  0  0  0  0  0  0999 V2000
   -4.7750   -0.8690    0.7960 O   0  0  0  0  0  0  0  0  0  0  0  0
   -3.7740   -0.1490    0.5150 C   0  0  0  0  0  0  0  0  0  0  0  0
   -3.9790    1.1760    0.1880 O   0  0  0  0  0  0  0  0  0  0  0  0
   -2.3920   -0.7590    0.5480 C   0  0  0  0  0  0  0  0  0  0  0  0
   -1.4340    0.3130    0.1790 C   0  0  0  0  0  0  0  0  0  0  0  0
    0.0190   -0.0890    0.1690 C   0  0  2  0  0  0  0  0  0  0  0  0
    0.9080    1.0840   -0.2210 C   0  0  0  0  0  0  0  0  0  0  0  0
    2.5490    0.5940   -0.2110 P   0  0  0  0  0  0  0  0  0  0  0  0
    2.9150   -1.0650   -0.2050 O   0  0  0  0  0  0  0  0  0  0  0  0
    3.7730    1.6650    0.0810 O   0  0  0  0  0  0  0  0  0  0  0  0
    2.8080    0.5340   -1.7150 O   0  0  0  0  0  0  0  0  0  0  0  0
    0.1900   -1.2570   -0.7000 C   0  0  0  0  0  0  0  0  0  0  0  0
    0.8200   -1.1630   -1.7840 O   0  0  0  0  0  0  0  0  0  0  0  0
   -0.3160   -2.5090   -0.3950 O   0  0  0  0  0  0  0  0  0  0  0  0
  1  2  2  0
  2  3  1  0
  2  4  1  0
  4  5  1  0
  6  5  1  6
  6  7  1  0
  6 12  1  0
  7  8  1  0
  8  9  1  0
  8 10  1  0
  8 11  1  0
 12 13  2  0
 12 14  1  0
M  END
