
     RDKit          3D

 25 26  0  0  0  0  0  0  0  0999 V2000
   -3.5050    2.9020   -1.5380 C   0  0  0  0  0  0  0  0  0  0  0  0
   -3.1880    1.8720   -0.4180 C   0  0  2  0  0  0  0  0  0  0  0  0
   -3.7630    2.6030    0.8520 C   0  0  0  0  0  0  0  0  0  0  0  0
   -1.7630    1.7870   -0.3230 C   0  0  0  0  0  0  0  0  0  0  0  0
   -0.8500    0.8390   -0.3100 C   0  0  0  0  0  0  0  0  0  0  0  0
    0.5550    1.2820   -0.1800 C   0  0  0  0  0  0  0  0  0  0  0  0
    1.6430    0.4720   -0.1030 C   0  0  0  0  0  0  0  0  0  0  0  0
    2.9350    1.0780    0.0230 C   0  0  0  0  0  0  0  0  0  0  0  0
    2.8430    2.4160   -0.2150 O   0  0  0  0  0  0  0  0  0  0  0  0
    4.2310    0.7670    0.3170 N   0  0  0  0  0  0  0  0  0  0  0  0
    4.8790   -0.3970    0.8500 C   0  0  0  0  0  0  0  0  0  0  0  0
    5.2670    1.8520    0.0110 C   0  0  0  0  0  0  0  0  0  0  0  0
    1.3560   -0.9340   -0.1790 C   0  0  0  0  0  0  0  0  0  0  0  0
    0.1290   -1.3830   -0.2850 C   0  0  0  0  0  0  0  0  0  0  0  0
   -0.1260   -2.7340   -0.3310 O   0  0  0  0  0  0  0  0  0  0  0  0
    0.8870   -3.6730   -0.2440 C   0  0  0  0  0  0  0  0  0  0  0  0
    0.7290   -4.9130   -0.2840 O   0  0  0  0  0  0  0  0  0  0  0  0
    2.1980   -3.1700   -0.0970 O   0  0  0  0  0  0  0  0  0  0  0  0
    2.4370   -1.9220   -0.5940 C   0  0  0  0  0  0  0  0  0  0  0  0
   -1.0470   -0.5500   -0.3620 N   0  0  0  0  0  0  0  0  0  0  0  0
   -2.3430   -1.1010   -0.4660 C   0  0  0  0  0  0  0  0  0  0  0  0
   -3.0270   -1.6480    0.7090 C   0  0  0  0  0  0  0  0  0  0  0  0
   -2.3400   -2.7610    1.3980 C   0  0  0  0  0  0  0  0  0  0  0  0
   -1.5380   -2.5060    2.3470 O   0  0  0  0  0  0  0  0  0  0  0  0
   -2.5190   -4.0920    1.0680 O   0  0  0  0  0  0  0  0  0  0  0  0
  2  1  1  6
  2  3  1  0
  2  4  1  0
  4  5  2  3
  5  6  1  0
  5 20  1  0
  6  7  2  0
  7  8  1  0
  7 13  1  0
  8  9  2  0
  8 10  1  0
 10 11  1  0
 10 12  1  0
 13 14  2  0
 13 19  1  0
 14 15  1  0
 14 20  1  0
 15 16  1  0
 16 17  2  0
 16 18  1  0
 18 19  1  0
 20 21  1  0
 21 22  1  0
 22 23  1  0
 23 24  2  0
 23 25  1  0
M  END
