
     RDKit          3D

 16 16  0  0  0  0  0  0  0  0999 V2000
    2.1750    1.7430   -0.1660 O   0  0  0  0  0  0  0  0  0  0  0  0
    3.0460    1.0640    0.4250 C   0  0  0  0  0  0  0  0  0  0  0  0
    4.4080    1.4650    0.3800 O   0  0  0  0  0  0  0  0  0  0  0  0
    2.6710   -0.0590    1.1090 O   0  0  0  0  0  0  0  0  0  0  0  0
    1.4020   -0.5690    1.2340 C   0  0  0  0  0  0  0  0  0  0  0  0
    0.7140   -1.0320   -0.0200 C   0  0  2  0  0  0  0  0  0  0  0  0
    0.5290   -0.0130   -0.9630 O   0  0  0  0  0  0  0  0  0  0  0  0
   -0.7050    0.5940   -1.1060 C   0  0  0  0  0  0  0  0  0  0  0  0
   -0.9470    1.2430   -2.1350 O   0  0  0  0  0  0  0  0  0  0  0  0
   -1.7420    0.4900   -0.0620 C   0  0  1  0  0  0  0  0  0  0  0  0
   -3.0520    0.3870   -0.7450 C   0  0  0  0  0  0  0  0  0  0  0  0
   -3.4770    1.2670   -1.5470 O   0  0  0  0  0  0  0  0  0  0  0  0
   -3.8650   -0.7090   -0.5110 O   0  0  0  0  0  0  0  0  0  0  0  0
   -1.5740   -0.6420    0.7550 O   0  0  0  0  0  0  0  0  0  0  0  0
   -0.6270   -1.5800    0.3840 C   0  0  0  0  0  0  0  0  0  0  0  0
   -0.7980   -2.8220    0.3600 O   0  0  0  0  0  0  0  0  0  0  0  0
  1  2  2  0
  2  3  1  0
  2  4  1  0
  4  5  1  0
  6  5  1  1
  6  7  1  0
  6 15  1  0
  7  8  1  0
  8  9  2  0
  8 10  1  0
 10 11  1  6
 10 14  1  0
 11 12  2  0
 11 13  1  0
 14 15  1  0
 15 16  2  0
M  END
