
     RDKit          3D

 16 16  0  0  0  0  0  0  0  0999 V2000
    3.6150   -0.8150    1.0820 O   0  0  0  0  0  0  0  0  0  0  0  0
    4.4140   -0.0070    0.5140 C   0  0  0  0  0  0  0  0  0  0  0  0
    5.5710    0.3000    1.2070 O   0  0  0  0  0  0  0  0  0  0  0  0
    4.1330    0.5380   -0.7460 O   0  0  0  0  0  0  0  0  0  0  0  0
    2.9320    0.1770   -1.3890 C   0  0  0  0  0  0  0  0  0  0  0  0
    1.7760    0.5630   -0.5610 C   0  0  0  0  0  0  0  0  0  0  0  0
    1.9200    1.1320    0.5510 O   0  0  0  0  0  0  0  0  0  0  0  0
    0.4780    0.3100   -0.9840 O   0  0  0  0  0  0  0  0  0  0  0  0
   -0.5510    0.6720   -0.2100 O   0  0  0  0  0  0  0  0  0  0  0  0
   -1.6550   -0.1550   -0.5120 C   0  0  1  0  0  0  0  0  0  0  0  0
   -2.0060   -0.8900    0.7370 C   0  0  0  0  0  0  0  0  0  0  0  0
   -2.9180   -0.0880    1.5050 O   0  0  0  0  0  0  0  0  0  0  0  0
   -4.0210    0.3750    0.8040 C   0  0  0  0  0  0  0  0  0  0  0  0
   -5.0600    0.8490    1.3200 O   0  0  0  0  0  0  0  0  0  0  0  0
   -3.9290    0.2850   -0.6740 C   0  0  0  0  0  0  0  0  0  0  0  0
   -2.6340    0.6510   -1.0230 O   0  0  0  0  0  0  0  0  0  0  0  0
  1  2  2  0
  2  3  1  0
  2  4  1  0
  4  5  1  0
  5  6  1  0
  6  7  2  0
  6  8  1  0
  8  9  1  0
 10  9  1  1
 10 11  1  0
 10 16  1  0
 11 12  1  0
 12 13  1  0
 13 14  2  0
 13 15  1  0
 15 16  1  0
M  END
