
     RDKit          3D

 27 29  0  0  0  0  0  0  0  0999 V2000
    6.2990   -2.9690    0.9100 C   0  0  0  0  0  0  0  0  0  0  0  0
    5.8350   -1.6360    0.7660 O   0  0  0  0  0  0  0  0  0  0  0  0
    4.4870   -1.3030    0.7150 C   0  0  0  0  0  0  0  0  0  0  0  0
    3.5920   -2.1750    0.2930 C   0  0  0  0  0  0  0  0  0  0  0  0
    2.1600   -1.8330    0.2320 C   0  0  0  0  0  0  0  0  0  0  0  0
    1.6690   -0.6830    0.5800 C   0  0  0  0  0  0  0  0  0  0  0  0
    0.3280   -0.1880    0.5830 C   0  0  0  0  0  0  0  0  0  0  0  0
   -0.1920    0.7890    0.8940 O   0  0  0  0  0  0  0  0  0  0  0  0
   -0.7510   -1.3860   -0.0580 N   0  0  0  0  0  0  0  0  0  0  0  0
   -1.9330   -0.6080    0.0440 C   0  0  0  0  0  0  0  0  0  0  0  0
   -2.2050    0.4260    0.5060 O   0  0  0  0  0  0  0  0  0  0  0  0
   -3.0230   -1.3560   -0.6220 N   0  0  0  0  0  0  0  0  0  0  0  0
   -4.3550   -0.9280   -0.7090 C   0  0  2  0  0  0  0  0  0  0  0  0
   -5.1380   -1.5160   -1.8590 C   0  0  0  0  0  0  0  0  0  0  0  0
   -4.8030   -0.0430   -1.8350 C   0  0  1  0  0  0  0  0  0  0  0  0
   -6.0220    0.8100   -1.5470 C   0  0  1  0  0  0  0  0  0  0  0  0
   -5.7680    1.5860   -0.2790 C   0  0  0  0  0  0  0  0  0  0  0  0
   -5.8710    3.0230   -0.7160 C   0  0  0  0  0  0  0  0  0  0  0  0
   -6.7190    2.9940   -1.8060 O   0  0  0  0  0  0  0  0  0  0  0  0
   -6.1330    1.9470   -2.5640 C   0  0  0  0  0  0  0  0  0  0  0  0
    2.6230    0.2590    1.0370 O   0  0  0  0  0  0  0  0  0  0  0  0
    3.9860   -0.0020    1.1150 C   0  0  0  0  0  0  0  0  0  0  0  0
    4.7910    0.9520    1.5500 C   0  0  0  0  0  0  0  0  0  0  0  0
    6.1700    0.9080    1.6970 N   0  0  0  0  0  0  0  0  0  0  0  0
    6.8730    2.0760    2.1930 C   0  0  0  0  0  0  0  0  0  0  0  0
    8.2760    1.9950    2.3150 N   0  0  0  0  0  0  0  0  0  0  0  0
    6.2130    3.0990    2.4860 O   0  0  0  0  0  0  0  0  0  0  0  0
  1  2  1  0
  2  3  1  0
  3  4  2  0
  3 22  1  0
  4  5  1  0
  5  6  2  0
  6  7  1  0
  6 21  1  0
  7  8  2  0
  7  9  1  0
  9 10  1  0
 10 11  2  0
 10 12  1  0
 13 12  1  6
 13 14  1  0
 13 15  1  0
 15 14  1  6
 15 16  1  0
 16 17  1  1
 16 20  1  0
 17 18  1  0
 18 19  1  0
 19 20  1  0
 21 22  1  0
 22 23  2  3
 23 24  1  0
 24 25  1  0
 25 26  1  0
 25 27  2  0
M  END
