
     RDKit          3D

 27 28  0  0  0  0  0  0  0  0999 V2000
   -3.7870   -0.0570   -1.4510 C   0  0  0  0  0  0  0  0  0  0  0  0
   -4.9240    0.3640   -0.9580 C   0  0  0  0  0  0  0  0  0  0  0  0
   -5.9540    0.8090   -1.9200 C   0  0  0  0  0  0  0  0  0  0  0  0
   -7.0680    1.2220   -1.4500 N   0  0  0  0  0  0  0  0  0  0  0  0
   -5.2320    0.4080    0.4860 C   0  0  1  0  0  0  0  0  0  0  0  0
   -6.3110   -0.4640    0.7770 O   0  0  0  0  0  0  0  0  0  0  0  0
   -4.0540   -0.0130    1.3060 C   0  0  2  0  0  0  0  0  0  0  0  0
   -2.9700    1.0280    1.1940 C   0  0  0  0  0  0  0  0  0  0  0  0
   -1.7200    0.2800    1.4620 N   0  0  0  0  0  0  0  0  0  0  0  0
   -0.5690    0.6550    0.8000 C   0  0  0  0  0  0  0  0  0  0  0  0
   -0.6010    1.6500   -0.0240 O   0  0  0  0  0  0  0  0  0  0  0  0
    0.7140    0.0100    0.9530 C   0  0  0  0  0  0  0  0  0  0  0  0
    0.8800   -0.9650    1.7080 O   0  0  0  0  0  0  0  0  0  0  0  0
    1.8820    0.4690    0.2280 N   0  0  0  0  0  0  0  0  0  0  0  0
    3.1780   -0.1820    0.3820 C   0  0  1  0  0  0  0  0  0  0  0  0
    3.4840   -0.8170   -0.9190 C   0  0  0  0  0  0  0  0  0  0  0  0
    4.5670   -0.4810   -1.6000 C   0  0  0  0  0  0  0  0  0  0  0  0
    4.8590   -1.1070   -2.8720 N   0  0  0  0  0  0  0  0  0  0  0  0
    5.5390    0.5120   -1.1590 C   0  0  0  0  0  0  0  0  0  0  0  0
    6.6530    0.8130   -1.9290 O   0  0  0  0  0  0  0  0  0  0  0  0
    7.9260    0.4720   -1.4060 C   0  0  0  0  0  0  0  0  0  0  0  0
    5.3030    1.1110    0.0090 C   0  0  0  0  0  0  0  0  0  0  0  0
    4.1520    0.8140    0.8230 C   0  0  0  0  0  0  0  0  0  0  0  0
    3.9450    1.3880    1.9210 O   0  0  0  0  0  0  0  0  0  0  0  0
   -1.8670   -0.7720    2.4040 C   0  0  0  0  0  0  0  0  0  0  0  0
   -2.6790   -1.8660    1.6880 C   0  0  0  0  0  0  0  0  0  0  0  0
   -3.6850   -1.2910    0.9800 O   0  0  0  0  0  0  0  0  0  0  0  0
  1  2  2  0
  2  3  1  0
  2  5  1  0
  3  4  2  0
  5  6  1  6
  5  7  1  0
  7  8  1  6
  7 27  1  0
  8  9  1  0
  9 10  1  0
  9 25  1  0
 10 11  2  0
 10 12  1  0
 12 13  2  0
 12 14  1  0
 15 14  1  6
 15 16  1  0
 15 23  1  0
 16 17  2  0
 17 18  1  0
 17 19  1  0
 19 20  1  0
 19 22  2  0
 20 21  1  0
 22 23  1  0
 23 24  2  0
 25 26  1  0
 26 27  1  0
M  END
