
     RDKit          3D

 27 28  0  0  0  0  0  0  0  0999 V2000
    4.7820   -2.3970   -0.5590 C   0  0  0  0  0  0  0  0  0  0  0  0
    4.2000   -1.1930   -0.2400 O   0  0  0  0  0  0  0  0  0  0  0  0
    2.9050   -1.0010    0.3350 C   0  0  0  0  0  0  0  0  0  0  0  0
    2.2080   -2.1170    0.3090 C   0  0  0  0  0  0  0  0  0  0  0  0
    0.8320   -2.3840    0.7990 C   0  0  0  0  0  0  0  0  0  0  0  0
   -0.0800   -1.6770   -0.1930 C   0  0  1  0  0  0  0  0  0  0  0  0
    0.1160   -2.2700   -1.4970 N   0  0  0  0  0  0  0  0  0  0  0  0
   -1.4210   -1.6720    0.1400 O   0  0  0  0  0  0  0  0  0  0  0  0
   -2.1110   -0.4890    0.3390 C   0  0  0  0  0  0  0  0  0  0  0  0
   -3.3030   -0.5930    0.9020 C   0  0  0  0  0  0  0  0  0  0  0  0
   -3.8240   -1.9240    1.2780 C   0  0  0  0  0  0  0  0  0  0  0  0
   -3.1250   -2.9360    1.0580 O   0  0  0  0  0  0  0  0  0  0  0  0
   -4.1990    0.5540    1.2040 C   0  0  0  0  0  0  0  0  0  0  0  0
   -3.8970    1.6020    0.1560 C   0  0  0  0  0  0  0  0  0  0  0  0
   -2.4520    1.9730    0.3980 C   0  0  0  0  0  0  0  0  0  0  0  0
   -1.5220    0.8400   -0.0710 C   0  0  2  0  0  0  0  0  0  0  0  0
   -1.3820    0.9970   -1.4710 N   0  0  0  0  0  0  0  0  0  0  0  0
   -0.2670    0.8320   -2.3130 C   0  0  0  0  0  0  0  0  0  0  0  0
   -0.5670    0.3190   -3.4470 O   0  0  0  0  0  0  0  0  0  0  0  0
    1.1260    1.1550   -2.0670 C   0  0  0  0  0  0  0  0  0  0  0  0
    1.8960    0.7740   -3.0480 O   0  0  0  0  0  0  0  0  0  0  0  0
    1.8000    1.7760   -1.0250 N   0  0  0  0  0  0  0  0  0  0  0  0
    2.1870    1.4550    0.3050 C   0  0  0  0  0  0  0  0  0  0  0  0
    2.0530    2.5850    1.2680 C   0  0  0  0  0  0  0  0  0  0  0  0
    1.5880    3.8320    0.8160 N   0  0  0  0  0  0  0  0  0  0  0  0
    2.3590    2.4180    2.4860 O   0  0  0  0  0  0  0  0  0  0  0  0
    2.6320    0.3200    0.8120 C   0  0  0  0  0  0  0  0  0  0  0  0
  1  2  1  0
  2  3  1  0
  3  4  2  0
  3 27  1  0
  4  5  1  0
  5  6  1  0
  6  7  1  6
  6  8  1  0
  8  9  1  0
  9 10  2  0
  9 16  1  0
 10 11  1  0
 10 13  1  0
 11 12  2  0
 13 14  1  0
 14 15  1  0
 16 15  1  6
 16 17  1  0
 17 18  1  0
 18 19  2  0
 18 20  1  0
 20 21  2  0
 20 22  1  0
 22 23  1  0
 23 24  1  0
 23 27  2  0
 24 25  1  0
 24 26  2  0
M  END
