
     RDKit          3D

 27 28  0  0  0  0  0  0  0  0999 V2000
    3.2500   -4.2000    1.6460 C   0  0  0  0  0  0  0  0  0  0  0  0
    2.0700   -3.3690    2.0990 C   0  0  0  0  0  0  0  0  0  0  0  0
    1.7490   -2.2850    1.1580 C   0  0  0  0  0  0  0  0  0  0  0  0
    1.7790   -1.0320    1.5320 C   0  0  0  0  0  0  0  0  0  0  0  0
    1.4800    0.1210    0.6890 C   0  0  0  0  0  0  0  0  0  0  0  0
    1.5560    1.3370    1.2030 C   0  0  0  0  0  0  0  0  0  0  0  0
    1.9370    1.4180    2.6060 N   0  0  0  0  0  0  0  0  0  0  0  0
    1.3490    2.5660    0.5370 N   0  0  0  0  0  0  0  0  0  0  0  0
    0.2990    3.0370   -0.2710 C   0  0  0  0  0  0  0  0  0  0  0  0
    0.4310    3.6140   -1.4700 C   0  0  0  0  0  0  0  0  0  0  0  0
   -0.8750    3.9870   -2.0350 C   0  0  0  0  0  0  0  0  0  0  0  0
   -1.7830    3.5430   -0.9630 C   0  0  0  0  0  0  0  0  0  0  0  0
   -1.1130    2.9990    0.0420 C   0  0  0  0  0  0  0  0  0  0  0  0
   -1.6740    2.4340    1.2870 C   0  0  0  0  0  0  0  0  0  0  0  0
   -2.5480    3.1480    1.8640 O   0  0  0  0  0  0  0  0  0  0  0  0
   -1.3390    1.2060    1.8810 N   0  0  0  0  0  0  0  0  0  0  0  0
   -1.4000   -0.0750    1.3450 N   0  0  0  0  0  0  0  0  0  0  0  0
   -1.8350   -0.4980    0.0850 C   0  0  0  0  0  0  0  0  0  0  0  0
   -2.7950   -1.3640    0.0490 O   0  0  0  0  0  0  0  0  0  0  0  0
   -1.3530   -0.0970   -1.2380 C   0  0  2  0  0  0  0  0  0  0  0  0
   -1.6590   -1.1400   -2.2790 C   0  0  0  0  0  0  0  0  0  0  0  0
   -0.7390   -1.4950   -3.0400 O   0  0  0  0  0  0  0  0  0  0  0  0
   -2.9020   -1.6850   -2.3950 O   0  0  0  0  0  0  0  0  0  0  0  0
   -3.2250   -2.6650   -3.3600 C   0  0  0  0  0  0  0  0  0  0  0  0
   -0.0320    0.2650   -1.3570 O   0  0  0  0  0  0  0  0  0  0  0  0
    1.0940   -0.1330   -0.6990 C   0  0  0  0  0  0  0  0  0  0  0  0
    1.9400   -0.8240   -1.3800 O   0  0  0  0  0  0  0  0  0  0  0  0
  1  2  1  0
  2  3  1  0
  3  4  2  3
  4  5  1  0
  5  6  2  0
  5 26  1  0
  6  7  1  0
  6  8  1  0
  8  9  1  0
  9 10  2  0
  9 13  1  0
 10 11  1  0
 11 12  1  0
 12 13  2  0
 13 14  1  0
 14 15  2  0
 14 16  1  0
 16 17  1  0
 17 18  1  0
 18 19  2  0
 18 20  1  0
 20 21  1  6
 20 25  1  0
 21 22  2  0
 21 23  1  0
 23 24  1  0
 25 26  1  0
 26 27  2  0
M  END
