
     RDKit          3D

 27 29  0  0  0  0  0  0  0  0999 V2000
   -4.9400   -1.7980    0.6060 C   0  0  0  0  0  0  0  0  0  0  0  0
   -4.4270   -0.5850    0.7260 C   0  0  0  0  0  0  0  0  0  0  0  0
   -5.0720    0.5510    0.1340 N   0  0  0  0  0  0  0  0  0  0  0  0
   -4.4900    1.8340    0.2850 C   0  0  0  0  0  0  0  0  0  0  0  0
   -3.3750    2.0140    0.9530 C   0  0  0  0  0  0  0  0  0  0  0  0
   -2.8200    3.3000    1.0870 O   0  0  0  0  0  0  0  0  0  0  0  0
   -2.7180    0.8790    1.5520 C   0  0  0  0  0  0  0  0  0  0  0  0
   -3.1930   -0.3390    1.4570 C   0  0  0  0  0  0  0  0  0  0  0  0
   -2.5250   -1.4060    2.0520 O   0  0  0  0  0  0  0  0  0  0  0  0
   -1.1500   -1.5300    1.8410 C   0  0  0  0  0  0  0  0  0  0  0  0
   -0.8940   -1.6760    0.3840 C   0  0  0  0  0  0  0  0  0  0  0  0
   -1.8400   -1.6750   -0.4420 O   0  0  0  0  0  0  0  0  0  0  0  0
    0.4300   -1.8220   -0.1330 N   0  0  0  0  0  0  0  0  0  0  0  0
    0.6930   -1.9620   -1.5050 C   0  0  0  0  0  0  0  0  0  0  0  0
    1.4280   -1.0910   -2.1410 C   0  0  0  0  0  0  0  0  0  0  0  0
    1.9950    0.0590   -1.4240 C   0  0  0  0  0  0  0  0  0  0  0  0
    1.8260    0.2990   -0.1720 N   0  0  0  0  0  0  0  0  0  0  0  0
    2.5020    1.4840    0.2120 C   0  0  0  0  0  0  0  0  0  0  0  0
    2.4110    2.0360    1.3130 O   0  0  0  0  0  0  0  0  0  0  0  0
    3.3130    1.8960   -0.9580 C   0  0  1  0  0  0  0  0  0  0  0  0
    4.7590    1.5590   -0.6320 C   0  0  2  0  0  0  0  0  0  0  0  0
    5.2850    2.2560    0.5870 C   0  0  0  0  0  0  0  0  0  0  0  0
    5.8290    2.5550   -0.7610 C   0  0  0  0  0  0  0  0  0  0  0  0
    2.8030    1.0660   -1.9890 O   0  0  0  0  0  0  0  0  0  0  0  0
    0.1420   -3.0870   -2.2230 C   0  0  0  0  0  0  0  0  0  0  0  0
   -0.6720   -4.0690   -1.5610 N   0  0  0  0  0  0  0  0  0  0  0  0
    0.3470   -3.2520   -3.4380 O   0  0  0  0  0  0  0  0  0  0  0  0
  1  2  2  0
  2  3  1  0
  2  8  1  0
  3  4  1  0
  4  5  2  0
  5  6  1  0
  5  7  1  0
  7  8  2  0
  8  9  1  0
  9 10  1  0
 10 11  1  0
 11 12  2  0
 11 13  1  0
 13 14  1  0
 14 15  2  3
 14 25  1  0
 15 16  1  0
 16 17  2  0
 16 24  1  0
 17 18  1  0
 18 19  2  0
 18 20  1  0
 20 21  1  0
 20 24  1  6
 21 22  1  1
 21 23  1  0
 22 23  1  0
 25 26  1  0
 25 27  2  0
M  END
