
     RDKit          3D

 27 29  0  0  0  0  0  0  0  0999 V2000
    5.1570    3.6290    1.1420 C   0  0  0  0  0  0  0  0  0  0  0  0
    5.1050    2.1470    0.9900 C   0  0  0  0  0  0  0  0  0  0  0  0
    6.0820    1.4840    1.4250 O   0  0  0  0  0  0  0  0  0  0  0  0
    4.0170    1.4800    0.3860 N   0  0  0  0  0  0  0  0  0  0  0  0
    3.9590    0.0440    0.2350 C   0  0  0  0  0  0  0  0  0  0  0  0
    2.6900   -0.3700   -0.4380 C   0  0  0  0  0  0  0  0  0  0  0  0
    1.8430    0.4890   -0.7920 O   0  0  0  0  0  0  0  0  0  0  0  0
    2.3990   -1.6970   -0.6970 O   0  0  0  0  0  0  0  0  0  0  0  0
    1.1620   -2.0770   -1.3530 C   0  0  2  0  0  0  0  0  0  0  0  0
    1.2350   -3.5960   -1.4390 C   0  0  0  0  0  0  0  0  0  0  0  0
    1.0940   -1.4670   -2.7050 C   0  0  0  0  0  0  0  0  0  0  0  0
    0.0860   -1.7080   -0.4090 C   0  0  0  0  0  0  0  0  0  0  0  0
   -1.0180   -1.0650   -0.6820 C   0  0  0  0  0  0  0  0  0  0  0  0
   -1.5840   -0.5050   -1.8970 N   0  0  0  0  0  0  0  0  0  0  0  0
   -2.3820    0.6820   -1.6900 C   0  0  0  0  0  0  0  0  0  0  0  0
   -3.2660    0.9400   -2.5040 O   0  0  0  0  0  0  0  0  0  0  0  0
   -2.0100    1.4510   -0.4800 C   0  0  0  0  0  0  0  0  0  0  0  0
   -2.2050    0.5720    0.7330 C   0  0  1  0  0  0  0  0  0  0  0  0
   -3.6170    0.7740    1.1850 C   0  0  0  0  0  0  0  0  0  0  0  0
   -4.5730   -0.1000    1.4260 C   0  0  0  0  0  0  0  0  0  0  0  0
   -5.7950    0.6490    1.8540 C   0  0  0  0  0  0  0  0  0  0  0  0
   -5.5800    1.9420    1.4270 O   0  0  0  0  0  0  0  0  0  0  0  0
   -4.2330    2.0500    1.4590 N   0  0  0  0  0  0  0  0  0  0  0  0
   -1.8850   -0.8680    0.5350 C   0  0  2  0  0  0  0  0  0  0  0  0
   -1.1330   -1.4990    1.5660 N   0  0  0  0  0  0  0  0  0  0  0  0
    0.0640   -2.0170    1.0410 C   0  0  0  0  0  0  0  0  0  0  0  0
    1.0050   -2.6450    1.6270 O   0  0  0  0  0  0  0  0  0  0  0  0
  1  2  1  0
  2  3  2  0
  2  4  1  0
  4  5  1  0
  5  6  1  0
  6  7  2  0
  6  8  1  0
  8  9  1  0
  9 10  1  6
  9 11  1  0
  9 12  1  0
 12 13  2  0
 12 26  1  0
 13 14  1  0
 13 24  1  0
 14 15  1  0
 15 16  2  0
 15 17  1  0
 17 18  1  0
 18 19  1  6
 18 24  1  0
 19 20  2  0
 19 23  1  0
 20 21  1  0
 21 22  1  0
 22 23  1  0
 24 25  1  1
 25 26  1  0
 26 27  2  0
M  END
