
     RDKit          3D

 27 29  0  0  0  0  0  0  0  0999 V2000
    8.4840   -1.5900   -0.3530 C   0  0  0  0  0  0  0  0  0  0  0  0
    7.0840   -1.5170   -0.5390 O   0  0  0  0  0  0  0  0  0  0  0  0
    6.3470   -0.3830   -0.1390 C   0  0  0  0  0  0  0  0  0  0  0  0
    7.0320    0.5290    0.3830 O   0  0  0  0  0  0  0  0  0  0  0  0
    4.9200   -0.3470   -0.3450 C   0  0  0  0  0  0  0  0  0  0  0  0
    4.1790    0.6820    0.0070 C   0  0  0  0  0  0  0  0  0  0  0  0
    4.7950    1.8510    0.6350 C   0  0  0  0  0  0  0  0  0  0  0  0
    3.9120    2.8950    0.8960 O   0  0  0  0  0  0  0  0  0  0  0  0
    2.5600    2.8490    0.6710 C   0  0  0  0  0  0  0  0  0  0  0  0
    1.7920    3.8280    0.9660 O   0  0  0  0  0  0  0  0  0  0  0  0
    1.9090    1.6770    0.0790 C   0  0  0  0  0  0  0  0  0  0  0  0
    2.7440    0.6350   -0.2320 C   0  0  0  0  0  0  0  0  0  0  0  0
    1.9330   -0.3230   -0.7580 N   0  0  0  0  0  0  0  0  0  0  0  0
    0.6530    0.0950   -0.7770 C   0  0  0  0  0  0  0  0  0  0  0  0
   -0.4470   -0.7280   -1.3240 C   0  0  0  0  0  0  0  0  0  0  0  0
    0.5920    1.3520   -0.2570 C   0  0  0  0  0  0  0  0  0  0  0  0
   -0.5060    2.3080   -0.0530 C   0  0  0  0  0  0  0  0  0  0  0  0
   -1.8080    1.8690   -0.3640 N   0  0  0  0  0  0  0  0  0  0  0  0
   -2.4610    0.8360    0.3900 C   0  0  0  0  0  0  0  0  0  0  0  0
   -1.9020    0.2770    1.3720 O   0  0  0  0  0  0  0  0  0  0  0  0
   -3.7700    0.4150    0.0420 N   0  0  0  0  0  0  0  0  0  0  0  0
   -4.5090   -0.6160    0.7370 C   0  0  1  0  0  0  0  0  0  0  0  0
   -5.7720   -0.0470    1.3410 C   0  0  0  0  0  0  0  0  0  0  0  0
   -6.8050   -0.8950    1.0580 O   0  0  0  0  0  0  0  0  0  0  0  0
   -6.3350   -2.0620    0.5180 C   0  0  1  0  0  0  0  0  0  0  0  0
   -7.2950   -2.6540   -0.3990 N   0  0  0  0  0  0  0  0  0  0  0  0
   -5.0610   -1.6700   -0.1970 C   0  0  0  0  0  0  0  0  0  0  0  0
  1  2  1  0
  2  3  1  0
  3  4  2  0
  3  5  1  0
  5  6  2  3
  6  7  1  0
  6 12  1  0
  7  8  1  0
  8  9  1  0
  9 10  2  0
  9 11  1  0
 11 12  2  0
 11 16  1  0
 12 13  1  0
 13 14  1  0
 14 15  1  0
 14 16  2  0
 16 17  1  0
 17 18  1  0
 18 19  1  0
 19 20  2  0
 19 21  1  0
 22 21  1  6
 22 23  1  0
 22 27  1  0
 23 24  1  0
 24 25  1  0
 25 26  1  6
 25 27  1  0
M  END
