
     RDKit          3D

 18 20  0  0  0  0  0  0  0  0999 V2000
    0.3520   -0.0800   -2.0910 O   0  0  0  0  0  0  0  0  0  0  0  0
    0.8880   -0.1130   -0.8880 C   0  0  0  0  0  0  0  0  0  0  0  0
    2.3260    0.0020   -0.8730 C   0  0  0  0  0  0  0  0  0  0  0  0
    3.0900    0.1410   -1.9770 C   0  0  0  0  0  0  0  0  0  0  0  0
    4.5110    0.2300   -1.6460 C   0  0  0  0  0  0  0  0  0  0  0  0
    4.5370    0.1220   -0.1780 C   0  0  0  0  0  0  0  0  0  0  0  0
    3.2850   -0.0050    0.2210 C   0  0  0  0  0  0  0  0  0  0  0  0
   -0.1130   -0.2620    0.1370 C   0  0  2  0  0  0  0  0  0  0  0  0
   -0.5890   -1.7160    0.0760 C   0  0  0  0  0  0  0  0  0  0  0  0
   -1.5900   -1.9980   -0.9770 C   0  0  0  0  0  0  0  0  0  0  0  0
   -3.0350   -2.0400   -0.4510 C   0  0  0  0  0  0  0  0  0  0  0  0
   -3.5590   -0.6290   -0.2650 C   0  0  0  0  0  0  0  0  0  0  0  0
   -2.5200    0.0660    0.6300 C   0  0  0  0  0  0  0  0  0  0  0  0
   -1.3570    0.5920   -0.1350 C   0  0  1  0  0  0  0  0  0  0  0  0
   -1.1120    2.0600    0.1490 C   0  0  0  0  0  0  0  0  0  0  0  0
   -0.6040    2.2880    1.5510 C   0  0  0  0  0  0  0  0  0  0  0  0
    0.6270    1.4000    1.7040 C   0  0  0  0  0  0  0  0  0  0  0  0
    0.3050    0.0200    1.4640 N   0  0  0  0  0  0  0  0  0  0  0  0
  1  2  2  0
  2  3  1  0
  8  2  1  6
  3  4  2  0
  3  7  1  0
  4  5  1  0
  5  6  1  0
  6  7  2  0
  8  9  1  0
  8 14  1  0
  8 18  1  0
  9 10  1  0
 10 11  1  0
 11 12  1  0
 12 13  1  0
 14 13  1  1
 14 15  1  0
 15 16  1  0
 16 17  1  0
 17 18  1  0
M  CHG  1  18   1
M  END
