
     RDKit          3D

 18 19  0  0  0  0  0  0  0  0999 V2000
    3.4050   -0.9340    1.7770 C   0  0  0  0  0  0  0  0  0  0  0  0
    3.3580   -0.4690    0.4790 O   0  0  0  0  0  0  0  0  0  0  0  0
    2.0920   -0.0290    0.0880 C   0  0  1  0  0  0  0  0  0  0  0  0
    2.1910    1.3830   -0.3640 C   0  0  0  0  0  0  0  0  0  0  0  0
    1.1740    1.8490   -1.3200 C   0  0  0  0  0  0  0  0  0  0  0  0
    0.0800    2.5060   -1.1030 C   0  0  0  0  0  0  0  0  0  0  0  0
   -0.4450    2.9720    0.2100 C   0  0  0  0  0  0  0  0  0  0  0  0
   -1.8540    2.8750    0.3400 N   0  0  0  0  0  0  0  0  0  0  0  0
   -2.5030    1.8180   -0.3330 C   0  0  0  0  0  0  0  0  0  0  0  0
   -2.9220    0.6590    0.5480 C   0  0  0  0  0  0  0  0  0  0  0  0
   -1.7740   -0.2520    0.7570 C   0  0  1  0  0  0  0  0  0  0  0  0
   -2.0790   -1.4950    1.5470 C   0  0  0  0  0  0  0  0  0  0  0  0
   -0.9030   -2.3590    1.1540 C   0  0  0  0  0  0  0  0  0  0  0  0
   -0.3350   -1.9000    0.0490 C   0  0  0  0  0  0  0  0  0  0  0  0
   -1.3270   -0.9320   -0.5460 C   0  0  0  0  0  0  0  0  0  0  0  0
    0.9520   -2.1650   -0.5900 C   0  0  1  0  0  0  0  0  0  0  0  0
    0.6700   -2.9930   -1.8520 C   0  0  0  0  0  0  0  0  0  0  0  0
    1.6890   -0.9350   -1.0590 C   0  0  0  0  0  0  0  0  0  0  0  0
  1  2  1  0
  3  2  1  6
  3  4  1  0
  3 18  1  0
  4  5  1  0
  5  6  2  0
  6  7  1  0
  7  8  1  0
  8  9  1  0
  9 10  1  0
 11 10  1  6
 11 12  1  0
 11 15  1  0
 12 13  1  0
 13 14  2  0
 14 15  1  0
 14 16  1  0
 16 17  1  6
 16 18  1  0
M  CHG  1   8   1
M  END
