
     RDKit          3D

 18 19  0  0  0  0  0  0  0  0999 V2000
   -4.9940    0.1790    0.1050 C   0  0  0  0  0  0  0  0  0  0  0  0
   -3.9500   -0.8670    0.0830 C   0  0  1  0  0  0  0  0  0  0  0  0
   -4.1150   -1.6550   -1.2070 C   0  0  0  0  0  0  0  0  0  0  0  0
   -2.5530   -0.4910    0.3660 C   0  0  0  0  0  0  0  0  0  0  0  0
   -1.8810    0.4920   -0.5080 C   0  0  1  0  0  0  0  0  0  0  0  0
   -2.5250    1.8650   -0.5490 C   0  0  0  0  0  0  0  0  0  0  0  0
   -2.5100    2.3970    0.7400 O   0  0  0  0  0  0  0  0  0  0  0  0
   -0.4620    0.7250   -0.0160 C   0  0  0  0  0  0  0  0  0  0  0  0
    0.3680   -0.4540   -0.0150 N   0  0  2  0  0  0  0  0  0  0  0  0
    0.6620   -0.7920    1.3410 C   0  0  0  0  0  0  0  0  0  0  0  0
    2.0710   -1.3130    1.5270 C   0  0  0  0  0  0  0  0  0  0  0  0
    3.0080   -0.1600    1.2150 C   0  0  1  0  0  0  0  0  0  0  0  0
    4.4060   -0.7220    1.2320 C   0  0  0  0  0  0  0  0  0  0  0  0
    5.3700    0.3190    0.7940 C   0  0  0  0  0  0  0  0  0  0  0  0
    5.0690    0.9950   -0.3030 C   0  0  0  0  0  0  0  0  0  0  0  0
    3.8030    0.6840   -1.0270 C   0  0  0  0  0  0  0  0  0  0  0  0
    2.6330    0.5060   -0.0860 C   0  0  1  0  0  0  0  0  0  0  0  0
    1.5640   -0.2660   -0.8230 C   0  0  0  0  0  0  0  0  0  0  0  0
  2  1  1  6
  2  3  1  0
  2  4  1  0
  5  4  1  1
  5  6  1  0
  5  8  1  0
  6  7  1  0
  9  8  1  1
  9 10  1  0
  9 18  1  0
 10 11  1  0
 12 11  1  6
 12 13  1  0
 12 17  1  0
 13 14  1  0
 14 15  2  0
 15 16  1  0
 17 16  1  6
 17 18  1  0
M  CHG  1   9   1
M  END
