
     RDKit          3D

 18 20  0  0  0  0  0  0  0  0999 V2000
    1.5640   -3.7430   -0.1050 C   0  0  0  0  0  0  0  0  0  0  0  0
    0.7530   -2.4360    0.0040 C   0  0  0  0  0  0  0  0  0  0  0  0
   -0.5060   -2.5690    0.3000 C   0  0  0  0  0  0  0  0  0  0  0  0
   -1.6680   -1.6310    0.5030 C   0  0  2  0  0  0  0  0  0  0  0  0
   -1.6790   -0.6320   -0.5790 C   0  0  1  0  0  0  0  0  0  0  0  0
   -3.1100   -0.3580   -1.0300 C   0  0  0  0  0  0  0  0  0  0  0  0
   -1.2440   -0.2970    0.7830 C   0  0  1  0  0  0  0  0  0  0  0  0
   -1.8980    1.0030    1.0540 C   0  0  0  0  0  0  0  0  0  0  0  0
   -1.2760    1.9500    0.1320 N   0  0  0  0  0  0  0  0  0  0  0  0
   -0.3360    2.8760    0.6400 C   0  0  0  0  0  0  0  0  0  0  0  0
    0.9000    3.1700   -0.2290 C   0  0  0  0  0  0  0  0  0  0  0  0
    1.0490    2.0510   -1.2020 C   0  0  0  0  0  0  0  0  0  0  0  0
    1.3320    0.7970   -0.8450 C   0  0  0  0  0  0  0  0  0  0  0  0
    1.3740   -0.1100   -2.0140 O   0  0  0  0  0  0  0  0  0  0  0  0
    2.4260   -1.0880   -1.5070 C   0  0  0  0  0  0  0  0  0  0  0  0
    1.6050   -1.2410   -0.2690 C   0  0  0  0  0  0  0  0  0  0  0  0
    1.5880   -0.0080    0.3380 C   0  0  0  0  0  0  0  0  0  0  0  0
    1.9910    0.3650    1.7760 C   0  0  0  0  0  0  0  0  0  0  0  0
  1  2  1  0
  2  3  2  0
  2 16  1  0
  4  3  1  6
  4  5  1  0
  4  7  1  0
  5  6  1  1
  5  7  1  0
  7  8  1  1
  8  9  1  0
  9 10  1  0
 10 11  1  0
 11 12  1  0
 12 13  2  0
 13 14  1  0
 13 17  1  0
 14 15  1  0
 15 16  1  0
 16 17  2  0
 17 18  1  0
M  CHG  1   9   1
M  END
