
     RDKit          3D

 18 20  0  0  0  0  0  0  0  0999 V2000
    3.7410   -0.5350   -1.7460 C   0  0  0  0  0  0  0  0  0  0  0  0
    3.4550   -0.2530   -0.2770 C   0  0  2  0  0  0  0  0  0  0  0  0
    4.7500   -0.5680    0.4570 C   0  0  0  0  0  0  0  0  0  0  0  0
    2.4150   -1.2110    0.2490 C   0  0  0  0  0  0  0  0  0  0  0  0
    1.7090   -0.7040    1.4450 C   0  0  0  0  0  0  0  0  0  0  0  0
    0.3430   -0.1570    1.2100 C   0  0  0  0  0  0  0  0  0  0  0  0
   -0.0290    0.1970   -0.1730 C   0  0  1  0  0  0  0  0  0  0  0  0
   -1.3860    0.8870   -0.1070 C   0  0  0  0  0  0  0  0  0  0  0  0
   -2.4670    0.0430    0.4720 C   0  0  2  0  0  0  0  0  0  0  0  0
   -2.6020   -1.0940   -0.3160 O   0  0  0  0  0  0  0  0  0  0  0  0
   -3.8680   -1.0730   -0.8850 C   0  0  1  0  0  0  0  0  0  0  0  0
   -4.8570   -1.3630    0.2230 C   0  0  0  0  0  0  0  0  0  0  0  0
   -4.8030   -0.0870    1.0790 C   0  0  0  0  0  0  0  0  0  0  0  0
   -3.7870    0.7750    0.3630 C   0  0  2  0  0  0  0  0  0  0  0  0
   -4.1370    0.4320   -1.0750 C   0  0  0  0  0  0  0  0  0  0  0  0
    0.9510    0.9990   -0.9690 C   0  0  0  0  0  0  0  0  0  0  0  0
    1.9150    1.7150   -0.2380 N   0  0  0  0  0  0  0  0  0  0  0  0
    3.1880    1.1880   -0.0150 C   0  0  0  0  0  0  0  0  0  0  0  0
  2  1  1  6
  2  3  1  0
  2  4  1  0
  2 18  1  0
  4  5  1  0
  5  6  1  0
  6  7  1  0
  7  8  1  1
  7 16  1  0
  9  8  1  6
  9 10  1  0
  9 14  1  0
 10 11  1  0
 11 12  1  1
 11 15  1  0
 12 13  1  0
 14 13  1  1
 14 15  1  0
 16 17  1  0
 17 18  1  0
M  CHG  1  17   1
M  END
