
     RDKit          3D

 18 19  0  0  0  0  0  0  0  0999 V2000
   -3.9950   -0.8220   -0.3800 C   0  0  0  0  0  0  0  0  0  0  0  0
   -2.8360   -1.6750   -0.1680 C   0  0  0  0  0  0  0  0  0  0  0  0
   -1.5950   -1.0080    0.2140 N   0  0  2  0  0  0  0  0  0  0  0  0
   -1.7090   -0.2640    1.4110 C   0  0  0  0  0  0  0  0  0  0  0  0
   -0.3990    0.3610    1.8090 C   0  0  1  0  0  0  0  0  0  0  0  0
    0.3800   -0.6510    2.5560 C   0  0  0  0  0  0  0  0  0  0  0  0
    0.2620    1.1460    0.7280 C   0  0  1  0  0  0  0  0  0  0  0  0
   -0.0720    2.5030    1.0930 O   0  0  0  0  0  0  0  0  0  0  0  0
    1.7110    1.1890    0.6740 C   0  0  0  0  0  0  0  0  0  0  0  0
    2.5450    0.0250    0.4590 C   0  0  0  0  0  0  0  0  0  0  0  0
    2.3500   -1.2550    0.2270 C   0  0  0  0  0  0  0  0  0  0  0  0
    3.5780   -2.0190    0.0860 C   0  0  0  0  0  0  0  0  0  0  0  0
    4.6070   -0.9890    0.2710 C   0  0  0  0  0  0  0  0  0  0  0  0
    4.0260    0.1360    0.4760 C   0  0  0  0  0  0  0  0  0  0  0  0
   -0.4630    1.0410   -0.6070 C   0  0  2  0  0  0  0  0  0  0  0  0
    0.4020    1.4140   -1.7850 C   0  0  0  0  0  0  0  0  0  0  0  0
   -1.6430    1.9940   -0.7160 C   0  0  0  0  0  0  0  0  0  0  0  0
   -1.0000   -0.3270   -0.8920 C   0  0  0  0  0  0  0  0  0  0  0  0
  1  2  1  0
  3  2  1  6
  3  4  1  0
  3 18  1  0
  4  5  1  0
  5  6  1  6
  5  7  1  0
  7  8  1  1
  7  9  1  0
  7 15  1  0
  9 10  1  0
 10 11  2  0
 10 14  1  0
 11 12  1  0
 12 13  1  0
 13 14  2  0
 15 16  1  6
 15 17  1  0
 15 18  1  0
M  CHG  1   3   1
M  END
