
     RDKit          3D

 15 15  0  0  0  0  0  0  0  0999 V2000
   -3.7260   -0.8430   -0.8520 C   0  0  0  0  0  0  0  0  0  0  0  0
   -3.1090   -0.0960    0.2910 C   0  0  2  0  0  0  0  0  0  0  0  0
   -3.5640    1.2980    0.1580 N   0  0  0  0  0  0  0  0  0  0  0  0
   -2.6790    1.8500   -0.8270 C   0  0  0  0  0  0  0  0  0  0  0  0
   -2.8630    2.9220   -1.4920 O   0  0  0  0  0  0  0  0  0  0  0  0
   -1.5420    1.0080   -0.9580 N   0  0  0  0  0  0  0  0  0  0  0  0
   -1.6130    0.0940    0.1620 C   0  0  2  0  0  0  0  0  0  0  0  0
   -0.9300   -1.2200   -0.0910 C   0  0  0  0  0  0  0  0  0  0  0  0
    0.5610   -1.0910   -0.2300 C   0  0  0  0  0  0  0  0  0  0  0  0
    1.2140   -0.5190    1.0010 C   0  0  0  0  0  0  0  0  0  0  0  0
    2.7110   -0.4070    0.8160 C   0  0  0  0  0  0  0  0  0  0  0  0
    3.0930    0.4840   -0.3380 C   0  0  0  0  0  0  0  0  0  0  0  0
    4.5720    0.5190   -0.4180 C   0  0  0  0  0  0  0  0  0  0  0  0
    5.2280   -0.4330   -0.8610 O   0  0  0  0  0  0  0  0  0  0  0  0
    5.2370    1.6530    0.0160 O   0  0  0  0  0  0  0  0  0  0  0  0
  2  1  1  6
  2  3  1  0
  2  7  1  0
  3  4  1  0
  4  5  2  0
  4  6  1  0
  6  7  1  0
  7  8  1  6
  8  9  1  0
  9 10  1  0
 10 11  1  0
 11 12  1  0
 12 13  1  0
 13 14  2  0
 13 15  1  0
M  END
