
     RDKit          3D

 17 17  0  0  0  0  0  0  0  0999 V2000
   -4.2770   -2.4260   -0.4320 C   0  0  0  0  0  0  0  0  0  0  0  0
   -4.0990   -1.1860    0.3440 C   0  0  0  0  0  0  0  0  0  0  0  0
   -5.0880   -0.7830    1.2680 N   0  0  0  0  0  0  0  0  0  0  0  0
   -3.0220   -0.4430    0.1870 C   0  0  0  0  0  0  0  0  0  0  0  0
   -1.9110   -0.6670   -0.6870 N   0  0  0  0  0  0  0  0  0  0  0  0
   -1.0300    0.2670   -0.5820 C   0  0  0  0  0  0  0  0  0  0  0  0
    0.2620    0.3820   -1.3290 C   0  0  0  0  0  0  0  0  0  0  0  0
    1.4320    0.3900   -0.3430 C   0  0  0  0  0  0  0  0  0  0  0  0
    2.7090    0.5050   -1.1160 C   0  0  0  0  0  0  0  0  0  0  0  0
    3.8100    0.5140   -0.2190 O   0  0  0  0  0  0  0  0  0  0  0  0
    5.1200    0.6090   -0.6070 C   0  0  0  0  0  0  0  0  0  0  0  0
    5.3850    0.6940   -1.8340 O   0  0  0  0  0  0  0  0  0  0  0  0
    6.2740    0.6190    0.3290 C   0  0  0  0  0  0  0  0  0  0  0  0
    5.8580    0.5200    1.6550 O   0  0  0  0  0  0  0  0  0  0  0  0
   -1.4680    1.2280    0.3890 N   0  0  0  0  0  0  0  0  0  0  0  0
   -2.7280    0.8020    0.8920 C   0  0  0  0  0  0  0  0  0  0  0  0
   -3.4420    1.4030    1.7820 N   0  0  0  0  0  0  0  0  0  0  0  0
  1  2  1  0
  2  3  1  0
  2  4  2  3
  4  5  1  0
  4 16  1  0
  5  6  2  0
  6  7  1  0
  6 15  1  0
  7  8  1  0
  8  9  1  0
  9 10  1  0
 10 11  1  0
 11 12  2  0
 11 13  1  0
 13 14  1  0
 15 16  1  0
 16 17  2  0
M  CHG  1   3   1
M  END
