
     RDKit          3D

 17 17  0  0  0  0  0  0  0  0999 V2000
   -1.1220   -0.9180    1.6200 C   0  0  0  0  0  0  0  0  0  0  0  0
   -0.9530   -0.2850    0.2450 C   0  0  2  0  0  0  0  0  0  0  0  0
   -1.1990    1.2030    0.4300 C   0  0  0  0  0  0  0  0  0  0  0  0
   -1.8860   -0.8760   -0.6800 N   0  0  0  0  0  0  0  0  0  0  0  0
   -3.2220   -0.4550   -0.3920 C   0  0  0  0  0  0  0  0  0  0  0  0
   -3.6500    0.6850   -1.2640 C   0  0  0  0  0  0  0  0  0  0  0  0
   -4.9290    1.2710   -1.1640 N   0  0  0  0  0  0  0  0  0  0  0  0
   -2.8320    1.1130   -2.0970 O   0  0  0  0  0  0  0  0  0  0  0  0
    0.4570   -0.5200   -0.1560 C   0  0  0  0  0  0  0  0  0  0  0  0
    0.7260   -1.1740   -1.2040 O   0  0  0  0  0  0  0  0  0  0  0  0
    1.5100   -0.0060    0.6430 N   0  0  0  0  0  0  0  0  0  0  0  0
    2.8880   -0.2070    0.2970 C   0  0  0  0  0  0  0  0  0  0  0  0
    3.6580    0.8190    0.0790 C   0  0  0  0  0  0  0  0  0  0  0  0
    5.0960    0.7320   -0.2840 C   0  0  0  0  0  0  0  0  0  0  0  0
    5.4850   -0.6050   -0.3550 O   0  0  0  0  0  0  0  0  0  0  0  0
    4.6520   -1.6690   -0.1210 C   0  0  0  0  0  0  0  0  0  0  0  0
    3.4110   -1.5150    0.1910 N   0  0  0  0  0  0  0  0  0  0  0  0
  2  1  1  1
  2  3  1  0
  2  4  1  0
  2  9  1  0
  4  5  1  0
  5  6  1  0
  6  7  1  0
  6  8  2  0
  9 10  2  0
  9 11  1  0
 11 12  1  0
 12 13  2  0
 12 17  1  0
 13 14  1  0
 14 15  1  0
 15 16  1  0
 16 17  2  0
M  CHG  1   4   1
M  END
