
     RDKit          3D

 21 23  0  0  0  0  0  0  0  0999 V2000
    3.2450    2.2970    3.3140 N   0  0  0  0  0  0  0  0  0  0  0  0
    2.7610    1.6790    2.4540 C   0  0  0  0  0  0  0  0  0  0  0  0
    2.1460    0.9180    1.4120 C   0  0  0  0  0  0  0  0  0  0  0  0
    0.7900    0.8030    1.2000 C   0  0  0  0  0  0  0  0  0  0  0  0
    0.5830   -0.0020    0.1160 N   0  0  0  0  0  0  0  0  0  0  0  0
   -0.7320   -0.3160   -0.3590 C   0  0  2  0  0  0  0  0  0  0  0  0
   -1.5230    0.8240   -0.2210 O   0  0  0  0  0  0  0  0  0  0  0  0
   -2.7770    0.3740   -0.5460 C   0  0  2  0  0  0  0  0  0  0  0  0
   -3.8670    1.3600   -0.1800 C   0  0  0  0  0  0  0  0  0  0  0  0
   -3.6500    2.5560   -0.8600 O   0  0  0  0  0  0  0  0  0  0  0  0
   -2.9230   -0.9220    0.2200 C   0  0  1  0  0  0  0  0  0  0  0  0
   -3.5430   -1.8320   -0.6350 O   0  0  0  0  0  0  0  0  0  0  0  0
   -1.4660   -1.3190    0.4720 C   0  0  1  0  0  0  0  0  0  0  0  0
   -1.3230   -2.6230    0.0130 O   0  0  0  0  0  0  0  0  0  0  0  0
    1.7880   -0.3740   -0.3290 C   0  0  0  0  0  0  0  0  0  0  0  0
    2.1370   -1.1610   -1.3650 N   0  0  0  0  0  0  0  0  0  0  0  0
    3.4580   -1.3930   -1.6170 C   0  0  0  0  0  0  0  0  0  0  0  0
    4.4330   -0.8570   -0.8600 N   0  0  0  0  0  0  0  0  0  0  0  0
    4.1220   -0.0610    0.1900 C   0  0  0  0  0  0  0  0  0  0  0  0
    5.0930    0.5290    1.0190 N   0  0  0  0  0  0  0  0  0  0  0  0
    2.7900    0.1730    0.4450 C   0  0  0  0  0  0  0  0  0  0  0  0
  1  2  3  0
  2  3  1  0
  3  4  2  0
  3 21  1  0
  4  5  1  0
  6  5  1  1
  5 15  1  0
  6  7  1  0
  6 13  1  0
  7  8  1  0
  8  9  1  1
  8 11  1  0
  9 10  1  0
 11 12  1  6
 11 13  1  0
 13 14  1  6
 15 16  2  0
 15 21  1  0
 16 17  1  0
 17 18  2  0
 18 19  1  0
 19 20  1  0
 19 21  2  0
M  END
