
     RDKit          3D

 17 17  0  0  0  0  0  0  0  0999 V2000
   -0.2290    2.6040    1.1600 N   0  0  0  0  0  0  0  0  0  0  0  0
   -1.1850    2.4500    0.1280 C   0  0  0  0  0  0  0  0  0  0  0  0
   -1.7040    3.4970   -0.3280 O   0  0  0  0  0  0  0  0  0  0  0  0
   -1.5840    1.1600   -0.4160 C   0  0  0  0  0  0  0  0  0  0  0  0
   -0.9430    0.0090    0.1540 N   0  0  0  0  0  0  0  0  0  0  0  0
   -1.1420   -0.4370    1.4990 C   0  0  0  0  0  0  0  0  0  0  0  0
   -2.5330   -0.9760    1.7420 C   0  0  0  0  0  0  0  0  0  0  0  0
   -2.5930   -1.3700    3.0760 O   0  0  0  0  0  0  0  0  0  0  0  0
   -0.0730   -0.7460   -0.6770 C   0  0  0  0  0  0  0  0  0  0  0  0
   -0.6050   -1.4290   -1.6740 C   0  0  0  0  0  0  0  0  0  0  0  0
    0.1780   -2.2580   -2.6190 C   0  0  0  0  0  0  0  0  0  0  0  0
    1.5420   -2.2170   -2.3210 O   0  0  0  0  0  0  0  0  0  0  0  0
    2.1260   -1.5220   -1.2980 C   0  0  0  0  0  0  0  0  0  0  0  0
    1.3590   -0.8010   -0.4880 C   0  0  0  0  0  0  0  0  0  0  0  0
    2.0180   -0.1100    0.5490 N   0  0  0  0  0  0  0  0  0  0  0  0
    2.9750    0.8720    0.2180 C   0  0  0  0  0  0  0  0  0  0  0  0
    2.8410    1.5600   -0.8520 N   0  0  0  0  0  0  0  0  0  0  0  0
  1  2  1  0
  2  3  2  0
  2  4  1  0
  4  5  1  0
  5  6  1  0
  5  9  1  0
  6  7  1  0
  7  8  1  0
  9 10  2  0
  9 14  1  0
 10 11  1  0
 11 12  1  0
 12 13  1  0
 13 14  2  0
 14 15  1  0
 15 16  1  0
 16 17  2  0
M  CHG  1  17   1
M  END
