
     RDKit          3D

 17 17  0  0  0  0  0  0  0  0999 V2000
    3.8300    2.1070    0.3130 C   0  0  0  0  0  0  0  0  0  0  0  0
    3.1750    0.9740   -0.2010 O   0  0  0  0  0  0  0  0  0  0  0  0
    1.8380    1.0810    0.2150 C   0  0  0  0  0  0  0  0  0  0  0  0
    1.1280   -0.1290   -0.3320 C   0  0  1  0  0  0  0  0  0  0  0  0
    1.7920   -1.3070    0.2400 N   0  0  0  0  0  0  0  0  0  0  0  0
    0.9130   -2.2310    0.4780 C   0  0  0  0  0  0  0  0  0  0  0  0
    1.2290   -3.5230    1.0440 N   0  0  0  0  0  0  0  0  0  0  0  0
   -0.3720   -1.7520    0.0930 N   0  0  0  0  0  0  0  0  0  0  0  0
   -1.4640   -2.6090   -0.3030 C   0  0  0  0  0  0  0  0  0  0  0  0
   -0.2660   -0.3150    0.2050 C   0  0  1  0  0  0  0  0  0  0  0  0
   -0.2580   -0.0460    1.7200 C   0  0  0  0  0  0  0  0  0  0  0  0
   -1.3160    0.4420   -0.4320 C   0  0  0  0  0  0  0  0  0  0  0  0
   -1.0330    1.2180   -1.4600 C   0  0  0  0  0  0  0  0  0  0  0  0
   -2.0350    1.9960   -2.1370 N   0  0  0  0  0  0  0  0  0  0  0  0
   -2.2830    3.2870   -1.8350 O   0  0  0  0  0  0  0  0  0  0  0  0
   -2.7440    0.4130   -0.0080 C   0  0  0  0  0  0  0  0  0  0  0  0
   -3.5460    1.2170   -0.7760 O   0  0  0  0  0  0  0  0  0  0  0  0
  1  2  1  0
  2  3  1  0
  4  3  1  1
  4  5  1  0
  4 10  1  0
  5  6  2  0
  6  7  1  0
  6  8  1  0
  8  9  1  0
  8 10  1  0
 10 11  1  1
 10 12  1  0
 12 13  2  3
 12 16  1  0
 13 14  1  0
 14 15  1  0
 16 17  1  0
M  CHG  1   5   1
M  END
