
     RDKit          3D

 17 18  0  0  0  0  0  0  0  0999 V2000
    2.5710    1.7350    1.7180 C   0  0  0  0  0  0  0  0  0  0  0  0
    2.3730    1.0540    0.3920 C   0  0  2  0  0  0  0  0  0  0  0  0
    0.9880    0.7820    0.1850 N   0  0  0  0  0  0  0  0  0  0  0  0
    0.6300   -0.4100    0.3720 C   0  0  0  0  0  0  0  0  0  0  0  0
   -0.6360   -1.0500    0.2670 C   0  0  0  0  0  0  0  0  0  0  0  0
   -1.8280   -0.6190   -0.0580 C   0  0  0  0  0  0  0  0  0  0  0  0
   -2.9010   -1.5640   -0.0600 O   0  0  0  0  0  0  0  0  0  0  0  0
   -4.1890   -1.2080   -0.3870 C   0  0  0  0  0  0  0  0  0  0  0  0
   -5.2290   -2.1900   -0.3740 N   0  0  0  0  0  0  0  0  0  0  0  0
   -4.5170    0.0300   -0.7210 C   0  0  0  0  0  0  0  0  0  0  0  0
   -3.4840    1.0390   -0.7410 C   0  0  0  0  0  0  0  0  0  0  0  0
   -2.2030    0.7100   -0.4210 C   0  0  0  0  0  0  0  0  0  0  0  0
   -1.3000    1.8050   -0.4850 N   0  0  0  0  0  0  0  0  0  0  0  0
    1.8050   -1.1070    0.7470 O   0  0  0  0  0  0  0  0  0  0  0  0
    2.9510   -0.3480    0.4100 C   0  0  1  0  0  0  0  0  0  0  0  0
    3.4560   -0.6760   -0.8460 O   0  0  0  0  0  0  0  0  0  0  0  0
    4.7650   -0.9990   -0.7310 N   0  0  0  0  0  0  0  0  0  0  0  0
  2  1  1  1
  2  3  1  0
  2 15  1  0
  3  4  2  0
  4  5  1  0
  4 14  1  0
  5  6  2  3
  6  7  1  0
  6 12  1  0
  7  8  1  0
  8  9  1  0
  8 10  2  0
 10 11  1  0
 11 12  2  0
 12 13  1  0
 14 15  1  0
 15 16  1  6
 16 17  1  0
M  CHG  1  17   1
M  END
