
     RDKit          3D

 23 25  0  0  0  0  0  0  0  0999 V2000
    8.2040   -0.4270   -0.0230 C   0  0  0  0  0  0  0  0  0  0  0  0
    6.7380   -0.3310   -0.2770 C   0  0  0  0  0  0  0  0  0  0  0  0
    5.8090   -1.5920    0.6770 S   0  0  0  0  0  0  0  0  0  0  0  0
    4.0490   -1.3530    0.2650 C   0  0  0  0  0  0  0  0  0  0  0  0
    3.6490   -0.0080    0.8080 C   0  0  0  0  0  0  0  0  0  0  0  0
    2.2910    0.3480    0.5820 N   0  0  0  0  0  0  0  0  0  0  0  0
    1.2960    0.0650    1.4570 C   0  0  0  0  0  0  0  0  0  0  0  0
    0.1420    0.5290    0.9670 N   0  0  0  0  0  0  0  0  0  0  0  0
    0.3660    1.1250   -0.2430 C   0  0  0  0  0  0  0  0  0  0  0  0
   -0.5820    1.7460   -1.0860 N   0  0  0  0  0  0  0  0  0  0  0  0
   -1.6440    1.0050   -1.5980 N   0  0  0  0  0  0  0  0  0  0  0  0
   -2.3600    0.2030   -0.6650 C   0  0  0  0  0  0  0  0  0  0  0  0
   -2.0980   -1.0740   -0.4430 C   0  0  0  0  0  0  0  0  0  0  0  0
   -3.0510   -1.5940    0.6010 C   0  0  0  0  0  0  0  0  0  0  0  0
   -3.6490   -0.3770    1.2550 C   0  0  2  0  0  0  0  0  0  0  0  0
   -5.1210   -0.4760    1.4880 C   0  0  0  0  0  0  0  0  0  0  0  0
   -5.7820    0.5840    0.6390 C   0  0  0  0  0  0  0  0  0  0  0  0
   -4.7990    0.7200   -0.5250 C   0  0  2  0  0  0  0  0  0  0  0  0
   -5.0460   -0.3750   -1.4130 N   0  0  0  0  0  0  0  0  0  0  0  0
   -3.4750    0.6710    0.1710 C   0  0  2  0  0  0  0  0  0  0  0  0
    1.7290    0.9890   -0.4460 C   0  0  0  0  0  0  0  0  0  0  0  0
    2.4550    1.4680   -1.6070 C   0  0  0  0  0  0  0  0  0  0  0  0
    1.8780    2.0550   -2.5390 O   0  0  0  0  0  0  0  0  0  0  0  0
  1  2  1  0
  2  3  1  0
  3  4  1  0
  4  5  1  0
  5  6  1  0
  6  7  1  0
  6 21  1  0
  7  8  2  0
  8  9  1  0
  9 10  1  0
  9 21  2  0
 10 11  1  0
 11 12  1  0
 12 13  2  0
 20 12  1  6
 13 14  1  0
 15 14  1  6
 15 16  1  0
 15 20  1  0
 16 17  1  0
 17 18  1  0
 18 19  1  6
 18 20  1  0
 21 22  1  0
 22 23  2  0
M  CHG  1  19   1
M  END
