
     RDKit          3D

 12 12  0  0  0  0  0  0  0  0999 V2000
   -2.5610    2.2220    0.2910 O   0  0  0  0  0  0  0  0  0  0  0  0
   -1.8870    1.1390    0.2710 C   0  0  0  0  0  0  0  0  0  0  0  0
   -2.6100   -0.0170    0.3860 O   0  0  0  0  0  0  0  0  0  0  0  0
   -0.4300    1.2060    0.1320 C   0  0  0  0  0  0  0  0  0  0  0  0
    0.5730    2.5870    0.0130 S   0  0  0  0  0  0  0  0  0  0  0  0
    2.1610    1.6590   -0.0950 C   0  0  0  0  0  0  0  0  0  0  0  0
    3.6290    2.3620   -0.2340 S   0  0  0  0  0  0  0  0  0  0  0  0
    1.7340    0.4240   -0.0280 N   0  0  0  0  0  0  0  0  0  0  0  0
    0.4870    0.0990    0.0830 C   0  0  0  0  0  0  0  0  0  0  0  0
    0.0040   -1.3370    0.1150 C   0  0  1  0  0  0  0  0  0  0  0  0
   -1.0190   -1.5610   -0.7640 O   0  0  0  0  0  0  0  0  0  0  0  0
    1.0290   -2.2120   -0.2020 O   0  0  0  0  0  0  0  0  0  0  0  0
  1  2  2  0
  2  3  1  0
  2  4  1  0
  4  5  1  0
  4  9  2  0
  5  6  1  0
  6  7  2  0
  6  8  1  0
  8  9  1  0
  9 10  1  0
 10 11  1  6
 10 12  1  0
M  END
