
     RDKit          3D

 23 25  0  0  0  0  0  0  0  0999 V2000
    6.1140   -1.7940    0.7480 C   0  0  0  0  0  0  0  0  0  0  0  0
    5.9960   -0.4620    0.0250 C   0  0  2  0  0  0  0  0  0  0  0  0
    5.3610   -0.6270   -1.3070 C   0  0  0  0  0  0  0  0  0  0  0  0
    7.3390   -0.0760   -0.2260 O   0  0  0  0  0  0  0  0  0  0  0  0
    5.4330    0.5480    0.9470 C   0  0  0  0  0  0  0  0  0  0  0  0
    4.0660    0.3170    1.3240 N   0  0  0  0  0  0  0  0  0  0  0  0
    3.0070    0.6690    0.4550 C   0  0  0  0  0  0  0  0  0  0  0  0
    1.7150    0.3590    0.8570 C   0  0  0  0  0  0  0  0  0  0  0  0
    0.6580    0.7150    0.0510 C   0  0  0  0  0  0  0  0  0  0  0  0
   -0.5400    0.4180    0.4420 N   0  0  0  0  0  0  0  0  0  0  0  0
   -1.7510    0.7170   -0.2780 C   0  0  2  0  0  0  0  0  0  0  0  0
   -2.1260    2.1690   -0.1220 C   0  0  0  0  0  0  0  0  0  0  0  0
   -2.8790    2.5730   -1.3710 C   0  0  0  0  0  0  0  0  0  0  0  0
   -4.2420    1.3580   -1.5370 S   0  0  0  0  0  0  0  0  0  0  0  0
   -4.2140    0.2700   -0.0760 C   0  0  1  0  0  0  0  0  0  0  0  0
   -5.0210   -0.8920   -0.4010 N   0  0  0  0  0  0  0  0  0  0  0  0
   -5.9820   -1.1960    0.6360 C   0  0  1  0  0  0  0  0  0  0  0  0
   -7.0090   -2.2440    0.1870 C   0  0  0  0  0  0  0  0  0  0  0  0
   -6.0550   -2.4940    1.2980 C   0  0  0  0  0  0  0  0  0  0  0  0
   -2.8210   -0.2120    0.2330 C   0  0  0  0  0  0  0  0  0  0  0  0
    0.8840    1.3530   -1.1050 N   0  0  0  0  0  0  0  0  0  0  0  0
    2.1500    1.6330   -1.4550 C   0  0  0  0  0  0  0  0  0  0  0  0
    3.2010    1.3050   -0.7020 N   0  0  0  0  0  0  0  0  0  0  0  0
  2  1  1  1
  2  3  1  0
  2  4  1  0
  2  5  1  0
  5  6  1  0
  6  7  1  0
  7  8  2  0
  7 23  1  0
  8  9  1  0
  9 10  2  3
  9 21  1  0
 11 10  1  1
 11 12  1  0
 11 20  1  0
 12 13  1  0
 13 14  1  0
 14 15  1  0
 15 16  1  6
 15 20  1  0
 17 16  1  6
 17 18  1  0
 17 19  1  0
 18 19  1  0
 21 22  1  0
 22 23  2  0
M  CHG  1  16   1
M  END
