
     RDKit          3D

 12 11  0  0  0  0  0  0  0  0999 V2000
    3.0280    0.0030   -1.3700 N   0  0  0  0  0  0  0  0  0  0  0  0
    2.1230    0.0640   -0.2920 C   0  0  0  0  0  0  0  0  0  0  0  0
    2.3640   -0.5640    0.7770 O   0  0  0  0  0  0  0  0  0  0  0  0
    0.9210    0.8410   -0.4030 C   0  0  0  0  0  0  0  0  0  0  0  0
    0.6250    1.5500   -1.5720 O   0  0  0  0  0  0  0  0  0  0  0  0
    0.0470    0.9080    0.6190 C   0  0  0  0  0  0  0  0  0  0  0  0
    0.4150    0.0210    2.0870 S   0  0  0  0  0  0  0  0  0  0  0  0
   -0.6970   -1.2660    2.4500 C   0  0  0  0  0  0  0  0  0  0  0  0
   -0.4270   -1.9650    3.4590 O   0  0  0  0  0  0  0  0  0  0  0  0
   -2.1370   -1.6910    1.5800 S   0  0  0  0  0  0  0  0  0  0  0  0
   -2.6680   -0.6810    0.2340 C   0  0  0  0  0  0  0  0  0  0  0  0
   -1.8310   -0.6650   -0.8780 O   0  0  0  0  0  0  0  0  0  0  0  0
  1  2  1  0
  2  3  2  0
  2  4  1  0
  4  5  1  0
  4  6  2  3
  6  7  1  0
  7  8  1  0
  8  9  2  0
  8 10  1  0
 10 11  1  0
 11 12  1  0
M  END
