
     RDKit          3D

 13 12  0  0  0  0  0  0  0  0999 V2000
   -3.6310    1.4920   -0.5300 N   0  0  0  0  0  0  0  0  0  0  0  0
   -3.3830    0.2430    0.1270 C   0  0  0  0  0  0  0  0  0  0  0  0
   -4.4760   -0.3180    1.2040 S   0  0  0  0  0  0  0  0  0  0  0  0
   -2.1810   -0.5570   -0.1290 C   0  0  0  0  0  0  0  0  0  0  0  0
   -0.9860    0.1290    0.1820 O   0  0  0  0  0  0  0  0  0  0  0  0
    0.2080   -0.5490   -0.0280 C   0  0  0  0  0  0  0  0  0  0  0  0
    0.2220   -1.7230   -0.4750 O   0  0  0  0  0  0  0  0  0  0  0  0
    1.5040    0.0750    0.2630 C   0  0  0  0  0  0  0  0  0  0  0  0
    2.6310   -0.5800    0.0600 C   0  0  0  0  0  0  0  0  0  0  0  0
    2.6620   -2.2170   -0.5630 Cl  0  0  0  0  0  0  0  0  0  0  0  0
    4.1410    0.2130    0.4240 S   0  0  2  0  0  0  0  0  0  0  0  0
    4.4260    1.1860   -0.6820 O   0  0  0  0  0  0  0  0  0  0  0  0
    5.2260   -0.7940    0.5240 O   0  0  0  0  0  0  0  0  0  0  0  0
  1  2  1  0
  2  3  2  0
  2  4  1  0
  4  5  1  0
  5  6  1  0
  6  7  2  0
  6  8  1  0
  8  9  2  3
  9 10  1  0
 11  9  1  6
 11 12  2  0
 11 13  2  0
M  END
