
     RDKit          3D

 23 24  0  0  0  0  0  0  0  0999 V2000
   -4.1840    2.5730    1.2670 N   0  0  0  0  0  0  0  0  0  0  0  0
   -3.3760    1.4140    1.3530 C   0  0  0  0  0  0  0  0  0  0  0  0
   -2.9450    1.0660    2.4740 O   0  0  0  0  0  0  0  0  0  0  0  0
   -3.0460    0.6280    0.1440 C   0  0  2  0  0  0  0  0  0  0  0  0
   -4.3490    0.1770   -0.4780 C   0  0  0  0  0  0  0  0  0  0  0  0
   -4.7150   -0.9690    0.4280 C   0  0  0  0  0  0  0  0  0  0  0  0
   -3.5620   -1.5020    0.9120 O   0  0  0  0  0  0  0  0  0  0  0  0
   -2.4700   -0.7190    0.5360 C   0  0  2  0  0  0  0  0  0  0  0  0
   -1.6320   -0.6420    1.6100 O   0  0  0  0  0  0  0  0  0  0  0  0
   -1.8410   -1.3580   -0.6570 C   0  0  0  0  0  0  0  0  0  0  0  0
   -0.7010   -0.6560   -1.1730 N   0  0  0  0  0  0  0  0  0  0  0  0
    0.5140   -0.4270   -0.4930 C   0  0  0  0  0  0  0  0  0  0  0  0
    0.6880   -0.8480    0.6660 O   0  0  0  0  0  0  0  0  0  0  0  0
    1.5730    0.2960   -1.1290 N   0  0  0  0  0  0  0  0  0  0  0  0
    2.7690    0.5060   -0.4400 N   0  0  0  0  0  0  0  0  0  0  0  0
    3.9330   -0.1780   -0.8810 C   0  0  0  0  0  0  0  0  0  0  0  0
    3.8310   -0.9490   -1.8840 O   0  0  0  0  0  0  0  0  0  0  0  0
    5.2300   -0.0200   -0.2180 C   0  0  0  0  0  0  0  0  0  0  0  0
    5.4680    0.7720    0.8450 N   0  0  0  0  0  0  0  0  0  0  0  0
    6.7370    0.6300    1.1310 N   0  0  0  0  0  0  0  0  0  0  0  0
    7.3180   -0.2370    0.2720 C   0  0  0  0  0  0  0  0  0  0  0  0
    8.5050   -0.6010    0.2550 O   0  0  0  0  0  0  0  0  0  0  0  0
    6.3630   -0.6500   -0.5840 N   0  0  0  0  0  0  0  0  0  0  0  0
  1  2  1  0
  2  3  2  0
  4  2  1  1
  4  5  1  0
  4  8  1  0
  5  6  1  0
  6  7  1  0
  7  8  1  0
  8  9  1  1
  8 10  1  0
 10 11  1  0
 11 12  1  0
 12 13  2  0
 12 14  1  0
 14 15  1  0
 15 16  1  0
 16 17  2  0
 16 18  1  0
 18 19  2  0
 18 23  1  0
 19 20  1  0
 20 21  1  0
 21 22  2  0
 21 23  1  0
M  END
