
     RDKit          3D

 16 17  0  0  0  0  0  0  0  0999 V2000
    2.8180    3.0410   -0.6220 O   0  0  0  0  0  0  0  0  0  0  0  0
    1.8210    2.4590   -0.0270 C   0  0  0  0  0  0  0  0  0  0  0  0
    0.9310    3.2950    0.5820 O   0  0  0  0  0  0  0  0  0  0  0  0
    1.8030    1.0170   -0.0990 C   0  0  0  0  0  0  0  0  0  0  0  0
    2.8290    0.3530   -0.7980 C   0  0  0  0  0  0  0  0  0  0  0  0
    2.8250   -1.0120   -0.8860 C   0  0  0  0  0  0  0  0  0  0  0  0
    1.8440   -1.7860   -0.3090 C   0  0  0  0  0  0  0  0  0  0  0  0
    0.8420   -1.1380    0.3750 C   0  0  0  0  0  0  0  0  0  0  0  0
    0.8200    0.2660    0.4810 C   0  0  0  0  0  0  0  0  0  0  0  0
   -0.2260    0.8780    1.2170 N   0  0  0  0  0  0  0  0  0  0  0  0
   -1.3100    0.0130    1.7330 C   0  0  0  0  0  0  0  0  0  0  0  0
   -2.0670   -0.5690    0.5920 C   0  0  0  0  0  0  0  0  0  0  0  0
   -1.8770   -0.2510   -0.7190 C   0  0  0  0  0  0  0  0  0  0  0  0
   -2.7700   -1.0010   -1.4690 C   0  0  0  0  0  0  0  0  0  0  0  0
   -3.4710   -1.7520   -0.5460 C   0  0  0  0  0  0  0  0  0  0  0  0
   -3.0200   -1.4620    0.6590 O   0  0  0  0  0  0  0  0  0  0  0  0
  1  2  2  0
  2  3  1  0
  2  4  1  0
  4  5  2  0
  4  9  1  0
  5  6  1  0
  6  7  2  0
  7  8  1  0
  8  9  2  0
  9 10  1  0
 10 11  1  0
 11 12  1  0
 12 13  2  0
 12 16  1  0
 13 14  1  0
 14 15  2  0
 15 16  1  0
M  END
