
     RDKit          3D

 21 24  0  0  0  0  0  0  0  0999 V2000
    5.6600   -1.2960    0.1720 N   0  0  0  0  0  0  0  0  0  0  0  0
    4.2430   -1.2990    0.0630 C   0  0  0  0  0  0  0  0  0  0  0  0
    3.6220   -2.4870   -0.0250 N   0  0  0  0  0  0  0  0  0  0  0  0
    2.2720   -2.5770   -0.1310 C   0  0  0  0  0  0  0  0  0  0  0  0
    1.4760   -1.4250   -0.1510 C   0  0  0  0  0  0  0  0  0  0  0  0
    2.1510   -0.2360   -0.0620 C   0  0  0  0  0  0  0  0  0  0  0  0
    3.4930   -0.1840    0.0430 N   0  0  0  0  0  0  0  0  0  0  0  0
    1.3180    0.9710   -0.1560 C   0  0  0  0  0  0  0  0  0  0  0  0
    1.9430    2.2010    0.0230 C   0  0  0  0  0  0  0  0  0  0  0  0
    1.1740    3.3610    0.0220 C   0  0  0  0  0  0  0  0  0  0  0  0
   -0.1920    3.3080   -0.1530 C   0  0  0  0  0  0  0  0  0  0  0  0
   -0.8100    2.0990   -0.3310 C   0  0  0  0  0  0  0  0  0  0  0  0
   -0.0340    0.9130   -0.3330 C   0  0  0  0  0  0  0  0  0  0  0  0
   -0.7070   -0.3660   -0.6100 C   0  0  2  0  0  0  0  0  0  0  0  0
   -2.1270   -0.3420   -0.1220 C   0  0  0  0  0  0  0  0  0  0  0  0
   -2.4420   -0.6430    1.1730 C   0  0  0  0  0  0  0  0  0  0  0  0
   -3.7820   -0.6080    1.5670 C   0  0  0  0  0  0  0  0  0  0  0  0
   -4.7800   -0.2760    0.6700 C   0  0  0  0  0  0  0  0  0  0  0  0
   -4.4590    0.0240   -0.6220 C   0  0  0  0  0  0  0  0  0  0  0  0
   -3.1380   -0.0150   -0.9940 C   0  0  0  0  0  0  0  0  0  0  0  0
    0.0190   -1.5630   -0.1980 C   0  0  0  0  0  0  0  0  0  0  0  0
  1  2  1  0
  2  3  2  0
  2  7  1  0
  3  4  1  0
  4  5  2  0
  5  6  1  0
  5 21  1  0
  6  7  2  0
  6  8  1  0
  8  9  2  0
  8 13  1  0
  9 10  1  0
 10 11  2  0
 11 12  1  0
 12 13  2  0
 13 14  1  0
 14 15  1  1
 14 21  1  0
 15 16  2  0
 15 20  1  0
 16 17  1  0
 17 18  2  0
 18 19  1  0
 19 20  2  0
M  END
