
     RDKit          3D

  9  8  0  0  0  0  0  0  0  0999 V2000
   -2.6410    1.0870    0.2340 C   0  0  0  0  0  0  0  0  0  0  0  0
   -1.4750    0.4720    0.9130 C   0  0  0  0  0  0  0  0  0  0  0  0
   -0.6990   -0.3920    0.2640 C   0  0  0  0  0  0  0  0  0  0  0  0
   -1.0120   -0.7350   -1.1470 C   0  0  0  0  0  0  0  0  0  0  0  0
   -1.2470   -2.1270   -1.2070 O   0  0  0  0  0  0  0  0  0  0  0  0
    0.3870   -0.9810    0.8570 O   0  0  0  0  0  0  0  0  0  0  0  0
    1.6190   -0.3730    1.0850 C   0  0  0  0  0  0  0  0  0  0  0  0
    2.2860    0.0970   -0.1930 C   0  0  0  0  0  0  0  0  0  0  0  0
    3.5060    0.6930    0.0930 O   0  0  0  0  0  0  0  0  0  0  0  0
  1  2  1  0
  2  3  2  3
  3  4  1  0
  3  6  1  0
  4  5  1  0
  6  7  1  0
  7  8  1  0
  8  9  1  0
M  END
