
     RDKit          3D

  9  8  0  0  0  0  0  0  0  0999 V2000
    3.8120   -0.2220    0.0720 C   0  0  0  0  0  0  0  0  0  0  0  0
    2.7120    0.5930    0.4170 O   0  0  0  0  0  0  0  0  0  0  0  0
    1.4190    0.2520   -0.0350 C   0  0  0  0  0  0  0  0  0  0  0  0
    1.3710   -0.7850   -0.7300 O   0  0  0  0  0  0  0  0  0  0  0  0
    0.3190    1.0930    0.3270 C   0  0  0  0  0  0  0  0  0  0  0  0
   -0.9430    0.9790    0.0300 C   0  0  0  0  0  0  0  0  0  0  0  0
   -1.5340   -0.0880   -0.7780 C   0  0  0  0  0  0  0  0  0  0  0  0
   -2.5780   -0.8340    0.0790 C   0  0  0  0  0  0  0  0  0  0  0  0
   -3.5750    0.0150    0.5000 O   0  0  0  0  0  0  0  0  0  0  0  0
  1  2  1  0
  2  3  1  0
  3  4  2  0
  3  5  1  0
  5  6  2  3
  6  7  1  0
  7  8  1  0
  8  9  1  0
M  END
