
     RDKit          3D

  9  8  0  0  0  0  0  0  0  0999 V2000
    3.7360    0.1980    0.1430 C   0  0  0  0  0  0  0  0  0  0  0  0
    2.2700    0.1210    0.0470 C   0  0  0  0  0  0  0  0  0  0  0  0
    1.6590   -0.6050   -0.8710 C   0  0  0  0  0  0  0  0  0  0  0  0
    0.2170   -0.6900   -0.9790 C   0  0  0  0  0  0  0  0  0  0  0  0
   -0.2950   -1.3990   -1.8750 O   0  0  0  0  0  0  0  0  0  0  0  0
   -0.6550   -0.0210   -0.1320 O   0  0  0  0  0  0  0  0  0  0  0  0
   -2.0500   -0.1610   -0.3100 C   0  0  0  0  0  0  0  0  0  0  0  0
   -2.8280    0.6420    0.7080 C   0  0  0  0  0  0  0  0  0  0  0  0
   -4.1930    0.4130    0.4180 O   0  0  0  0  0  0  0  0  0  0  0  0
  1  2  1  0
  2  3  2  3
  3  4  1  0
  4  5  2  0
  4  6  1  0
  6  7  1  0
  7  8  1  0
  8  9  1  0
M  END
