
     RDKit          3D

  9  8  0  0  0  0  0  0  0  0999 V2000
   -3.2200    0.2440    0.3000 C   0  0  0  0  0  0  0  0  0  0  0  0
   -2.4370   -0.6470   -0.6170 C   0  0  0  0  0  0  0  0  0  0  0  0
   -1.0480   -0.6800   -0.2920 O   0  0  0  0  0  0  0  0  0  0  0  0
   -0.3110    0.5180   -0.3260 C   0  0  0  0  0  0  0  0  0  0  0  0
   -0.9410    1.5580   -0.6470 O   0  0  0  0  0  0  0  0  0  0  0  0
    1.1110    0.5320   -0.0020 C   0  0  0  0  0  0  0  0  0  0  0  0
    1.7750   -0.5360    0.3320 C   0  0  0  0  0  0  0  0  0  0  0  0
    3.2110   -0.4530    0.6480 C   0  0  0  0  0  0  0  0  0  0  0  0
    3.6570    0.8720    0.5260 O   0  0  0  0  0  0  0  0  0  0  0  0
  1  2  1  0
  2  3  1  0
  3  4  1  0
  4  5  2  0
  4  6  1  0
  6  7  2  3
  7  8  1  0
  8  9  1  0
M  END
