
     RDKit          3D

  9  8  0  0  0  0  0  0  0  0999 V2000
    3.2240   -1.1200    0.5480 C   0  0  0  0  0  0  0  0  0  0  0  0
    2.8650    0.0180    1.2600 O   0  0  0  0  0  0  0  0  0  0  0  0
    1.5160    0.3520    1.0400 C   0  0  0  0  0  0  0  0  0  0  0  0
    1.2490    0.6010   -0.2630 O   0  0  0  0  0  0  0  0  0  0  0  0
   -0.0070    0.9500   -0.6370 C   0  0  0  0  0  0  0  0  0  0  0  0
   -1.1250    0.0100   -0.3710 C   0  0  2  0  0  0  0  0  0  0  0  0
   -2.3360    0.5920   -1.1660 C   0  0  0  0  0  0  0  0  0  0  0  0
   -1.5740   -0.0920    1.0410 C   0  0  0  0  0  0  0  0  0  0  0  0
   -0.9610   -1.2530   -0.9200 O   0  0  0  0  0  0  0  0  0  0  0  0
  1  2  1  0
  2  3  1  0
  3  4  1  0
  4  5  1  0
  5  6  1  0
  6  7  1  6
  6  8  1  0
  6  9  1  0
M  END
