
     RDKit          3D

  9  8  0  0  0  0  0  0  0  0999 V2000
   -2.5970   -1.2890   -0.0090 C   0  0  0  0  0  0  0  0  0  0  0  0
   -2.8730    0.1450   -0.2790 C   0  0  0  0  0  0  0  0  0  0  0  0
   -1.8740    0.9950   -0.3930 C   0  0  0  0  0  0  0  0  0  0  0  0
   -0.5810    0.5420   -0.2590 O   0  0  0  0  0  0  0  0  0  0  0  0
    0.5060    1.4330   -0.3430 C   0  0  0  0  0  0  0  0  0  0  0  0
    1.7940    0.7540   -0.1750 C   0  0  0  0  0  0  0  0  0  0  0  0
    2.8430    1.4400   -0.2280 O   0  0  0  0  0  0  0  0  0  0  0  0
    1.8760   -0.6010    0.0380 O   0  0  0  0  0  0  0  0  0  0  0  0
    3.1670   -1.1750    0.1900 C   0  0  0  0  0  0  0  0  0  0  0  0
  1  2  1  0
  2  3  2  3
  3  4  1  0
  4  5  1  0
  5  6  1  0
  6  7  2  0
  6  8  1  0
  8  9  1  0
M  END
