
     RDKit          3D

  9  9  0  0  0  0  0  0  0  0999 V2000
    3.1990    0.2870   -0.7010 O   0  0  0  0  0  0  0  0  0  0  0  0
    2.0040    0.3710   -0.0040 C   0  0  0  0  0  0  0  0  0  0  0  0
    1.6330   -0.9440    0.6500 C   0  0  0  0  0  0  0  0  0  0  0  0
    0.3890   -0.7160    1.3310 O   0  0  0  0  0  0  0  0  0  0  0  0
   -0.7400   -0.3080    0.5940 C   0  0  0  0  0  0  0  0  0  0  0  0
   -0.9830   -0.5240   -0.6860 C   0  0  0  0  0  0  0  0  0  0  0  0
   -2.2980    0.0910   -1.0270 C   0  0  0  0  0  0  0  0  0  0  0  0
   -2.8970    0.2420    0.2220 O   0  0  0  0  0  0  0  0  0  0  0  0
   -1.8910    0.4570    1.1290 C   0  0  0  0  0  0  0  0  0  0  0  0
  1  2  1  0
  2  3  1  0
  3  4  1  0
  4  5  1  0
  5  6  2  0
  5  9  1  0
  6  7  1  0
  7  8  1  0
  8  9  1  0
M  END
