
     RDKit          3D

  9  8  0  0  0  0  0  0  0  0999 V2000
   -1.3720   -1.5530    1.0780 C   0  0  0  0  0  0  0  0  0  0  0  0
   -1.8690   -0.3190    0.4150 C   0  0  0  0  0  0  0  0  0  0  0  0
   -1.0710    0.6820    0.1010 C   0  0  0  0  0  0  0  0  0  0  0  0
   -1.5670    1.9100   -0.5590 C   0  0  0  0  0  0  0  0  0  0  0  0
    0.2670    0.5840    0.3960 O   0  0  0  0  0  0  0  0  0  0  0  0
    1.2120    0.0550   -0.4630 C   0  0  0  0  0  0  0  0  0  0  0  0
    0.8440   -0.3650   -1.5820 O   0  0  0  0  0  0  0  0  0  0  0  0
    2.6550   -0.0280   -0.0920 C   0  0  0  0  0  0  0  0  0  0  0  0
    3.4050   -0.5870   -1.0980 O   0  0  0  0  0  0  0  0  0  0  0  0
  1  2  1  0
  2  3  2  3
  3  4  1  0
  3  5  1  0
  5  6  1  0
  6  7  2  0
  6  8  1  0
  8  9  1  0
M  END
