
     RDKit          3D

 14 15  0  0  0  0  0  0  0  0999 V2000
   -3.2770   -0.3110    0.3290 C   0  0  0  0  0  0  0  0  0  0  0  0
   -1.8450   -0.6320    0.0260 C   0  0  0  0  0  0  0  0  0  0  0  0
   -1.4690   -1.8570   -0.4400 C   0  0  0  0  0  0  0  0  0  0  0  0
   -0.1510   -2.1400   -0.7150 C   0  0  0  0  0  0  0  0  0  0  0  0
    0.8510   -1.2030   -0.5340 C   0  0  0  0  0  0  0  0  0  0  0  0
    2.1620   -1.5120   -0.8170 C   0  0  0  0  0  0  0  0  0  0  0  0
    3.1840   -0.6060   -0.6500 C   0  0  0  0  0  0  0  0  0  0  0  0
    2.8130    0.6330   -0.1790 C   0  0  0  0  0  0  0  0  0  0  0  0
    3.8060    1.5880    0.0090 O   0  0  0  0  0  0  0  0  0  0  0  0
    1.5000    0.9680    0.1130 C   0  0  0  0  0  0  0  0  0  0  0  0
    0.4800    0.0610   -0.0560 C   0  0  0  0  0  0  0  0  0  0  0  0
   -0.8360    0.3380    0.2170 C   0  0  0  0  0  0  0  0  0  0  0  0
   -1.3250    1.6150    0.7160 C   0  0  0  0  0  0  0  0  0  0  0  0
   -0.4800    2.6440    0.9500 O   0  0  0  0  0  0  0  0  0  0  0  0
  1  2  1  0
  2  3  2  0
  2 12  1  0
  3  4  1  0
  4  5  2  0
  5  6  1  0
  5 11  1  0
  6  7  2  0
  7  8  1  0
  8  9  1  0
  8 10  2  0
 10 11  1  0
 11 12  2  0
 12 13  1  0
 13 14  1  0
M  END
