
     RDKit          3D

 20 20  0  0  0  0  0  0  0  0999 V2000
    7.3510    0.1930    0.9950 C   0  0  0  0  0  0  0  0  0  0  0  0
    7.0520   -0.3810   -0.6980 S   0  0  0  0  0  0  0  0  0  0  0  0
    5.4180   -1.2050   -0.8070 C   0  0  0  0  0  0  0  0  0  0  0  0
    4.4200   -0.1740   -0.5680 N   0  0  0  0  0  0  0  0  0  0  0  0
    3.0210   -0.4750   -0.5710 C   0  0  0  0  0  0  0  0  0  0  0  0
    2.6910   -1.6880   -0.7920 O   0  0  0  0  0  0  0  0  0  0  0  0
    2.0110    0.5410   -0.3340 C   0  0  0  0  0  0  0  0  0  0  0  0
    2.3250    1.7240   -0.1280 O   0  0  0  0  0  0  0  0  0  0  0  0
    0.6760    0.1890   -0.3380 O   0  0  0  0  0  0  0  0  0  0  0  0
   -0.3710    1.1210   -0.1150 C   0  0  0  0  0  0  0  0  0  0  0  0
   -1.6680    0.4190   -0.1760 C   0  0  0  0  0  0  0  0  0  0  0  0
   -1.7230   -0.8080   -0.3950 O   0  0  0  0  0  0  0  0  0  0  0  0
   -2.8510    1.1620    0.0200 N   0  0  0  0  0  0  0  0  0  0  0  0
   -4.1030    0.4840   -0.0380 C   0  0  0  0  0  0  0  0  0  0  0  0
   -5.0380    0.7880   -0.8990 C   0  0  0  0  0  0  0  0  0  0  0  0
   -6.3210    0.0720   -0.9380 C   0  0  0  0  0  0  0  0  0  0  0  0
   -6.4440   -0.9350    0.0230 O   0  0  0  0  0  0  0  0  0  0  0  0
   -5.4620   -1.2600    0.9320 C   0  0  0  0  0  0  0  0  0  0  0  0
   -4.3130   -0.5930    0.9320 C   0  0  0  0  0  0  0  0  0  0  0  0
   -3.3280   -0.9270    1.8530 O   0  0  0  0  0  0  0  0  0  0  0  0
  1  2  1  0
  2  3  1  0
  3  4  1  0
  4  5  1  0
  5  6  2  0
  5  7  1  0
  7  8  2  0
  7  9  1  0
  9 10  1  0
 10 11  1  0
 11 12  2  0
 11 13  1  0
 13 14  1  0
 14 15  2  0
 14 19  1  0
 15 16  1  0
 16 17  1  0
 17 18  1  0
 18 19  2  0
 19 20  1  0
M  END
