
     RDKit          3D

 18 19  0  0  0  0  0  0  0  0999 V2000
    3.9180    1.5520    0.7440 C   0  0  0  0  0  0  0  0  0  0  0  0
    4.0290    0.3280    0.0760 O   0  0  0  0  0  0  0  0  0  0  0  0
    2.9260   -0.4180   -0.2850 C   0  0  0  0  0  0  0  0  0  0  0  0
    1.6660    0.0290    0.0070 C   0  0  0  0  0  0  0  0  0  0  0  0
    0.5320   -0.7200   -0.3550 C   0  0  0  0  0  0  0  0  0  0  0  0
   -0.7680   -0.1670   -0.0380 C   0  0  0  0  0  0  0  0  0  0  0  0
   -1.9680   -0.8140   -0.0300 C   0  0  0  0  0  0  0  0  0  0  0  0
   -3.1830   -0.2030    0.3230 C   0  0  0  0  0  0  0  0  0  0  0  0
   -4.4570   -0.9600    0.3110 C   0  0  0  0  0  0  0  0  0  0  0  0
   -3.1440    1.0850    0.6710 N   0  0  0  0  0  0  0  0  0  0  0  0
   -1.9750    1.7680    0.6780 C   0  0  0  0  0  0  0  0  0  0  0  0
   -1.9860    3.1430    1.0570 N   0  0  0  0  0  0  0  0  0  0  0  0
   -0.8430    1.1580    0.3370 N   0  0  0  0  0  0  0  0  0  0  0  0
    0.7560   -1.8940   -1.0010 C   0  0  0  0  0  0  0  0  0  0  0  0
   -0.5410   -2.9220   -1.5640 Cl  0  0  0  0  0  0  0  0  0  0  0  0
    2.0360   -2.3680   -1.3080 C   0  0  0  0  0  0  0  0  0  0  0  0
    3.1210   -1.6160   -0.9430 C   0  0  0  0  0  0  0  0  0  0  0  0
    4.7500   -2.1920   -1.3180 Cl  0  0  0  0  0  0  0  0  0  0  0  0
  1  2  1  0
  2  3  1  0
  3  4  2  0
  3 17  1  0
  4  5  1  0
  5  6  1  0
  5 14  2  0
  6  7  2  0
  6 13  1  0
  7  8  1  0
  8  9  1  0
  8 10  2  0
 10 11  1  0
 11 12  1  0
 11 13  2  0
 14 15  1  0
 14 16  1  0
 16 17  2  0
 17 18  1  0
M  END
