
     RDKit          3D

 14 15  0  0  0  0  0  0  0  0999 V2000
    3.9170   -0.8140   -1.0120 C   0  0  0  0  0  0  0  0  0  0  0  0
    2.6810   -0.1800   -0.4780 C   0  0  0  0  0  0  0  0  0  0  0  0
    2.7190    1.0300    0.1670 C   0  0  0  0  0  0  0  0  0  0  0  0
    1.5630    1.5820    0.6440 C   0  0  0  0  0  0  0  0  0  0  0  0
    0.3600    0.9680    0.5020 C   0  0  0  0  0  0  0  0  0  0  0  0
   -0.8110    1.5480    0.9970 C   0  0  0  0  0  0  0  0  0  0  0  0
   -2.0310    0.9090    0.8440 C   0  0  0  0  0  0  0  0  0  0  0  0
   -3.1930    1.4750    1.3300 O   0  0  0  0  0  0  0  0  0  0  0  0
   -2.1080   -0.3060    0.2020 C   0  0  0  0  0  0  0  0  0  0  0  0
   -3.4420   -0.9890    0.0440 C   0  0  0  0  0  0  0  0  0  0  0  0
   -3.3190   -2.1860   -0.6190 O   0  0  0  0  0  0  0  0  0  0  0  0
   -0.9450   -0.8570   -0.2760 C   0  0  0  0  0  0  0  0  0  0  0  0
    0.2870   -0.2500   -0.1420 C   0  0  0  0  0  0  0  0  0  0  0  0
    1.4630   -0.8000   -0.6210 C   0  0  0  0  0  0  0  0  0  0  0  0
  1  2  1  0
  2  3  2  0
  2 14  1  0
  3  4  1  0
  4  5  2  0
  5  6  1  0
  5 13  1  0
  6  7  2  0
  7  8  1  0
  7  9  1  0
  9 10  1  0
  9 12  2  0
 10 11  1  0
 12 13  1  0
 13 14  2  0
M  END
