
     RDKit          3D

 14 15  0  0  0  0  0  0  0  0999 V2000
    3.1170    0.8410    0.3340 C   0  0  0  0  0  0  0  0  0  0  0  0
    2.0660   -0.1960    0.2200 C   0  0  0  0  0  0  0  0  0  0  0  0
    0.6940    0.2990    0.0730 C   0  0  0  0  0  0  0  0  0  0  0  0
    0.3450    1.6140    0.0380 C   0  0  0  0  0  0  0  0  0  0  0  0
    1.3290    2.5660    0.1450 O   0  0  0  0  0  0  0  0  0  0  0  0
   -1.0000    1.9360   -0.1060 C   0  0  0  0  0  0  0  0  0  0  0  0
   -1.3100    3.2820   -0.1380 O   0  0  0  0  0  0  0  0  0  0  0  0
   -1.9690    0.9650   -0.2120 C   0  0  0  0  0  0  0  0  0  0  0  0
   -1.6280   -0.3710   -0.1770 C   0  0  0  0  0  0  0  0  0  0  0  0
   -2.5860   -1.3720   -0.2810 C   0  0  0  0  0  0  0  0  0  0  0  0
   -2.2450   -2.7070   -0.2460 C   0  0  0  0  0  0  0  0  0  0  0  0
   -0.9120   -3.0270   -0.1040 C   0  0  0  0  0  0  0  0  0  0  0  0
    0.0330   -2.0320   -0.0010 C   0  0  0  0  0  0  0  0  0  0  0  0
   -0.2940   -0.6880   -0.0340 C   0  0  0  0  0  0  0  0  0  0  0  0
  1  2  1  0
  2  3  1  0
  3  4  2  0
  3 14  1  0
  4  5  1  0
  4  6  1  0
  6  7  1  0
  6  8  2  0
  8  9  1  0
  9 10  2  0
  9 14  1  0
 10 11  1  0
 11 12  2  0
 12 13  1  0
 13 14  2  0
M  END
