
     RDKit          3D

 14 15  0  0  0  0  0  0  0  0999 V2000
    3.5050    0.9050   -0.5620 C   0  0  0  0  0  0  0  0  0  0  0  0
    3.4050   -0.5820   -0.8030 C   0  0  0  0  0  0  0  0  0  0  0  0
    2.5300   -1.1330    0.1270 O   0  0  0  0  0  0  0  0  0  0  0  0
    1.2110   -0.8680    0.3260 C   0  0  0  0  0  0  0  0  0  0  0  0
    0.5390    0.0520   -0.4490 C   0  0  0  0  0  0  0  0  0  0  0  0
   -0.8150    0.3190   -0.2390 C   0  0  0  0  0  0  0  0  0  0  0  0
   -1.4600   -0.3620    0.7650 C   0  0  0  0  0  0  0  0  0  0  0  0
   -0.7860   -1.3000    1.5580 C   0  0  0  0  0  0  0  0  0  0  0  0
    0.5460   -1.5550    1.3430 C   0  0  0  0  0  0  0  0  0  0  0  0
    1.2780   -2.4600    2.0770 O   0  0  0  0  0  0  0  0  0  0  0  0
   -2.8790   -0.1280    1.0380 C   0  0  0  0  0  0  0  0  0  0  0  0
   -3.5710    0.8600    0.1940 C   0  0  0  0  0  0  0  0  0  0  0  0
   -2.8020    1.5330   -0.8470 C   0  0  0  0  0  0  0  0  0  0  0  0
   -1.5330    1.2820   -1.0430 C   0  0  0  0  0  0  0  0  0  0  0  0
  1  2  1  0
  2  3  1  0
  3  4  1  0
  4  5  2  0
  4  9  1  0
  5  6  1  0
  6  7  2  0
  6 14  1  0
  7  8  1  0
  7 11  1  0
  8  9  2  0
  9 10  1  0
 11 12  1  0
 12 13  1  0
 13 14  2  0
M  END
