
     RDKit          3D

 20 20  0  0  0  0  0  0  0  0999 V2000
    5.9860    1.8980   -0.1910 N   0  0  0  0  0  0  0  0  0  0  0  0
    6.4130    0.5690   -0.1070 C   0  0  0  0  0  0  0  0  0  0  0  0
    7.6330    0.3030   -0.0560 O   0  0  0  0  0  0  0  0  0  0  0  0
    5.4250   -0.5210   -0.0780 C   0  0  0  0  0  0  0  0  0  0  0  0
    4.1320    0.0430   -0.1470 O   0  0  0  0  0  0  0  0  0  0  0  0
    3.0310   -0.7700   -0.1360 C   0  0  0  0  0  0  0  0  0  0  0  0
    3.2120   -2.0110   -0.0640 O   0  0  0  0  0  0  0  0  0  0  0  0
    1.6550   -0.2600   -0.2050 C   0  0  0  0  0  0  0  0  0  0  0  0
    0.6430   -1.0880   -0.1910 C   0  0  0  0  0  0  0  0  0  0  0  0
    0.6550   -2.4790   -0.1150 O   0  0  0  0  0  0  0  0  0  0  0  0
   -0.6340   -2.8970    0.3570 C   0  0  0  0  0  0  0  0  0  0  0  0
   -1.4730   -1.9110   -0.2100 O   0  0  0  0  0  0  0  0  0  0  0  0
   -0.7870   -0.7030   -0.2540 C   0  0  0  0  0  0  0  0  0  0  0  0
   -1.2270    0.5140   -0.3320 C   0  0  0  0  0  0  0  0  0  0  0  0
   -2.6070    0.9010   -0.3940 C   0  0  0  0  0  0  0  0  0  0  0  0
   -2.8850    2.1510   -0.4690 O   0  0  0  0  0  0  0  0  0  0  0  0
   -3.6860    0.0190   -0.3800 N   0  0  0  0  0  0  0  0  0  0  0  0
   -5.0760    0.3160   -0.4220 C   0  0  0  0  0  0  0  0  0  0  0  0
   -5.6440    1.0690    0.7200 C   0  0  0  0  0  0  0  0  0  0  0  0
   -5.0040    2.7010    1.0310 S   0  0  0  0  0  0  0  0  0  0  0  0
  1  2  1  0
  2  3  2  0
  2  4  1  0
  4  5  1  0
  5  6  1  0
  6  7  2  0
  6  8  1  0
  8  9  2  3
  9 10  1  0
  9 13  1  0
 10 11  1  0
 11 12  1  0
 12 13  1  0
 13 14  2  3
 14 15  1  0
 15 16  2  0
 15 17  1  0
 17 18  1  0
 18 19  1  0
 19 20  1  0
M  END
