
     RDKit          3D

 20 20  0  0  0  0  0  0  0  0999 V2000
   -2.8930   -1.5630    0.8490 C   0  0  0  0  0  0  0  0  0  0  0  0
   -2.0740   -0.6060   -0.0250 C   0  0  1  0  0  0  0  0  0  0  0  0
   -2.1150   -1.0820   -1.4640 C   0  0  0  0  0  0  0  0  0  0  0  0
   -2.6090    0.7240    0.1200 N   0  0  0  0  0  0  0  0  0  0  0  0
   -3.9550    1.0110   -0.2270 C   0  0  0  0  0  0  0  0  0  0  0  0
   -4.6940    0.0930   -0.6670 O   0  0  0  0  0  0  0  0  0  0  0  0
   -4.5010    2.3760   -0.0770 C   0  0  0  0  0  0  0  0  0  0  0  0
   -5.8340    2.4380   -0.4730 O   0  0  0  0  0  0  0  0  0  0  0  0
   -0.6870   -0.6730    0.4620 C   0  0  0  0  0  0  0  0  0  0  0  0
   -0.1560    0.3630    0.9180 O   0  0  0  0  0  0  0  0  0  0  0  0
    0.0810   -1.8220    0.4470 O   0  0  0  0  0  0  0  0  0  0  0  0
    1.3950   -1.8700    0.9120 C   0  0  0  0  0  0  0  0  0  0  0  0
    2.3050   -0.9550    0.1860 C   0  0  0  0  0  0  0  0  0  0  0  0
    1.8860   -0.2260   -0.7490 O   0  0  0  0  0  0  0  0  0  0  0  0
    3.6700   -0.8800    0.5310 N   0  0  0  0  0  0  0  0  0  0  0  0
    4.5160    0.0200   -0.1980 C   0  0  0  0  0  0  0  0  0  0  0  0
    5.5850   -0.2600   -0.9140 C   0  0  0  0  0  0  0  0  0  0  0  0
    6.2260    0.7570   -1.5160 O   0  0  0  0  0  0  0  0  0  0  0  0
    6.0550    2.0440   -0.9730 C   0  0  0  0  0  0  0  0  0  0  0  0
    4.3440    1.8010   -0.3200 S   0  0  0  0  0  0  0  0  0  0  0  0
  2  1  1  1
  2  3  1  0
  2  4  1  0
  2  9  1  0
  4  5  1  0
  5  6  2  0
  5  7  1  0
  7  8  1  0
  9 10  2  0
  9 11  1  0
 11 12  1  0
 12 13  1  0
 13 14  2  0
 13 15  1  0
 15 16  1  0
 16 17  2  0
 16 20  1  0
 17 18  1  0
 18 19  1  0
 19 20  1  0
M  END
