
     RDKit          3D

 14 15  0  0  0  0  0  0  0  0999 V2000
   -2.8800    2.0040   -0.2090 O   0  0  0  0  0  0  0  0  0  0  0  0
   -3.2380    0.7510    0.2870 C   0  0  0  0  0  0  0  0  0  0  0  0
   -2.0260   -0.0950    0.4460 C   0  0  0  0  0  0  0  0  0  0  0  0
   -0.7610    0.3820    0.1200 C   0  0  0  0  0  0  0  0  0  0  0  0
    0.3700   -0.3950    0.2640 C   0  0  0  0  0  0  0  0  0  0  0  0
    1.6920    0.1360   -0.0870 C   0  0  0  0  0  0  0  0  0  0  0  0
    1.9460    1.3400   -0.5530 C   0  0  0  0  0  0  0  0  0  0  0  0
    3.3990    1.4470   -0.7670 C   0  0  0  0  0  0  0  0  0  0  0  0
    3.9440    0.1450   -0.3630 C   0  0  0  0  0  0  0  0  0  0  0  0
    2.9350   -0.6030    0.0290 C   0  0  0  0  0  0  0  0  0  0  0  0
    0.2280   -1.6780    0.7450 C   0  0  0  0  0  0  0  0  0  0  0  0
   -1.0080   -2.1850    1.0770 C   0  0  0  0  0  0  0  0  0  0  0  0
   -2.1320   -1.3740    0.9200 C   0  0  0  0  0  0  0  0  0  0  0  0
   -3.3650   -1.8920    1.2570 O   0  0  0  0  0  0  0  0  0  0  0  0
  1  2  1  0
  2  3  1  0
  3  4  2  0
  3 13  1  0
  4  5  1  0
  5  6  1  0
  5 11  2  0
  6  7  2  0
  6 10  1  0
  7  8  1  0
  8  9  1  0
  9 10  2  0
 11 12  1  0
 12 13  2  0
 13 14  1  0
M  END
