
     RDKit          3D

 22 24  0  0  0  0  0  0  0  0999 V2000
   -3.7480   -2.4760    1.3340 C   0  0  0  0  0  0  0  0  0  0  0  0
   -3.0930   -1.2470    0.7580 C   0  0  0  0  0  0  0  0  0  0  0  0
   -1.7170   -1.2250    0.7130 C   0  0  0  0  0  0  0  0  0  0  0  0
   -1.0440   -0.1380    0.2030 C   0  0  0  0  0  0  0  0  0  0  0  0
    0.3580   -0.0280    0.1170 N   0  0  0  0  0  0  0  0  0  0  0  0
    1.2430   -1.0390    0.5540 C   0  0  0  0  0  0  0  0  0  0  0  0
    0.8560   -2.1210    1.0550 O   0  0  0  0  0  0  0  0  0  0  0  0
    2.6770   -0.8500    0.4320 C   0  0  0  0  0  0  0  0  0  0  0  0
    3.2000    0.2870   -0.0980 C   0  0  0  0  0  0  0  0  0  0  0  0
    4.5910    0.4590   -0.2100 C   0  0  0  0  0  0  0  0  0  0  0  0
    5.3820   -0.5660    0.2360 C   0  0  0  0  0  0  0  0  0  0  0  0
    7.1310   -0.4010    0.1170 Cl  0  0  0  0  0  0  0  0  0  0  0  0
    4.8360   -1.7200    0.7740 C   0  0  0  0  0  0  0  0  0  0  0  0
    3.5050   -1.8190    0.8520 N   0  0  0  0  0  0  0  0  0  0  0  0
   -1.8300    0.9330   -0.2650 C   0  0  0  0  0  0  0  0  0  0  0  0
   -1.2680    2.0720   -0.7970 C   0  0  0  0  0  0  0  0  0  0  0  0
   -2.0700    3.1320   -1.2580 C   0  0  0  0  0  0  0  0  0  0  0  0
   -1.2870    4.5440   -1.9200 Cl  0  0  0  0  0  0  0  0  0  0  0  0
   -3.4330    3.0060   -1.1670 C   0  0  0  0  0  0  0  0  0  0  0  0
   -3.9890    1.9010   -0.6500 N   0  0  0  0  0  0  0  0  0  0  0  0
   -3.2110    0.8950   -0.2130 C   0  0  0  0  0  0  0  0  0  0  0  0
   -3.7910   -0.2210    0.3090 N   0  0  0  0  0  0  0  0  0  0  0  0
  1  2  1  0
  2  3  2  0
  2 22  1  0
  3  4  1  0
  4  5  1  0
  4 15  2  0
  5  6  1  0
  6  7  2  0
  6  8  1  0
  8  9  2  0
  8 14  1  0
  9 10  1  0
 10 11  2  0
 11 12  1  0
 11 13  1  0
 13 14  2  0
 15 16  1  0
 15 21  1  0
 16 17  2  0
 17 18  1  0
 17 19  1  0
 19 20  2  0
 20 21  1  0
 21 22  2  0
M  END
