
     RDKit          3D

 22 24  0  0  0  0  0  0  0  0999 V2000
    4.9230   -1.7650   -0.1370 C   0  0  0  0  0  0  0  0  0  0  0  0
    3.7890   -1.1600    0.0450 O   0  0  0  0  0  0  0  0  0  0  0  0
    2.6820   -0.5830    0.2270 C   0  0  0  0  0  0  0  0  0  0  0  0
    1.4310   -0.6560    0.6600 C   0  0  0  0  0  0  0  0  0  0  0  0
    0.5270    0.3420    0.5890 C   0  0  0  0  0  0  0  0  0  0  0  0
   -0.9030    0.0720    0.6990 C   0  0  0  0  0  0  0  0  0  0  0  0
   -1.5290   -0.4070    1.7860 N   0  0  0  0  0  0  0  0  0  0  0  0
   -2.9410   -0.5720    1.8050 C   0  0  0  0  0  0  0  0  0  0  0  0
   -3.5820   -1.5310    2.7870 C   0  0  0  0  0  0  0  0  0  0  0  0
   -3.5460   -0.1910    0.8000 N   0  0  0  0  0  0  0  0  0  0  0  0
   -3.0920    0.3250   -0.3390 C   0  0  0  0  0  0  0  0  0  0  0  0
   -3.7700    0.6900   -1.4870 N   0  0  0  0  0  0  0  0  0  0  0  0
   -2.7210    1.0650   -2.2930 C   0  0  0  0  0  0  0  0  0  0  0  0
   -1.4440    0.9150   -1.6760 C   0  0  0  0  0  0  0  0  0  0  0  0
   -0.3090    1.1500   -2.3530 C   0  0  0  0  0  0  0  0  0  0  0  0
    0.7800    1.3670   -3.0110 N   0  0  0  0  0  0  0  0  0  0  0  0
   -1.7750    0.4450   -0.4280 C   0  0  0  0  0  0  0  0  0  0  0  0
    0.8600    1.6010    0.0830 C   0  0  0  0  0  0  0  0  0  0  0  0
   -0.1680    2.9840    0.3450 Cl  0  0  0  0  0  0  0  0  0  0  0  0
    2.1350    1.7450   -0.4090 C   0  0  0  0  0  0  0  0  0  0  0  0
    3.0930    0.7740   -0.3980 C   0  0  0  0  0  0  0  0  0  0  0  0
    4.7240    1.0460   -0.9260 Cl  0  0  0  0  0  0  0  0  0  0  0  0
  1  2  1  0
  2  3  1  0
  3  4  2  0
  3 21  1  0
  4  5  1  0
  5  6  1  0
  5 18  2  0
  6  7  2  0
  6 17  1  0
  7  8  1  0
  8  9  1  0
  8 10  2  0
 10 11  1  0
 11 12  1  0
 11 17  2  0
 12 13  1  0
 13 14  2  0
 14 15  1  0
 14 17  1  0
 15 16  3  0
 18 19  1  0
 18 20  1  0
 20 21  2  0
 21 22  1  0
M  END
