
     RDKit          3D

 22 24  0  0  0  0  0  0  0  0999 V2000
   -2.3440    3.2180    0.7330 C   0  0  0  0  0  0  0  0  0  0  0  0
   -1.9860    2.0610    0.1540 C   0  0  0  0  0  0  0  0  0  0  0  0
   -2.5120    1.8820   -1.1890 C   0  0  0  0  0  0  0  0  0  0  0  0
   -2.9090    0.5720   -1.5300 O   0  0  0  0  0  0  0  0  0  0  0  0
   -2.2060   -0.6340   -1.2820 C   0  0  0  0  0  0  0  0  0  0  0  0
   -2.2710   -1.5670   -2.1810 C   0  0  0  0  0  0  0  0  0  0  0  0
   -3.2220   -1.2790   -3.6270 Cl  0  0  0  0  0  0  0  0  0  0  0  0
   -1.4160   -3.0660   -2.0380 Cl  0  0  0  0  0  0  0  0  0  0  0  0
   -1.4290   -0.8690   -0.0830 C   0  0  0  0  0  0  0  0  0  0  0  0
   -1.6620   -2.0460    0.4980 C   0  0  0  0  0  0  0  0  0  0  0  0
   -0.9430   -2.4380    1.7340 C   0  0  0  0  0  0  0  0  0  0  0  0
   -0.4540    0.0480    0.5720 C   0  0  1  0  0  0  0  0  0  0  0  0
    0.7040    0.3190   -0.2530 N   0  0  0  0  0  0  0  0  0  0  0  0
    0.6860    0.8760   -1.4510 N   0  0  0  0  0  0  0  0  0  0  0  0
    1.9130    0.9840   -1.9400 N   0  0  0  0  0  0  0  0  0  0  0  0
    2.7880    0.4790   -1.0330 C   0  0  0  0  0  0  0  0  0  0  0  0
    4.1610    0.3380   -1.0180 C   0  0  0  0  0  0  0  0  0  0  0  0
    4.7520   -0.2360    0.0970 C   0  0  0  0  0  0  0  0  0  0  0  0
    3.9590   -0.6490    1.1540 C   0  0  0  0  0  0  0  0  0  0  0  0
    2.6060   -0.4980    1.1110 C   0  0  0  0  0  0  0  0  0  0  0  0
    1.9970    0.0660    0.0210 C   0  0  0  0  0  0  0  0  0  0  0  0
   -1.1660    1.2270    0.9430 N   0  0  0  0  0  0  0  0  0  0  0  0
  1  2  2  0
  2  3  1  0
  2 22  1  0
  3  4  1  0
  4  5  1  0
  5  6  2  3
  5  9  1  0
  6  7  1  0
  6  8  1  0
  9 10  2  3
  9 12  1  0
 10 11  1  0
 12 13  1  6
 12 22  1  0
 13 14  1  0
 13 21  1  0
 14 15  2  0
 15 16  1  0
 16 17  2  0
 16 21  1  0
 17 18  1  0
 18 19  2  0
 19 20  1  0
 20 21  2  0
M  END
