
     RDKit          3D

 22 24  0  0  0  0  0  0  0  0999 V2000
   -3.5370   -0.3510   -2.4920 O   0  0  0  0  0  0  0  0  0  0  0  0
   -2.3220   -0.0120   -2.3110 C   0  0  0  0  0  0  0  0  0  0  0  0
   -1.4700    0.2950   -3.4060 N   0  0  0  0  0  0  0  0  0  0  0  0
   -0.1080    0.6730   -3.2260 C   0  0  0  0  0  0  0  0  0  0  0  0
    0.3050    0.7150   -1.8080 C   0  0  0  0  0  0  0  0  0  0  0  0
   -0.4970    0.4270   -0.8030 C   0  0  0  0  0  0  0  0  0  0  0  0
    0.0070    0.4950    0.6160 C   0  0  0  0  0  0  0  0  0  0  0  0
    1.3950   -0.0590    0.7230 C   0  0  0  0  0  0  0  0  0  0  0  0
    2.2770    0.3980   -0.3780 C   0  0  0  0  0  0  0  0  0  0  0  0
    3.5820    0.1440   -0.2870 C   0  0  0  0  0  0  0  0  0  0  0  0
    4.1110   -0.5620    0.8620 C   0  0  0  0  0  0  0  0  0  0  0  0
    5.3920   -0.8060    0.9410 C   0  0  0  0  0  0  0  0  0  0  0  0
    6.4490   -0.2770   -0.3410 Cl  0  0  0  0  0  0  0  0  0  0  0  0
    6.0790   -1.6540    2.3120 Cl  0  0  0  0  0  0  0  0  0  0  0  0
    1.7020    1.1090   -1.5180 C   0  0  0  0  0  0  0  0  0  0  0  0
   -1.8580    0.0460   -0.9690 N   0  0  0  0  0  0  0  0  0  0  0  0
   -2.7050   -0.2590    0.1420 C   0  0  0  0  0  0  0  0  0  0  0  0
   -3.3220   -1.4290    0.2150 N   0  0  0  0  0  0  0  0  0  0  0  0
   -4.1290   -1.7500    1.2510 C   0  0  0  0  0  0  0  0  0  0  0  0
   -4.3440   -0.8590    2.2860 C   0  0  0  0  0  0  0  0  0  0  0  0
   -3.6990    0.3590    2.2060 C   0  0  0  0  0  0  0  0  0  0  0  0
   -2.9030    0.6240    1.1440 N   0  0  0  0  0  0  0  0  0  0  0  0
  1  2  2  0
  2  3  1  0
  2 16  1  0
  3  4  1  0
  4  5  1  0
  5  6  2  0
  5 15  1  0
  6  7  1  0
  6 16  1  0
  7  8  1  0
  8  9  1  0
  9 10  2  3
  9 15  1  0
 10 11  1  0
 11 12  2  3
 12 13  1  0
 12 14  1  0
 16 17  1  0
 17 18  2  0
 17 22  1  0
 18 19  1  0
 19 20  2  0
 20 21  1  0
 21 22  2  0
M  END
