
     RDKit          3D

 22 24  0  0  0  0  0  0  0  0999 V2000
    4.1450    1.1100    0.2880 C   0  0  0  0  0  0  0  0  0  0  0  0
    3.2070    0.5510   -0.7150 C   0  0  0  0  0  0  0  0  0  0  0  0
    3.5700    0.5290   -2.0440 C   0  0  0  0  0  0  0  0  0  0  0  0
    2.6980    0.0060   -2.9760 C   0  0  0  0  0  0  0  0  0  0  0  0
    1.5110   -0.4750   -2.5790 N   0  0  0  0  0  0  0  0  0  0  0  0
    1.1030   -0.4820   -1.3110 C   0  0  0  0  0  0  0  0  0  0  0  0
   -0.1370   -1.0090   -0.9310 N   0  0  0  0  0  0  0  0  0  0  0  0
   -0.2610   -2.4110   -0.6430 C   0  0  0  0  0  0  0  0  0  0  0  0
   -1.2810   -2.7150    0.3860 C   0  0  0  0  0  0  0  0  0  0  0  0
   -1.8950   -1.5510    1.0550 C   0  0  0  0  0  0  0  0  0  0  0  0
   -2.5010   -1.7110    2.2740 N   0  0  0  0  0  0  0  0  0  0  0  0
   -3.0740   -0.7190    2.9210 N   0  0  0  0  0  0  0  0  0  0  0  0
   -3.1000    0.5220    2.4240 C   0  0  0  0  0  0  0  0  0  0  0  0
   -3.6310    1.5120    2.9900 O   0  0  0  0  0  0  0  0  0  0  0  0
   -2.4980    0.7660    1.1760 C   0  0  0  0  0  0  0  0  0  0  0  0
   -2.5460    2.0880    0.5940 C   0  0  0  0  0  0  0  0  0  0  0  0
   -1.5670    2.9300    0.4370 C   0  0  0  0  0  0  0  0  0  0  0  0
   -1.8550    4.4830   -0.3060 Cl  0  0  0  0  0  0  0  0  0  0  0  0
    0.0320    2.5740    1.0180 Cl  0  0  0  0  0  0  0  0  0  0  0  0
   -1.9070   -0.2800    0.5150 C   0  0  0  0  0  0  0  0  0  0  0  0
   -1.2890   -0.1340   -0.8290 C   0  0  0  0  0  0  0  0  0  0  0  0
    1.9760    0.0440   -0.3670 C   0  0  0  0  0  0  0  0  0  0  0  0
  1  2  1  0
  2  3  2  0
  2 22  1  0
  3  4  1  0
  4  5  2  0
  5  6  1  0
  6  7  1  0
  6 22  2  0
  7  8  1  0
  7 21  1  0
  8  9  1  0
  9 10  1  0
 10 11  2  0
 10 20  1  0
 11 12  1  0
 12 13  1  0
 13 14  2  0
 13 15  1  0
 15 16  1  0
 15 20  2  0
 16 17  2  3
 17 18  1  0
 17 19  1  0
 20 21  1  0
M  END
