
     RDKit          3D

 22 24  0  0  0  0  0  0  0  0999 V2000
   -2.5430    3.2100    1.5040 C   0  0  0  0  0  0  0  0  0  0  0  0
   -2.9100    1.9940    1.1270 C   0  0  0  0  0  0  0  0  0  0  0  0
   -4.3170    1.5680    1.2550 C   0  0  0  0  0  0  0  0  0  0  0  0
   -4.7110    0.3610    0.8870 C   0  0  0  0  0  0  0  0  0  0  0  0
   -3.7700   -0.5590    0.3540 N   0  0  0  0  0  0  0  0  0  0  0  0
   -2.3850   -0.2090    0.2010 C   0  0  0  0  0  0  0  0  0  0  0  0
   -1.9630    1.0320    0.5760 C   0  0  0  0  0  0  0  0  0  0  0  0
   -0.6220    1.1060    0.3310 N   0  0  0  0  0  0  0  0  0  0  0  0
   -0.2350   -0.0610   -0.1810 C   0  0  0  0  0  0  0  0  0  0  0  0
   -1.3200   -0.8870   -0.2680 N   0  0  0  0  0  0  0  0  0  0  0  0
   -1.4240   -2.2320   -0.7550 C   0  0  0  0  0  0  0  0  0  0  0  0
   -0.3040   -3.1480   -0.4060 C   0  0  0  0  0  0  0  0  0  0  0  0
    0.9340   -2.8810   -1.1140 N   0  0  0  0  0  0  0  0  0  0  0  0
    1.5270   -1.5760   -1.3010 C   0  0  0  0  0  0  0  0  0  0  0  0
    2.4220   -1.4440   -2.1490 O   0  0  0  0  0  0  0  0  0  0  0  0
    1.1680   -0.3630   -0.5720 C   0  0  0  0  0  0  0  0  0  0  0  0
    2.0770    0.5270   -0.2450 C   0  0  0  0  0  0  0  0  0  0  0  0
    1.4680    1.9640    0.6150 Cl  0  0  0  0  0  0  0  0  0  0  0  0
    3.4820    0.4260   -0.4790 C   0  0  0  0  0  0  0  0  0  0  0  0
    4.3180    1.4120   -0.1030 C   0  0  0  0  0  0  0  0  0  0  0  0
    5.7570    1.2530   -0.3700 C   0  0  0  0  0  0  0  0  0  0  0  0
    3.7680    2.8600    0.6810 Cl  0  0  0  0  0  0  0  0  0  0  0  0
  1  2  2  0
  2  3  1  0
  2  7  1  0
  3  4  2  0
  4  5  1  0
  5  6  1  0
  6  7  2  0
  6 10  1  0
  7  8  1  0
  8  9  2  0
  9 10  1  0
  9 16  1  0
 10 11  1  0
 11 12  1  0
 12 13  1  0
 13 14  1  0
 14 15  2  0
 14 16  1  0
 16 17  2  3
 17 18  1  0
 17 19  1  0
 19 20  2  3
 20 21  1  0
 20 22  1  0
M  END
