
     RDKit          3D

 12 11  0  0  0  0  0  0  0  0999 V2000
    3.3480   -0.9840   -0.8770 C   0  0  0  0  0  0  0  0  0  0  0  0
    3.1150    0.1910   -0.3320 C   0  0  0  0  0  0  0  0  0  0  0  0
    3.8230    1.3910   -0.9110 C   0  0  0  0  0  0  0  0  0  0  0  0
    2.2010    0.4250    0.8140 C   0  0  0  0  0  0  0  0  0  0  0  0
    1.5280   -0.8060    1.3210 C   0  0  0  0  0  0  0  0  0  0  0  0
    0.7400   -1.4610    0.4160 O   0  0  0  0  0  0  0  0  0  0  0  0
   -0.3060   -0.7180   -0.0930 C   0  0  0  0  0  0  0  0  0  0  0  0
   -1.2700   -0.2380    0.9460 C   0  0  2  0  0  0  0  0  0  0  0  0
   -1.8730   -1.2710    1.6460 O   0  0  0  0  0  0  0  0  0  0  0  0
   -2.3600    0.5570    0.2620 C   0  0  0  0  0  0  0  0  0  0  0  0
   -3.1250   -0.2510   -0.7510 C   0  0  0  0  0  0  0  0  0  0  0  0
   -4.1770    0.6660   -1.3460 C   0  0  0  0  0  0  0  0  0  0  0  0
  1  2  2  0
  2  3  1  0
  2  4  1  0
  4  5  1  0
  5  6  1  0
  6  7  1  0
  7  8  1  0
  8  9  1  6
  8 10  1  0
 10 11  1  0
 11 12  1  0
M  END
