
     RDKit          3D

 22 24  0  0  0  0  0  0  0  0999 V2000
   -4.5780   -0.5040    2.1630 C   0  0  0  0  0  0  0  0  0  0  0  0
   -3.4370   -0.3930    1.5710 C   0  0  0  0  0  0  0  0  0  0  0  0
   -3.0220    0.9700    1.2510 N   0  0  0  0  0  0  0  0  0  0  0  0
   -1.8010    1.1950    0.6090 C   0  0  0  0  0  0  0  0  0  0  0  0
   -1.3610    2.4180    0.2880 C   0  0  0  0  0  0  0  0  0  0  0  0
   -2.1980    3.5930    0.6240 C   0  0  0  0  0  0  0  0  0  0  0  0
   -0.9570    0.0580    0.2670 C   0  0  0  0  0  0  0  0  0  0  0  0
    0.2250    0.2910   -0.3550 N   0  0  0  0  0  0  0  0  0  0  0  0
    1.0810   -0.6770   -0.7170 C   0  0  0  0  0  0  0  0  0  0  0  0
    2.2980   -0.3360   -1.3660 N   0  0  0  0  0  0  0  0  0  0  0  0
    3.1970   -1.3980   -1.7420 C   0  0  0  0  0  0  0  0  0  0  0  0
    4.5320   -1.1090   -1.0860 C   0  0  0  0  0  0  0  0  0  0  0  0
    4.5230    0.1200   -0.4090 O   0  0  0  0  0  0  0  0  0  0  0  0
    4.1660    1.1440   -1.3070 C   0  0  0  0  0  0  0  0  0  0  0  0
    2.7000    1.0120   -1.6770 C   0  0  0  0  0  0  0  0  0  0  0  0
    0.7180   -1.9140   -0.4340 N   0  0  0  0  0  0  0  0  0  0  0  0
   -0.4480   -2.2690    0.1900 C   0  0  0  0  0  0  0  0  0  0  0  0
   -0.7360   -3.9530    0.4700 Cl  0  0  0  0  0  0  0  0  0  0  0  0
   -1.3060   -1.2730    0.5500 C   0  0  0  0  0  0  0  0  0  0  0  0
   -2.6060   -1.5400    1.2360 C   0  0  0  0  0  0  0  0  0  0  0  0
   -2.9390   -2.7770    1.5030 C   0  0  0  0  0  0  0  0  0  0  0  0
   -4.4540   -3.2140    2.3120 Cl  0  0  0  0  0  0  0  0  0  0  0  0
  1  2  2  0
  2  3  1  0
  2 20  1  0
  3  4  1  0
  4  5  2  3
  4  7  1  0
  5  6  1  0
  7  8  2  0
  7 19  1  0
  8  9  1  0
  9 10  1  0
  9 16  2  0
 10 11  1  0
 10 15  1  0
 11 12  1  0
 12 13  1  0
 13 14  1  0
 14 15  1  0
 16 17  1  0
 17 18  1  0
 17 19  2  0
 19 20  1  0
 20 21  2  3
 21 22  1  0
M  END
