
     RDKit          3D

 20 22  0  0  0  0  0  0  0  0999 V2000
   -2.7760    2.1600    0.7950 C   0  0  0  0  0  0  0  0  0  0  0  0
   -3.3180    0.7890    1.1260 C   0  0  1  0  0  0  0  0  0  0  0  0
   -4.8340    0.8000    1.2370 C   0  0  0  0  0  0  0  0  0  0  0  0
   -5.1660   -0.6680    1.1240 C   0  0  0  0  0  0  0  0  0  0  0  0
   -4.1700   -1.1500    0.1000 C   0  0  0  0  0  0  0  0  0  0  0  0
   -3.1050   -0.1650    0.0750 N   0  0  0  0  0  0  0  0  0  0  0  0
   -2.0380   -0.1820   -0.8640 C   0  0  0  0  0  0  0  0  0  0  0  0
   -2.0910   -0.1340   -2.1330 N   0  0  0  0  0  0  0  0  0  0  0  0
   -0.8590   -0.1710   -2.7260 N   0  0  0  0  0  0  0  0  0  0  0  0
    0.1670   -0.2570   -1.6710 C   0  0  0  0  0  0  0  0  0  0  0  0
    1.4270   -0.3060   -1.9560 C   0  0  0  0  0  0  0  0  0  0  0  0
    2.6050   -0.3920   -1.1020 C   0  0  0  0  0  0  0  0  0  0  0  0
    3.7920   -0.4270   -1.7060 C   0  0  0  0  0  0  0  0  0  0  0  0
    5.1430   -0.5100   -1.1660 C   0  0  0  0  0  0  0  0  0  0  0  0
    5.1830   -0.5730    0.5680 S   0  0  2  0  0  0  0  0  0  0  0  0
    6.0770    0.5440    1.2000 N   0  0  0  0  0  0  0  0  0  0  0  0
    5.8860   -1.8190    1.0920 O   0  0  0  0  0  0  0  0  0  0  0  0
    3.5630   -0.5170    1.1590 C   0  0  0  0  0  0  0  0  0  0  0  0
    2.5410   -0.4400    0.3370 C   0  0  0  0  0  0  0  0  0  0  0  0
   -0.6220   -0.2610   -0.5130 N   0  0  0  0  0  0  0  0  0  0  0  0
  2  1  1  6
  2  3  1  0
  2  6  1  0
  3  4  1  0
  4  5  1  0
  5  6  1  0
  6  7  1  0
  7  8  2  0
  7 20  1  0
  8  9  1  0
  9 10  1  0
 10 11  2  3
 10 20  1  0
 11 12  1  0
 12 13  2  0
 12 19  1  0
 13 14  1  0
 15 14  1  6
 15 16  2  0
 15 17  2  0
 15 18  1  0
 18 19  2  0
M  CHG  1  16   1
M  END
