
     RDKit          3D

 20 22  0  0  0  0  0  0  0  0999 V2000
   -1.1500   -2.3730    1.2610 C   0  0  0  0  0  0  0  0  0  0  0  0
   -0.2320   -1.2350    0.8230 C   0  0  2  0  0  0  0  0  0  0  0  0
   -0.8380   -0.5530   -0.2960 N   0  0  0  0  0  0  0  0  0  0  0  0
   -1.1800    0.8220    0.0090 C   0  0  0  0  0  0  0  0  0  0  0  0
   -2.6500    0.9570    0.3420 C   0  0  2  0  0  0  0  0  0  0  0  0
   -3.5440    0.6950   -0.8340 C   0  0  0  0  0  0  0  0  0  0  0  0
   -4.7770    1.5260   -0.4650 C   0  0  0  0  0  0  0  0  0  0  0  0
   -4.3210    2.2630    0.7760 C   0  0  0  0  0  0  0  0  0  0  0  0
   -2.9210    2.2930    0.6260 O   0  0  0  0  0  0  0  0  0  0  0  0
    1.0770   -1.8460    0.4990 C   0  0  0  0  0  0  0  0  0  0  0  0
    1.4130   -3.1200    0.5450 N   0  0  0  0  0  0  0  0  0  0  0  0
    2.7840   -3.2440    0.1460 N   0  0  0  0  0  0  0  0  0  0  0  0
    3.3950   -1.9950    0.4720 C   0  0  1  0  0  0  0  0  0  0  0  0
    4.5130   -1.5250   -0.3900 C   0  0  0  0  0  0  0  0  0  0  0  0
    4.1590   -0.0960   -0.5700 N   0  0  0  0  0  0  0  0  0  0  0  0
    2.7190   -0.0120   -0.5240 C   0  0  0  0  0  0  0  0  0  0  0  0
    1.9440    1.0650   -1.0150 N   0  0  0  0  0  0  0  0  0  0  0  0
    1.8660    2.3510   -0.3720 C   0  0  0  0  0  0  0  0  0  0  0  0
    3.4950    3.1480   -0.2550 S   0  0  0  0  0  0  0  0  0  0  0  0
    2.2340   -1.0890    0.0490 C   0  0  0  0  0  0  0  0  0  0  0  0
  2  1  1  6
  2  3  1  0
  2 10  1  0
  3  4  1  0
  5  4  1  6
  5  6  1  0
  5  9  1  0
  6  7  1  0
  7  8  1  0
  8  9  1  0
 10 11  2  0
 10 20  1  0
 11 12  1  0
 12 13  1  0
 13 14  1  6
 13 20  1  0
 14 15  1  0
 15 16  1  0
 16 17  1  0
 16 20  2  0
 17 18  1  0
 18 19  1  0
M  CHG  1   3   1
M  END
