
     RDKit          3D

 20 21  0  0  0  0  0  0  0  0999 V2000
    2.4020    2.6470    1.8450 C   0  0  0  0  0  0  0  0  0  0  0  0
    1.9320    1.8650    0.9120 C   0  0  0  0  0  0  0  0  0  0  0  0
    0.5450    2.0430    0.4320 C   0  0  0  0  0  0  0  0  0  0  0  0
   -0.0330    0.7260    0.1600 N   0  0  0  0  0  0  0  0  0  0  0  0
    0.7860   -0.3140   -0.3920 C   0  0  0  0  0  0  0  0  0  0  0  0
    2.0620   -0.2450   -0.2930 N   0  0  0  0  0  0  0  0  0  0  0  0
    2.7470    0.8060    0.3400 C   0  0  0  0  0  0  0  0  0  0  0  0
    4.0740    0.8330    0.3890 C   0  0  0  0  0  0  0  0  0  0  0  0
    4.9970   -0.1300   -0.1260 C   0  0  0  0  0  0  0  0  0  0  0  0
    4.7020   -1.2010   -0.7310 N   0  0  0  0  0  0  0  0  0  0  0  0
    0.0940   -1.4220   -1.0550 C   0  0  0  0  0  0  0  0  0  0  0  0
   -1.1020   -1.9310   -0.3390 C   0  0  2  0  0  0  0  0  0  0  0  0
   -2.0180   -2.6730   -1.3200 C   0  0  0  0  0  0  0  0  0  0  0  0
   -1.8830   -0.9450    0.4390 C   0  0  1  0  0  0  0  0  0  0  0  0
   -1.9850   -1.3290    1.8550 N   0  0  0  0  0  0  0  0  0  0  0  0
   -1.3710    0.4390    0.4210 C   0  0  0  0  0  0  0  0  0  0  0  0
   -2.1680    1.4330    0.6510 N   0  0  0  0  0  0  0  0  0  0  0  0
   -3.5690    1.2970    0.9340 C   0  0  0  0  0  0  0  0  0  0  0  0
   -4.4740    1.4140   -0.6070 S   0  0  0  0  0  0  0  0  0  0  0  0
   -5.9390    1.7620   -0.3910 O   0  0  0  0  0  0  0  0  0  0  0  0
  1  2  2  0
  2  3  1  0
  2  7  1  0
  3  4  1  0
  4  5  1  0
  4 16  1  0
  5  6  2  0
  5 11  1  0
  6  7  1  0
  7  8  2  3
  8  9  1  0
  9 10  2  0
 11 12  1  0
 12 13  1  6
 12 14  1  0
 14 15  1  1
 14 16  1  0
 16 17  2  3
 17 18  1  0
 18 19  1  0
 19 20  2  0
M  CHG  1  10   1
M  END
