
     RDKit          3D

 20 22  0  0  0  0  0  0  0  0999 V2000
   -5.3150   -1.4730   -1.9540 N   0  0  0  0  0  0  0  0  0  0  0  0
   -4.2270   -0.3540   -1.5830 S   0  0  1  0  0  0  0  0  0  0  0  0
   -4.1870    0.4060   -2.9580 N   0  0  0  0  0  0  0  0  0  0  0  0
   -4.7710    0.6490   -0.2660 C   0  0  0  0  0  0  0  0  0  0  0  0
   -3.7990    0.6340    0.8440 C   0  0  0  0  0  0  0  0  0  0  0  0
   -2.6600   -0.0200    0.9050 C   0  0  0  0  0  0  0  0  0  0  0  0
   -1.6640   -0.0290    2.0540 C   0  0  0  0  0  0  0  0  0  0  0  0
   -1.0030   -1.3890    1.8650 C   0  0  0  0  0  0  0  0  0  0  0  0
   -0.8060   -1.4210    0.3470 C   0  0  2  0  0  0  0  0  0  0  0  0
    0.2610   -0.4680    0.0690 N   0  0  0  0  0  0  0  0  0  0  0  0
    1.5150   -0.5860    0.5200 C   0  0  0  0  0  0  0  0  0  0  0  0
    2.2770    0.4760    0.0810 C   0  0  0  0  0  0  0  0  0  0  0  0
    3.7160    0.7350    0.3510 C   0  0  0  0  0  0  0  0  0  0  0  0
    4.6030    0.1100   -0.6990 C   0  0  0  0  0  0  0  0  0  0  0  0
    6.0420    0.4530   -0.3000 C   0  0  0  0  0  0  0  0  0  0  0  0
    6.9640   -0.0610   -1.1810 O   0  0  0  0  0  0  0  0  0  0  0  0
    1.4050    1.2570   -0.6700 C   0  0  0  0  0  0  0  0  0  0  0  0
    0.2090    0.6420   -0.6420 N   0  0  0  0  0  0  0  0  0  0  0  0
   -2.1060   -0.8760   -0.1150 C   0  0  0  0  0  0  0  0  0  0  0  0
   -2.7260   -1.0680   -1.2150 N   0  0  0  0  0  0  0  0  0  0  0  0
  1  2  2  0
  2  3  2  0
  2  4  1  1
  2 20  1  0
  4  5  1  0
  5  6  2  0
  6  7  1  0
  6 19  1  0
  7  8  1  0
  8  9  1  0
  9 10  1  1
  9 19  1  0
 10 11  1  0
 10 18  1  0
 11 12  2  0
 12 13  1  0
 12 17  1  0
 13 14  1  0
 14 15  1  0
 15 16  1  0
 17 18  2  0
 19 20  2  0
M  CHG  1   3   1
M  END
