
     RDKit          3D

 20 22  0  0  0  0  0  0  0  0999 V2000
   -4.3780   -2.2290    0.0770 C   0  0  0  0  0  0  0  0  0  0  0  0
   -4.4290   -0.8320   -0.3070 N   0  0  0  0  0  0  0  0  0  0  0  0
   -5.4450   -0.1900   -0.8740 C   0  0  0  0  0  0  0  0  0  0  0  0
   -6.5670   -0.6580   -1.1940 O   0  0  0  0  0  0  0  0  0  0  0  0
   -5.0920    1.1040   -1.0730 N   0  0  0  0  0  0  0  0  0  0  0  0
   -3.8360    1.2370   -0.6130 C   0  0  0  0  0  0  0  0  0  0  0  0
   -2.9540    2.3060   -0.5450 C   0  0  0  0  0  0  0  0  0  0  0  0
   -1.6860    2.1040    0.0070 C   0  0  0  0  0  0  0  0  0  0  0  0
   -1.2960    0.8720    0.4820 C   0  0  0  0  0  0  0  0  0  0  0  0
    0.0390    0.6420    1.0670 C   0  0  0  0  0  0  0  0  0  0  0  0
    0.9450    0.2460    0.0120 N   0  0  0  0  0  0  0  0  0  0  0  0
    2.1130   -0.4430    0.4960 C   0  0  2  0  0  0  0  0  0  0  0  0
    2.9520    0.3910    1.4170 C   0  0  0  0  0  0  0  0  0  0  0  0
    3.4880    1.5570    0.6530 C   0  0  0  0  0  0  0  0  0  0  0  0
    3.6390    0.8980   -1.0550 S   0  0  0  0  0  0  0  0  0  0  0  0
    2.9750   -0.7800   -0.7030 C   0  0  1  0  0  0  0  0  0  0  0  0
    4.1360   -1.6660   -0.3400 C   0  0  0  0  0  0  0  0  0  0  0  0
    4.8840   -1.9210   -1.5560 N   0  0  0  0  0  0  0  0  0  0  0  0
   -2.1880   -0.1340    0.3930 N   0  0  0  0  0  0  0  0  0  0  0  0
   -3.4090    0.0230   -0.1290 C   0  0  0  0  0  0  0  0  0  0  0  0
  1  2  1  0
  2  3  1  0
  2 20  1  0
  3  4  2  0
  3  5  1  0
  5  6  1  0
  6  7  2  0
  6 20  1  0
  7  8  1  0
  8  9  2  0
  9 10  1  0
  9 19  1  0
 10 11  1  0
 12 11  1  6
 12 13  1  0
 12 16  1  0
 13 14  1  0
 14 15  1  0
 15 16  1  0
 16 17  1  1
 17 18  1  0
 19 20  2  0
M  CHG  1  11   1
M  END
