
     RDKit          3D

 20 22  0  0  0  0  0  0  0  0999 V2000
   -3.2400    2.2960   -1.1700 O   0  0  0  0  0  0  0  0  0  0  0  0
   -3.5630    1.2970   -0.4740 C   0  0  0  0  0  0  0  0  0  0  0  0
   -4.8710    0.7130   -0.6260 N   0  0  0  0  0  0  0  0  0  0  0  0
   -4.9920   -0.7220   -0.3890 C   0  0  0  0  0  0  0  0  0  0  0  0
   -3.5840   -1.2870   -0.4790 C   0  0  0  0  0  0  0  0  0  0  0  0
   -2.8210   -0.7100    0.7110 C   0  0  0  0  0  0  0  0  0  0  0  0
   -2.5740    0.7350    0.5020 C   0  0  1  0  0  0  0  0  0  0  0  0
   -1.2280    1.0310    0.0120 N   0  0  0  0  0  0  0  0  0  0  0  0
   -0.2270    0.7930    0.9930 C   0  0  0  0  0  0  0  0  0  0  0  0
    1.0380    0.2270    0.5030 C   0  0  0  0  0  0  0  0  0  0  0  0
    2.1010    0.9310    0.7050 N   0  0  0  0  0  0  0  0  0  0  0  0
    3.4810    0.7370    0.3900 C   0  0  0  0  0  0  0  0  0  0  0  0
    4.4140    1.6780    0.4910 C   0  0  0  0  0  0  0  0  0  0  0  0
    5.7170    1.1040    0.0800 C   0  0  0  0  0  0  0  0  0  0  0  0
    5.4080   -0.2890   -0.2690 C   0  0  0  0  0  0  0  0  0  0  0  0
    4.1180   -0.4830   -0.0850 C   0  0  0  0  0  0  0  0  0  0  0  0
    3.4570   -1.7460   -0.3310 N   0  0  0  0  0  0  0  0  0  0  0  0
    2.0610   -1.9560   -0.4790 C   0  0  0  0  0  0  0  0  0  0  0  0
    1.6230   -3.4120   -1.0930 S   0  0  0  0  0  0  0  0  0  0  0  0
    1.0140   -1.0400   -0.1520 N   0  0  0  0  0  0  0  0  0  0  0  0
  1  2  2  0
  2  3  1  0
  2  7  1  0
  3  4  1  0
  4  5  1  0
  5  6  1  0
  6  7  1  0
  7  8  1  6
  8  9  1  0
  9 10  1  0
 10 11  2  0
 10 20  1  0
 11 12  1  0
 12 13  2  0
 12 16  1  0
 13 14  1  0
 14 15  1  0
 15 16  2  0
 16 17  1  0
 17 18  1  0
 18 19  2  0
 18 20  1  0
M  CHG  1   8   1
M  END
