
     RDKit          3D

 20 22  0  0  0  0  0  0  0  0999 V2000
    5.6580   -0.8550    0.9470 N   0  0  0  0  0  0  0  0  0  0  0  0
    5.2260   -1.3000   -0.3210 C   0  0  0  0  0  0  0  0  0  0  0  0
    5.1080   -2.8930   -0.6030 S   0  0  0  0  0  0  0  0  0  0  0  0
    4.8790   -0.3460   -1.3920 C   0  0  0  0  0  0  0  0  0  0  0  0
    3.7550    0.5040   -0.8860 C   0  0  0  0  0  0  0  0  0  0  0  0
    2.4540    0.1390   -1.0810 N   0  0  0  0  0  0  0  0  0  0  0  0
    1.4440    0.9000   -0.6280 C   0  0  0  0  0  0  0  0  0  0  0  0
    0.0180    0.5240   -0.8270 C   0  0  0  0  0  0  0  0  0  0  0  0
   -0.5030   -0.3160    0.3100 C   0  0  0  0  0  0  0  0  0  0  0  0
   -1.9220   -0.6640    0.0530 C   0  0  1  0  0  0  0  0  0  0  0  0
   -2.4850   -1.5000    1.1320 N   0  0  0  0  0  0  0  0  0  0  0  0
   -3.8390   -1.0560    1.2160 C   0  0  2  0  0  0  0  0  0  0  0  0
   -4.4810   -1.2360   -0.1390 C   0  0  0  0  0  0  0  0  0  0  0  0
   -4.0090   -0.0790   -1.0070 C   0  0  0  0  0  0  0  0  0  0  0  0
   -2.8680    0.4580   -0.1430 C   0  0  1  0  0  0  0  0  0  0  0  0
   -3.6050    0.4650    1.2120 C   0  0  0  0  0  0  0  0  0  0  0  0
    1.7460    2.0290    0.0200 N   0  0  0  0  0  0  0  0  0  0  0  0
    3.0280    2.4240    0.2320 C   0  0  0  0  0  0  0  0  0  0  0  0
    3.2790    3.4920    0.8450 O   0  0  0  0  0  0  0  0  0  0  0  0
    4.0450    1.6430   -0.2320 N   0  0  0  0  0  0  0  0  0  0  0  0
  1  2  1  0
  2  3  2  0
  2  4  1  0
  4  5  1  0
  5  6  1  0
  5 20  2  0
  6  7  2  0
  7  8  1  0
  7 17  1  0
  8  9  1  0
 10  9  1  1
 10 11  1  0
 10 15  1  0
 11 12  1  0
 12 13  1  6
 12 16  1  0
 13 14  1  0
 15 14  1  6
 15 16  1  0
 17 18  1  0
 18 19  2  0
 18 20  1  0
M  CHG  1  11   1
M  END
