
     RDKit          3D

 20 22  0  0  0  0  0  0  0  0999 V2000
    3.9560    2.6430    0.1290 C   0  0  0  0  0  0  0  0  0  0  0  0
    3.1980    1.7060    0.9920 C   0  0  0  0  0  0  0  0  0  0  0  0
    2.1010    1.0130    0.3890 N   0  0  0  0  0  0  0  0  0  0  0  0
    2.2170   -0.1860   -0.2630 C   0  0  0  0  0  0  0  0  0  0  0  0
    3.4930   -0.9240   -0.4790 C   0  0  0  0  0  0  0  0  0  0  0  0
    3.4560   -2.3410   -0.2590 C   0  0  0  0  0  0  0  0  0  0  0  0
    3.9880   -3.0080    0.8330 N   0  0  0  0  0  0  0  0  0  0  0  0
    2.8720   -3.0450   -1.1770 O   0  0  0  0  0  0  0  0  0  0  0  0
    0.9910   -0.5060   -0.6390 N   0  0  0  0  0  0  0  0  0  0  0  0
    0.0800    0.3770   -0.2910 N   0  0  0  0  0  0  0  0  0  0  0  0
   -1.3120    0.2980   -0.5600 C   0  0  2  0  0  0  0  0  0  0  0  0
   -2.0500    1.6000   -0.3060 C   0  0  0  0  0  0  0  0  0  0  0  0
   -3.4740    1.1040   -0.6440 C   0  0  0  0  0  0  0  0  0  0  0  0
   -3.5110   -0.1320    0.2560 C   0  0  1  0  0  0  0  0  0  0  0  0
   -4.4180   -0.0900    1.4100 C   0  0  0  0  0  0  0  0  0  0  0  0
   -4.6580   -1.0440    0.2090 C   0  0  0  0  0  0  0  0  0  0  0  0
   -2.0760   -0.6100    0.3820 C   0  0  1  0  0  0  0  0  0  0  0  0
   -1.9320   -1.9750   -0.0670 N   0  0  0  0  0  0  0  0  0  0  0  0
    0.7900    1.3380    0.3580 C   0  0  0  0  0  0  0  0  0  0  0  0
    0.2140    2.7030    0.9900 S   0  0  0  0  0  0  0  0  0  0  0  0
  1  2  1  0
  2  3  1  0
  3  4  1  0
  3 19  1  0
  4  5  1  0
  4  9  2  0
  5  6  1  0
  6  7  1  0
  6  8  2  0
  9 10  1  0
 11 10  1  1
 10 19  1  0
 11 12  1  0
 11 17  1  0
 12 13  1  0
 14 13  1  6
 14 15  1  0
 14 16  1  0
 14 17  1  0
 15 16  1  0
 17 18  1  6
 19 20  2  0
M  CHG  1  18   1
M  END
