
     RDKit          3D

 16 17  0  0  0  0  0  0  0  0999 V2000
    4.3720    1.5730    1.1700 C   0  0  0  0  0  0  0  0  0  0  0  0
    3.2450    0.6880    0.7120 C   0  0  0  0  0  0  0  0  0  0  0  0
    2.8500    0.4300   -0.5850 C   0  0  0  0  0  0  0  0  0  0  0  0
    1.7770   -0.4320   -0.6080 C   0  0  0  0  0  0  0  0  0  0  0  0
    1.0250   -0.9960   -1.7530 C   0  0  0  0  0  0  0  0  0  0  0  0
   -0.1700   -1.5670   -1.3070 O   0  0  0  0  0  0  0  0  0  0  0  0
   -1.1490   -0.8360   -0.6860 C   0  0  0  0  0  0  0  0  0  0  0  0
   -1.0330    0.5130   -0.4710 C   0  0  0  0  0  0  0  0  0  0  0  0
   -2.0480    1.2310    0.1670 C   0  0  0  0  0  0  0  0  0  0  0  0
   -3.1720    0.5480    0.5740 C   0  0  0  0  0  0  0  0  0  0  0  0
   -4.2220    1.1910    1.2140 O   0  0  0  0  0  0  0  0  0  0  0  0
   -3.2930   -0.8110    0.3590 C   0  0  0  0  0  0  0  0  0  0  0  0
   -4.4380   -1.5450    0.7660 N   0  0  0  0  0  0  0  0  0  0  0  0
   -2.2880   -1.5350   -0.2750 C   0  0  0  0  0  0  0  0  0  0  0  0
    1.5190   -0.7020    0.7400 C   0  0  0  0  0  0  0  0  0  0  0  0
    2.4100   -0.0200    1.4990 N   0  0  0  0  0  0  0  0  0  0  0  0
  1  2  1  0
  2  3  2  0
  2 16  1  0
  3  4  1  0
  4  5  1  0
  4 15  2  0
  5  6  1  0
  6  7  1  0
  7  8  2  0
  7 14  1  0
  8  9  1  0
  9 10  2  0
 10 11  1  0
 10 12  1  0
 12 13  1  0
 12 14  2  0
 15 16  1  0
M  END
