
     RDKit          3D

 16 16  0  0  0  0  0  0  0  0999 V2000
   -4.3760   -1.0710   -0.0110 C   0  0  0  0  0  0  0  0  0  0  0  0
   -3.1130   -0.5450   -0.2120 C   0  0  0  0  0  0  0  0  0  0  0  0
   -2.0640   -1.1290    0.5780 C   0  0  0  0  0  0  0  0  0  0  0  0
   -0.8180   -0.9940    0.7400 C   0  0  0  0  0  0  0  0  0  0  0  0
    0.1540   -0.1460    0.1680 C   0  0  0  0  0  0  0  0  0  0  0  0
    1.4700   -0.1830    0.5080 C   0  0  0  0  0  0  0  0  0  0  0  0
    2.5060    0.6810   -0.0630 C   0  0  0  0  0  0  0  0  0  0  0  0
    2.3200    1.6130   -0.9820 C   0  0  0  0  0  0  0  0  0  0  0  0
    3.7990    0.3490    0.5470 C   0  0  0  0  0  0  0  0  0  0  0  0
    4.9550    0.9260    0.2730 C   0  0  0  0  0  0  0  0  0  0  0  0
    3.5470   -0.6940    1.4680 N   0  0  0  0  0  0  0  0  0  0  0  0
    2.1410   -1.0330    1.4610 C   0  0  0  0  0  0  0  0  0  0  0  0
    1.7060   -1.9260    2.1990 O   0  0  0  0  0  0  0  0  0  0  0  0
   -3.0980    0.4960   -1.1870 C   0  0  0  0  0  0  0  0  0  0  0  0
   -4.3640    0.8690   -1.8300 N   0  0  0  0  0  0  0  0  0  0  0  0
   -2.1480    1.1570   -1.5880 O   0  0  0  0  0  0  0  0  0  0  0  0
  1  2  2  0
  2  3  1  0
  2 14  1  0
  3  4  2  3
  4  5  1  0
  5  6  2  3
  6  7  1  0
  6 12  1  0
  7  8  2  0
  7  9  1  0
  9 10  2  0
  9 11  1  0
 11 12  1  0
 12 13  2  0
 14 15  1  0
 14 16  2  0
M  END
