
     RDKit          3D

 22 24  0  0  0  0  0  0  0  0999 V2000
    6.9740    1.6350   -0.6660 N   0  0  0  0  0  0  0  0  0  0  0  0
    6.0480    0.6030   -0.4130 C   0  0  0  0  0  0  0  0  0  0  0  0
    4.7230    0.8610   -0.2370 N   0  0  0  0  0  0  0  0  0  0  0  0
    4.1430   -0.3280   -0.0200 C   0  0  0  0  0  0  0  0  0  0  0  0
    2.7620   -0.5270    0.2140 N   0  0  0  0  0  0  0  0  0  0  0  0
    1.8700    0.6130    0.2290 C   0  0  0  0  0  0  0  0  0  0  0  0
    0.4680    0.2130   -0.1650 C   0  0  0  0  0  0  0  0  0  0  0  0
   -0.0740   -0.8530    0.6050 N   0  0  1  0  0  0  0  0  0  0  0  0
   -1.0590   -1.6400   -0.1170 C   0  0  0  0  0  0  0  0  0  0  0  0
   -2.2640   -0.8530   -0.5070 C   0  0  0  0  0  0  0  0  0  0  0  0
   -2.9530   -0.3050    0.5830 O   0  0  0  0  0  0  0  0  0  0  0  0
   -4.0950    0.4540    0.3950 C   0  0  0  0  0  0  0  0  0  0  0  0
   -4.7730    0.9930    1.4820 C   0  0  0  0  0  0  0  0  0  0  0  0
   -5.9040    1.7400    1.2340 C   0  0  0  0  0  0  0  0  0  0  0  0
   -6.3870    1.9730   -0.0340 C   0  0  0  0  0  0  0  0  0  0  0  0
   -7.9610    3.0150   -0.3560 Br  0  0  0  0  0  0  0  0  0  0  0  0
   -5.6920    1.4250   -1.0790 C   0  0  0  0  0  0  0  0  0  0  0  0
   -4.5560    0.6700   -0.8900 C   0  0  0  0  0  0  0  0  0  0  0  0
    0.8740   -1.7440    1.1860 C   0  0  0  0  0  0  0  0  0  0  0  0
    2.1830   -1.8270    0.4420 C   0  0  0  0  0  0  0  0  0  0  0  0
    5.0990   -1.2710   -0.0660 N   0  0  0  0  0  0  0  0  0  0  0  0
    6.2760   -0.7270   -0.3050 N   0  0  0  0  0  0  0  0  0  0  0  0
  1  2  1  0
  2  3  2  0
  2 22  1  0
  3  4  1  0
  4  5  1  0
  4 21  2  0
  5  6  1  0
  5 20  1  0
  6  7  1  0
  7  8  1  0
  8  9  1  6
  8 19  1  0
  9 10  1  0
 10 11  1  0
 11 12  1  0
 12 13  2  0
 12 18  1  0
 13 14  1  0
 14 15  2  0
 15 16  1  0
 15 17  1  0
 17 18  2  0
 19 20  1  0
 21 22  1  0
M  CHG  1   8   1
M  END
