
     RDKit          3D

 16 16  0  0  0  0  0  0  0  0999 V2000
    4.4460    1.1390   -0.9220 C   0  0  0  0  0  0  0  0  0  0  0  0
    4.5010    0.8350    0.3640 C   0  0  0  0  0  0  0  0  0  0  0  0
    4.2050   -0.5560    0.7780 C   0  0  2  0  0  0  0  0  0  0  0  0
    5.1920   -1.4440    0.3890 O   0  0  0  0  0  0  0  0  0  0  0  0
    2.8630   -0.9690    0.1700 C   0  0  0  0  0  0  0  0  0  0  0  0
    1.8350   -0.0440    0.5750 N   0  0  0  0  0  0  0  0  0  0  0  0
    0.5140   -0.2760    0.0990 C   0  0  0  0  0  0  0  0  0  0  0  0
    0.2700   -1.2750   -0.6600 O   0  0  0  0  0  0  0  0  0  0  0  0
   -0.5150    0.6240    0.4850 N   0  0  0  0  0  0  0  0  0  0  0  0
   -1.8290    0.4160    0.0280 C   0  0  0  0  0  0  0  0  0  0  0  0
   -2.8300    0.2220    0.8690 C   0  0  0  0  0  0  0  0  0  0  0  0
   -4.1850    0.0070    0.4350 C   0  0  0  0  0  0  0  0  0  0  0  0
   -5.1490   -0.1840    1.3670 C   0  0  0  0  0  0  0  0  0  0  0  0
   -4.5380   -0.0110   -0.9800 C   0  0  0  0  0  0  0  0  0  0  0  0
   -3.3800    0.2100   -1.8420 C   0  0  0  0  0  0  0  0  0  0  0  0
   -2.1670    0.4020   -1.3880 C   0  0  0  0  0  0  0  0  0  0  0  0
  1  2  2  0
  2  3  1  0
  3  4  1  6
  3  5  1  0
  5  6  1  0
  6  7  1  0
  7  8  2  0
  7  9  1  0
  9 10  1  0
 10 11  2  0
 10 16  1  0
 11 12  1  0
 12 13  2  0
 12 14  1  0
 14 15  1  0
 15 16  2  0
M  END
