
     RDKit          3D

 16 17  0  0  0  0  0  0  0  0999 V2000
   -2.6600   -1.1640    1.5190 C   0  0  0  0  0  0  0  0  0  0  0  0
   -3.0800   -0.2210    0.4380 C   0  0  0  0  0  0  0  0  0  0  0  0
   -4.2870   -0.1370    0.0350 N   0  0  0  0  0  0  0  0  0  0  0  0
   -4.3590    0.8500   -0.9990 C   0  0  0  0  0  0  0  0  0  0  0  0
   -2.9750    1.3340   -1.1350 C   0  0  0  0  0  0  0  0  0  0  0  0
   -2.2250    0.6830   -0.2690 C   0  0  0  0  0  0  0  0  0  0  0  0
   -0.7480    0.8910   -0.0970 C   0  0  0  0  0  0  0  0  0  0  0  0
   -0.0700   -0.3460   -0.3620 O   0  0  0  0  0  0  0  0  0  0  0  0
    1.2960   -0.4170   -0.2700 C   0  0  0  0  0  0  0  0  0  0  0  0
    2.0890    0.6520    0.0690 C   0  0  0  0  0  0  0  0  0  0  0  0
    3.4570    0.5570    0.1540 C   0  0  0  0  0  0  0  0  0  0  0  0
    4.2730    1.6860    0.5110 N   0  0  0  0  0  0  0  0  0  0  0  0
    4.0390   -0.6600   -0.1130 C   0  0  0  0  0  0  0  0  0  0  0  0
    3.2760   -1.7540   -0.4560 C   0  0  0  0  0  0  0  0  0  0  0  0
    1.9100   -1.6310   -0.5340 C   0  0  0  0  0  0  0  0  0  0  0  0
    1.1650   -2.7370   -0.8790 O   0  0  0  0  0  0  0  0  0  0  0  0
  1  2  1  0
  2  3  2  0
  2  6  1  0
  3  4  1  0
  4  5  1  0
  5  6  2  0
  6  7  1  0
  7  8  1  0
  8  9  1  0
  9 10  2  0
  9 15  1  0
 10 11  1  0
 11 12  1  0
 11 13  2  0
 13 14  1  0
 14 15  2  0
 15 16  1  0
M  END
