
     RDKit          3D

 16 16  0  0  0  0  0  0  0  0999 V2000
    4.2560   -0.4380    0.2540 C   0  0  0  0  0  0  0  0  0  0  0  0
    4.2940    0.7720    1.1100 C   0  0  0  0  0  0  0  0  0  0  0  0
    3.1910    1.4100    1.4140 C   0  0  0  0  0  0  0  0  0  0  0  0
    1.9240    0.9340    0.9140 C   0  0  0  0  0  0  0  0  0  0  0  0
    0.8240    1.5730    1.2200 C   0  0  0  0  0  0  0  0  0  0  0  0
    0.9270    2.7210    2.0400 N   0  0  0  0  0  0  0  0  0  0  0  0
   -0.5300    1.1920    0.7750 C   0  0  0  0  0  0  0  0  0  0  0  0
   -1.5010    1.8960    1.1430 O   0  0  0  0  0  0  0  0  0  0  0  0
   -0.7870    0.0730   -0.0450 N   0  0  0  0  0  0  0  0  0  0  0  0
   -2.0380   -0.3840   -0.5300 C   0  0  0  0  0  0  0  0  0  0  0  0
   -3.2090    0.1460   -0.3100 C   0  0  0  0  0  0  0  0  0  0  0  0
   -4.5140   -0.3490   -0.8270 C   0  0  0  0  0  0  0  0  0  0  0  0
   -4.3850   -1.4870   -1.6110 O   0  0  0  0  0  0  0  0  0  0  0  0
   -3.1490   -2.0600   -1.8530 C   0  0  0  0  0  0  0  0  0  0  0  0
   -2.0220   -1.6000   -1.3830 C   0  0  0  0  0  0  0  0  0  0  0  0
   -0.7290   -2.2770   -1.6910 C   0  0  0  0  0  0  0  0  0  0  0  0
  1  2  1  0
  2  3  2  3
  3  4  1  0
  4  5  2  3
  5  6  1  0
  5  7  1  0
  7  8  2  0
  7  9  1  0
  9 10  1  0
 10 11  2  0
 10 15  1  0
 11 12  1  0
 12 13  1  0
 13 14  1  0
 14 15  2  0
 15 16  1  0
M  END
