
     RDKit          3D

 16 17  0  0  0  0  0  0  0  0999 V2000
    3.5370   -1.0990    1.0280 C   0  0  0  0  0  0  0  0  0  0  0  0
    3.1630   -0.1730   -0.1070 C   0  0  0  0  0  0  0  0  0  0  0  0
    1.7570   -0.3690   -0.5340 C   0  0  0  0  0  0  0  0  0  0  0  0
    1.3500   -1.0140   -1.6370 N   0  0  0  0  0  0  0  0  0  0  0  0
    0.0000   -0.9730   -1.6650 C   0  0  0  0  0  0  0  0  0  0  0  0
   -1.0550   -1.3670   -2.3950 N   0  0  0  0  0  0  0  0  0  0  0  0
   -2.1590   -0.9360   -1.7580 C   0  0  0  0  0  0  0  0  0  0  0  0
   -1.8320   -0.2570   -0.6040 C   0  0  0  0  0  0  0  0  0  0  0  0
   -2.7180    0.3660    0.3690 C   0  0  0  0  0  0  0  0  0  0  0  0
   -4.0180    0.3110    0.1840 C   0  0  0  0  0  0  0  0  0  0  0  0
   -4.8720    0.8990    1.1020 O   0  0  0  0  0  0  0  0  0  0  0  0
   -0.4400   -0.2880   -0.5560 C   0  0  0  0  0  0  0  0  0  0  0  0
    0.6590    0.0930    0.1550 C   0  0  0  0  0  0  0  0  0  0  0  0
    0.5770    0.8480    1.4050 C   0  0  0  0  0  0  0  0  0  0  0  0
    0.5880    2.3490    1.2880 C   0  0  0  0  0  0  0  0  0  0  0  0
    0.5000    0.2810    2.5280 O   0  0  0  0  0  0  0  0  0  0  0  0
  1  2  1  0
  2  3  1  0
  3  4  1  0
  3 13  2  0
  4  5  1  0
  5  6  1  0
  5 12  2  0
  6  7  1  0
  7  8  2  0
  8  9  1  0
  8 12  1  0
  9 10  2  3
 10 11  1  0
 12 13  1  0
 13 14  1  0
 14 15  1  0
 14 16  2  0
M  END
