
     RDKit          3D

 16 16  0  0  0  0  0  0  0  0999 V2000
   -4.7530    0.1940   -1.7410 C   0  0  0  0  0  0  0  0  0  0  0  0
   -3.5000    0.0990   -1.2220 C   0  0  0  0  0  0  0  0  0  0  0  0
   -3.3970   -0.5420    0.0530 C   0  0  0  0  0  0  0  0  0  0  0  0
   -4.6570   -1.0180    0.6440 N   0  0  0  0  0  0  0  0  0  0  0  0
   -2.3280   -0.7510    0.7440 C   0  0  0  0  0  0  0  0  0  0  0  0
   -0.9150   -0.4640    0.5610 C   0  0  0  0  0  0  0  0  0  0  0  0
   -0.1120   -0.8540    1.5330 C   0  0  0  0  0  0  0  0  0  0  0  0
    1.3160   -0.6340    1.4870 C   0  0  0  0  0  0  0  0  0  0  0  0
    2.1680   -1.0490    2.5200 O   0  0  0  0  0  0  0  0  0  0  0  0
    1.8420   -0.0340    0.4610 C   0  0  0  0  0  0  0  0  0  0  0  0
    3.2980    0.1740    0.4430 C   0  0  0  0  0  0  0  0  0  0  0  0
    4.0300   -0.2180    1.3990 O   0  0  0  0  0  0  0  0  0  0  0  0
    3.8990    0.8250   -0.6620 N   0  0  0  0  0  0  0  0  0  0  0  0
    5.3370    1.0120   -0.6430 C   0  0  0  0  0  0  0  0  0  0  0  0
    1.0670    0.4410   -0.6630 C   0  0  0  0  0  0  0  0  0  0  0  0
   -0.3950    0.2160   -0.6300 C   0  0  0  0  0  0  0  0  0  0  0  0
  1  2  2  0
  2  3  1  0
  3  4  1  0
  3  5  2  3
  5  6  1  0
  6  7  2  0
  6 16  1  0
  7  8  1  0
  8  9  1  0
  8 10  2  0
 10 11  1  0
 10 15  1  0
 11 12  2  0
 11 13  1  0
 13 14  1  0
 15 16  1  0
M  END
