
     RDKit          3D

 26 27  0  0  0  0  0  0  0  0999 V2000
   -1.6240   -1.1860    1.3860 N   0  0  0  0  0  0  0  0  0  0  0  0
   -2.3120   -0.0120    0.9070 C   0  0  2  0  0  0  0  0  0  0  0  0
   -3.6570   -0.4580    0.3790 C   0  0  1  0  0  0  0  0  0  0  0  0
   -4.4340   -1.0570    1.4890 C   0  0  0  0  0  0  0  0  0  0  0  0
   -4.0040   -1.1560    2.6600 O   0  0  0  0  0  0  0  0  0  0  0  0
   -5.7020   -1.5320    1.2080 O   0  0  0  0  0  0  0  0  0  0  0  0
   -4.4160    0.6640   -0.2730 C   0  0  0  0  0  0  0  0  0  0  0  0
   -3.6040    1.1700   -1.4400 C   0  0  2  0  0  0  0  0  0  0  0  0
   -3.5860    0.1970   -2.5320 C   0  0  0  0  0  0  0  0  0  0  0  0
   -4.2640   -0.8480   -2.4600 O   0  0  0  0  0  0  0  0  0  0  0  0
   -2.8230    0.4050   -3.6680 O   0  0  0  0  0  0  0  0  0  0  0  0
   -2.2860    1.6480   -0.9610 C   0  0  0  0  0  0  0  0  0  0  0  0
   -1.4780    0.6330   -0.1670 C   0  0  2  0  0  0  0  0  0  0  0  0
   -1.0630   -0.3190   -1.0680 O   0  0  0  0  0  0  0  0  0  0  0  0
   -0.4730    1.3590    0.4320 O   0  0  0  0  0  0  0  0  0  0  0  0
    0.4630    0.7150    1.1570 C   0  0  0  0  0  0  0  0  0  0  0  0
    1.3290   -0.2790    0.4230 C   0  0  2  0  0  0  0  0  0  0  0  0
    2.3650   -0.7760    1.4260 C   0  0  0  0  0  0  0  0  0  0  0  0
    3.5130   -1.2570    0.7780 O   0  0  0  0  0  0  0  0  0  0  0  0
    4.2130   -0.2120    0.1690 C   0  0  1  0  0  0  0  0  0  0  0  0
    5.2690    0.3530    1.0740 C   0  0  0  0  0  0  0  0  0  0  0  0
    6.2050   -0.6330    1.4280 O   0  0  0  0  0  0  0  0  0  0  0  0
    4.8720   -0.7990   -1.0670 C   0  0  0  0  0  0  0  0  0  0  0  0
    5.6110    0.1330   -1.7790 O   0  0  0  0  0  0  0  0  0  0  0  0
    3.2470    0.8790   -0.1900 C   0  0  0  0  0  0  0  0  0  0  0  0
    2.0190    0.3850   -0.6150 O   0  0  0  0  0  0  0  0  0  0  0  0
  2  1  1  6
  2  3  1  0
  2 13  1  0
  3  4  1  1
  3  7  1  0
  4  5  2  0
  4  6  1  0
  7  8  1  0
  8  9  1  6
  8 12  1  0
  9 10  2  0
  9 11  1  0
 12 13  1  0
 13 14  1  6
 13 15  1  0
 15 16  1  0
 17 16  1  1
 17 18  1  0
 17 26  1  0
 18 19  1  0
 19 20  1  0
 20 21  1  1
 20 23  1  0
 20 25  1  0
 21 22  1  0
 23 24  1  0
 25 26  1  0
M  END
