
     RDKit          3D

 26 27  0  0  0  0  0  0  0  0999 V2000
    3.1660   -1.7730    0.8820 O   0  0  0  0  0  0  0  0  0  0  0  0
    2.8320   -0.5630    0.8130 C   0  0  0  0  0  0  0  0  0  0  0  0
    1.5420   -0.2340    0.3300 N   0  0  0  0  0  0  0  0  0  0  0  0
    1.0410    1.1160    0.2020 C   0  0  0  0  0  0  0  0  0  0  0  0
   -0.3390    1.0130   -0.4250 C   0  0  0  0  0  0  0  0  0  0  0  0
   -0.4650   -0.3900   -0.9380 C   0  0  2  0  0  0  0  0  0  0  0  0
   -0.1550   -0.5330   -2.2740 O   0  0  0  0  0  0  0  0  0  0  0  0
   -1.9090   -0.8290   -0.6700 C   0  0  0  0  0  0  0  0  0  0  0  0
   -2.7990   -0.0780   -1.3940 O   0  0  0  0  0  0  0  0  0  0  0  0
   -4.1230   -0.4000   -1.2540 C   0  0  0  0  0  0  0  0  0  0  0  0
   -4.5660   -0.2510    0.1580 C   0  0  1  0  0  0  0  0  0  0  0  0
   -4.3710    1.0550    0.5830 O   0  0  0  0  0  0  0  0  0  0  0  0
   -6.0080   -0.6790    0.3640 C   0  0  1  0  0  0  0  0  0  0  0  0
   -6.2790   -0.5810    1.7230 O   0  0  0  0  0  0  0  0  0  0  0  0
   -6.9660    0.2020   -0.3990 C   0  0  0  0  0  0  0  0  0  0  0  0
   -6.8820    1.5250   -0.0550 O   0  0  0  0  0  0  0  0  0  0  0  0
    0.5040   -1.1750   -0.1160 C   0  0  0  0  0  0  0  0  0  0  0  0
    3.7990    0.4590    1.2400 C   0  0  1  0  0  0  0  0  0  0  0  0
    3.3040    1.7390    1.1140 O   0  0  0  0  0  0  0  0  0  0  0  0
    4.2150    0.2780    2.6860 C   0  0  0  0  0  0  0  0  0  0  0  0
    5.6200    0.8490    2.6590 C   0  0  0  0  0  0  0  0  0  0  0  0
    6.1310    0.4470    1.4510 O   0  0  0  0  0  0  0  0  0  0  0  0
    5.1290    0.3130    0.5330 C   0  0  1  0  0  0  0  0  0  0  0  0
    5.1270   -0.8980   -0.1370 O   0  0  0  0  0  0  0  0  0  0  0  0
    5.2370   -0.7710   -1.5110 C   0  0  0  0  0  0  0  0  0  0  0  0
    6.4110   -0.1310   -1.8960 O   0  0  0  0  0  0  0  0  0  0  0  0
  1  2  2  0
  2  3  1  0
  2 18  1  0
  3  4  1  0
  3 17  1  0
  4  5  1  0
  5  6  1  0
  6  7  1  6
  6  8  1  0
  6 17  1  0
  8  9  1  0
  9 10  1  0
 10 11  1  0
 11 12  1  6
 11 13  1  0
 13 14  1  1
 13 15  1  0
 15 16  1  0
 18 19  1  1
 18 20  1  0
 18 23  1  0
 20 21  1  0
 21 22  1  0
 22 23  1  0
 23 24  1  1
 24 25  1  0
 25 26  1  0
M  END
