
     RDKit          3D

 26 27  0  0  0  0  0  0  0  0999 V2000
    5.2450    2.9160    0.8350 C   0  0  0  0  0  0  0  0  0  0  0  0
    4.1530    2.2670    0.2770 O   0  0  0  0  0  0  0  0  0  0  0  0
    4.0000    0.9730    0.7360 C   0  0  0  0  0  0  0  0  0  0  0  0
    2.7710    0.3990    0.0390 C   0  0  2  0  0  0  0  0  0  0  0  0
    1.7180    1.2590    0.4360 O   0  0  0  0  0  0  0  0  0  0  0  0
    0.8770    1.5750   -0.5940 C   0  0  2  0  0  0  0  0  0  0  0  0
    0.0870    2.7280   -0.1940 N   0  0  0  0  0  0  0  0  0  0  0  0
   -0.0680    0.4550   -0.9270 C   0  0  2  0  0  0  0  0  0  0  0  0
   -1.1110    0.3160   -0.0440 O   0  0  0  0  0  0  0  0  0  0  0  0
   -2.2980    0.4580   -0.7680 C   0  0  0  0  0  0  0  0  0  0  0  0
   -3.5140    0.3250    0.0930 C   0  0  2  0  0  0  0  0  0  0  0  0
   -3.4600    1.4000    1.1570 C   0  0  0  0  0  0  0  0  0  0  0  0
   -3.3570    2.6770    0.6210 O   0  0  0  0  0  0  0  0  0  0  0  0
   -3.6140   -0.8910    0.7300 O   0  0  0  0  0  0  0  0  0  0  0  0
   -4.9240   -1.0590    1.1600 C   0  0  0  0  0  0  0  0  0  0  0  0
   -5.6230   -2.0810    0.2630 C   0  0  0  0  0  0  0  0  0  0  0  0
   -5.9010   -1.4560   -0.9510 O   0  0  0  0  0  0  0  0  0  0  0  0
   -4.8110   -0.7240   -1.4160 C   0  0  0  0  0  0  0  0  0  0  0  0
   -4.6330    0.4680   -0.7240 O   0  0  0  0  0  0  0  0  0  0  0  0
    0.6910   -0.8560   -0.9840 C   0  0  0  0  0  0  0  0  0  0  0  0
    1.1120   -1.3070    0.2320 O   0  0  0  0  0  0  0  0  0  0  0  0
    2.4170   -0.9580    0.5630 C   0  0  1  0  0  0  0  0  0  0  0  0
    3.3970   -2.0310    0.2310 C   0  0  1  0  0  0  0  0  0  0  0  0
    3.0240   -3.1760    0.9650 O   0  0  0  0  0  0  0  0  0  0  0  0
    3.4720   -2.4180   -1.1970 C   0  0  0  0  0  0  0  0  0  0  0  0
    4.4470   -3.4400   -1.2970 O   0  0  0  0  0  0  0  0  0  0  0  0
  1  2  1  0
  2  3  1  0
  4  3  1  1
  4  5  1  0
  4 22  1  0
  5  6  1  0
  6  7  1  1
  6  8  1  0
  8  9  1  1
  8 20  1  0
  9 10  1  0
 11 10  1  6
 11 12  1  0
 11 14  1  0
 11 19  1  0
 12 13  1  0
 14 15  1  0
 15 16  1  0
 16 17  1  0
 17 18  1  0
 18 19  1  0
 20 21  1  0
 22 21  1  6
 22 23  1  0
 23 24  1  1
 23 25  1  0
 25 26  1  0
M  END
