
     RDKit          3D

 27 27  0  0  0  0  0  0  0  0999 V2000
    3.9750   -1.8890   -1.1490 O   0  0  0  0  0  0  0  0  0  0  0  0
    4.2380   -0.7790   -0.6200 C   0  0  0  0  0  0  0  0  0  0  0  0
    3.1810    0.0400   -0.2300 O   0  0  0  0  0  0  0  0  0  0  0  0
    1.8700   -0.4400   -0.4590 C   0  0  0  0  0  0  0  0  0  0  0  0
    0.9170    0.6150    0.0420 C   0  0  2  0  0  0  0  0  0  0  0  0
    1.1630    0.7930    1.3940 O   0  0  0  0  0  0  0  0  0  0  0  0
   -0.5360    0.1340   -0.1120 C   0  0  1  0  0  0  0  0  0  0  0  0
   -0.6940   -0.0190   -1.5090 O   0  0  0  0  0  0  0  0  0  0  0  0
   -0.6310   -1.1500    0.6140 C   0  0  0  0  0  0  0  0  0  0  0  0
   -1.9140   -1.5880    1.0080 N   0  0  0  0  0  0  0  0  0  0  0  0
   -2.9660   -1.4710    0.0570 C   0  0  0  0  0  0  0  0  0  0  0  0
   -4.2830   -1.6190    0.7990 C   0  0  1  0  0  0  0  0  0  0  0  0
   -4.2490   -0.8650    1.9520 O   0  0  0  0  0  0  0  0  0  0  0  0
   -5.4680   -1.3280   -0.0680 C   0  0  0  0  0  0  0  0  0  0  0  0
   -5.2070   -0.4200   -1.0730 O   0  0  0  0  0  0  0  0  0  0  0  0
   -5.3390    0.8870   -0.5620 C   0  0  0  0  0  0  0  0  0  0  0  0
   -4.5320    1.7750   -1.5000 C   0  0  0  0  0  0  0  0  0  0  0  0
   -4.0930    2.9240   -0.8740 O   0  0  0  0  0  0  0  0  0  0  0  0
   -3.0060    2.7450   -0.0520 C   0  0  0  0  0  0  0  0  0  0  0  0
   -1.9940    1.9770   -0.6230 O   0  0  0  0  0  0  0  0  0  0  0  0
   -1.3970    1.2350    0.4230 C   0  0  0  0  0  0  0  0  0  0  0  0
    5.6480   -0.4080   -0.4430 C   0  0  1  0  0  0  0  0  0  0  0  0
    6.4580   -1.4090   -0.9200 O   0  0  0  0  0  0  0  0  0  0  0  0
    5.9970    0.8980   -1.1190 C   0  0  0  0  0  0  0  0  0  0  0  0
    7.3530    1.1460   -0.8030 O   0  0  0  0  0  0  0  0  0  0  0  0
    5.8960   -0.3020    1.0620 C   0  0  0  0  0  0  0  0  0  0  0  0
    7.2040   -0.0020    1.3530 O   0  0  0  0  0  0  0  0  0  0  0  0
  1  2  2  0
  2  3  1  0
  2 22  1  0
  3  4  1  0
  4  5  1  0
  5  6  1  1
  5  7  1  0
  7  8  1  6
  7  9  1  0
  7 21  1  0
  9 10  1  0
 10 11  1  0
 11 12  1  0
 12 13  1  1
 12 14  1  0
 14 15  1  0
 15 16  1  0
 16 17  1  0
 17 18  1  0
 18 19  1  0
 19 20  1  0
 20 21  1  0
 22 23  1  6
 22 24  1  0
 22 26  1  0
 24 25  1  0
 26 27  1  0
M  END
