
     RDKit          3D

 26 27  0  0  0  0  0  0  0  0999 V2000
    4.0580   -2.9500   -0.1010 C   0  0  0  0  0  0  0  0  0  0  0  0
    4.0140   -1.5100    0.4300 C   0  0  1  0  0  0  0  0  0  0  0  0
    5.2080   -0.9290    0.1580 O   0  0  0  0  0  0  0  0  0  0  0  0
    5.1900    0.2630   -0.5020 C   0  0  0  0  0  0  0  0  0  0  0  0
    4.2460    0.2280   -1.6410 C   0  0  0  0  0  0  0  0  0  0  0  0
    4.5250    0.5630   -2.8100 O   0  0  0  0  0  0  0  0  0  0  0  0
    2.9460   -0.2240   -1.3420 O   0  0  0  0  0  0  0  0  0  0  0  0
    2.7960   -0.8330   -0.0730 C   0  0  2  0  0  0  0  0  0  0  0  0
    2.1780    0.1210    0.9420 C   0  0  0  0  0  0  0  0  0  0  0  0
    0.9170    0.5060    0.4710 O   0  0  0  0  0  0  0  0  0  0  0  0
    0.0740    1.3750    1.1540 C   0  0  0  0  0  0  0  0  0  0  0  0
    0.5030    1.8130    2.2410 O   0  0  0  0  0  0  0  0  0  0  0  0
   -1.2140    1.6890    0.5420 C   0  0  2  0  0  0  0  0  0  0  0  0
   -1.9850    2.5930    1.3320 O   0  0  0  0  0  0  0  0  0  0  0  0
   -2.3430    3.8520    0.9330 C   0  0  0  0  0  0  0  0  0  0  0  0
   -3.1050    4.6860    1.7670 N   0  0  0  0  0  0  0  0  0  0  0  0
   -1.9710    4.2410   -0.2010 O   0  0  0  0  0  0  0  0  0  0  0  0
   -2.0580    0.5140    0.1700 C   0  0  2  0  0  0  0  0  0  0  0  0
   -3.1510    1.0370   -0.5660 O   0  0  0  0  0  0  0  0  0  0  0  0
   -2.6100   -0.2740    1.2880 C   0  0  0  0  0  0  0  0  0  0  0  0
   -2.8390   -1.7220    0.8510 C   0  0  0  0  0  0  0  0  0  0  0  0
   -3.5070   -1.6830   -0.5090 C   0  0  2  0  0  0  0  0  0  0  0  0
   -3.8930   -2.9850   -0.8250 O   0  0  0  0  0  0  0  0  0  0  0  0
   -2.4280   -1.2430   -1.5020 C   0  0  0  0  0  0  0  0  0  0  0  0
   -1.3600   -0.4270   -0.7900 C   0  0  1  0  0  0  0  0  0  0  0  0
   -0.6900    0.2990   -1.7720 O   0  0  0  0  0  0  0  0  0  0  0  0
  2  1  1  6
  2  3  1  0
  2  8  1  0
  3  4  1  0
  4  5  1  0
  5  6  2  0
  5  7  1  0
  7  8  1  0
  8  9  1  1
  9 10  1  0
 10 11  1  0
 11 12  2  0
 11 13  1  0
 13 14  1  1
 13 18  1  0
 14 15  1  0
 15 16  1  0
 15 17  2  0
 18 19  1  6
 18 20  1  0
 18 25  1  0
 20 21  1  0
 21 22  1  0
 22 23  1  6
 22 24  1  0
 24 25  1  0
 25 26  1  6
M  END
