
     RDKit          3D

 16 17  0  0  0  0  0  0  0  0999 V2000
    4.3130   -0.7540    0.0880 N   0  0  0  0  0  0  0  0  0  0  0  0
    3.4770    0.3530   -0.1760 C   0  0  0  0  0  0  0  0  0  0  0  0
    4.0600    1.6330   -0.2740 N   0  0  0  0  0  0  0  0  0  0  0  0
    2.2180    0.1660   -0.3180 N   0  0  0  0  0  0  0  0  0  0  0  0
    1.3600    1.2980   -0.5880 C   0  0  0  0  0  0  0  0  0  0  0  0
    0.0280    0.8550   -1.2090 C   0  0  0  0  0  0  0  0  0  0  0  0
   -0.6170   -0.0930   -0.3280 N   0  0  0  0  0  0  0  0  0  0  0  0
   -2.0270   -0.1890   -0.1720 C   0  0  0  0  0  0  0  0  0  0  0  0
   -2.6110   -1.0210    0.7600 C   0  0  0  0  0  0  0  0  0  0  0  0
   -3.9920   -1.1260    0.9180 C   0  0  0  0  0  0  0  0  0  0  0  0
   -4.8270   -0.3750    0.1180 C   0  0  0  0  0  0  0  0  0  0  0  0
   -6.5690   -0.4700    0.2760 Cl  0  0  0  0  0  0  0  0  0  0  0  0
   -4.2730    0.4650   -0.8230 C   0  0  0  0  0  0  0  0  0  0  0  0
   -2.8810    0.5520   -0.9610 C   0  0  0  0  0  0  0  0  0  0  0  0
    0.2280   -0.9930    0.4280 C   0  0  0  0  0  0  0  0  0  0  0  0
    1.6120   -1.1260   -0.2210 C   0  0  0  0  0  0  0  0  0  0  0  0
  1  2  1  0
  2  3  1  0
  2  4  2  3
  4  5  1  0
  4 16  1  0
  5  6  1  0
  6  7  1  0
  7  8  1  0
  7 15  1  0
  8  9  2  0
  8 14  1  0
  9 10  1  0
 10 11  2  0
 11 12  1  0
 11 13  1  0
 13 14  2  0
 15 16  1  0
M  CHG  1   4   1
M  END
