
     RDKit          3D

 30 33  0  0  0  0  0  0  0  0999 V2000
    6.9850    1.0700    2.5630 C   0  0  0  0  0  0  0  0  0  0  0  0
    7.3060    0.5460    1.2280 C   0  0  0  0  0  0  0  0  0  0  0  0
    8.5490    0.4080    0.6520 C   0  0  0  0  0  0  0  0  0  0  0  0
    8.4580   -0.0880   -0.5370 O   0  0  0  0  0  0  0  0  0  0  0  0
    7.1730   -0.3110   -0.8290 C   0  0  0  0  0  0  0  0  0  0  0  0
    6.7580   -0.8680   -2.1010 C   0  0  0  0  0  0  0  0  0  0  0  0
    5.5650   -1.0820   -2.4070 N   0  0  0  0  0  0  0  0  0  0  0  0
    4.3490   -0.9050   -1.7650 C   0  0  0  0  0  0  0  0  0  0  0  0
    3.6800    0.3160   -1.9040 C   0  0  0  0  0  0  0  0  0  0  0  0
    2.4690    0.5450   -1.3020 C   0  0  0  0  0  0  0  0  0  0  0  0
    1.8340   -0.4250   -0.5150 C   0  0  0  0  0  0  0  0  0  0  0  0
    0.5870   -0.1380    0.0860 N   0  0  2  0  0  0  0  0  0  0  0  0
    0.1500   -1.2950    0.8380 C   0  0  0  0  0  0  0  0  0  0  0  0
   -1.1540   -1.0640    1.4960 C   0  0  0  0  0  0  0  0  0  0  0  0
   -2.0560   -0.1470    0.9140 N   0  0  0  0  0  0  0  0  0  0  0  0
   -3.3890   -0.7050    0.9740 C   0  0  0  0  0  0  0  0  0  0  0  0
   -4.4440    0.2030    0.4520 C   0  0  0  0  0  0  0  0  0  0  0  0
   -4.1040    1.3080    0.0400 O   0  0  0  0  0  0  0  0  0  0  0  0
   -5.7660   -0.2910    0.4760 N   0  0  0  0  0  0  0  0  0  0  0  0
   -6.8620    0.4470    0.0280 C   0  0  0  0  0  0  0  0  0  0  0  0
   -8.0440   -0.2560   -0.1980 C   0  0  0  0  0  0  0  0  0  0  0  0
   -9.1510    0.4100   -0.6170 C   0  0  0  0  0  0  0  0  0  0  0  0
   -9.0970    1.7790   -0.8160 C   0  0  0  0  0  0  0  0  0  0  0  0
   -7.9480    2.5000   -0.6020 C   0  0  0  0  0  0  0  0  0  0  0  0
   -6.8240    1.7910   -0.1720 C   0  0  0  0  0  0  0  0  0  0  0  0
   -1.7630    0.3840   -0.3560 C   0  0  0  0  0  0  0  0  0  0  0  0
   -0.4240    0.0440   -0.9380 C   0  0  0  0  0  0  0  0  0  0  0  0
    2.5020   -1.6220   -0.3840 C   0  0  0  0  0  0  0  0  0  0  0  0
    3.7200   -1.8570   -0.9890 C   0  0  0  0  0  0  0  0  0  0  0  0
    6.4220    0.0710    0.2470 C   0  0  0  0  0  0  0  0  0  0  0  0
  1  2  1  0
  2  3  2  0
  2 30  1  0
  3  4  1  0
  4  5  1  0
  5  6  1  0
  5 30  2  0
  6  7  2  3
  7  8  1  0
  8  9  2  0
  8 29  1  0
  9 10  1  0
 10 11  2  0
 12 11  1  6
 11 28  1  0
 12 13  1  0
 12 27  1  0
 13 14  1  0
 14 15  1  0
 15 16  1  0
 15 26  1  0
 16 17  1  0
 17 18  2  0
 17 19  1  0
 19 20  1  0
 20 21  2  0
 20 25  1  0
 21 22  1  0
 22 23  2  0
 23 24  1  0
 24 25  2  0
 26 27  1  0
 28 29  2  0
M  CHG  1  12   1
M  END
