
     RDKit          3D

 31 33  0  0  0  0  0  0  0  0999 V2000
    0.2100    0.6010    2.7890 C   0  0  0  0  0  0  0  0  0  0  0  0
   -1.0520    0.3170    2.0420 C   0  0  0  0  0  0  0  0  0  0  0  0
   -2.2450    0.3640    2.7390 C   0  0  0  0  0  0  0  0  0  0  0  0
   -3.4670    0.0960    2.1890 C   0  0  0  0  0  0  0  0  0  0  0  0
   -3.5290   -0.2520    0.8250 C   0  0  0  0  0  0  0  0  0  0  0  0
   -4.8620   -0.5500    0.2840 C   0  0  0  0  0  0  0  0  0  0  0  0
   -5.4990   -1.5600    0.7530 O   0  0  0  0  0  0  0  0  0  0  0  0
   -5.4930    0.2060   -0.7240 N   0  0  0  0  0  0  0  0  0  0  0  0
   -6.7880   -0.0510   -1.2650 C   0  0  0  0  0  0  0  0  0  0  0  0
   -7.8260    0.0340   -0.1980 C   0  0  0  0  0  0  0  0  0  0  0  0
   -9.0600   -0.2270   -0.8270 O   0  0  0  0  0  0  0  0  0  0  0  0
   -2.3600   -0.2970    0.1360 C   0  0  0  0  0  0  0  0  0  0  0  0
   -1.1080   -0.0250    0.6980 C   0  0  0  0  0  0  0  0  0  0  0  0
    0.0990   -0.0870   -0.0450 N   0  0  0  0  0  0  0  0  0  0  0  0
    1.0570    0.8470    0.0320 C   0  0  0  0  0  0  0  0  0  0  0  0
    2.2060    0.7030   -0.6460 N   0  0  0  0  0  0  0  0  0  0  0  0
    2.5050   -0.3440   -1.4370 C   0  0  0  0  0  0  0  0  0  0  0  0
    3.6300   -0.4410   -2.0570 O   0  0  0  0  0  0  0  0  0  0  0  0
    4.8470   -0.1600   -2.4860 C   0  0  0  0  0  0  0  0  0  0  0  0
    5.8420   -0.0550   -1.3560 C   0  0  0  0  0  0  0  0  0  0  0  0
    6.6390    1.0450   -1.2260 C   0  0  0  0  0  0  0  0  0  0  0  0
    7.5840    1.0570   -0.1900 C   0  0  0  0  0  0  0  0  0  0  0  0
    7.6580   -0.0540    0.6450 C   0  0  0  0  0  0  0  0  0  0  0  0
    8.5860   -0.0660    1.6640 F   0  0  0  0  0  0  0  0  0  0  0  0
    6.8260   -1.1730    0.4870 C   0  0  0  0  0  0  0  0  0  0  0  0
    5.9040   -1.1630   -0.5340 C   0  0  0  0  0  0  0  0  0  0  0  0
    5.0540   -2.2420   -0.6920 F   0  0  0  0  0  0  0  0  0  0  0  0
    1.4870   -1.3320   -1.5240 C   0  0  0  0  0  0  0  0  0  0  0  0
    1.7740   -2.7440   -2.5040 Cl  0  0  0  0  0  0  0  0  0  0  0  0
    0.3280   -1.1540   -0.8180 C   0  0  0  0  0  0  0  0  0  0  0  0
   -0.5830   -2.0460   -0.8950 O   0  0  0  0  0  0  0  0  0  0  0  0
  1  2  1  0
  2  3  2  0
  2 13  1  0
  3  4  1  0
  4  5  2  0
  5  6  1  0
  5 12  1  0
  6  7  2  0
  6  8  1  0
  8  9  1  0
  9 10  1  0
 10 11  1  0
 12 13  2  0
 13 14  1  0
 14 15  1  0
 14 30  1  0
 15 16  2  0
 16 17  1  0
 17 18  1  0
 17 28  2  0
 18 19  1  0
 19 20  1  0
 20 21  2  0
 20 26  1  0
 21 22  1  0
 22 23  2  0
 23 24  1  0
 23 25  1  0
 25 26  2  0
 26 27  1  0
 28 29  1  0
 28 30  1  0
 30 31  2  0
M  END
