
     RDKit          3D

 29 32  0  0  0  0  0  0  0  0999 V2000
   -5.2120   -2.0860    1.5280 C   0  0  0  0  0  0  0  0  0  0  0  0
   -3.9110   -1.3920    1.3400 C   0  0  0  0  0  0  0  0  0  0  0  0
   -2.8840   -1.8760    2.1380 C   0  0  0  0  0  0  0  0  0  0  0  0
   -1.6230   -1.3680    1.9750 C   0  0  0  0  0  0  0  0  0  0  0  0
   -0.5980   -1.7220    2.6230 O   0  0  0  0  0  0  0  0  0  0  0  0
   -1.4020   -0.3640    0.9970 C   0  0  0  0  0  0  0  0  0  0  0  0
   -0.0450    0.1990    1.0670 C   0  0  0  0  0  0  0  0  0  0  0  0
    0.9720   -0.0570    0.1910 N   0  0  0  0  0  0  0  0  0  0  0  0
    2.1160   -0.7280    0.8840 C   0  0  0  0  0  0  0  0  0  0  0  0
    3.2960    0.1300    0.4920 C   0  0  0  0  0  0  0  0  0  0  0  0
    3.6380   -0.3420   -0.8590 N   0  0  2  0  0  0  0  0  0  0  0  0
    4.5680    0.5140   -1.5200 C   0  0  0  0  0  0  0  0  0  0  0  0
    5.6600    0.7920   -0.5530 C   0  0  0  0  0  0  0  0  0  0  0  0
    5.9500    2.1000   -0.1420 C   0  0  0  0  0  0  0  0  0  0  0  0
    6.9620    2.3840    0.7440 C   0  0  0  0  0  0  0  0  0  0  0  0
    7.7250    1.3930    1.2580 N   0  0  0  0  0  0  0  0  0  0  0  0
    7.4860    0.0980    0.8910 C   0  0  0  0  0  0  0  0  0  0  0  0
    6.4730   -0.1730    0.0080 C   0  0  0  0  0  0  0  0  0  0  0  0
    2.4890   -0.7570   -1.5670 C   0  0  0  0  0  0  0  0  0  0  0  0
    1.1500   -0.0950   -1.1290 C   0  0  0  0  0  0  0  0  0  0  0  0
   -2.4590    0.0860    0.2220 C   0  0  0  0  0  0  0  0  0  0  0  0
   -3.6840   -0.4530    0.4330 N   0  0  0  0  0  0  0  0  0  0  0  0
   -4.8460    0.1360   -0.1800 C   0  0  0  0  0  0  0  0  0  0  0  0
   -5.9320    0.4470    0.7010 C   0  0  0  0  0  0  0  0  0  0  0  0
   -7.0540    1.0140    0.2540 C   0  0  0  0  0  0  0  0  0  0  0  0
   -7.2400    1.3440   -1.0770 C   0  0  0  0  0  0  0  0  0  0  0  0
   -6.1860    1.0470   -1.9180 C   0  0  0  0  0  0  0  0  0  0  0  0
   -5.0430    0.4680   -1.4670 C   0  0  0  0  0  0  0  0  0  0  0  0
   -3.9850    0.1800   -2.3490 O   0  0  0  0  0  0  0  0  0  0  0  0
  1  2  1  0
  2  3  2  0
  2 22  1  0
  3  4  1  0
  4  5  2  0
  4  6  1  0
  6  7  1  0
  6 21  2  0
  7  8  1  0
  8  9  1  0
  8 20  1  0
  9 10  1  0
 10 11  1  0
 11 12  1  6
 11 19  1  0
 12 13  1  0
 13 14  2  0
 13 18  1  0
 14 15  1  0
 15 16  2  0
 16 17  1  0
 17 18  2  0
 19 20  1  0
 21 22  1  0
 22 23  1  0
 23 24  2  0
 23 28  1  0
 24 25  1  0
 25 26  2  0
 26 27  1  0
 27 28  2  0
 28 29  1  0
M  CHG  1  11   1
M  END
