
     RDKit          3D

 30 33  0  0  0  0  0  0  0  0999 V2000
   -4.8010    4.0510   -0.4100 C   0  0  0  0  0  0  0  0  0  0  0  0
   -3.6440    3.8030    0.5320 C   0  0  0  0  0  0  0  0  0  0  0  0
   -2.6810    2.7600    0.1970 C   0  0  0  0  0  0  0  0  0  0  0  0
   -3.0690    1.3170    0.2570 N   0  0  1  0  0  0  0  0  0  0  0  0
   -3.4230    0.9640   -1.1130 C   0  0  0  0  0  0  0  0  0  0  0  0
   -1.9590    0.6210    0.7630 C   0  0  0  0  0  0  0  0  0  0  0  0
   -1.5690   -0.6140    0.1430 C   0  0  0  0  0  0  0  0  0  0  0  0
   -0.2060   -0.7180   -0.2760 C   0  0  0  0  0  0  0  0  0  0  0  0
    0.4850    0.5150   -0.4060 O   0  0  0  0  0  0  0  0  0  0  0  0
    1.7020    0.3910   -1.0870 C   0  0  0  0  0  0  0  0  0  0  0  0
    2.9490    0.8450   -0.5500 C   0  0  0  0  0  0  0  0  0  0  0  0
    3.9270    1.1840   -0.1230 C   0  0  0  0  0  0  0  0  0  0  0  0
    5.2760    1.6260    0.4490 C   0  0  0  0  0  0  0  0  0  0  0  0
    5.5790    2.6440    1.2510 C   0  0  0  0  0  0  0  0  0  0  0  0
    6.8710    2.7440    1.4380 N   0  0  0  0  0  0  0  0  0  0  0  0
    7.4030    1.6940    0.6900 C   0  0  0  0  0  0  0  0  0  0  0  0
    8.7400    1.3850    0.5970 C   0  0  0  0  0  0  0  0  0  0  0  0
    9.0460    0.2560   -0.1700 C   0  0  0  0  0  0  0  0  0  0  0  0
    8.0420   -0.5140   -0.7390 C   0  0  0  0  0  0  0  0  0  0  0  0
    6.7160   -0.1350   -0.6220 C   0  0  0  0  0  0  0  0  0  0  0  0
    6.4310    0.9800    0.0780 N   0  0  0  0  0  0  0  0  0  0  0  0
    0.3840   -1.9500   -0.5850 C   0  0  0  0  0  0  0  0  0  0  0  0
   -0.3550   -3.1620   -0.5300 C   0  0  0  0  0  0  0  0  0  0  0  0
   -1.7130   -3.0610   -0.1360 C   0  0  0  0  0  0  0  0  0  0  0  0
   -2.2440   -1.8070    0.1770 C   0  0  0  0  0  0  0  0  0  0  0  0
   -3.5740   -1.6110    0.5880 O   0  0  0  0  0  0  0  0  0  0  0  0
   -4.6250   -2.5110    0.4210 C   0  0  0  0  0  0  0  0  0  0  0  0
   -4.3700   -3.9050    0.9550 C   0  0  0  0  0  0  0  0  0  0  0  0
   -3.7110   -4.7550   -0.1230 C   0  0  0  0  0  0  0  0  0  0  0  0
   -2.3500   -4.2840   -0.2540 N   0  0  0  0  0  0  0  0  0  0  0  0
  1  2  1  0
  2  3  1  0
  3  4  1  0
  4  5  1  6
  4  6  1  0
  6  7  1  0
  7  8  2  0
  7 25  1  0
  8  9  1  0
  8 22  1  0
  9 10  1  0
 10 11  1  0
 11 12  3  0
 12 13  1  0
 13 14  2  0
 13 21  1  0
 14 15  1  0
 15 16  2  0
 16 17  1  0
 16 21  1  0
 17 18  2  0
 18 19  1  0
 19 20  2  0
 20 21  1  0
 22 23  2  0
 23 24  1  0
 24 25  2  0
 24 30  1  0
 25 26  1  0
 26 27  1  0
 27 28  1  0
 28 29  1  0
 29 30  1  0
M  CHG  1   4   1
M  END
