
     RDKit          3D

 30 33  0  0  0  0  0  0  0  0999 V2000
   -2.5890   -0.4440   -1.4760 O   0  0  0  0  0  0  0  0  0  0  0  0
   -1.4570   -0.3270   -0.9500 C   0  0  0  0  0  0  0  0  0  0  0  0
   -1.3400    0.5160    0.2550 C   0  0  0  0  0  0  0  0  0  0  0  0
   -2.6740    1.0360    0.6990 C   0  0  0  0  0  0  0  0  0  0  0  0
   -3.6710   -0.0100    1.0940 C   0  0  0  0  0  0  0  0  0  0  0  0
   -4.9200    0.6800    1.5050 C   0  0  0  0  0  0  0  0  0  0  0  0
   -5.1950    1.0790    2.7530 N   0  0  0  0  0  0  0  0  0  0  0  0
   -6.4230    1.6580    2.6870 C   0  0  0  0  0  0  0  0  0  0  0  0
   -6.8620    1.5930    1.3880 C   0  0  0  0  0  0  0  0  0  0  0  0
   -5.9160    0.9930    0.7160 O   0  0  0  0  0  0  0  0  0  0  0  0
   -0.2790   -1.0150   -1.5230 C   0  0  0  0  0  0  0  0  0  0  0  0
   -0.4750   -1.7300   -2.5750 N   0  0  0  0  0  0  0  0  0  0  0  0
   -1.7460   -1.8760   -3.1840 C   0  0  0  0  0  0  0  0  0  0  0  0
   -2.1920   -1.0300   -4.1980 C   0  0  0  0  0  0  0  0  0  0  0  0
   -3.4400   -1.2120   -4.7630 C   0  0  0  0  0  0  0  0  0  0  0  0
   -4.2820   -2.2250   -4.3500 C   0  0  0  0  0  0  0  0  0  0  0  0
   -3.8390   -3.0620   -3.3460 C   0  0  0  0  0  0  0  0  0  0  0  0
   -2.5920   -2.8750   -2.7860 C   0  0  0  0  0  0  0  0  0  0  0  0
    1.0010   -0.8990   -0.9540 N   0  0  0  0  0  0  0  0  0  0  0  0
    1.3920   -1.5230    0.2900 C   0  0  0  0  0  0  0  0  0  0  0  0
    2.0940   -0.5680    1.2250 C   0  0  0  0  0  0  0  0  0  0  0  0
    2.8940    0.4770    0.5420 C   0  0  1  0  0  0  0  0  0  0  0  0
    4.1160    0.8370    1.2290 N   0  0  0  0  0  0  0  0  0  0  0  0
    4.9220    1.8420    0.6050 C   0  0  0  0  0  0  0  0  0  0  0  0
    6.1490    2.1210    0.9820 C   0  0  0  0  0  0  0  0  0  0  0  0
    6.7160    1.3470    2.1130 C   0  0  0  0  0  0  0  0  0  0  0  0
    5.5840    1.1530    3.1150 C   0  0  0  0  0  0  0  0  0  0  0  0
    4.5470    0.2570    2.4640 C   0  0  0  0  0  0  0  0  0  0  0  0
    3.2950   -0.0500   -0.8320 C   0  0  0  0  0  0  0  0  0  0  0  0
    2.0040   -0.1130   -1.6400 C   0  0  0  0  0  0  0  0  0  0  0  0
  1  2  2  0
  2  3  1  0
  2 11  1  0
  3  4  1  0
  4  5  1  0
  5  6  1  0
  6  7  2  0
  6 10  1  0
  7  8  1  0
  8  9  2  0
  9 10  1  0
 11 12  2  3
 11 19  1  0
 12 13  1  0
 13 14  2  0
 13 18  1  0
 14 15  1  0
 15 16  2  0
 16 17  1  0
 17 18  2  0
 19 20  1  0
 19 30  1  0
 20 21  1  0
 21 22  1  0
 22 23  1  1
 22 29  1  0
 23 24  1  0
 23 28  1  0
 24 25  2  0
 25 26  1  0
 26 27  1  0
 27 28  1  0
 29 30  1  0
M  CHG  1   7   1
M  END
