
     RDKit          3D

 31 34  0  0  0  0  0  0  0  0999 V2000
    5.2950    3.2340   -1.4970 C   0  0  0  0  0  0  0  0  0  0  0  0
    3.8480    3.1370   -1.1050 C   0  0  0  0  0  0  0  0  0  0  0  0
    3.4990    1.6850   -0.8210 C   0  0  0  0  0  0  0  0  0  0  0  0
    4.4110    0.8610   -0.9350 O   0  0  0  0  0  0  0  0  0  0  0  0
    2.1700    1.4000   -0.4540 N   0  0  0  0  0  0  0  0  0  0  0  0
    1.7090    0.0970   -0.1640 C   0  0  0  0  0  0  0  0  0  0  0  0
    0.4450   -0.0770    0.1850 C   0  0  0  0  0  0  0  0  0  0  0  0
   -0.4580    1.1200    0.2700 C   0  0  0  0  0  0  0  0  0  0  0  0
   -0.0730    2.2370    0.6330 N   0  0  0  0  0  0  0  0  0  0  0  0
   -1.8170    0.7890   -0.0970 N   0  0  0  0  0  0  0  0  0  0  0  0
   -2.9160    1.5240    0.4200 C   0  0  0  0  0  0  0  0  0  0  0  0
   -2.8580    2.1580    1.6380 C   0  0  0  0  0  0  0  0  0  0  0  0
   -3.9350    2.8820    2.0980 C   0  0  0  0  0  0  0  0  0  0  0  0
   -5.0910    2.9850    1.3480 C   0  0  0  0  0  0  0  0  0  0  0  0
   -6.1480    3.7020    1.8150 F   0  0  0  0  0  0  0  0  0  0  0  0
   -5.1650    2.3560    0.1240 C   0  0  0  0  0  0  0  0  0  0  0  0
   -6.4300    2.4920   -0.6830 C   0  0  2  0  0  0  0  0  0  0  0  0
   -6.9920    1.2300   -0.7850 F   0  0  0  0  0  0  0  0  0  0  0  0
   -6.0850    2.8920   -1.9390 F   0  0  0  0  0  0  0  0  0  0  0  0
   -4.1000    1.6420   -0.3300 C   0  0  0  0  0  0  0  0  0  0  0  0
   -1.9520   -0.3380   -0.9810 C   0  0  0  0  0  0  0  0  0  0  0  0
   -1.3770   -1.5980   -0.4070 C   0  0  0  0  0  0  0  0  0  0  0  0
   -0.1440   -1.3810    0.4540 C   0  0  1  0  0  0  0  0  0  0  0  0
    0.7860   -2.4880    0.4140 C   0  0  0  0  0  0  0  0  0  0  0  0
    0.3680   -3.7870    0.7230 C   0  0  0  0  0  0  0  0  0  0  0  0
    1.2480   -4.8060    0.6640 C   0  0  0  0  0  0  0  0  0  0  0  0
    2.5730   -4.6690    0.3110 C   0  0  0  0  0  0  0  0  0  0  0  0
    3.4610   -5.8660    0.2770 C   0  0  0  0  0  0  0  0  0  0  0  0
    2.9910   -3.3980    0.0070 C   0  0  0  0  0  0  0  0  0  0  0  0
    2.0880   -2.3170    0.0620 C   0  0  0  0  0  0  0  0  0  0  0  0
    2.5970   -1.0070   -0.2430 N   0  0  0  0  0  0  0  0  0  0  0  0
  1  2  1  0
  2  3  1  0
  3  4  2  0
  3  5  1  0
  5  6  1  0
  6  7  2  0
  6 31  1  0
  7  8  1  0
  7 23  1  0
  8  9  2  0
  8 10  1  0
 10 11  1  0
 10 21  1  0
 11 12  2  0
 11 20  1  0
 12 13  1  0
 13 14  2  0
 14 15  1  0
 14 16  1  0
 16 17  1  0
 16 20  2  0
 17 18  1  6
 17 19  1  0
 21 22  1  0
 23 22  1  6
 23 24  1  0
 24 25  2  0
 24 30  1  0
 25 26  1  0
 26 27  2  0
 27 28  1  0
 27 29  1  0
 29 30  2  0
 30 31  1  0
M  END
