
     RDKit          3D

 17 18  0  0  0  0  0  0  0  0999 V2000
    6.1370    1.2230   -0.3360 C   0  0  0  0  0  0  0  0  0  0  0  0
    4.7910    0.5720   -0.1210 C   0  0  0  0  0  0  0  0  0  0  0  0
    4.5850   -0.7110    0.3190 C   0  0  0  0  0  0  0  0  0  0  0  0
    3.2110   -0.9010    0.3750 C   0  0  0  0  0  0  0  0  0  0  0  0
    2.6470    0.2800   -0.0350 C   0  0  0  0  0  0  0  0  0  0  0  0
    1.2620    0.5980   -0.1540 N   0  0  0  0  0  0  0  0  0  0  0  0
    0.2200   -0.2910    0.1450 C   0  0  0  0  0  0  0  0  0  0  0  0
    0.4860   -1.4580    0.5480 O   0  0  0  0  0  0  0  0  0  0  0  0
   -1.2030    0.1110   -0.0020 C   0  0  0  0  0  0  0  0  0  0  0  0
   -1.4090    1.2730   -0.4030 O   0  0  0  0  0  0  0  0  0  0  0  0
   -2.2410   -0.7990    0.3040 N   0  0  0  0  0  0  0  0  0  0  0  0
   -3.6360   -0.4010    0.1580 C   0  0  0  0  0  0  0  0  0  0  0  0
   -4.4320   -1.0190   -0.6350 C   0  0  0  0  0  0  0  0  0  0  0  0
   -5.8300   -0.5580   -0.7290 C   0  0  0  0  0  0  0  0  0  0  0  0
   -5.9700    0.3880    0.8150 S   0  0  0  0  0  0  0  0  0  0  0  0
   -4.1630    0.7290    0.9310 C   0  0  0  0  0  0  0  0  0  0  0  0
    3.6450    1.1110   -0.3140 O   0  0  0  0  0  0  0  0  0  0  0  0
  1  2  1  0
  2  3  2  0
  2 17  1  0
  3  4  1  0
  4  5  2  0
  5  6  1  0
  5 17  1  0
  6  7  1  0
  7  8  2  0
  7  9  1  0
  9 10  2  0
  9 11  1  0
 11 12  1  0
 12 13  2  0
 12 16  1  0
 13 14  1  0
 14 15  1  0
 15 16  1  0
M  END
