
     RDKit          3D

 17 17  0  0  0  0  0  0  0  0999 V2000
   -3.4880    3.0270    1.4270 C   0  0  0  0  0  0  0  0  0  0  0  0
   -3.0710    1.8090    1.1750 C   0  0  0  0  0  0  0  0  0  0  0  0
   -3.2630    0.6510    2.0630 C   0  0  0  0  0  0  0  0  0  0  0  0
   -2.6900   -0.3600    1.4330 C   0  0  0  0  0  0  0  0  0  0  0  0
   -2.1280    0.0690    0.1720 C   0  0  0  0  0  0  0  0  0  0  0  0
   -2.3340    1.3530   -0.0180 C   0  0  0  0  0  0  0  0  0  0  0  0
   -1.8720    2.3680   -1.3780 S   0  0  0  0  0  0  0  0  0  0  0  0
   -0.8380    1.5360   -2.5950 C   0  0  0  0  0  0  0  0  0  0  0  0
    0.4780    1.2400   -1.9750 C   0  0  0  0  0  0  0  0  0  0  0  0
    1.2590    2.2190   -1.7390 O   0  0  0  0  0  0  0  0  0  0  0  0
    0.9200   -0.0400   -1.6320 N   0  0  0  0  0  0  0  0  0  0  0  0
    2.1860   -0.2940   -0.9860 C   0  0  0  0  0  0  0  0  0  0  0  0
    2.9380    0.6840   -0.7340 O   0  0  0  0  0  0  0  0  0  0  0  0
    2.5570   -1.6500   -0.6430 C   0  0  0  0  0  0  0  0  0  0  0  0
    1.7540   -2.5900   -0.9460 O   0  0  0  0  0  0  0  0  0  0  0  0
    3.7720   -1.9680    0.0150 N   0  0  0  0  0  0  0  0  0  0  0  0
    4.1060   -3.3620    0.3470 C   0  0  0  0  0  0  0  0  0  0  0  0
  1  2  2  0
  2  3  1  0
  2  6  1  0
  3  4  2  0
  4  5  1  0
  5  6  2  0
  6  7  1  0
  7  8  1  0
  8  9  1  0
  9 10  2  0
  9 11  1  0
 11 12  1  0
 12 13  2  0
 12 14  1  0
 14 15  2  0
 14 16  1  0
 16 17  1  0
M  END
