
     RDKit          3D

 16 17  0  0  0  0  0  0  0  0999 V2000
   -3.5690   -0.8460    0.6210 C   0  0  0  0  0  0  0  0  0  0  0  0
   -2.1780   -0.3230    0.6630 C   0  0  0  0  0  0  0  0  0  0  0  0
   -1.7190   -0.1030    1.7730 O   0  0  0  0  0  0  0  0  0  0  0  0
   -1.4120   -0.0870   -0.5200 C   0  0  0  0  0  0  0  0  0  0  0  0
   -0.0210    0.4490   -0.3190 C   0  0  0  0  0  0  0  0  0  0  0  0
    0.1310    1.8770   -0.0050 C   0  0  0  0  0  0  0  0  0  0  0  0
   -0.9250    2.8630    0.1380 C   0  0  0  0  0  0  0  0  0  0  0  0
    1.8640    2.0740    0.1480 S   0  0  0  0  0  0  0  0  0  0  0  0
    2.3200    0.4500   -0.1680 C   0  0  0  0  0  0  0  0  0  0  0  0
    3.5640   -0.1710   -0.2150 N   0  0  0  0  0  0  0  0  0  0  0  0
    3.6270   -1.4800   -0.4840 C   0  0  0  0  0  0  0  0  0  0  0  0
    4.7340   -2.0450   -0.5290 O   0  0  0  0  0  0  0  0  0  0  0  0
    2.5060   -2.1480   -0.6980 N   0  0  0  0  0  0  0  0  0  0  0  0
    1.3210   -1.5680   -0.6550 C   0  0  0  0  0  0  0  0  0  0  0  0
    0.3300   -2.2660   -0.8650 O   0  0  0  0  0  0  0  0  0  0  0  0
    1.1540   -0.1960   -0.3800 C   0  0  0  0  0  0  0  0  0  0  0  0
  1  2  1  0
  2  3  2  0
  2  4  1  0
  4  5  1  0
  5  6  2  0
  5 16  1  0
  6  7  1  0
  6  8  1  0
  8  9  1  0
  9 10  1  0
  9 16  2  0
 10 11  1  0
 11 12  2  0
 11 13  1  0
 13 14  1  0
 14 15  2  0
 14 16  1  0
M  END
