
     RDKit          3D

 18 20  0  0  0  0  0  0  0  0999 V2000
    5.6940    0.7400   -0.1030 C   0  0  0  0  0  0  0  0  0  0  0  0
    4.3790    1.2600   -0.3090 N   0  0  0  0  0  0  0  0  0  0  0  0
    3.1950    0.4870   -0.0680 C   0  0  0  0  0  0  0  0  0  0  0  0
    1.9870    1.0140   -0.2750 N   0  0  0  0  0  0  0  0  0  0  0  0
    0.8180    0.3450   -0.0700 C   0  0  0  0  0  0  0  0  0  0  0  0
   -0.3970    0.9580   -0.3050 C   0  0  0  0  0  0  0  0  0  0  0  0
   -1.5570    0.2560   -0.0890 C   0  0  0  0  0  0  0  0  0  0  0  0
   -2.8810    0.5540   -0.2180 N   0  0  0  0  0  0  0  0  0  0  0  0
   -3.6290   -0.5050    0.1300 C   0  0  0  0  0  0  0  0  0  0  0  0
   -5.0670   -0.5720    0.1230 N   0  0  0  0  0  0  0  0  0  0  0  0
   -5.8300    0.5870   -0.2910 C   0  0  0  0  0  0  0  0  0  0  0  0
   -2.7680   -1.4750    0.4800 N   0  0  0  0  0  0  0  0  0  0  0  0
   -1.4880   -1.0410    0.3580 C   0  0  0  0  0  0  0  0  0  0  0  0
   -0.2650   -1.6280    0.5850 C   0  0  0  0  0  0  0  0  0  0  0  0
    0.9100   -0.9570    0.3790 C   0  0  0  0  0  0  0  0  0  0  0  0
    2.1510   -1.5150    0.5970 C   0  0  0  0  0  0  0  0  0  0  0  0
    2.1790   -2.7000    1.0040 O   0  0  0  0  0  0  0  0  0  0  0  0
    3.2550   -0.7810    0.3680 N   0  0  0  0  0  0  0  0  0  0  0  0
  1  2  1  0
  2  3  1  0
  3  4  2  0
  3 18  1  0
  4  5  1  0
  5  6  2  0
  5 15  1  0
  6  7  1  0
  7  8  1  0
  7 13  2  0
  8  9  1  0
  9 10  1  0
  9 12  2  0
 10 11  1  0
 12 13  1  0
 13 14  1  0
 14 15  2  0
 15 16  1  0
 16 17  2  0
 16 18  1  0
M  END
