
     RDKit          3D

 17 18  0  0  0  0  0  0  0  0999 V2000
   -3.0640    3.5430   -1.0850 O   0  0  0  0  0  0  0  0  0  0  0  0
   -2.9430    2.3950   -0.5650 C   0  0  0  0  0  0  0  0  0  0  0  0
   -1.7570    2.0630   -0.0660 N   0  0  0  0  0  0  0  0  0  0  0  0
   -1.5690    0.8510    0.5010 C   0  0  0  0  0  0  0  0  0  0  0  0
   -0.0150    0.3620    1.1790 S   0  0  0  0  0  0  0  0  0  0  0  0
    1.0620   -0.4630   -0.0260 C   0  0  1  0  0  0  0  0  0  0  0  0
    1.4550    0.5180   -1.0780 C   0  0  0  0  0  0  0  0  0  0  0  0
    2.9290    0.8400   -1.0700 C   0  0  0  0  0  0  0  0  0  0  0  0
    3.8180   -0.3480   -1.0770 C   0  0  0  0  0  0  0  0  0  0  0  0
    3.3720   -1.4440   -0.1420 C   0  0  0  0  0  0  0  0  0  0  0  0
    2.2310   -1.0280    0.7370 C   0  0  0  0  0  0  0  0  0  0  0  0
   -2.6600   -0.0230    0.5380 C   0  0  0  0  0  0  0  0  0  0  0  0
   -2.4710   -1.3490    1.1550 C   0  0  0  0  0  0  0  0  0  0  0  0
   -3.6480   -2.0680    1.1010 O   0  0  0  0  0  0  0  0  0  0  0  0
   -3.8790    0.3250    0.0220 C   0  0  0  0  0  0  0  0  0  0  0  0
   -4.8770   -0.4720    0.0550 O   0  0  0  0  0  0  0  0  0  0  0  0
   -4.0010    1.5460   -0.5290 N   0  0  0  0  0  0  0  0  0  0  0  0
  1  2  2  0
  2  3  1  0
  2 17  1  0
  3  4  1  0
  4  5  1  0
  4 12  2  0
  6  5  1  1
  6  7  1  0
  6 11  1  0
  7  8  1  0
  8  9  1  0
  9 10  1  0
 10 11  1  0
 12 13  1  0
 12 15  1  0
 13 14  1  0
 15 16  2  0
 15 17  1  0
M  END
