
     RDKit          3D

 32 34  0  0  0  0  0  0  0  0999 V2000
   -6.9550   -3.9540   -0.3020 O   0  0  0  0  0  0  0  0  0  0  0  0
   -7.2060   -2.8110   -0.7140 N   0  0  0  0  0  0  0  0  0  0  0  0
   -8.4550   -2.5400   -1.2080 O   0  0  0  0  0  0  0  0  0  0  0  0
   -6.2100   -1.8090   -0.6720 C   0  0  0  0  0  0  0  0  0  0  0  0
   -4.9660   -2.1130   -0.1710 C   0  0  0  0  0  0  0  0  0  0  0  0
   -3.9960   -1.1350   -0.1310 C   0  0  0  0  0  0  0  0  0  0  0  0
   -4.2360    0.1590   -0.5840 C   0  0  0  0  0  0  0  0  0  0  0  0
   -5.4960    0.4530   -1.0870 C   0  0  0  0  0  0  0  0  0  0  0  0
   -5.4760    1.7720   -1.4600 C   0  0  0  0  0  0  0  0  0  0  0  0
   -4.2160    2.2550   -1.1810 C   0  0  0  0  0  0  0  0  0  0  0  0
   -3.4830    1.2600   -0.6510 N   0  0  0  0  0  0  0  0  0  0  0  0
   -2.1020    1.3790   -0.2260 C   0  0  1  0  0  0  0  0  0  0  0  0
   -1.9990    1.3110    1.2970 C   0  0  0  0  0  0  0  0  0  0  0  0
   -0.5600    0.8650    1.4460 C   0  0  2  0  0  0  0  0  0  0  0  0
    0.2280    2.0280    1.4130 O   0  0  0  0  0  0  0  0  0  0  0  0
   -0.3490    0.0580    0.2090 C   0  0  2  0  0  0  0  0  0  0  0  0
    1.0790    0.3460   -0.2750 C   0  0  0  0  0  0  0  0  0  0  0  0
    1.9230   -0.0350    0.7350 O   0  0  0  0  0  0  0  0  0  0  0  0
    3.5420    0.1950    0.4120 P   0  0  2  0  0  0  0  0  0  0  0  0
    4.3120   -0.1010    1.6830 O   0  0  0  0  0  0  0  0  0  0  0  0
    3.8860    1.8170    0.0120 O   0  0  0  0  0  0  0  0  0  0  0  0
    4.0870   -0.7670   -0.8750 O   0  0  0  0  0  0  0  0  0  0  0  0
    5.6910   -1.1650   -0.5800 P   0  0  2  0  0  0  0  0  0  0  0  0
    5.7580   -2.4630    0.1870 O   0  0  0  0  0  0  0  0  0  0  0  0
    6.3680    0.0850    0.3410 O   0  0  0  0  0  0  0  0  0  0  0  0
    6.5940   -1.2600   -2.0140 O   0  0  0  0  0  0  0  0  0  0  0  0
    8.2110   -0.9970   -1.5900 P   0  0  2  0  0  0  0  0  0  0  0  0
    9.1020   -0.9320   -2.8030 O   0  0  0  0  0  0  0  0  0  0  0  0
    8.6650   -2.3120   -0.5950 O   0  0  0  0  0  0  0  0  0  0  0  0
    8.2990    0.4030   -0.6550 O   0  0  0  0  0  0  0  0  0  0  0  0
   -1.2870    0.4000   -0.7210 O   0  0  0  0  0  0  0  0  0  0  0  0
   -6.4700   -0.5200   -1.1300 C   0  0  0  0  0  0  0  0  0  0  0  0
  1  2  2  0
  2  3  1  0
  2  4  1  0
  4  5  2  0
  4 32  1  0
  5  6  1  0
  6  7  2  0
  7  8  1  0
  7 11  1  0
  8  9  1  0
  8 32  2  0
  9 10  2  0
 10 11  1  0
 12 11  1  1
 12 13  1  0
 12 31  1  0
 13 14  1  0
 14 15  1  6
 14 16  1  0
 16 17  1  6
 16 31  1  0
 17 18  1  0
 18 19  1  0
 19 20  2  0
 19 21  1  6
 19 22  1  0
 22 23  1  0
 23 24  2  0
 23 25  1  1
 23 26  1  0
 26 27  1  0
 27 28  2  0
 27 29  1  1
 27 30  1  0
M  CHG  2   2   1   3  -1
M  END
