
     RDKit          3D

 36 37  0  0  0  0  0  0  0  0999 V2000
   -2.7860   -1.7420    3.6510 C   0  0  0  0  0  0  0  0  0  0  0  0
   -3.6330   -1.5440    2.5190 O   0  0  0  0  0  0  0  0  0  0  0  0
   -3.1300   -0.8130    1.4490 C   0  0  0  0  0  0  0  0  0  0  0  0
   -1.9050   -0.2430    1.3280 N   0  0  0  0  0  0  0  0  0  0  0  0
   -1.8250    0.3750    0.1260 C   0  0  0  0  0  0  0  0  0  0  0  0
   -0.6890    1.0850   -0.3580 N   0  0  0  0  0  0  0  0  0  0  0  0
   -0.7250    1.6850   -1.6220 C   0  0  0  0  0  0  0  0  0  0  0  0
   -1.8140    1.5560   -2.2850 O   0  0  0  0  0  0  0  0  0  0  0  0
    0.3270    2.4450   -2.2840 C   0  0  0  0  0  0  0  0  0  0  0  0
    1.5560    2.5220   -1.6040 O   0  0  0  0  0  0  0  0  0  0  0  0
    2.2840    1.3750   -1.3480 C   0  0  0  0  0  0  0  0  0  0  0  0
    1.8270    0.2790   -1.7420 O   0  0  0  0  0  0  0  0  0  0  0  0
    3.5620    1.4490   -0.6330 N   0  0  0  0  0  0  0  0  0  0  0  0
    3.9580    2.7200   -0.2510 C   0  0  0  0  0  0  0  0  0  0  0  0
    3.1880    3.7460   -0.5580 O   0  0  0  0  0  0  0  0  0  0  0  0
    5.1970    3.0250    0.4880 C   0  0  0  0  0  0  0  0  0  0  0  0
    5.3260    4.4550    0.6670 O   0  0  0  0  0  0  0  0  0  0  0  0
    5.4160    5.2540   -0.4600 C   0  0  0  0  0  0  0  0  0  0  0  0
    5.3840    4.6980   -1.5860 O   0  0  0  0  0  0  0  0  0  0  0  0
    5.5390    6.6460   -0.3570 O   0  0  0  0  0  0  0  0  0  0  0  0
    4.1920    0.2440   -0.4400 C   0  0  0  0  0  0  0  0  0  0  0  0
    3.5600   -0.8090   -0.9100 O   0  0  0  0  0  0  0  0  0  0  0  0
    5.4020   -0.1060    0.1710 N   0  0  0  0  0  0  0  0  0  0  0  0
    5.8950   -1.4890    0.2740 C   0  0  0  0  0  0  0  0  0  0  0  0
    4.9900   -2.3870    1.0410 C   0  0  0  0  0  0  0  0  0  0  0  0
    5.6110   -3.6590    1.0410 O   0  0  0  0  0  0  0  0  0  0  0  0
    4.8720   -4.5320    1.7060 O   0  0  0  0  0  0  0  0  0  0  0  0
   -2.9640    0.1800   -0.4480 O   0  0  0  0  0  0  0  0  0  0  0  0
   -3.7810   -0.5150    0.2800 C   0  0  0  0  0  0  0  0  0  0  0  0
   -5.1080   -0.9050   -0.0570 N   0  0  0  0  0  0  0  0  0  0  0  0
   -5.9220   -1.6850    0.8510 C   0  0  0  0  0  0  0  0  0  0  0  0
   -7.2150   -2.0000    0.0860 C   0  0  1  0  0  0  0  0  0  0  0  0
   -7.8130   -0.8110   -0.3240 O   0  0  0  0  0  0  0  0  0  0  0  0
   -6.7480   -2.7150   -1.1890 C   0  0  0  0  0  0  0  0  0  0  0  0
   -5.9130   -1.7270   -1.9610 C   0  0  0  0  0  0  0  0  0  0  0  0
   -5.6560   -0.5570   -1.2430 O   0  0  0  0  0  0  0  0  0  0  0  0
  1  2  1  0
  2  3  1  0
  3  4  1  0
  3 29  2  0
  4  5  2  0
  5  6  1  0
  5 28  1  0
  6  7  1  0
  7  8  2  0
  7  9  1  0
  9 10  1  0
 10 11  1  0
 11 12  2  0
 11 13  1  0
 13 14  1  0
 13 21  1  0
 14 15  2  0
 14 16  1  0
 16 17  1  0
 17 18  1  0
 18 19  2  0
 18 20  1  0
 21 22  2  0
 21 23  1  0
 23 24  1  0
 24 25  1  0
 25 26  1  0
 26 27  1  0
 28 29  1  0
 29 30  1  0
 30 31  1  0
 30 36  1  0
 31 32  1  0
 32 33  1  6
 32 34  1  0
 34 35  1  0
 35 36  1  0
M  END
