
     RDKit          3D

 35 36  0  0  0  0  0  0  0  0999 V2000
   -0.6900   -3.8430   -1.1190 C   0  0  0  0  0  0  0  0  0  0  0  0
   -1.1750   -2.5220   -1.0800 O   0  0  0  0  0  0  0  0  0  0  0  0
   -2.4420   -2.1710   -0.7000 C   0  0  0  0  0  0  0  0  0  0  0  0
   -3.2610   -3.0760   -0.3520 O   0  0  0  0  0  0  0  0  0  0  0  0
   -2.8400   -0.7400   -0.6990 C   0  0  1  0  0  0  0  0  0  0  0  0
   -3.9680   -0.6260   -1.6940 C   0  0  0  0  0  0  0  0  0  0  0  0
   -5.0660   -1.4060   -1.4730 O   0  0  0  0  0  0  0  0  0  0  0  0
   -6.0430   -1.4560   -0.5430 C   0  0  0  0  0  0  0  0  0  0  0  0
   -6.0740   -0.6340    0.3960 O   0  0  0  0  0  0  0  0  0  0  0  0
   -7.0770   -2.4060   -0.5470 O   0  0  0  0  0  0  0  0  0  0  0  0
   -3.2400   -0.2500    0.6380 C   0  0  0  0  0  0  0  0  0  0  0  0
   -1.8540    0.2160    1.1960 C   0  0  2  0  0  0  0  0  0  0  0  0
   -1.1850   -0.8850    1.6740 F   0  0  0  0  0  0  0  0  0  0  0  0
   -2.0820    1.2190    2.2790 C   0  0  0  0  0  0  0  0  0  0  0  0
   -1.2290    2.3020    2.1800 O   0  0  0  0  0  0  0  0  0  0  0  0
   -1.6590    2.9800    1.0530 N   0  0  0  0  0  0  0  0  0  0  0  0
   -1.8870    4.3590    1.1520 C   0  0  0  0  0  0  0  0  0  0  0  0
   -2.2850    5.0550    0.1550 O   0  0  0  0  0  0  0  0  0  0  0  0
   -1.7060    5.0810    2.3200 O   0  0  0  0  0  0  0  0  0  0  0  0
   -1.8330    2.2010   -0.1280 C   0  0  0  0  0  0  0  0  0  0  0  0
   -2.3730    2.6310   -1.1180 O   0  0  0  0  0  0  0  0  0  0  0  0
   -1.2930    0.7890   -0.0610 C   0  0  1  0  0  0  0  0  0  0  0  0
    0.1860    0.9620   -0.0320 C   0  0  0  0  0  0  0  0  0  0  0  0
    1.0330   -0.2300    0.1640 C   0  0  0  0  0  0  0  0  0  0  0  0
    2.3780    0.2430    0.1340 O   0  0  0  0  0  0  0  0  0  0  0  0
    3.2550   -0.8270    0.3130 C   0  0  0  0  0  0  0  0  0  0  0  0
    4.6990   -0.3440    0.2790 C   0  0  2  0  0  0  0  0  0  0  0  0
    4.9130    0.7220    1.3540 C   0  0  0  0  0  0  0  0  0  0  0  0
    4.6590    0.2070    2.6200 O   0  0  0  0  0  0  0  0  0  0  0  0
    4.9900    0.2840   -0.9980 N   0  0  0  0  0  0  0  0  0  0  0  0
    6.0510   -0.2010   -1.7900 C   0  0  0  0  0  0  0  0  0  0  0  0
    6.7800   -1.1710   -1.4480 O   0  0  0  0  0  0  0  0  0  0  0  0
    6.3200    0.4110   -3.0160 O   0  0  0  0  0  0  0  0  0  0  0  0
    7.3070   -0.0150   -3.7890 O   0  0  0  0  0  0  0  0  0  0  0  0
   -1.7500    0.0370   -1.1130 O   0  0  0  0  0  0  0  0  0  0  0  0
  1  2  1  0
  2  3  1  0
  3  4  2  0
  3  5  1  0
  5  6  1  6
  5 11  1  0
  5 35  1  0
  6  7  1  0
  7  8  1  0
  8  9  2  0
  8 10  1  0
 11 12  1  0
 12 13  1  1
 12 14  1  0
 12 22  1  0
 14 15  1  0
 15 16  1  0
 16 17  1  0
 16 20  1  0
 17 18  2  0
 17 19  1  0
 20 21  2  0
 20 22  1  0
 22 23  1  1
 22 35  1  0
 23 24  1  0
 24 25  1  0
 25 26  1  0
 27 26  1  6
 27 28  1  0
 27 30  1  0
 28 29  1  0
 30 31  1  0
 31 32  2  0
 31 33  1  0
 33 34  1  0
M  END
