
     RDKit          3D

 16 18  0  0  0  0  0  0  0  0999 V2000
   -2.0270   -0.0340    1.9030 C   0  0  0  0  0  0  0  0  0  0  0  0
   -2.6820    0.1480    0.5700 C   0  0  0  0  0  0  0  0  0  0  0  0
   -3.9970    0.2650    0.4530 C   0  0  0  0  0  0  0  0  0  0  0  0
   -4.3290    0.4310   -0.9730 C   0  0  0  0  0  0  0  0  0  0  0  0
   -3.0200    0.3900   -1.6290 C   0  0  0  0  0  0  0  0  0  0  0  0
   -2.0340    0.2230   -0.7290 C   0  0  0  0  0  0  0  0  0  0  0  0
   -0.6150    0.1380   -1.0270 C   0  0  0  0  0  0  0  0  0  0  0  0
    0.4630   -0.0290   -0.2140 C   0  0  0  0  0  0  0  0  0  0  0  0
    1.6310   -0.0470   -0.9860 C   0  0  0  0  0  0  0  0  0  0  0  0
    2.9720   -0.2020   -0.5060 C   0  0  0  0  0  0  0  0  0  0  0  0
    3.5280   -0.3690    0.7450 C   0  0  0  0  0  0  0  0  0  0  0  0
    4.8290   -0.4890    0.9050 C   0  0  0  0  0  0  0  0  0  0  0  0
    5.6700   -0.4490   -0.2000 C   0  0  0  0  0  0  0  0  0  0  0  0
    4.4770   -0.2210   -1.5470 S   0  0  0  0  0  0  0  0  0  0  0  0
    1.1870    0.1120   -2.2470 N   0  0  0  0  0  0  0  0  0  0  0  0
   -0.1070    0.2200   -2.2840 N   0  0  0  0  0  0  0  0  0  0  0  0
  1  2  1  0
  2  3  2  0
  2  6  1  0
  3  4  1  0
  4  5  1  0
  5  6  2  0
  6  7  1  0
  7  8  1  0
  7 16  2  0
  8  9  2  0
  9 10  1  0
  9 15  1  0
 10 11  2  0
 10 14  1  0
 11 12  1  0
 12 13  2  0
 13 14  1  0
 15 16  1  0
M  END
