
     RDKit          3D

 16 17  0  0  0  0  0  0  0  0999 V2000
    3.2810   -2.1110    0.8970 C   0  0  0  0  0  0  0  0  0  0  0  0
    3.4810   -0.9380    0.3570 C   0  0  0  0  0  0  0  0  0  0  0  0
    4.8300   -0.3280    0.3060 C   0  0  0  0  0  0  0  0  0  0  0  0
    4.9440    0.8650   -0.2600 C   0  0  0  0  0  0  0  0  0  0  0  0
    3.8390    1.6340   -0.8420 C   0  0  0  0  0  0  0  0  0  0  0  0
    2.5350    0.9520   -0.7480 C   0  0  0  0  0  0  0  0  0  0  0  0
    2.3490   -0.2280   -0.2010 C   0  0  0  0  0  0  0  0  0  0  0  0
    1.0550   -0.7640   -0.1760 N   0  0  0  0  0  0  0  0  0  0  0  0
   -0.0740   -0.0990    0.3740 C   0  0  0  0  0  0  0  0  0  0  0  0
    0.2020    1.3910    1.0110 S   0  0  0  0  0  0  0  0  0  0  0  0
   -1.3570   -0.6910    0.3710 N   0  0  0  0  0  0  0  0  0  0  0  0
   -2.5380   -0.0980    0.8990 C   0  0  1  0  0  0  0  0  0  0  0  0
   -2.9470    1.1940    0.2900 C   0  0  0  0  0  0  0  0  0  0  0  0
   -3.8450    0.7880   -0.8520 C   0  0  0  0  0  0  0  0  0  0  0  0
   -4.7360   -0.2270   -0.1240 C   0  0  0  0  0  0  0  0  0  0  0  0
   -3.7410   -0.9860    0.6800 C   0  0  0  0  0  0  0  0  0  0  0  0
  1  2  2  0
  2  3  1  0
  2  7  1  0
  3  4  2  0
  4  5  1  0
  5  6  1  0
  6  7  2  0
  7  8  1  0
  8  9  1  0
  9 10  2  0
  9 11  1  0
 12 11  1  6
 12 13  1  0
 12 16  1  0
 13 14  1  0
 14 15  1  0
 15 16  1  0
M  END
