
     RDKit          3D

 16 18  0  0  0  0  0  0  0  0999 V2000
   -4.5070    0.1040    0.8170 N   0  0  0  0  0  0  0  0  0  0  0  0
   -3.1290   -0.0790    1.0900 C   0  0  0  0  0  0  0  0  0  0  0  0
   -2.2230   -0.3280    0.0520 C   0  0  0  0  0  0  0  0  0  0  0  0
   -0.9100   -0.4940    0.3910 C   0  0  0  0  0  0  0  0  0  0  0  0
    0.1310   -0.7800   -0.6600 C   0  0  0  0  0  0  0  0  0  0  0  0
   -0.1060   -1.8140   -1.5330 C   0  0  0  0  0  0  0  0  0  0  0  0
    1.4040   -1.7820   -2.5580 S   0  0  0  0  0  0  0  0  0  0  0  0
    2.1440   -0.4680   -1.7570 C   0  0  0  0  0  0  0  0  0  0  0  0
    3.4060    0.1840   -1.9940 C   0  0  0  0  0  0  0  0  0  0  0  0
    3.7820    1.2440   -1.2030 C   0  0  0  0  0  0  0  0  0  0  0  0
    2.9070    1.6140   -0.2190 C   0  0  0  0  0  0  0  0  0  0  0  0
    1.7050    0.9890    0.0030 C   0  0  0  0  0  0  0  0  0  0  0  0
    1.2910   -0.1020   -0.7920 C   0  0  0  0  0  0  0  0  0  0  0  0
   -0.5550   -0.4100    1.7090 C   0  0  0  0  0  0  0  0  0  0  0  0
   -1.4720   -0.1630    2.7060 C   0  0  0  0  0  0  0  0  0  0  0  0
   -2.7390   -0.0040    2.3710 N   0  0  0  0  0  0  0  0  0  0  0  0
  1  2  1  0
  2  3  2  0
  2 16  1  0
  3  4  1  0
  4  5  1  0
  4 14  2  0
  5  6  2  0
  5 13  1  0
  6  7  1  0
  7  8  1  0
  8  9  2  0
  8 13  1  0
  9 10  1  0
 10 11  2  0
 11 12  1  0
 12 13  2  0
 14 15  1  0
 15 16  2  0
M  END
