
     RDKit          3D

 16 18  0  0  0  0  0  0  0  0999 V2000
   -2.1150   -2.0800    0.5290 N   0  0  0  0  0  0  0  0  0  0  0  0
   -2.3450   -0.7340    0.1190 C   0  0  0  0  0  0  0  0  0  0  0  0
   -3.5920   -0.1530    0.2060 C   0  0  0  0  0  0  0  0  0  0  0  0
   -3.7400    1.1210   -0.1980 N   0  0  0  0  0  0  0  0  0  0  0  0
   -2.7000    1.8540   -0.6890 C   0  0  0  0  0  0  0  0  0  0  0  0
   -1.4230    1.3010   -0.7940 C   0  0  0  0  0  0  0  0  0  0  0  0
   -1.2920    0.0080   -0.3790 C   0  0  0  0  0  0  0  0  0  0  0  0
    0.0730   -0.6220   -0.4990 C   0  0  0  0  0  0  0  0  0  0  0  0
    0.1280   -1.8210   -1.1300 C   0  0  0  0  0  0  0  0  0  0  0  0
    1.9230   -2.2790   -1.1330 S   0  0  0  0  0  0  0  0  0  0  0  0
    2.3960   -0.7270   -0.2430 C   0  0  0  0  0  0  0  0  0  0  0  0
    3.6490   -0.3380    0.1390 C   0  0  0  0  0  0  0  0  0  0  0  0
    3.7770    0.8710    0.8100 C   0  0  0  0  0  0  0  0  0  0  0  0
    2.6180    1.5720    1.0300 C   0  0  0  0  0  0  0  0  0  0  0  0
    1.3730    1.1520    0.6320 C   0  0  0  0  0  0  0  0  0  0  0  0
    1.2370   -0.0890   -0.0580 C   0  0  0  0  0  0  0  0  0  0  0  0
  1  2  1  0
  2  3  2  0
  2  7  1  0
  3  4  1  0
  4  5  2  0
  5  6  1  0
  6  7  2  0
  7  8  1  0
  8  9  2  0
  8 16  1  0
  9 10  1  0
 10 11  1  0
 11 12  2  0
 11 16  1  0
 12 13  1  0
 13 14  2  0
 14 15  1  0
 15 16  2  0
M  END
