
     RDKit          3D

 16 18  0  0  0  0  0  0  0  0999 V2000
   -1.9940    0.7360    0.6280 C   0  0  0  0  0  0  0  0  0  0  0  0
   -2.6560   -0.6030    0.3790 C   0  0  0  0  0  0  0  0  0  0  0  0
   -2.1940   -1.7960    0.6500 C   0  0  0  0  0  0  0  0  0  0  0  0
   -0.6520   -2.2450    1.3950 S   0  0  0  0  0  0  0  0  0  0  0  0
    0.5460   -0.9840    1.6150 C   0  0  0  0  0  0  0  0  0  0  0  0
    1.0540   -0.5260    0.2720 C   0  0  0  0  0  0  0  0  0  0  0  0
    0.7260   -0.9320   -0.9480 N   0  0  0  0  0  0  0  0  0  0  0  0
    1.4110   -0.2660   -1.8390 N   0  0  0  0  0  0  0  0  0  0  0  0
    2.2430    0.6330   -1.2350 C   0  0  0  0  0  0  0  0  0  0  0  0
    2.0210    0.4740    0.1130 C   0  0  0  0  0  0  0  0  0  0  0  0
    2.8730    1.4020    0.8680 C   0  0  0  0  0  0  0  0  0  0  0  0
    3.6780    2.1180   -0.1570 C   0  0  0  0  0  0  0  0  0  0  0  0
    3.2510    1.6670   -1.5210 C   0  0  0  0  0  0  0  0  0  0  0  0
   -3.2230   -2.7960    0.2390 C   0  0  0  0  0  0  0  0  0  0  0  0
   -4.2520   -2.1730   -0.2610 C   0  0  0  0  0  0  0  0  0  0  0  0
   -4.0250   -0.7250   -0.2410 C   0  0  0  0  0  0  0  0  0  0  0  0
  1  2  1  0
  2  3  2  0
  2 16  1  0
  3  4  1  0
  3 14  1  0
  4  5  1  0
  5  6  1  0
  6  7  2  0
  6 10  1  0
  7  8  1  0
  8  9  1  0
  9 10  2  0
  9 13  1  0
 10 11  1  0
 11 12  1  0
 12 13  1  0
 14 15  2  0
 15 16  1  0
M  END
