
     RDKit          3D

 16 18  0  0  0  0  0  0  0  0999 V2000
    4.9520    1.2550    0.4230 C   0  0  0  0  0  0  0  0  0  0  0  0
    3.4910    1.4710    0.0810 C   0  0  0  0  0  0  0  0  0  0  0  0
    2.5930   -0.0290    0.4730 S   0  0  0  0  0  0  0  0  0  0  0  0
    0.8680    0.1180    0.1100 C   0  0  0  0  0  0  0  0  0  0  0  0
    0.3620    1.2770   -0.4070 C   0  0  0  0  0  0  0  0  0  0  0  0
   -0.9850    1.3770   -0.6860 C   0  0  0  0  0  0  0  0  0  0  0  0
   -1.8290    0.3200   -0.4470 C   0  0  0  0  0  0  0  0  0  0  0  0
   -1.3340   -0.8560    0.0750 C   0  0  0  0  0  0  0  0  0  0  0  0
   -1.9440   -2.0600    0.4090 C   0  0  0  0  0  0  0  0  0  0  0  0
   -0.9430   -2.8650    0.8840 C   0  0  0  0  0  0  0  0  0  0  0  0
   -1.0700   -4.2520    1.3720 C   0  0  0  0  0  0  0  0  0  0  0  0
    0.2190   -2.1720    0.8370 N   0  0  0  0  0  0  0  0  0  0  0  0
    0.0200   -0.9430    0.3490 C   0  0  0  0  0  0  0  0  0  0  0  0
   -3.1690    0.6880   -0.8160 N   0  0  0  0  0  0  0  0  0  0  0  0
   -3.1980    2.1350   -0.7390 C   0  0  0  0  0  0  0  0  0  0  0  0
   -1.8240    2.4920   -1.2540 C   0  0  0  0  0  0  0  0  0  0  0  0
  1  2  1  0
  2  3  1  0
  3  4  1  0
  4  5  2  0
  4 13  1  0
  5  6  1  0
  6  7  2  0
  6 16  1  0
  7  8  1  0
  7 14  1  0
  8  9  1  0
  8 13  2  0
  9 10  2  0
 10 11  1  0
 10 12  1  0
 12 13  1  0
 14 15  1  0
 15 16  1  0
M  END
