
     RDKit          3D

 16 18  0  0  0  0  0  0  0  0999 V2000
   -1.2210    4.0240    1.5060 S   0  0  0  0  0  0  0  0  0  0  0  0
   -1.0170    2.5180    0.9240 C   0  0  0  0  0  0  0  0  0  0  0  0
    0.2140    1.9210    0.7980 C   0  0  0  0  0  0  0  0  0  0  0  0
    0.3540    0.6190    0.2910 C   0  0  0  0  0  0  0  0  0  0  0  0
    1.6800    0.0260    0.1480 C   0  0  0  0  0  0  0  0  0  0  0  0
    2.6600   -0.0630    1.1420 C   0  0  0  0  0  0  0  0  0  0  0  0
    3.7480   -0.6690    0.5690 C   0  0  0  0  0  0  0  0  0  0  0  0
    3.5160   -0.9610   -0.7040 N   0  0  0  0  0  0  0  0  0  0  0  0
    2.2560   -0.5360   -0.9540 C   0  0  0  0  0  0  0  0  0  0  0  0
   -0.7920   -0.0490   -0.0780 C   0  0  0  0  0  0  0  0  0  0  0  0
   -0.7170   -1.3430   -0.5780 C   0  0  0  0  0  0  0  0  0  0  0  0
   -1.8760   -2.0340   -0.9510 C   0  0  0  0  0  0  0  0  0  0  0  0
   -3.0840   -1.3860   -0.8040 C   0  0  0  0  0  0  0  0  0  0  0  0
   -3.1620   -0.0980   -0.3060 C   0  0  0  0  0  0  0  0  0  0  0  0
   -2.0200    0.5820    0.0620 C   0  0  0  0  0  0  0  0  0  0  0  0
   -2.1030    1.8300    0.5510 N   0  0  0  0  0  0  0  0  0  0  0  0
  1  2  2  0
  2  3  1  0
  2 16  1  0
  3  4  2  0
  4  5  1  0
  4 10  1  0
  5  6  1  0
  5  9  2  0
  6  7  2  0
  7  8  1  0
  8  9  1  0
 10 11  2  0
 10 15  1  0
 11 12  1  0
 12 13  2  0
 13 14  1  0
 14 15  2  0
 15 16  1  0
M  END
