
     RDKit          3D

 14 14  0  0  0  0  0  0  0  0999 V2000
   -2.1830   -2.3490    0.4590 N   0  0  0  0  0  0  0  0  0  0  0  0
   -1.7940   -0.9400    0.5230 C   0  0  2  0  0  0  0  0  0  0  0  0
   -2.8280   -0.0800   -0.1570 C   0  0  0  0  0  0  0  0  0  0  0  0
   -2.8500    1.3260    0.3810 C   0  0  0  0  0  0  0  0  0  0  0  0
   -1.6130    1.9660    0.3270 O   0  0  0  0  0  0  0  0  0  0  0  0
   -0.3430    1.4970   -0.0070 C   0  0  0  0  0  0  0  0  0  0  0  0
    0.4110    2.2140   -0.6960 O   0  0  0  0  0  0  0  0  0  0  0  0
    0.1680    0.1530    0.4270 C   0  0  2  0  0  0  0  0  0  0  0  0
    1.5470   -0.0020   -0.1010 C   0  0  0  0  0  0  0  0  0  0  0  0
    1.8380    0.0330   -1.4560 O   0  0  0  0  0  0  0  0  0  0  0  0
    2.4980   -0.1770    0.7460 N   0  0  0  0  0  0  0  0  0  0  0  0
    3.8570   -0.3380    0.3640 C   0  0  0  0  0  0  0  0  0  0  0  0
    4.4640    0.6710   -0.1460 N   0  0  0  0  0  0  0  0  0  0  0  0
   -0.6120   -0.8220   -0.1920 O   0  0  0  0  0  0  0  0  0  0  0  0
  2  1  1  6
  2  3  1  0
  2 14  1  0
  3  4  1  0
  4  5  1  0
  5  6  1  0
  6  7  2  0
  6  8  1  0
  8  9  1  6
  8 14  1  0
  9 10  1  0
  9 11  2  3
 11 12  1  0
 12 13  2  0
M  CHG  1  13   1
M  END
