
     RDKit          3D

 15 15  0  0  0  0  0  0  0  0999 V2000
   -3.2600   -1.1600   -0.7300 N   0  0  0  0  0  0  0  0  0  0  0  0
   -2.0040   -0.7630   -0.1390 C   0  0  2  0  0  0  0  0  0  0  0  0
   -2.2480    0.4710    0.7170 C   0  0  0  0  0  0  0  0  0  0  0  0
   -2.7430    1.4930   -0.0710 O   0  0  0  0  0  0  0  0  0  0  0  0
   -1.0520   -0.3640   -1.2530 C   0  0  0  0  0  0  0  0  0  0  0  0
    0.2100    0.0420   -0.7630 O   0  0  0  0  0  0  0  0  0  0  0  0
    1.0610   -0.7330   -0.0290 C   0  0  0  0  0  0  0  0  0  0  0  0
    0.7330   -1.8990    0.2530 O   0  0  0  0  0  0  0  0  0  0  0  0
    2.3620   -0.2100    0.4360 C   0  0  0  0  0  0  0  0  0  0  0  0
    3.2320   -0.8550    1.1300 N   0  0  0  0  0  0  0  0  0  0  0  0
    4.3640    0.0030    1.3800 C   0  0  1  0  0  0  0  0  0  0  0  0
    5.8320   -0.7050    0.6770 Cl  0  0  0  0  0  0  0  0  0  0  0  0
    4.0060    1.2380    0.7200 N   0  0  0  0  0  0  0  0  0  0  0  0
    2.8550    1.1350    0.1700 C   0  0  0  0  0  0  0  0  0  0  0  0
    2.2140    2.1370   -0.5460 O   0  0  0  0  0  0  0  0  0  0  0  0
  2  1  1  6
  2  3  1  0
  2  5  1  0
  3  4  1  0
  5  6  1  0
  6  7  1  0
  7  8  2  0
  7  9  1  0
  9 10  2  0
  9 14  1  0
 10 11  1  0
 11 12  1  6
 11 13  1  0
 13 14  2  0
 14 15  1  0
M  CHG  1   1   1
M  END
