
     RDKit          3D

 14 14  0  0  0  0  0  0  0  0999 V2000
    3.7120   -0.1060   -0.5630 N   0  0  0  0  0  0  0  0  0  0  0  0
    2.9070    0.1120    0.6200 C   0  0  0  0  0  0  0  0  0  0  0  0
    1.7860    1.0810    0.2790 C   0  0  0  0  0  0  0  0  0  0  0  0
    0.9360    0.5750   -0.7670 N   0  0  0  0  0  0  0  0  0  0  0  0
    0.2750   -0.6200   -0.5400 N   0  0  0  0  0  0  0  0  0  0  0  0
   -0.9880   -0.7660   -0.4510 C   0  0  0  0  0  0  0  0  0  0  0  0
   -1.4820   -2.1460   -0.2020 C   0  0  0  0  0  0  0  0  0  0  0  0
   -2.7020   -2.0970    0.4720 O   0  0  0  0  0  0  0  0  0  0  0  0
   -3.5390   -1.0120    0.3390 C   0  0  0  0  0  0  0  0  0  0  0  0
   -4.7330   -1.1510    0.7170 O   0  0  0  0  0  0  0  0  0  0  0  0
   -3.1160    0.2620   -0.2070 C   0  0  0  0  0  0  0  0  0  0  0  0
   -4.0150    1.3110   -0.3100 O   0  0  0  0  0  0  0  0  0  0  0  0
   -1.8760    0.3870   -0.5920 C   0  0  0  0  0  0  0  0  0  0  0  0
   -1.4260    1.5820   -1.1190 O   0  0  0  0  0  0  0  0  0  0  0  0
  1  2  1  0
  2  3  1  0
  3  4  1  0
  4  5  1  0
  5  6  2  3
  6  7  1  0
  6 13  1  0
  7  8  1  0
  8  9  1  0
  9 10  2  0
  9 11  1  0
 11 12  1  0
 11 13  2  0
 13 14  1  0
M  CHG  1   1   1
M  END
