
     RDKit          3D

 15 15  0  0  0  0  0  0  0  0999 V2000
   -1.4130    3.4620    1.7380 N   0  0  0  0  0  0  0  0  0  0  0  0
   -0.3460    2.6380    2.1250 C   0  0  0  0  0  0  0  0  0  0  0  0
    0.3710    3.0040    3.1180 O   0  0  0  0  0  0  0  0  0  0  0  0
   -0.0030    1.4060    1.4760 C   0  0  0  0  0  0  0  0  0  0  0  0
   -0.6680    0.9400    0.4550 C   0  0  0  0  0  0  0  0  0  0  0  0
   -1.7300    1.4130   -0.2060 N   0  0  0  0  0  0  0  0  0  0  0  0
   -2.0520    0.5620   -1.2000 C   0  0  0  0  0  0  0  0  0  0  0  0
   -2.9860    0.6640   -2.0320 O   0  0  0  0  0  0  0  0  0  0  0  0
   -1.2100   -0.4050   -1.1470 O   0  0  0  0  0  0  0  0  0  0  0  0
   -0.3440   -0.2680   -0.1920 C   0  0  0  0  0  0  0  0  0  0  0  0
    0.6510   -1.0900    0.1260 C   0  0  0  0  0  0  0  0  0  0  0  0
    0.8200   -2.3190   -0.6900 C   0  0  2  0  0  0  0  0  0  0  0  0
   -0.1730   -3.6110    0.0300 Cl  0  0  0  0  0  0  0  0  0  0  0  0
    2.1200   -2.7490   -0.7490 O   0  0  0  0  0  0  0  0  0  0  0  0
    2.5030   -2.7980   -2.0440 N   0  0  0  0  0  0  0  0  0  0  0  0
  1  2  1  0
  2  3  2  0
  2  4  1  0
  4  5  2  3
  5  6  1  0
  5 10  1  0
  6  7  1  0
  7  8  2  0
  7  9  1  0
  9 10  1  0
 10 11  2  3
 11 12  1  0
 12 13  1  1
 12 14  1  0
 14 15  1  0
M  CHG  1  15   1
M  END
