
     RDKit          3D

 15 15  0  0  0  0  0  0  0  0999 V2000
   -0.1610    1.3350   -1.9490 N   0  0  0  0  0  0  0  0  0  0  0  0
   -0.7320    0.4460   -1.0060 C   0  0  0  0  0  0  0  0  0  0  0  0
   -1.9240   -0.0980   -1.3570 C   0  0  0  0  0  0  0  0  0  0  0  0
   -2.7170   -1.0400   -0.5630 C   0  0  0  0  0  0  0  0  0  0  0  0
   -3.6590   -1.7710   -1.2640 O   0  0  0  0  0  0  0  0  0  0  0  0
   -2.6340   -1.2630    0.7120 N   0  0  0  0  0  0  0  0  0  0  0  0
   -1.7760   -0.6830    1.7090 C   0  0  0  0  0  0  0  0  0  0  0  0
   -2.1260   -0.7360    2.9060 O   0  0  0  0  0  0  0  0  0  0  0  0
   -0.5500   -0.0470    1.4550 O   0  0  0  0  0  0  0  0  0  0  0  0
    0.0290    0.2480    0.2000 C   0  0  0  0  0  0  0  0  0  0  0  0
    1.3360    0.3480    0.1160 C   0  0  0  0  0  0  0  0  0  0  0  0
    2.0170    0.7140   -1.4740 Cl  0  0  0  0  0  0  0  0  0  0  0  0
    2.2020    0.1670    1.2740 C   0  0  0  0  0  0  0  0  0  0  0  0
    3.5920    0.2810    1.1450 N   0  0  0  0  0  0  0  0  0  0  0  0
    1.6920   -0.0880    2.3710 O   0  0  0  0  0  0  0  0  0  0  0  0
  1  2  1  0
  2  3  2  0
  2 10  1  0
  3  4  1  0
  4  5  1  0
  4  6  2  0
  6  7  1  0
  7  8  2  0
  7  9  1  0
  9 10  1  0
 10 11  2  3
 11 12  1  0
 11 13  1  0
 13 14  1  0
 13 15  2  0
M  CHG  1  14   1
M  END
