
     RDKit          3D

 22 24  0  0  0  0  0  0  0  0999 V2000
   -2.5080    0.5290    2.0030 N   0  0  0  0  0  0  0  0  0  0  0  0
   -2.5300   -0.0140    0.7040 C   0  0  0  0  0  0  0  0  0  0  0  0
   -1.3990   -0.2050   -0.0190 C   0  0  0  0  0  0  0  0  0  0  0  0
   -0.0440    0.1240    0.4460 C   0  0  0  0  0  0  0  0  0  0  0  0
    0.3090    0.6680    1.6410 C   0  0  0  0  0  0  0  0  0  0  0  0
    1.7010    0.7940    1.6260 C   0  0  0  0  0  0  0  0  0  0  0  0
    2.1120    0.3160    0.4130 C   0  0  0  0  0  0  0  0  0  0  0  0
    3.5250    0.2670   -0.0190 C   0  0  0  0  0  0  0  0  0  0  0  0
    3.9990    0.4920   -1.2320 C   0  0  0  0  0  0  0  0  0  0  0  0
    3.2230    0.8230   -2.3340 O   0  0  0  0  0  0  0  0  0  0  0  0
    5.4400    0.3500   -1.2740 C   0  0  0  0  0  0  0  0  0  0  0  0
    6.2620    0.4780   -2.2160 O   0  0  0  0  0  0  0  0  0  0  0  0
    5.8070    0.0170    0.0220 O   0  0  0  0  0  0  0  0  0  0  0  0
    4.6790   -0.0490    0.8430 C   0  0  0  0  0  0  0  0  0  0  0  0
    1.0610   -0.0680   -0.2510 O   0  0  0  0  0  0  0  0  0  0  0  0
   -1.5590   -0.7550   -1.2990 C   0  0  0  0  0  0  0  0  0  0  0  0
   -2.7810   -1.0970   -1.8290 C   0  0  0  0  0  0  0  0  0  0  0  0
   -2.9170   -1.6390   -3.0950 O   0  0  0  0  0  0  0  0  0  0  0  0
   -3.9210   -0.8980   -1.0840 C   0  0  0  0  0  0  0  0  0  0  0  0
   -5.2030   -1.2030   -1.5100 O   0  0  0  0  0  0  0  0  0  0  0  0
   -3.7680   -0.3520    0.1870 C   0  0  0  0  0  0  0  0  0  0  0  0
   -5.2410   -0.0820    1.1850 S   0  0  0  0  0  0  0  0  0  0  0  0
  1  2  1  0
  2  3  2  0
  2 21  1  0
  3  4  1  0
  3 16  1  0
  4  5  2  0
  4 15  1  0
  5  6  1  0
  6  7  2  0
  7  8  1  0
  7 15  1  0
  8  9  2  0
  8 14  1  0
  9 10  1  0
  9 11  1  0
 11 12  2  0
 11 13  1  0
 13 14  1  0
 16 17  2  0
 17 18  1  0
 17 19  1  0
 19 20  1  0
 19 21  2  0
 21 22  1  0
M  END
