
     RDKit          3D

 15 15  0  0  0  0  0  0  0  0999 V2000
   -3.5310   -1.7100    0.8030 N   0  0  0  0  0  0  0  0  0  0  0  0
   -2.5830   -0.6540    0.3870 C   0  0  0  0  0  0  0  0  0  0  0  0
   -3.1760    0.5200   -0.1770 C   0  0  0  0  0  0  0  0  0  0  0  0
   -2.5380    1.4990   -0.5770 O   0  0  0  0  0  0  0  0  0  0  0  0
   -4.5780    0.6230   -0.3120 O   0  0  0  0  0  0  0  0  0  0  0  0
   -1.3160   -0.8950    0.5750 C   0  0  0  0  0  0  0  0  0  0  0  0
   -0.9280   -2.4900    1.3170 Cl  0  0  0  0  0  0  0  0  0  0  0  0
   -0.1900   -0.0610    0.2650 C   0  0  0  0  0  0  0  0  0  0  0  0
   -0.1700    1.0990   -0.2640 N   0  0  0  0  0  0  0  0  0  0  0  0
    1.1480    1.6180   -0.4180 C   0  0  0  0  0  0  0  0  0  0  0  0
    1.9610    0.7220    0.4780 C   0  0  2  0  0  0  0  0  0  0  0  0
    3.3090    0.4310   -0.0860 C   0  0  0  0  0  0  0  0  0  0  0  0
    3.7130   -0.8480   -0.5120 N   0  0  0  0  0  0  0  0  0  0  0  0
    4.0790    1.3720   -0.1690 O   0  0  0  0  0  0  0  0  0  0  0  0
    1.1550   -0.4430    0.5260 O   0  0  0  0  0  0  0  0  0  0  0  0
  1  2  1  0
  2  3  1  0
  2  6  2  3
  3  4  2  0
  3  5  1  0
  6  7  1  0
  6  8  1  0
  8  9  2  0
  8 15  1  0
  9 10  1  0
 10 11  1  0
 11 12  1  6
 11 15  1  0
 12 13  1  0
 12 14  2  0
M  CHG  1  13   1
M  END
