
     RDKit          3D

 15 15  0  0  0  0  0  0  0  0999 V2000
   -2.9560   -0.7800   -0.7340 N   0  0  0  0  0  0  0  0  0  0  0  0
   -1.6700   -0.5160   -0.0590 C   0  0  1  0  0  0  0  0  0  0  0  0
   -0.5790   -0.4310   -1.0710 C   0  0  0  0  0  0  0  0  0  0  0  0
    0.7310   -0.1670   -0.5980 N   0  0  0  0  0  0  0  0  0  0  0  0
    1.5470   -1.1660   -0.1590 C   0  0  0  0  0  0  0  0  0  0  0  0
    2.8150   -0.8960    0.3190 C   0  0  0  0  0  0  0  0  0  0  0  0
    3.8930   -2.1590    0.8910 Cl  0  0  0  0  0  0  0  0  0  0  0  0
    3.2660    0.3940    0.3560 C   0  0  0  0  0  0  0  0  0  0  0  0
    4.4290    0.6930    0.7900 O   0  0  0  0  0  0  0  0  0  0  0  0
    2.4530    1.3700   -0.0790 N   0  0  0  0  0  0  0  0  0  0  0  0
    1.2190    1.0740   -0.5410 C   0  0  0  0  0  0  0  0  0  0  0  0
    0.5310    2.0330   -0.9270 O   0  0  0  0  0  0  0  0  0  0  0  0
   -1.8430    0.7420    0.6830 C   0  0  0  0  0  0  0  0  0  0  0  0
   -2.8750    1.4660    0.5250 O   0  0  0  0  0  0  0  0  0  0  0  0
   -0.9290    1.2460    1.6000 O   0  0  0  0  0  0  0  0  0  0  0  0
  2  1  1  6
  2  3  1  0
  2 13  1  0
  3  4  1  0
  4  5  1  0
  4 11  1  0
  5  6  2  0
  6  7  1  0
  6  8  1  0
  8  9  2  0
  8 10  1  0
 10 11  1  0
 11 12  2  0
 13 14  2  0
 13 15  1  0
M  CHG  1   1   1
M  END
