
     RDKit          3D

 15 15  0  0  0  0  0  0  0  0999 V2000
    3.9260   -1.1890   -1.6720 O   0  0  0  0  0  0  0  0  0  0  0  0
    4.1000   -0.8790   -0.4660 C   0  0  0  0  0  0  0  0  0  0  0  0
    5.3460   -1.1080    0.1470 O   0  0  0  0  0  0  0  0  0  0  0  0
    3.0250   -0.3040    0.2400 N   0  0  0  0  0  0  0  0  0  0  0  0
    1.7970   -0.0860   -0.3890 N   0  0  0  0  0  0  0  0  0  0  0  0
    0.7290    0.6060    0.2360 C   0  0  0  0  0  0  0  0  0  0  0  0
    0.9170    1.0280    1.4000 O   0  0  0  0  0  0  0  0  0  0  0  0
   -0.5910    0.8470   -0.4330 C   0  0  1  0  0  0  0  0  0  0  0  0
   -1.1510   -0.3640   -1.0640 C   0  0  0  0  0  0  0  0  0  0  0  0
   -2.2470   -1.0770   -0.3750 C   0  0  0  0  0  0  0  0  0  0  0  0
   -3.1410   -0.2060    0.4880 C   0  0  2  0  0  0  0  0  0  0  0  0
   -4.2250    0.8070   -0.4980 Cl  0  0  0  0  0  0  0  0  0  0  0  0
   -2.2320    0.7050    1.2130 C   0  0  0  0  0  0  0  0  0  0  0  0
   -2.1870    0.6770    2.4130 O   0  0  0  0  0  0  0  0  0  0  0  0
   -1.4410    1.5840    0.4470 N   0  0  0  0  0  0  0  0  0  0  0  0
  1  2  2  0
  2  3  1  0
  2  4  1  0
  4  5  1  0
  5  6  1  0
  6  7  2  0
  8  6  1  1
  8  9  1  0
  8 15  1  0
  9 10  1  0
 10 11  1  0
 11 12  1  6
 11 13  1  0
 13 14  2  0
 13 15  1  0
M  CHG  1  15   1
M  END
