
     RDKit          3D

 14 14  0  0  0  0  0  0  0  0999 V2000
    3.7460   -1.0190   -0.5420 N   0  0  0  0  0  0  0  0  0  0  0  0
    3.0760   -0.8070    0.7280 C   0  0  0  0  0  0  0  0  0  0  0  0
    2.1240    0.3720    0.6560 C   0  0  0  0  0  0  0  0  0  0  0  0
    1.0990    0.1640   -0.3520 N   0  0  0  0  0  0  0  0  0  0  0  0
    0.1570    1.1700   -0.5250 N   0  0  0  0  0  0  0  0  0  0  0  0
   -1.1130    0.9980   -0.4290 C   0  0  0  0  0  0  0  0  0  0  0  0
   -2.0030    2.1690   -0.6390 C   0  0  0  0  0  0  0  0  0  0  0  0
   -3.1160    2.1190    0.2290 O   0  0  0  0  0  0  0  0  0  0  0  0
   -3.7080    0.9150    0.5140 C   0  0  0  0  0  0  0  0  0  0  0  0
   -4.9040    0.8220    0.9510 O   0  0  0  0  0  0  0  0  0  0  0  0
   -2.9990   -0.3450    0.3320 C   0  0  0  0  0  0  0  0  0  0  0  0
   -3.5870   -1.5830    0.6180 O   0  0  0  0  0  0  0  0  0  0  0  0
   -1.7440   -0.2800   -0.1250 C   0  0  0  0  0  0  0  0  0  0  0  0
   -1.0240   -1.4340   -0.3160 O   0  0  0  0  0  0  0  0  0  0  0  0
  1  2  1  0
  2  3  1  0
  3  4  1  0
  4  5  1  0
  5  6  2  3
  6  7  1  0
  6 13  1  0
  7  8  1  0
  8  9  1  0
  9 10  2  0
  9 11  1  0
 11 12  1  0
 11 13  2  0
 13 14  1  0
M  CHG  1   1   1
M  END
