
     RDKit          3D

 22 24  0  0  0  0  0  0  0  0999 V2000
   -1.0520   -1.9770   -0.5530 N   0  0  0  0  0  0  0  0  0  0  0  0
   -2.0460   -0.9800   -0.2960 C   0  0  0  0  0  0  0  0  0  0  0  0
   -1.5830    0.2720    0.0540 C   0  0  0  0  0  0  0  0  0  0  0  0
   -0.1390    0.5430    0.1500 C   0  0  0  0  0  0  0  0  0  0  0  0
    0.3810    1.7780    0.4970 C   0  0  0  0  0  0  0  0  0  0  0  0
    1.7590    1.6760    0.4890 C   0  0  0  0  0  0  0  0  0  0  0  0
    2.0170    0.3690    0.1340 C   0  0  0  0  0  0  0  0  0  0  0  0
    3.3550   -0.1860    0.0020 C   0  0  0  0  0  0  0  0  0  0  0  0
    4.3770    0.5010   -0.4840 C   0  0  0  0  0  0  0  0  0  0  0  0
    4.3570    1.8260   -0.9370 O   0  0  0  0  0  0  0  0  0  0  0  0
    5.5770   -0.3170   -0.4920 C   0  0  0  0  0  0  0  0  0  0  0  0
    6.7510   -0.0290   -0.8770 O   0  0  0  0  0  0  0  0  0  0  0  0
    5.2050   -1.5400    0.0210 O   0  0  0  0  0  0  0  0  0  0  0  0
    3.8320   -1.5550    0.3600 C   0  0  0  0  0  0  0  0  0  0  0  0
    0.8570   -0.2540   -0.0540 O   0  0  0  0  0  0  0  0  0  0  0  0
   -2.5200    1.2490    0.3070 C   0  0  0  0  0  0  0  0  0  0  0  0
   -3.8800    0.9670    0.2100 C   0  0  0  0  0  0  0  0  0  0  0  0
   -4.8310    1.9570    0.4650 O   0  0  0  0  0  0  0  0  0  0  0  0
   -4.3380   -0.2790   -0.1390 C   0  0  0  0  0  0  0  0  0  0  0  0
   -5.7050   -0.5530   -0.2340 O   0  0  0  0  0  0  0  0  0  0  0  0
   -3.4000   -1.2590   -0.3930 C   0  0  0  0  0  0  0  0  0  0  0  0
   -3.9480   -2.9000   -0.8510 S   0  0  0  0  0  0  0  0  0  0  0  0
  1  2  1  0
  2  3  2  0
  2 21  1  0
  3  4  1  0
  3 16  1  0
  4  5  2  0
  4 15  1  0
  5  6  1  0
  6  7  2  0
  7  8  1  0
  7 15  1  0
  8  9  2  0
  8 14  1  0
  9 10  1  0
  9 11  1  0
 11 12  2  0
 11 13  1  0
 13 14  1  0
 16 17  2  0
 17 18  1  0
 17 19  1  0
 19 20  1  0
 19 21  2  0
 21 22  1  0
M  END
