
     RDKit          3D

 15 15  0  0  0  0  0  0  0  0999 V2000
    0.3970   -1.5450   -1.7700 N   0  0  0  0  0  0  0  0  0  0  0  0
    0.8540   -0.6640   -0.7680 C   0  0  0  0  0  0  0  0  0  0  0  0
    2.1750   -0.7210   -0.5180 C   0  0  0  0  0  0  0  0  0  0  0  0
    2.9360    0.0460    0.4390 C   0  0  0  0  0  0  0  0  0  0  0  0
    4.2250   -0.3850    0.7200 O   0  0  0  0  0  0  0  0  0  0  0  0
    2.5820    1.1140    1.0980 N   0  0  0  0  0  0  0  0  0  0  0  0
    1.3650    1.8250    1.0690 C   0  0  0  0  0  0  0  0  0  0  0  0
    1.3960    2.9580    1.6000 O   0  0  0  0  0  0  0  0  0  0  0  0
    0.1640    1.3820    0.5110 O   0  0  0  0  0  0  0  0  0  0  0  0
   -0.1340    0.1870   -0.1330 C   0  0  0  0  0  0  0  0  0  0  0  0
   -1.3750   -0.2410   -0.1990 C   0  0  0  0  0  0  0  0  0  0  0  0
   -1.8380   -1.7000   -0.9710 Cl  0  0  0  0  0  0  0  0  0  0  0  0
   -2.4350    0.5790    0.4280 C   0  0  0  0  0  0  0  0  0  0  0  0
   -3.7960    0.1980    0.4070 N   0  0  0  0  0  0  0  0  0  0  0  0
   -2.1500    1.6590    1.0080 O   0  0  0  0  0  0  0  0  0  0  0  0
  1  2  1  0
  2  3  2  0
  2 10  1  0
  3  4  1  0
  4  5  1  0
  4  6  2  0
  6  7  1  0
  7  8  2  0
  7  9  1  0
  9 10  1  0
 10 11  2  3
 11 12  1  0
 11 13  1  0
 13 14  1  0
 13 15  2  0
M  CHG  1  14   1
M  END
