
     RDKit          3D

 14 14  0  0  0  0  0  0  0  0999 V2000
   -2.7930    0.3170   -1.9360 N   0  0  0  0  0  0  0  0  0  0  0  0
   -2.0210    0.1510   -0.7230 C   0  0  2  0  0  0  0  0  0  0  0  0
   -2.4020    1.1930    0.3240 C   0  0  0  0  0  0  0  0  0  0  0  0
   -1.7750    0.7440    1.6270 C   0  0  0  0  0  0  0  0  0  0  0  0
   -1.5220   -0.6660    1.6210 O   0  0  0  0  0  0  0  0  0  0  0  0
   -0.6650   -1.3810    0.7630 C   0  0  0  0  0  0  0  0  0  0  0  0
   -0.4190   -2.5800    1.0510 O   0  0  0  0  0  0  0  0  0  0  0  0
   -0.0240   -0.8420   -0.4550 C   0  0  2  0  0  0  0  0  0  0  0  0
    1.4020   -0.5640   -0.1100 C   0  0  0  0  0  0  0  0  0  0  0  0
    2.1640   -1.6280    0.3090 O   0  0  0  0  0  0  0  0  0  0  0  0
    1.9170    0.5950   -0.1890 N   0  0  0  0  0  0  0  0  0  0  0  0
    3.2800    0.8130    0.1510 C   0  0  0  0  0  0  0  0  0  0  0  0
    4.2350    0.2830   -0.5080 N   0  0  0  0  0  0  0  0  0  0  0  0
   -0.6610    0.2840   -0.9400 O   0  0  0  0  0  0  0  0  0  0  0  0
  2  1  1  6
  2  3  1  0
  2 14  1  0
  3  4  1  0
  4  5  1  0
  5  6  1  0
  6  7  2  0
  6  8  1  0
  8  9  1  1
  8 14  1  0
  9 10  1  0
  9 11  2  3
 11 12  1  0
 12 13  2  0
M  CHG  1  13   1
M  END
