
     RDKit          3D

 15 15  0  0  0  0  0  0  0  0999 V2000
   -1.2030   -0.8130    1.1870 N   0  0  0  0  0  0  0  0  0  0  0  0
   -1.5460    0.2150    0.2480 C   0  0  1  0  0  0  0  0  0  0  0  0
   -0.6910    0.0060   -0.9990 C   0  0  0  0  0  0  0  0  0  0  0  0
    0.6990    0.0970   -0.6250 N   0  0  0  0  0  0  0  0  0  0  0  0
    1.4010   -0.9660   -0.2490 C   0  0  0  0  0  0  0  0  0  0  0  0
    2.7280   -0.8230    0.0960 C   0  0  0  0  0  0  0  0  0  0  0  0
    3.6800   -2.2250    0.5980 Cl  0  0  0  0  0  0  0  0  0  0  0  0
    3.3590    0.4030    0.0630 C   0  0  0  0  0  0  0  0  0  0  0  0
    4.5750    0.5470    0.3770 O   0  0  0  0  0  0  0  0  0  0  0  0
    2.6040    1.4490   -0.3240 N   0  0  0  0  0  0  0  0  0  0  0  0
    1.3150    1.3080   -0.6590 C   0  0  0  0  0  0  0  0  0  0  0  0
    0.6350    2.3180   -1.0200 O   0  0  0  0  0  0  0  0  0  0  0  0
   -2.9910    0.1990   -0.1010 C   0  0  0  0  0  0  0  0  0  0  0  0
   -3.4110    1.0560   -0.9160 O   0  0  0  0  0  0  0  0  0  0  0  0
   -3.8980   -0.7090    0.4260 O   0  0  0  0  0  0  0  0  0  0  0  0
  2  1  1  1
  2  3  1  0
  2 13  1  0
  3  4  1  0
  4  5  1  0
  4 11  1  0
  5  6  2  0
  6  7  1  0
  6  8  1  0
  8  9  2  0
  8 10  1  0
 10 11  1  0
 11 12  2  0
 13 14  2  0
 13 15  1  0
M  CHG  1   1   1
M  END
