
     RDKit          3D

 14 14  0  0  0  0  0  0  0  0999 V2000
    3.3440   -1.7500    0.4990 N   0  0  0  0  0  0  0  0  0  0  0  0
    3.1260   -0.3450    0.5220 C   0  0  0  0  0  0  0  0  0  0  0  0
    3.6190    0.3000    1.4830 O   0  0  0  0  0  0  0  0  0  0  0  0
    2.3800    0.3090   -0.5010 N   0  0  0  0  0  0  0  0  0  0  0  0
    1.0690   -0.2390   -0.5430 C   0  0  0  0  0  0  0  0  0  0  0  0
    0.0760    0.4760    0.3520 C   0  0  2  0  0  0  0  0  0  0  0  0
   -1.1470   -0.3310    0.3570 C   0  0  0  0  0  0  0  0  0  0  0  0
   -2.3300    0.1690    0.1110 C   0  0  0  0  0  0  0  0  0  0  0  0
   -3.5060   -0.7400    0.1420 C   0  0  0  0  0  0  0  0  0  0  0  0
   -2.9710   -2.3750    0.5280 Cl  0  0  0  0  0  0  0  0  0  0  0  0
   -2.4930    1.5670   -0.1810 N   0  0  0  0  0  0  0  0  0  0  0  0
   -1.3180    2.3680   -0.1910 C   0  0  0  0  0  0  0  0  0  0  0  0
   -1.4450    3.6090   -0.4490 O   0  0  0  0  0  0  0  0  0  0  0  0
   -0.1080    1.7900    0.0730 O   0  0  0  0  0  0  0  0  0  0  0  0
  1  2  1  0
  2  3  2  0
  2  4  1  0
  4  5  1  0
  6  5  1  6
  6  7  1  0
  6 14  1  0
  7  8  2  0
  8  9  1  0
  8 11  1  0
  9 10  1  0
 11 12  1  0
 12 13  2  0
 12 14  1  0
M  CHG  1   4   1
M  END
