
     RDKit          3D

 15 15  0  0  0  0  0  0  0  0999 V2000
   -1.9370   -1.5660    1.3550 N   0  0  0  0  0  0  0  0  0  0  0  0
   -2.3310   -0.2040    1.2850 C   0  0  0  0  0  0  0  0  0  0  0  0
   -3.4730    0.2210    2.0800 C   0  0  0  0  0  0  0  0  0  0  0  0
   -4.1050   -0.5850    2.8140 O   0  0  0  0  0  0  0  0  0  0  0  0
   -3.8710    1.5670    2.0170 O   0  0  0  0  0  0  0  0  0  0  0  0
   -1.6790    0.6410    0.5240 C   0  0  0  0  0  0  0  0  0  0  0  0
   -2.2020    2.3080    0.4700 Cl  0  0  0  0  0  0  0  0  0  0  0  0
   -0.5440    0.2180   -0.2660 C   0  0  0  0  0  0  0  0  0  0  0  0
   -0.0750   -1.0040   -0.2950 N   0  0  0  0  0  0  0  0  0  0  0  0
    1.0600   -1.0800   -1.1830 C   0  0  0  0  0  0  0  0  0  0  0  0
    1.3720    0.3570   -1.5000 C   0  0  2  0  0  0  0  0  0  0  0  0
    2.5670    0.8060   -0.7250 C   0  0  0  0  0  0  0  0  0  0  0  0
    3.8640    0.2740   -0.9590 N   0  0  0  0  0  0  0  0  0  0  0  0
    2.4330    1.6470    0.1290 O   0  0  0  0  0  0  0  0  0  0  0  0
    0.2080    1.0190   -1.0950 O   0  0  0  0  0  0  0  0  0  0  0  0
  1  2  1  0
  2  3  1  0
  2  6  2  3
  3  4  2  0
  3  5  1  0
  6  7  1  0
  6  8  1  0
  8  9  2  0
  8 15  1  0
  9 10  1  0
 10 11  1  0
 11 12  1  1
 11 15  1  0
 12 13  1  0
 12 14  2  0
M  CHG  1  13   1
M  END
