
     RDKit          3D

 15 15  0  0  0  0  0  0  0  0999 V2000
   -3.6150   -0.8150   -0.4180 N   0  0  0  0  0  0  0  0  0  0  0  0
   -2.3880   -0.2040    0.0580 C   0  0  2  0  0  0  0  0  0  0  0  0
   -2.3610    1.2170   -0.4210 C   0  0  0  0  0  0  0  0  0  0  0  0
   -1.2110    1.8900   -0.0100 O   0  0  0  0  0  0  0  0  0  0  0  0
   -1.2200   -1.0160   -0.4160 C   0  0  0  0  0  0  0  0  0  0  0  0
    0.0220   -0.4910    0.0040 O   0  0  0  0  0  0  0  0  0  0  0  0
    1.2350   -1.0420   -0.2940 C   0  0  0  0  0  0  0  0  0  0  0  0
    1.2620   -2.0860   -0.9870 O   0  0  0  0  0  0  0  0  0  0  0  0
    2.5200   -0.4760    0.1560 C   0  0  0  0  0  0  0  0  0  0  0  0
    3.6680   -0.9830   -0.1160 N   0  0  0  0  0  0  0  0  0  0  0  0
    4.6930   -0.1750    0.4800 C   0  0  1  0  0  0  0  0  0  0  0  0
    5.8400    0.4550   -0.7220 Cl  0  0  0  0  0  0  0  0  0  0  0  0
    3.9750    0.8740    1.1370 N   0  0  0  0  0  0  0  0  0  0  0  0
    2.7140    0.7220    0.9640 C   0  0  0  0  0  0  0  0  0  0  0  0
    1.6500    1.4960    1.4190 O   0  0  0  0  0  0  0  0  0  0  0  0
  2  1  1  6
  2  3  1  0
  2  5  1  0
  3  4  1  0
  5  6  1  0
  6  7  1  0
  7  8  2  0
  7  9  1  0
  9 10  2  0
  9 14  1  0
 10 11  1  0
 11 12  1  6
 11 13  1  0
 13 14  2  0
 14 15  1  0
M  CHG  1   1   1
M  END
