
     RDKit          3D

 18 19  0  0  0  0  0  0  0  0999 V2000
    0.8630    0.3370    0.1220 O   0  0  0  0  0  0  0  0  0  0  0  0
    1.1130   -0.7700    0.7110 C   0  0  0  0  0  0  0  0  0  0  0  0
    0.0440   -1.5670    1.3520 C   0  0  0  0  0  0  0  0  0  0  0  0
   -1.2280   -0.8980    1.1910 N   0  0  0  0  0  0  0  0  0  0  0  0
   -1.7850   -0.6120   -0.0840 C   0  0  0  0  0  0  0  0  0  0  0  0
   -1.0830   -0.9860   -1.0770 O   0  0  0  0  0  0  0  0  0  0  0  0
   -3.0650    0.0610   -0.2790 C   0  0  0  0  0  0  0  0  0  0  0  0
   -3.5380    0.3050   -1.4900 C   0  0  0  0  0  0  0  0  0  0  0  0
   -4.8320    0.9840   -1.7340 C   0  0  0  0  0  0  0  0  0  0  0  0
   -5.5210    1.3530   -0.5860 O   0  0  0  0  0  0  0  0  0  0  0  0
   -5.0360    1.1040    0.6660 C   0  0  0  0  0  0  0  0  0  0  0  0
   -3.8760    0.4940    0.8480 C   0  0  0  0  0  0  0  0  0  0  0  0
    2.4640   -1.1770    0.7080 N   0  0  0  0  0  0  0  0  0  0  0  0
    3.4990   -0.3980    0.0830 C   0  0  0  0  0  0  0  0  0  0  0  0
    4.5350    0.0840    0.7440 C   0  0  0  0  0  0  0  0  0  0  0  0
    5.4270    0.8410   -0.1640 C   0  0  0  0  0  0  0  0  0  0  0  0
    4.7440    0.7240   -1.4620 C   0  0  0  0  0  0  0  0  0  0  0  0
    3.6430    0.0080   -1.2880 C   0  0  0  0  0  0  0  0  0  0  0  0
  1  2  2  0
  2  3  1  0
  2 13  1  0
  3  4  1  0
  4  5  1  0
  5  6  2  0
  5  7  1  0
  7  8  2  0
  7 12  1  0
  8  9  1  0
  9 10  1  0
 10 11  1  0
 11 12  2  0
 13 14  1  0
 14 15  2  0
 14 18  1  0
 15 16  1  0
 16 17  1  0
 17 18  2  0
M  END
