
     RDKit          3D

 10 10  0  0  0  0  0  0  0  0999 V2000
    3.5180   -0.8980    0.0730 N   0  0  0  0  0  0  0  0  0  0  0  0
    2.2530   -0.3300   -0.2430 C   0  0  0  0  0  0  0  0  0  0  0  0
    1.7730    0.6870    0.3650 N   0  0  0  0  0  0  0  0  0  0  0  0
    0.5020    1.2090    0.0030 C   0  0  0  0  0  0  0  0  0  0  0  0
    0.3960    2.4000   -0.3790 O   0  0  0  0  0  0  0  0  0  0  0  0
   -0.7020    0.4010    0.0600 C   0  0  0  0  0  0  0  0  0  0  0  0
   -0.8030   -0.8840    0.4390 C   0  0  0  0  0  0  0  0  0  0  0  0
   -2.2180   -1.2530    0.3270 C   0  0  0  0  0  0  0  0  0  0  0  0
   -2.8850   -0.0350    0.4360 O   0  0  0  0  0  0  0  0  0  0  0  0
   -2.0650    0.8520   -0.2930 C   0  0  0  0  0  0  0  0  0  0  0  0
  1  2  1  0
  2  3  2  3
  3  4  1  0
  4  5  2  0
  4  6  1  0
  6  7  2  0
  6 10  1  0
  7  8  1  0
  8  9  1  0
  9 10  1  0
M  END
