
     RDKit          3D

 10 10  0  0  0  0  0  0  0  0999 V2000
   -0.3360    1.4420    1.4860 C   0  0  0  0  0  0  0  0  0  0  0  0
   -0.0170    0.2170    0.7350 N   0  0  0  0  0  0  0  0  0  0  0  0
   -1.1610   -0.6350    0.8350 C   0  0  0  0  0  0  0  0  0  0  0  0
   -1.3230   -1.6330   -0.2420 C   0  0  0  0  0  0  0  0  0  0  0  0
   -0.3690   -1.5310   -1.2470 O   0  0  0  0  0  0  0  0  0  0  0  0
   -0.3870   -0.1870   -1.6560 C   0  0  0  0  0  0  0  0  0  0  0  0
    0.3650    0.5830   -0.5840 C   0  0  2  0  0  0  0  0  0  0  0  0
    1.8110    0.3600   -0.8340 C   0  0  0  0  0  0  0  0  0  0  0  0
    2.6350   -0.1640    0.1960 N   0  0  0  0  0  0  0  0  0  0  0  0
    2.3470    0.6210   -1.9380 O   0  0  0  0  0  0  0  0  0  0  0  0
  1  2  1  0
  2  3  1  0
  2  7  1  0
  3  4  1  0
  4  5  1  0
  5  6  1  0
  6  7  1  0
  7  8  1  1
  8  9  1  0
  8 10  2  0
M  END
