
     RDKit          3D

 23 25  0  0  0  0  0  0  0  0999 V2000
   -4.3400    1.9470   -2.5230 N   0  0  0  0  0  0  0  0  0  0  0  0
   -4.1150    1.2040   -1.3340 C   0  0  0  0  0  0  0  0  0  0  0  0
   -4.9710    0.1940   -0.9820 N   0  0  0  0  0  0  0  0  0  0  0  0
   -4.8040   -0.5370    0.1290 C   0  0  0  0  0  0  0  0  0  0  0  0
   -5.7080   -1.5630    0.4470 C   0  0  0  0  0  0  0  0  0  0  0  0
   -5.5290   -2.3100    1.5880 C   0  0  0  0  0  0  0  0  0  0  0  0
   -4.4630   -2.0420    2.4020 C   0  0  0  0  0  0  0  0  0  0  0  0
   -3.5580   -1.0200    2.0900 C   0  0  0  0  0  0  0  0  0  0  0  0
   -3.7410   -0.2750    0.9510 C   0  0  0  0  0  0  0  0  0  0  0  0
   -2.8530    0.7550    0.6060 C   0  0  0  0  0  0  0  0  0  0  0  0
   -3.0330    1.4970   -0.5330 C   0  0  0  0  0  0  0  0  0  0  0  0
   -2.1210    2.5650   -0.9320 C   0  0  0  0  0  0  0  0  0  0  0  0
   -0.7530    2.4930   -0.3330 C   0  0  0  0  0  0  0  0  0  0  0  0
   -0.0630    1.2160   -0.6650 C   0  0  0  0  0  0  0  0  0  0  0  0
   -0.7450    0.3400   -1.2580 O   0  0  0  0  0  0  0  0  0  0  0  0
    1.2960    1.0170   -0.3190 N   0  0  0  0  0  0  0  0  0  0  0  0
    1.8960   -0.2580   -0.6650 C   0  0  0  0  0  0  0  0  0  0  0  0
    3.3410   -0.3300   -0.2890 C   0  0  2  0  0  0  0  0  0  0  0  0
    3.8800   -1.6830   -0.6650 C   0  0  0  0  0  0  0  0  0  0  0  0
    5.3960   -1.5850   -0.5140 C   0  0  0  0  0  0  0  0  0  0  0  0
    5.6680   -1.3840    0.9560 C   0  0  0  0  0  0  0  0  0  0  0  0
    5.0630   -0.1490    1.5160 C   0  0  0  0  0  0  0  0  0  0  0  0
    3.6360    0.0840    1.0980 C   0  0  0  0  0  0  0  0  0  0  0  0
  1  2  1  0
  2  3  2  0
  2 11  1  0
  3  4  1  0
  4  5  2  0
  4  9  1  0
  5  6  1  0
  6  7  2  0
  7  8  1  0
  8  9  2  0
  9 10  1  0
 10 11  2  0
 11 12  1  0
 12 13  1  0
 13 14  1  0
 14 15  2  0
 14 16  1  0
 16 17  1  0
 18 17  1  1
 18 19  1  0
 18 23  1  0
 19 20  1  0
 20 21  1  0
 21 22  1  0
 22 23  1  0
M  END
