
     RDKit          3D

 18 19  0  0  0  0  0  0  0  0999 V2000
    4.5880   -1.2940    0.5890 C   0  0  0  0  0  0  0  0  0  0  0  0
    3.1500   -1.1030    0.7910 C   0  0  0  0  0  0  0  0  0  0  0  0
    2.5540   -1.7950    1.6490 O   0  0  0  0  0  0  0  0  0  0  0  0
    2.4100   -0.0960   -0.0180 C   0  0  0  0  0  0  0  0  0  0  0  0
    1.1300    0.0840    0.1510 C   0  0  0  0  0  0  0  0  0  0  0  0
    0.2350    0.9900   -0.5120 C   0  0  0  0  0  0  0  0  0  0  0  0
   -1.1280    0.8550   -0.3650 C   0  0  0  0  0  0  0  0  0  0  0  0
   -1.7620   -0.3390    0.1670 C   0  0  0  0  0  0  0  0  0  0  0  0
   -3.0450   -0.3060    0.5930 C   0  0  0  0  0  0  0  0  0  0  0  0
   -3.4620   -1.6240    1.0760 C   0  0  0  0  0  0  0  0  0  0  0  0
   -2.2940   -2.4700    0.8570 C   0  0  0  0  0  0  0  0  0  0  0  0
   -1.3340   -1.6950    0.3370 C   0  0  0  0  0  0  0  0  0  0  0  0
   -1.8970    1.8530   -0.8920 N   0  0  0  0  0  0  0  0  0  0  0  0
   -1.3730    2.9110   -1.5250 C   0  0  0  0  0  0  0  0  0  0  0  0
   -2.1370    3.7840   -1.9810 O   0  0  0  0  0  0  0  0  0  0  0  0
   -0.0530    3.0310   -1.6670 N   0  0  0  0  0  0  0  0  0  0  0  0
    0.7740    2.0960   -1.1760 C   0  0  0  0  0  0  0  0  0  0  0  0
    1.9900    2.2680   -1.3410 O   0  0  0  0  0  0  0  0  0  0  0  0
  1  2  1  0
  2  3  2  0
  2  4  1  0
  4  5  2  3
  5  6  1  0
  6  7  2  0
  6 17  1  0
  7  8  1  0
  7 13  1  0
  8  9  2  0
  8 12  1  0
  9 10  1  0
 10 11  1  0
 11 12  2  0
 13 14  1  0
 14 15  2  0
 14 16  1  0
 16 17  1  0
 17 18  2  0
M  END
