
     RDKit          3D

 10 10  0  0  0  0  0  0  0  0999 V2000
   -2.2340   -0.8600   -0.0960 C   0  0  0  0  0  0  0  0  0  0  0  0
   -0.8910   -0.3060   -0.5070 C   0  0  2  0  0  0  0  0  0  0  0  0
    0.1410   -1.0870    0.1310 N   0  0  0  0  0  0  0  0  0  0  0  0
    1.4490   -0.8460   -0.3750 C   0  0  0  0  0  0  0  0  0  0  0  0
    2.2340    0.2100    0.3450 C   0  0  0  0  0  0  0  0  0  0  0  0
    1.3540    1.1530    1.0860 C   0  0  0  0  0  0  0  0  0  0  0  0
    1.7590    1.5130    2.2470 O   0  0  0  0  0  0  0  0  0  0  0  0
    0.1240    1.6820    0.6280 N   0  0  0  0  0  0  0  0  0  0  0  0
   -0.8160    1.1000   -0.0300 C   0  0  0  0  0  0  0  0  0  0  0  0
   -1.9370    1.8960   -0.3500 O   0  0  0  0  0  0  0  0  0  0  0  0
  2  1  1  1
  2  3  1  0
  2  9  1  0
  3  4  1  0
  4  5  1  0
  5  6  1  0
  6  7  2  0
  6  8  1  0
  8  9  2  0
  9 10  1  0
M  END
