
     RDKit          3D

 10 10  0  0  0  0  0  0  0  0999 V2000
    3.8760   -0.1530   -0.1600 C   0  0  0  0  0  0  0  0  0  0  0  0
    2.4210   -0.4800   -0.3810 C   0  0  0  0  0  0  0  0  0  0  0  0
    1.6150    0.4130    0.4040 N   0  0  0  0  0  0  0  0  0  0  0  0
    0.3430    0.2790    0.4100 C   0  0  0  0  0  0  0  0  0  0  0  0
   -0.2710   -0.7460   -0.3540 N   0  0  0  0  0  0  0  0  0  0  0  0
   -1.6360   -0.5520   -0.7910 C   0  0  0  0  0  0  0  0  0  0  0  0
   -2.5000    0.0600    0.2680 C   0  0  2  0  0  0  0  0  0  0  0  0
   -3.7030    0.4450   -0.3590 O   0  0  0  0  0  0  0  0  0  0  0  0
   -1.8590    1.2700    0.9090 C   0  0  0  0  0  0  0  0  0  0  0  0
   -0.5000    1.1080    1.1480 O   0  0  0  0  0  0  0  0  0  0  0  0
  1  2  1  0
  2  3  1  0
  3  4  2  3
  4  5  1  0
  4 10  1  0
  5  6  1  0
  6  7  1  0
  7  8  1  6
  7  9  1  0
  9 10  1  0
M  END
