
     RDKit          3D

 10 10  0  0  0  0  0  0  0  0999 V2000
    2.4700   -0.8920    1.3840 N   0  0  0  0  0  0  0  0  0  0  0  0
    2.7380   -0.8090    0.0330 N   0  0  0  0  0  0  0  0  0  0  0  0
    1.9610   -0.3430   -0.8620 C   0  0  0  0  0  0  0  0  0  0  0  0
    0.6320    0.1870   -0.5650 C   0  0  0  0  0  0  0  0  0  0  0  0
   -0.2060    0.6760   -1.4380 C   0  0  0  0  0  0  0  0  0  0  0  0
   -1.4390    1.1080   -0.7630 C   0  0  0  0  0  0  0  0  0  0  0  0
   -1.2680    0.4670    0.6010 C   0  0  1  0  0  0  0  0  0  0  0  0
   -2.0190   -0.7990    0.6540 C   0  0  0  0  0  0  0  0  0  0  0  0
   -1.4170   -1.8420    0.7970 O   0  0  0  0  0  0  0  0  0  0  0  0
    0.1090    0.2210    0.7360 O   0  0  0  0  0  0  0  0  0  0  0  0
  1  2  1  0
  2  3  2  3
  3  4  1  0
  4  5  2  0
  4 10  1  0
  5  6  1  0
  6  7  1  0
  7  8  1  6
  7 10  1  0
  8  9  2  0
M  END
