
     RDKit          3D

 38 41  0  0  0  0  0  0  0  0999 V2000
    2.5660   -1.4360   -1.5960 O   0  0  0  0  0  0  0  0  0  0  0  0
    3.1390   -0.4000   -1.1730 C   0  0  0  0  0  0  0  0  0  0  0  0
    2.4210    0.8130   -0.9990 N   0  0  0  0  0  0  0  0  0  0  0  0
    1.0340    0.9100   -1.2940 N   0  0  0  0  0  0  0  0  0  0  0  0
    0.1800   -0.0120   -0.6480 C   0  0  0  0  0  0  0  0  0  0  0  0
    0.6890   -0.8700    0.1550 O   0  0  0  0  0  0  0  0  0  0  0  0
   -1.2020    0.0080   -0.8770 N   0  0  0  0  0  0  0  0  0  0  0  0
   -1.7580    1.0100   -1.7760 C   0  0  0  0  0  0  0  0  0  0  0  0
   -2.1230    2.2720   -1.0530 C   0  0  0  0  0  0  0  0  0  0  0  0
   -2.6740    3.2960   -1.1530 N   0  0  0  0  0  0  0  0  0  0  0  0
   -2.8500    4.2810   -0.3130 C   0  0  0  0  0  0  0  0  0  0  0  0
   -3.6090    5.5140   -0.6420 C   0  0  2  0  0  0  0  0  0  0  0  0
   -2.7000    6.6400   -1.2630 C   0  0  0  0  0  0  0  0  0  0  0  0
   -3.4020    6.8010    0.0510 C   0  0  2  0  0  0  0  0  0  0  0  0
   -2.5380    6.8170    1.1360 O   0  0  0  0  0  0  0  0  0  0  0  0
   -4.4760    7.7080    0.1390 O   0  0  0  0  0  0  0  0  0  0  0  0
   -2.2310    3.9960    0.9490 C   0  0  0  0  0  0  0  0  0  0  0  0
   -1.5220    2.4470    0.7710 S   0  0  0  0  0  0  0  0  0  0  0  0
   -2.0650   -0.9730   -0.2490 C   0  0  0  0  0  0  0  0  0  0  0  0
   -2.3460   -2.1780   -1.0500 C   0  0  2  0  0  0  0  0  0  0  0  0
   -3.2460   -3.0070   -0.3280 O   0  0  0  0  0  0  0  0  0  0  0  0
   -1.1450   -3.0320   -1.2870 C   0  0  0  0  0  0  0  0  0  0  0  0
   -0.6490   -3.5050   -0.0500 O   0  0  0  0  0  0  0  0  0  0  0  0
   -1.4340   -4.2890    0.7960 C   0  0  0  0  0  0  0  0  0  0  0  0
   -1.7160   -4.1170    2.0610 C   0  0  0  0  0  0  0  0  0  0  0  0
   -2.5940   -5.1840    2.6010 C   0  0  0  0  0  0  0  0  0  0  0  0
   -2.8290   -6.0650    1.4800 N   0  0  0  0  0  0  0  0  0  0  0  0
   -2.1180   -5.5140    0.3790 C   0  0  0  0  0  0  0  0  0  0  0  0
   -2.0630   -5.9870   -0.7970 O   0  0  0  0  0  0  0  0  0  0  0  0
    4.5640   -0.4500   -0.8560 C   0  0  0  0  0  0  0  0  0  0  0  0
    5.1560    0.5780   -0.4370 O   0  0  0  0  0  0  0  0  0  0  0  0
    5.3210   -1.6000   -0.9940 O   0  0  0  0  0  0  0  0  0  0  0  0
    6.7010   -1.6600   -0.6900 C   0  0  0  0  0  0  0  0  0  0  0  0
    6.8680   -1.3120    0.7360 C   0  0  0  0  0  0  0  0  0  0  0  0
    6.8130   -2.2130    1.7710 C   0  0  0  0  0  0  0  0  0  0  0  0
    7.0160   -1.4850    2.9270 C   0  0  0  0  0  0  0  0  0  0  0  0
    7.1800   -0.2170    2.5490 N   0  0  0  0  0  0  0  0  0  0  0  0
    7.0870   -0.1400    1.2420 O   0  0  0  0  0  0  0  0  0  0  0  0
  1  2  2  0
  2  3  1  0
  2 30  1  0
  3  4  1  0
  4  5  1  0
  5  6  2  0
  5  7  1  0
  7  8  1  0
  7 19  1  0
  8  9  1  0
  9 10  2  0
  9 18  1  0
 10 11  1  0
 12 11  1  1
 11 17  2  0
 12 13  1  0
 12 14  1  0
 13 14  1  0
 14 15  1  1
 14 16  1  0
 17 18  1  0
 19 20  1  0
 20 21  1  1
 20 22  1  0
 22 23  1  0
 23 24  1  0
 24 25  2  0
 24 28  1  0
 25 26  1  0
 26 27  1  0
 27 28  1  0
 28 29  2  0
 30 31  2  0
 30 32  1  0
 32 33  1  0
 33 34  1  0
 34 35  2  0
 34 38  1  0
 35 36  1  0
 36 37  2  0
 37 38  1  0
M  END
