
     RDKit          3D

 38 40  0  0  0  0  0  0  0  0999 V2000
   -6.0740   -3.8670   -0.0510 C   0  0  0  0  0  0  0  0  0  0  0  0
   -4.7390   -4.3100   -0.0360 O   0  0  0  0  0  0  0  0  0  0  0  0
   -3.8890   -4.0850    1.0500 C   0  0  0  0  0  0  0  0  0  0  0  0
   -3.8590   -4.8910    2.0900 N   0  0  0  0  0  0  0  0  0  0  0  0
   -3.0290   -4.6760    3.1460 C   0  0  0  0  0  0  0  0  0  0  0  0
   -3.0730   -5.5010    4.0900 O   0  0  0  0  0  0  0  0  0  0  0  0
   -2.2140   -3.6110    3.1400 N   0  0  0  0  0  0  0  0  0  0  0  0
   -2.2130   -2.7640    2.1000 C   0  0  0  0  0  0  0  0  0  0  0  0
   -1.4360   -1.7850    2.1510 O   0  0  0  0  0  0  0  0  0  0  0  0
   -3.0360   -2.9720    1.0430 C   0  0  0  0  0  0  0  0  0  0  0  0
   -3.2090   -1.9330   -0.3400 S   0  0  0  0  0  0  0  0  0  0  0  0
   -1.7940   -0.6870   -0.3340 C   0  0  0  0  0  0  0  0  0  0  0  0
   -0.7120   -1.1710   -0.2930 N   0  0  0  0  0  0  0  0  0  0  0  0
    0.6120   -0.7270   -0.2610 C   0  0  0  0  0  0  0  0  0  0  0  0
    1.1620    0.0700   -1.2650 C   0  0  0  0  0  0  0  0  0  0  0  0
    2.4680    0.5010   -1.2190 C   0  0  0  0  0  0  0  0  0  0  0  0
    3.2810    0.1570   -0.1780 C   0  0  0  0  0  0  0  0  0  0  0  0
    4.6060    0.5620   -0.0790 O   0  0  0  0  0  0  0  0  0  0  0  0
    5.6300   -0.0980   -0.7230 C   0  0  0  0  0  0  0  0  0  0  0  0
    5.3530   -1.1050   -1.4240 O   0  0  0  0  0  0  0  0  0  0  0  0
    7.0190    0.4090   -0.5620 C   0  0  1  0  0  0  0  0  0  0  0  0
    7.3140    0.5280    0.9010 C   0  0  0  0  0  0  0  0  0  0  0  0
    7.2460   -0.7490    1.4800 O   0  0  0  0  0  0  0  0  0  0  0  0
    7.9250   -0.3970   -1.2420 O   0  0  0  0  0  0  0  0  0  0  0  0
    8.5070    0.3530   -2.2560 C   0  0  0  0  0  0  0  0  0  0  0  0
    2.7560   -0.6250    0.8140 C   0  0  0  0  0  0  0  0  0  0  0  0
    1.4270   -1.0700    0.7820 C   0  0  0  0  0  0  0  0  0  0  0  0
   -1.9550    0.5110   -1.0470 N   0  0  0  0  0  0  0  0  0  0  0  0
   -2.7380    1.5040   -0.4830 C   0  0  0  0  0  0  0  0  0  0  0  0
   -3.1430    1.3180    0.7140 O   0  0  0  0  0  0  0  0  0  0  0  0
   -3.0770    2.6740   -1.1670 N   0  0  0  0  0  0  0  0  0  0  0  0
   -3.9000    3.6130   -0.4800 C   0  0  1  0  0  0  0  0  0  0  0  0
   -3.2310    4.9470   -0.4060 C   0  0  0  0  0  0  0  0  0  0  0  0
   -4.4050    5.8360   -0.1670 C   0  0  0  0  0  0  0  0  0  0  0  0
   -4.3400    6.9390    0.4330 O   0  0  0  0  0  0  0  0  0  0  0  0
   -5.5300    5.1680   -0.7470 N   0  0  0  0  0  0  0  0  0  0  0  0
   -5.1320    3.9110   -1.2670 C   0  0  0  0  0  0  0  0  0  0  0  0
   -5.7200    3.2770   -2.1590 O   0  0  0  0  0  0  0  0  0  0  0  0
  1  2  1  0
  2  3  1  0
  3  4  1  0
  3 10  2  0
  4  5  1  0
  5  6  2  0
  5  7  1  0
  7  8  1  0
  8  9  2  0
  8 10  1  0
 10 11  1  0
 11 12  1  0
 12 13  2  3
 12 28  1  0
 13 14  1  0
 14 15  2  0
 14 27  1  0
 15 16  1  0
 16 17  2  0
 17 18  1  0
 17 26  1  0
 18 19  1  0
 19 20  2  0
 19 21  1  0
 21 22  1  1
 21 24  1  0
 22 23  1  0
 24 25  1  0
 26 27  2  0
 28 29  1  0
 29 30  2  0
 29 31  1  0
 32 31  1  6
 32 33  1  0
 32 37  1  0
 33 34  1  0
 34 35  2  0
 34 36  1  0
 36 37  1  0
 37 38  2  0
M  END
