
     RDKit          3D

 37 39  0  0  0  0  0  0  0  0999 V2000
    5.5650   -0.1050    0.4260 C   0  0  0  0  0  0  0  0  0  0  0  0
    4.2500    0.6630    0.1970 C   0  0  1  0  0  0  0  0  0  0  0  0
    4.1510    0.8140   -1.2740 C   0  0  0  0  0  0  0  0  0  0  0  0
    3.0610    0.2460   -1.9880 N   0  0  0  0  0  0  0  0  0  0  0  0
    5.0580    1.4570   -1.8770 O   0  0  0  0  0  0  0  0  0  0  0  0
    3.1410   -0.0540    0.7380 N   0  0  0  0  0  0  0  0  0  0  0  0
    2.7220   -1.3510    0.2350 C   0  0  0  0  0  0  0  0  0  0  0  0
    2.3250   -2.1270    1.5020 C   0  0  0  0  0  0  0  0  0  0  0  0
    1.1610   -1.6430    2.0120 O   0  0  0  0  0  0  0  0  0  0  0  0
    1.1280   -0.2760    2.2820 C   0  0  2  0  0  0  0  0  0  0  0  0
   -0.1920    0.2810    1.8500 C   0  0  0  0  0  0  0  0  0  0  0  0
   -0.4920    0.1510    0.4620 N   0  0  0  0  0  0  0  0  0  0  0  0
   -1.1350   -1.1630    0.1190 C   0  0  0  0  0  0  0  0  0  0  0  0
   -2.6570   -1.0140    0.2100 C   0  0  0  0  0  0  0  0  0  0  0  0
   -3.2520   -2.2490   -0.1090 O   0  0  0  0  0  0  0  0  0  0  0  0
   -4.6020   -2.4170   -0.1030 C   0  0  0  0  0  0  0  0  0  0  0  0
   -5.4150   -1.4040    0.0670 C   0  0  0  0  0  0  0  0  0  0  0  0
   -5.0180   -0.0920    0.2540 O   0  0  0  0  0  0  0  0  0  0  0  0
   -6.8580   -1.6790    0.0590 C   0  0  0  0  0  0  0  0  0  0  0  0
   -7.3110   -2.8640   -0.1070 N   0  0  0  0  0  0  0  0  0  0  0  0
   -6.4970   -3.9460   -0.2880 O   0  0  0  0  0  0  0  0  0  0  0  0
   -5.1310   -3.7840   -0.2950 C   0  0  0  0  0  0  0  0  0  0  0  0
   -4.2810   -4.7720   -0.4630 C   0  0  0  0  0  0  0  0  0  0  0  0
   -4.7570   -6.0570   -0.6420 O   0  0  0  0  0  0  0  0  0  0  0  0
   -2.5230   -4.4910   -0.4620 S   0  0  0  0  0  0  0  0  0  0  0  0
   -0.2900    1.0080   -0.5990 C   0  0  0  0  0  0  0  0  0  0  0  0
   -0.6660    0.5310   -1.7620 O   0  0  0  0  0  0  0  0  0  0  0  0
    0.2750    2.3550   -0.6030 C   0  0  0  0  0  0  0  0  0  0  0  0
    0.7280    3.1750    0.3790 C   0  0  0  0  0  0  0  0  0  0  0  0
    1.1580    4.3560   -0.2380 C   0  0  0  0  0  0  0  0  0  0  0  0
    0.9440    4.1960   -1.5850 C   0  0  0  0  0  0  0  0  0  0  0  0
    1.2460    5.1900   -2.6450 C   0  0  0  0  0  0  0  0  0  0  0  0
    1.7940    6.4320   -2.3110 N   0  0  0  0  0  0  0  0  0  0  0  0
    1.0010    4.8930   -3.8330 O   0  0  0  0  0  0  0  0  0  0  0  0
    0.4290    3.0200   -1.7570 O   0  0  0  0  0  0  0  0  0  0  0  0
    2.3290    0.4230    1.8350 C   0  0  0  0  0  0  0  0  0  0  0  0
    2.7090    1.4710    2.3900 O   0  0  0  0  0  0  0  0  0  0  0  0
  2  1  1  6
  2  3  1  0
  2  6  1  0
  3  4  1  0
  3  5  2  0
  6  7  1  0
  6 36  1  0
  7  8  1  0
  8  9  1  0
  9 10  1  0
 10 11  1  6
 10 36  1  0
 11 12  1  0
 12 13  1  0
 12 26  1  0
 13 14  1  0
 14 15  1  0
 15 16  1  0
 16 17  2  0
 16 22  1  0
 17 18  1  0
 17 19  1  0
 19 20  2  0
 20 21  1  0
 21 22  1  0
 22 23  2  3
 23 24  1  0
 23 25  1  0
 26 27  2  0
 26 28  1  0
 28 29  2  0
 28 35  1  0
 29 30  1  0
 30 31  2  0
 31 32  1  0
 31 35  1  0
 32 33  1  0
 32 34  2  0
 36 37  2  0
M  END
