
     RDKit          3D

 29 33  0  0  0  0  0  0  0  0999 V2000
   -4.9610    4.3970   -0.7810 C   0  0  0  0  0  0  0  0  0  0  0  0
   -3.5940    3.8440   -0.7270 C   0  0  0  0  0  0  0  0  0  0  0  0
   -2.6130    4.6050   -0.8720 O   0  0  0  0  0  0  0  0  0  0  0  0
   -3.3510    2.4310   -0.5100 C   0  0  0  0  0  0  0  0  0  0  0  0
   -2.1300    1.8170   -0.4430 C   0  0  0  0  0  0  0  0  0  0  0  0
   -2.3780    0.4780   -0.2250 C   0  0  0  0  0  0  0  0  0  0  0  0
   -1.5090   -0.6100   -0.0750 C   0  0  0  0  0  0  0  0  0  0  0  0
   -0.1040   -0.3850   -0.1460 N   0  0  0  0  0  0  0  0  0  0  0  0
    0.6970   -0.0770    0.9800 C   0  0  0  0  0  0  0  0  0  0  0  0
    0.1040   -0.0060    2.0880 O   0  0  0  0  0  0  0  0  0  0  0  0
    2.1290    0.1580    0.9420 C   0  0  0  0  0  0  0  0  0  0  0  0
    2.8390    0.4530    2.0830 C   0  0  0  0  0  0  0  0  0  0  0  0
    4.1940    0.6820    2.0870 C   0  0  0  0  0  0  0  0  0  0  0  0
    4.9150    0.6190    0.8940 C   0  0  0  0  0  0  0  0  0  0  0  0
    4.2260    0.3260   -0.2510 C   0  0  0  0  0  0  0  0  0  0  0  0
    2.8410    0.0960   -0.2320 C   0  0  0  0  0  0  0  0  0  0  0  0
    5.2060    0.3160   -1.3840 C   0  0  0  0  0  0  0  0  0  0  0  0
    6.4090    1.0160   -0.8030 C   0  0  0  0  0  0  0  0  0  0  0  0
    6.2720    0.8030    0.6080 O   0  0  0  0  0  0  0  0  0  0  0  0
   -2.0510   -1.8580    0.1360 C   0  0  0  0  0  0  0  0  0  0  0  0
   -1.1570   -3.0030    0.2940 C   0  0  0  0  0  0  0  0  0  0  0  0
   -1.5160   -4.3130    0.5110 C   0  0  0  0  0  0  0  0  0  0  0  0
   -0.3650   -5.0970    0.6060 C   0  0  0  0  0  0  0  0  0  0  0  0
    0.6450   -4.2320    0.4440 N   0  0  0  0  0  0  0  0  0  0  0  0
    0.1870   -2.9970    0.2600 N   0  0  0  0  0  0  0  0  0  0  0  0
   -3.4190   -2.0240    0.1960 C   0  0  0  0  0  0  0  0  0  0  0  0
   -4.2800   -0.9600    0.0490 C   0  0  0  0  0  0  0  0  0  0  0  0
   -3.7460    0.3160   -0.1660 C   0  0  0  0  0  0  0  0  0  0  0  0
   -4.3440    1.5120   -0.3400 N   0  0  0  0  0  0  0  0  0  0  0  0
  1  2  1  0
  2  3  2  0
  2  4  1  0
  4  5  2  0
  4 29  1  0
  5  6  1  0
  6  7  2  0
  6 28  1  0
  7  8  1  0
  7 20  1  0
  8  9  1  0
  9 10  2  0
  9 11  1  0
 11 12  2  0
 11 16  1  0
 12 13  1  0
 13 14  2  0
 14 15  1  0
 14 19  1  0
 15 16  2  0
 15 17  1  0
 17 18  1  0
 18 19  1  0
 20 21  1  0
 20 26  2  0
 21 22  1  0
 21 25  2  0
 22 23  2  0
 23 24  1  0
 24 25  1  0
 26 27  1  0
 27 28  2  0
 28 29  1  0
M  END
