
     RDKit          3D

 38 40  0  0  0  0  0  0  0  0999 V2000
   -4.9410   -2.3980    0.7770 C   0  0  0  0  0  0  0  0  0  0  0  0
   -4.9350   -1.0430    0.1310 C   0  0  1  0  0  0  0  0  0  0  0  0
   -5.9330   -1.0680   -0.9980 C   0  0  0  0  0  0  0  0  0  0  0  0
   -7.3020   -1.3770   -0.5160 C   0  0  0  0  0  0  0  0  0  0  0  0
   -7.5360   -1.5940    0.7000 O   0  0  0  0  0  0  0  0  0  0  0  0
   -8.4160   -1.4440   -1.3960 N   0  0  0  0  0  0  0  0  0  0  0  0
   -9.6950   -1.7380   -0.9090 N   0  0  0  0  0  0  0  0  0  0  0  0
   -5.3320   -0.0450    1.1510 C   0  0  0  0  0  0  0  0  0  0  0  0
   -6.3290    0.7130    1.0530 O   0  0  0  0  0  0  0  0  0  0  0  0
   -4.5500    0.0910    2.3390 N   0  0  0  0  0  0  0  0  0  0  0  0
   -4.9080    1.0520    3.3520 C   0  0  0  0  0  0  0  0  0  0  0  0
   -5.9280    1.7640    3.1530 O   0  0  0  0  0  0  0  0  0  0  0  0
   -4.1460    1.1810    4.5030 O   0  0  0  0  0  0  0  0  0  0  0  0
   -3.5710   -0.6720   -0.3660 C   0  0  0  0  0  0  0  0  0  0  0  0
   -3.0250    0.3570    0.0900 O   0  0  0  0  0  0  0  0  0  0  0  0
   -2.8940   -1.4380   -1.3200 N   0  0  0  0  0  0  0  0  0  0  0  0
   -1.5650   -1.1420   -1.8460 C   0  0  0  0  0  0  0  0  0  0  0  0
   -1.1030   -1.8510   -2.9960 C   0  0  0  0  0  0  0  0  0  0  0  0
    0.5350   -1.2020   -3.2720 S   0  0  0  0  0  0  0  0  0  0  0  0
    0.5140   -0.0800   -1.9110 C   0  0  0  0  0  0  0  0  0  0  0  0
    1.6260    0.8200   -1.5440 C   0  0  0  0  0  0  0  0  0  0  0  0
    1.4720    1.5560   -0.5620 O   0  0  0  0  0  0  0  0  0  0  0  0
    2.7920    0.8500   -2.2540 O   0  0  0  0  0  0  0  0  0  0  0  0
    3.9180    1.6440   -2.0140 C   0  0  0  0  0  0  0  0  0  0  0  0
    4.6040    1.4060   -0.7010 C   0  0  2  0  0  0  0  0  0  0  0  0
    3.8340    1.6360    0.4060 O   0  0  0  0  0  0  0  0  0  0  0  0
    5.8800    2.2230   -0.6980 C   0  0  0  0  0  0  0  0  0  0  0  0
    6.6160    2.0540    0.5440 N   0  0  0  0  0  0  0  0  0  0  0  0
    6.4820    2.7980    1.6550 C   0  0  0  0  0  0  0  0  0  0  0  0
    5.6810    3.7810    1.7980 O   0  0  0  0  0  0  0  0  0  0  0  0
    7.3180    2.3240    2.5400 O   0  0  0  0  0  0  0  0  0  0  0  0
    7.9930    1.3140    2.0810 C   0  0  0  0  0  0  0  0  0  0  0  0
    8.9720    0.4670    2.5710 C   0  0  0  0  0  0  0  0  0  0  0  0
    9.4720   -0.5320    1.7600 C   0  0  0  0  0  0  0  0  0  0  0  0
    9.0040   -0.6830    0.4830 C   0  0  0  0  0  0  0  0  0  0  0  0
    8.0560    0.1380    0.0120 N   0  0  0  0  0  0  0  0  0  0  0  0
    7.5540    1.1260    0.7970 C   0  0  0  0  0  0  0  0  0  0  0  0
   -0.6780   -0.2580   -1.3560 C   0  0  0  0  0  0  0  0  0  0  0  0
  2  1  1  1
  2  3  1  0
  2  8  1  0
  2 14  1  0
  3  4  1  0
  4  5  2  0
  4  6  1  0
  6  7  1  0
  8  9  2  0
  8 10  1  0
 10 11  1  0
 11 12  2  0
 11 13  1  0
 14 15  2  0
 14 16  1  0
 16 17  1  0
 17 18  2  0
 17 38  1  0
 18 19  1  0
 19 20  1  0
 20 21  1  0
 20 38  2  0
 21 22  2  0
 21 23  1  0
 23 24  1  0
 24 25  1  0
 25 26  1  1
 25 27  1  0
 27 28  1  0
 28 29  1  0
 28 37  1  0
 29 30  2  0
 29 31  1  0
 31 32  1  0
 32 33  2  0
 32 37  1  0
 33 34  1  0
 34 35  2  0
 35 36  1  0
 36 37  2  0
M  END
