
     RDKit          3D

 38 41  0  0  0  0  0  0  0  0999 V2000
   -8.5920   -1.1500   -0.0850 C   0  0  0  0  0  0  0  0  0  0  0  0
   -7.6440   -1.0120   -1.2490 C   0  0  0  0  0  0  0  0  0  0  0  0
   -6.3720   -0.3550   -0.8960 C   0  0  0  0  0  0  0  0  0  0  0  0
   -5.2270   -1.1470   -0.7310 C   0  0  0  0  0  0  0  0  0  0  0  0
   -4.0210   -0.6190   -0.3990 C   0  0  0  0  0  0  0  0  0  0  0  0
   -3.9170    0.7440   -0.2180 C   0  0  0  0  0  0  0  0  0  0  0  0
   -5.0420    1.5250   -0.3800 C   0  0  0  0  0  0  0  0  0  0  0  0
   -6.2810    1.0030   -0.7190 C   0  0  0  0  0  0  0  0  0  0  0  0
   -7.4250    1.8890   -0.8790 C   0  0  0  0  0  0  0  0  0  0  0  0
   -7.3190    3.1410   -0.6970 O   0  0  0  0  0  0  0  0  0  0  0  0
   -8.6930    1.4600   -1.2340 O   0  0  0  0  0  0  0  0  0  0  0  0
  -10.0280    2.5640   -1.4120 S   0  0  0  0  0  0  0  0  0  0  0  0
   -2.5860    1.0650    0.1190 O   0  0  0  0  0  0  0  0  0  0  0  0
   -2.0780   -0.0950    0.7450 C   0  0  2  0  0  0  0  0  0  0  0  0
   -0.5860   -0.1070    0.7840 C   0  0  0  0  0  0  0  0  0  0  0  0
    0.0970    0.8220    0.3120 O   0  0  0  0  0  0  0  0  0  0  0  0
    0.0310   -1.2290    1.3860 N   0  0  0  0  0  0  0  0  0  0  0  0
    1.4240   -1.4600    1.5550 C   0  0  0  0  0  0  0  0  0  0  0  0
    2.1550   -0.5380    2.4380 C   0  0  2  0  0  0  0  0  0  0  0  0
    2.1440    0.8250    2.0230 N   0  0  0  0  0  0  0  0  0  0  0  0
    3.1770    0.9720    1.0210 C   0  0  0  0  0  0  0  0  0  0  0  0
    3.2370    1.8800    0.1510 O   0  0  0  0  0  0  0  0  0  0  0  0
    4.0880   -0.0990    1.2170 N   0  0  0  0  0  0  0  0  0  0  0  0
    5.2680   -0.3600    0.4650 N   0  0  0  0  0  0  0  0  0  0  0  0
    6.1910    0.6860    0.3320 C   0  0  0  0  0  0  0  0  0  0  0  0
    5.8940    1.7870    0.8980 O   0  0  0  0  0  0  0  0  0  0  0  0
    7.4170    0.5780   -0.3900 C   0  0  0  0  0  0  0  0  0  0  0  0
    8.2150    1.6800   -0.4320 N   0  0  0  0  0  0  0  0  0  0  0  0
    9.3730    1.7010   -1.0680 C   0  0  0  0  0  0  0  0  0  0  0  0
   10.1270    2.7130   -1.1180 O   0  0  0  0  0  0  0  0  0  0  0  0
    9.7890    0.5980   -1.7020 N   0  0  0  0  0  0  0  0  0  0  0  0
    9.0700   -0.5120   -1.7060 C   0  0  0  0  0  0  0  0  0  0  0  0
    9.4190   -1.5740   -2.2870 O   0  0  0  0  0  0  0  0  0  0  0  0
    7.8510   -0.5280   -1.0340 C   0  0  0  0  0  0  0  0  0  0  0  0
    7.1100   -1.6910   -1.0470 O   0  0  0  0  0  0  0  0  0  0  0  0
    3.6250   -0.8760    2.3070 C   0  0  0  0  0  0  0  0  0  0  0  0
    4.2860   -1.6690    3.0080 O   0  0  0  0  0  0  0  0  0  0  0  0
   -2.6430   -1.1730   -0.1540 C   0  0  0  0  0  0  0  0  0  0  0  0
  1  2  1  0
  2  3  1  0
  3  4  2  0
  3  8  1  0
  4  5  1  0
  5  6  2  0
  5 38  1  0
  6  7  1  0
  6 13  1  0
  7  8  2  0
  8  9  1  0
  9 10  2  0
  9 11  1  0
 11 12  1  0
 13 14  1  0
 14 15  1  6
 14 38  1  0
 15 16  2  0
 15 17  1  0
 17 18  1  0
 19 18  1  6
 19 20  1  0
 19 36  1  0
 20 21  1  0
 21 22  2  0
 21 23  1  0
 23 24  1  0
 23 36  1  0
 24 25  1  0
 25 26  2  0
 25 27  1  0
 27 28  1  0
 27 34  2  0
 28 29  1  0
 29 30  2  0
 29 31  1  0
 31 32  1  0
 32 33  2  0
 32 34  1  0
 34 35  1  0
 36 37  2  0
M  END
