
     RDKit          3D

 10 10  0  0  0  0  0  0  0  0999 V2000
    3.7460   -0.1380    0.6430 C   0  0  0  0  0  0  0  0  0  0  0  0
    2.5510    0.2480    0.0770 O   0  0  0  0  0  0  0  0  0  0  0  0
    1.6720   -0.8260   -0.0660 C   0  0  0  0  0  0  0  0  0  0  0  0
    0.4280   -0.3530   -0.7250 C   0  0  0  0  0  0  0  0  0  0  0  0
   -0.2910    0.6710    0.0030 N   0  0  0  0  0  0  0  0  0  0  0  0
   -1.3130    1.2800   -0.8180 C   0  0  0  0  0  0  0  0  0  0  0  0
   -2.6670    0.6750   -0.7570 C   0  0  0  0  0  0  0  0  0  0  0  0
   -3.0980    0.3690    0.5360 O   0  0  0  0  0  0  0  0  0  0  0  0
   -2.1830   -0.5980    0.9840 C   0  0  0  0  0  0  0  0  0  0  0  0
   -0.8860    0.1860    1.2400 C   0  0  0  0  0  0  0  0  0  0  0  0
  1  2  1  0
  2  3  1  0
  3  4  1  0
  4  5  1  0
  5  6  1  0
  5 10  1  0
  6  7  1  0
  7  8  1  0
  8  9  1  0
  9 10  1  0
M  END
