
     RDKit          3D

 10  9  0  0  0  0  0  0  0  0999 V2000
   -3.7920   -0.6690   -0.4910 C   0  0  0  0  0  0  0  0  0  0  0  0
   -3.5710    0.6120    0.2820 C   0  0  0  0  0  0  0  0  0  0  0  0
   -2.2210    1.2150    0.0180 C   0  0  0  0  0  0  0  0  0  0  0  0
   -1.2350    0.2590    0.4130 O   0  0  0  0  0  0  0  0  0  0  0  0
    0.1100    0.4740    0.3120 C   0  0  0  0  0  0  0  0  0  0  0  0
    0.4910    1.5790   -0.1550 O   0  0  0  0  0  0  0  0  0  0  0  0
    1.1540   -0.4990    0.7130 C   0  0  0  0  0  0  0  0  0  0  0  0
    2.4840   -0.0190    0.5010 N   0  0  2  0  0  0  0  0  0  0  0  0
    2.7670    0.3340   -0.8550 C   0  0  0  0  0  0  0  0  0  0  0  0
    3.3830   -1.1270    0.8600 C   0  0  0  0  0  0  0  0  0  0  0  0
  1  2  1  0
  2  3  1  0
  3  4  1  0
  4  5  1  0
  5  6  2  0
  5  7  1  0
  7  8  1  0
  8  9  1  6
  8 10  1  0
M  CHG  1   8   1
M  END
