
     RDKit          3D

 10 10  0  0  0  0  0  0  0  0999 V2000
    2.5420    0.6980    1.1800 C   0  0  0  0  0  0  0  0  0  0  0  0
    2.4290   -0.3150    0.0640 C   0  0  0  0  0  0  0  0  0  0  0  0
    1.1010   -0.1830   -0.5070 N   0  0  0  0  0  0  0  0  0  0  0  0
    0.8880   -1.1120   -1.5890 C   0  0  0  0  0  0  0  0  0  0  0  0
    0.1030   -0.2330    0.5140 C   0  0  0  0  0  0  0  0  0  0  0  0
   -1.2700   -0.0960   -0.0730 C   0  0  1  0  0  0  0  0  0  0  0  0
   -2.3080    0.0800    1.0420 C   0  0  0  0  0  0  0  0  0  0  0  0
   -3.2100    0.9640    0.5010 O   0  0  0  0  0  0  0  0  0  0  0  0
   -2.8490    1.1420   -0.8410 C   0  0  0  0  0  0  0  0  0  0  0  0
   -1.4360    1.1150   -0.7580 O   0  0  0  0  0  0  0  0  0  0  0  0
  1  2  1  0
  2  3  1  0
  3  4  1  0
  3  5  1  0
  6  5  1  1
  6  7  1  0
  6 10  1  0
  7  8  1  0
  8  9  1  0
  9 10  1  0
M  END
