
     RDKit          3D

 10 10  0  0  0  0  0  0  0  0999 V2000
   -2.5990    0.7320    0.8810 C   0  0  0  0  0  0  0  0  0  0  0  0
   -2.8020   -0.5190    0.5300 C   0  0  0  0  0  0  0  0  0  0  0  0
   -1.8650   -1.5850    0.9900 C   0  0  0  0  0  0  0  0  0  0  0  0
   -1.2960   -2.2060   -0.0900 O   0  0  0  0  0  0  0  0  0  0  0  0
   -0.5870   -1.3520   -0.8950 C   0  0  0  0  0  0  0  0  0  0  0  0
    0.5380   -0.6820   -0.1870 C   0  0  0  0  0  0  0  0  0  0  0  0
    1.2290    0.1760   -1.0540 O   0  0  0  0  0  0  0  0  0  0  0  0
    2.2560    0.7600   -0.3280 C   0  0  2  0  0  0  0  0  0  0  0  0
    2.4950    2.2080   -0.6770 C   0  0  0  0  0  0  0  0  0  0  0  0
    3.4510    1.1910   -1.0320 N   0  0  0  0  0  0  0  0  0  0  0  0
  1  2  2  0
  2  3  1  0
  3  4  1  0
  4  5  1  0
  5  6  1  0
  6  7  1  0
  8  7  1  6
  8  9  1  0
  8 10  1  0
  9 10  1  0
M  END
