
     RDKit          3D

 10  9  0  0  0  0  0  0  0  0999 V2000
   -1.6360    2.0900   -0.0700 C   0  0  0  0  0  0  0  0  0  0  0  0
   -1.8450    0.7030   -0.6060 C   0  0  0  0  0  0  0  0  0  0  0  0
   -1.2320   -0.2850    0.2540 N   0  0  0  0  0  0  0  0  0  0  0  0
   -1.9470   -1.5720   -0.0870 C   0  0  0  0  0  0  0  0  0  0  0  0
    0.1210   -0.6280   -0.0700 C   0  0  2  0  0  0  0  0  0  0  0  0
    0.4620   -1.7810    0.9140 C   0  0  0  0  0  0  0  0  0  0  0  0
    1.1760    0.3400    0.0720 C   0  0  0  0  0  0  0  0  0  0  0  0
    1.0730    1.4890    0.5130 O   0  0  0  0  0  0  0  0  0  0  0  0
    2.4690   -0.0500   -0.3300 O   0  0  0  0  0  0  0  0  0  0  0  0
    3.5830    0.8150   -0.2390 C   0  0  0  0  0  0  0  0  0  0  0  0
  1  2  1  0
  2  3  1  0
  3  4  1  0
  3  5  1  0
  5  6  1  1
  5  7  1  0
  7  8  2  0
  7  9  1  0
  9 10  1  0
M  END
