
     RDKit          3D

 10  9  0  0  0  0  0  0  0  0999 V2000
    3.5270    0.7160    0.7750 C   0  0  0  0  0  0  0  0  0  0  0  0
    3.0470    0.3160   -0.5950 C   0  0  0  0  0  0  0  0  0  0  0  0
    1.6370    0.1900   -0.5350 O   0  0  0  0  0  0  0  0  0  0  0  0
    0.8650   -0.1680   -1.6220 C   0  0  0  0  0  0  0  0  0  0  0  0
    1.4430   -0.3930   -2.7110 O   0  0  0  0  0  0  0  0  0  0  0  0
   -0.6030   -0.2890   -1.5270 C   0  0  0  0  0  0  0  0  0  0  0  0
   -1.0950   -0.0030   -0.1930 N   0  0  0  0  0  0  0  0  0  0  0  0
   -0.7190   -0.9830    0.7820 C   0  0  0  0  0  0  0  0  0  0  0  0
   -2.5330    0.1220   -0.3150 C   0  0  0  0  0  0  0  0  0  0  0  0
   -3.2280    0.4160    0.9860 C   0  0  0  0  0  0  0  0  0  0  0  0
  1  2  1  0
  2  3  1  0
  3  4  1  0
  4  5  2  0
  4  6  1  0
  6  7  1  0
  7  8  1  0
  7  9  1  0
  9 10  1  0
M  END
