
     RDKit          3D

 10 10  0  0  0  0  0  0  0  0999 V2000
   -1.3580   -1.7780    0.1590 C   0  0  0  0  0  0  0  0  0  0  0  0
   -0.9610   -0.3740   -0.1350 C   0  0  1  0  0  0  0  0  0  0  0  0
   -1.0130    0.5280    1.0790 C   0  0  0  0  0  0  0  0  0  0  0  0
   -0.9900    1.8490    0.6430 O   0  0  0  0  0  0  0  0  0  0  0  0
    0.0210    2.1470   -0.2320 C   0  0  0  0  0  0  0  0  0  0  0  0
    0.2180    1.1890   -1.3580 C   0  0  0  0  0  0  0  0  0  0  0  0
    0.2590   -0.2120   -0.8800 N   0  0  0  0  0  0  0  0  0  0  0  0
    1.4550   -0.3210   -0.1380 C   0  0  0  0  0  0  0  0  0  0  0  0
    1.7900   -1.6120    0.4480 C   0  0  0  0  0  0  0  0  0  0  0  0
    2.7910   -1.7930    1.1160 O   0  0  0  0  0  0  0  0  0  0  0  0
  2  1  1  1
  2  3  1  0
  2  7  1  0
  3  4  1  0
  4  5  1  0
  5  6  1  0
  6  7  1  0
  7  8  1  0
  8  9  1  0
  9 10  2  0
M  END
