
     RDKit          3D

 10  9  0  0  0  0  0  0  0  0999 V2000
   -2.2090    1.3800    0.8750 C   0  0  0  0  0  0  0  0  0  0  0  0
   -1.7380    0.1460    0.8470 C   0  0  0  0  0  0  0  0  0  0  0  0
   -1.4130   -0.5210   -0.3450 N   0  0  0  0  0  0  0  0  0  0  0  0
   -2.0580   -1.7760   -0.6540 C   0  0  0  0  0  0  0  0  0  0  0  0
   -0.5210    0.0020   -1.3330 C   0  0  0  0  0  0  0  0  0  0  0  0
    0.4560    1.0410   -0.8490 C   0  0  0  0  0  0  0  0  0  0  0  0
    1.3800    0.4460    0.1790 C   0  0  0  0  0  0  0  0  0  0  0  0
    0.9640    0.0070    1.2620 O   0  0  0  0  0  0  0  0  0  0  0  0
    2.7360    0.3590   -0.0500 O   0  0  0  0  0  0  0  0  0  0  0  0
    3.6760   -0.1950    0.8510 C   0  0  0  0  0  0  0  0  0  0  0  0
  1  2  2  0
  2  3  1  0
  3  4  1  0
  3  5  1  0
  5  6  1  0
  6  7  1  0
  7  8  2  0
  7  9  1  0
  9 10  1  0
M  END
