
     RDKit          3D

 35 39  0  0  0  0  0  0  0  0999 V2000
   -8.0530    1.5330   -0.3110 C   0  0  0  0  0  0  0  0  0  0  0  0
   -7.8510    0.9180    1.0570 C   0  0  0  0  0  0  0  0  0  0  0  0
   -6.8730   -0.0830    1.0330 O   0  0  0  0  0  0  0  0  0  0  0  0
   -5.5670    0.2070    0.6810 C   0  0  0  0  0  0  0  0  0  0  0  0
   -5.1350    1.4660    0.3480 C   0  0  0  0  0  0  0  0  0  0  0  0
   -3.8140    1.7620   -0.0070 C   0  0  0  0  0  0  0  0  0  0  0  0
   -3.4440    3.0960   -0.3410 N   0  0  0  0  0  0  0  0  0  0  0  0
   -2.9050    0.7370   -0.0230 C   0  0  0  0  0  0  0  0  0  0  0  0
   -1.5640    0.9900   -0.3740 N   0  0  0  0  0  0  0  0  0  0  0  0
   -0.5460   -0.0430   -0.4130 C   0  0  0  0  0  0  0  0  0  0  0  0
    0.7880    0.5160   -0.8190 C   0  0  0  0  0  0  0  0  0  0  0  0
    1.8610   -0.5160   -0.8690 C   0  0  1  0  0  0  0  0  0  0  0  0
    2.0070   -1.1080    0.4370 N   0  0  0  0  0  0  0  0  0  0  0  0
    1.6030   -1.5790   -1.9160 C   0  0  0  0  0  0  0  0  0  0  0  0
    2.8210   -1.7950   -2.7970 C   0  0  0  0  0  0  0  0  0  0  0  0
    4.0400   -1.9180   -1.9600 C   0  0  0  0  0  0  0  0  0  0  0  0
    5.0570   -2.7390   -1.7670 N   0  0  0  0  0  0  0  0  0  0  0  0
    5.8450   -2.2430   -0.7930 C   0  0  0  0  0  0  0  0  0  0  0  0
    6.9720   -2.4470   -0.0970 N   0  0  0  0  0  0  0  0  0  0  0  0
    7.1300   -1.4590    0.7340 N   0  0  0  0  0  0  0  0  0  0  0  0
    6.0960   -0.5650    0.6090 C   0  0  0  0  0  0  0  0  0  0  0  0
    6.0070    0.6640    1.3710 C   0  0  0  0  0  0  0  0  0  0  0  0
    7.2380    1.2050    1.8200 C   0  0  0  0  0  0  0  0  0  0  0  0
    7.3000    2.3110    2.6080 C   0  0  0  0  0  0  0  0  0  0  0  0
    6.1220    2.9160    2.9760 C   0  0  0  0  0  0  0  0  0  0  0  0
    6.1780    4.3470    3.9920 Cl  0  0  0  0  0  0  0  0  0  0  0  0
    4.9170    2.4130    2.5560 C   0  0  0  0  0  0  0  0  0  0  0  0
    4.8670    1.2880    1.7570 C   0  0  0  0  0  0  0  0  0  0  0  0
    5.3120   -1.0550   -0.3380 N   0  0  0  0  0  0  0  0  0  0  0  0
    4.2130   -0.8440   -1.0450 C   0  0  0  0  0  0  0  0  0  0  0  0
    3.1840    0.2110   -1.1820 C   0  0  0  0  0  0  0  0  0  0  0  0
   -3.3110   -0.5310    0.3060 C   0  0  0  0  0  0  0  0  0  0  0  0
   -4.6140   -0.8260    0.6570 C   0  0  0  0  0  0  0  0  0  0  0  0
   -5.0630   -2.1960    1.0150 C   0  0  0  0  0  0  0  0  0  0  0  0
   -5.8440   -2.8270   -0.1250 C   0  0  0  0  0  0  0  0  0  0  0  0
  1  2  1  0
  2  3  1  0
  3  4  1  0
  4  5  2  0
  4 33  1  0
  5  6  1  0
  6  7  1  0
  6  8  2  0
  8  9  1  0
  8 32  1  0
  9 10  1  0
 10 11  1  0
 11 12  1  0
 12 13  1  1
 12 14  1  0
 12 31  1  0
 14 15  1  0
 15 16  1  0
 16 17  1  0
 16 30  2  0
 17 18  1  0
 18 19  2  0
 18 29  1  0
 19 20  1  0
 20 21  2  0
 21 22  1  0
 21 29  1  0
 22 23  2  0
 22 28  1  0
 23 24  1  0
 24 25  2  0
 25 26  1  0
 25 27  1  0
 27 28  2  0
 29 30  1  0
 30 31  1  0
 32 33  2  0
 33 34  1  0
 34 35  1  0
M  CHG  1  13   1
M  END
