
     RDKit          3D

 35 39  0  0  0  0  0  0  0  0999 V2000
    3.5280    4.2970   -1.1710 C   0  0  0  0  0  0  0  0  0  0  0  0
    3.5480    2.8450   -1.4300 C   0  0  0  0  0  0  0  0  0  0  0  0
    3.5580    1.9940   -0.4070 C   0  0  0  0  0  0  0  0  0  0  0  0
    3.5400    2.6790    0.9280 C   0  0  0  0  0  0  0  0  0  0  0  0
    3.7660    0.5680   -0.6020 C   0  0  0  0  0  0  0  0  0  0  0  0
    3.2480   -0.4160    0.2400 C   0  0  0  0  0  0  0  0  0  0  0  0
    2.1250   -0.1180    1.1610 C   0  0  2  0  0  0  0  0  0  0  0  0
    2.0870   -0.6950    2.4910 C   0  0  0  0  0  0  0  0  0  0  0  0
    0.8710   -0.3260    0.3740 N   0  0  0  0  0  0  0  0  0  0  0  0
   -0.2580   -0.7080    1.1170 C   0  0  2  0  0  0  0  0  0  0  0  0
   -0.5580   -2.1700    1.1470 C   0  0  0  0  0  0  0  0  0  0  0  0
   -1.0110   -2.6160   -0.2610 C   0  0  0  0  0  0  0  0  0  0  0  0
   -2.3420   -1.9990   -0.3850 C   0  0  0  0  0  0  0  0  0  0  0  0
   -3.5040   -2.4640   -0.8510 N   0  0  0  0  0  0  0  0  0  0  0  0
   -4.4420   -1.5380   -0.7420 C   0  0  0  0  0  0  0  0  0  0  0  0
   -5.8030   -1.6150   -1.1180 N   0  0  0  0  0  0  0  0  0  0  0  0
   -3.8390   -0.4060   -0.1680 C   0  0  0  0  0  0  0  0  0  0  0  0
   -4.5330    0.8320    0.1260 C   0  0  0  0  0  0  0  0  0  0  0  0
   -3.8430    1.9210    0.6750 N   0  0  0  0  0  0  0  0  0  0  0  0
   -5.7770    0.9300   -0.1210 N   0  0  0  0  0  0  0  0  0  0  0  0
   -6.6890    1.9880    0.0530 C   0  0  2  0  0  0  0  0  0  0  0  0
   -7.8450    2.1170   -0.9620 C   0  0  0  0  0  0  0  0  0  0  0  0
   -6.8130    3.1880   -0.7900 C   0  0  0  0  0  0  0  0  0  0  0  0
   -2.5250   -0.7430    0.0380 N   0  0  0  0  0  0  0  0  0  0  0  0
   -1.4670    0.0220    0.5960 C   0  0  0  0  0  0  0  0  0  0  0  0
    3.7520   -1.7000   -0.0160 C   0  0  0  0  0  0  0  0  0  0  0  0
    3.3100   -2.7780    0.6820 C   0  0  0  0  0  0  0  0  0  0  0  0
    3.7400   -4.0910    0.4520 C   0  0  0  0  0  0  0  0  0  0  0  0
    3.1070   -5.4060    1.4080 Cl  0  0  0  0  0  0  0  0  0  0  0  0
    4.6540   -4.3160   -0.5310 C   0  0  0  0  0  0  0  0  0  0  0  0
    5.1230   -3.2600   -1.2620 C   0  0  0  0  0  0  0  0  0  0  0  0
    4.6800   -1.9600   -1.0140 C   0  0  0  0  0  0  0  0  0  0  0  0
    5.1260   -0.9680   -1.7780 N   0  0  0  0  0  0  0  0  0  0  0  0
    4.6960    0.2640   -1.5950 C   0  0  0  0  0  0  0  0  0  0  0  0
    5.1660    1.1520   -2.3570 O   0  0  0  0  0  0  0  0  0  0  0  0
  1  2  1  0
  2  3  2  3
  3  4  1  0
  3  5  1  0
  5  6  2  0
  5 34  1  0
  6  7  1  0
  6 26  1  0
  7  8  1  1
  7  9  1  0
 10  9  1  6
 10 11  1  0
 10 25  1  0
 11 12  1  0
 12 13  1  0
 13 14  2  0
 13 24  1  0
 14 15  1  0
 15 16  1  0
 15 17  2  0
 17 18  1  0
 17 24  1  0
 18 19  1  0
 18 20  2  3
 21 20  1  6
 21 22  1  0
 21 23  1  0
 22 23  1  0
 24 25  1  0
 26 27  2  0
 26 32  1  0
 27 28  1  0
 28 29  1  0
 28 30  2  0
 30 31  1  0
 31 32  2  0
 32 33  1  0
 33 34  1  0
 34 35  2  0
M  CHG  1   9   1
M  END
