
     RDKit          3D

 35 39  0  0  0  0  0  0  0  0999 V2000
   -6.4750    1.8080    1.9050 N   0  0  0  0  0  0  0  0  0  0  0  0
   -6.8440    2.5760    0.7800 C   0  0  0  0  0  0  0  0  0  0  0  0
   -6.8640    1.9460   -0.5650 C   0  0  0  0  0  0  0  0  0  0  0  0
   -5.5600    1.3860   -0.9700 C   0  0  0  0  0  0  0  0  0  0  0  0
   -4.6740    2.2220   -1.5100 N   0  0  0  0  0  0  0  0  0  0  0  0
   -3.4290    1.8840   -1.8350 C   0  0  0  0  0  0  0  0  0  0  0  0
   -2.9700    0.6080   -1.6280 C   0  0  0  0  0  0  0  0  0  0  0  0
   -3.8710   -0.3140   -1.0610 C   0  0  0  0  0  0  0  0  0  0  0  0
   -3.3900   -1.6510   -1.0460 N   0  0  0  0  0  0  0  0  0  0  0  0
   -2.0900   -2.0760   -0.7500 C   0  0  0  0  0  0  0  0  0  0  0  0
   -1.1150   -1.2790   -0.2390 C   0  0  0  0  0  0  0  0  0  0  0  0
    0.1500   -1.8040   -0.0410 C   0  0  0  0  0  0  0  0  0  0  0  0
    1.2420   -0.9660    0.5150 C   0  0  0  0  0  0  0  0  0  0  0  0
    2.4560   -1.2510   -0.1960 N   0  0  0  0  0  0  0  0  0  0  0  0
    3.6880   -0.6060    0.1250 C   0  0  0  0  0  0  0  0  0  0  0  0
    4.8300   -0.9190   -0.5830 C   0  0  0  0  0  0  0  0  0  0  0  0
    6.0280   -0.3240   -0.3050 C   0  0  0  0  0  0  0  0  0  0  0  0
    6.1140    0.6140    0.7030 C   0  0  0  0  0  0  0  0  0  0  0  0
    7.2960    1.2350    1.0140 C   0  0  0  0  0  0  0  0  0  0  0  0
    7.3340    2.1840    2.0490 C   0  0  0  0  0  0  0  0  0  0  0  0
    6.1970    2.4730    2.7280 C   0  0  0  0  0  0  0  0  0  0  0  0
    5.0170    1.8620    2.4280 C   0  0  0  0  0  0  0  0  0  0  0  0
    3.5590    2.2430    3.3100 Cl  0  0  0  0  0  0  0  0  0  0  0  0
    4.9490    0.9310    1.4220 C   0  0  0  0  0  0  0  0  0  0  0  0
    3.7490    0.3200    1.1270 C   0  0  0  0  0  0  0  0  0  0  0  0
    8.5720    0.9760    0.3200 C   0  0  0  0  0  0  0  0  0  0  0  0
    8.4490   -0.0380   -0.7320 C   0  0  0  0  0  0  0  0  0  0  0  0
    9.5030   -0.3660   -1.3920 O   0  0  0  0  0  0  0  0  0  0  0  0
    7.2060   -0.6450   -1.0210 N   0  0  0  0  0  0  0  0  0  0  0  0
    0.4280   -3.1130   -0.3510 C   0  0  0  0  0  0  0  0  0  0  0  0
   -0.5830   -3.8930   -0.8650 C   0  0  0  0  0  0  0  0  0  0  0  0
   -1.7830   -3.3730   -1.0480 N   0  0  0  0  0  0  0  0  0  0  0  0
   -5.1520    0.0620   -0.7340 C   0  0  0  0  0  0  0  0  0  0  0  0
   -6.1860   -0.8060   -0.1950 C   0  0  0  0  0  0  0  0  0  0  0  0
   -5.9010   -2.1460    0.1800 N   0  0  0  0  0  0  0  0  0  0  0  0
  1  2  1  0
  2  3  1  0
  3  4  1  0
  4  5  2  0
  4 33  1  0
  5  6  1  0
  6  7  2  0
  7  8  1  0
  8  9  1  0
  8 33  2  0
  9 10  1  0
 10 11  2  0
 10 32  1  0
 11 12  1  0
 12 13  1  0
 12 30  2  0
 13 14  1  0
 14 15  1  0
 15 16  2  0
 15 25  1  0
 16 17  1  0
 17 18  2  0
 17 29  1  0
 18 19  1  0
 18 24  1  0
 19 20  2  0
 19 26  1  0
 20 21  1  0
 21 22  2  0
 22 23  1  0
 22 24  1  0
 24 25  2  0
 26 27  1  0
 27 28  2  0
 27 29  1  0
 30 31  1  0
 31 32  2  0
 33 34  1  0
 34 35  1  0
M  CHG  1  35   1
M  END
