
     RDKit          3D

 35 39  0  0  0  0  0  0  0  0999 V2000
    8.0180    1.3550    2.0030 C   0  0  0  0  0  0  0  0  0  0  0  0
    7.1230    1.0180    0.8440 C   0  0  0  0  0  0  0  0  0  0  0  0
    7.5330    1.1760   -0.4550 C   0  0  0  0  0  0  0  0  0  0  0  0
    6.6860    0.8580   -1.5260 C   0  0  0  0  0  0  0  0  0  0  0  0
    5.4250    0.3780   -1.3060 C   0  0  0  0  0  0  0  0  0  0  0  0
    4.9930    0.2110    0.0210 C   0  0  0  0  0  0  0  0  0  0  0  0
    3.6740   -0.2310    0.1840 N   0  0  0  0  0  0  0  0  0  0  0  0
    3.0750   -0.7790    1.3330 C   0  0  0  0  0  0  0  0  0  0  0  0
    3.6180   -1.3430    2.4480 C   0  0  0  0  0  0  0  0  0  0  0  0
    2.6560   -1.8110    3.2930 N   0  0  0  0  0  0  0  0  0  0  0  0
    1.4700   -1.5610    2.7400 C   0  0  0  0  0  0  0  0  0  0  0  0
    0.1780   -1.8270    3.1760 C   0  0  0  0  0  0  0  0  0  0  0  0
   -0.8650   -1.4400    2.3700 C   0  0  0  0  0  0  0  0  0  0  0  0
   -0.6800   -0.8060    1.1630 C   0  0  0  0  0  0  0  0  0  0  0  0
   -1.7130   -0.3740    0.3110 N   0  0  0  0  0  0  0  0  0  0  0  0
   -3.0880   -0.2910    0.6260 C   0  0  0  0  0  0  0  0  0  0  0  0
   -3.5290   -0.6010    1.7500 O   0  0  0  0  0  0  0  0  0  0  0  0
   -4.0590    0.1560   -0.3270 N   0  0  0  0  0  0  0  0  0  0  0  0
   -5.4570    0.2290    0.0290 C   0  0  1  0  0  0  0  0  0  0  0  0
   -5.9170    1.6610   -0.1710 C   0  0  0  0  0  0  0  0  0  0  0  0
   -5.1320    2.6170    0.6930 C   0  0  0  0  0  0  0  0  0  0  0  0
   -5.2920    2.2940    2.0870 N   0  0  0  0  0  0  0  0  0  0  0  0
   -6.2850   -0.6480   -0.8430 C   0  0  0  0  0  0  0  0  0  0  0  0
   -7.2660   -1.4660   -0.3260 C   0  0  0  0  0  0  0  0  0  0  0  0
   -8.0380   -2.2830   -1.1380 C   0  0  0  0  0  0  0  0  0  0  0  0
   -7.8240   -2.2840   -2.5020 C   0  0  0  0  0  0  0  0  0  0  0  0
   -6.8350   -1.4550   -2.9890 C   0  0  0  0  0  0  0  0  0  0  0  0
   -6.0940   -0.6650   -2.1750 N   0  0  0  0  0  0  0  0  0  0  0  0
    0.6280   -0.5600    0.7660 C   0  0  0  0  0  0  0  0  0  0  0  0
    1.6890   -0.9310    1.5420 C   0  0  0  0  0  0  0  0  0  0  0  0
    5.8510    0.5350    1.0670 C   0  0  0  0  0  0  0  0  0  0  0  0
    4.7750    0.1260   -2.5560 N   0  0  0  0  0  0  0  0  0  0  0  0
    5.8140    0.0330   -3.5630 C   0  0  2  0  0  0  0  0  0  0  0  0
    6.3830   -1.6360   -3.7520 Cl  0  0  0  0  0  0  0  0  0  0  0  0
    6.8690    0.9380   -3.0000 C   0  0  0  0  0  0  0  0  0  0  0  0
  1  2  1  0
  2  3  2  0
  2 31  1  0
  3  4  1  0
  4  5  2  0
  4 35  1  0
  5  6  1  0
  5 32  1  0
  6  7  1  0
  6 31  2  0
  7  8  1  0
  8  9  2  0
  8 30  1  0
  9 10  1  0
 10 11  1  0
 11 12  2  0
 11 30  1  0
 12 13  1  0
 13 14  2  0
 14 15  1  0
 14 29  1  0
 15 16  1  0
 16 17  2  0
 16 18  1  0
 18 19  1  0
 19 20  1  6
 19 23  1  0
 20 21  1  0
 21 22  1  0
 23 24  2  0
 23 28  1  0
 24 25  1  0
 25 26  2  0
 26 27  1  0
 27 28  2  0
 29 30  2  0
 32 33  1  0
 33 34  1  1
 33 35  1  0
M  CHG  1  22   1
M  END
