
     RDKit          3D

 35 39  0  0  0  0  0  0  0  0999 V2000
    7.7300   -0.2680    1.1440 C   0  0  0  0  0  0  0  0  0  0  0  0
    6.8550   -0.3830   -0.0990 C   0  0  2  0  0  0  0  0  0  0  0  0
    6.4220    0.9840   -0.4500 N   0  0  0  0  0  0  0  0  0  0  0  0
    7.4840    1.9530   -0.3210 C   0  0  0  0  0  0  0  0  0  0  0  0
    6.9280    3.2980   -0.7450 C   0  0  0  0  0  0  0  0  0  0  0  0
    6.3300    3.2840   -2.4040 Cl  0  0  0  0  0  0  0  0  0  0  0  0
    5.6290   -1.1560    0.1510 C   0  0  0  0  0  0  0  0  0  0  0  0
    4.3580   -0.5580    0.1130 C   0  0  0  0  0  0  0  0  0  0  0  0
    3.2190   -1.3700    0.2420 C   0  0  0  0  0  0  0  0  0  0  0  0
    1.8650   -0.8690    0.0360 C   0  0  0  0  0  0  0  0  0  0  0  0
    1.4110   -0.2840   -1.2070 N   0  0  0  0  0  0  0  0  0  0  0  0
    0.0880   -0.1670   -1.0520 C   0  0  0  0  0  0  0  0  0  0  0  0
   -0.8880    0.3640   -2.1020 C   0  0  0  0  0  0  0  0  0  0  0  0
   -2.1300    0.2400   -1.4570 C   0  0  0  0  0  0  0  0  0  0  0  0
   -2.6350   -0.1250   -0.3930 C   0  0  0  0  0  0  0  0  0  0  0  0
   -3.9960   -0.0910   -0.0380 N   0  0  0  0  0  0  0  0  0  0  0  0
   -5.0700   -1.0200   -0.3190 C   0  0  0  0  0  0  0  0  0  0  0  0
   -6.3210   -0.1590   -0.5740 C   0  0  0  0  0  0  0  0  0  0  0  0
   -7.3000   -0.1730    0.2700 C   0  0  0  0  0  0  0  0  0  0  0  0
   -7.2790   -1.0040    1.4110 C   0  0  0  0  0  0  0  0  0  0  0  0
   -7.2700   -1.7610    2.4160 N   0  0  0  0  0  0  0  0  0  0  0  0
   -8.4020    0.8810    0.1520 C   0  0  1  0  0  0  0  0  0  0  0  0
   -9.5030    0.8850    1.1410 C   0  0  0  0  0  0  0  0  0  0  0  0
   -8.3160    1.7440    1.4570 C   0  0  0  0  0  0  0  0  0  0  0  0
   -8.3370    1.7280   -1.0520 C   0  0  0  0  0  0  0  0  0  0  0  0
   -7.7350    0.9770   -2.2250 C   0  0  0  0  0  0  0  0  0  0  0  0
   -8.2380    0.8620   -3.2620 O   0  0  0  0  0  0  0  0  0  0  0  0
   -6.4270    0.4110   -1.8780 N   0  0  0  0  0  0  0  0  0  0  0  0
   -1.6490   -0.6180    0.5690 C   0  0  0  0  0  0  0  0  0  0  0  0
   -0.3370   -0.5860    0.0990 C   0  0  0  0  0  0  0  0  0  0  0  0
    0.7900   -1.0350    0.7840 N   0  0  0  0  0  0  0  0  0  0  0  0
    3.4130   -2.7040    0.4180 C   0  0  0  0  0  0  0  0  0  0  0  0
    4.6540   -3.2810    0.4530 C   0  0  0  0  0  0  0  0  0  0  0  0
    5.7740   -2.5400    0.3140 C   0  0  0  0  0  0  0  0  0  0  0  0
    7.1040   -3.1030    0.2990 N   0  0  0  0  0  0  0  0  0  0  0  0
  2  1  1  1
  2  3  1  0
  2  7  1  0
  3  4  1  0
  4  5  1  0
  5  6  1  0
  7  8  2  0
  7 34  1  0
  8  9  1  0
  9 10  1  0
  9 32  2  0
 10 11  2  0
 10 31  1  0
 11 12  1  0
 12 13  2  0
 12 30  1  0
 13 14  1  0
 14 15  2  0
 15 16  1  0
 15 29  1  0
 16 17  1  0
 17 18  1  0
 18 19  2  0
 18 28  1  0
 19 20  1  0
 19 22  1  0
 20 21  3  0
 22 23  1  1
 22 24  1  0
 22 25  1  0
 23 24  1  0
 25 26  1  0
 26 27  2  0
 26 28  1  0
 29 30  2  0
 30 31  1  0
 32 33  1  0
 33 34  2  0
 34 35  1  0
M  CHG  1   3   1
M  END
