
     RDKit          3D

 35 39  0  0  0  0  0  0  0  0999 V2000
    1.3450    0.1460    2.6230 C   0  0  0  0  0  0  0  0  0  0  0  0
    0.2550    0.0170    1.6290 C   0  0  0  0  0  0  0  0  0  0  0  0
    0.3200    0.5530    0.3610 C   0  0  0  0  0  0  0  0  0  0  0  0
    1.6570    0.9460   -0.1650 C   0  0  0  0  0  0  0  0  0  0  0  0
    2.5370   -0.3170   -0.2250 C   0  0  1  0  0  0  0  0  0  0  0  0
    2.0670   -1.4200   -1.0540 C   0  0  0  0  0  0  0  0  0  0  0  0
    0.6660   -1.6970   -1.2170 N   0  0  0  0  0  0  0  0  0  0  0  0
    2.9190   -2.2480   -1.6240 C   0  0  0  0  0  0  0  0  0  0  0  0
    4.2810   -2.0780   -1.4420 N   0  0  0  0  0  0  0  0  0  0  0  0
    4.7970   -1.1380   -0.7430 C   0  0  0  0  0  0  0  0  0  0  0  0
    6.2070   -0.9990   -0.5540 N   0  0  0  0  0  0  0  0  0  0  0  0
    3.9530   -0.1320   -0.1740 N   0  0  0  0  0  0  0  0  0  0  0  0
    4.5370    0.9760    0.5220 C   0  0  0  0  0  0  0  0  0  0  0  0
    5.7430    1.5480   -0.2150 C   0  0  0  0  0  0  0  0  0  0  0  0
    6.8160    2.0860    0.4660 C   0  0  0  0  0  0  0  0  0  0  0  0
    7.6770    2.4810   -0.5210 C   0  0  0  0  0  0  0  0  0  0  0  0
    9.2350    3.2100   -0.2470 Cl  0  0  0  0  0  0  0  0  0  0  0  0
    7.1230    2.1780   -1.7470 C   0  0  0  0  0  0  0  0  0  0  0  0
    5.9010    1.5930   -1.5330 N   0  0  0  0  0  0  0  0  0  0  0  0
   -0.8190    0.5890   -0.4140 C   0  0  0  0  0  0  0  0  0  0  0  0
   -2.0210    0.1070    0.0020 C   0  0  0  0  0  0  0  0  0  0  0  0
   -3.1500    0.1620   -0.7860 N   0  0  0  0  0  0  0  0  0  0  0  0
   -4.2860   -0.3440   -0.3320 C   0  0  0  0  0  0  0  0  0  0  0  0
   -5.5390   -0.5090   -1.1340 C   0  0  1  0  0  0  0  0  0  0  0  0
   -6.5620    0.5440   -0.7450 C   0  0  0  0  0  0  0  0  0  0  0  0
   -6.8390    1.4040   -1.9530 C   0  0  0  0  0  0  0  0  0  0  0  0
   -5.4040    1.5060   -2.5060 C   0  0  0  0  0  0  0  0  0  0  0  0
   -5.0960   -0.0110   -2.5480 C   0  0  0  0  0  0  0  0  0  0  0  0
   -4.3410   -0.9420    0.9530 C   0  0  0  0  0  0  0  0  0  0  0  0
   -5.6730   -1.4220    1.4620 C   0  0  0  0  0  0  0  0  0  0  0  0
   -5.7060   -2.8620    1.5170 O   0  0  0  0  0  0  0  0  0  0  0  0
   -3.2580   -0.9620    1.6820 N   0  0  0  0  0  0  0  0  0  0  0  0
   -2.0720   -0.4450    1.2650 C   0  0  0  0  0  0  0  0  0  0  0  0
   -0.9660   -0.4980    2.0890 C   0  0  0  0  0  0  0  0  0  0  0  0
   -1.0490   -1.0190    3.4440 C   0  0  0  0  0  0  0  0  0  0  0  0
  1  2  1  0
  2  3  2  0
  2 34  1  0
  3  4  1  0
  3 20  1  0
  5  4  1  6
  5  6  1  0
  5 12  1  0
  6  7  1  0
  6  8  2  0
  8  9  1  0
  9 10  2  0
 10 11  1  0
 10 12  1  0
 12 13  1  0
 13 14  1  0
 14 15  2  0
 14 19  1  0
 15 16  1  0
 16 17  1  0
 16 18  2  0
 18 19  1  0
 20 21  2  0
 21 22  1  0
 21 33  1  0
 22 23  2  0
 24 23  1  1
 23 29  1  0
 24 25  1  0
 24 28  1  0
 25 26  1  0
 26 27  1  0
 27 28  1  0
 29 30  1  0
 29 32  2  0
 30 31  1  0
 32 33  1  0
 33 34  2  0
 34 35  1  0
M  CHG  1   9   1
M  END
