
     RDKit          3D

 35 39  0  0  0  0  0  0  0  0999 V2000
   -5.9340   -3.8800    0.6850 N   0  0  0  0  0  0  0  0  0  0  0  0
   -4.8170   -3.0100    0.4370 C   0  0  0  0  0  0  0  0  0  0  0  0
   -3.7800   -3.4000   -0.2760 N   0  0  0  0  0  0  0  0  0  0  0  0
   -2.7280   -2.5900   -0.5110 C   0  0  0  0  0  0  0  0  0  0  0  0
   -2.7700   -1.3880    0.0010 N   0  0  0  0  0  0  0  0  0  0  0  0
   -3.7520   -0.8860    0.7330 C   0  0  0  0  0  0  0  0  0  0  0  0
   -3.6330    0.3820    1.2680 N   0  0  0  0  0  0  0  0  0  0  0  0
   -2.7770    1.4890    1.2200 C   0  0  0  0  0  0  0  0  0  0  0  0
   -1.8500    1.7070    0.0460 C   0  0  1  0  0  0  0  0  0  0  0  0
   -2.6960    1.6500   -1.1390 C   0  0  0  0  0  0  0  0  0  0  0  0
   -2.2600    1.7660   -2.5230 C   0  0  0  0  0  0  0  0  0  0  0  0
   -3.4350    1.5840   -3.3480 O   0  0  0  0  0  0  0  0  0  0  0  0
   -1.4950    3.2480    0.2860 C   0  0  0  0  0  0  0  0  0  0  0  0
   -0.5530    3.7870   -0.6870 C   0  0  0  0  0  0  0  0  0  0  0  0
    0.4120    2.8570   -1.3180 C   0  0  0  0  0  0  0  0  0  0  0  0
    0.5310    1.5980   -0.4930 C   0  0  0  0  0  0  0  0  0  0  0  0
    1.7280    1.0220   -0.3350 N   0  0  0  0  0  0  0  0  0  0  0  0
    1.9870   -0.0120    0.4480 C   0  0  0  0  0  0  0  0  0  0  0  0
    3.3260   -0.5720    0.5540 C   0  0  0  0  0  0  0  0  0  0  0  0
    3.6120   -1.6450    1.3640 C   0  0  0  0  0  0  0  0  0  0  0  0
    4.9200   -2.1380    1.4240 C   0  0  0  0  0  0  0  0  0  0  0  0
    5.3530   -3.4930    2.4280 Cl  0  0  0  0  0  0  0  0  0  0  0  0
    5.9240   -1.5530    0.6740 C   0  0  0  0  0  0  0  0  0  0  0  0
    5.6490   -0.4790   -0.1400 C   0  0  0  0  0  0  0  0  0  0  0  0
    4.3520   -0.0190   -0.1760 C   0  0  0  0  0  0  0  0  0  0  0  0
    6.6520    0.2200   -0.9830 C   0  0  0  0  0  0  0  0  0  0  0  0
    7.9890   -0.4410   -1.0110 C   0  0  0  0  0  0  0  0  0  0  0  0
    7.8990   -1.9160   -0.6750 C   0  0  0  0  0  0  0  0  0  0  0  0
    7.3210   -2.0540    0.7190 C   0  0  0  0  0  0  0  0  0  0  0  0
    0.9440   -0.5050    1.1340 N   0  0  0  0  0  0  0  0  0  0  0  0
   -0.2900   -0.0030    1.0460 C   0  0  0  0  0  0  0  0  0  0  0  0
   -0.5580    1.0780    0.2180 C   0  0  0  0  0  0  0  0  0  0  0  0
   -4.8370   -1.6840    0.9850 C   0  0  0  0  0  0  0  0  0  0  0  0
   -6.0770   -1.4010    1.6910 C   0  0  0  0  0  0  0  0  0  0  0  0
   -6.4850   -0.2410    2.3020 N   0  0  0  0  0  0  0  0  0  0  0  0
  1  2  1  0
  2  3  2  0
  2 33  1  0
  3  4  1  0
  4  5  2  0
  5  6  1  0
  6  7  1  0
  6 33  2  0
  7  8  1  0
  9  8  1  1
  9 10  1  0
  9 13  1  0
  9 32  1  0
 10 11  1  0
 11 12  1  0
 13 14  1  0
 14 15  1  0
 15 16  1  0
 16 17  2  0
 16 32  1  0
 17 18  1  0
 18 19  1  0
 18 30  2  0
 19 20  2  0
 19 25  1  0
 20 21  1  0
 21 22  1  0
 21 23  2  0
 23 24  1  0
 23 29  1  0
 24 25  2  0
 24 26  1  0
 26 27  1  0
 27 28  1  0
 28 29  1  0
 30 31  1  0
 31 32  2  0
 33 34  1  0
 34 35  1  0
M  CHG  1  35   1
M  END
