
     RDKit          3D

 34 38  0  0  0  0  0  0  0  0999 V2000
   -3.5120   -0.6150    0.9710 C   0  0  0  0  0  0  0  0  0  0  0  0
   -3.8790    0.8190    0.7200 C   0  0  2  0  0  0  0  0  0  0  0  0
   -2.7130    1.6640    0.8940 N   0  0  0  0  0  0  0  0  0  0  0  0
   -1.9950    1.4080    2.0900 C   0  0  0  0  0  0  0  0  0  0  0  0
   -0.8430    0.5150    2.0150 C   0  0  0  0  0  0  0  0  0  0  0  0
   -0.1640    0.2580    3.0770 O   0  0  0  0  0  0  0  0  0  0  0  0
   -0.3430   -0.1470    0.8460 N   0  0  0  0  0  0  0  0  0  0  0  0
    0.7370   -0.9580    0.8810 N   0  0  0  0  0  0  0  0  0  0  0  0
    1.8180   -1.0630    0.2540 C   0  0  0  0  0  0  0  0  0  0  0  0
    2.7180   -2.1340    0.6490 C   0  0  0  0  0  0  0  0  0  0  0  0
    2.1760   -3.1730    1.4160 C   0  0  0  0  0  0  0  0  0  0  0  0
    2.9190   -4.2080    1.9200 C   0  0  0  0  0  0  0  0  0  0  0  0
    4.2770   -4.2600    1.6760 C   0  0  0  0  0  0  0  0  0  0  0  0
    5.1230   -5.3620    2.2010 C   0  0  0  0  0  0  0  0  0  0  0  0
    6.0790   -4.7980    3.6120 Cl  0  0  0  0  0  0  0  0  0  0  0  0
    4.8220   -3.2480    0.9270 C   0  0  0  0  0  0  0  0  0  0  0  0
    6.2210   -3.2960    0.6740 N   0  0  0  0  0  0  0  0  0  0  0  0
    4.0590   -2.1890    0.4140 C   0  0  0  0  0  0  0  0  0  0  0  0
    2.1790   -0.1430   -0.7950 C   0  0  0  0  0  0  0  0  0  0  0  0
    3.0780   -0.4730   -1.8170 C   0  0  0  0  0  0  0  0  0  0  0  0
    3.4480    0.4810   -2.7270 C   0  0  0  0  0  0  0  0  0  0  0  0
    2.9490    1.7700   -2.6570 C   0  0  0  0  0  0  0  0  0  0  0  0
    3.1580    2.8580   -3.4170 N   0  0  0  0  0  0  0  0  0  0  0  0
    2.4080    3.8420   -2.8860 C   0  0  0  0  0  0  0  0  0  0  0  0
    2.3110    5.1780   -3.3600 N   0  0  0  0  0  0  0  0  0  0  0  0
    1.7400    3.3860   -1.8130 N   0  0  0  0  0  0  0  0  0  0  0  0
    2.0730    2.1060   -1.6700 C   0  0  0  0  0  0  0  0  0  0  0  0
    1.6910    1.1560   -0.7460 C   0  0  0  0  0  0  0  0  0  0  0  0
   -4.9800    1.1790    1.6950 C   0  0  0  0  0  0  0  0  0  0  0  0
   -6.0270    1.9390    0.8940 C   0  0  0  0  0  0  0  0  0  0  0  0
   -5.9810    1.1930   -0.4180 C   0  0  0  0  0  0  0  0  0  0  0  0
   -4.4970    0.9810   -0.6220 C   0  0  2  0  0  0  0  0  0  0  0  0
   -4.1110    0.1370   -1.7780 C   0  0  0  0  0  0  0  0  0  0  0  0
   -3.8790    1.6570   -1.7630 C   0  0  0  0  0  0  0  0  0  0  0  0
  2  1  1  1
  2  3  1  0
  2 29  1  0
  2 32  1  0
  3  4  1  0
  4  5  1  0
  5  6  2  0
  5  7  1  0
  7  8  1  0
  8  9  2  3
  9 10  1  0
  9 19  1  0
 10 11  2  0
 10 18  1  0
 11 12  1  0
 12 13  2  0
 13 14  1  0
 13 16  1  0
 14 15  1  0
 16 17  1  0
 16 18  2  0
 19 20  2  0
 19 28  1  0
 20 21  1  0
 21 22  2  0
 22 23  1  0
 22 27  1  0
 23 24  1  0
 24 25  1  0
 24 26  2  0
 26 27  1  0
 27 28  2  0
 29 30  1  0
 30 31  1  0
 32 31  1  1
 32 33  1  0
 32 34  1  0
 33 34  1  0
M  CHG  1   3   1
M  END
