
     RDKit          3D

 16 15  0  0  0  0  0  0  0  0999 V2000
   -4.9910    2.0430   -0.7250 C   0  0  0  0  0  0  0  0  0  0  0  0
   -4.6250    1.4770    0.4170 C   0  0  0  0  0  0  0  0  0  0  0  0
   -4.3530    0.0190    0.5070 C   0  0  0  0  0  0  0  0  0  0  0  0
   -2.9430   -0.2620    0.9500 C   0  0  2  0  0  0  0  0  0  0  0  0
   -2.7760    0.3170    2.2110 O   0  0  0  0  0  0  0  0  0  0  0  0
   -1.9530    0.3860    0.0040 C   0  0  2  0  0  0  0  0  0  0  0  0
   -2.0860   -0.1150   -1.3980 C   0  0  0  0  0  0  0  0  0  0  0  0
   -1.8620   -1.5770   -1.5500 C   0  0  0  0  0  0  0  0  0  0  0  0
   -0.5590    0.1460    0.5270 C   0  0  0  0  0  0  0  0  0  0  0  0
    0.4770    0.7680   -0.3650 C   0  0  0  0  0  0  0  0  0  0  0  0
    1.8390    0.5190    0.1950 C   0  0  0  0  0  0  0  0  0  0  0  0
    2.7070   -0.1510   -0.5400 C   0  0  0  0  0  0  0  0  0  0  0  0
    4.0690   -0.4030    0.0130 C   0  0  2  0  0  0  0  0  0  0  0  0
    3.9360   -0.7400    1.4750 C   0  0  0  0  0  0  0  0  0  0  0  0
    4.8540    0.9040   -0.1180 C   0  0  0  0  0  0  0  0  0  0  0  0
    4.7160   -1.5070   -0.7670 C   0  0  0  0  0  0  0  0  0  0  0  0
  1  2  2  0
  2  3  1  0
  3  4  1  0
  4  5  1  1
  4  6  1  0
  6  7  1  6
  6  9  1  0
  7  8  1  0
  9 10  1  0
 10 11  1  0
 11 12  2  3
 12 13  1  0
 13 14  1  1
 13 15  1  0
 13 16  1  0
M  END
