
     RDKit          3D

 16 15  0  0  0  0  0  0  0  0999 V2000
    3.2780    2.2950   -0.6390 C   0  0  0  0  0  0  0  0  0  0  0  0
    3.5300    1.0710   -0.2200 C   0  0  0  0  0  0  0  0  0  0  0  0
    2.4910    0.0900    0.0920 C   0  0  0  0  0  0  0  0  0  0  0  0
    2.8930   -1.1040    0.4900 C   0  0  0  0  0  0  0  0  0  0  0  0
    4.3660   -1.3910    0.6020 C   0  0  0  0  0  0  0  0  0  0  0  0
    1.0230    0.4130   -0.0360 C   0  0  2  0  0  0  0  0  0  0  0  0
    0.7700    1.5620    0.9140 C   0  0  0  0  0  0  0  0  0  0  0  0
    0.2860   -0.8180    0.3210 C   0  0  0  0  0  0  0  0  0  0  0  0
   -1.2080   -0.7680    0.2380 C   0  0  0  0  0  0  0  0  0  0  0  0
   -1.8720    0.2580   -0.1420 C   0  0  0  0  0  0  0  0  0  0  0  0
   -3.3050    0.4430   -0.2650 C   0  0  1  0  0  0  0  0  0  0  0  0
   -3.6720    1.7580    0.4940 C   0  0  0  0  0  0  0  0  0  0  0  0
   -3.7170    0.7630   -1.7110 C   0  0  0  0  0  0  0  0  0  0  0  0
   -1.8370   -2.0040    0.6130 C   0  0  0  0  0  0  0  0  0  0  0  0
   -1.0540   -3.2100    1.0640 C   0  0  0  0  0  0  0  0  0  0  0  0
   -3.0640   -2.1500    0.5860 O   0  0  0  0  0  0  0  0  0  0  0  0
  1  2  2  0
  2  3  1  0
  3  4  2  3
  3  6  1  0
  4  5  1  0
  6  7  1  1
  6  8  1  0
  8  9  1  0
  9 10  2  3
  9 14  1  0
 10 11  1  0
 11 12  1  1
 11 13  1  0
 14 15  1  0
 14 16  2  0
M  END
