
     RDKit          3D

 16 16  0  0  0  0  0  0  0  0999 V2000
   -5.1280   -0.3860   -1.3310 C   0  0  0  0  0  0  0  0  0  0  0  0
   -4.6040    0.5640   -0.3080 C   0  0  0  0  0  0  0  0  0  0  0  0
   -3.1470    0.2380    0.0470 C   0  0  0  0  0  0  0  0  0  0  0  0
   -3.0100   -1.1270    0.5780 C   0  0  0  0  0  0  0  0  0  0  0  0
   -3.8240   -1.1310    1.8910 C   0  0  0  0  0  0  0  0  0  0  0  0
   -2.2860    1.1620   -0.1740 C   0  0  0  0  0  0  0  0  0  0  0  0
   -2.9040    2.3650   -0.7370 O   0  0  0  0  0  0  0  0  0  0  0  0
   -0.8460    1.3050    0.0010 C   0  0  0  0  0  0  0  0  0  0  0  0
   -0.1480    0.1510    0.5860 C   0  0  0  0  0  0  0  0  0  0  0  0
    1.3700    0.3780    0.7980 C   0  0  0  0  0  0  0  0  0  0  0  0
    2.0050    0.6440   -0.4990 C   0  0  0  0  0  0  0  0  0  0  0  0
    3.4650    0.9010   -0.5270 C   0  0  0  0  0  0  0  0  0  0  0  0
    4.2800   -0.2350    0.0010 C   0  0  2  0  0  0  0  0  0  0  0  0
    4.1570   -0.7170    1.4220 C   0  0  0  0  0  0  0  0  0  0  0  0
    5.7060   -0.3990   -0.6180 C   0  0  0  0  0  0  0  0  0  0  0  0
    4.6000   -1.2800   -1.0660 C   0  0  0  0  0  0  0  0  0  0  0  0
  1  2  1  0
  2  3  1  0
  3  4  1  0
  3  6  2  3
  4  5  1  0
  6  7  1  0
  6  8  1  0
  8  9  1  0
  9 10  1  0
 10 11  1  0
 11 12  1  0
 12 13  1  0
 13 14  1  1
 13 15  1  0
 13 16  1  0
 15 16  1  0
M  END
