
     RDKit          3D

 18 18  0  0  0  0  0  0  0  0999 V2000
   -4.8670    0.3420    1.1880 N   0  0  0  0  0  0  0  0  0  0  0  0
   -4.2650   -0.1110   -0.3560 S   0  0  1  0  0  0  0  0  0  0  0  0
   -4.7860   -1.5110   -0.6420 O   0  0  0  0  0  0  0  0  0  0  0  0
   -4.6340    0.8310   -1.4370 O   0  0  0  0  0  0  0  0  0  0  0  0
   -2.5200   -0.2350   -0.2960 C   0  0  0  0  0  0  0  0  0  0  0  0
   -1.7280    0.8570   -0.5720 C   0  0  0  0  0  0  0  0  0  0  0  0
   -0.3290    0.8090   -0.5380 C   0  0  0  0  0  0  0  0  0  0  0  0
    0.2680   -0.3670   -0.2200 C   0  0  0  0  0  0  0  0  0  0  0  0
    1.7340   -0.4890   -0.1720 C   0  0  0  0  0  0  0  0  0  0  0  0
    2.2010   -1.5420    0.3810 O   0  0  0  0  0  0  0  0  0  0  0  0
    2.5610    0.5040   -0.7080 N   0  0  0  0  0  0  0  0  0  0  0  0
    3.9790    0.4480   -0.6770 C   0  0  0  0  0  0  0  0  0  0  0  0
    4.5320    0.4800    0.7140 C   0  0  1  0  0  0  0  0  0  0  0  0
    4.1190   -0.5540    1.4740 F   0  0  0  0  0  0  0  0  0  0  0  0
    5.9290    0.5580    0.6840 F   0  0  0  0  0  0  0  0  0  0  0  0
    4.0350    1.6530    1.3050 F   0  0  0  0  0  0  0  0  0  0  0  0
   -0.5300   -1.4810    0.0620 C   0  0  0  0  0  0  0  0  0  0  0  0
   -1.9050   -1.4240    0.0260 C   0  0  0  0  0  0  0  0  0  0  0  0
  2  1  1  1
  2  3  2  0
  2  4  2  0
  2  5  1  0
  5  6  2  0
  5 18  1  0
  6  7  1  0
  7  8  2  0
  8  9  1  0
  8 17  1  0
  9 10  2  0
  9 11  1  0
 11 12  1  0
 12 13  1  0
 13 14  1  1
 13 15  1  0
 13 16  1  0
 17 18  2  0
M  END
