
     RDKit          3D

 16 15  0  0  0  0  0  0  0  0999 V2000
   -5.2980    2.3070    0.1810 C   0  0  0  0  0  0  0  0  0  0  0  0
   -5.1730    1.0100    0.2500 C   0  0  0  0  0  0  0  0  0  0  0  0
   -3.9420    0.2700    0.3910 C   0  0  0  0  0  0  0  0  0  0  0  0
   -4.0500   -1.0680    0.4670 C   0  0  0  0  0  0  0  0  0  0  0  0
   -2.8910   -1.9580    0.6130 C   0  0  0  0  0  0  0  0  0  0  0  0
   -2.6000    0.8740    0.4750 C   0  0  0  0  0  0  0  0  0  0  0  0
   -2.1590    1.5950   -0.7250 C   0  0  0  0  0  0  0  0  0  0  0  0
   -1.0840    1.2840   -1.4160 C   0  0  0  0  0  0  0  0  0  0  0  0
   -0.1180    0.1990   -1.1660 C   0  0  0  0  0  0  0  0  0  0  0  0
    1.2370    0.8480   -0.9580 C   0  0  0  0  0  0  0  0  0  0  0  0
    2.3290   -0.1620   -0.6880 C   0  0  1  0  0  0  0  0  0  0  0  0
    2.4670   -1.1100   -1.8270 C   0  0  0  0  0  0  0  0  0  0  0  0
    3.4540   -2.0580   -1.6310 O   0  0  0  0  0  0  0  0  0  0  0  0
    3.5620    0.5950   -0.3430 C   0  0  0  0  0  0  0  0  0  0  0  0
    4.7670   -0.2290   -0.0390 C   0  0  0  0  0  0  0  0  0  0  0  0
    4.5350   -1.1490    1.1350 C   0  0  0  0  0  0  0  0  0  0  0  0
  1  2  2  0
  2  3  1  0
  3  4  2  3
  3  6  1  0
  4  5  1  0
  6  7  1  0
  7  8  2  3
  8  9  1  0
  9 10  1  0
 11 10  1  6
 11 12  1  0
 11 14  1  0
 12 13  1  0
 14 15  1  0
 15 16  1  0
M  END
