
     RDKit          3D

 16 16  0  0  0  0  0  0  0  0999 V2000
   -5.7360    0.1250    0.4910 C   0  0  0  0  0  0  0  0  0  0  0  0
   -4.8820   -0.8150    0.1510 C   0  0  0  0  0  0  0  0  0  0  0  0
   -3.7420   -0.7040   -0.7490 C   0  0  0  0  0  0  0  0  0  0  0  0
   -3.3050    0.6510   -1.1630 C   0  0  0  0  0  0  0  0  0  0  0  0
   -2.7840    1.5030   -0.0370 C   0  0  0  0  0  0  0  0  0  0  0  0
   -1.5870    0.9000    0.6630 C   0  0  0  0  0  0  0  0  0  0  0  0
   -0.4680    0.7240   -0.3130 C   0  0  0  0  0  0  0  0  0  0  0  0
    0.7660    0.1340    0.3760 C   0  0  0  0  0  0  0  0  0  0  0  0
    1.8240    0.0010   -0.6990 C   0  0  2  0  0  0  0  0  0  0  0  0
    1.3100   -0.8470   -1.6730 O   0  0  0  0  0  0  0  0  0  0  0  0
    3.0900   -0.5570   -0.1610 C   0  0  0  0  0  0  0  0  0  0  0  0
    3.6700   -1.6740   -0.5560 C   0  0  0  0  0  0  0  0  0  0  0  0
    4.9190   -1.9060    0.2100 C   0  0  0  0  0  0  0  0  0  0  0  0
    4.9490   -0.7400    1.1000 C   0  0  0  0  0  0  0  0  0  0  0  0
    3.9020    0.0340    0.8890 C   0  0  0  0  0  0  0  0  0  0  0  0
    3.6400    1.3070    1.6380 C   0  0  0  0  0  0  0  0  0  0  0  0
  1  2  2  0
  2  3  1  0
  3  4  1  0
  4  5  1  0
  5  6  1  0
  6  7  1  0
  7  8  1  0
  8  9  1  0
  9 10  1  6
  9 11  1  0
 11 12  2  0
 11 15  1  0
 12 13  1  0
 13 14  1  0
 14 15  2  0
 15 16  1  0
M  END
