
     RDKit          3D

 16 17  0  0  0  0  0  0  0  0999 V2000
   -3.6840   -1.9640   -0.0250 C   0  0  0  0  0  0  0  0  0  0  0  0
   -2.3010   -1.3990   -0.0250 C   0  0  0  0  0  0  0  0  0  0  0  0
   -1.2050   -2.2260    0.0530 C   0  0  0  0  0  0  0  0  0  0  0  0
    0.0880   -1.6960    0.0530 C   0  0  0  0  0  0  0  0  0  0  0  0
    1.3680   -2.8830    0.2100 Cl  0  0  0  0  0  0  0  0  0  0  0  0
    0.3010   -0.3440   -0.0260 C   0  0  0  0  0  0  0  0  0  0  0  0
    1.6310    0.2400   -0.0670 C   0  0  0  0  0  0  0  0  0  0  0  0
    1.6930    1.9910    0.3310 Cl  0  0  0  0  0  0  0  0  0  0  0  0
    2.7700   -0.3510   -0.2940 C   0  0  0  0  0  0  0  0  0  0  0  0
    4.0440    0.4790   -0.2830 C   0  0  0  0  0  0  0  0  0  0  0  0
    4.9410   -0.0260    0.7410 N   0  0  0  0  0  0  0  0  0  0  0  0
   -0.8460    0.4680   -0.1060 C   0  0  0  0  0  0  0  0  0  0  0  0
   -2.1170   -0.0380   -0.1050 C   0  0  0  0  0  0  0  0  0  0  0  0
   -3.1270    1.0390   -0.1730 C   0  0  0  0  0  0  0  0  0  0  0  0
   -2.3430    2.1780   -0.7520 C   0  0  0  0  0  0  0  0  0  0  0  0
   -0.9420    1.9350   -0.2510 C   0  0  0  0  0  0  0  0  0  0  0  0
  1  2  1  0
  2  3  2  0
  2 13  1  0
  3  4  1  0
  4  5  1  0
  4  6  2  0
  6  7  1  0
  6 12  1  0
  7  8  1  0
  7  9  2  3
  9 10  1  0
 10 11  1  0
 12 13  2  0
 12 16  1  0
 13 14  1  0
 14 15  1  0
 15 16  1  0
M  CHG  1  11   1
M  END
