
     RDKit          3D

 16 15  0  0  0  0  0  0  0  0999 V2000
    3.2420   -1.0740    1.5510 C   0  0  0  0  0  0  0  0  0  0  0  0
    3.8240   -0.0410    1.0010 C   0  0  0  0  0  0  0  0  0  0  0  0
    3.7520    0.4420   -0.3390 C   0  0  0  0  0  0  0  0  0  0  0  0
    4.5090    1.5170   -0.6340 C   0  0  0  0  0  0  0  0  0  0  0  0
    5.3450    2.1210    0.4040 C   0  0  0  0  0  0  0  0  0  0  0  0
    3.0140   -0.1210   -1.4690 C   0  0  0  0  0  0  0  0  0  0  0  0
    1.5470    0.0040   -1.5030 C   0  0  0  0  0  0  0  0  0  0  0  0
    0.6930   -0.5530   -0.4530 C   0  0  0  0  0  0  0  0  0  0  0  0
   -0.7950   -0.2650   -0.8180 C   0  0  0  0  0  0  0  0  0  0  0  0
   -1.5930   -0.8720    0.3140 C   0  0  0  0  0  0  0  0  0  0  0  0
   -3.0690   -0.6940    0.1410 C   0  0  2  0  0  0  0  0  0  0  0  0
   -3.7550   -1.3390    1.3280 C   0  0  0  0  0  0  0  0  0  0  0  0
   -3.4700   -1.4390   -1.1280 C   0  0  0  0  0  0  0  0  0  0  0  0
   -3.4910    0.7330   -0.0320 C   0  0  2  0  0  0  0  0  0  0  0  0
   -3.1270    1.6060    1.1360 C   0  0  0  0  0  0  0  0  0  0  0  0
   -4.8830    0.7550   -0.1470 O   0  0  0  0  0  0  0  0  0  0  0  0
  1  2  2  0
  2  3  1  0
  3  4  2  3
  3  6  1  0
  4  5  1  0
  6  7  1  0
  7  8  1  0
  8  9  1  0
  9 10  1  0
 10 11  1  0
 11 12  1  1
 11 13  1  0
 11 14  1  0
 14 15  1  1
 14 16  1  0
M  END
