
     RDKit          3D

 16 17  0  0  0  0  0  0  0  0999 V2000
    3.6850    1.2860    1.0790 C   0  0  0  0  0  0  0  0  0  0  0  0
    3.4390   -0.1590    1.0180 C   0  0  0  0  0  0  0  0  0  0  0  0
    2.3100   -0.6950    0.5850 C   0  0  0  0  0  0  0  0  0  0  0  0
    2.1210   -2.1340    0.5470 C   0  0  0  0  0  0  0  0  0  0  0  0
    0.9800   -2.6360    0.1080 C   0  0  0  0  0  0  0  0  0  0  0  0
    0.8040   -4.3800    0.0830 Cl  0  0  0  0  0  0  0  0  0  0  0  0
   -0.1110   -1.7480   -0.3460 C   0  0  0  0  0  0  0  0  0  0  0  0
    0.0020   -0.4470   -0.3340 C   0  0  0  0  0  0  0  0  0  0  0  0
   -1.0480    0.4880   -0.7730 C   0  0  1  0  0  0  0  0  0  0  0  0
   -0.5630    1.3710   -1.8970 C   0  0  0  0  0  0  0  0  0  0  0  0
   -1.9180    2.4540   -2.3400 Cl  0  0  0  0  0  0  0  0  0  0  0  0
   -2.3160   -0.1650   -1.2260 C   0  0  0  0  0  0  0  0  0  0  0  0
   -3.1680   -0.3520    0.0130 C   0  0  0  0  0  0  0  0  0  0  0  0
   -2.5370    0.4430    1.1140 C   0  0  0  0  0  0  0  0  0  0  0  0
   -1.4920    1.2690    0.4430 C   0  0  0  0  0  0  0  0  0  0  0  0
    1.2230    0.1110    0.1350 N   0  0  0  0  0  0  0  0  0  0  0  0
  1  2  1  0
  2  3  2  3
  3  4  1  0
  3 16  1  0
  4  5  2  0
  5  6  1  0
  5  7  1  0
  7  8  2  0
  8  9  1  0
  8 16  1  0
  9 10  1  6
  9 12  1  0
  9 15  1  0
 10 11  1  0
 12 13  1  0
 13 14  1  0
 14 15  1  0
M  END
