
     RDKit          3D

 25 26  0  0  0  0  0  0  0  0999 V2000
    2.4010    0.4990   -0.9760 C   0  0  0  0  0  0  0  0  0  0  0  0
    3.1110   -0.8030   -0.8970 C   0  0  0  0  0  0  0  0  0  0  0  0
    2.5910   -2.0540   -1.0040 C   0  0  0  0  0  0  0  0  0  0  0  0
    1.2670   -2.6080   -1.0030 C   0  0  0  0  0  0  0  0  0  0  0  0
    0.1140   -2.3750   -0.5380 C   0  0  0  0  0  0  0  0  0  0  0  0
   -0.5150   -1.3840    0.2930 C   0  0  0  0  0  0  0  0  0  0  0  0
    0.2170   -0.3720    0.9260 N   0  0  0  0  0  0  0  0  0  0  0  0
   -1.8450   -1.4840    0.5370 C   0  0  0  0  0  0  0  0  0  0  0  0
   -2.5500   -2.5440   -0.0280 N   0  0  0  0  0  0  0  0  0  0  0  0
   -2.4600   -0.5260    1.3490 N   0  0  0  0  0  0  0  0  0  0  0  0
   -3.2600    0.5800    0.9480 C   0  0  1  0  0  0  0  0  0  0  0  0
   -2.6100    1.5980    0.0750 C   0  0  2  0  0  0  0  0  0  0  0  0
   -1.9140    2.5400    0.8560 O   0  0  0  0  0  0  0  0  0  0  0  0
   -3.7860    2.3460   -0.5510 C   0  0  0  0  0  0  0  0  0  0  0  0
   -5.0470    1.6480   -0.0580 C   0  0  0  0  0  0  0  0  0  0  0  0
   -4.4820    0.2230    0.1240 C   0  0  1  0  0  0  0  0  0  0  0  0
   -4.1460   -0.2470   -1.2600 C   0  0  0  0  0  0  0  0  0  0  0  0
   -5.4370   -0.6680    0.8470 C   0  0  0  0  0  0  0  0  0  0  0  0
    3.7640   -2.8720   -0.9770 C   0  0  0  0  0  0  0  0  0  0  0  0
    4.8350   -2.0930   -0.8590 N   0  0  0  0  0  0  0  0  0  0  0  0
    4.4810   -0.8380   -0.8060 N   0  0  0  0  0  0  0  0  0  0  0  0
    5.3420    0.3460   -0.6750 C   0  0  0  0  0  0  0  0  0  0  0  0
    5.5550    0.6850    0.7840 C   0  0  0  0  0  0  0  0  0  0  0  0
    6.4570    1.9220    0.7990 C   0  0  0  0  0  0  0  0  0  0  0  0
    6.7340    2.3420    2.0840 O   0  0  0  0  0  0  0  0  0  0  0  0
  1  2  1  0
  2  3  2  0
  2 21  1  0
  3  4  1  0
  3 19  1  0
  4  5  2  3
  5  6  1  0
  6  7  1  0
  6  8  2  3
  8  9  1  0
  8 10  1  0
 11 10  1  6
 11 12  1  0
 11 16  1  0
 12 13  1  1
 12 14  1  0
 14 15  1  0
 15 16  1  0
 16 17  1  6
 16 18  1  0
 19 20  2  0
 20 21  1  0
 21 22  1  0
 22 23  1  0
 23 24  1  0
 24 25  1  0
M  END
