
     RDKit          3D

 15 15  0  0  0  0  0  0  0  0999 V2000
    4.3090   -0.9750    1.0380 C   0  0  0  0  0  0  0  0  0  0  0  0
    4.0650   -0.1900   -0.2180 C   0  0  0  0  0  0  0  0  0  0  0  0
    2.6490   -0.1890   -0.5160 N   0  0  0  0  0  0  0  0  0  0  0  0
    1.7290    0.3590    0.4160 C   0  0  0  0  0  0  0  0  0  0  0  0
    2.2050    0.8260    1.4800 O   0  0  0  0  0  0  0  0  0  0  0  0
    0.2740    0.3850    0.1600 C   0  0  0  0  0  0  0  0  0  0  0  0
   -0.2870   -0.1170   -0.9920 C   0  0  0  0  0  0  0  0  0  0  0  0
   -1.6730   -0.0680   -1.1860 C   0  0  0  0  0  0  0  0  0  0  0  0
   -2.4860    0.4760   -0.2390 C   0  0  0  0  0  0  0  0  0  0  0  0
   -4.2130    0.5470   -0.4580 S   0  0  1  0  0  0  0  0  0  0  0  0
   -4.9340   -0.8560    0.1630 N   0  0  0  0  0  0  0  0  0  0  0  0
   -4.7260    1.8110    0.1430 O   0  0  0  0  0  0  0  0  0  0  0  0
   -4.4750    0.6050   -1.9430 O   0  0  0  0  0  0  0  0  0  0  0  0
   -1.9480    0.9840    0.9230 C   0  0  0  0  0  0  0  0  0  0  0  0
   -0.5770    0.9240    1.0910 C   0  0  0  0  0  0  0  0  0  0  0  0
  1  2  1  0
  2  3  1  0
  3  4  1  0
  4  5  2  0
  4  6  1  0
  6  7  2  0
  6 15  1  0
  7  8  1  0
  8  9  2  0
  9 10  1  0
  9 14  1  0
 10 11  1  1
 10 12  2  0
 10 13  2  0
 14 15  2  0
M  END
