
     RDKit          3D

 25 26  0  0  0  0  0  0  0  0999 V2000
   -4.7150   -2.9460   -1.5740 C   0  0  0  0  0  0  0  0  0  0  0  0
   -4.8250   -1.7110   -0.7750 C   0  0  0  0  0  0  0  0  0  0  0  0
   -3.8770   -0.7930   -0.7240 C   0  0  0  0  0  0  0  0  0  0  0  0
   -4.0390    0.3900    0.0720 C   0  0  0  0  0  0  0  0  0  0  0  0
   -3.1560    1.3530    0.1880 C   0  0  0  0  0  0  0  0  0  0  0  0
   -3.3930    2.5470    1.0280 C   0  0  0  0  0  0  0  0  0  0  0  0
   -4.5870    2.8710    1.8480 C   0  0  0  0  0  0  0  0  0  0  0  0
   -2.3250    3.2840    0.9070 C   0  0  0  0  0  0  0  0  0  0  0  0
   -1.3520    2.6280    0.0030 C   0  0  0  0  0  0  0  0  0  0  0  0
   -1.8270    1.4920   -0.4260 C   0  0  0  0  0  0  0  0  0  0  0  0
   -1.1990    0.5670   -1.3010 N   0  0  0  0  0  0  0  0  0  0  0  0
   -0.2550   -0.4270   -0.9400 C   0  0  2  0  0  0  0  0  0  0  0  0
   -0.5500   -1.2400    0.2650 C   0  0  0  0  0  0  0  0  0  0  0  0
    1.1300    0.1560   -0.8120 C   0  0  0  0  0  0  0  0  0  0  0  0
    1.2600    1.3510   -1.0950 O   0  0  0  0  0  0  0  0  0  0  0  0
    2.2010   -0.6350   -0.3910 N   0  0  0  0  0  0  0  0  0  0  0  0
    3.5260   -0.2520   -0.2240 C   0  0  0  0  0  0  0  0  0  0  0  0
    4.3710   -1.2140    0.1950 C   0  0  0  0  0  0  0  0  0  0  0  0
    3.8630   -2.5450    0.4400 N   0  0  0  0  0  0  0  0  0  0  0  0
    5.8060   -1.0440    0.4400 C   0  0  0  0  0  0  0  0  0  0  0  0
    6.3180    0.3020    0.1900 C   0  0  0  0  0  0  0  0  0  0  0  0
    7.5850    0.5030    0.3890 N   0  0  0  0  0  0  0  0  0  0  0  0
    5.4620    1.3170   -0.2460 N   0  0  0  0  0  0  0  0  0  0  0  0
    4.0530    1.0730   -0.4640 C   0  0  0  0  0  0  0  0  0  0  0  0
    3.3800    2.0510   -0.8540 O   0  0  0  0  0  0  0  0  0  0  0  0
  1  2  1  0
  2  3  2  3
  3  4  1  0
  4  5  2  3
  5  6  1  0
  5 10  1  0
  6  7  1  0
  6  8  2  0
  8  9  1  0
  9 10  2  0
 10 11  1  0
 11 12  1  0
 12 13  1  1
 12 14  1  0
 14 15  2  0
 14 16  1  0
 16 17  1  0
 17 18  2  0
 17 24  1  0
 18 19  1  0
 18 20  1  0
 20 21  1  0
 21 22  2  0
 21 23  1  0
 23 24  1  0
 24 25  2  0
M  END
