
     RDKit          3D

 12 12  0  0  0  0  0  0  0  0999 V2000
    4.0790   -0.2810   -0.9420 O   0  0  0  0  0  0  0  0  0  0  0  0
    2.8860   -0.4120   -0.2400 C   0  0  0  0  0  0  0  0  0  0  0  0
    2.1140    0.8620   -0.4040 C   0  0  0  0  0  0  0  0  0  0  0  0
    0.8440    0.8370    0.2920 N   0  0  0  0  0  0  0  0  0  0  0  0
   -0.0300   -0.2040   -0.1550 C   0  0  1  0  0  0  0  0  0  0  0  0
   -0.1740   -1.2540    0.9290 C   0  0  0  0  0  0  0  0  0  0  0  0
   -1.0230   -0.7370    1.8680 O   0  0  0  0  0  0  0  0  0  0  0  0
   -1.7590    0.2770    1.3280 C   0  0  0  0  0  0  0  0  0  0  0  0
   -1.4430    0.3490   -0.1550 C   0  0  1  0  0  0  0  0  0  0  0  0
   -1.4700    1.6310   -0.6420 O   0  0  0  0  0  0  0  0  0  0  0  0
   -2.3810   -0.5780   -0.9150 C   0  0  0  0  0  0  0  0  0  0  0  0
   -3.6810   -0.0980   -0.8040 O   0  0  0  0  0  0  0  0  0  0  0  0
  1  2  1  0
  2  3  1  0
  3  4  1  0
  5  4  1  1
  5  6  1  0
  5  9  1  0
  6  7  1  0
  7  8  1  0
  8  9  1  0
  9 10  1  6
  9 11  1  0
 11 12  1  0
M  CHG  1   4   1
M  END
