
     RDKit          3D

 12 12  0  0  0  0  0  0  0  0999 V2000
    2.8840    0.2070   -0.1290 N   0  0  0  0  0  0  0  0  0  0  0  0
    1.9550    0.4290    0.9320 C   0  0  0  0  0  0  0  0  0  0  0  0
    0.6960   -0.3640    0.9250 C   0  0  1  0  0  0  0  0  0  0  0  0
   -0.0250    0.0100    2.1120 O   0  0  0  0  0  0  0  0  0  0  0  0
   -0.2090   -0.1750   -0.2440 C   0  0  1  0  0  0  0  0  0  0  0  0
    0.3100   -0.6920   -1.5510 C   0  0  0  0  0  0  0  0  0  0  0  0
    0.6820   -2.0220   -1.5030 O   0  0  0  0  0  0  0  0  0  0  0  0
   -1.5330   -0.9290   -0.0290 C   0  0  0  0  0  0  0  0  0  0  0  0
   -2.5120   -0.4640   -0.8980 O   0  0  0  0  0  0  0  0  0  0  0  0
   -2.8170    0.8650   -0.7140 C   0  0  0  0  0  0  0  0  0  0  0  0
   -1.7660    1.4150    0.2400 C   0  0  0  0  0  0  0  0  0  0  0  0
   -0.5320    1.1670   -0.3310 O   0  0  0  0  0  0  0  0  0  0  0  0
  1  2  1  0
  2  3  1  0
  3  4  1  1
  3  5  1  0
  5  6  1  6
  5  8  1  0
  5 12  1  0
  6  7  1  0
  8  9  1  0
  9 10  1  0
 10 11  1  0
 11 12  1  0
M  CHG  1   1   1
M  END
