
     RDKit          3D

 12 12  0  0  0  0  0  0  0  0999 V2000
    0.5880   -0.8530   -1.0230 N   0  0  0  0  0  0  0  0  0  0  0  0
    0.3570    0.4130   -0.4000 C   0  0  2  0  0  0  0  0  0  0  0  0
    1.4900    0.7500    0.5290 C   0  0  1  0  0  0  0  0  0  0  0  0
    1.6890   -0.1550    1.5440 O   0  0  0  0  0  0  0  0  0  0  0  0
    2.7970    0.9030   -0.2300 C   0  0  0  0  0  0  0  0  0  0  0  0
    3.2210   -0.2880   -0.7720 O   0  0  0  0  0  0  0  0  0  0  0  0
   -0.9620    0.5460    0.2990 C   0  0  1  0  0  0  0  0  0  0  0  0
   -2.1350    0.3590   -0.6170 C   0  0  0  0  0  0  0  0  0  0  0  0
   -2.9370   -0.8290   -0.1960 C   0  0  0  0  0  0  0  0  0  0  0  0
   -3.3050   -0.8180    1.1400 O   0  0  0  0  0  0  0  0  0  0  0  0
   -2.4830   -0.1820    1.9060 O   0  0  0  0  0  0  0  0  0  0  0  0
   -1.1350   -0.3280    1.4980 C   0  0  0  0  0  0  0  0  0  0  0  0
  2  1  1  1
  2  3  1  0
  2  7  1  0
  3  4  1  1
  3  5  1  0
  5  6  1  0
  7  8  1  6
  7 12  1  0
  8  9  1  0
  9 10  1  0
 10 11  1  0
 11 12  1  0
M  CHG  1   1   1
M  END
