
     RDKit          3D

 18 19  0  0  0  0  0  0  0  0999 V2000
   -2.7900   -1.2930   -1.5850 N   0  0  0  0  0  0  0  0  0  0  0  0
   -3.3520   -0.5810   -0.5110 C   0  0  0  0  0  0  0  0  0  0  0  0
   -4.7200   -0.5100   -0.2880 C   0  0  0  0  0  0  0  0  0  0  0  0
   -5.2560    0.2160    0.7680 C   0  0  0  0  0  0  0  0  0  0  0  0
   -4.3560    0.8660    1.5860 C   0  0  0  0  0  0  0  0  0  0  0  0
   -5.0240    1.7870    2.9330 Cl  0  0  0  0  0  0  0  0  0  0  0  0
   -2.9930    0.8190    1.3960 C   0  0  0  0  0  0  0  0  0  0  0  0
   -2.4710    0.0790    0.3250 C   0  0  0  0  0  0  0  0  0  0  0  0
   -1.0280   -0.0120    0.1550 C   0  0  0  0  0  0  0  0  0  0  0  0
   -0.3010    1.1040    0.1150 C   0  0  0  0  0  0  0  0  0  0  0  0
   -1.0780    2.6830    0.2620 Cl  0  0  0  0  0  0  0  0  0  0  0  0
    1.1740    1.0980   -0.0300 C   0  0  0  0  0  0  0  0  0  0  0  0
    1.6870   -0.3150   -0.0160 C   0  0  0  0  0  0  0  0  0  0  0  0
    3.1870   -0.2870   -0.1780 C   0  0  0  0  0  0  0  0  0  0  0  0
    4.0830   -0.7240    0.6830 C   0  0  0  0  0  0  0  0  0  0  0  0
    5.4510   -0.5190    0.1540 C   0  0  0  0  0  0  0  0  0  0  0  0
    5.2170    0.1090   -1.1730 C   0  0  0  0  0  0  0  0  0  0  0  0
    3.9160    0.2240   -1.3260 C   0  0  0  0  0  0  0  0  0  0  0  0
  1  2  1  0
  2  3  2  0
  2  8  1  0
  3  4  1  0
  4  5  2  0
  5  6  1  0
  5  7  1  0
  7  8  2  0
  8  9  1  0
  9 10  2  3
 10 11  1  0
 10 12  1  0
 12 13  1  0
 13 14  1  0
 14 15  2  0
 14 18  1  0
 15 16  1  0
 16 17  1  0
 17 18  2  0
M  CHG  1   1   1
M  END
