
     RDKit          3D

 21 20  0  0  0  0  0  0  0  0999 V2000
   -4.8460    1.2000    1.4360 C   0  0  0  0  0  0  0  0  0  0  0  0
   -3.5870    0.7620    0.8610 C   0  0  0  0  0  0  0  0  0  0  0  0
   -2.4680    1.4740    1.0820 F   0  0  0  0  0  0  0  0  0  0  0  0
   -3.4910   -0.3090    0.0610 C   0  0  0  0  0  0  0  0  0  0  0  0
   -1.9530   -0.8170   -0.6190 S   0  0  0  0  0  0  0  0  0  0  0  0
   -0.5640    0.2160   -0.1530 C   0  0  0  0  0  0  0  0  0  0  0  0
    0.6940   -0.4800   -0.4450 C   0  0  0  0  0  0  0  0  0  0  0  0
    1.0500   -1.4950   -0.8250 O   0  0  0  0  0  0  0  0  0  0  0  0
    1.9820    0.6460   -0.0580 N   0  0  0  0  0  0  0  0  0  0  0  0
    3.0470   -0.2890   -0.1950 C   0  0  0  0  0  0  0  0  0  0  0  0
    3.0870   -1.4700   -0.2360 O   0  0  0  0  0  0  0  0  0  0  0  0
    4.2920    0.5050   -0.2990 N   0  0  0  0  0  0  0  0  0  0  0  0
    5.5130   -0.2060   -0.4400 C   0  0  0  0  0  0  0  0  0  0  0  0
    6.6140    0.8750   -0.4890 C   0  0  1  0  0  0  0  0  0  0  0  0
    7.8330    0.2870   -0.6200 F   0  0  0  0  0  0  0  0  0  0  0  0
    6.2740    1.7280   -1.5080 F   0  0  0  0  0  0  0  0  0  0  0  0
    6.5510    1.5320    0.7530 F   0  0  0  0  0  0  0  0  0  0  0  0
   -4.6450   -1.1630   -0.2050 C   0  0  0  0  0  0  0  0  0  0  0  0
   -5.8450   -0.9070    0.4320 O   0  0  0  0  0  0  0  0  0  0  0  0
   -4.5460   -2.1640   -1.0220 C   0  0  0  0  0  0  0  0  0  0  0  0
   -3.3920   -2.4320   -1.6460 F   0  0  0  0  0  0  0  0  0  0  0  0
  1  2  1  0
  2  3  1  0
  2  4  2  3
  4  5  1  0
  4 18  1  0
  5  6  1  0
  6  7  1  0
  7  8  2  0
  7  9  1  0
  9 10  1  0
 10 11  2  0
 10 12  1  0
 12 13  1  0
 13 14  1  0
 14 15  1  6
 14 16  1  0
 14 17  1  0
 18 19  1  0
 18 20  2  3
 20 21  1  0
M  END
