
     RDKit          3D

 21 20  0  0  0  0  0  0  0  0999 V2000
    5.0500    1.2610   -0.5880 C   0  0  0  0  0  0  0  0  0  0  0  0
    4.8290    1.0990    0.7510 O   0  0  0  0  0  0  0  0  0  0  0  0
    4.5630   -0.1720    1.1820 C   0  0  0  0  0  0  0  0  0  0  0  0
    3.2860   -0.7390    0.7220 C   0  0  0  0  0  0  0  0  0  0  0  0
    3.1470   -2.0000    0.9190 O   0  0  0  0  0  0  0  0  0  0  0  0
    2.2250   -0.0350    0.1010 N   0  0  0  0  0  0  0  0  0  0  0  0
    1.0470   -0.7190   -0.3010 N   0  0  0  0  0  0  0  0  0  0  0  0
   -0.2060   -0.0040   -0.1600 C   0  0  0  0  0  0  0  0  0  0  0  0
   -0.0890    1.1480    0.3080 O   0  0  0  0  0  0  0  0  0  0  0  0
   -1.4500   -0.6450   -0.5540 C   0  0  0  0  0  0  0  0  0  0  0  0
   -2.6570   -0.1880   -0.5060 C   0  0  0  0  0  0  0  0  0  0  0  0
   -3.2180    1.0540   -0.0720 C   0  0  0  0  0  0  0  0  0  0  0  0
   -2.3190    2.4410    0.5820 S   0  0  0  0  0  0  0  0  0  0  0  0
   -4.5600    1.2590   -0.1400 C   0  0  0  0  0  0  0  0  0  0  0  0
   -5.4140    0.1800   -0.6670 C   0  0  2  0  0  0  0  0  0  0  0  0
   -6.7100    0.6400   -0.8460 F   0  0  0  0  0  0  0  0  0  0  0  0
   -5.4210   -0.8960    0.1940 F   0  0  0  0  0  0  0  0  0  0  0  0
   -1.2690   -2.0730   -1.1120 C   0  0  1  0  0  0  0  0  0  0  0  0
   -0.5050   -2.0250   -2.2570 F   0  0  0  0  0  0  0  0  0  0  0  0
   -0.7790   -2.8990   -0.1440 F   0  0  0  0  0  0  0  0  0  0  0  0
   -2.5110   -2.5370   -1.4740 F   0  0  0  0  0  0  0  0  0  0  0  0
  1  2  1  0
  2  3  1  0
  3  4  1  0
  4  5  2  0
  4  6  1  0
  6  7  1  0
  7  8  1  0
  8  9  2  0
  8 10  1  0
 10 11  2  3
 10 18  1  0
 11 12  1  0
 12 13  1  0
 12 14  2  3
 14 15  1  0
 15 16  1  1
 15 17  1  0
 18 19  1  6
 18 20  1  0
 18 21  1  0
M  END
