
     RDKit          3D

 21 21  0  0  0  0  0  0  0  0999 V2000
    5.5850    0.7210    1.0210 N   0  0  0  0  0  0  0  0  0  0  0  0
    5.0100   -0.4700   -0.0980 S   0  0  2  0  0  0  0  0  0  0  0  0
    5.4510   -1.8330    0.3410 O   0  0  0  0  0  0  0  0  0  0  0  0
    5.6850   -0.1920   -1.4150 O   0  0  0  0  0  0  0  0  0  0  0  0
    3.2680   -0.3650   -0.2260 C   0  0  0  0  0  0  0  0  0  0  0  0
    2.6660    0.4520   -1.1610 C   0  0  0  0  0  0  0  0  0  0  0  0
    1.2950    0.5470   -1.2760 C   0  0  0  0  0  0  0  0  0  0  0  0
    0.4360   -0.1750   -0.4570 C   0  0  0  0  0  0  0  0  0  0  0  0
   -1.0200   -0.0420   -0.6160 C   0  0  0  0  0  0  0  0  0  0  0  0
   -1.4450    0.7480   -1.5100 O   0  0  0  0  0  0  0  0  0  0  0  0
   -1.9780   -0.7280    0.1520 N   0  0  0  0  0  0  0  0  0  0  0  0
   -3.4110   -0.6220    0.0320 C   0  0  0  0  0  0  0  0  0  0  0  0
   -3.9900    0.7230    0.2850 C   0  0  2  0  0  0  0  0  0  0  0  0
   -3.5570    1.7260   -0.5450 F   0  0  0  0  0  0  0  0  0  0  0  0
   -3.8120    1.0830    1.6310 F   0  0  0  0  0  0  0  0  0  0  0  0
   -5.5170    0.6930    0.1150 C   0  0  1  0  0  0  0  0  0  0  0  0
   -6.0910   -0.1960    0.9970 F   0  0  0  0  0  0  0  0  0  0  0  0
   -6.0330    1.9600    0.3120 F   0  0  0  0  0  0  0  0  0  0  0  0
   -5.8510    0.3220   -1.1780 F   0  0  0  0  0  0  0  0  0  0  0  0
    1.0340   -0.9890    0.4740 C   0  0  0  0  0  0  0  0  0  0  0  0
    2.4240   -1.0860    0.5910 C   0  0  0  0  0  0  0  0  0  0  0  0
  2  1  1  1
  2  3  2  0
  2  4  2  0
  2  5  1  0
  5  6  2  0
  5 21  1  0
  6  7  1  0
  7  8  2  0
  8  9  1  0
  8 20  1  0
  9 10  2  0
  9 11  1  0
 11 12  1  0
 12 13  1  0
 13 14  1  6
 13 15  1  0
 13 16  1  0
 16 17  1  1
 16 18  1  0
 16 19  1  0
 20 21  2  0
M  END
