
     RDKit          3D

 21 21  0  0  0  0  0  0  0  0999 V2000
   -2.7000   -2.7080   -0.1310 C   0  0  0  0  0  0  0  0  0  0  0  0
   -1.8270   -1.6330    0.0820 O   0  0  0  0  0  0  0  0  0  0  0  0
   -0.6060   -1.4770   -0.5110 C   0  0  0  0  0  0  0  0  0  0  0  0
   -0.2530   -2.3750   -1.3060 O   0  0  0  0  0  0  0  0  0  0  0  0
    0.2790   -0.2940   -0.2110 C   0  0  0  0  0  0  0  0  0  0  0  0
   -0.1750    0.6800    0.5890 C   0  0  0  0  0  0  0  0  0  0  0  0
   -1.4220    1.2110    0.9990 N   0  0  0  0  0  0  0  0  0  0  0  0
   -2.6730    1.1890    0.3880 C   0  0  0  0  0  0  0  0  0  0  0  0
   -2.8190    0.6680   -0.7350 O   0  0  0  0  0  0  0  0  0  0  0  0
   -3.8940    1.7740    1.0250 C   0  0  2  0  0  0  0  0  0  0  0  0
   -4.1670    1.1670    2.2330 F   0  0  0  0  0  0  0  0  0  0  0  0
   -4.9610    1.5440    0.1970 F   0  0  0  0  0  0  0  0  0  0  0  0
   -3.7080    3.1320    1.1460 F   0  0  0  0  0  0  0  0  0  0  0  0
    1.3310    1.7050    0.9410 S   0  0  0  0  0  0  0  0  0  0  0  0
    2.4070    0.6710   -0.0720 C   0  0  0  0  0  0  0  0  0  0  0  0
    3.8560    0.9310   -0.2600 C   0  0  0  0  0  0  0  0  0  0  0  0
    4.1890    2.1180    0.5000 N   0  0  0  0  0  0  0  0  0  0  0  0
    1.6050   -0.2930   -0.5530 C   0  0  0  0  0  0  0  0  0  0  0  0
    2.2230   -1.3590   -1.4640 C   0  0  2  0  0  0  0  0  0  0  0  0
    1.6300   -1.3750   -2.6980 F   0  0  0  0  0  0  0  0  0  0  0  0
    2.1940   -2.5960   -0.8630 F   0  0  0  0  0  0  0  0  0  0  0  0
  1  2  1  0
  2  3  1  0
  3  4  2  0
  3  5  1  0
  5  6  2  0
  5 18  1  0
  6  7  1  0
  6 14  1  0
  7  8  1  0
  8  9  2  0
  8 10  1  0
 10 11  1  1
 10 12  1  0
 10 13  1  0
 14 15  1  0
 15 16  1  0
 15 18  2  0
 16 17  1  0
 18 19  1  0
 19 20  1  6
 19 21  1  0
M  END
