
     RDKit          3D

 20 20  0  0  0  0  0  0  0  0999 V2000
    2.9230   -1.1480    0.9320 O   0  0  0  0  0  0  0  0  0  0  0  0
    2.5470   -0.5110   -0.0770 C   0  0  0  0  0  0  0  0  0  0  0  0
    3.5220   -0.0930   -1.0130 N   0  0  0  0  0  0  0  0  0  0  0  0
    4.9380   -0.3520   -0.8840 C   0  0  0  0  0  0  0  0  0  0  0  0
    5.5140    0.2630    0.3650 C   0  0  0  0  0  0  0  0  0  0  0  0
    5.3540    1.6280    0.3900 F   0  0  0  0  0  0  0  0  0  0  0  0
    1.1030   -0.2100   -0.2700 C   0  0  0  0  0  0  0  0  0  0  0  0
    0.8100    0.4180   -1.2810 O   0  0  0  0  0  0  0  0  0  0  0  0
    0.1440   -0.6140    0.6400 N   0  0  0  0  0  0  0  0  0  0  0  0
   -1.2580   -0.4940    0.7440 C   0  0  0  0  0  0  0  0  0  0  0  0
   -2.0320   -1.2110    2.2340 S   0  0  0  0  0  0  0  0  0  0  0  0
   -3.6960   -0.7890    1.8350 C   0  0  0  0  0  0  0  0  0  0  0  0
   -3.5650   -0.1430    0.6190 C   0  0  0  0  0  0  0  0  0  0  0  0
   -4.8570    0.3760   -0.0020 C   0  0  0  0  0  0  0  0  0  0  0  0
   -5.9320    0.0550    0.7890 O   0  0  0  0  0  0  0  0  0  0  0  0
   -2.3360   -0.0020    0.0840 C   0  0  0  0  0  0  0  0  0  0  0  0
   -2.1370    0.6880   -1.2600 C   0  0  2  0  0  0  0  0  0  0  0  0
   -3.3770    1.0940   -1.7650 F   0  0  0  0  0  0  0  0  0  0  0  0
   -1.6470   -0.1620   -2.1920 F   0  0  0  0  0  0  0  0  0  0  0  0
   -1.4480    1.8670   -1.1020 F   0  0  0  0  0  0  0  0  0  0  0  0
  1  2  2  0
  2  3  1  0
  2  7  1  0
  3  4  1  0
  4  5  1  0
  5  6  1  0
  7  8  2  0
  7  9  1  0
  9 10  1  0
 10 11  1  0
 10 16  2  0
 11 12  1  0
 12 13  2  0
 13 14  1  0
 13 16  1  0
 14 15  1  0
 16 17  1  0
 17 18  1  6
 17 19  1  0
 17 20  1  0
M  END
