
     RDKit          3D

 21 22  0  0  0  0  0  0  0  0999 V2000
   -2.3410   -1.7600   -0.3690 C   0  0  0  0  0  0  0  0  0  0  0  0
   -3.0350   -0.4080   -0.4350 C   0  0  0  0  0  0  0  0  0  0  0  0
   -2.2670    0.6260   -0.3120 C   0  0  0  0  0  0  0  0  0  0  0  0
   -0.8530    0.4150   -0.1260 N   0  0  0  0  0  0  0  0  0  0  0  0
   -0.4130    0.2010    1.2070 C   0  0  0  0  0  0  0  0  0  0  0  0
    1.0340   -0.0140    1.4010 C   0  0  0  0  0  0  0  0  0  0  0  0
    1.4280   -0.2070    2.6070 O   0  0  0  0  0  0  0  0  0  0  0  0
    2.0240   -0.0310    0.4050 N   0  0  0  0  0  0  0  0  0  0  0  0
    3.4100   -0.2380    0.5410 C   0  0  0  0  0  0  0  0  0  0  0  0
    4.2220    0.0890   -0.5700 C   0  0  0  0  0  0  0  0  0  0  0  0
    5.5810   -0.1070   -0.4980 C   0  0  0  0  0  0  0  0  0  0  0  0
    6.1970   -0.6150    0.6230 C   0  0  0  0  0  0  0  0  0  0  0  0
    7.5450   -0.8130    0.7040 F   0  0  0  0  0  0  0  0  0  0  0  0
    5.3980   -0.9280    1.6930 C   0  0  0  0  0  0  0  0  0  0  0  0
    4.0030   -0.7420    1.6590 C   0  0  0  0  0  0  0  0  0  0  0  0
   -2.6890    2.0070   -0.3430 C   0  0  0  0  0  0  0  0  0  0  0  0
   -3.9480    2.3110   -0.5080 C   0  0  0  0  0  0  0  0  0  0  0  0
   -5.1870    1.1210   -0.6980 S   0  0  2  0  0  0  0  0  0  0  0  0
   -5.7880    1.2820   -2.0910 O   0  0  0  0  0  0  0  0  0  0  0  0
   -6.2820    1.2990    0.3280 O   0  0  0  0  0  0  0  0  0  0  0  0
   -4.4820   -0.4870   -0.6290 C   0  0  0  0  0  0  0  0  0  0  0  0
  1  2  1  0
  2  3  2  0
  2 21  1  0
  3  4  1  0
  3 16  1  0
  4  5  1  0
  5  6  1  0
  6  7  2  0
  6  8  1  0
  8  9  1  0
  9 10  2  0
  9 15  1  0
 10 11  1  0
 11 12  2  0
 12 13  1  0
 12 14  1  0
 14 15  2  0
 16 17  2  0
 17 18  1  0
 18 19  2  0
 18 20  2  0
 18 21  1  6
M  END
