
     RDKit          3D

 21 22  0  0  0  0  0  0  0  0999 V2000
    5.7090    1.8850    0.0970 C   0  0  0  0  0  0  0  0  0  0  0  0
    4.9570    0.6800   -0.1160 O   0  0  0  0  0  0  0  0  0  0  0  0
    5.4460   -0.5720    0.2120 C   0  0  0  0  0  0  0  0  0  0  0  0
    6.6090   -0.6320    0.7190 O   0  0  0  0  0  0  0  0  0  0  0  0
    4.6670   -1.8260   -0.0050 C   0  0  0  0  0  0  0  0  0  0  0  0
    3.2360   -1.4580   -0.1030 C   0  0  0  0  0  0  0  0  0  0  0  0
    2.4960   -1.0590   -1.1580 C   0  0  0  0  0  0  0  0  0  0  0  0
    1.1930   -0.7860   -0.9590 C   0  0  0  0  0  0  0  0  0  0  0  0
    0.6640   -0.9140    0.2680 C   0  0  0  0  0  0  0  0  0  0  0  0
   -0.6800   -0.7000    0.7830 C   0  0  0  0  0  0  0  0  0  0  0  0
   -0.9570   -0.8930    1.9780 O   0  0  0  0  0  0  0  0  0  0  0  0
   -1.6560   -0.2580   -0.1460 N   0  0  0  0  0  0  0  0  0  0  0  0
   -3.0040    0.0040    0.1320 C   0  0  0  0  0  0  0  0  0  0  0  0
   -3.7800    0.7080   -0.7900 C   0  0  0  0  0  0  0  0  0  0  0  0
   -5.1060    0.9940   -0.6200 C   0  0  0  0  0  0  0  0  0  0  0  0
   -5.8290    1.7190   -1.6080 N   0  0  0  0  0  0  0  0  0  0  0  0
   -5.7380    0.5700    0.5280 C   0  0  0  0  0  0  0  0  0  0  0  0
   -5.0090   -0.1300    1.4680 C   0  0  0  0  0  0  0  0  0  0  0  0
   -5.6690   -0.5360    2.5880 F   0  0  0  0  0  0  0  0  0  0  0  0
   -3.6460   -0.4110    1.2690 C   0  0  0  0  0  0  0  0  0  0  0  0
    2.0610   -1.4580    1.2590 S   0  0  0  0  0  0  0  0  0  0  0  0
  1  2  1  0
  2  3  1  0
  3  4  2  0
  3  5  1  0
  5  6  1  0
  6  7  2  0
  6 21  1  0
  7  8  1  0
  8  9  2  0
  9 10  1  0
  9 21  1  0
 10 11  2  0
 10 12  1  0
 12 13  1  0
 13 14  2  0
 13 20  1  0
 14 15  1  0
 15 16  1  0
 15 17  2  0
 17 18  1  0
 18 19  1  0
 18 20  2  0
M  END
