
     RDKit          3D

 20 21  0  0  0  0  0  0  0  0999 V2000
   -4.6740    1.3050    1.6550 C   0  0  0  0  0  0  0  0  0  0  0  0
   -4.0550   -0.0820    1.5710 C   0  0  0  0  0  0  0  0  0  0  0  0
   -3.2040   -0.1810    0.3470 C   0  0  0  0  0  0  0  0  0  0  0  0
   -1.8340   -0.1330    0.4040 C   0  0  0  0  0  0  0  0  0  0  0  0
   -1.0440   -0.2260   -0.7570 C   0  0  0  0  0  0  0  0  0  0  0  0
    0.3570   -0.1750   -0.5750 N   0  0  0  0  0  0  0  0  0  0  0  0
    1.3440   -0.0290   -1.5570 C   0  0  0  0  0  0  0  0  0  0  0  0
    1.0280    0.0780   -2.7480 O   0  0  0  0  0  0  0  0  0  0  0  0
    2.7820   -0.0050   -1.1500 C   0  0  0  0  0  0  0  0  0  0  0  0
    2.9660   -0.1800    0.6370 S   0  0  0  0  0  0  0  0  0  0  0  0
    4.6900   -0.1430    1.0460 C   0  0  0  0  0  0  0  0  0  0  0  0
    5.2170   -0.2430    2.2570 C   0  0  0  0  0  0  0  0  0  0  0  0
    6.6600   -0.1690    2.1840 C   0  0  0  0  0  0  0  0  0  0  0  0
    7.4480   -0.2320    3.1460 O   0  0  0  0  0  0  0  0  0  0  0  0
    6.9960   -0.0170    0.8520 O   0  0  0  0  0  0  0  0  0  0  0  0
    5.8040    0.0060    0.0850 C   0  0  0  0  0  0  0  0  0  0  0  0
   -1.6510   -0.3680   -1.9660 C   0  0  0  0  0  0  0  0  0  0  0  0
   -3.0510   -0.4200   -2.0520 C   0  0  0  0  0  0  0  0  0  0  0  0
   -3.7820   -0.3250   -0.8930 C   0  0  0  0  0  0  0  0  0  0  0  0
   -5.2050   -0.3760   -0.9650 N   0  0  0  0  0  0  0  0  0  0  0  0
  1  2  1  0
  2  3  1  0
  3  4  2  0
  3 19  1  0
  4  5  1  0
  5  6  1  0
  5 17  2  0
  6  7  1  0
  7  8  2  0
  7  9  1  0
  9 10  1  0
 10 11  1  0
 11 12  2  0
 11 16  1  0
 12 13  1  0
 13 14  2  0
 13 15  1  0
 15 16  1  0
 17 18  1  0
 18 19  2  0
 19 20  1  0
M  END
