
     RDKit          3D

 16 16  0  0  0  0  0  0  0  0999 V2000
    5.3840    0.3030    0.4830 C   0  0  0  0  0  0  0  0  0  0  0  0
    3.8570    0.2420    0.5710 C   0  0  0  0  0  0  0  0  0  0  0  0
    3.3450   -0.8570   -0.3070 C   0  0  0  0  0  0  0  0  0  0  0  0
    1.9040   -0.9140   -0.2160 N   0  0  0  0  0  0  0  0  0  0  0  0
    1.0830    0.1550   -0.6030 C   0  0  0  0  0  0  0  0  0  0  0  0
    1.6160    1.2000   -1.0490 O   0  0  0  0  0  0  0  0  0  0  0  0
   -0.3600    0.1010   -0.5070 C   0  0  0  0  0  0  0  0  0  0  0  0
   -1.1370    1.1880   -0.9040 C   0  0  0  0  0  0  0  0  0  0  0  0
   -2.5120    1.1780   -0.8280 C   0  0  0  0  0  0  0  0  0  0  0  0
   -3.1800    0.0730   -0.3500 C   0  0  0  0  0  0  0  0  0  0  0  0
   -4.9310    0.0290   -0.2420 S   0  0  1  0  0  0  0  0  0  0  0  0
   -5.3870    0.6200    1.2960 N   0  0  0  0  0  0  0  0  0  0  0  0
   -5.5250    0.8860   -1.3010 O   0  0  0  0  0  0  0  0  0  0  0  0
   -5.3930   -1.3920   -0.4450 O   0  0  0  0  0  0  0  0  0  0  0  0
   -2.4320   -1.0110    0.0480 C   0  0  0  0  0  0  0  0  0  0  0  0
   -1.0610   -0.9790   -0.0360 C   0  0  0  0  0  0  0  0  0  0  0  0
  1  2  1  0
  2  3  1  0
  3  4  1  0
  4  5  1  0
  5  6  2  0
  5  7  1  0
  7  8  2  0
  7 16  1  0
  8  9  1  0
  9 10  2  0
 10 11  1  0
 10 15  1  0
 11 12  1  1
 11 13  2  0
 11 14  2  0
 15 16  2  0
M  END
