
     RDKit          3D

 21 22  0  0  0  0  0  0  0  0999 V2000
   -2.0530    1.9670   -1.3000 C   0  0  0  0  0  0  0  0  0  0  0  0
   -2.3700    1.5240    0.1280 C   0  0  0  0  0  0  0  0  0  0  0  0
   -3.6210    1.8430    0.6590 C   0  0  0  0  0  0  0  0  0  0  0  0
   -3.5880    1.1300    2.2710 S   0  0  0  0  0  0  0  0  0  0  0  0
   -1.9450    0.4550    2.1660 C   0  0  0  0  0  0  0  0  0  0  0  0
   -1.5190    0.8260    0.8780 C   0  0  0  0  0  0  0  0  0  0  0  0
   -0.1080    0.4680    0.4480 C   0  0  0  0  0  0  0  0  0  0  0  0
    0.7960    1.4570    0.1690 C   0  0  0  0  0  0  0  0  0  0  0  0
    2.1120    1.1700   -0.1560 C   0  0  0  0  0  0  0  0  0  0  0  0
    3.0160    2.2190   -0.4480 N   0  0  0  0  0  0  0  0  0  0  0  0
    2.5630   -0.1530   -0.2110 C   0  0  0  0  0  0  0  0  0  0  0  0
    3.9230   -0.3630   -0.5470 N   0  0  0  0  0  0  0  0  0  0  0  0
    4.5630   -1.5940   -0.6990 C   0  0  0  0  0  0  0  0  0  0  0  0
    3.9250   -2.6620   -0.5380 O   0  0  0  0  0  0  0  0  0  0  0  0
    1.6410   -1.1130    0.0710 C   0  0  0  0  0  0  0  0  0  0  0  0
    0.3080   -0.8330    0.4000 C   0  0  0  0  0  0  0  0  0  0  0  0
   -0.6180   -1.9490    0.6120 C   0  0  0  0  0  0  0  0  0  0  0  0
   -0.1810   -3.1350    0.6090 O   0  0  0  0  0  0  0  0  0  0  0  0
   -1.9680   -1.8010    0.8150 O   0  0  0  0  0  0  0  0  0  0  0  0
   -2.9100   -2.8110    1.0130 C   0  0  0  0  0  0  0  0  0  0  0  0
   -2.6720   -3.5960    2.1240 F   0  0  0  0  0  0  0  0  0  0  0  0
  1  2  1  0
  2  3  2  0
  2  6  1  0
  3  4  1  0
  4  5  1  0
  5  6  2  0
  6  7  1  0
  7  8  2  0
  7 16  1  0
  8  9  1  0
  9 10  1  0
  9 11  2  0
 11 12  1  0
 11 15  1  0
 12 13  1  0
 13 14  2  0
 15 16  2  0
 16 17  1  0
 17 18  2  0
 17 19  1  0
 19 20  1  0
 20 21  1  0
M  END
