
     RDKit          3D

 20 21  0  0  0  0  0  0  0  0999 V2000
   -4.8440    2.1800   -0.1730 C   0  0  0  0  0  0  0  0  0  0  0  0
   -5.7670    0.9950   -0.2950 C   0  0  0  0  0  0  0  0  0  0  0  0
   -5.0280   -0.0860   -0.7880 O   0  0  0  0  0  0  0  0  0  0  0  0
   -3.9100   -0.5520   -0.0350 C   0  0  0  0  0  0  0  0  0  0  0  0
   -3.7170    0.0900    1.0200 O   0  0  0  0  0  0  0  0  0  0  0  0
   -3.1300   -1.6540   -0.5050 C   0  0  0  0  0  0  0  0  0  0  0  0
   -2.1070   -2.1960    0.0460 C   0  0  0  0  0  0  0  0  0  0  0  0
   -1.4830   -3.3200   -0.6470 N   0  0  0  0  0  0  0  0  0  0  0  0
   -1.5280   -1.7760    1.3290 C   0  0  0  0  0  0  0  0  0  0  0  0
   -0.1480   -1.3270    1.1760 N   0  0  0  0  0  0  0  0  0  0  0  0
    0.1930   -0.2340    0.3350 C   0  0  0  0  0  0  0  0  0  0  0  0
   -0.7110    0.3680   -0.2960 O   0  0  0  0  0  0  0  0  0  0  0  0
    1.5560    0.1750    0.2110 C   0  0  0  0  0  0  0  0  0  0  0  0
    2.7320   -0.2020    0.7000 C   0  0  0  0  0  0  0  0  0  0  0  0
    3.8610    0.4590    0.3350 C   0  0  0  0  0  0  0  0  0  0  0  0
    3.7600    1.4790   -0.5140 C   0  0  0  0  0  0  0  0  0  0  0  0
    2.0640    1.6030   -0.8770 S   0  0  0  0  0  0  0  0  0  0  0  0
    5.0830    2.1210   -0.8370 C   0  0  0  0  0  0  0  0  0  0  0  0
    5.9980    0.9430   -0.5750 C   0  0  0  0  0  0  0  0  0  0  0  0
    5.3490    0.3530    0.6550 C   0  0  0  0  0  0  0  0  0  0  0  0
  1  2  1  0
  2  3  1  0
  3  4  1  0
  4  5  2  0
  4  6  1  0
  6  7  2  3
  7  8  1  0
  7  9  1  0
  9 10  1  0
 10 11  1  0
 11 12  2  0
 11 13  1  0
 13 14  2  0
 13 17  1  0
 14 15  1  0
 15 16  2  0
 15 20  1  0
 16 17  1  0
 16 18  1  0
 18 19  1  0
 19 20  1  0
M  END
