
     RDKit          3D

 11 11  0  0  0  0  0  0  0  0999 V2000
   -2.2040   -0.9040    0.4130 C   0  0  0  0  0  0  0  0  0  0  0  0
   -1.4450    0.3380    0.0250 C   0  0  1  0  0  0  0  0  0  0  0  0
   -2.2720    1.2820   -0.5450 O   0  0  0  0  0  0  0  0  0  0  0  0
   -0.6310    0.8820    1.1760 C   0  0  0  0  0  0  0  0  0  0  0  0
    0.7190    0.8140    0.9400 O   0  0  0  0  0  0  0  0  0  0  0  0
    1.1640   -0.4490    0.5860 C   0  0  2  0  0  0  0  0  0  0  0  0
    2.5350   -0.3890   -0.0350 C   0  0  0  0  0  0  0  0  0  0  0  0
    3.4870    0.1510    0.8210 O   0  0  0  0  0  0  0  0  0  0  0  0
    0.3450   -1.0690   -0.3540 O   0  0  0  0  0  0  0  0  0  0  0  0
   -0.3990   -0.0990   -1.0130 C   0  0  2  0  0  0  0  0  0  0  0  0
    0.3950    1.0360   -1.2340 O   0  0  0  0  0  0  0  0  0  0  0  0
  2  1  1  1
  2  3  1  0
  2  4  1  0
  2 10  1  0
  4  5  1  0
  5  6  1  0
  6  7  1  6
  6  9  1  0
  7  8  1  0
  9 10  1  0
 10 11  1  1
M  END
