
     RDKit          3D

 11 10  0  0  0  0  0  0  0  0999 V2000
   -1.9010   -0.9970   -1.2780 C   0  0  0  0  0  0  0  0  0  0  0  0
   -1.3910   -0.6490    0.1070 C   0  0  2  0  0  0  0  0  0  0  0  0
   -1.7600   -1.6730    0.9600 O   0  0  0  0  0  0  0  0  0  0  0  0
   -2.0760    0.6130    0.5390 C   0  0  0  0  0  0  0  0  0  0  0  0
   -1.7560    1.6980   -0.2740 O   0  0  0  0  0  0  0  0  0  0  0  0
    0.1030   -0.5400    0.0410 C   0  0  2  0  0  0  0  0  0  0  0  0
    0.5640   -1.7890   -0.4420 O   0  0  0  0  0  0  0  0  0  0  0  0
    0.7180   -0.3300    1.2380 O   0  0  0  0  0  0  0  0  0  0  0  0
    1.5600    0.7660    1.1480 C   0  0  0  0  0  0  0  0  0  0  0  0
    2.6660    0.6380    0.1540 C   0  0  0  0  0  0  0  0  0  0  0  0
    3.4650    1.7970    0.1350 O   0  0  0  0  0  0  0  0  0  0  0  0
  2  1  1  6
  2  3  1  0
  2  4  1  0
  2  6  1  0
  4  5  1  0
  6  7  1  1
  6  8  1  0
  8  9  1  0
  9 10  1  0
 10 11  1  0
M  END
