
     RDKit          3D

 11 11  0  0  0  0  0  0  0  0999 V2000
    3.2710    0.1130   -1.7010 O   0  0  0  0  0  0  0  0  0  0  0  0
    2.8540    0.1170   -0.3570 C   0  0  0  0  0  0  0  0  0  0  0  0
    1.5690    0.9070   -0.2620 C   0  0  1  0  0  0  0  0  0  0  0  0
    1.8060    2.2000   -0.6970 O   0  0  0  0  0  0  0  0  0  0  0  0
    0.5320    0.2850   -0.9620 O   0  0  0  0  0  0  0  0  0  0  0  0
   -0.4930   -0.1090   -0.1040 C   0  0  1  0  0  0  0  0  0  0  0  0
   -1.7650    0.5780   -0.5520 C   0  0  0  0  0  0  0  0  0  0  0  0
   -2.8860    0.1390    0.1170 O   0  0  0  0  0  0  0  0  0  0  0  0
   -2.5800   -0.7890    1.0820 C   0  0  0  0  0  0  0  0  0  0  0  0
   -1.7220   -1.9250    0.5730 C   0  0  0  0  0  0  0  0  0  0  0  0
   -0.6660   -1.4920   -0.1870 O   0  0  0  0  0  0  0  0  0  0  0  0
  1  2  1  0
  2  3  1  0
  3  4  1  6
  3  5  1  0
  6  5  1  6
  6  7  1  0
  6 11  1  0
  7  8  1  0
  8  9  1  0
  9 10  1  0
 10 11  1  0
M  END
