
     RDKit          3D

 11 11  0  0  0  0  0  0  0  0999 V2000
    3.5810    0.3780   -0.7240 O   0  0  0  0  0  0  0  0  0  0  0  0
    2.5880    0.3960    0.2430 C   0  0  0  0  0  0  0  0  0  0  0  0
    1.3340   -0.2740   -0.2800 C   0  0  0  0  0  0  0  0  0  0  0  0
    0.2670   -0.2360    0.8030 C   0  0  1  0  0  0  0  0  0  0  0  0
   -0.0470    1.0470    1.1720 O   0  0  0  0  0  0  0  0  0  0  0  0
   -0.7940    1.7320    0.2290 C   0  0  0  0  0  0  0  0  0  0  0  0
   -1.7670    0.9800   -0.3790 O   0  0  0  0  0  0  0  0  0  0  0  0
   -2.1300   -0.1110    0.4100 C   0  0  1  0  0  0  0  0  0  0  0  0
   -3.2670   -0.7190   -0.0930 O   0  0  0  0  0  0  0  0  0  0  0  0
   -0.9370   -1.0600    0.4100 C   0  0  1  0  0  0  0  0  0  0  0  0
   -0.7310   -1.6240   -0.8260 O   0  0  0  0  0  0  0  0  0  0  0  0
  1  2  1  0
  2  3  1  0
  4  3  1  6
  4  5  1  0
  4 10  1  0
  5  6  1  0
  6  7  1  0
  7  8  1  0
  8  9  1  6
  8 10  1  0
 10 11  1  6
M  END
