
     RDKit          3D

 11 11  0  0  0  0  0  0  0  0999 V2000
    3.4990    1.1630   -0.2170 O   0  0  0  0  0  0  0  0  0  0  0  0
    3.0270   -0.0940    0.0460 C   0  0  0  0  0  0  0  0  0  0  0  0
    1.7050   -0.3010   -0.2630 O   0  0  0  0  0  0  0  0  0  0  0  0
    0.8120    0.4970    0.3840 C   0  0  2  0  0  0  0  0  0  0  0  0
   -0.3350   -0.2550    1.0200 C   0  0  0  0  0  0  0  0  0  0  0  0
   -1.2280   -0.6010   -0.1450 C   0  0  1  0  0  0  0  0  0  0  0  0
   -1.1020   -1.9380   -0.4470 O   0  0  0  0  0  0  0  0  0  0  0  0
   -2.6880   -0.3090    0.1700 C   0  0  0  0  0  0  0  0  0  0  0  0
   -2.8870    1.0320    0.4850 O   0  0  0  0  0  0  0  0  0  0  0  0
   -0.7210    0.3050   -1.2260 C   0  0  0  0  0  0  0  0  0  0  0  0
    0.1190    1.2310   -0.6090 O   0  0  0  0  0  0  0  0  0  0  0  0
  1  2  1  0
  2  3  1  0
  4  3  1  6
  4  5  1  0
  4 11  1  0
  5  6  1  0
  6  7  1  6
  6  8  1  0
  6 10  1  0
  8  9  1  0
 10 11  1  0
M  END
