
     RDKit          3D

 12 11  0  0  0  0  0  0  0  0999 V2000
    1.5380    1.7460   -0.0510 O   0  0  0  0  0  0  0  0  0  0  0  0
    2.6410    0.9780   -0.2130 C   0  0  0  0  0  0  0  0  0  0  0  0
    2.4570   -0.4620   -0.4650 C   0  0  0  0  0  0  0  0  0  0  0  0
    1.4270   -1.2060   -0.5720 C   0  0  0  0  0  0  0  0  0  0  0  0
    1.7210   -2.6050   -0.8280 O   0  0  0  0  0  0  0  0  0  0  0  0
   -0.0090   -0.9350   -0.4890 C   0  0  2  0  0  0  0  0  0  0  0  0
   -0.6020   -1.2030   -1.7360 O   0  0  0  0  0  0  0  0  0  0  0  0
   -0.4150    0.3140   -0.1170 O   0  0  0  0  0  0  0  0  0  0  0  0
   -1.2770    0.2840    0.9510 C   0  0  1  0  0  0  0  0  0  0  0  0
   -0.7650    0.9440    2.0850 O   0  0  0  0  0  0  0  0  0  0  0  0
   -2.6300    0.8740    0.6540 C   0  0  0  0  0  0  0  0  0  0  0  0
   -3.3900    0.7710    1.8320 O   0  0  0  0  0  0  0  0  0  0  0  0
  1  2  1  0
  2  3  1  0
  3  4  2  3
  4  5  1  0
  4  6  1  0
  6  7  1  6
  6  8  1  0
  8  9  1  0
  9 10  1  1
  9 11  1  0
 11 12  1  0
M  END
