
     RDKit          3D

 11 11  0  0  0  0  0  0  0  0999 V2000
    2.1900    2.3180    0.7590 O   0  0  0  0  0  0  0  0  0  0  0  0
    2.1110    1.4480   -0.3260 C   0  0  0  0  0  0  0  0  0  0  0  0
    1.0380    0.4360   -0.0190 C   0  0  2  0  0  0  0  0  0  0  0  0
    0.8740   -0.5640   -1.1550 C   0  0  0  0  0  0  0  0  0  0  0  0
    0.1000   -1.7340   -0.5790 C   0  0  2  0  0  0  0  0  0  0  0  0
   -0.8220   -2.2380   -1.4960 O   0  0  0  0  0  0  0  0  0  0  0  0
   -0.6400   -1.2210    0.4950 O   0  0  0  0  0  0  0  0  0  0  0  0
   -1.1550    0.0040    0.0620 C   0  0  1  0  0  0  0  0  0  0  0  0
   -2.3980    0.2810    0.8700 C   0  0  0  0  0  0  0  0  0  0  0  0
   -2.0710    0.3390    2.2090 O   0  0  0  0  0  0  0  0  0  0  0  0
   -0.2070    1.0160    0.1830 O   0  0  0  0  0  0  0  0  0  0  0  0
  1  2  1  0
  3  2  1  6
  3  4  1  0
  3 11  1  0
  4  5  1  0
  5  6  1  6
  5  7  1  0
  7  8  1  0
  8  9  1  1
  8 11  1  0
  9 10  1  0
M  END
