
     RDKit          3D

 11 11  0  0  0  0  0  0  0  0999 V2000
    2.5030   -0.8940    1.3180 O   0  0  0  0  0  0  0  0  0  0  0  0
    2.2040   -0.8980   -0.0330 C   0  0  2  0  0  0  0  0  0  0  0  0
    2.9680    0.0090   -0.7580 O   0  0  0  0  0  0  0  0  0  0  0  0
    0.7380   -0.5610   -0.2110 C   0  0  2  0  0  0  0  0  0  0  0  0
    0.4140    0.8090    0.3430 C   0  0  0  0  0  0  0  0  0  0  0  0
   -0.9470    1.1920   -0.1830 C   0  0  2  0  0  0  0  0  0  0  0  0
   -1.3110    2.3860    0.4360 O   0  0  0  0  0  0  0  0  0  0  0  0
   -1.9100    0.1060    0.2490 C   0  0  1  0  0  0  0  0  0  0  0  0
   -3.0980    0.2840   -0.4530 O   0  0  0  0  0  0  0  0  0  0  0  0
   -1.3930   -1.2710   -0.0190 C   0  0  0  0  0  0  0  0  0  0  0  0
   -0.0910   -1.4690    0.4190 O   0  0  0  0  0  0  0  0  0  0  0  0
  2  1  1  1
  2  3  1  0
  2  4  1  0
  4  5  1  1
  4 11  1  0
  5  6  1  0
  6  7  1  1
  6  8  1  0
  8  9  1  6
  8 10  1  0
 10 11  1  0
M  END
