
     RDKit          3D

 25 26  0  0  0  0  0  0  0  0999 V2000
    1.5360   -2.3960    1.8320 C   0  0  0  0  0  0  0  0  0  0  0  0
    1.0990   -1.3360    1.1650 C   0  0  0  0  0  0  0  0  0  0  0  0
    2.0780   -0.5730    0.4020 C   0  0  0  0  0  0  0  0  0  0  0  0
    3.3320   -0.9660    0.4640 N   0  0  0  0  0  0  0  0  0  0  0  0
    4.3530   -0.2940   -0.2200 C   0  0  0  0  0  0  0  0  0  0  0  0
    5.5830   -0.7200   -0.1350 C   0  0  0  0  0  0  0  0  0  0  0  0
    5.8930   -1.8560    0.6450 N   0  0  0  0  0  0  0  0  0  0  0  0
    4.0450    0.8970   -1.0400 C   0  0  0  0  0  0  0  0  0  0  0  0
    5.1750    1.5510   -1.7300 C   0  0  0  0  0  0  0  0  0  0  0  0
    2.8030    1.2550   -1.0770 C   0  0  0  0  0  0  0  0  0  0  0  0
    1.7160    0.5670   -0.3770 N   0  0  0  0  0  0  0  0  0  0  0  0
    0.4540    1.1620   -0.4040 C   0  0  0  0  0  0  0  0  0  0  0  0
    0.5170    2.4980   -0.4680 O   0  0  0  0  0  0  0  0  0  0  0  0
   -0.8760    0.7050   -0.3830 C   0  0  0  0  0  0  0  0  0  0  0  0
   -1.8240    1.6180   -0.1560 N   0  0  0  0  0  0  0  0  0  0  0  0
   -3.2170    1.4570   -0.0700 N   0  0  0  0  0  0  0  0  0  0  0  0
   -3.8480    0.2690    0.4590 C   0  0  0  0  0  0  0  0  0  0  0  0
   -5.0330    0.4020    1.2970 C   0  0  2  0  0  0  0  0  0  0  0  0
   -6.1690    0.9690    0.4850 C   0  0  0  0  0  0  0  0  0  0  0  0
   -4.7910    1.2000    2.5590 C   0  0  0  0  0  0  0  0  0  0  0  0
   -3.4280   -0.9520    0.2200 N   0  0  0  0  0  0  0  0  0  0  0  0
   -2.2930   -1.3320   -0.5950 C   0  0  0  0  0  0  0  0  0  0  0  0
   -1.1860   -0.6430   -0.8770 C   0  0  0  0  0  0  0  0  0  0  0  0
   -0.2940   -1.2490   -1.8980 C   0  0  0  0  0  0  0  0  0  0  0  0
   -0.1660   -0.2360   -2.9770 N   0  0  0  0  0  0  0  0  0  0  0  0
  1  2  2  0
  2  3  1  0
  3  4  2  0
  3 11  1  0
  4  5  1  0
  5  6  2  3
  5  8  1  0
  6  7  1  0
  8  9  1  0
  8 10  2  0
 10 11  1  0
 11 12  1  0
 12 13  2  0
 12 14  1  0
 14 15  2  0
 14 23  1  0
 15 16  1  0
 16 17  1  0
 17 18  1  0
 17 21  2  0
 18 19  1  6
 18 20  1  0
 21 22  1  0
 22 23  2  0
 23 24  1  0
 24 25  1  0
M  END
