
     RDKit          3D

 25 27  0  0  0  0  0  0  0  0999 V2000
    7.0800    1.2050   -1.1880 C   0  0  0  0  0  0  0  0  0  0  0  0
    5.8980    0.4060   -0.8530 C   0  0  0  0  0  0  0  0  0  0  0  0
    6.1180   -0.9050   -0.5070 C   0  0  0  0  0  0  0  0  0  0  0  0
    5.0270   -1.7400   -0.2000 C   0  0  0  0  0  0  0  0  0  0  0  0
    3.7550   -1.2360   -0.2500 C   0  0  0  0  0  0  0  0  0  0  0  0
    2.6020   -2.0970    0.2030 C   0  0  0  0  0  0  0  0  0  0  0  0
    3.5090    0.0900   -0.5990 C   0  0  0  0  0  0  0  0  0  0  0  0
    2.0790    0.4810   -0.7310 C   0  0  0  0  0  0  0  0  0  0  0  0
    1.7170    1.4360    0.2740 N   0  0  0  0  0  0  0  0  0  0  0  0
    0.3380    1.5160    0.7000 C   0  0  0  0  0  0  0  0  0  0  0  0
   -0.1400    2.2610    1.7240 N   0  0  0  0  0  0  0  0  0  0  0  0
   -1.4320    2.0960    1.8950 N   0  0  0  0  0  0  0  0  0  0  0  0
   -1.8540    1.2290    0.9720 C   0  0  0  0  0  0  0  0  0  0  0  0
   -3.1200    0.5550    0.7710 C   0  0  0  0  0  0  0  0  0  0  0  0
   -3.9360    0.1890    1.7930 C   0  0  0  0  0  0  0  0  0  0  0  0
   -3.5880    0.4680    3.1470 N   0  0  0  0  0  0  0  0  0  0  0  0
   -5.1240   -0.4510    1.5160 N   0  0  0  0  0  0  0  0  0  0  0  0
   -5.4750   -0.6940    0.2570 C   0  0  0  0  0  0  0  0  0  0  0  0
   -6.7200   -1.4180   -0.0170 C   0  0  0  0  0  0  0  0  0  0  0  0
   -4.6870   -0.3290   -0.7650 N   0  0  0  0  0  0  0  0  0  0  0  0
   -5.2160   -0.5460   -2.1170 C   0  0  0  0  0  0  0  0  0  0  0  0
   -3.4920    0.2960   -0.5580 C   0  0  0  0  0  0  0  0  0  0  0  0
   -2.7690    0.6240   -1.5260 O   0  0  0  0  0  0  0  0  0  0  0  0
   -0.7410    0.8860    0.2410 N   0  0  0  0  0  0  0  0  0  0  0  0
    4.5820    0.9010   -0.8950 C   0  0  0  0  0  0  0  0  0  0  0  0
  1  2  1  0
  2  3  2  0
  2 25  1  0
  3  4  1  0
  4  5  2  0
  5  6  1  0
  5  7  1  0
  7  8  1  0
  7 25  2  0
  8  9  1  0
  9 10  1  0
 10 11  2  0
 10 24  1  0
 11 12  1  0
 12 13  1  0
 13 14  1  0
 13 24  2  0
 14 15  2  0
 14 22  1  0
 15 16  1  0
 15 17  1  0
 17 18  2  0
 18 19  1  0
 18 20  1  0
 20 21  1  0
 20 22  1  0
 22 23  2  0
M  END
