
     RDKit          3D

 25 27  0  0  0  0  0  0  0  0999 V2000
    6.4900   -2.8650   -0.2520 C   0  0  0  0  0  0  0  0  0  0  0  0
    5.3910   -1.8680   -0.1600 C   0  0  0  0  0  0  0  0  0  0  0  0
    5.6050   -0.5150   -0.1480 C   0  0  0  0  0  0  0  0  0  0  0  0
    4.5550    0.3690   -0.0620 C   0  0  0  0  0  0  0  0  0  0  0  0
    4.6920    1.8340   -0.0420 C   0  0  0  0  0  0  0  0  0  0  0  0
    6.0570    2.2620   -0.1240 N   0  0  0  0  0  0  0  0  0  0  0  0
    3.2540   -0.1400    0.0140 C   0  0  0  0  0  0  0  0  0  0  0  0
    3.0540   -1.4960    0.0000 C   0  0  0  0  0  0  0  0  0  0  0  0
    1.7590   -2.0590    0.0410 N   0  0  0  0  0  0  0  0  0  0  0  0
    0.5260   -1.4070   -0.0130 C   0  0  0  0  0  0  0  0  0  0  0  0
   -0.5000   -1.9010    0.8110 C   0  0  0  0  0  0  0  0  0  0  0  0
   -1.7340   -1.3840    0.8240 N   0  0  0  0  0  0  0  0  0  0  0  0
   -2.0340   -0.3470    0.0260 C   0  0  0  0  0  0  0  0  0  0  0  0
   -3.3750    0.2470    0.0130 C   0  0  0  0  0  0  0  0  0  0  0  0
   -4.3670   -0.2080    0.7910 N   0  0  0  0  0  0  0  0  0  0  0  0
   -5.6030    0.3510    0.7690 C   0  0  0  0  0  0  0  0  0  0  0  0
   -6.6860   -0.1760    1.6450 C   0  0  0  0  0  0  0  0  0  0  0  0
   -5.8790    1.4030   -0.0520 C   0  0  0  0  0  0  0  0  0  0  0  0
   -7.1830    2.0760   -0.1480 C   0  0  0  0  0  0  0  0  0  0  0  0
   -4.8440    1.8750   -0.8610 C   0  0  0  0  0  0  0  0  0  0  0  0
   -4.9970    2.8380   -1.6510 O   0  0  0  0  0  0  0  0  0  0  0  0
   -3.6580    1.2850   -0.7930 N   0  0  0  0  0  0  0  0  0  0  0  0
   -1.0830    0.1290   -0.7550 N   0  0  0  0  0  0  0  0  0  0  0  0
    0.1740   -0.3550   -0.8080 C   0  0  0  0  0  0  0  0  0  0  0  0
    4.1370   -2.3280   -0.0870 N   0  0  0  0  0  0  0  0  0  0  0  0
  1  2  1  0
  2  3  2  0
  2 25  1  0
  3  4  1  0
  4  5  1  0
  4  7  2  0
  5  6  1  0
  7  8  1  0
  8  9  1  0
  8 25  2  0
  9 10  1  0
 10 11  2  0
 10 24  1  0
 11 12  1  0
 12 13  2  0
 13 14  1  0
 13 23  1  0
 14 15  2  0
 14 22  1  0
 15 16  1  0
 16 17  1  0
 16 18  2  0
 18 19  1  0
 18 20  1  0
 20 21  2  0
 20 22  1  0
 23 24  2  0
M  END
