
     RDKit          3D

 17 17  0  0  0  0  0  0  0  0999 V2000
    5.4920   -0.3060    0.1670 C   0  0  0  0  0  0  0  0  0  0  0  0
    4.6390   -1.1430    1.0910 C   0  0  0  0  0  0  0  0  0  0  0  0
    3.1850   -1.0650    0.6260 C   0  0  0  0  0  0  0  0  0  0  0  0
    2.7950    0.3870    0.6900 C   0  0  0  0  0  0  0  0  0  0  0  0
    1.4260    0.6190    0.2730 N   0  0  0  0  0  0  0  0  0  0  0  0
    0.3260    0.0220    0.9390 C   0  0  0  0  0  0  0  0  0  0  0  0
    0.5950   -0.7230    1.9130 O   0  0  0  0  0  0  0  0  0  0  0  0
   -1.0560    0.2390    0.5400 C   0  0  0  0  0  0  0  0  0  0  0  0
   -2.0770   -0.3810    1.2440 C   0  0  0  0  0  0  0  0  0  0  0  0
   -3.4020   -0.1930    0.8880 C   0  0  0  0  0  0  0  0  0  0  0  0
   -3.7400    0.6120   -0.1710 C   0  0  0  0  0  0  0  0  0  0  0  0
   -5.4350    0.8050   -0.5650 S   0  0  1  0  0  0  0  0  0  0  0  0
   -5.9210   -0.3970   -1.6890 N   0  0  0  0  0  0  0  0  0  0  0  0
   -6.2560    0.7650    0.6850 O   0  0  0  0  0  0  0  0  0  0  0  0
   -5.6710    2.1570   -1.2060 O   0  0  0  0  0  0  0  0  0  0  0  0
   -2.7540    1.2330   -0.8780 C   0  0  0  0  0  0  0  0  0  0  0  0
   -1.4390    1.0360   -0.5120 C   0  0  0  0  0  0  0  0  0  0  0  0
  1  2  1  0
  2  3  1  0
  3  4  1  0
  4  5  1  0
  5  6  1  0
  6  7  2  0
  6  8  1  0
  8  9  2  0
  8 17  1  0
  9 10  1  0
 10 11  2  0
 11 12  1  0
 11 16  1  0
 12 13  1  6
 12 14  2  0
 12 15  2  0
 16 17  2  0
M  END
