
     RDKit          3D

 25 27  0  0  0  0  0  0  0  0999 V2000
   -2.4160   -3.3220    0.9510 C   0  0  0  0  0  0  0  0  0  0  0  0
   -2.3200   -1.9180    1.5080 C   0  0  2  0  0  0  0  0  0  0  0  0
   -1.2560   -1.9340    2.6080 C   0  0  0  0  0  0  0  0  0  0  0  0
   -3.6140   -1.5330    2.1910 C   0  0  0  0  0  0  0  0  0  0  0  0
   -1.9930   -0.9300    0.4620 C   0  0  0  0  0  0  0  0  0  0  0  0
   -2.8120    0.0270    0.2310 N   0  0  0  0  0  0  0  0  0  0  0  0
   -2.6470    1.0380   -0.7220 C   0  0  0  0  0  0  0  0  0  0  0  0
   -3.5880    1.4270   -1.5660 C   0  0  0  0  0  0  0  0  0  0  0  0
   -3.3560    2.5060   -2.5560 C   0  0  0  0  0  0  0  0  0  0  0  0
   -3.5340    2.0420   -3.9140 N   0  0  0  0  0  0  0  0  0  0  0  0
   -0.8090   -1.0350   -0.2670 N   0  0  0  0  0  0  0  0  0  0  0  0
    0.3060   -0.4490    0.0220 C   0  0  0  0  0  0  0  0  0  0  0  0
    0.5890    0.3680    1.0470 N   0  0  0  0  0  0  0  0  0  0  0  0
    1.8770    0.7180    0.9150 C   0  0  0  0  0  0  0  0  0  0  0  0
    2.7410    1.5280    1.6450 C   0  0  0  0  0  0  0  0  0  0  0  0
    2.2930    2.0970    2.6760 O   0  0  0  0  0  0  0  0  0  0  0  0
    4.0090    1.6880    1.2520 N   0  0  0  0  0  0  0  0  0  0  0  0
    4.5200    1.0990    0.1630 C   0  0  0  0  0  0  0  0  0  0  0  0
    5.8270    1.2630   -0.2440 C   0  0  0  0  0  0  0  0  0  0  0  0
    6.3460    0.6490   -1.3740 C   0  0  0  0  0  0  0  0  0  0  0  0
    5.4850   -0.1540   -2.0970 C   0  0  0  0  0  0  0  0  0  0  0  0
    4.2060   -0.3280   -1.7170 N   0  0  0  0  0  0  0  0  0  0  0  0
    3.7150    0.2740   -0.6190 C   0  0  0  0  0  0  0  0  0  0  0  0
    2.3950    0.1090   -0.2070 C   0  0  0  0  0  0  0  0  0  0  0  0
    1.4030   -0.6040   -0.7380 N   0  0  0  0  0  0  0  0  0  0  0  0
  2  1  1  6
  2  3  1  0
  2  4  1  0
  2  5  1  0
  5  6  2  3
  5 11  1  0
  6  7  1  0
  7  8  2  3
  8  9  1  0
  9 10  1  0
 11 12  2  3
 12 13  1  0
 12 25  1  0
 13 14  1  0
 14 15  1  0
 14 24  2  0
 15 16  2  0
 15 17  1  0
 17 18  1  0
 18 19  2  0
 18 23  1  0
 19 20  1  0
 20 21  2  0
 21 22  1  0
 22 23  2  0
 23 24  1  0
 24 25  1  0
M  END
