
     RDKit          3D

 25 27  0  0  0  0  0  0  0  0999 V2000
    3.6160    2.8060   -0.0390 C   0  0  0  0  0  0  0  0  0  0  0  0
    4.5480    1.7230    0.3890 C   0  0  0  0  0  0  0  0  0  0  0  0
    4.5100    0.5150   -0.4880 C   0  0  0  0  0  0  0  0  0  0  0  0
    3.1510   -0.1210   -0.5360 C   0  0  0  0  0  0  0  0  0  0  0  0
    2.9070   -1.3340   -0.0690 C   0  0  0  0  0  0  0  0  0  0  0  0
    4.0550   -2.0790    0.5270 C   0  0  0  0  0  0  0  0  0  0  0  0
    1.5670   -1.9080   -0.0530 C   0  0  0  0  0  0  0  0  0  0  0  0
    1.4150   -3.2660    0.1020 C   0  0  0  0  0  0  0  0  0  0  0  0
    2.4960   -4.2120    0.1260 N   0  0  0  0  0  0  0  0  0  0  0  0
    0.1440   -3.7620    0.1930 N   0  0  0  0  0  0  0  0  0  0  0  0
   -0.9160   -2.9570    0.1320 C   0  0  0  0  0  0  0  0  0  0  0  0
   -0.8100   -1.6320   -0.0200 N   0  0  0  0  0  0  0  0  0  0  0  0
   -1.9780   -0.7850   -0.0840 C   0  0  0  0  0  0  0  0  0  0  0  0
   -3.1410   -1.1630    0.4660 N   0  0  0  0  0  0  0  0  0  0  0  0
   -4.2700   -0.4470    0.4560 C   0  0  0  0  0  0  0  0  0  0  0  0
   -5.4790   -0.9200    1.0680 N   0  0  0  0  0  0  0  0  0  0  0  0
   -4.2300    0.7800   -0.1730 C   0  0  0  0  0  0  0  0  0  0  0  0
   -3.0320    1.1820   -0.7460 C   0  0  0  0  0  0  0  0  0  0  0  0
   -1.9310    0.4100   -0.6990 N   0  0  0  0  0  0  0  0  0  0  0  0
   -3.0190    2.4520   -1.3880 N   0  0  0  0  0  0  0  0  0  0  0  0
   -4.1560    3.3310   -1.4770 C   0  0  0  0  0  0  0  0  0  0  0  0
   -5.3570    2.7790   -0.8280 C   0  0  0  0  0  0  0  0  0  0  0  0
   -5.4210    1.6180   -0.2250 C   0  0  0  0  0  0  0  0  0  0  0  0
    0.4290   -1.1000   -0.1130 C   0  0  0  0  0  0  0  0  0  0  0  0
    0.4990    0.1450   -0.2510 O   0  0  0  0  0  0  0  0  0  0  0  0
  1  2  1  0
  2  3  1  0
  3  4  1  0
  4  5  2  3
  5  6  1  0
  5  7  1  0
  7  8  2  0
  7 24  1  0
  8  9  1  0
  8 10  1  0
 10 11  2  0
 11 12  1  0
 12 13  1  0
 12 24  1  0
 13 14  2  0
 13 19  1  0
 14 15  1  0
 15 16  1  0
 15 17  2  0
 17 18  1  0
 17 23  1  0
 18 19  2  0
 18 20  1  0
 20 21  1  0
 21 22  1  0
 22 23  2  0
 24 25  2  0
M  END
