
     RDKit          3D

 20 21  0  0  0  0  0  0  0  0999 V2000
    4.4850   -0.2080   -1.0320 C   0  0  0  0  0  0  0  0  0  0  0  0
    3.8280    0.2090    0.3060 C   0  0  1  0  0  0  0  0  0  0  0  0
    4.3700   -0.5010    1.4820 C   0  0  0  0  0  0  0  0  0  0  0  0
    4.1870    1.5900    0.3790 O   0  0  0  0  0  0  0  0  0  0  0  0
    2.3660    0.1580    0.0970 C   0  0  0  0  0  0  0  0  0  0  0  0
    1.7220    1.3360   -0.1870 C   0  0  0  0  0  0  0  0  0  0  0  0
    0.3810    1.3810   -0.4970 C   0  0  0  0  0  0  0  0  0  0  0  0
   -0.2260    2.5400   -0.7720 O   0  0  0  0  0  0  0  0  0  0  0  0
   -0.3020    0.1450   -0.5040 C   0  0  0  0  0  0  0  0  0  0  0  0
   -1.6930    0.2120   -0.9620 C   0  0  1  0  0  0  0  0  0  0  0  0
   -1.7870   -0.6850   -2.1170 O   0  0  0  0  0  0  0  0  0  0  0  0
   -2.7350   -0.3920   -0.0240 C   0  0  1  0  0  0  0  0  0  0  0  0
   -2.3820   -1.6430    0.6690 C   0  0  0  0  0  0  0  0  0  0  0  0
   -3.0080    0.6970    1.0600 C   0  0  0  0  0  0  0  0  0  0  0  0
   -4.2910    1.3380    0.5220 C   0  0  0  0  0  0  0  0  0  0  0  0
   -4.9480    0.0860   -0.0490 C   0  0  0  0  0  0  0  0  0  0  0  0
   -3.9150   -0.5180   -0.7220 O   0  0  0  0  0  0  0  0  0  0  0  0
    0.3590   -1.0050   -0.2090 C   0  0  0  0  0  0  0  0  0  0  0  0
    1.7190   -1.0420    0.1020 C   0  0  0  0  0  0  0  0  0  0  0  0
    2.3800   -2.2190    0.3920 O   0  0  0  0  0  0  0  0  0  0  0  0
  2  1  1  6
  2  3  1  0
  2  4  1  0
  2  5  1  0
  5  6  2  0
  5 19  1  0
  6  7  1  0
  7  8  1  0
  7  9  2  0
  9 10  1  0
  9 18  1  0
 10 11  1  6
 10 12  1  0
 12 13  1  1
 12 14  1  0
 12 17  1  0
 14 15  1  0
 15 16  1  0
 16 17  1  0
 18 19  2  0
 19 20  1  0
M  END
