
     RDKit          3D

 20 21  0  0  0  0  0  0  0  0999 V2000
   -6.4500   -0.2840   -1.5360 O   0  0  0  0  0  0  0  0  0  0  0  0
   -5.7870    0.3930   -0.4870 C   0  0  0  0  0  0  0  0  0  0  0  0
   -4.3870    0.6610   -0.9830 C   0  0  0  0  0  0  0  0  0  0  0  0
   -3.5920    1.3200   -0.0840 O   0  0  0  0  0  0  0  0  0  0  0  0
   -3.4010    0.6670    1.1100 C   0  0  0  0  0  0  0  0  0  0  0  0
   -2.7630   -0.6680    0.9980 C   0  0  2  0  0  0  0  0  0  0  0  0
   -2.6170   -1.1720    2.3130 O   0  0  0  0  0  0  0  0  0  0  0  0
   -1.4050   -0.7060    0.3670 C   0  0  0  0  0  0  0  0  0  0  0  0
   -0.3660    0.0850    1.0640 C   0  0  2  0  0  0  0  0  0  0  0  0
   -0.6550    1.4410    1.1450 O   0  0  0  0  0  0  0  0  0  0  0  0
    1.0000   -0.0910    0.4840 C   0  0  0  0  0  0  0  0  0  0  0  0
    1.1460   -0.8300   -0.5840 C   0  0  0  0  0  0  0  0  0  0  0  0
    2.4410   -1.0590   -1.2200 C   0  0  0  0  0  0  0  0  0  0  0  0
    3.5440   -0.3760   -0.5400 C   0  0  0  0  0  0  0  0  0  0  0  0
    4.7940   -0.4910   -1.0100 C   0  0  0  0  0  0  0  0  0  0  0  0
    5.9810    0.1280   -0.4400 C   0  0  0  0  0  0  0  0  0  0  0  0
    5.7620    0.9570    0.7720 C   0  0  0  0  0  0  0  0  0  0  0  0
    4.3520    1.0210    1.2090 C   0  0  0  0  0  0  0  0  0  0  0  0
    3.3320    0.4300    0.6370 C   0  0  0  0  0  0  0  0  0  0  0  0
    2.0270    0.5580    1.1370 O   0  0  0  0  0  0  0  0  0  0  0  0
  1  2  1  0
  2  3  1  0
  3  4  1  0
  4  5  1  0
  5  6  1  0
  6  7  1  1
  6  8  1  0
  8  9  1  0
  9 10  1  6
  9 11  1  0
 11 12  2  0
 11 20  1  0
 12 13  1  0
 13 14  1  0
 14 15  2  0
 14 19  1  0
 15 16  1  0
 16 17  1  0
 17 18  1  0
 18 19  2  0
 19 20  1  0
M  END
