
     RDKit          3D

 27 27  0  0  0  0  0  0  0  0999 V2000
    6.8480    0.8660   -0.7020 N   0  0  0  0  0  0  0  0  0  0  0  0
    6.0310   -0.6030   -0.2970 S   0  0  2  0  0  0  0  0  0  0  0  0
    6.4150   -1.0800    1.0870 O   0  0  0  0  0  0  0  0  0  0  0  0
    6.3600   -1.7080   -1.2640 O   0  0  0  0  0  0  0  0  0  0  0  0
    4.3220   -0.2990   -0.3490 C   0  0  0  0  0  0  0  0  0  0  0  0
    3.6780    0.1240    0.7750 C   0  0  0  0  0  0  0  0  0  0  0  0
    2.3180    0.3680    0.7410 C   0  0  0  0  0  0  0  0  0  0  0  0
    1.5540    0.2060   -0.3840 C   0  0  0  0  0  0  0  0  0  0  0  0
    0.1130    0.4530   -0.4640 C   0  0  0  0  0  0  0  0  0  0  0  0
   -0.4770    0.2580   -1.5690 O   0  0  0  0  0  0  0  0  0  0  0  0
   -0.6790    0.9000    0.6220 N   0  0  0  0  0  0  0  0  0  0  0  0
   -2.0770    1.1590    0.6430 C   0  0  0  0  0  0  0  0  0  0  0  0
   -2.9770   -0.0290    0.3630 C   0  0  1  0  0  0  0  0  0  0  0  0
   -2.7220   -0.5370   -0.8890 F   0  0  0  0  0  0  0  0  0  0  0  0
   -2.8620   -0.9950    1.3430 F   0  0  0  0  0  0  0  0  0  0  0  0
   -4.3880    0.5040    0.4250 C   0  0  2  0  0  0  0  0  0  0  0  0
   -4.5530    1.4880   -0.5610 F   0  0  0  0  0  0  0  0  0  0  0  0
   -4.4040    1.2620    1.6350 F   0  0  0  0  0  0  0  0  0  0  0  0
   -5.4740   -0.4920    0.4640 C   0  0  1  0  0  0  0  0  0  0  0  0
   -5.2680   -1.2690    1.6190 F   0  0  0  0  0  0  0  0  0  0  0  0
   -6.6920    0.1750    0.6080 F   0  0  0  0  0  0  0  0  0  0  0  0
   -5.5870   -1.4210   -0.6830 C   0  0  2  0  0  0  0  0  0  0  0  0
   -4.4920   -2.2120   -0.8720 F   0  0  0  0  0  0  0  0  0  0  0  0
   -5.8640   -0.7460   -1.8630 F   0  0  0  0  0  0  0  0  0  0  0  0
   -6.7080   -2.2320   -0.4300 F   0  0  0  0  0  0  0  0  0  0  0  0
    2.2330   -0.2240   -1.5120 C   0  0  0  0  0  0  0  0  0  0  0  0
    3.5910   -0.4750   -1.5040 C   0  0  0  0  0  0  0  0  0  0  0  0
  2  1  1  6
  2  3  2  0
  2  4  2  0
  2  5  1  0
  5  6  2  0
  5 27  1  0
  6  7  1  0
  7  8  2  0
  8  9  1  0
  8 26  1  0
  9 10  2  0
  9 11  1  0
 11 12  1  0
 12 13  1  0
 13 14  1  6
 13 15  1  0
 13 16  1  0
 16 17  1  6
 16 18  1  0
 16 19  1  0
 19 20  1  1
 19 21  1  0
 19 22  1  0
 22 23  1  6
 22 24  1  0
 22 25  1  0
 26 27  2  0
M  END
