
     RDKit          3D

 20 21  0  0  0  0  0  0  0  0999 V2000
   -2.5510    1.0870    1.1100 C   0  0  0  0  0  0  0  0  0  0  0  0
   -1.9410   -0.2290    0.8300 C   0  0  2  0  0  0  0  0  0  0  0  0
   -1.7550   -0.8080    2.1710 O   0  0  0  0  0  0  0  0  0  0  0  0
   -0.5370   -0.0160    0.3870 C   0  0  0  0  0  0  0  0  0  0  0  0
    0.5460   -0.4010    1.1650 C   0  0  0  0  0  0  0  0  0  0  0  0
    1.8640   -0.2470    0.7870 C   0  0  0  0  0  0  0  0  0  0  0  0
    2.1340    0.3240   -0.4380 C   0  0  0  0  0  0  0  0  0  0  0  0
    1.1180    0.7240   -1.2480 C   0  0  0  0  0  0  0  0  0  0  0  0
   -0.2040    0.5480   -0.8220 C   0  0  0  0  0  0  0  0  0  0  0  0
   -1.1680    0.9860   -1.7040 O   0  0  0  0  0  0  0  0  0  0  0  0
    3.5090    0.5620   -0.9970 C   0  0  0  0  0  0  0  0  0  0  0  0
    4.3520   -0.6010   -0.5930 C   0  0  0  0  0  0  0  0  0  0  0  0
    4.9920   -0.4840    0.7420 C   0  0  0  0  0  0  0  0  0  0  0  0
    4.0900   -0.2180    1.8840 C   0  0  0  0  0  0  0  0  0  0  0  0
    2.7770   -0.7120    1.7400 O   0  0  0  0  0  0  0  0  0  0  0  0
   -2.6990   -1.2700    0.1360 C   0  0  2  0  0  0  0  0  0  0  0  0
   -1.8570   -2.4420    0.1570 O   0  0  0  0  0  0  0  0  0  0  0  0
   -3.3460   -1.1490   -1.1570 C   0  0  0  0  0  0  0  0  0  0  0  0
   -4.4270   -0.1580   -1.3860 C   0  0  0  0  0  0  0  0  0  0  0  0
   -4.1650    1.1600   -1.2500 O   0  0  0  0  0  0  0  0  0  0  0  0
  2  1  1  1
  2  3  1  0
  2  4  1  0
  2 16  1  0
  4  5  2  0
  4  9  1  0
  5  6  1  0
  6  7  2  0
  6 15  1  0
  7  8  1  0
  7 11  1  0
  8  9  2  0
  9 10  1  0
 11 12  1  0
 12 13  1  0
 13 14  1  0
 14 15  1  0
 16 17  1  6
 16 18  1  0
 18 19  1  0
 19 20  1  0
M  END
