
     RDKit          3D

 19 19  0  0  0  0  0  0  0  0999 V2000
   -0.7680    1.4030   -2.1580 C   0  0  0  0  0  0  0  0  0  0  0  0
   -0.9810    0.0960   -1.4170 C   0  0  1  0  0  0  0  0  0  0  0  0
   -2.1740   -0.5500   -2.0920 C   0  0  0  0  0  0  0  0  0  0  0  0
   -1.8680   -0.7560   -3.4370 O   0  0  0  0  0  0  0  0  0  0  0  0
    0.2390   -0.7470   -1.6710 C   0  0  1  0  0  0  0  0  0  0  0  0
    0.4180   -0.9980   -3.0320 O   0  0  0  0  0  0  0  0  0  0  0  0
    1.4680   -0.1140   -1.1110 C   0  0  0  0  0  0  0  0  0  0  0  0
    2.4380   -0.8000   -0.5590 C   0  0  0  0  0  0  0  0  0  0  0  0
    3.6130   -0.1460   -0.0270 C   0  0  0  0  0  0  0  0  0  0  0  0
    4.6130   -0.8000    0.5370 C   0  0  0  0  0  0  0  0  0  0  0  0
    5.7780   -0.0760    1.0560 C   0  0  0  0  0  0  0  0  0  0  0  0
    5.9060   -0.3240    2.4300 O   0  0  0  0  0  0  0  0  0  0  0  0
   -1.2250    0.3810    0.0260 C   0  0  2  0  0  0  0  0  0  0  0  0
   -0.0860    1.0520    0.5220 O   0  0  0  0  0  0  0  0  0  0  0  0
   -1.4170   -0.8220    0.8880 C   0  0  0  0  0  0  0  0  0  0  0  0
   -1.8490   -0.2870    2.2650 C   0  0  0  0  0  0  0  0  0  0  0  0
   -3.3310    0.0380    2.1480 C   0  0  0  0  0  0  0  0  0  0  0  0
   -3.6160    0.5110    0.7510 C   0  0  0  0  0  0  0  0  0  0  0  0
   -2.3920    1.3040    0.2720 C   0  0  0  0  0  0  0  0  0  0  0  0
  2  1  1  6
  2  3  1  0
  2  5  1  0
  2 13  1  0
  3  4  1  0
  5  6  1  6
  5  7  1  0
  7  8  2  3
  8  9  1  0
  9 10  2  3
 10 11  1  0
 11 12  1  0
 13 14  1  1
 13 15  1  0
 13 19  1  0
 15 16  1  0
 16 17  1  0
 17 18  1  0
 18 19  1  0
M  END
