
     RDKit          3D

 19 20  0  0  0  0  0  0  0  0999 V2000
    2.7580   -3.3100   -0.6480 C   0  0  0  0  0  0  0  0  0  0  0  0
    2.2800   -2.5560    0.5820 C   0  0  0  0  0  0  0  0  0  0  0  0
    2.3540   -1.0890    0.2860 C   0  0  0  0  0  0  0  0  0  0  0  0
    3.5990   -0.5510   -0.0280 O   0  0  0  0  0  0  0  0  0  0  0  0
    1.2940   -0.3270    0.3160 C   0  0  0  0  0  0  0  0  0  0  0  0
    1.4310    1.1040    0.0170 C   0  0  0  0  0  0  0  0  0  0  0  0
    2.4120    1.9600    0.1710 C   0  0  0  0  0  0  0  0  0  0  0  0
    2.0590    3.3260   -0.2960 C   0  0  0  0  0  0  0  0  0  0  0  0
    0.5840    3.2170   -0.5350 C   0  0  0  0  0  0  0  0  0  0  0  0
    0.2310    1.7800   -0.5820 C   0  0  1  0  0  0  0  0  0  0  0  0
    0.1080    1.3050   -1.9070 O   0  0  0  0  0  0  0  0  0  0  0  0
   -0.9200    1.4090    0.2510 C   0  0  0  0  0  0  0  0  0  0  0  0
   -1.0330    0.2130    0.7880 C   0  0  0  0  0  0  0  0  0  0  0  0
   -2.1610   -0.0210    1.5540 O   0  0  0  0  0  0  0  0  0  0  0  0
   -3.4040   -0.4020    1.0850 C   0  0  1  0  0  0  0  0  0  0  0  0
   -3.9420    0.6610    0.1230 C   0  0  0  0  0  0  0  0  0  0  0  0
   -3.4670   -1.7380    0.4320 C   0  0  0  0  0  0  0  0  0  0  0  0
   -0.0660   -0.8960    0.6470 C   0  0  1  0  0  0  0  0  0  0  0  0
   -0.4480   -1.8190   -0.3110 O   0  0  0  0  0  0  0  0  0  0  0  0
  1  2  1  0
  2  3  1  0
  3  4  1  0
  3  5  2  3
  5  6  1  0
  5 18  1  0
  6  7  2  0
  6 10  1  0
  7  8  1  0
  8  9  1  0
  9 10  1  0
 10 11  1  6
 10 12  1  0
 12 13  2  0
 13 14  1  0
 13 18  1  0
 14 15  1  0
 15 16  1  6
 15 17  1  0
 18 19  1  6
M  END
