
     RDKit          3D

 20 21  0  0  0  0  0  0  0  0999 V2000
    3.0680   -2.8130   -0.4770 C   0  0  0  0  0  0  0  0  0  0  0  0
    3.7080   -1.6280   -0.0470 O   0  0  0  0  0  0  0  0  0  0  0  0
    2.9410   -0.4560   -0.0480 C   0  0  0  0  0  0  0  0  0  0  0  0
    1.6120   -0.4460   -0.4510 C   0  0  0  0  0  0  0  0  0  0  0  0
    0.8590    0.7080   -0.4510 C   0  0  0  0  0  0  0  0  0  0  0  0
   -0.5550    0.7660   -0.8640 C   0  0  1  0  0  0  0  0  0  0  0  0
   -0.8090    0.0000   -2.0170 O   0  0  0  0  0  0  0  0  0  0  0  0
   -1.5610    0.4310    0.1690 C   0  0  1  0  0  0  0  0  0  0  0  0
   -1.2760    1.2170    1.3120 O   0  0  0  0  0  0  0  0  0  0  0  0
   -2.9100    0.9210   -0.3210 C   0  0  0  0  0  0  0  0  0  0  0  0
   -4.0520    0.2250    0.3790 C   0  0  0  0  0  0  0  0  0  0  0  0
   -4.0370   -1.2650    0.1550 C   0  0  0  0  0  0  0  0  0  0  0  0
   -2.6630   -1.7190   -0.2160 C   0  0  2  0  0  0  0  0  0  0  0  0
   -2.5170   -3.0950   -0.0460 O   0  0  0  0  0  0  0  0  0  0  0  0
   -1.6230   -0.9810    0.6250 C   0  0  0  0  0  0  0  0  0  0  0  0
    1.5060    1.8600   -0.0260 C   0  0  0  0  0  0  0  0  0  0  0  0
    2.8260    1.8530    0.3750 C   0  0  0  0  0  0  0  0  0  0  0  0
    3.5070    3.0940    0.8280 C   0  0  0  0  0  0  0  0  0  0  0  0
    3.5730    0.6940    0.3720 C   0  0  0  0  0  0  0  0  0  0  0  0
    4.9140    0.6910    0.7800 O   0  0  0  0  0  0  0  0  0  0  0  0
  1  2  1  0
  2  3  1  0
  3  4  2  0
  3 19  1  0
  4  5  1  0
  5  6  1  0
  5 16  2  0
  6  7  1  6
  6  8  1  0
  8  9  1  1
  8 10  1  0
  8 15  1  0
 10 11  1  0
 11 12  1  0
 12 13  1  0
 13 14  1  1
 13 15  1  0
 16 17  1  0
 17 18  1  0
 17 19  2  0
 19 20  1  0
M  END
