
     RDKit          3D

 20 21  0  0  0  0  0  0  0  0999 V2000
    1.6260   -1.2500   -1.1430 C   0  0  0  0  0  0  0  0  0  0  0  0
    1.6420   -0.6600    0.2990 C   0  0  1  0  0  0  0  0  0  0  0  0
    2.4370   -1.6650    0.9700 O   0  0  0  0  0  0  0  0  0  0  0  0
    2.4150    0.5650    0.4080 C   0  0  0  0  0  0  0  0  0  0  0  0
    3.8590    0.3130   -0.0320 C   0  0  0  0  0  0  0  0  0  0  0  0
    4.7640    1.5050    0.0980 C   0  0  0  0  0  0  0  0  0  0  0  0
    4.9380    1.9740    1.3880 O   0  0  0  0  0  0  0  0  0  0  0  0
    0.2980   -0.8060    0.8670 C   0  0  1  0  0  0  0  0  0  0  0  0
    0.4890   -0.5810    2.2850 O   0  0  0  0  0  0  0  0  0  0  0  0
   -0.7980    0.0320    0.4020 C   0  0  0  0  0  0  0  0  0  0  0  0
   -0.7620    1.3760    0.3600 C   0  0  0  0  0  0  0  0  0  0  0  0
   -1.8710    2.1520    0.0170 C   0  0  0  0  0  0  0  0  0  0  0  0
   -1.8140    3.5280   -0.0180 O   0  0  0  0  0  0  0  0  0  0  0  0
   -3.0750    1.5630   -0.3000 C   0  0  0  0  0  0  0  0  0  0  0  0
   -4.2090    2.3200   -0.6560 O   0  0  0  0  0  0  0  0  0  0  0  0
   -3.1250    0.1730   -0.2570 C   0  0  0  0  0  0  0  0  0  0  0  0
   -2.0330   -0.5610    0.0810 C   0  0  0  0  0  0  0  0  0  0  0  0
   -2.3840   -2.0200   -0.0300 C   0  0  0  0  0  0  0  0  0  0  0  0
   -3.8680   -1.9810    0.1240 C   0  0  0  0  0  0  0  0  0  0  0  0
   -4.2500   -0.7300   -0.5940 C   0  0  0  0  0  0  0  0  0  0  0  0
  2  1  1  6
  2  3  1  0
  2  4  1  0
  2  8  1  0
  4  5  1  0
  5  6  1  0
  6  7  1  0
  8  9  1  1
  8 10  1  0
 10 11  2  0
 10 17  1  0
 11 12  1  0
 12 13  1  0
 12 14  2  0
 14 15  1  0
 14 16  1  0
 16 17  2  0
 16 20  1  0
 17 18  1  0
 18 19  1  0
 19 20  1  0
M  END
