
     RDKit          3D

 20 22  0  0  0  0  0  0  0  0999 V2000
    4.2670    1.9010   -0.6350 O   0  0  0  0  0  0  0  0  0  0  0  0
    5.0380    0.8930   -0.0960 C   0  0  0  0  0  0  0  0  0  0  0  0
    4.1500   -0.0440    0.7710 C   0  0  1  0  0  0  0  0  0  0  0  0
    3.6330    0.8310    1.7670 O   0  0  0  0  0  0  0  0  0  0  0  0
    3.1140   -0.6480    0.0090 C   0  0  0  0  0  0  0  0  0  0  0  0
    2.1770   -1.1960   -0.6800 O   0  0  0  0  0  0  0  0  0  0  0  0
    0.8000   -0.9950   -0.6420 C   0  0  0  0  0  0  0  0  0  0  0  0
    0.2450   -0.0960    0.2340 C   0  0  0  0  0  0  0  0  0  0  0  0
   -1.1190    0.1310    0.2930 C   0  0  0  0  0  0  0  0  0  0  0  0
   -1.8960   -0.5920   -0.5700 C   0  0  0  0  0  0  0  0  0  0  0  0
   -1.3470   -1.4930   -1.4470 C   0  0  0  0  0  0  0  0  0  0  0  0
    0.0110   -1.7260   -1.5140 C   0  0  0  0  0  0  0  0  0  0  0  0
    0.6240   -2.6080   -2.3580 O   0  0  0  0  0  0  0  0  0  0  0  0
   -3.3130   -0.2160   -0.3810 C   0  0  0  0  0  0  0  0  0  0  0  0
   -4.5360   -0.4560   -0.8060 C   0  0  0  0  0  0  0  0  0  0  0  0
   -5.4470    0.3970   -0.0500 C   0  0  0  0  0  0  0  0  0  0  0  0
   -4.5780    1.1550    0.8670 C   0  0  0  0  0  0  0  0  0  0  0  0
   -3.3280    0.7870    0.6620 C   0  0  0  0  0  0  0  0  0  0  0  0
   -1.9270    1.0450    1.1340 C   0  0  2  0  0  0  0  0  0  0  0  0
   -1.5390    2.3630    0.9010 O   0  0  0  0  0  0  0  0  0  0  0  0
  1  2  1  0
  2  3  1  0
  3  4  1  1
  3  5  1  0
  5  6  1  0
  6  7  1  0
  7  8  2  0
  7 12  1  0
  8  9  1  0
  9 10  2  0
  9 19  1  0
 10 11  1  0
 10 14  1  0
 11 12  2  0
 12 13  1  0
 14 15  2  0
 14 18  1  0
 15 16  1  0
 16 17  1  0
 17 18  2  0
 18 19  1  0
 19 20  1  6
M  END
