
     RDKit          3D

 30 33  0  0  0  0  0  0  0  0999 V2000
   -1.8900    4.2110    0.5860 C   0  0  0  0  0  0  0  0  0  0  0  0
   -2.7100    2.9540    0.5630 C   0  0  0  0  0  0  0  0  0  0  0  0
   -3.9850    2.9050    1.0740 C   0  0  0  0  0  0  0  0  0  0  0  0
   -4.7140    1.7370    1.0390 C   0  0  0  0  0  0  0  0  0  0  0  0
   -4.1890    0.5850    0.4940 C   0  0  0  0  0  0  0  0  0  0  0  0
   -2.9100    0.5930   -0.0280 C   0  0  0  0  0  0  0  0  0  0  0  0
   -2.2100    1.7790    0.0220 C   0  0  0  0  0  0  0  0  0  0  0  0
   -2.0850   -0.4470   -0.6580 C   0  0  1  0  0  0  0  0  0  0  0  0
   -0.8490   -0.6950    0.2000 C   0  0  0  0  0  0  0  0  0  0  0  0
    0.0470   -1.4810   -0.5760 O   0  0  0  0  0  0  0  0  0  0  0  0
    0.5070   -0.9720   -1.7750 C   0  0  0  0  0  0  0  0  0  0  0  0
    1.7650   -0.4980   -1.8310 C   0  0  0  0  0  0  0  0  0  0  0  0
    2.6010   -0.5250   -0.6680 C   0  0  0  0  0  0  0  0  0  0  0  0
    3.8310   -0.1200   -0.5180 C   0  0  0  0  0  0  0  0  0  0  0  0
    4.5510    0.4310   -1.5320 C   0  0  0  0  0  0  0  0  0  0  0  0
    4.0710    0.5810   -2.6700 O   0  0  0  0  0  0  0  0  0  0  0  0
    5.8450    0.8420   -1.3220 N   0  0  0  0  0  0  0  0  0  0  0  0
    6.4370    0.7170   -0.1280 C   0  0  0  0  0  0  0  0  0  0  0  0
    5.7550    0.1810    0.8830 N   0  0  0  0  0  0  0  0  0  0  0  0
    4.4820   -0.2350    0.7180 C   0  0  0  0  0  0  0  0  0  0  0  0
    3.8340   -0.7420    1.6670 O   0  0  0  0  0  0  0  0  0  0  0  0
    6.5550    0.1290    2.0870 C   0  0  0  0  0  0  0  0  0  0  0  0
    7.8660    0.7250    1.6690 C   0  0  0  0  0  0  0  0  0  0  0  0
    7.6610    1.0560    0.2480 C   0  0  0  0  0  0  0  0  0  0  0  0
   -2.7350   -1.6250   -1.0510 N   0  0  0  0  0  0  0  0  0  0  0  0
   -3.6890   -2.2430   -0.2190 C   0  0  1  0  0  0  0  0  0  0  0  0
   -3.2950   -2.5320    1.1850 C   0  0  0  0  0  0  0  0  0  0  0  0
   -5.0800   -1.6000   -0.3000 C   0  0  1  0  0  0  0  0  0  0  0  0
   -6.1490   -2.5950    0.0890 C   0  0  0  0  0  0  0  0  0  0  0  0
   -5.0470   -0.4860    0.5390 O   0  0  0  0  0  0  0  0  0  0  0  0
  1  2  1  0
  2  3  2  0
  2  7  1  0
  3  4  1  0
  4  5  2  0
  5  6  1  0
  5 30  1  0
  6  7  2  0
  6  8  1  0
  8  9  1  1
  8 25  1  0
  9 10  1  0
 10 11  1  0
 11 12  2  3
 12 13  1  0
 13 14  2  3
 14 15  1  0
 14 20  1  0
 15 16  2  0
 15 17  1  0
 17 18  1  0
 18 19  1  0
 18 24  2  0
 19 20  1  0
 19 22  1  0
 20 21  2  0
 22 23  1  0
 23 24  1  0
 25 26  1  0
 26 27  1  1
 26 28  1  0
 28 29  1  1
 28 30  1  0
M  CHG  1  25   1
M  END
