
     RDKit          3D

 30 33  0  0  0  0  0  0  0  0999 V2000
    5.9770   -0.5000    0.6230 C   0  0  0  0  0  0  0  0  0  0  0  0
    5.1360   -0.5950   -0.6580 C   0  0  0  0  0  0  0  0  0  0  0  0
    4.0590    0.3620   -0.5750 C   0  0  0  0  0  0  0  0  0  0  0  0
    2.7080    0.1070   -0.6250 C   0  0  0  0  0  0  0  0  0  0  0  0
    2.4270   -1.3140   -0.7750 C   0  0  0  0  0  0  0  0  0  0  0  0
    2.8230   -1.8570   -1.9280 O   0  0  0  0  0  0  0  0  0  0  0  0
    1.8330   -2.1960    0.0450 O   0  0  0  0  0  0  0  0  0  0  0  0
    1.6340   -2.7870    1.1910 C   0  0  0  0  0  0  0  0  0  0  0  0
    0.6000   -3.6600    1.3910 C   0  0  0  0  0  0  0  0  0  0  0  0
   -0.3280   -3.9520    0.2850 C   0  0  0  0  0  0  0  0  0  0  0  0
   -0.8480   -2.6620   -0.3590 C   0  0  0  0  0  0  0  0  0  0  0  0
   -1.2640   -1.6380    0.5840 C   0  0  0  0  0  0  0  0  0  0  0  0
   -0.7080   -0.3350    0.5920 N   0  0  2  0  0  0  0  0  0  0  0  0
   -1.2800    0.4670    1.6730 C   0  0  0  0  0  0  0  0  0  0  0  0
   -0.2250    1.0190    2.6120 C   0  0  0  0  0  0  0  0  0  0  0  0
   -0.7230    0.3980   -0.7020 C   0  0  1  0  0  0  0  0  0  0  0  0
   -2.0740    0.9430   -0.8980 C   0  0  0  0  0  0  0  0  0  0  0  0
   -2.3820    2.2100   -0.8180 C   0  0  0  0  0  0  0  0  0  0  0  0
   -3.6980    2.8040   -0.9860 C   0  0  0  0  0  0  0  0  0  0  0  0
   -4.7150    1.9350   -1.5870 C   0  0  0  0  0  0  0  0  0  0  0  0
   -4.5900    0.5330   -0.9560 C   0  0  0  0  0  0  0  0  0  0  0  0
   -3.1810    0.0700   -1.3040 C   0  0  0  0  0  0  0  0  0  0  0  0
   -3.0850   -0.9940   -1.9010 O   0  0  0  0  0  0  0  0  0  0  0  0
   -1.2890    3.1690   -0.6600 N   0  0  0  0  0  0  0  0  0  0  0  0
    0.0110    2.6620   -0.5940 C   0  0  0  0  0  0  0  0  0  0  0  0
    0.3640    1.4110   -0.6250 C   0  0  0  0  0  0  0  0  0  0  0  0
    1.7790    1.2380   -0.5950 C   0  0  0  0  0  0  0  0  0  0  0  0
    2.2510    2.4930   -0.5360 N   0  0  0  0  0  0  0  0  0  0  0  0
    1.2900    3.4520   -0.5260 C   0  0  0  0  0  0  0  0  0  0  0  0
    1.3540    4.7080   -0.4750 O   0  0  0  0  0  0  0  0  0  0  0  0
  1  2  1  0
  2  3  1  0
  3  4  2  3
  4  5  1  0
  4 27  1  0
  5  6  2  0
  5  7  1  0
  7  8  1  0
  8  9  2  0
  9 10  1  0
 10 11  1  0
 11 12  1  0
 12 13  1  0
 13 14  1  1
 13 16  1  0
 14 15  1  0
 16 17  1  1
 16 26  1  0
 17 18  2  0
 17 22  1  0
 18 19  1  0
 18 24  1  0
 19 20  1  0
 20 21  1  0
 21 22  1  0
 22 23  2  0
 24 25  1  0
 25 26  2  0
 25 29  1  0
 26 27  1  0
 27 28  2  0
 28 29  1  0
 29 30  2  0
M  CHG  1  13   1
M  END
