
     RDKit          3D

 30 33  0  0  0  0  0  0  0  0999 V2000
   -7.3380    1.6160   -0.9680 C   0  0  0  0  0  0  0  0  0  0  0  0
   -6.7600    0.2250   -1.0610 C   0  0  0  0  0  0  0  0  0  0  0  0
   -5.3630    0.2420   -0.5530 C   0  0  0  0  0  0  0  0  0  0  0  0
   -4.2780    0.2110   -1.4250 C   0  0  0  0  0  0  0  0  0  0  0  0
   -2.9750    0.2290   -0.9590 C   0  0  0  0  0  0  0  0  0  0  0  0
   -2.7670    0.2800    0.3880 C   0  0  0  0  0  0  0  0  0  0  0  0
   -3.8230    0.3120    1.2510 C   0  0  0  0  0  0  0  0  0  0  0  0
   -5.1490    0.2940    0.8060 C   0  0  0  0  0  0  0  0  0  0  0  0
   -6.3050    0.3240    1.7260 C   0  0  0  0  0  0  0  0  0  0  0  0
   -1.3770    0.3000    0.8730 C   0  0  1  0  0  0  0  0  0  0  0  0
   -1.3810    0.0110    2.2200 O   0  0  0  0  0  0  0  0  0  0  0  0
   -0.5740   -0.6030    0.0230 C   0  0  2  0  0  0  0  0  0  0  0  0
    0.7290   -0.9420    0.4840 N   0  0  2  0  0  0  0  0  0  0  0  0
    0.8280   -1.1810    1.8910 C   0  0  0  0  0  0  0  0  0  0  0  0
    2.1110   -1.9710    2.1500 C   0  0  0  0  0  0  0  0  0  0  0  0
    3.2580   -1.0910    1.7080 C   0  0  0  0  0  0  0  0  0  0  0  0
    3.1290   -0.6990    0.2800 C   0  0  2  0  0  0  0  0  0  0  0  0
    3.1080   -1.9010   -0.6570 C   0  0  0  0  0  0  0  0  0  0  0  0
    4.1630    0.1300   -0.1400 O   0  0  0  0  0  0  0  0  0  0  0  0
    5.4850   -0.2370   -0.1210 C   0  0  0  0  0  0  0  0  0  0  0  0
    5.7650   -1.3960    0.3000 O   0  0  0  0  0  0  0  0  0  0  0  0
    6.5660    0.6330   -0.5590 C   0  0  0  0  0  0  0  0  0  0  0  0
    7.8990    0.2950   -0.5530 C   0  0  0  0  0  0  0  0  0  0  0  0
    8.6320    1.3370   -1.0240 N   0  0  0  0  0  0  0  0  0  0  0  0
    7.7850    2.3150   -1.3230 N   0  0  0  0  0  0  0  0  0  0  0  0
    6.5100    1.9180   -1.0510 C   0  0  0  0  0  0  0  0  0  0  0  0
    5.3690    2.6730   -1.2360 O   0  0  0  0  0  0  0  0  0  0  0  0
    1.7660   -0.0140    0.0860 C   0  0  0  0  0  0  0  0  0  0  0  0
   -0.5150    0.0320   -1.3590 C   0  0  0  0  0  0  0  0  0  0  0  0
   -1.8770    0.1930   -1.9640 C   0  0  0  0  0  0  0  0  0  0  0  0
  1  2  1  0
  2  3  1  0
  3  4  2  0
  3  8  1  0
  4  5  1  0
  5  6  2  0
  5 30  1  0
  6  7  1  0
  6 10  1  0
  7  8  2  0
  8  9  1  0
 10 11  1  1
 10 12  1  0
 12 13  1  0
 12 29  1  6
 13 14  1  1
 13 28  1  0
 14 15  1  0
 15 16  1  0
 16 17  1  0
 17 18  1  6
 17 19  1  0
 17 28  1  0
 19 20  1  0
 20 21  2  0
 20 22  1  0
 22 23  2  0
 22 26  1  0
 23 24  1  0
 24 25  1  0
 25 26  2  0
 26 27  1  0
 29 30  1  0
M  CHG  1  13   1
M  END
