
     RDKit          3D

 31 33  0  0  0  0  0  0  0  0999 V2000
   -7.9010    1.8260    0.5450 C   0  0  0  0  0  0  0  0  0  0  0  0
   -6.5990    1.0560    0.7540 C   0  0  0  0  0  0  0  0  0  0  0  0
   -6.4930    0.3390    2.0200 C   0  0  0  0  0  0  0  0  0  0  0  0
   -5.7360    1.1550   -0.2150 C   0  0  0  0  0  0  0  0  0  0  0  0
   -5.9570    1.9680   -1.4860 C   0  0  0  0  0  0  0  0  0  0  0  0
   -4.6300    2.4730   -1.6480 O   0  0  0  0  0  0  0  0  0  0  0  0
   -3.7430    1.4260   -1.2960 C   0  0  0  0  0  0  0  0  0  0  0  0
   -2.3780    1.2820   -1.7960 C   0  0  0  0  0  0  0  0  0  0  0  0
   -4.3770    0.6100   -0.4360 C   0  0  0  0  0  0  0  0  0  0  0  0
   -3.9480   -0.6170    0.2170 C   0  0  1  0  0  0  0  0  0  0  0  0
   -4.7710   -1.8220   -0.1800 C   0  0  0  0  0  0  0  0  0  0  0  0
   -3.9710   -2.4360   -1.2980 C   0  0  0  0  0  0  0  0  0  0  0  0
   -2.5430   -2.1720   -0.8240 C   0  0  0  0  0  0  0  0  0  0  0  0
   -2.5650   -1.0270    0.0320 N   0  0  0  0  0  0  0  0  0  0  0  0
   -1.4880   -0.3950    0.6430 C   0  0  0  0  0  0  0  0  0  0  0  0
   -1.6940    0.6580    1.3780 O   0  0  0  0  0  0  0  0  0  0  0  0
   -0.0830   -0.8270    0.5310 C   0  0  0  0  0  0  0  0  0  0  0  0
    0.5520   -1.8350   -0.0740 C   0  0  0  0  0  0  0  0  0  0  0  0
    1.8900   -1.9280    0.0170 C   0  0  0  0  0  0  0  0  0  0  0  0
    2.5900   -1.0370    0.6970 C   0  0  0  0  0  0  0  0  0  0  0  0
    3.9770   -0.8210    1.0020 C   0  0  0  0  0  0  0  0  0  0  0  0
    4.3250    0.1580    1.7000 O   0  0  0  0  0  0  0  0  0  0  0  0
    4.9150   -1.7460    0.4880 N   0  0  0  0  0  0  0  0  0  0  0  0
    6.3120   -1.5800    0.7600 C   0  0  0  0  0  0  0  0  0  0  0  0
    6.7760   -0.2770    0.2280 C   0  0  0  0  0  0  0  0  0  0  0  0
    5.9760    0.4870   -0.3570 O   0  0  0  0  0  0  0  0  0  0  0  0
    8.0890    0.1520    0.3480 O   0  0  0  0  0  0  0  0  0  0  0  0
    8.4900    1.4040   -0.1750 C   0  0  2  0  0  0  0  0  0  0  0  0
    9.5160    1.1090   -1.2720 C   0  0  0  0  0  0  0  0  0  0  0  0
    9.1390    2.2800    0.8480 C   0  0  0  0  0  0  0  0  0  0  0  0
    1.2440    0.0700    1.2870 S   0  0  0  0  0  0  0  0  0  0  0  0
  1  2  1  0
  2  3  1  0
  2  4  2  3
  4  5  1  0
  4  9  1  0
  5  6  1  0
  6  7  1  0
  7  8  1  0
  7  9  2  0
 10  9  1  6
 10 11  1  0
 10 14  1  0
 11 12  1  0
 12 13  1  0
 13 14  1  0
 14 15  1  0
 15 16  2  0
 15 17  1  0
 17 18  2  0
 17 31  1  0
 18 19  1  0
 19 20  2  0
 20 21  1  0
 20 31  1  0
 21 22  2  0
 21 23  1  0
 23 24  1  0
 24 25  1  0
 25 26  2  0
 25 27  1  0
 27 28  1  0
 28 29  1  6
 28 30  1  0
M  END
