
     RDKit          3D

 30 33  0  0  0  0  0  0  0  0999 V2000
   -3.6120   -3.4700    0.0340 C   0  0  0  0  0  0  0  0  0  0  0  0
   -3.0860   -2.0150    0.0360 C   0  0  0  0  0  0  0  0  0  0  0  0
   -1.6450   -2.1150   -0.3640 C   0  0  2  0  0  0  0  0  0  0  0  0
   -0.9460   -2.9570    0.6010 C   0  0  0  0  0  0  0  0  0  0  0  0
   -1.4800   -4.0010    1.1130 O   0  0  0  0  0  0  0  0  0  0  0  0
    0.3980   -2.6520    1.0320 C   0  0  0  0  0  0  0  0  0  0  0  0
    1.0170   -1.6160    0.5110 C   0  0  0  0  0  0  0  0  0  0  0  0
    2.3150   -1.3940    0.9800 C   0  0  0  0  0  0  0  0  0  0  0  0
    2.8690   -2.4120    1.8810 C   0  0  0  0  0  0  0  0  0  0  0  0
    3.0170   -0.3000    0.5420 C   0  0  0  0  0  0  0  0  0  0  0  0
    4.3670   -0.0430    0.9960 C   0  0  0  0  0  0  0  0  0  0  0  0
    4.8760   -0.7910    1.9310 O   0  0  0  0  0  0  0  0  0  0  0  0
    5.2640    0.9500    0.5520 N   0  0  0  0  0  0  0  0  0  0  0  0
    5.1820    1.9470   -0.4500 C   0  0  0  0  0  0  0  0  0  0  0  0
    6.6140    2.4800   -0.6600 C   0  0  0  0  0  0  0  0  0  0  0  0
    7.4750    1.4170    0.0290 C   0  0  0  0  0  0  0  0  0  0  0  0
    6.5930    1.1200    1.1980 C   0  0  0  0  0  0  0  0  0  0  0  0
    2.3840    0.4990   -0.3360 N   0  0  0  0  0  0  0  0  0  0  0  0
    1.1260    0.2990   -0.8060 C   0  0  0  0  0  0  0  0  0  0  0  0
    0.7210    1.1430   -1.6260 O   0  0  0  0  0  0  0  0  0  0  0  0
    0.3670   -0.7890   -0.3930 C   0  0  0  0  0  0  0  0  0  0  0  0
   -0.9070   -0.9650   -0.8030 C   0  0  0  0  0  0  0  0  0  0  0  0
   -1.3760    0.0940   -1.7230 C   0  0  0  0  0  0  0  0  0  0  0  0
   -2.8120    0.5720   -1.6460 C   0  0  0  0  0  0  0  0  0  0  0  0
   -3.2000    1.1500   -0.4110 N   0  0  0  0  0  0  0  0  0  0  0  0
   -4.6560    1.0940   -0.3100 C   0  0  2  0  0  0  0  0  0  0  0  0
   -5.3150    2.4120   -0.5580 C   0  0  0  0  0  0  0  0  0  0  0  0
   -6.2830    2.5880    0.5840 C   0  0  0  0  0  0  0  0  0  0  0  0
   -6.3290    1.3670    1.2440 O   0  0  0  0  0  0  0  0  0  0  0  0
   -5.0820    0.7760    1.1090 C   0  0  0  0  0  0  0  0  0  0  0  0
  1  2  1  0
  3  2  1  1
  3  4  1  0
  3 22  1  0
  4  5  2  0
  4  6  1  0
  6  7  2  0
  7  8  1  0
  7 21  1  0
  8  9  1  0
  8 10  2  0
 10 11  1  0
 10 18  1  0
 11 12  2  0
 11 13  1  0
 13 14  1  0
 13 17  1  0
 14 15  1  0
 15 16  1  0
 16 17  1  0
 18 19  1  0
 19 20  2  0
 19 21  1  0
 21 22  2  0
 22 23  1  0
 23 24  1  0
 24 25  1  0
 26 25  1  1
 26 27  1  0
 26 30  1  0
 27 28  1  0
 28 29  1  0
 29 30  1  0
M  CHG  1  25   1
M  END
