
     RDKit          3D

 31 33  0  0  0  0  0  0  0  0999 V2000
    8.6030   -0.8040    2.7390 C   0  0  0  0  0  0  0  0  0  0  0  0
    7.7170   -0.6260    1.8010 C   0  0  0  0  0  0  0  0  0  0  0  0
    6.3410   -0.5690    1.9910 N   0  0  0  0  0  0  0  0  0  0  0  0
    5.4080   -0.3990    1.1390 C   0  0  0  0  0  0  0  0  0  0  0  0
    4.1060   -0.3820    1.5940 C   0  0  0  0  0  0  0  0  0  0  0  0
    3.0020   -0.2030    0.7490 C   0  0  0  0  0  0  0  0  0  0  0  0
    3.1890   -0.0340   -0.5940 C   0  0  0  0  0  0  0  0  0  0  0  0
    2.1350    0.1700   -1.5410 N   0  0  0  0  0  0  0  0  0  0  0  0
    0.7880    0.4100   -1.2490 C   0  0  0  0  0  0  0  0  0  0  0  0
    0.3900    0.4690   -0.0800 O   0  0  0  0  0  0  0  0  0  0  0  0
   -0.1700    0.5940   -2.4120 C   0  0  0  0  0  0  0  0  0  0  0  0
   -1.4560    0.7330   -1.8620 O   0  0  0  0  0  0  0  0  0  0  0  0
   -2.0650   -0.2850   -1.1270 C   0  0  0  0  0  0  0  0  0  0  0  0
   -1.4330   -1.4930   -0.9300 C   0  0  0  0  0  0  0  0  0  0  0  0
   -2.0870   -2.4620   -0.1900 C   0  0  0  0  0  0  0  0  0  0  0  0
   -1.3790   -3.7610    0.0080 C   0  0  0  0  0  0  0  0  0  0  0  0
   -3.3390   -2.2370    0.3430 C   0  0  0  0  0  0  0  0  0  0  0  0
   -3.9500   -1.0140    0.1290 C   0  0  0  0  0  0  0  0  0  0  0  0
   -5.2250   -0.7790    0.6680 O   0  0  0  0  0  0  0  0  0  0  0  0
   -5.8600   -1.7840    1.4140 C   0  0  0  0  0  0  0  0  0  0  0  0
   -3.3260   -0.0320   -0.6020 C   0  0  0  0  0  0  0  0  0  0  0  0
   -3.9710    1.1760   -0.7930 O   0  0  0  0  0  0  0  0  0  0  0  0
   -3.7950    2.1980    0.1020 C   0  0  0  0  0  0  0  0  0  0  0  0
   -3.0510    2.0170    1.0780 O   0  0  0  0  0  0  0  0  0  0  0  0
   -4.4520    3.5070   -0.0430 C   0  0  0  0  0  0  0  0  0  0  0  0
   -5.2470    3.7420   -1.0610 C   0  0  0  0  0  0  0  0  0  0  0  0
   -4.2280    4.5810    0.9550 C   0  0  0  0  0  0  0  0  0  0  0  0
    4.4990   -0.0530   -1.0340 C   0  0  0  0  0  0  0  0  0  0  0  0
    5.6130   -0.2300   -0.2120 C   0  0  0  0  0  0  0  0  0  0  0  0
    6.7890   -0.2200   -0.8120 C   0  0  0  0  0  0  0  0  0  0  0  0
    8.2840   -0.4330    0.1080 S   0  0  0  0  0  0  0  0  0  0  0  0
  1  2  2  0
  2  3  1  0
  2 31  1  0
  3  4  2  0
  4  5  1  0
  4 29  1  0
  5  6  2  0
  6  7  1  0
  7  8  1  0
  7 28  2  0
  8  9  1  0
  9 10  2  0
  9 11  1  0
 11 12  1  0
 12 13  1  0
 13 14  2  0
 13 21  1  0
 14 15  1  0
 15 16  1  0
 15 17  2  0
 17 18  1  0
 18 19  1  0
 18 21  2  0
 19 20  1  0
 21 22  1  0
 22 23  1  0
 23 24  2  0
 23 25  1  0
 25 26  2  0
 25 27  1  0
 28 29  1  0
 29 30  2  0
 30 31  1  0
M  END
