
     RDKit          3D

 29 30  0  0  0  0  0  0  0  0999 V2000
   -4.8510    3.6400    0.3580 C   0  0  0  0  0  0  0  0  0  0  0  0
   -5.6500    2.6490   -0.1740 O   0  0  0  0  0  0  0  0  0  0  0  0
   -5.2790    2.2220   -1.4090 C   0  0  0  0  0  0  0  0  0  0  0  0
   -3.9910    1.4970   -1.5010 C   0  0  0  0  0  0  0  0  0  0  0  0
   -3.4960    1.2880   -2.6720 O   0  0  0  0  0  0  0  0  0  0  0  0
   -3.2410    1.0020   -0.4160 N   0  0  0  0  0  0  0  0  0  0  0  0
   -1.9360    0.2850   -0.6220 C   0  0  1  0  0  0  0  0  0  0  0  0
   -0.9900    1.0870    0.1610 C   0  0  0  0  0  0  0  0  0  0  0  0
    0.4030    0.7800    0.2770 C   0  0  0  0  0  0  0  0  0  0  0  0
    0.8480    0.0950    1.3920 C   0  0  0  0  0  0  0  0  0  0  0  0
    2.1660   -0.2460    1.6000 C   0  0  0  0  0  0  0  0  0  0  0  0
    3.1170    0.0990    0.6670 C   0  0  0  0  0  0  0  0  0  0  0  0
    4.5150   -0.2660    0.8960 C   0  0  0  0  0  0  0  0  0  0  0  0
    4.8390   -1.4190    1.5830 C   0  0  0  0  0  0  0  0  0  0  0  0
    6.1530   -1.7890    1.8150 C   0  0  0  0  0  0  0  0  0  0  0  0
    6.4730   -3.2840    2.7050 Cl  0  0  0  0  0  0  0  0  0  0  0  0
    7.1750   -1.0080    1.3600 C   0  0  0  0  0  0  0  0  0  0  0  0
    6.8810    0.1650    0.6620 C   0  0  0  0  0  0  0  0  0  0  0  0
    8.2350    1.1120    0.1110 Cl  0  0  0  0  0  0  0  0  0  0  0  0
    5.5640    0.5110    0.4440 C   0  0  0  0  0  0  0  0  0  0  0  0
    2.6950    0.7780   -0.4440 C   0  0  0  0  0  0  0  0  0  0  0  0
    1.3820    1.1170   -0.6500 C   0  0  0  0  0  0  0  0  0  0  0  0
   -2.1940   -1.1100   -0.1400 C   0  0  2  0  0  0  0  0  0  0  0  0
   -2.4740   -1.2280    1.2090 O   0  0  0  0  0  0  0  0  0  0  0  0
   -1.3530   -2.1900   -0.7070 C   0  0  1  0  0  0  0  0  0  0  0  0
   -0.1170   -2.3880   -0.1680 O   0  0  0  0  0  0  0  0  0  0  0  0
   -2.0980   -3.4910   -0.6020 C   0  0  0  0  0  0  0  0  0  0  0  0
   -3.2830   -3.5880   -1.0300 O   0  0  0  0  0  0  0  0  0  0  0  0
   -1.5030   -4.6020   -0.0390 O   0  0  0  0  0  0  0  0  0  0  0  0
  1  2  1  0
  2  3  1  0
  3  4  1  0
  4  5  2  0
  4  6  1  0
  6  7  1  0
  7  8  1  1
  7 23  1  0
  8  9  1  0
  9 10  2  0
  9 22  1  0
 10 11  1  0
 11 12  2  0
 12 13  1  0
 12 21  1  0
 13 14  2  0
 13 20  1  0
 14 15  1  0
 15 16  1  0
 15 17  2  0
 17 18  1  0
 18 19  1  0
 18 20  2  0
 21 22  2  0
 23 24  1  1
 23 25  1  0
 25 26  1  1
 25 27  1  0
 27 28  2  0
 27 29  1  0
M  END
