
     RDKit          3D

 31 33  0  0  0  0  0  0  0  0999 V2000
   -5.3020   -2.4020   -1.1910 C   0  0  0  0  0  0  0  0  0  0  0  0
   -6.1080   -1.4160   -1.0280 C   0  0  0  0  0  0  0  0  0  0  0  0
   -5.9120   -0.0900   -0.5110 C   0  0  0  0  0  0  0  0  0  0  0  0
   -7.0220    0.6760   -0.5180 C   0  0  0  0  0  0  0  0  0  0  0  0
   -7.3960    2.0310   -0.1350 C   0  0  0  0  0  0  0  0  0  0  0  0
   -6.7070    3.1770   -0.0800 C   0  0  0  0  0  0  0  0  0  0  0  0
   -5.3320    3.5550   -0.3670 C   0  0  0  0  0  0  0  0  0  0  0  0
   -4.1870    2.8430   -0.3370 C   0  0  0  0  0  0  0  0  0  0  0  0
   -3.8960    1.4370   -0.0090 C   0  0  0  0  0  0  0  0  0  0  0  0
   -2.2910    1.0580    0.6700 S   0  0  0  0  0  0  0  0  0  0  0  0
   -2.6920   -0.7840    0.8350 C   0  0  0  0  0  0  0  0  0  0  0  0
   -1.6370   -1.6810    1.3950 C   0  0  1  0  0  0  0  0  0  0  0  0
   -2.1020   -3.0830    1.1680 C   0  0  0  0  0  0  0  0  0  0  0  0
   -0.3750   -1.4160    0.8470 O   0  0  0  0  0  0  0  0  0  0  0  0
    0.7170   -0.9820    1.5470 C   0  0  0  0  0  0  0  0  0  0  0  0
    0.6120   -0.7980    2.7860 O   0  0  0  0  0  0  0  0  0  0  0  0
    2.0060   -0.7330    0.8610 C   0  0  0  0  0  0  0  0  0  0  0  0
    3.1020   -0.2980    1.5670 C   0  0  0  0  0  0  0  0  0  0  0  0
    4.2970   -0.0640    0.9450 C   0  0  0  0  0  0  0  0  0  0  0  0
    4.4380   -0.2560   -0.4000 C   0  0  0  0  0  0  0  0  0  0  0  0
    5.7140   -0.0040   -1.0430 C   0  0  0  0  0  0  0  0  0  0  0  0
    5.7900   -0.1960   -2.3020 O   0  0  0  0  0  0  0  0  0  0  0  0
    6.8760    0.4390   -0.3860 N   0  0  0  0  0  0  0  0  0  0  0  0
    8.0990    0.6610   -1.1220 C   0  0  0  0  0  0  0  0  0  0  0  0
    8.1080    0.4510   -2.3690 O   0  0  0  0  0  0  0  0  0  0  0  0
    9.2340    1.0980   -0.4480 O   0  0  0  0  0  0  0  0  0  0  0  0
   10.4380    1.3180   -1.1670 C   0  0  0  0  0  0  0  0  0  0  0  0
    3.3360   -0.6970   -1.1270 C   0  0  0  0  0  0  0  0  0  0  0  0
    2.1360   -0.9300   -0.4940 C   0  0  0  0  0  0  0  0  0  0  0  0
   -3.8130   -0.7870    0.4070 N   0  0  0  0  0  0  0  0  0  0  0  0
   -4.5320    0.1970   -0.0390 C   0  0  0  0  0  0  0  0  0  0  0  0
  1  2  2  0
  2  3  1  0
  3  4  2  0
  3 31  1  0
  4  5  1  0
  5  6  2  0
  6  7  1  0
  7  8  2  0
  8  9  1  0
  9 10  1  0
  9 31  2  0
 10 11  1  0
 11 12  1  0
 11 30  2  0
 12 13  1  6
 12 14  1  0
 14 15  1  0
 15 16  2  0
 15 17  1  0
 17 18  2  0
 17 29  1  0
 18 19  1  0
 19 20  2  0
 20 21  1  0
 20 28  1  0
 21 22  2  0
 21 23  1  0
 23 24  1  0
 24 25  2  0
 24 26  1  0
 26 27  1  0
 28 29  2  0
 30 31  1  0
M  END
