
     RDKit          3D

 28 31  0  0  0  0  0  0  0  0999 V2000
    6.1820   -1.4670    1.7100 N   0  0  0  0  0  0  0  0  0  0  0  0
    5.2180   -0.8020    1.2030 C   0  0  0  0  0  0  0  0  0  0  0  0
    3.9470   -1.2070    1.4000 N   0  0  0  0  0  0  0  0  0  0  0  0
    2.9030   -0.5310    0.8810 C   0  0  0  0  0  0  0  0  0  0  0  0
    1.5940   -0.9340    1.0740 C   0  0  0  0  0  0  0  0  0  0  0  0
    0.5280   -0.2400    0.5420 C   0  0  0  0  0  0  0  0  0  0  0  0
    0.7960    0.8880   -0.2030 C   0  0  0  0  0  0  0  0  0  0  0  0
   -0.2550    1.5970   -0.7440 O   0  0  0  0  0  0  0  0  0  0  0  0
   -1.5550    1.1790   -0.5420 C   0  0  0  0  0  0  0  0  0  0  0  0
   -2.0810    0.2980   -1.4740 C   0  0  0  0  0  0  0  0  0  0  0  0
   -3.3720   -0.1380   -1.3040 C   0  0  0  0  0  0  0  0  0  0  0  0
   -4.1590    0.2620   -0.2520 C   0  0  0  0  0  0  0  0  0  0  0  0
   -5.5200   -0.1900   -0.0580 C   0  0  0  0  0  0  0  0  0  0  0  0
   -6.4990    0.5730    0.5360 C   0  0  0  0  0  0  0  0  0  0  0  0
   -7.7770    0.0700    0.6850 C   0  0  0  0  0  0  0  0  0  0  0  0
   -8.0820   -1.2000    0.2400 C   0  0  0  0  0  0  0  0  0  0  0  0
   -7.0980   -1.9670   -0.3580 C   0  0  0  0  0  0  0  0  0  0  0  0
   -5.8300   -1.4690   -0.5060 C   0  0  0  0  0  0  0  0  0  0  0  0
   -3.6100    1.1360    0.6570 C   0  0  0  0  0  0  0  0  0  0  0  0
   -2.3230    1.5980    0.5250 C   0  0  0  0  0  0  0  0  0  0  0  0
    2.1230    1.2900   -0.3950 C   0  0  0  0  0  0  0  0  0  0  0  0
    3.1850    0.5940    0.1390 C   0  0  0  0  0  0  0  0  0  0  0  0
    4.5110    0.9890   -0.0480 C   0  0  0  0  0  0  0  0  0  0  0  0
    4.7410    2.0240   -0.7320 O   0  0  0  0  0  0  0  0  0  0  0  0
    5.5290    0.2880    0.4860 N   0  0  0  0  0  0  0  0  0  0  0  0
    6.8620    0.7200    0.2740 C   0  0  0  0  0  0  0  0  0  0  0  0
    7.5350    0.1610   -0.9430 C   0  0  0  0  0  0  0  0  0  0  0  0
    6.6780    0.5840   -2.4410 Cl  0  0  0  0  0  0  0  0  0  0  0  0
  1  2  2  0
  2  3  1  0
  2 25  1  0
  3  4  1  0
  4  5  2  0
  4 22  1  0
  5  6  1  0
  6  7  2  0
  7  8  1  0
  7 21  1  0
  8  9  1  0
  9 10  2  0
  9 20  1  0
 10 11  1  0
 11 12  2  0
 12 13  1  0
 12 19  1  0
 13 14  2  0
 13 18  1  0
 14 15  1  0
 15 16  2  0
 16 17  1  0
 17 18  2  0
 19 20  2  0
 21 22  2  0
 22 23  1  0
 23 24  2  0
 23 25  1  0
 25 26  1  0
 26 27  1  0
 27 28  1  0
M  END
