
     RDKit          3D

 22 23  0  0  0  0  0  0  0  0999 V2000
    5.7620   -0.3990    1.0420 C   0  0  0  0  0  0  0  0  0  0  0  0
    4.5210   -0.1100    0.7940 C   0  0  0  0  0  0  0  0  0  0  0  0
    4.0610    0.0090   -0.6490 C   0  0  0  0  0  0  0  0  0  0  0  0
    2.7200   -0.5790   -0.7370 N   0  0  0  0  0  0  0  0  0  0  0  0
    1.7160   -0.0060    0.1180 C   0  0  0  0  0  0  0  0  0  0  0  0
    0.4220   -0.0340   -0.0760 C   0  0  0  0  0  0  0  0  0  0  0  0
   -0.6190    0.5020    0.7650 C   0  0  0  0  0  0  0  0  0  0  0  0
   -0.5140    1.0370    1.9150 O   0  0  0  0  0  0  0  0  0  0  0  0
   -1.8740    0.3230    0.0710 N   0  0  0  0  0  0  0  0  0  0  0  0
   -3.1230    0.7540    0.6220 C   0  0  0  0  0  0  0  0  0  0  0  0
   -3.8520   -0.3210    1.3880 C   0  0  0  0  0  0  0  0  0  0  0  0
   -2.9410   -0.7620    2.5410 C   0  0  0  0  0  0  0  0  0  0  0  0
   -1.5990   -0.3100   -1.1580 C   0  0  0  0  0  0  0  0  0  0  0  0
   -2.5440   -0.7470   -2.1840 C   0  0  0  0  0  0  0  0  0  0  0  0
   -3.8320   -0.6230   -2.2080 C   0  0  0  0  0  0  0  0  0  0  0  0
   -4.5770   -1.1480   -3.3690 C   0  0  0  0  0  0  0  0  0  0  0  0
   -3.9520   -1.6930   -4.2920 O   0  0  0  0  0  0  0  0  0  0  0  0
   -0.2650   -0.5290   -1.2750 C   0  0  0  0  0  0  0  0  0  0  0  0
    0.3950   -1.1240   -2.4800 C   0  0  0  0  0  0  0  0  0  0  0  0
    2.3110    0.7490    1.1940 N   0  0  0  0  0  0  0  0  0  0  0  0
    1.9190    2.0620    1.5840 C   0  0  0  0  0  0  0  0  0  0  0  0
    3.4740    0.1230    1.8530 C   0  0  0  0  0  0  0  0  0  0  0  0
  1  2  2  0
  2  3  1  0
  2 22  1  0
  3  4  1  0
  4  5  1  0
  5  6  2  3
  5 20  1  0
  6  7  1  0
  6 18  1  0
  7  8  2  0
  7  9  1  0
  9 10  1  0
  9 13  1  0
 10 11  1  0
 11 12  1  0
 13 14  1  0
 13 18  2  0
 14 15  2  3
 15 16  1  0
 16 17  2  0
 18 19  1  0
 20 21  1  0
 20 22  1  0
M  END
