
     RDKit          3D

 22 23  0  0  0  0  0  0  0  0999 V2000
    6.5950    1.9800   -0.8390 C   0  0  0  0  0  0  0  0  0  0  0  0
    5.1170    1.9280   -0.7170 C   0  0  0  0  0  0  0  0  0  0  0  0
    4.5020    0.8610   -0.2330 C   0  0  0  0  0  0  0  0  0  0  0  0
    5.3440   -0.2860    0.1850 C   0  0  0  0  0  0  0  0  0  0  0  0
    3.0470    0.7880   -0.1160 C   0  0  0  0  0  0  0  0  0  0  0  0
    2.5000   -0.3100    0.3840 C   0  0  0  0  0  0  0  0  0  0  0  0
    1.1000   -0.4800    0.5370 N   0  0  0  0  0  0  0  0  0  0  0  0
    0.5460   -1.6380    0.3860 C   0  0  0  0  0  0  0  0  0  0  0  0
    1.1890   -2.9100    0.0550 C   0  0  0  0  0  0  0  0  0  0  0  0
    2.4170   -3.1110   -0.1510 O   0  0  0  0  0  0  0  0  0  0  0  0
    0.1100   -3.9030    0.0110 C   0  0  0  0  0  0  0  0  0  0  0  0
   -1.0380   -3.3170    0.2790 C   0  0  0  0  0  0  0  0  0  0  0  0
   -0.8360   -1.9220    0.5190 N   0  0  0  0  0  0  0  0  0  0  0  0
   -1.8860   -0.9700    0.8410 C   0  0  0  0  0  0  0  0  0  0  0  0
   -2.7700   -0.8100   -0.3710 C   0  0  0  0  0  0  0  0  0  0  0  0
   -2.4800   -1.4660   -1.4020 O   0  0  0  0  0  0  0  0  0  0  0  0
   -3.8920    0.0450   -0.3600 N   0  0  0  0  0  0  0  0  0  0  0  0
   -4.6930    0.1400   -1.5650 C   0  0  0  0  0  0  0  0  0  0  0  0
   -4.7210    1.5660   -1.9680 C   0  0  0  0  0  0  0  0  0  0  0  0
   -4.7840    2.4900   -1.0160 C   0  0  0  0  0  0  0  0  0  0  0  0
   -4.8280    2.1750    0.4270 C   0  0  0  0  0  0  0  0  0  0  0  0
   -4.2980    0.8280    0.7790 C   0  0  0  0  0  0  0  0  0  0  0  0
  1  2  1  0
  2  3  2  3
  3  4  1  0
  3  5  1  0
  5  6  2  3
  6  7  1  0
  7  8  2  3
  8  9  1  0
  8 13  1  0
  9 10  2  0
  9 11  1  0
 11 12  2  0
 12 13  1  0
 13 14  1  0
 14 15  1  0
 15 16  2  0
 15 17  1  0
 17 18  1  0
 17 22  1  0
 18 19  1  0
 19 20  2  0
 20 21  1  0
 21 22  1  0
M  END
