
     RDKit          3D

 28 31  0  0  0  0  0  0  0  0999 V2000
   -3.6980   -2.8220    1.9920 C   0  0  0  0  0  0  0  0  0  0  0  0
   -2.7190   -2.4970    1.1740 C   0  0  0  0  0  0  0  0  0  0  0  0
   -2.9430   -2.0040   -0.1890 C   0  0  0  0  0  0  0  0  0  0  0  0
   -2.4020   -0.6710   -0.4310 N   0  0  0  0  0  0  0  0  0  0  0  0
   -1.1440   -0.5400   -0.8860 C   0  0  0  0  0  0  0  0  0  0  0  0
   -0.2720   -1.6570   -1.1280 N   0  0  0  0  0  0  0  0  0  0  0  0
    1.0730   -1.4080   -1.6120 C   0  0  0  0  0  0  0  0  0  0  0  0
    1.9460   -0.7250   -0.6590 C   0  0  0  0  0  0  0  0  0  0  0  0
    1.5560   -0.3760    0.6050 C   0  0  0  0  0  0  0  0  0  0  0  0
    2.4450    0.2610    1.4640 C   0  0  0  0  0  0  0  0  0  0  0  0
    3.7440    0.5570    1.0640 C   0  0  0  0  0  0  0  0  0  0  0  0
    4.6290    1.1900    1.9180 C   0  0  0  0  0  0  0  0  0  0  0  0
    5.9250    1.4830    1.5130 C   0  0  0  0  0  0  0  0  0  0  0  0
    6.3150    1.1290    0.2380 C   0  0  0  0  0  0  0  0  0  0  0  0
    5.4070    0.4910   -0.6080 C   0  0  0  0  0  0  0  0  0  0  0  0
    4.1270    0.2020   -0.2090 C   0  0  0  0  0  0  0  0  0  0  0  0
    3.2340   -0.4270   -1.0430 C   0  0  0  0  0  0  0  0  0  0  0  0
    3.7160   -0.7510   -2.3230 O   0  0  0  0  0  0  0  0  0  0  0  0
   -0.6530    0.7090   -1.1290 N   0  0  0  0  0  0  0  0  0  0  0  0
   -1.3640    1.8210   -0.9340 C   0  0  0  0  0  0  0  0  0  0  0  0
   -0.8980    2.9780   -1.1630 O   0  0  0  0  0  0  0  0  0  0  0  0
   -2.6590    1.7310   -0.4660 C   0  0  0  0  0  0  0  0  0  0  0  0
   -3.4080    2.8740   -0.2510 C   0  0  0  0  0  0  0  0  0  0  0  0
   -4.6910    2.7660    0.2230 C   0  0  0  0  0  0  0  0  0  0  0  0
   -5.6850    4.2010    0.5120 Cl  0  0  0  0  0  0  0  0  0  0  0  0
   -5.1800    1.5060    0.4660 C   0  0  0  0  0  0  0  0  0  0  0  0
   -4.4320    0.3420    0.2530 C   0  0  0  0  0  0  0  0  0  0  0  0
   -3.1540    0.4500   -0.2200 C   0  0  0  0  0  0  0  0  0  0  0  0
  1  2  2  0
  2  3  1  0
  3  4  1  0
  4  5  1  0
  4 28  1  0
  5  6  1  0
  5 19  2  0
  6  7  1  0
  7  8  1  0
  8  9  2  0
  8 17  1  0
  9 10  1  0
 10 11  2  0
 11 12  1  0
 11 16  1  0
 12 13  2  0
 13 14  1  0
 14 15  2  0
 15 16  1  0
 16 17  2  0
 17 18  1  0
 19 20  1  0
 20 21  2  0
 20 22  1  0
 22 23  2  0
 22 28  1  0
 23 24  1  0
 24 25  1  0
 24 26  2  0
 26 27  1  0
 27 28  2  0
M  END
