
     RDKit          3D

 22 24  0  0  0  0  0  0  0  0999 V2000
    4.9020   -1.2450   -0.6690 C   0  0  0  0  0  0  0  0  0  0  0  0
    4.6340   -0.1260   -0.0580 C   0  0  0  0  0  0  0  0  0  0  0  0
    5.7720    0.4720    0.7590 C   0  0  0  0  0  0  0  0  0  0  0  0
    3.3490    0.5710   -0.0680 C   0  0  0  0  0  0  0  0  0  0  0  0
    3.2440    1.8990   -0.1390 O   0  0  0  0  0  0  0  0  0  0  0  0
    1.9960    2.2460   -0.1300 C   0  0  0  0  0  0  0  0  0  0  0  0
    1.1920    1.1030   -0.0480 C   0  0  0  0  0  0  0  0  0  0  0  0
    2.0960    0.0470   -0.0090 C   0  0  0  0  0  0  0  0  0  0  0  0
    1.7370   -1.3560    0.1350 C   0  0  0  0  0  0  0  0  0  0  0  0
    0.5780   -1.8380    0.1570 N   0  0  0  0  0  0  0  0  0  0  0  0
   -0.6780   -1.2590    0.0600 C   0  0  0  0  0  0  0  0  0  0  0  0
   -1.3730   -0.9710    1.2190 C   0  0  0  0  0  0  0  0  0  0  0  0
   -2.6240   -0.4170    1.1730 C   0  0  0  0  0  0  0  0  0  0  0  0
   -3.4020   -0.0930    2.3990 C   0  0  0  0  0  0  0  0  0  0  0  0
   -3.1920   -0.1470   -0.0430 C   0  0  0  0  0  0  0  0  0  0  0  0
   -4.4350    0.4040   -0.1080 C   0  0  0  0  0  0  0  0  0  0  0  0
   -5.0020    0.6740   -1.3260 C   0  0  0  0  0  0  0  0  0  0  0  0
   -4.3190    0.3910   -2.4620 N   0  0  0  0  0  0  0  0  0  0  0  0
   -3.0950   -0.1510   -2.4270 C   0  0  0  0  0  0  0  0  0  0  0  0
   -2.5030   -0.3950   -3.5020 O   0  0  0  0  0  0  0  0  0  0  0  0
   -2.4960   -0.4350   -1.2100 C   0  0  0  0  0  0  0  0  0  0  0  0
   -1.2740   -0.9760   -1.1360 N   0  0  0  0  0  0  0  0  0  0  0  0
  1  2  2  0
  2  3  1  0
  2  4  1  0
  4  5  1  0
  4  8  2  0
  5  6  1  0
  6  7  2  0
  7  8  1  0
  8  9  1  0
  9 10  2  3
 10 11  1  0
 11 12  2  0
 11 22  1  0
 12 13  1  0
 13 14  1  0
 13 15  2  0
 15 16  1  0
 15 21  1  0
 16 17  2  0
 17 18  1  0
 18 19  1  0
 19 20  2  0
 19 21  1  0
 21 22  2  0
M  END
