
     RDKit          3D

 22 24  0  0  0  0  0  0  0  0999 V2000
    4.3760    3.9930   -0.6540 N   0  0  0  0  0  0  0  0  0  0  0  0
    4.1080    2.8610   -0.5560 C   0  0  0  0  0  0  0  0  0  0  0  0
    3.7590    1.4850   -0.4260 C   0  0  0  0  0  0  0  0  0  0  0  0
    4.6920    0.5710   -0.6470 C   0  0  0  0  0  0  0  0  0  0  0  0
    4.7090   -0.8940   -0.6110 C   0  0  0  0  0  0  0  0  0  0  0  0
    3.8230   -1.5250    0.4120 C   0  0  0  0  0  0  0  0  0  0  0  0
    2.3850   -1.3050    0.1070 C   0  0  0  0  0  0  0  0  0  0  0  0
    1.6650   -2.3340   -0.1320 O   0  0  0  0  0  0  0  0  0  0  0  0
    1.7350   -0.0340    0.0570 N   0  0  0  0  0  0  0  0  0  0  0  0
    0.3260   -0.0570    0.1240 C   0  0  0  0  0  0  0  0  0  0  0  0
   -0.3670   -0.9190    0.9650 C   0  0  0  0  0  0  0  0  0  0  0  0
   -1.7290   -0.9300    1.0210 C   0  0  0  0  0  0  0  0  0  0  0  0
   -2.4840   -0.0780    0.2370 C   0  0  0  0  0  0  0  0  0  0  0  0
   -3.9410   -0.0720    0.2840 C   0  0  0  0  0  0  0  0  0  0  0  0
   -4.7700    0.7260   -0.4400 C   0  0  0  0  0  0  0  0  0  0  0  0
   -6.0980    0.4390   -0.1210 C   0  0  0  0  0  0  0  0  0  0  0  0
   -6.0330   -0.5670    0.8280 C   0  0  0  0  0  0  0  0  0  0  0  0
   -4.7360   -0.8460    1.0450 N   0  0  0  0  0  0  0  0  0  0  0  0
   -1.8180    0.7860   -0.6040 C   0  0  0  0  0  0  0  0  0  0  0  0
   -0.4420    0.7870   -0.6510 C   0  0  0  0  0  0  0  0  0  0  0  0
    2.3700    1.2560   -0.0520 C   0  0  0  0  0  0  0  0  0  0  0  0
    1.6300    2.2540    0.2040 O   0  0  0  0  0  0  0  0  0  0  0  0
  1  2  3  0
  2  3  1  0
  3  4  2  0
  3 21  1  0
  4  5  1  0
  5  6  1  0
  6  7  1  0
  7  8  2  0
  7  9  1  0
  9 10  1  0
  9 21  1  0
 10 11  2  0
 10 20  1  0
 11 12  1  0
 12 13  2  0
 13 14  1  0
 13 19  1  0
 14 15  2  0
 14 18  1  0
 15 16  1  0
 16 17  2  0
 17 18  1  0
 19 20  2  0
 21 22  2  0
M  END
