
     RDKit          3D

 22 24  0  0  0  0  0  0  0  0999 V2000
   -4.0300   -1.9440   -0.6710 C   0  0  0  0  0  0  0  0  0  0  0  0
   -4.5590   -0.6290   -0.0960 C   0  0  0  0  0  0  0  0  0  0  0  0
   -3.6970    0.3010    0.2550 C   0  0  0  0  0  0  0  0  0  0  0  0
   -2.2800    0.0200    0.0740 C   0  0  0  0  0  0  0  0  0  0  0  0
   -1.3270    0.8710    0.3890 C   0  0  0  0  0  0  0  0  0  0  0  0
    0.0760    0.5470    0.1910 C   0  0  0  0  0  0  0  0  0  0  0  0
    1.0700    1.3070    0.4660 N   0  0  0  0  0  0  0  0  0  0  0  0
    2.3160    0.6770    0.1470 C   0  0  0  0  0  0  0  0  0  0  0  0
    3.5180    1.1950    0.2740 C   0  0  0  0  0  0  0  0  0  0  0  0
    4.7640    0.5510   -0.0440 C   0  0  0  0  0  0  0  0  0  0  0  0
    5.0710   -0.6720    0.4680 C   0  0  0  0  0  0  0  0  0  0  0  0
    6.2500   -1.3370    0.1600 C   0  0  0  0  0  0  0  0  0  0  0  0
    7.1170   -0.7600   -0.6670 N   0  0  0  0  0  0  0  0  0  0  0  0
    6.8320    0.4450   -1.1810 C   0  0  0  0  0  0  0  0  0  0  0  0
    5.6930    1.1360   -0.9110 C   0  0  0  0  0  0  0  0  0  0  0  0
    1.9590   -0.6220   -0.3840 C   0  0  0  0  0  0  0  0  0  0  0  0
    2.7280   -1.5190   -0.7990 O   0  0  0  0  0  0  0  0  0  0  0  0
    0.5370   -0.6820   -0.3460 N   0  0  0  0  0  0  0  0  0  0  0  0
   -4.1680    1.5640    0.8070 C   0  0  0  0  0  0  0  0  0  0  0  0
   -5.4710    1.7330    0.9370 C   0  0  0  0  0  0  0  0  0  0  0  0
   -6.3800    0.7710    0.5740 O   0  0  0  0  0  0  0  0  0  0  0  0
   -6.0090   -0.4440    0.0450 C   0  0  0  0  0  0  0  0  0  0  0  0
  1  2  1  0
  2  3  2  0
  2 22  1  0
  3  4  1  0
  3 19  1  0
  4  5  2  3
  5  6  1  0
  6  7  2  0
  6 18  1  0
  7  8  1  0
  8  9  2  3
  8 16  1  0
  9 10  1  0
 10 11  2  0
 10 15  1  0
 11 12  1  0
 12 13  2  0
 13 14  1  0
 14 15  2  0
 16 17  2  0
 16 18  1  0
 19 20  2  0
 20 21  1  0
 21 22  1  0
M  END
