
     RDKit          3D

 31 32  0  0  0  0  0  0  0  0999 V2000
    6.9900    2.5810    2.2640 C   0  0  0  0  0  0  0  0  0  0  0  0
    6.7450    1.0860    2.1450 C   0  0  0  0  0  0  0  0  0  0  0  0
    6.8590    0.6110    0.7930 N   0  0  0  0  0  0  0  0  0  0  0  0
    5.7520   -0.2910    0.4460 C   0  0  1  0  0  0  0  0  0  0  0  0
    5.6800   -1.4420    1.3940 C   0  0  0  0  0  0  0  0  0  0  0  0
    6.9480   -2.1840    1.3640 C   0  0  0  0  0  0  0  0  0  0  0  0
    7.9810   -2.7740    1.3570 N   0  0  0  0  0  0  0  0  0  0  0  0
    4.4860    0.4510    0.2850 C   0  0  0  0  0  0  0  0  0  0  0  0
    3.2770   -0.3670   -0.0580 C   0  0  2  0  0  0  0  0  0  0  0  0
    2.0850    0.5770   -0.2250 C   0  0  0  0  0  0  0  0  0  0  0  0
    0.9470   -0.2490   -0.6160 N   0  0  0  0  0  0  0  0  0  0  0  0
   -0.2860    0.3540   -0.9950 C   0  0  0  0  0  0  0  0  0  0  0  0
   -0.4660    1.5860   -1.0340 O   0  0  0  0  0  0  0  0  0  0  0  0
   -1.4340   -0.5470   -1.3700 C   0  0  0  0  0  0  0  0  0  0  0  0
   -2.4870    0.0880   -1.7650 O   0  0  0  0  0  0  0  0  0  0  0  0
   -3.4430    0.7810   -2.2760 C   0  0  0  0  0  0  0  0  0  0  0  0
   -3.1970    1.5650   -3.4150 C   0  0  0  0  0  0  0  0  0  0  0  0
   -4.1750    2.3180   -3.9970 C   0  0  0  0  0  0  0  0  0  0  0  0
   -5.4320    2.3060   -3.4520 C   0  0  0  0  0  0  0  0  0  0  0  0
   -5.6900    1.5460   -2.3410 C   0  0  0  0  0  0  0  0  0  0  0  0
   -4.7440    0.7800   -1.7270 C   0  0  0  0  0  0  0  0  0  0  0  0
   -4.9430    0.0120   -0.6300 O   0  0  0  0  0  0  0  0  0  0  0  0
   -6.1010   -0.1780    0.1200 C   0  0  2  0  0  0  0  0  0  0  0  0
   -5.8750    0.0110    1.6010 C   0  0  0  0  0  0  0  0  0  0  0  0
   -7.0990   -0.1910    2.3350 N   0  0  0  0  0  0  0  0  0  0  0  0
   -6.5490   -1.6000   -0.0910 C   0  0  0  0  0  0  0  0  0  0  0  0
   -7.7090   -2.1280    0.5120 N   0  0  0  0  0  0  0  0  0  0  0  0
   -5.8670   -2.3490   -0.8320 O   0  0  0  0  0  0  0  0  0  0  0  0
    1.1170   -1.6820   -0.6180 C   0  0  0  0  0  0  0  0  0  0  0  0
    1.8820   -2.1810    0.5590 C   0  0  0  0  0  0  0  0  0  0  0  0
    2.8840   -1.2620    1.0250 N   0  0  0  0  0  0  0  0  0  0  0  0
  1  2  1  0
  2  3  1  0
  3  4  1  0
  4  5  1  1
  4  8  1  0
  5  6  1  0
  6  7  3  0
  9  8  1  1
  9 10  1  0
  9 31  1  0
 10 11  1  0
 11 12  1  0
 11 29  1  0
 12 13  2  0
 12 14  1  0
 14 15  1  0
 15 16  1  0
 16 17  2  0
 16 21  1  0
 17 18  1  0
 18 19  2  0
 19 20  1  0
 20 21  2  0
 21 22  1  0
 22 23  1  0
 23 24  1  1
 23 26  1  0
 24 25  1  0
 26 27  1  0
 26 28  2  0
 29 30  1  0
 30 31  1  0
M  CHG  2   3   1  25   1
M  END
