
     RDKit          3D

 31 32  0  0  0  0  0  0  0  0999 V2000
   -8.1020   -1.1320    0.6170 C   0  0  0  0  0  0  0  0  0  0  0  0
   -7.2120    0.0400    0.2970 C   0  0  1  0  0  0  0  0  0  0  0  0
   -7.0280    0.9300    1.5230 C   0  0  0  0  0  0  0  0  0  0  0  0
   -6.1560    2.0280    1.1070 N   0  0  0  0  0  0  0  0  0  0  0  0
   -5.8510   -0.3950   -0.1090 C   0  0  0  0  0  0  0  0  0  0  0  0
   -5.0480   -1.1160    0.7420 C   0  0  0  0  0  0  0  0  0  0  0  0
   -3.7880   -1.5100    0.3440 C   0  0  0  0  0  0  0  0  0  0  0  0
   -3.2700   -1.2060   -0.9100 C   0  0  0  0  0  0  0  0  0  0  0  0
   -1.9010   -1.6510   -1.3020 C   0  0  2  0  0  0  0  0  0  0  0  0
   -1.7380   -2.9780   -0.9220 O   0  0  0  0  0  0  0  0  0  0  0  0
   -0.8930   -0.8160   -0.5400 C   0  0  0  0  0  0  0  0  0  0  0  0
    0.4580   -1.2020   -0.8040 N   0  0  1  0  0  0  0  0  0  0  0  0
    0.6850   -1.5900   -2.1840 C   0  0  0  0  0  0  0  0  0  0  0  0
    1.3380   -0.0930   -0.4860 C   0  0  0  0  0  0  0  0  0  0  0  0
    0.9790    0.4000    0.9120 C   0  0  0  0  0  0  0  0  0  0  0  0
    1.8450    1.5600    1.3380 C   0  0  0  0  0  0  0  0  0  0  0  0
    3.2510    1.2310    1.3710 N   0  0  0  0  0  0  0  0  0  0  0  0
    3.9190    0.7300    2.4530 C   0  0  0  0  0  0  0  0  0  0  0  0
    3.4200    0.4740    3.5880 O   0  0  0  0  0  0  0  0  0  0  0  0
    5.1860    0.5820    2.0300 N   0  0  0  0  0  0  0  0  0  0  0  0
    5.3450    0.9490    0.7880 N   0  0  0  0  0  0  0  0  0  0  0  0
    6.5680    0.9310   -0.0090 C   0  0  2  0  0  0  0  0  0  0  0  0
    7.7170    1.1090    0.9920 C   0  0  0  0  0  0  0  0  0  0  0  0
    6.6070    2.0840   -0.9540 C   0  0  0  0  0  0  0  0  0  0  0  0
    6.7380   -0.3340   -0.7290 C   0  0  0  0  0  0  0  0  0  0  0  0
    6.8410   -1.6020   -0.0920 N   0  0  0  0  0  0  0  0  0  0  0  0
    6.7990   -0.3170   -1.9810 O   0  0  0  0  0  0  0  0  0  0  0  0
    4.1340    1.3620    0.3560 C   0  0  0  0  0  0  0  0  0  0  0  0
    3.9080    1.7950   -0.8240 O   0  0  0  0  0  0  0  0  0  0  0  0
   -4.0940   -0.4830   -1.7460 C   0  0  0  0  0  0  0  0  0  0  0  0
   -5.3540   -0.0850   -1.3570 C   0  0  0  0  0  0  0  0  0  0  0  0
  2  1  1  1
  2  3  1  0
  2  5  1  0
  3  4  1  0
  5  6  2  0
  5 31  1  0
  6  7  1  0
  7  8  2  0
  8  9  1  0
  8 30  1  0
  9 10  1  1
  9 11  1  0
 11 12  1  0
 12 13  1  6
 12 14  1  0
 14 15  1  0
 15 16  1  0
 16 17  1  0
 17 18  1  0
 17 28  1  0
 18 19  2  0
 18 20  1  0
 20 21  1  0
 21 22  1  0
 21 28  1  0
 22 23  1  1
 22 24  1  0
 22 25  1  0
 25 26  1  0
 25 27  2  0
 28 29  2  0
 30 31  2  0
M  CHG  2   4   1  12   1
M  END
