
     RDKit          3D

 31 34  0  0  0  0  0  0  0  0999 V2000
   -2.3730   -1.5140    2.6690 C   0  0  0  0  0  0  0  0  0  0  0  0
   -3.4630   -1.1220    1.7080 C   0  0  0  0  0  0  0  0  0  0  0  0
   -4.7380   -1.3200    1.8050 O   0  0  0  0  0  0  0  0  0  0  0  0
   -5.3630   -0.8360    0.7730 N   0  0  0  0  0  0  0  0  0  0  0  0
   -4.4730   -0.2810   -0.0680 C   0  0  0  0  0  0  0  0  0  0  0  0
   -4.6850    0.3970   -1.3720 C   0  0  0  0  0  0  0  0  0  0  0  0
   -6.0520    0.4530   -1.7670 N   0  0  0  0  0  0  0  0  0  0  0  0
   -6.9620    1.1370   -0.9000 C   0  0  0  0  0  0  0  0  0  0  0  0
   -7.9440   -0.0180   -1.1110 C   0  0  0  0  0  0  0  0  0  0  0  0
   -6.7950   -0.7630   -1.8020 C   0  0  0  0  0  0  0  0  0  0  0  0
   -3.2390   -0.4560    0.5190 C   0  0  0  0  0  0  0  0  0  0  0  0
   -1.9550   -0.0450    0.0280 N   0  0  0  0  0  0  0  0  0  0  0  0
   -1.3690    1.2100    0.3120 C   0  0  0  0  0  0  0  0  0  0  0  0
   -2.0120    2.0100    1.0380 O   0  0  0  0  0  0  0  0  0  0  0  0
   -0.0430    1.5900   -0.2170 C   0  0  0  0  0  0  0  0  0  0  0  0
    0.5990    2.7880    0.0110 C   0  0  0  0  0  0  0  0  0  0  0  0
    1.7980    2.7520   -0.6490 C   0  0  0  0  0  0  0  0  0  0  0  0
    1.8380    1.5000   -1.2680 C   0  0  0  0  0  0  0  0  0  0  0  0
    2.9170    1.0500   -2.0600 N   0  0  0  0  0  0  0  0  0  0  0  0
    3.9840    0.5470   -1.4550 C   0  0  0  0  0  0  0  0  0  0  0  0
    3.9960    0.4820   -0.0360 C   0  0  0  0  0  0  0  0  0  0  0  0
    4.8230    0.0410    0.8180 C   0  0  0  0  0  0  0  0  0  0  0  0
    6.0940   -0.5940    0.7680 C   0  0  0  0  0  0  0  0  0  0  0  0
    6.9070   -0.4990    1.9230 C   0  0  0  0  0  0  0  0  0  0  0  0
    8.1040   -1.1410    1.9730 C   0  0  0  0  0  0  0  0  0  0  0  0
    8.5990   -1.9050    0.9400 C   0  0  0  0  0  0  0  0  0  0  0  0
   10.1450   -2.7170    1.0340 Cl  0  0  0  0  0  0  0  0  0  0  0  0
    7.8320   -2.0140   -0.1880 C   0  0  0  0  0  0  0  0  0  0  0  0
    6.5820   -1.3530   -0.2540 C   0  0  0  0  0  0  0  0  0  0  0  0
    5.8520   -1.5830   -1.3690 F   0  0  0  0  0  0  0  0  0  0  0  0
    0.7210    0.8660   -0.9710 O   0  0  0  0  0  0  0  0  0  0  0  0
  1  2  1  0
  2  3  1  0
  2 11  2  0
  3  4  1  0
  4  5  2  0
  5  6  1  0
  5 11  1  0
  6  7  1  0
  7  8  1  0
  7 10  1  0
  8  9  1  0
  9 10  1  0
 11 12  1  0
 12 13  1  0
 13 14  2  0
 13 15  1  0
 15 16  2  0
 15 31  1  0
 16 17  1  0
 17 18  2  0
 18 19  1  0
 18 31  1  0
 19 20  2  3
 20 21  1  0
 21 22  2  3
 22 23  1  0
 23 24  2  0
 23 29  1  0
 24 25  1  0
 25 26  2  0
 26 27  1  0
 26 28  1  0
 28 29  2  0
 29 30  1  0
M  CHG  1  19   1
M  END
