
     RDKit          3D

 31 34  0  0  0  0  0  0  0  0999 V2000
    6.2180    0.4360   -1.1300 C   0  0  0  0  0  0  0  0  0  0  0  0
    4.8290   -0.0250   -0.7210 C   0  0  0  0  0  0  0  0  0  0  0  0
    4.2100    1.0620    0.0930 C   0  0  0  0  0  0  0  0  0  0  0  0
    2.8870    0.7800    0.5590 N   0  0  0  0  0  0  0  0  0  0  0  0
    1.9820    0.3190   -0.4520 C   0  0  2  0  0  0  0  0  0  0  0  0
    1.7540    1.3930   -1.5220 C   0  0  0  0  0  0  0  0  0  0  0  0
    0.6430    0.0820    0.2000 C   0  0  0  0  0  0  0  0  0  0  0  0
   -0.3800   -0.4210   -0.8580 C   0  0  0  0  0  0  0  0  0  0  0  0
   -1.5860   -0.6000   -0.1060 N   0  0  0  0  0  0  0  0  0  0  0  0
   -1.9330   -1.7250    0.4690 C   0  0  0  0  0  0  0  0  0  0  0  0
   -1.1790   -2.9490    0.3540 C   0  0  0  0  0  0  0  0  0  0  0  0
   -0.7760   -3.4400   -0.8480 C   0  0  0  0  0  0  0  0  0  0  0  0
    0.0060   -4.5880   -0.9750 C   0  0  0  0  0  0  0  0  0  0  0  0
    0.3940   -5.2690    0.1540 C   0  0  0  0  0  0  0  0  0  0  0  0
    1.1540   -6.3920    0.1000 F   0  0  0  0  0  0  0  0  0  0  0  0
   -0.0200   -4.7680    1.3800 C   0  0  0  0  0  0  0  0  0  0  0  0
   -0.7800   -3.6500    1.5120 C   0  0  0  0  0  0  0  0  0  0  0  0
   -1.2940   -3.0330    3.0680 Cl  0  0  0  0  0  0  0  0  0  0  0  0
   -3.0630   -1.7610    1.2780 N   0  0  0  0  0  0  0  0  0  0  0  0
   -3.7950   -0.6590    1.4680 C   0  0  0  0  0  0  0  0  0  0  0  0
   -4.8950   -0.4250    2.1760 O   0  0  0  0  0  0  0  0  0  0  0  0
   -5.2630    0.8060    2.0690 N   0  0  0  0  0  0  0  0  0  0  0  0
   -4.3960    1.4670    1.2610 C   0  0  0  0  0  0  0  0  0  0  0  0
   -4.4250    2.8560    0.8670 C   0  0  0  0  0  0  0  0  0  0  0  0
   -5.3990    3.7660    1.2850 C   0  0  0  0  0  0  0  0  0  0  0  0
   -5.0590    4.9540    0.6920 C   0  0  0  0  0  0  0  0  0  0  0  0
   -3.9180    4.7470   -0.0530 C   0  0  0  0  0  0  0  0  0  0  0  0
   -3.6090    3.4870    0.1030 O   0  0  0  0  0  0  0  0  0  0  0  0
   -3.4620    0.5400    0.8760 C   0  0  0  0  0  0  0  0  0  0  0  0
   -2.3400    0.5380    0.0860 C   0  0  0  0  0  0  0  0  0  0  0  0
   -1.9780    1.6020   -0.4860 O   0  0  0  0  0  0  0  0  0  0  0  0
  1  2  1  0
  2  3  1  0
  3  4  1  0
  4  5  1  0
  5  6  1  6
  5  7  1  0
  7  8  1  0
  8  9  1  0
  9 10  1  0
  9 30  1  0
 10 11  1  0
 10 19  2  0
 11 12  2  0
 11 17  1  0
 12 13  1  0
 13 14  2  0
 14 15  1  0
 14 16  1  0
 16 17  2  0
 17 18  1  0
 19 20  1  0
 20 21  1  0
 20 29  2  0
 21 22  1  0
 22 23  2  0
 23 24  1  0
 23 29  1  0
 24 25  2  0
 24 28  1  0
 25 26  1  0
 26 27  2  0
 27 28  1  0
 29 30  1  0
 30 31  2  0
M  CHG  1   4   1
M  END
