
     RDKit          3D

 30 30  0  0  0  0  0  0  0  0999 V2000
   -7.0110    0.0450    0.6610 N   0  0  0  0  0  0  0  0  0  0  0  0
   -5.7550   -0.1300    1.8190 S   0  0  2  0  0  0  0  0  0  0  0  0
   -6.1300   -1.3130    2.7010 O   0  0  0  0  0  0  0  0  0  0  0  0
   -5.6600    1.0550    2.7320 O   0  0  0  0  0  0  0  0  0  0  0  0
   -4.2110   -0.4620    1.0940 C   0  0  0  0  0  0  0  0  0  0  0  0
   -3.7830   -1.7480    0.8540 C   0  0  0  0  0  0  0  0  0  0  0  0
   -2.5630   -1.9780    0.2820 C   0  0  0  0  0  0  0  0  0  0  0  0
   -1.6920   -0.9450   -0.0860 C   0  0  0  0  0  0  0  0  0  0  0  0
   -0.4290   -1.3070   -0.6800 C   0  0  0  0  0  0  0  0  0  0  0  0
   -0.0900   -2.5180   -0.7860 O   0  0  0  0  0  0  0  0  0  0  0  0
    0.4750   -0.2930   -1.1660 N   0  0  0  0  0  0  0  0  0  0  0  0
    1.7340   -0.6850   -1.7550 C   0  0  0  0  0  0  0  0  0  0  0  0
    2.6140    0.4040   -2.2190 C   0  0  1  0  0  0  0  0  0  0  0  0
    3.7880   -0.0870   -2.7850 F   0  0  0  0  0  0  0  0  0  0  0  0
    1.9600    1.0320   -3.2970 F   0  0  0  0  0  0  0  0  0  0  0  0
    2.8860    1.4770   -1.2260 C   0  0  1  0  0  0  0  0  0  0  0  0
    3.7550    2.4390   -1.7840 F   0  0  0  0  0  0  0  0  0  0  0  0
    1.6930    2.1810   -1.0010 F   0  0  0  0  0  0  0  0  0  0  0  0
    3.4430    1.0660    0.0860 C   0  0  1  0  0  0  0  0  0  0  0  0
    3.5970    2.2510    0.8360 F   0  0  0  0  0  0  0  0  0  0  0  0
    2.5610    0.2960    0.8260 F   0  0  0  0  0  0  0  0  0  0  0  0
    4.7830    0.4070    0.0620 C   0  0  1  0  0  0  0  0  0  0  0  0
    4.8760   -0.7450   -0.6400 F   0  0  0  0  0  0  0  0  0  0  0  0
    5.6830    1.3400   -0.4670 F   0  0  0  0  0  0  0  0  0  0  0  0
    5.2130    0.1440    1.4910 C   0  0  2  0  0  0  0  0  0  0  0  0
    6.4530   -0.4680    1.5460 F   0  0  0  0  0  0  0  0  0  0  0  0
    4.3230   -0.6690    2.1470 F   0  0  0  0  0  0  0  0  0  0  0  0
    5.3280    1.3320    2.2040 F   0  0  0  0  0  0  0  0  0  0  0  0
   -2.1320    0.3120    0.1590 C   0  0  0  0  0  0  0  0  0  0  0  0
   -3.3810    0.5580    0.7450 C   0  0  0  0  0  0  0  0  0  0  0  0
  2  1  1  6
  2  3  2  0
  2  4  2  0
  2  5  1  0
  5  6  2  0
  5 30  1  0
  6  7  1  0
  7  8  2  0
  8  9  1  0
  8 29  1  0
  9 10  2  0
  9 11  1  0
 11 12  1  0
 12 13  1  0
 13 14  1  6
 13 15  1  0
 13 16  1  0
 16 17  1  6
 16 18  1  0
 16 19  1  0
 19 20  1  1
 19 21  1  0
 19 22  1  0
 22 23  1  6
 22 24  1  0
 22 25  1  0
 25 26  1  6
 25 27  1  0
 25 28  1  0
 29 30  2  0
M  END
