
     RDKit          3D

 31 34  0  0  0  0  0  0  0  0999 V2000
    4.9660    0.1620    0.7580 O   0  0  0  0  0  0  0  0  0  0  0  0
    5.7300    0.1870   -0.2320 C   0  0  0  0  0  0  0  0  0  0  0  0
    5.1280   -0.0900   -1.5650 C   0  0  0  0  0  0  0  0  0  0  0  0
    3.7000   -0.3470   -1.4530 N   0  0  0  0  0  0  0  0  0  0  0  0
    3.0780   -1.5200   -1.2660 C   0  0  0  0  0  0  0  0  0  0  0  0
    1.7320   -1.3450   -1.2140 C   0  0  0  0  0  0  0  0  0  0  0  0
    0.6760   -2.2030   -1.0440 C   0  0  0  0  0  0  0  0  0  0  0  0
   -0.5790   -1.6800   -1.0430 C   0  0  0  0  0  0  0  0  0  0  0  0
   -0.7770   -0.3090   -1.2100 C   0  0  0  0  0  0  0  0  0  0  0  0
   -2.1410    0.1610   -1.1630 C   0  0  0  0  0  0  0  0  0  0  0  0
   -2.6660    0.8840   -2.3060 C   0  0  0  0  0  0  0  0  0  0  0  0
   -1.9620    1.1310   -3.3910 C   0  0  0  0  0  0  0  0  0  0  0  0
   -2.5680    1.8750   -4.5150 C   0  0  0  0  0  0  0  0  0  0  0  0
   -3.8850    2.2270   -4.2380 F   0  0  0  0  0  0  0  0  0  0  0  0
   -2.9010   -0.0560   -0.1160 C   0  0  0  0  0  0  0  0  0  0  0  0
   -4.3150    0.3820    0.0240 C   0  0  0  0  0  0  0  0  0  0  0  0
   -4.7730    0.0320    1.2130 C   0  0  0  0  0  0  0  0  0  0  0  0
   -6.0440    0.2190    1.8210 N   0  0  0  0  0  0  0  0  0  0  0  0
   -6.4240   -0.6000    2.9580 C   0  0  0  0  0  0  0  0  0  0  0  0
   -5.2530   -0.6210    3.9120 C   0  0  0  0  0  0  0  0  0  0  0  0
   -3.9920   -1.1370    3.3000 C   0  0  0  0  0  0  0  0  0  0  0  0
   -3.7770   -0.6360    1.9560 N   0  0  0  0  0  0  0  0  0  0  0  0
   -2.6040   -0.7040    1.1550 C   0  0  0  0  0  0  0  0  0  0  0  0
   -1.4920   -1.2290    1.4740 O   0  0  0  0  0  0  0  0  0  0  0  0
    0.2690    0.5270   -1.3770 N   0  0  0  0  0  0  0  0  0  0  0  0
    1.5070    0.0020   -1.3780 C   0  0  0  0  0  0  0  0  0  0  0  0
    2.7460    0.5880   -1.5230 C   0  0  0  0  0  0  0  0  0  0  0  0
    7.0350    0.4610   -0.0150 O   0  0  0  0  0  0  0  0  0  0  0  0
    7.7470    0.7270    1.1230 C   0  0  0  0  0  0  0  0  0  0  0  0
    7.8620   -0.3090    2.1750 C   0  0  0  0  0  0  0  0  0  0  0  0
    6.3420   -0.8380    2.9010 Cl  0  0  0  0  0  0  0  0  0  0  0  0
  1  2  2  0
  2  3  1  0
  2 28  1  0
  3  4  1  0
  4  5  1  0
  4 27  1  0
  5  6  2  0
  6  7  1  0
  6 26  1  0
  7  8  2  0
  8  9  1  0
  9 10  1  0
  9 25  2  0
 10 11  1  0
 10 15  2  3
 11 12  2  3
 12 13  1  0
 13 14  1  0
 15 16  1  0
 15 23  1  0
 16 17  2  0
 17 18  1  0
 17 22  1  0
 18 19  1  0
 19 20  1  0
 20 21  1  0
 21 22  1  0
 22 23  1  0
 23 24  2  0
 25 26  1  0
 26 27  2  0
 28 29  1  0
 29 30  1  0
 30 31  1  0
M  CHG  1  25   1
M  END
