
     RDKit          3D

 30 31  0  0  0  0  0  0  0  0999 V2000
    6.3170    3.9940   -0.8540 C   0  0  0  0  0  0  0  0  0  0  0  0
    5.0850    3.7550   -1.2560 C   0  0  0  0  0  0  0  0  0  0  0  0
    4.6370    2.3940   -1.5810 C   0  0  0  0  0  0  0  0  0  0  0  0
    3.5340    2.0130   -0.7260 N   0  0  0  0  0  0  0  0  0  0  0  0
    2.9070    0.6980   -0.8530 C   0  0  0  0  0  0  0  0  0  0  0  0
    3.4420    0.0230   -1.7470 O   0  0  0  0  0  0  0  0  0  0  0  0
    1.7960    0.3550    0.0320 C   0  0  0  0  0  0  0  0  0  0  0  0
    1.2860   -1.0630   -0.0040 C   0  0  2  0  0  0  0  0  0  0  0  0
    0.8490   -1.3570   -1.4020 C   0  0  0  0  0  0  0  0  0  0  0  0
    0.2900   -2.6630   -1.6440 N   0  0  0  0  0  0  0  0  0  0  0  0
    0.0630   -1.1210    0.8160 N   0  0  0  0  0  0  0  0  0  0  0  0
   -0.4540    0.1160    1.2660 C   0  0  0  0  0  0  0  0  0  0  0  0
   -1.5530    0.7420    0.4470 C   0  0  2  0  0  0  0  0  0  0  0  0
   -1.8910    1.9480    1.0870 O   0  0  0  0  0  0  0  0  0  0  0  0
   -2.8250   -0.1100    0.5670 C   0  0  0  0  0  0  0  0  0  0  0  0
   -3.8950    0.4990   -0.2260 N   0  0  0  0  0  0  0  0  0  0  0  0
   -4.1540    0.2410   -1.5090 C   0  0  0  0  0  0  0  0  0  0  0  0
   -3.5220   -0.5640   -2.2400 O   0  0  0  0  0  0  0  0  0  0  0  0
   -5.2090    0.9740   -1.9320 N   0  0  0  0  0  0  0  0  0  0  0  0
   -5.6170    1.7050   -0.8940 C   0  0  0  0  0  0  0  0  0  0  0  0
   -6.6320    2.6140   -0.7540 C   0  0  0  0  0  0  0  0  0  0  0  0
   -6.8520    3.2420    0.4360 C   0  0  0  0  0  0  0  0  0  0  0  0
   -6.0470    2.9550    1.4940 C   0  0  0  0  0  0  0  0  0  0  0  0
   -5.0160    2.0430    1.3820 C   0  0  0  0  0  0  0  0  0  0  0  0
   -4.7860    1.4050    0.1880 C   0  0  0  0  0  0  0  0  0  0  0  0
    2.3160   -1.8740    0.6330 C   0  0  2  0  0  0  0  0  0  0  0  0
    3.5370   -1.7660   -0.1290 O   0  0  0  0  0  0  0  0  0  0  0  0
    2.2580   -3.2910    0.9520 C   0  0  1  0  0  0  0  0  0  0  0  0
    1.2190   -3.8580    1.8550 C   0  0  0  0  0  0  0  0  0  0  0  0
    2.6290   -4.2620   -0.1530 C   0  0  0  0  0  0  0  0  0  0  0  0
  1  2  2  0
  2  3  1  0
  3  4  1  0
  4  5  1  0
  5  6  2  0
  5  7  1  0
  8  7  1  6
  8  9  1  0
  8 11  1  0
  8 26  1  0
  9 10  1  0
 11 12  1  0
 12 13  1  0
 13 14  1  1
 13 15  1  0
 15 16  1  0
 16 17  1  0
 16 25  1  0
 17 18  2  0
 17 19  1  0
 19 20  1  0
 20 21  2  0
 20 25  1  0
 21 22  1  0
 22 23  2  0
 23 24  1  0
 24 25  2  0
 26 27  1  6
 26 28  1  0
 28 29  1  6
 28 30  1  0
M  CHG  2  10   1  11   1
M  END
