
     RDKit          3D

 31 34  0  0  0  0  0  0  0  0999 V2000
    8.0240    4.1660    2.6710 C   0  0  0  0  0  0  0  0  0  0  0  0
    7.1420    3.2510    2.2810 C   0  0  0  0  0  0  0  0  0  0  0  0
    7.6430    2.1330    1.7390 F   0  0  0  0  0  0  0  0  0  0  0  0
    5.7350    3.5450    2.4780 C   0  0  0  0  0  0  0  0  0  0  0  0
    4.7320    2.7710    2.1580 C   0  0  0  0  0  0  0  0  0  0  0  0
    4.8360    1.4510    1.5350 C   0  0  0  0  0  0  0  0  0  0  0  0
    3.7550    0.7480    1.2530 C   0  0  0  0  0  0  0  0  0  0  0  0
    2.1670    1.4030    1.6280 Cl  0  0  0  0  0  0  0  0  0  0  0  0
    3.8750   -0.5860    0.6230 C   0  0  0  0  0  0  0  0  0  0  0  0
    3.2020   -0.6480   -0.6630 N   0  0  0  0  0  0  0  0  0  0  0  0
    2.5640   -1.9290   -0.8700 C   0  0  0  0  0  0  0  0  0  0  0  0
    1.0630   -1.7940   -0.8490 C   0  0  0  0  0  0  0  0  0  0  0  0
    0.2520   -2.8940   -0.9270 C   0  0  0  0  0  0  0  0  0  0  0  0
   -1.0900   -2.7890   -0.9120 N   0  0  0  0  0  0  0  0  0  0  0  0
   -1.6170   -1.5740   -0.8180 C   0  0  0  0  0  0  0  0  0  0  0  0
   -2.9960   -1.4760   -0.8020 C   0  0  0  0  0  0  0  0  0  0  0  0
   -3.8290   -2.5760   -0.8800 C   0  0  0  0  0  0  0  0  0  0  0  0
   -5.2080   -2.4530   -0.8620 C   0  0  0  0  0  0  0  0  0  0  0  0
   -5.7640   -1.1780   -0.7630 C   0  0  0  0  0  0  0  0  0  0  0  0
   -4.9110   -0.0940   -0.6870 C   0  0  0  0  0  0  0  0  0  0  0  0
   -3.5380   -0.2110   -0.7040 C   0  0  0  0  0  0  0  0  0  0  0  0
   -2.6910    0.8900   -0.6260 C   0  0  0  0  0  0  0  0  0  0  0  0
   -3.2330    2.0170   -0.5380 O   0  0  0  0  0  0  0  0  0  0  0  0
   -1.3570    0.7920   -0.6410 N   0  0  0  0  0  0  0  0  0  0  0  0
   -0.5010    1.9760   -0.5580 C   0  0  0  0  0  0  0  0  0  0  0  0
   -0.8140   -0.4380   -0.7370 C   0  0  0  0  0  0  0  0  0  0  0  0
    0.5370   -0.5760   -0.7550 N   0  0  0  0  0  0  0  0  0  0  0  0
   -7.1420   -1.0710   -0.7470 O   0  0  0  0  0  0  0  0  0  0  0  0
   -8.0240   -2.1620   -0.7400 C   0  0  0  0  0  0  0  0  0  0  0  0
   -7.4190   -3.3910   -1.3850 C   0  0  0  0  0  0  0  0  0  0  0  0
   -6.0630   -3.5400   -0.9390 O   0  0  0  0  0  0  0  0  0  0  0  0
  1  2  2  0
  2  3  1  0
  2  4  1  0
  4  5  2  3
  5  6  1  0
  6  7  2  3
  7  8  1  0
  7  9  1  0
  9 10  1  0
 10 11  1  0
 11 12  1  0
 12 13  2  0
 12 27  1  0
 13 14  1  0
 14 15  2  0
 15 16  1  0
 15 26  1  0
 16 17  2  0
 16 21  1  0
 17 18  1  0
 18 19  2  0
 18 31  1  0
 19 20  1  0
 19 28  1  0
 20 21  2  0
 21 22  1  0
 22 23  2  0
 22 24  1  0
 24 25  1  0
 24 26  1  0
 26 27  2  0
 28 29  1  0
 29 30  1  0
 30 31  1  0
M  CHG  1  10   1
M  END
