
     RDKit          3D

 22 24  0  0  0  0  0  0  0  0999 V2000
    4.4630    2.0150   -0.0700 N   0  0  0  0  0  0  0  0  0  0  0  0
    4.4410    0.6230   -0.6140 C   0  0  0  0  0  0  0  0  0  0  0  0
    3.9140   -0.2140    0.4580 C   0  0  0  0  0  0  0  0  0  0  0  0
    2.9010   -1.0240    0.4780 C   0  0  0  0  0  0  0  0  0  0  0  0
    2.4790   -1.8150    1.7040 C   0  0  0  0  0  0  0  0  0  0  0  0
    1.0030   -1.7840    1.9350 C   0  0  0  0  0  0  0  0  0  0  0  0
    0.2480   -1.2400    0.8190 N   0  0  0  0  0  0  0  0  0  0  0  0
   -0.9410   -0.5400    1.0570 C   0  0  0  0  0  0  0  0  0  0  0  0
   -1.4740   -0.6400    2.2250 O   0  0  0  0  0  0  0  0  0  0  0  0
   -1.5670    0.2800    0.0410 C   0  0  0  0  0  0  0  0  0  0  0  0
   -2.7040    0.9320    0.2440 C   0  0  0  0  0  0  0  0  0  0  0  0
   -3.3480    1.7780   -0.8070 C   0  0  0  0  0  0  0  0  0  0  0  0
   -4.8020    1.3370   -0.8670 C   0  0  0  0  0  0  0  0  0  0  0  0
   -5.4200    1.4050    0.4880 C   0  0  0  0  0  0  0  0  0  0  0  0
   -4.5270    1.7270    1.5010 O   0  0  0  0  0  0  0  0  0  0  0  0
   -3.4260    0.8690    1.5350 C   0  0  0  0  0  0  0  0  0  0  0  0
    0.7490   -1.3950   -0.5050 C   0  0  0  0  0  0  0  0  0  0  0  0
   -0.0510   -1.6560   -1.5660 C   0  0  0  0  0  0  0  0  0  0  0  0
    0.5440   -1.8040   -2.8070 C   0  0  0  0  0  0  0  0  0  0  0  0
    1.8980   -1.6940   -2.9790 N   0  0  0  0  0  0  0  0  0  0  0  0
    2.7240   -1.4360   -1.9450 C   0  0  0  0  0  0  0  0  0  0  0  0
    2.1270   -1.2890   -0.7180 C   0  0  0  0  0  0  0  0  0  0  0  0
  1  2  1  0
  2  3  1  0
  3  4  2  3
  4  5  1  0
  4 22  1  0
  5  6  1  0
  6  7  1  0
  7  8  1  0
  7 17  1  0
  8  9  2  0
  8 10  1  0
 10 11  2  3
 11 12  1  0
 11 16  1  0
 12 13  1  0
 13 14  1  0
 14 15  1  0
 15 16  1  0
 17 18  2  0
 17 22  1  0
 18 19  1  0
 19 20  2  0
 20 21  1  0
 21 22  2  0
M  CHG  1   1   1
M  END
