
     RDKit          3D

 22 24  0  0  0  0  0  0  0  0999 V2000
   -6.3560   -0.6490   -2.4420 C   0  0  0  0  0  0  0  0  0  0  0  0
   -5.5390   -0.1950   -1.2890 C   0  0  0  0  0  0  0  0  0  0  0  0
   -6.1220    0.3800   -0.1820 C   0  0  0  0  0  0  0  0  0  0  0  0
   -5.3580    0.8010    0.8900 C   0  0  0  0  0  0  0  0  0  0  0  0
   -3.9800    0.6690    0.9050 C   0  0  0  0  0  0  0  0  0  0  0  0
   -3.3910    0.0910   -0.2060 C   0  0  0  0  0  0  0  0  0  0  0  0
   -4.1710   -0.3310   -1.2830 C   0  0  0  0  0  0  0  0  0  0  0  0
   -1.9670    0.0780    0.0780 C   0  0  0  0  0  0  0  0  0  0  0  0
   -1.0410   -0.1630   -0.7670 N   0  0  0  0  0  0  0  0  0  0  0  0
    0.3150   -0.1420   -0.3470 N   0  0  0  0  0  0  0  0  0  0  0  0
    1.2700    0.1850   -1.3350 C   0  0  0  0  0  0  0  0  0  0  0  0
    0.8570    0.4350   -2.5170 O   0  0  0  0  0  0  0  0  0  0  0  0
    2.6730    0.2320   -1.0020 C   0  0  0  0  0  0  0  0  0  0  0  0
    3.1070   -0.0200    0.1950 C   0  0  0  0  0  0  0  0  0  0  0  0
    4.5280    0.0180    0.5720 C   0  0  0  0  0  0  0  0  0  0  0  0
    4.9360   -0.2600    1.8650 C   0  0  0  0  0  0  0  0  0  0  0  0
    6.2550   -0.2300    2.2370 C   0  0  0  0  0  0  0  0  0  0  0  0
    7.2020    0.0780    1.3240 N   0  0  0  0  0  0  0  0  0  0  0  0
    6.8310    0.3490    0.0740 C   0  0  0  0  0  0  0  0  0  0  0  0
    5.4990    0.3260   -0.3320 C   0  0  0  0  0  0  0  0  0  0  0  0
   -1.7760    0.3920    1.5080 C   0  0  0  0  0  0  0  0  0  0  0  0
   -2.9980    1.0080    1.8470 O   0  0  0  0  0  0  0  0  0  0  0  0
  1  2  1  0
  2  3  2  0
  2  7  1  0
  3  4  1  0
  4  5  2  0
  5  6  1  0
  5 22  1  0
  6  7  2  0
  6  8  1  0
  8  9  2  3
  8 21  1  0
  9 10  1  0
 10 11  1  0
 11 12  2  0
 11 13  1  0
 13 14  2  3
 14 15  1  0
 15 16  2  0
 15 20  1  0
 16 17  1  0
 17 18  2  0
 18 19  1  0
 19 20  2  0
 21 22  1  0
M  CHG  1  18   1
M  END
