
     RDKit          3D

 22 23  0  0  0  0  0  0  0  0999 V2000
    5.7290    0.4170   -0.4260 C   0  0  0  0  0  0  0  0  0  0  0  0
    4.3610    0.3410    0.2100 C   0  0  2  0  0  0  0  0  0  0  0  0
    3.7970   -1.0540    0.1880 C   0  0  0  0  0  0  0  0  0  0  0  0
    2.5630   -1.0340    1.1010 C   0  0  0  0  0  0  0  0  0  0  0  0
    1.6220   -0.0870    0.5620 N   0  0  0  0  0  0  0  0  0  0  0  0
    0.1970   -0.4560    0.3650 C   0  0  0  0  0  0  0  0  0  0  0  0
   -0.0610   -0.7050   -0.9090 C   0  0  0  0  0  0  0  0  0  0  0  0
   -1.2730   -1.0990   -1.5730 C   0  0  0  0  0  0  0  0  0  0  0  0
   -2.5120   -1.2210   -1.2960 C   0  0  0  0  0  0  0  0  0  0  0  0
   -3.4300   -1.0440   -0.1950 C   0  0  0  0  0  0  0  0  0  0  0  0
   -3.8880   -2.3200    0.5180 C   0  0  0  0  0  0  0  0  0  0  0  0
   -4.4670   -3.1040   -0.5070 O   0  0  0  0  0  0  0  0  0  0  0  0
   -3.9830    0.0830    0.2660 C   0  0  0  0  0  0  0  0  0  0  0  0
   -3.8750    1.4520   -0.1320 C   0  0  0  0  0  0  0  0  0  0  0  0
   -4.7380    1.9400   -1.1900 O   0  0  0  0  0  0  0  0  0  0  0  0
   -3.1010    2.4370    0.3080 C   0  0  0  0  0  0  0  0  0  0  0  0
   -2.1540    2.4820    1.2940 N   0  0  0  0  0  0  0  0  0  0  0  0
   -1.4750    1.7370    2.0070 C   0  0  0  0  0  0  0  0  0  0  0  0
   -1.4000    0.2880    2.0890 C   0  0  0  0  0  0  0  0  0  0  0  0
   -0.7140   -0.5250    1.4050 N   0  0  0  0  0  0  0  0  0  0  0  0
    2.0970    1.2310    0.2170 C   0  0  0  0  0  0  0  0  0  0  0  0
    3.3840    1.2280   -0.5430 C   0  0  0  0  0  0  0  0  0  0  0  0
  2  1  1  6
  2  3  1  0
  2 22  1  0
  3  4  1  0
  4  5  1  0
  5  6  1  0
  5 21  1  0
  6  7  2  0
  6 20  1  0
  7  8  1  0
  8  9  2  0
  9 10  1  0
 10 11  1  0
 10 13  2  0
 11 12  1  0
 13 14  1  0
 14 15  1  0
 14 16  2  0
 16 17  1  0
 17 18  2  0
 18 19  1  0
 19 20  2  0
 21 22  1  0
M  END
