
     RDKit          3D

 28 31  0  0  0  0  0  0  0  0999 V2000
   -5.3870    0.6590    1.6400 C   0  0  0  0  0  0  0  0  0  0  0  0
   -5.9850   -0.3940    0.7860 C   0  0  0  0  0  0  0  0  0  0  0  0
   -5.3030   -1.3740    0.2530 C   0  0  0  0  0  0  0  0  0  0  0  0
   -5.9660   -2.3580   -0.5680 C   0  0  0  0  0  0  0  0  0  0  0  0
   -7.2170   -2.3010   -0.7930 O   0  0  0  0  0  0  0  0  0  0  0  0
   -3.9120   -1.4770    0.4760 N   0  0  0  0  0  0  0  0  0  0  0  0
   -2.9650   -0.5690   -0.0720 C   0  0  0  0  0  0  0  0  0  0  0  0
   -3.3090    0.4880   -0.8650 C   0  0  0  0  0  0  0  0  0  0  0  0
   -2.3540    1.3410   -1.3730 C   0  0  0  0  0  0  0  0  0  0  0  0
   -0.9860    1.1870   -1.1160 C   0  0  0  0  0  0  0  0  0  0  0  0
   -0.0810    2.1550   -1.7120 C   0  0  0  0  0  0  0  0  0  0  0  0
   -0.4670    3.2070   -2.5060 N   0  0  0  0  0  0  0  0  0  0  0  0
    0.5770    3.8720   -2.8700 N   0  0  0  0  0  0  0  0  0  0  0  0
    1.6310    3.2870   -2.3380 C   0  0  0  0  0  0  0  0  0  0  0  0
    1.2400    2.1970   -1.6000 N   0  0  0  0  0  0  0  0  0  0  0  0
    2.1650    1.3750   -0.9120 C   0  0  0  0  0  0  0  0  0  0  0  0
    2.5540    1.6400    0.3940 C   0  0  0  0  0  0  0  0  0  0  0  0
    3.4730    0.8640    1.0680 C   0  0  0  0  0  0  0  0  0  0  0  0
    4.0590   -0.2300    0.4680 C   0  0  0  0  0  0  0  0  0  0  0  0
    5.0370   -1.0590    1.1810 C   0  0  0  0  0  0  0  0  0  0  0  0
    5.6550   -2.1600    0.6380 C   0  0  0  0  0  0  0  0  0  0  0  0
    6.5070   -2.6870    1.5930 C   0  0  0  0  0  0  0  0  0  0  0  0
    6.3620   -1.8650    2.6910 C   0  0  0  0  0  0  0  0  0  0  0  0
    5.4920   -0.9340    2.3890 O   0  0  0  0  0  0  0  0  0  0  0  0
    3.6860   -0.5100   -0.8290 C   0  0  0  0  0  0  0  0  0  0  0  0
    2.7670    0.2660   -1.5020 C   0  0  0  0  0  0  0  0  0  0  0  0
   -0.6600    0.1300   -0.3250 C   0  0  0  0  0  0  0  0  0  0  0  0
   -1.6310   -0.7440    0.1960 C   0  0  0  0  0  0  0  0  0  0  0  0
  1  2  1  0
  2  3  2  3
  3  4  1  0
  3  6  1  0
  4  5  2  0
  6  7  1  0
  7  8  2  0
  7 28  1  0
  8  9  1  0
  9 10  2  0
 10 11  1  0
 10 27  1  0
 11 12  2  0
 11 15  1  0
 12 13  1  0
 13 14  2  0
 14 15  1  0
 15 16  1  0
 16 17  2  0
 16 26  1  0
 17 18  1  0
 18 19  2  0
 19 20  1  0
 19 25  1  0
 20 21  2  0
 20 24  1  0
 21 22  1  0
 22 23  2  0
 23 24  1  0
 25 26  2  0
 27 28  2  0
M  END
