
     RDKit          3D

 28 31  0  0  0  0  0  0  0  0999 V2000
    9.4940    0.4470   -0.1340 C   0  0  0  0  0  0  0  0  0  0  0  0
    8.0190    0.3710    0.0640 C   0  0  0  0  0  0  0  0  0  0  0  0
    7.4950    0.0370    1.2950 C   0  0  0  0  0  0  0  0  0  0  0  0
    6.1300   -0.0370    1.4910 C   0  0  0  0  0  0  0  0  0  0  0  0
    5.2480    0.2220    0.4590 C   0  0  0  0  0  0  0  0  0  0  0  0
    3.8420    0.1520    0.6380 N   0  0  0  0  0  0  0  0  0  0  0  0
    3.1540    0.6590    1.6740 C   0  0  0  0  0  0  0  0  0  0  0  0
    1.8150    0.3460    1.4130 C   0  0  0  0  0  0  0  0  0  0  0  0
    1.7510   -0.3430    0.2200 C   0  0  0  0  0  0  0  0  0  0  0  0
    0.5440   -0.8760   -0.4540 C   0  0  0  0  0  0  0  0  0  0  0  0
    0.6930   -1.4690   -1.5250 O   0  0  0  0  0  0  0  0  0  0  0  0
   -0.7410   -0.7240    0.0880 N   0  0  0  0  0  0  0  0  0  0  0  0
   -1.9650   -1.1730   -0.4390 C   0  0  0  0  0  0  0  0  0  0  0  0
   -2.1070   -1.8210   -1.6370 C   0  0  0  0  0  0  0  0  0  0  0  0
   -3.3550   -2.2570   -2.1220 C   0  0  0  0  0  0  0  0  0  0  0  0
   -4.4590   -2.0090   -1.3410 C   0  0  0  0  0  0  0  0  0  0  0  0
   -4.3810   -1.3620   -0.1260 C   0  0  0  0  0  0  0  0  0  0  0  0
   -5.5210   -1.1290    0.6360 O   0  0  0  0  0  0  0  0  0  0  0  0
   -6.2090    0.0530    0.4290 C   0  0  0  0  0  0  0  0  0  0  0  0
   -7.2120    0.0830   -0.5120 C   0  0  0  0  0  0  0  0  0  0  0  0
   -7.9350    1.2260   -0.7670 C   0  0  0  0  0  0  0  0  0  0  0  0
   -7.6420    2.3720   -0.0570 C   0  0  0  0  0  0  0  0  0  0  0  0
   -6.6490    2.3850    0.8910 C   0  0  0  0  0  0  0  0  0  0  0  0
   -5.9500    1.2080    1.1100 C   0  0  0  0  0  0  0  0  0  0  0  0
   -3.1350   -0.9620    0.2910 C   0  0  0  0  0  0  0  0  0  0  0  0
    3.0210   -0.4350   -0.2130 N   0  0  0  0  0  0  0  0  0  0  0  0
    5.8160    0.5540   -0.7600 C   0  0  0  0  0  0  0  0  0  0  0  0
    7.1490    0.6210   -0.9320 N   0  0  0  0  0  0  0  0  0  0  0  0
  1  2  1  0
  2  3  2  0
  2 28  1  0
  3  4  1  0
  4  5  2  0
  5  6  1  0
  5 27  1  0
  6  7  1  0
  6 26  1  0
  7  8  2  0
  8  9  1  0
  9 10  1  0
  9 26  2  0
 10 11  2  0
 10 12  1  0
 12 13  1  0
 13 14  2  0
 13 25  1  0
 14 15  1  0
 15 16  2  0
 16 17  1  0
 17 18  1  0
 17 25  2  0
 18 19  1  0
 19 20  2  0
 19 24  1  0
 20 21  1  0
 21 22  2  0
 22 23  1  0
 23 24  2  0
 27 28  2  0
M  END
