
     RDKit          3D

 24 25  0  0  0  0  0  0  0  0999 V2000
    3.7440    3.0980    0.4390 C   0  0  0  0  0  0  0  0  0  0  0  0
    2.6350    3.0200   -0.5200 C   0  0  0  0  0  0  0  0  0  0  0  0
    1.9660    1.9750   -0.9080 C   0  0  0  0  0  0  0  0  0  0  0  0
    2.1010    0.5930   -0.5240 C   0  0  0  0  0  0  0  0  0  0  0  0
    3.0850    0.1660    0.4780 C   0  0  0  0  0  0  0  0  0  0  0  0
    1.2720   -0.3130   -1.0750 C   0  0  0  0  0  0  0  0  0  0  0  0
    1.3450   -1.7220   -0.7460 C   0  0  0  0  0  0  0  0  0  0  0  0
    2.4640   -2.4940   -0.9560 C   0  0  0  0  0  0  0  0  0  0  0  0
    3.5810   -1.9750   -1.5840 O   0  0  0  0  0  0  0  0  0  0  0  0
    2.4270   -3.8110   -0.5230 C   0  0  0  0  0  0  0  0  0  0  0  0
    1.3310   -4.3680    0.0960 C   0  0  0  0  0  0  0  0  0  0  0  0
    0.2220   -3.5640    0.2890 C   0  0  0  0  0  0  0  0  0  0  0  0
    0.2070   -2.2480   -0.1210 C   0  0  0  0  0  0  0  0  0  0  0  0
   -0.8860   -1.4170    0.0570 O   0  0  0  0  0  0  0  0  0  0  0  0
   -2.0280   -1.9260    0.6800 C   0  0  0  0  0  0  0  0  0  0  0  0
   -3.1620   -1.0400    0.8540 C   0  0  0  0  0  0  0  0  0  0  0  0
   -4.1870   -1.5880    1.4420 O   0  0  0  0  0  0  0  0  0  0  0  0
   -3.3420    0.3370    0.4880 C   0  0  0  0  0  0  0  0  0  0  0  0
   -2.3580    1.0470   -0.1350 C   0  0  0  0  0  0  0  0  0  0  0  0
   -2.5310    2.3980   -0.4950 C   0  0  0  0  0  0  0  0  0  0  0  0
   -3.6950    3.0430   -0.2310 C   0  0  0  0  0  0  0  0  0  0  0  0
   -4.7120    2.3530    0.3980 C   0  0  0  0  0  0  0  0  0  0  0  0
   -4.5250    1.0310    0.7440 C   0  0  0  0  0  0  0  0  0  0  0  0
   -5.5360    0.3140    1.3800 O   0  0  0  0  0  0  0  0  0  0  0  0
  1  2  1  0
  2  3  2  3
  3  4  1  0
  4  5  1  0
  4  6  2  3
  6  7  1  0
  7  8  2  0
  7 13  1  0
  8  9  1  0
  8 10  1  0
 10 11  2  0
 11 12  1  0
 12 13  2  0
 13 14  1  0
 14 15  1  0
 15 16  1  0
 16 17  2  0
 16 18  1  0
 18 19  2  0
 18 23  1  0
 19 20  1  0
 20 21  2  0
 21 22  1  0
 22 23  2  0
 23 24  1  0
M  END
