
     RDKit          3D

 24 25  0  0  0  0  0  0  0  0999 V2000
    6.6560    0.7930   -2.2130 C   0  0  0  0  0  0  0  0  0  0  0  0
    6.4210    0.4540   -0.8890 O   0  0  0  0  0  0  0  0  0  0  0  0
    5.1950    0.3580   -0.2560 C   0  0  0  0  0  0  0  0  0  0  0  0
    4.0130    0.6010   -0.9000 C   0  0  0  0  0  0  0  0  0  0  0  0
    2.7740    0.5050   -0.2720 C   0  0  0  0  0  0  0  0  0  0  0  0
    2.6830    0.1530    1.0580 C   0  0  0  0  0  0  0  0  0  0  0  0
    1.4280    0.0020    1.7610 C   0  0  0  0  0  0  0  0  0  0  0  0
    0.4010   -0.7110    1.3910 C   0  0  0  0  0  0  0  0  0  0  0  0
    0.4260   -1.4720    0.1640 C   0  0  0  0  0  0  0  0  0  0  0  0
   -0.5230   -2.1760   -0.2780 O   0  0  0  0  0  0  0  0  0  0  0  0
   -0.7220   -0.7390    2.1830 O   0  0  0  0  0  0  0  0  0  0  0  0
   -2.0020   -1.1550    1.8740 C   0  0  0  0  0  0  0  0  0  0  0  0
   -2.6250   -0.3830    0.7820 C   0  0  0  0  0  0  0  0  0  0  0  0
   -2.0260    0.6740    0.1450 C   0  0  0  0  0  0  0  0  0  0  0  0
   -2.6780    1.3750   -0.8780 C   0  0  0  0  0  0  0  0  0  0  0  0
   -1.9970    2.5100   -1.5390 C   0  0  0  0  0  0  0  0  0  0  0  0
   -3.9410    1.0070   -1.2590 C   0  0  0  0  0  0  0  0  0  0  0  0
   -4.5720   -0.0560   -0.6350 C   0  0  0  0  0  0  0  0  0  0  0  0
   -5.9400   -0.4780   -1.0300 C   0  0  0  0  0  0  0  0  0  0  0  0
   -3.9160   -0.7270    0.3610 C   0  0  0  0  0  0  0  0  0  0  0  0
   -4.5610   -1.8620    1.0430 C   0  0  0  0  0  0  0  0  0  0  0  0
    3.9050   -0.0920    1.7080 C   0  0  0  0  0  0  0  0  0  0  0  0
    5.1160    0.0030    1.0880 C   0  0  0  0  0  0  0  0  0  0  0  0
    6.3070   -0.2450    1.7530 O   0  0  0  0  0  0  0  0  0  0  0  0
  1  2  1  0
  2  3  1  0
  3  4  2  0
  3 23  1  0
  4  5  1  0
  5  6  2  0
  6  7  1  0
  6 22  1  0
  7  8  2  3
  8  9  1  0
  8 11  1  0
  9 10  2  0
 11 12  1  0
 12 13  1  0
 13 14  2  0
 13 20  1  0
 14 15  1  0
 15 16  1  0
 15 17  2  0
 17 18  1  0
 18 19  1  0
 18 20  2  0
 20 21  1  0
 22 23  2  0
 23 24  1  0
M  END
