
     RDKit          3D

 24 25  0  0  0  0  0  0  0  0999 V2000
   -3.1900    3.2540    1.1660 C   0  0  0  0  0  0  0  0  0  0  0  0
   -3.4960    1.9380    0.6790 O   0  0  0  0  0  0  0  0  0  0  0  0
   -2.6870    0.8570    0.9980 C   0  0  0  0  0  0  0  0  0  0  0  0
   -1.7070    1.0710    1.7080 O   0  0  0  0  0  0  0  0  0  0  0  0
   -3.0200   -0.4580    0.4940 C   0  0  0  0  0  0  0  0  0  0  0  0
   -4.2650   -0.6700   -0.1290 C   0  0  0  0  0  0  0  0  0  0  0  0
   -4.6660   -1.9020   -0.5840 C   0  0  0  0  0  0  0  0  0  0  0  0
   -5.9540   -2.0770   -1.2220 C   0  0  0  0  0  0  0  0  0  0  0  0
   -6.7720   -1.1440   -1.4020 O   0  0  0  0  0  0  0  0  0  0  0  0
   -3.8410   -2.9910   -0.4400 C   0  0  0  0  0  0  0  0  0  0  0  0
   -2.6350   -2.7950    0.1600 C   0  0  0  0  0  0  0  0  0  0  0  0
   -2.1980   -1.5470    0.6330 C   0  0  0  0  0  0  0  0  0  0  0  0
   -0.8330   -1.5220    1.2030 C   0  0  0  0  0  0  0  0  0  0  0  0
    0.2010   -1.0700    0.2510 C   0  0  0  0  0  0  0  0  0  0  0  0
    0.3810   -1.8970   -0.8690 C   0  0  0  0  0  0  0  0  0  0  0  0
    1.3440   -1.5760   -1.7980 C   0  0  0  0  0  0  0  0  0  0  0  0
    2.1280   -0.4450   -1.6280 C   0  0  0  0  0  0  0  0  0  0  0  0
    3.0840   -0.1490   -2.5820 O   0  0  0  0  0  0  0  0  0  0  0  0
    1.9840    0.3850   -0.5510 C   0  0  0  0  0  0  0  0  0  0  0  0
    2.8270    1.5600   -0.3510 C   0  0  0  0  0  0  0  0  0  0  0  0
    4.1700    1.3290    0.2430 C   0  0  1  0  0  0  0  0  0  0  0  0
    5.0930    0.4310   -0.5160 C   0  0  0  0  0  0  0  0  0  0  0  0
    4.8680    2.6990    0.3040 C   0  0  0  0  0  0  0  0  0  0  0  0
    0.9990    0.0430    0.3850 C   0  0  0  0  0  0  0  0  0  0  0  0
  1  2  1  0
  2  3  1  0
  3  4  2  0
  3  5  1  0
  5  6  2  0
  5 12  1  0
  6  7  1  0
  7  8  1  0
  7 10  2  0
  8  9  2  0
 10 11  1  0
 11 12  2  0
 12 13  1  0
 13 14  1  0
 14 15  2  0
 14 24  1  0
 15 16  1  0
 16 17  2  0
 17 18  1  0
 17 19  1  0
 19 20  1  0
 19 24  2  0
 20 21  1  0
 21 22  1  6
 21 23  1  0
M  END
