
     RDKit          3D

 24 25  0  0  0  0  0  0  0  0999 V2000
   -2.5070    3.7030   -0.3300 C   0  0  0  0  0  0  0  0  0  0  0  0
   -1.1630    3.3830   -0.7250 C   0  0  0  0  0  0  0  0  0  0  0  0
   -0.7130    4.1540   -1.6740 O   0  0  0  0  0  0  0  0  0  0  0  0
   -0.2650    2.3760   -0.2400 C   0  0  0  0  0  0  0  0  0  0  0  0
    1.0300    2.3460   -0.8190 C   0  0  0  0  0  0  0  0  0  0  0  0
    1.4430    3.1330   -1.8240 O   0  0  0  0  0  0  0  0  0  0  0  0
    1.9880    1.4460   -0.3450 C   0  0  0  0  0  0  0  0  0  0  0  0
    1.7020    0.5920    0.6650 C   0  0  0  0  0  0  0  0  0  0  0  0
    2.5870   -0.3060    1.1660 O   0  0  0  0  0  0  0  0  0  0  0  0
    3.8270   -0.7690    1.0140 C   0  0  0  0  0  0  0  0  0  0  0  0
    4.2370   -1.4940   -0.2230 C   0  0  2  0  0  0  0  0  0  0  0  0
    3.4110   -2.7680   -0.3290 C   0  0  0  0  0  0  0  0  0  0  0  0
    5.7040   -1.9360   -0.0930 C   0  0  0  0  0  0  0  0  0  0  0  0
    4.1170   -0.7460   -1.3430 O   0  0  0  0  0  0  0  0  0  0  0  0
    0.4150    0.6390    1.2190 C   0  0  0  0  0  0  0  0  0  0  0  0
   -0.5760    1.5230    0.7750 C   0  0  0  0  0  0  0  0  0  0  0  0
   -1.9220    1.3580    1.3580 C   0  0  0  0  0  0  0  0  0  0  0  0
   -2.7320    0.3400    0.6550 C   0  0  0  0  0  0  0  0  0  0  0  0
   -3.3620   -0.6210    1.4610 C   0  0  0  0  0  0  0  0  0  0  0  0
   -4.1120   -1.6530    0.9470 C   0  0  0  0  0  0  0  0  0  0  0  0
   -4.2780   -1.7880   -0.4130 C   0  0  0  0  0  0  0  0  0  0  0  0
   -5.0870   -2.8990   -0.9890 C   0  0  0  0  0  0  0  0  0  0  0  0
   -3.6660   -0.8530   -1.2150 C   0  0  0  0  0  0  0  0  0  0  0  0
   -2.9050    0.1940   -0.6840 C   0  0  0  0  0  0  0  0  0  0  0  0
  1  2  1  0
  2  3  2  0
  2  4  1  0
  4  5  2  0
  4 16  1  0
  5  6  1  0
  5  7  1  0
  7  8  2  0
  8  9  1  0
  8 15  1  0
  9 10  1  0
 10 11  1  0
 11 12  1  6
 11 13  1  0
 11 14  1  0
 15 16  2  0
 16 17  1  0
 17 18  1  0
 18 19  2  0
 18 24  1  0
 19 20  1  0
 20 21  2  0
 21 22  1  0
 21 23  1  0
 23 24  2  0
M  END
