
     RDKit          3D

  8  8  0  0  0  0  0  0  0  0999 V2000
    2.0350   -0.0460    0.5710 C   0  0  0  0  0  0  0  0  0  0  0  0
    0.9760   -0.5290   -0.2780 N   0  0  0  0  0  0  0  0  0  0  0  0
   -0.0200    0.4830   -0.5930 C   0  0  2  0  0  0  0  0  0  0  0  0
   -0.7240    0.9560    0.6710 C   0  0  0  0  0  0  0  0  0  0  0  0
   -1.8260    0.1740    0.8730 O   0  0  0  0  0  0  0  0  0  0  0  0
   -1.7360   -0.9390    0.0070 C   0  0  0  0  0  0  0  0  0  0  0  0
   -1.1460   -0.2860   -1.1920 C   0  0  0  0  0  0  0  0  0  0  0  0
   -1.4910   -0.3630   -2.3410 O   0  0  0  0  0  0  0  0  0  0  0  0
  1  2  1  0
  3  2  1  1
  3  4  1  0
  3  7  1  0
  4  5  1  0
  5  6  1  0
  6  7  1  0
  7  8  2  0
M  END
