
     RDKit          3D

 17 19  0  0  0  0  0  0  0  0999 V2000
    4.6720    0.2300   -0.2980 C   0  0  0  0  0  0  0  0  0  0  0  0
    3.8500    0.2700    0.7990 C   0  0  0  0  0  0  0  0  0  0  0  0
    2.4620    0.4060    0.6740 C   0  0  0  0  0  0  0  0  0  0  0  0
    1.9400    0.4980   -0.5910 C   0  0  0  0  0  0  0  0  0  0  0  0
    0.5230    0.6160   -0.7980 N   0  0  0  0  0  0  0  0  0  0  0  0
   -0.3600   -0.1740   -0.0350 C   0  0  0  0  0  0  0  0  0  0  0  0
    0.0640   -1.2850    0.6600 C   0  0  0  0  0  0  0  0  0  0  0  0
   -0.8200   -2.0980    1.3670 C   0  0  0  0  0  0  0  0  0  0  0  0
   -2.1590   -1.8060    1.3890 C   0  0  0  0  0  0  0  0  0  0  0  0
   -2.5950   -0.6950    0.6960 C   0  0  0  0  0  0  0  0  0  0  0  0
   -3.9460   -0.4040    0.7250 C   0  0  0  0  0  0  0  0  0  0  0  0
   -4.4170    0.6960    0.0520 C   0  0  0  0  0  0  0  0  0  0  0  0
   -3.5550    1.5030   -0.6470 C   0  0  0  0  0  0  0  0  0  0  0  0
   -2.1800    1.2330   -0.6940 C   0  0  0  0  0  0  0  0  0  0  0  0
   -1.7210    0.1330   -0.0200 C   0  0  0  0  0  0  0  0  0  0  0  0
    2.7670    0.4580   -1.6950 C   0  0  0  0  0  0  0  0  0  0  0  0
    4.1280    0.3250   -1.5580 C   0  0  0  0  0  0  0  0  0  0  0  0
  1  2  2  0
  1 17  1  0
  2  3  1  0
  3  4  2  0
  4  5  1  0
  4 16  1  0
  5  6  1  0
  6  7  2  0
  6 15  1  0
  7  8  1  0
  8  9  2  0
  9 10  1  0
 10 11  2  0
 10 15  1  0
 11 12  1  0
 12 13  2  0
 13 14  1  0
 14 15  2  0
 16 17  2  0
M  END
