
     RDKit          3D

 24 25  0  0  0  0  0  0  0  0999 V2000
    3.7850   -0.1990   -1.3580 C   0  0  0  0  0  0  0  0  0  0  0  0
    3.8950    0.8400   -0.3100 C   0  0  0  0  0  0  0  0  0  0  0  0
    5.0020    1.5710   -0.3540 C   0  0  0  0  0  0  0  0  0  0  0  0
    5.2590    2.5450    0.5160 O   0  0  0  0  0  0  0  0  0  0  0  0
    4.3790    2.9360    1.5330 C   0  0  0  0  0  0  0  0  0  0  0  0
    3.1460    2.0900    1.5600 C   0  0  0  0  0  0  0  0  0  0  0  0
    2.8860    1.1220    0.7260 C   0  0  0  0  0  0  0  0  0  0  0  0
    1.7720    0.4020    0.7470 O   0  0  0  0  0  0  0  0  0  0  0  0
    1.2150   -0.7560    1.2420 C   0  0  0  0  0  0  0  0  0  0  0  0
   -0.1130   -0.8660    0.5310 C   0  0  0  0  0  0  0  0  0  0  0  0
   -0.9120    0.2010    0.4970 C   0  0  0  0  0  0  0  0  0  0  0  0
   -2.1710    0.0760   -0.1750 C   0  0  0  0  0  0  0  0  0  0  0  0
   -3.0600    1.0560   -0.2240 O   0  0  0  0  0  0  0  0  0  0  0  0
   -3.7330    2.0880   -0.5510 C   0  0  1  0  0  0  0  0  0  0  0  0
   -4.9930    2.2150    0.3720 C   0  0  0  0  0  0  0  0  0  0  0  0
   -2.9680    3.4080   -0.3240 C   0  0  0  0  0  0  0  0  0  0  0  0
   -4.2140    2.0390   -1.9960 C   0  0  0  0  0  0  0  0  0  0  0  0
   -2.4350   -1.1660   -0.7660 C   0  0  0  0  0  0  0  0  0  0  0  0
   -1.5750   -2.1920   -0.6870 C   0  0  0  0  0  0  0  0  0  0  0  0
   -0.3440   -2.1220   -0.0120 C   0  0  0  0  0  0  0  0  0  0  0  0
    0.4020   -3.3140    0.3370 C   0  0  2  0  0  0  0  0  0  0  0  0
    1.8520   -3.3960    0.1820 C   0  0  0  0  0  0  0  0  0  0  0  0
   -0.2110   -4.5230   -0.3090 C   0  0  0  0  0  0  0  0  0  0  0  0
    0.1170   -3.5640    1.7720 O   0  0  0  0  0  0  0  0  0  0  0  0
  1  2  1  0
  2  3  2  0
  2  7  1  0
  3  4  1  0
  4  5  1  0
  5  6  1  0
  6  7  2  0
  7  8  1  0
  8  9  1  0
  9 10  1  0
 10 11  2  0
 10 20  1  0
 11 12  1  0
 12 13  1  0
 12 18  2  0
 13 14  1  0
 14 15  1  1
 14 16  1  0
 14 17  1  0
 18 19  1  0
 19 20  2  0
 20 21  1  0
 21 22  1  1
 21 23  1  0
 21 24  1  0
M  END
