
     RDKit          3D

 24 25  0  0  0  0  0  0  0  0999 V2000
    5.5810    0.5110   -2.0040 C   0  0  0  0  0  0  0  0  0  0  0  0
    5.7610    0.3150   -0.6770 C   0  0  0  0  0  0  0  0  0  0  0  0
    6.9280   -0.4340   -0.2060 C   0  0  0  0  0  0  0  0  0  0  0  0
    6.9540   -0.5430    1.2540 C   0  0  0  0  0  0  0  0  0  0  0  0
    6.0490   -0.0360    2.0600 C   0  0  0  0  0  0  0  0  0  0  0  0
    4.8970    0.7060    1.5740 C   0  0  0  0  0  0  0  0  0  0  0  0
    4.7950    0.8520    0.2660 C   0  0  0  0  0  0  0  0  0  0  0  0
    3.7100    1.5570   -0.2980 O   0  0  0  0  0  0  0  0  0  0  0  0
    2.3760    1.1760   -0.0220 C   0  0  0  0  0  0  0  0  0  0  0  0
    2.1150   -0.2470   -0.4740 C   0  0  0  0  0  0  0  0  0  0  0  0
    0.7990   -0.6550   -0.2130 O   0  0  0  0  0  0  0  0  0  0  0  0
   -0.3300   -0.0430   -0.7250 C   0  0  0  0  0  0  0  0  0  0  0  0
   -0.1630    0.9460   -1.4760 O   0  0  0  0  0  0  0  0  0  0  0  0
   -1.7100   -0.4880   -0.4380 C   0  0  1  0  0  0  0  0  0  0  0  0
   -1.8000   -1.9340   -0.9450 C   0  0  0  0  0  0  0  0  0  0  0  0
   -2.0280   -0.4960    1.0290 C   0  0  0  0  0  0  0  0  0  0  0  0
   -3.4230   -0.1520    1.3710 C   0  0  1  0  0  0  0  0  0  0  0  0
   -3.8390   -1.0430    2.5560 C   0  0  0  0  0  0  0  0  0  0  0  0
   -3.4920    1.2760    1.9310 C   0  0  0  0  0  0  0  0  0  0  0  0
   -4.3590   -0.3270    0.4070 O   0  0  0  0  0  0  0  0  0  0  0  0
   -4.1080    0.1420   -0.8320 C   0  0  2  0  0  0  0  0  0  0  0  0
   -4.8560    1.4580   -1.0470 C   0  0  0  0  0  0  0  0  0  0  0  0
   -4.7080   -0.8340   -1.8430 C   0  0  0  0  0  0  0  0  0  0  0  0
   -2.6660    0.3960   -1.1580 C   0  0  0  0  0  0  0  0  0  0  0  0
  1  2  2  0
  2  3  1  0
  2  7  1  0
  3  4  1  0
  4  5  2  0
  5  6  1  0
  6  7  2  0
  7  8  1  0
  8  9  1  0
  9 10  1  0
 10 11  1  0
 11 12  1  0
 12 13  2  0
 12 14  1  0
 14 15  1  6
 14 16  1  0
 14 24  1  0
 16 17  1  0
 17 18  1  1
 17 19  1  0
 17 20  1  0
 20 21  1  0
 21 22  1  1
 21 23  1  0
 21 24  1  0
M  END
