
     RDKit          3D

 24 25  0  0  0  0  0  0  0  0999 V2000
    6.4790    0.5170   -0.0130 C   0  0  0  0  0  0  0  0  0  0  0  0
    5.7400    1.0620    1.1880 C   0  0  0  0  0  0  0  0  0  0  0  0
    4.8510    2.0620    0.8820 O   0  0  0  0  0  0  0  0  0  0  0  0
    3.8540    1.7170    0.0110 C   0  0  0  0  0  0  0  0  0  0  0  0
    2.9800    0.5940    0.5060 C   0  0  0  0  0  0  0  0  0  0  0  0
    1.9780    0.3010   -0.4490 O   0  0  0  0  0  0  0  0  0  0  0  0
    1.0200   -0.6810   -0.2780 C   0  0  0  0  0  0  0  0  0  0  0  0
    1.3230   -1.9630   -0.7040 C   0  0  0  0  0  0  0  0  0  0  0  0
    2.6500   -2.2690   -1.3300 C   0  0  0  0  0  0  0  0  0  0  0  0
    0.3540   -2.9260   -0.5240 C   0  0  0  0  0  0  0  0  0  0  0  0
   -0.8510   -2.5900    0.0590 C   0  0  0  0  0  0  0  0  0  0  0  0
   -1.1430   -1.3080    0.4800 C   0  0  0  0  0  0  0  0  0  0  0  0
   -2.4460   -1.0630    1.0800 C   0  0  2  0  0  0  0  0  0  0  0  0
   -2.9740   -2.2950    1.4940 O   0  0  0  0  0  0  0  0  0  0  0  0
   -3.4070   -0.3030    0.3240 C   0  0  0  0  0  0  0  0  0  0  0  0
   -3.8070    0.9390    0.7410 C   0  0  0  0  0  0  0  0  0  0  0  0
   -4.7290    1.7040    0.0570 C   0  0  0  0  0  0  0  0  0  0  0  0
   -5.1520    3.0480    0.5210 C   0  0  0  0  0  0  0  0  0  0  0  0
   -5.2620    1.1900   -1.0880 C   0  0  0  0  0  0  0  0  0  0  0  0
   -4.8950   -0.0420   -1.5440 C   0  0  0  0  0  0  0  0  0  0  0  0
   -3.9680   -0.7740   -0.8270 C   0  0  0  0  0  0  0  0  0  0  0  0
   -3.6320   -2.0200   -1.3380 O   0  0  0  0  0  0  0  0  0  0  0  0
   -0.1810   -0.3340    0.3050 C   0  0  0  0  0  0  0  0  0  0  0  0
   -0.5380    1.0180    0.7590 C   0  0  0  0  0  0  0  0  0  0  0  0
  1  2  1  0
  2  3  1  0
  3  4  1  0
  4  5  1  0
  5  6  1  0
  6  7  1  0
  7  8  2  0
  7 23  1  0
  8  9  1  0
  8 10  1  0
 10 11  2  0
 11 12  1  0
 12 13  1  0
 12 23  2  0
 13 14  1  6
 13 15  1  0
 15 16  2  0
 15 21  1  0
 16 17  1  0
 17 18  1  0
 17 19  2  0
 19 20  1  0
 20 21  2  0
 21 22  1  0
 23 24  1  0
M  END
