
     RDKit          3D

 11 10  0  0  0  0  0  0  0  0999 V2000
    4.0780    0.9030    1.2000 C   0  0  0  0  0  0  0  0  0  0  0  0
    3.4650    0.0860    0.3570 C   0  0  0  0  0  0  0  0  0  0  0  0
    3.8760   -1.3600    0.2930 C   0  0  0  0  0  0  0  0  0  0  0  0
    2.3950    0.6060   -0.5020 C   0  0  0  0  0  0  0  0  0  0  0  0
    1.0700   -0.0870   -0.2730 C   0  0  0  0  0  0  0  0  0  0  0  0
    0.0130    0.4820   -1.1740 C   0  0  0  0  0  0  0  0  0  0  0  0
   -1.3370   -0.1570   -1.0140 C   0  0  2  0  0  0  0  0  0  0  0  0
   -2.3190    0.5090   -1.9860 C   0  0  0  0  0  0  0  0  0  0  0  0
   -1.8540    0.0760    0.3670 C   0  0  0  0  0  0  0  0  0  0  0  0
   -3.2180   -0.5440    0.5900 C   0  0  0  0  0  0  0  0  0  0  0  0
   -3.6070   -0.2460    1.9690 N   0  0  0  0  0  0  0  0  0  0  0  0
  1  2  2  0
  2  3  1  0
  2  4  1  0
  4  5  1  0
  5  6  1  0
  6  7  1  0
  7  8  1  6
  7  9  1  0
  9 10  1  0
 10 11  1  0
M  CHG  1  11   1
M  END
