
     RDKit          3D

 11 10  0  0  0  0  0  0  0  0999 V2000
   -2.2240   -2.6730    0.0530 C   0  0  0  0  0  0  0  0  0  0  0  0
   -2.4030   -1.4510   -0.2680 C   0  0  0  0  0  0  0  0  0  0  0  0
   -1.6070   -0.3290    0.2140 C   0  0  0  0  0  0  0  0  0  0  0  0
   -1.9680    0.8520   -0.2030 C   0  0  0  0  0  0  0  0  0  0  0  0
   -1.4640    2.1930    0.0320 C   0  0  0  0  0  0  0  0  0  0  0  0
   -0.4470   -0.5800    1.0660 C   0  0  2  0  0  0  0  0  0  0  0  0
   -0.2530    0.4640    2.0190 N   0  0  0  0  0  0  0  0  0  0  0  0
    0.7380   -1.2170    0.4770 C   0  0  0  0  0  0  0  0  0  0  0  0
    1.5030   -0.6230   -0.6200 C   0  0  0  0  0  0  0  0  0  0  0  0
    2.2300    0.6440   -0.4050 C   0  0  0  0  0  0  0  0  0  0  0  0
    2.9810    1.0850   -1.6820 C   0  0  0  0  0  0  0  0  0  0  0  0
  1  2  2  0
  2  3  1  0
  3  4  2  3
  3  6  1  0
  4  5  1  0
  6  7  1  6
  6  8  1  0
  8  9  1  0
  9 10  1  0
 10 11  1  0
M  CHG  1   7   1
M  END
