
     RDKit          3D

 11 10  0  0  0  0  0  0  0  0999 V2000
   -2.5970   -0.7900    1.1470 C   0  0  0  0  0  0  0  0  0  0  0  0
   -2.7590    0.0200    0.1490 C   0  0  0  0  0  0  0  0  0  0  0  0
   -1.8330    0.8580   -0.5250 C   0  0  0  0  0  0  0  0  0  0  0  0
   -0.4440    1.0400   -0.2810 C   0  0  0  0  0  0  0  0  0  0  0  0
    0.3840    0.5360    0.5800 C   0  0  0  0  0  0  0  0  0  0  0  0
    1.8290    0.9690    0.5490 C   0  0  0  0  0  0  0  0  0  0  0  0
    2.7310   -0.2160    0.3050 C   0  0  0  0  0  0  0  0  0  0  0  0
    2.6070   -1.2690    1.3640 C   0  0  0  0  0  0  0  0  0  0  0  0
    3.5220   -2.3480    1.0140 N   0  0  0  0  0  0  0  0  0  0  0  0
   -2.3470    1.5900   -1.5490 C   0  0  0  0  0  0  0  0  0  0  0  0
   -3.7720    1.4660   -1.8720 C   0  0  0  0  0  0  0  0  0  0  0  0
  1  2  2  0
  2  3  1  0
  3  4  1  0
  3 10  2  3
  4  5  2  3
  5  6  1  0
  6  7  1  0
  7  8  1  0
  8  9  1  0
 10 11  1  0
M  CHG  1   9   1
M  END
