
     RDKit          3D

 11 10  0  0  0  0  0  0  0  0999 V2000
    5.5750    0.2530    0.2360 C   0  0  0  0  0  0  0  0  0  0  0  0
    4.5070   -0.8370    0.0950 C   0  0  0  0  0  0  0  0  0  0  0  0
    3.2010   -0.3670    0.5670 C   0  0  0  0  0  0  0  0  0  0  0  0
    2.1510   -0.3210   -0.2200 C   0  0  0  0  0  0  0  0  0  0  0  0
    0.8620    0.1540    0.2830 C   0  0  0  0  0  0  0  0  0  0  0  0
   -0.1690    0.1880   -0.5270 C   0  0  0  0  0  0  0  0  0  0  0  0
   -1.4740    0.6720   -0.0040 C   0  0  1  0  0  0  0  0  0  0  0  0
   -1.8720    1.8790   -0.8430 C   0  0  0  0  0  0  0  0  0  0  0  0
   -2.4620   -0.4570   -0.1640 C   0  0  0  0  0  0  0  0  0  0  0  0
   -3.8370   -0.0820    0.3370 C   0  0  0  0  0  0  0  0  0  0  0  0
   -4.7170   -1.2190    0.1460 N   0  0  0  0  0  0  0  0  0  0  0  0
  1  2  1  0
  2  3  1  0
  3  4  2  3
  4  5  1  0
  5  6  2  3
  6  7  1  0
  7  8  1  6
  7  9  1  0
  9 10  1  0
 10 11  1  0
M  CHG  1  11   1
M  END
