
     RDKit          3D

 11 10  0  0  0  0  0  0  0  0999 V2000
    4.1840   -0.0380   -0.0520 C   0  0  0  0  0  0  0  0  0  0  0  0
    2.9510   -0.2630   -0.5190 C   0  0  0  0  0  0  0  0  0  0  0  0
    2.0880    0.8980   -0.8270 C   0  0  0  0  0  0  0  0  0  0  0  0
    0.8170    0.8700    0.0480 C   0  0  2  0  0  0  0  0  0  0  0  0
    1.3120    0.9150    1.4100 N   0  0  0  0  0  0  0  0  0  0  0  0
    0.0340   -0.3400   -0.2780 C   0  0  0  0  0  0  0  0  0  0  0  0
   -1.2370   -0.5890    0.4500 C   0  0  2  0  0  0  0  0  0  0  0  0
   -1.8470   -1.9130   -0.0510 C   0  0  0  0  0  0  0  0  0  0  0  0
   -2.1430   -1.9000   -1.5100 C   0  0  0  0  0  0  0  0  0  0  0  0
   -2.3060    0.4230    0.3360 C   0  0  0  0  0  0  0  0  0  0  0  0
   -2.0370    1.8010    0.8370 C   0  0  0  0  0  0  0  0  0  0  0  0
  1  2  2  0
  2  3  1  0
  3  4  1  0
  4  5  1  1
  4  6  1  0
  7  6  1  6
  7  8  1  0
  7 10  1  0
  8  9  1  0
 10 11  1  0
M  CHG  1   5   1
M  END
