
     RDKit          3D

 11 10  0  0  0  0  0  0  0  0999 V2000
    4.6240    2.0590   -0.2880 C   0  0  0  0  0  0  0  0  0  0  0  0
    4.4480    0.7940    0.0300 C   0  0  0  0  0  0  0  0  0  0  0  0
    3.1090    0.1580   -0.0600 C   0  0  0  0  0  0  0  0  0  0  0  0
    2.9390   -1.0930    0.2560 C   0  0  0  0  0  0  0  0  0  0  0  0
    1.6760   -1.8120    0.2080 C   0  0  0  0  0  0  0  0  0  0  0  0
    0.4460   -1.0520   -0.1410 C   0  0  0  0  0  0  0  0  0  0  0  0
   -0.0010   -0.0230    0.8320 C   0  0  0  0  0  0  0  0  0  0  0  0
   -1.2420    0.7140    0.3730 C   0  0  0  0  0  0  0  0  0  0  0  0
   -2.4140   -0.1950    0.1660 C   0  0  0  0  0  0  0  0  0  0  0  0
   -3.5850    0.6680   -0.2900 C   0  0  0  0  0  0  0  0  0  0  0  0
   -4.7760   -0.1160   -0.5210 N   0  0  0  0  0  0  0  0  0  0  0  0
  1  2  2  0
  2  3  1  0
  3  4  2  3
  4  5  1  0
  5  6  1  0
  6  7  1  0
  7  8  1  0
  8  9  1  0
  9 10  1  0
 10 11  1  0
M  CHG  1  11   1
M  END
