
     RDKit          3D

 11 10  0  0  0  0  0  0  0  0999 V2000
    2.4150    0.9430    2.4080 C   0  0  0  0  0  0  0  0  0  0  0  0
    2.7250    1.0640    1.1460 C   0  0  0  0  0  0  0  0  0  0  0  0
    1.9960    0.4950    0.0340 C   0  0  0  0  0  0  0  0  0  0  0  0
    2.4670    0.6970   -1.1890 C   0  0  0  0  0  0  0  0  0  0  0  0
    1.7960    0.1580   -2.3950 C   0  0  0  0  0  0  0  0  0  0  0  0
    0.7840   -0.3010    0.1820 C   0  0  0  0  0  0  0  0  0  0  0  0
   -0.4100    0.3840    0.7430 C   0  0  0  0  0  0  0  0  0  0  0  0
   -1.5440   -0.5980    0.8670 C   0  0  1  0  0  0  0  0  0  0  0  0
   -2.7400    0.0100    1.4130 N   0  0  0  0  0  0  0  0  0  0  0  0
   -1.7870   -1.3510   -0.3900 C   0  0  0  0  0  0  0  0  0  0  0  0
   -2.1300   -0.5220   -1.5720 C   0  0  0  0  0  0  0  0  0  0  0  0
  1  2  2  0
  2  3  1  0
  3  4  2  3
  3  6  1  0
  4  5  1  0
  6  7  1  0
  7  8  1  0
  8  9  1  6
  8 10  1  0
 10 11  1  0
M  CHG  1   9   1
M  END
