
     RDKit          3D

 16 17  0  0  0  0  0  0  0  0999 V2000
    1.0830   -2.0490   -0.3850 C   0  0  0  0  0  0  0  0  0  0  0  0
    1.2400   -0.6220   -0.3420 N   0  0  0  0  0  0  0  0  0  0  0  0
    0.3090    0.2360   -0.9600 C   0  0  0  0  0  0  0  0  0  0  0  0
   -1.0740    0.2250   -0.5100 C   0  0  0  0  0  0  0  0  0  0  0  0
   -1.6600   -0.5020    0.4680 C   0  0  0  0  0  0  0  0  0  0  0  0
   -2.9970   -0.4350    0.8120 C   0  0  0  0  0  0  0  0  0  0  0  0
   -3.5100   -1.2180    1.8240 O   0  0  0  0  0  0  0  0  0  0  0  0
   -3.8150    0.4490    0.1020 C   0  0  0  0  0  0  0  0  0  0  0  0
   -3.2610    1.2090   -0.9010 C   0  0  0  0  0  0  0  0  0  0  0  0
   -1.9230    1.1090   -1.2100 C   0  0  0  0  0  0  0  0  0  0  0  0
   -1.4450    1.9110   -2.2370 O   0  0  0  0  0  0  0  0  0  0  0  0
    2.3670   -0.0680    0.3140 C   0  0  0  0  0  0  0  0  0  0  0  0
    2.6320    0.2320    1.6130 C   0  0  0  0  0  0  0  0  0  0  0  0
    3.8970    0.7720    1.6980 C   0  0  0  0  0  0  0  0  0  0  0  0
    4.4000    0.8030    0.4800 O   0  0  0  0  0  0  0  0  0  0  0  0
    3.5290    0.3160   -0.3760 C   0  0  0  0  0  0  0  0  0  0  0  0
  1  2  1  0
  2  3  1  0
  2 12  1  0
  3  4  1  0
  4  5  2  0
  4 10  1  0
  5  6  1  0
  6  7  1  0
  6  8  2  0
  8  9  1  0
  9 10  2  0
 10 11  1  0
 12 13  1  0
 12 16  2  0
 13 14  2  0
 14 15  1  0
 15 16  1  0
M  END
