
     RDKit          3D

 23 24  0  0  0  0  0  0  0  0999 V2000
   -2.8010   -2.6410    0.5950 C   0  0  0  0  0  0  0  0  0  0  0  0
   -2.9060   -1.2890    1.2730 C   0  0  1  0  0  0  0  0  0  0  0  0
   -1.8350   -0.4300    1.1790 N   0  0  0  0  0  0  0  0  0  0  0  0
   -0.5500   -0.6600    0.3800 C   0  0  0  0  0  0  0  0  0  0  0  0
   -0.5530   -1.6780   -0.2430 O   0  0  0  0  0  0  0  0  0  0  0  0
    0.2380    0.3820    0.6110 N   0  0  0  0  0  0  0  0  0  0  0  0
    1.5460   -0.0970   -0.4520 C   0  0  0  0  0  0  0  0  0  0  0  0
    1.3240   -1.0810   -1.0410 O   0  0  0  0  0  0  0  0  0  0  0  0
    2.6150    0.8260   -0.3690 C   0  0  0  0  0  0  0  0  0  0  0  0
    2.6500    1.8160    0.3720 O   0  0  0  0  0  0  0  0  0  0  0  0
    3.7940    0.6580   -1.1900 N   0  0  0  0  0  0  0  0  0  0  0  0
    4.8920    1.4790   -1.2000 N   0  0  0  0  0  0  0  0  0  0  0  0
    5.1060    2.6350   -0.5910 C   0  0  0  0  0  0  0  0  0  0  0  0
    4.3770    3.3800    0.1190 O   0  0  0  0  0  0  0  0  0  0  0  0
    6.3970    3.0150   -0.8440 N   0  0  0  0  0  0  0  0  0  0  0  0
    6.9740    2.0950   -1.6090 N   0  0  0  0  0  0  0  0  0  0  0  0
    6.0510    1.1580   -1.8230 C   0  0  0  0  0  0  0  0  0  0  0  0
    6.2130    0.1070   -2.5070 O   0  0  0  0  0  0  0  0  0  0  0  0
   -4.1920   -0.5810    1.0740 C   0  0  1  0  0  0  0  0  0  0  0  0
   -4.4800   -0.3400   -0.3990 C   0  0  0  0  0  0  0  0  0  0  0  0
   -5.5780    0.5120   -0.4240 O   0  0  0  0  0  0  0  0  0  0  0  0
   -6.6840   -0.4200    0.5530 S   0  0  0  0  0  0  0  0  0  0  0  0
   -5.4040   -1.3080    1.5450 C   0  0  0  0  0  0  0  0  0  0  0  0
  2  1  1  6
  2  3  1  0
  2 19  1  0
  3  4  1  0
  4  5  2  0
  4  6  1  0
  6  7  1  0
  7  8  2  0
  7  9  1  0
  9 10  2  0
  9 11  1  0
 11 12  1  0
 12 13  1  0
 12 17  1  0
 13 14  2  0
 13 15  1  0
 15 16  1  0
 16 17  1  0
 17 18  2  0
 19 20  1  6
 19 23  1  0
 20 21  1  0
 21 22  1  0
 22 23  1  0
M  END
