
     RDKit          3D

 16 17  0  0  0  0  0  0  0  0999 V2000
   -4.5990    1.6760   -0.7420 N   0  0  0  0  0  0  0  0  0  0  0  0
   -3.7040    0.6580   -0.3950 C   0  0  0  0  0  0  0  0  0  0  0  0
   -4.1550   -0.5920   -0.0110 C   0  0  0  0  0  0  0  0  0  0  0  0
   -3.2730   -1.6180    0.3380 C   0  0  0  0  0  0  0  0  0  0  0  0
   -1.9260   -1.3370    0.2860 C   0  0  0  0  0  0  0  0  0  0  0  0
   -1.4400   -0.1070   -0.0900 C   0  0  0  0  0  0  0  0  0  0  0  0
   -0.0900    0.1860   -0.1460 O   0  0  0  0  0  0  0  0  0  0  0  0
    0.8510   -0.7960    0.1910 C   0  0  0  0  0  0  0  0  0  0  0  0
    2.2340   -0.2440    0.0540 C   0  0  0  0  0  0  0  0  0  0  0  0
    2.5180    1.0450   -0.3470 C   0  0  0  0  0  0  0  0  0  0  0  0
    3.8940    1.1250   -0.3350 C   0  0  0  0  0  0  0  0  0  0  0  0
    4.4060   -0.1080    0.0700 C   0  0  0  0  0  0  0  0  0  0  0  0
    5.8160   -0.4420    0.2150 C   0  0  0  0  0  0  0  0  0  0  0  0
    6.6700    0.4320   -0.0390 O   0  0  0  0  0  0  0  0  0  0  0  0
    3.3610   -0.8790    0.2860 O   0  0  0  0  0  0  0  0  0  0  0  0
   -2.3370    0.8880   -0.4300 C   0  0  0  0  0  0  0  0  0  0  0  0
  1  2  1  0
  2  3  2  0
  2 16  1  0
  3  4  1  0
  4  5  2  0
  5  6  1  0
  6  7  1  0
  6 16  2  0
  7  8  1  0
  8  9  1  0
  9 10  2  0
  9 15  1  0
 10 11  1  0
 11 12  2  0
 12 13  1  0
 12 15  1  0
 13 14  2  0
M  END
