
     RDKit          3D

 23 25  0  0  0  0  0  0  0  0999 V2000
   -3.9780    0.8590    1.5240 C   0  0  0  0  0  0  0  0  0  0  0  0
   -2.9790    0.4750    0.4520 C   0  0  1  0  0  0  0  0  0  0  0  0
   -3.7700    0.1890   -0.8060 C   0  0  0  0  0  0  0  0  0  0  0  0
   -4.5050    1.3570   -1.0810 O   0  0  0  0  0  0  0  0  0  0  0  0
   -2.0970    1.5700    0.2990 O   0  0  0  0  0  0  0  0  0  0  0  0
   -0.8330    1.0530   -0.0550 C   0  0  0  0  0  0  0  0  0  0  0  0
    0.1540    1.7110   -0.4530 O   0  0  0  0  0  0  0  0  0  0  0  0
   -0.8300   -0.3410    0.1060 N   0  0  0  0  0  0  0  0  0  0  0  0
   -0.1850   -1.5800   -0.1290 C   0  0  0  0  0  0  0  0  0  0  0  0
    1.5100   -1.9560   -0.4370 S   0  0  0  0  0  0  0  0  0  0  0  0
    2.6510   -0.6280   -0.4780 C   0  0  1  0  0  0  0  0  0  0  0  0
    2.5270    0.3000   -1.5870 N   0  0  0  0  0  0  0  0  0  0  0  0
    2.7170    0.1740    0.7700 C   0  0  0  0  0  0  0  0  0  0  0  0
    1.7940    0.1190    1.5890 O   0  0  0  0  0  0  0  0  0  0  0  0
    3.8520    0.9780    0.9720 N   0  0  0  0  0  0  0  0  0  0  0  0
    5.1060    0.6900    0.3460 C   0  0  0  0  0  0  0  0  0  0  0  0
    6.1330    1.3880    0.5080 O   0  0  0  0  0  0  0  0  0  0  0  0
    5.1810   -0.4430   -0.4990 N   0  0  0  0  0  0  0  0  0  0  0  0
    4.0300   -1.2500   -0.6990 C   0  0  0  0  0  0  0  0  0  0  0  0
    4.1400   -2.4470   -1.0480 O   0  0  0  0  0  0  0  0  0  0  0  0
   -1.1460   -2.4850   -0.0650 N   0  0  0  0  0  0  0  0  0  0  0  0
   -2.3740   -1.9100    0.1970 N   0  0  0  0  0  0  0  0  0  0  0  0
   -2.0770   -0.6350    0.8570 C   0  0  2  0  0  0  0  0  0  0  0  0
  2  1  1  1
  2  3  1  0
  2  5  1  0
  2 23  1  0
  3  4  1  0
  5  6  1  0
  6  7  2  0
  6  8  1  0
  8  9  1  0
  8 23  1  0
  9 10  1  0
  9 21  2  0
 10 11  1  0
 11 12  1  6
 11 13  1  0
 11 19  1  0
 13 14  2  0
 13 15  1  0
 15 16  1  0
 16 17  2  0
 16 18  1  0
 18 19  1  0
 19 20  2  0
 21 22  1  0
 23 22  1  6
M  END
