
     RDKit          3D

 12 12  0  0  0  0  0  0  0  0999 V2000
    2.0940    0.5220    2.0980 C   0  0  0  0  0  0  0  0  0  0  0  0
    2.0680    1.6440    1.4320 C   0  0  0  0  0  0  0  0  0  0  0  0
    1.4310    1.8200    0.1010 C   0  0  0  0  0  0  0  0  0  0  0  0
    0.8190    0.5970   -0.4120 C   0  0  0  0  0  0  0  0  0  0  0  0
    1.4950   -0.3170   -1.1900 C   0  0  0  0  0  0  0  0  0  0  0  0
    0.8770   -1.4550   -1.6500 C   0  0  0  0  0  0  0  0  0  0  0  0
   -0.4430   -1.7230   -1.3490 C   0  0  0  0  0  0  0  0  0  0  0  0
   -1.0850   -2.8710   -1.8070 O   0  0  0  0  0  0  0  0  0  0  0  0
   -1.1330   -0.8170   -0.5720 C   0  0  0  0  0  0  0  0  0  0  0  0
   -2.4810   -1.0450   -0.2370 O   0  0  0  0  0  0  0  0  0  0  0  0
   -3.2090   -0.1380    0.5540 C   0  0  0  0  0  0  0  0  0  0  0  0
   -0.4990    0.3340   -0.1090 C   0  0  0  0  0  0  0  0  0  0  0  0
  1  2  2  0
  2  3  1  0
  3  4  1  0
  4  5  2  0
  4 12  1  0
  5  6  1  0
  6  7  2  0
  7  8  1  0
  7  9  1  0
  9 10  1  0
  9 12  2  0
 10 11  1  0
M  END
