
     RDKit          3D

 23 24  0  0  0  0  0  0  0  0999 V2000
    0.9640   -3.4190    1.5560 N   0  0  0  0  0  0  0  0  0  0  0  0
    0.4690   -2.0780    1.7250 C   0  0  0  0  0  0  0  0  0  0  0  0
   -0.5280   -1.9150    2.4020 O   0  0  0  0  0  0  0  0  0  0  0  0
    1.2130   -1.0060    1.0610 C   0  0  0  0  0  0  0  0  0  0  0  0
    2.2930   -1.4140    0.4020 C   0  0  0  0  0  0  0  0  0  0  0  0
    3.2020   -0.5310   -0.3520 C   0  0  0  0  0  0  0  0  0  0  0  0
    4.2730   -0.9930   -0.9700 C   0  0  0  0  0  0  0  0  0  0  0  0
    5.0620   -0.0410   -1.6540 N   0  0  0  0  0  0  0  0  0  0  0  0
    3.9060    1.2950   -1.8620 S   0  0  0  0  0  0  0  0  0  0  0  0
    4.6620    2.5840   -1.4790 O   0  0  0  0  0  0  0  0  0  0  0  0
    2.9900    0.8320   -0.4700 O   0  0  0  0  0  0  0  0  0  0  0  0
    0.9630    0.4270    1.1690 C   0  0  0  0  0  0  0  0  0  0  0  0
   -0.0870    1.0770    0.5160 N   0  0  0  0  0  0  0  0  0  0  0  0
   -1.4770    0.9660    0.6880 C   0  0  0  0  0  0  0  0  0  0  0  0
   -2.0300    0.2320    1.5120 O   0  0  0  0  0  0  0  0  0  0  0  0
   -2.3920    1.8120   -0.1920 C   0  0  2  0  0  0  0  0  0  0  0  0
   -3.6530    1.8980    0.4980 N   0  0  0  0  0  0  0  0  0  0  0  0
   -4.7860    1.0890    0.2630 C   0  0  0  0  0  0  0  0  0  0  0  0
   -5.8130    1.0760    0.9870 O   0  0  0  0  0  0  0  0  0  0  0  0
   -4.7360    0.2420   -0.8790 N   0  0  0  0  0  0  0  0  0  0  0  0
   -3.6350    0.1900   -1.7450 N   0  0  0  0  0  0  0  0  0  0  0  0
   -2.5160    1.0300   -1.4580 C   0  0  0  0  0  0  0  0  0  0  0  0
   -1.6180    1.0990   -2.3130 O   0  0  0  0  0  0  0  0  0  0  0  0
  1  2  1  0
  2  3  2  0
  2  4  1  0
  4  5  2  3
  4 12  1  0
  5  6  1  0
  6  7  2  0
  6 11  1  0
  7  8  1  0
  9  8  1  1
  9 10  2  0
  9 11  1  0
 12 13  1  0
 13 14  1  0
 14 15  2  0
 16 14  1  1
 16 17  1  0
 16 22  1  0
 17 18  1  0
 18 19  2  0
 18 20  1  0
 20 21  1  0
 21 22  1  0
 22 23  2  0
M  END
