
     RDKit          3D

 16 17  0  0  0  0  0  0  0  0999 V2000
   -2.8850    3.6210   -1.2500 O   0  0  0  0  0  0  0  0  0  0  0  0
   -2.9270    2.5730   -0.5340 C   0  0  0  0  0  0  0  0  0  0  0  0
   -4.0140    2.2650    0.2160 N   0  0  0  0  0  0  0  0  0  0  0  0
   -4.0400    1.1480    0.9690 C   0  0  0  0  0  0  0  0  0  0  0  0
   -2.9510    0.3000    0.9860 C   0  0  0  0  0  0  0  0  0  0  0  0
   -1.8460    0.6250    0.2170 C   0  0  0  0  0  0  0  0  0  0  0  0
   -0.7300   -0.1880    0.1970 C   0  0  0  0  0  0  0  0  0  0  0  0
    0.3830    0.1260   -0.5700 C   0  0  0  0  0  0  0  0  0  0  0  0
    1.5110   -0.6740   -0.6050 O   0  0  0  0  0  0  0  0  0  0  0  0
    1.5010   -1.8550    0.1830 C   0  0  0  0  0  0  0  0  0  0  0  0
    2.7950   -2.6180    0.0410 C   0  0  0  0  0  0  0  0  0  0  0  0
    3.9120   -1.7140    0.5000 C   0  0  0  0  0  0  0  0  0  0  0  0
    3.6920   -1.3700    1.8190 O   0  0  0  0  0  0  0  0  0  0  0  0
    0.3880    1.2740   -1.3340 C   0  0  0  0  0  0  0  0  0  0  0  0
   -0.7030    2.0980   -1.3330 C   0  0  0  0  0  0  0  0  0  0  0  0
   -1.8010    1.7720   -0.5670 C   0  0  0  0  0  0  0  0  0  0  0  0
  1  2  2  0
  2  3  1  0
  2 16  1  0
  3  4  1  0
  4  5  2  0
  5  6  1  0
  6  7  2  0
  6 16  1  0
  7  8  1  0
  8  9  1  0
  8 14  2  0
  9 10  1  0
 10 11  1  0
 11 12  1  0
 12 13  1  0
 14 15  1  0
 15 16  2  0
M  END
