
     RDKit          3D

 23 25  0  0  0  0  0  0  0  0999 V2000
    6.8230   -0.7990    1.0860 C   0  0  0  0  0  0  0  0  0  0  0  0
    5.5910   -0.7330    0.2320 S   0  0  0  0  0  0  0  0  0  0  0  0
    6.1540   -1.8360   -0.7830 O   0  0  0  0  0  0  0  0  0  0  0  0
    5.6140    0.8890   -0.0500 C   0  0  0  0  0  0  0  0  0  0  0  0
    4.3060    1.3160    0.5740 C   0  0  0  0  0  0  0  0  0  0  0  0
    4.0480    2.2840    1.4210 C   0  0  0  0  0  0  0  0  0  0  0  0
    2.4320    2.5750    1.9990 Cl  0  0  0  0  0  0  0  0  0  0  0  0
    3.3790    0.3410   -0.0360 C   0  0  0  0  0  0  0  0  0  0  0  0
    2.0920    0.5570   -0.3270 N   0  0  0  0  0  0  0  0  0  0  0  0
    1.4040   -0.4100   -0.8900 C   0  0  0  0  0  0  0  0  0  0  0  0
    0.0570   -0.1520   -1.1970 N   0  0  0  0  0  0  0  0  0  0  0  0
   -0.9810   -0.0910   -0.2580 N   0  0  0  0  0  0  0  0  0  0  0  0
   -2.3510   -0.2050   -0.6950 C   0  0  0  0  0  0  0  0  0  0  0  0
   -2.5100   -0.3740   -1.9420 O   0  0  0  0  0  0  0  0  0  0  0  0
   -3.4470   -0.1330    0.1940 N   0  0  0  0  0  0  0  0  0  0  0  0
   -4.7910   -0.2540   -0.3310 C   0  0  1  0  0  0  0  0  0  0  0  0
   -5.6920   -1.1360    0.4570 C   0  0  0  0  0  0  0  0  0  0  0  0
   -7.0370   -0.4100    0.3590 C   0  0  0  0  0  0  0  0  0  0  0  0
   -6.6110    1.0240    0.6370 C   0  0  0  0  0  0  0  0  0  0  0  0
   -5.4080    1.1560   -0.2680 C   0  0  0  0  0  0  0  0  0  0  0  0
    1.9470   -1.5650   -1.1680 N   0  0  0  0  0  0  0  0  0  0  0  0
    3.2110   -1.8050   -0.8920 C   0  0  0  0  0  0  0  0  0  0  0  0
    4.0440   -0.8600   -0.2950 C   0  0  0  0  0  0  0  0  0  0  0  0
  1  2  1  0
  2  3  2  0
  2  4  1  0
  2 23  1  0
  4  5  1  0
  5  6  2  3
  5  8  1  0
  6  7  1  0
  8  9  2  0
  8 23  1  0
  9 10  1  0
 10 11  1  0
 10 21  2  0
 11 12  1  0
 12 13  1  0
 13 14  2  0
 13 15  1  0
 16 15  1  1
 16 17  1  0
 16 20  1  0
 17 18  1  0
 18 19  1  0
 19 20  1  0
 21 22  1  0
 22 23  2  0
M  END
