
     RDKit          3D

 23 25  0  0  0  0  0  0  0  0999 V2000
   -5.1280   -1.3000   -2.4670 N   0  0  0  0  0  0  0  0  0  0  0  0
   -5.8960   -0.6310   -1.6870 C   0  0  0  0  0  0  0  0  0  0  0  0
   -7.2980   -0.7810   -1.5390 N   0  0  0  0  0  0  0  0  0  0  0  0
   -7.7480    0.0570   -0.6710 C   0  0  0  0  0  0  0  0  0  0  0  0
   -6.6090    0.8380   -0.1820 C   0  0  0  0  0  0  0  0  0  0  0  0
   -5.5100    0.4450   -0.7700 C   0  0  0  0  0  0  0  0  0  0  0  0
   -4.1520    0.8770   -0.6470 N   0  0  0  0  0  0  0  0  0  0  0  0
   -3.1190    0.0290   -0.2050 C   0  0  0  0  0  0  0  0  0  0  0  0
   -3.3900   -1.1690    0.1060 O   0  0  0  0  0  0  0  0  0  0  0  0
   -1.7090    0.5020   -0.0920 C   0  0  0  0  0  0  0  0  0  0  0  0
   -0.8510   -0.5760    0.3890 N   0  0  0  0  0  0  0  0  0  0  0  0
    0.5470   -0.4230    0.5190 C   0  0  0  0  0  0  0  0  0  0  0  0
    1.3150    0.1230   -0.3010 N   0  0  0  0  0  0  0  0  0  0  0  0
    2.6830    0.2200   -0.0740 C   0  0  0  0  0  0  0  0  0  0  0  0
    3.1120   -0.4410    1.1750 C   0  0  0  0  0  0  0  0  0  0  0  0
    4.2980   -0.6220    1.6710 C   0  0  0  0  0  0  0  0  0  0  0  0
    5.4930   -0.1520    0.9960 C   0  0  0  0  0  0  0  0  0  0  0  0
    6.5650    0.4100    1.6650 C   0  0  0  0  0  0  0  0  0  0  0  0
    7.5050    0.7290    0.6930 C   0  0  0  0  0  0  0  0  0  0  0  0
    6.9590    0.3470   -0.5080 C   0  0  0  0  0  0  0  0  0  0  0  0
    7.7370    0.5230   -2.0900 Cl  0  0  0  0  0  0  0  0  0  0  0  0
    5.7740   -0.1680   -0.3020 O   0  0  0  0  0  0  0  0  0  0  0  0
    1.5320   -0.9780    1.8880 S   0  0  0  0  0  0  0  0  0  0  0  0
  1  2  2  0
  2  3  1  0
  2  6  1  0
  3  4  2  0
  4  5  1  0
  5  6  2  0
  6  7  1  0
  7  8  1  0
  8  9  2  0
  8 10  1  0
 10 11  1  0
 11 12  1  0
 12 13  2  0
 12 23  1  0
 13 14  1  0
 14 15  1  0
 15 16  2  3
 15 23  1  0
 16 17  1  0
 17 18  2  0
 17 22  1  0
 18 19  1  0
 19 20  2  0
 20 21  1  0
 20 22  1  0
M  END
