
     RDKit          3D

 23 25  0  0  0  0  0  0  0  0999 V2000
   -3.2840   -1.5670    1.6170 C   0  0  0  0  0  0  0  0  0  0  0  0
   -4.2400   -0.4610    1.2550 C   0  0  0  0  0  0  0  0  0  0  0  0
   -5.3000   -0.1210    1.8880 N   0  0  0  0  0  0  0  0  0  0  0  0
   -5.9510    0.9770    1.2390 C   0  0  0  0  0  0  0  0  0  0  0  0
   -5.1010    1.2720    0.0650 C   0  0  0  0  0  0  0  0  0  0  0  0
   -4.1060    0.4090    0.1080 C   0  0  0  0  0  0  0  0  0  0  0  0
   -2.8080    0.3620   -1.0700 S   0  0  0  0  0  0  0  0  0  0  0  0
   -2.9400   -0.7650   -2.0650 O   0  0  0  0  0  0  0  0  0  0  0  0
   -1.2500    0.3860   -0.2860 N   0  0  0  0  0  0  0  0  0  0  0  0
   -0.3130    0.9040   -1.2690 C   0  0  0  0  0  0  0  0  0  0  0  0
    1.0200    1.0360   -0.8150 N   0  0  0  0  0  0  0  0  0  0  0  0
    1.8540    0.0820   -0.7320 C   0  0  0  0  0  0  0  0  0  0  0  0
    1.5270   -1.1600   -1.0760 N   0  0  0  0  0  0  0  0  0  0  0  0
    2.4410   -2.1620   -0.9750 C   0  0  0  0  0  0  0  0  0  0  0  0
    2.0890   -3.3360   -1.3130 O   0  0  0  0  0  0  0  0  0  0  0  0
    3.6750   -1.9290   -0.5340 N   0  0  0  0  0  0  0  0  0  0  0  0
    4.0380   -0.6830   -0.1770 C   0  0  0  0  0  0  0  0  0  0  0  0
    5.3260   -0.4090    0.2880 C   0  0  0  0  0  0  0  0  0  0  0  0
    5.7050    0.8630    0.6520 C   0  0  0  0  0  0  0  0  0  0  0  0
    4.7950    1.8970    0.5580 C   0  0  0  0  0  0  0  0  0  0  0  0
    5.1650    3.5380    0.9910 Cl  0  0  0  0  0  0  0  0  0  0  0  0
    3.5300    1.6020    0.0970 C   0  0  0  0  0  0  0  0  0  0  0  0
    3.1310    0.3340   -0.2730 C   0  0  0  0  0  0  0  0  0  0  0  0
  1  2  1  0
  2  3  2  0
  2  6  1  0
  3  4  1  0
  4  5  1  0
  5  6  2  0
  6  7  1  0
  7  8  2  0
  7  9  1  1
  9 10  1  0
 10 11  1  0
 11 12  2  3
 12 13  1  0
 12 23  1  0
 13 14  1  0
 14 15  2  0
 14 16  1  0
 16 17  1  0
 17 18  2  0
 17 23  1  0
 18 19  1  0
 19 20  2  0
 20 21  1  0
 20 22  1  0
 22 23  2  0
M  END
