
     RDKit          3D

 20 22  0  0  0  0  0  0  0  0999 V2000
   -2.8310   -3.1240    1.2900 F   0  0  0  0  0  0  0  0  0  0  0  0
   -1.6300   -3.0900    1.9840 C   0  0  2  0  0  0  0  0  0  0  0  0
   -1.2840   -4.4260    2.2490 F   0  0  0  0  0  0  0  0  0  0  0  0
   -1.8930   -2.5600    3.2290 F   0  0  0  0  0  0  0  0  0  0  0  0
   -0.5370   -2.4350    1.2560 C   0  0  0  0  0  0  0  0  0  0  0  0
   -0.5230   -1.1300    0.9050 C   0  0  0  0  0  0  0  0  0  0  0  0
   -1.6620   -0.3160    1.2670 C   0  0  0  0  0  0  0  0  0  0  0  0
   -1.9380    0.9410    1.1300 C   0  0  0  0  0  0  0  0  0  0  0  0
   -1.5800    2.2930    0.6790 C   0  0  0  0  0  0  0  0  0  0  0  0
   -3.0820    2.3040    0.2850 C   0  0  0  0  0  0  0  0  0  0  0  0
   -3.1890    1.5990    1.5720 N   0  0  0  0  0  0  0  0  0  0  0  0
    0.7050   -0.7080    0.2450 C   0  0  0  0  0  0  0  0  0  0  0  0
    1.9010   -1.3670    0.5650 C   0  0  0  0  0  0  0  0  0  0  0  0
    3.0760   -1.0990   -0.0920 C   0  0  0  0  0  0  0  0  0  0  0  0
    3.1220   -0.1520   -1.1110 C   0  0  0  0  0  0  0  0  0  0  0  0
    1.9550    0.5040   -1.4390 C   0  0  0  0  0  0  0  0  0  0  0  0
    0.7520    0.2340   -0.7720 C   0  0  0  0  0  0  0  0  0  0  0  0
    2.2410    1.3890   -2.4670 O   0  0  0  0  0  0  0  0  0  0  0  0
    3.6470    1.6120   -2.4420 C   0  0  0  0  0  0  0  0  0  0  0  0
    4.1080    0.3450   -1.9510 O   0  0  0  0  0  0  0  0  0  0  0  0
  2  1  1  6
  2  3  1  0
  2  4  1  0
  2  5  1  0
  5  6  2  3
  6  7  1  0
  6 12  1  0
  7  8  2  3
  8  9  1  0
  8 11  1  0
  9 10  1  0
 10 11  1  0
 12 13  2  0
 12 17  1  0
 13 14  1  0
 14 15  2  0
 15 16  1  0
 15 20  1  0
 16 17  2  0
 16 18  1  0
 18 19  1  0
 19 20  1  0
M  END
