
     RDKit          3D

 23 24  0  0  0  0  0  0  0  0999 V2000
   -5.1640   -2.3390    1.1620 C   0  0  0  0  0  0  0  0  0  0  0  0
   -3.9920   -1.5320    0.8030 N   0  0  0  0  0  0  0  0  0  0  0  0
   -4.1940   -0.2180    0.3590 C   0  0  0  0  0  0  0  0  0  0  0  0
   -5.4250    0.1530    0.3140 O   0  0  0  0  0  0  0  0  0  0  0  0
   -3.1920    0.7210   -0.0370 C   0  0  0  0  0  0  0  0  0  0  0  0
   -3.7240    2.0450   -0.4500 C   0  0  0  0  0  0  0  0  0  0  0  0
   -4.1260    3.0700   -0.7840 N   0  0  0  0  0  0  0  0  0  0  0  0
   -1.8870    0.5680   -0.0830 C   0  0  0  0  0  0  0  0  0  0  0  0
   -1.2940   -0.6410    0.2840 N   0  0  0  0  0  0  0  0  0  0  0  0
   -0.6910   -0.6610    1.6340 C   0  0  0  0  0  0  0  0  0  0  0  0
   -0.9360    1.9450   -0.6060 S   0  0  0  0  0  0  0  0  0  0  0  0
    0.8000    1.7190   -0.8080 C   0  0  0  0  0  0  0  0  0  0  0  0
    1.3140    0.5090   -0.8980 C   0  0  0  0  0  0  0  0  0  0  0  0
    2.7360    0.1230   -1.0640 C   0  0  0  0  0  0  0  0  0  0  0  0
    2.8620   -1.1700   -1.3020 C   0  0  0  0  0  0  0  0  0  0  0  0
    4.2010   -1.7620   -1.5000 C   0  0  0  0  0  0  0  0  0  0  0  0
    5.2700   -0.8870   -1.3930 O   0  0  0  0  0  0  0  0  0  0  0  0
    5.1330    0.4480   -1.1470 C   0  0  0  0  0  0  0  0  0  0  0  0
    3.9280    0.9460   -0.9880 C   0  0  0  0  0  0  0  0  0  0  0  0
    3.9040    2.3530   -0.7440 N   0  0  0  0  0  0  0  0  0  0  0  0
    2.8250    3.2390   -0.8930 N   0  0  0  0  0  0  0  0  0  0  0  0
    1.5680    2.9920   -0.9210 C   0  0  0  0  0  0  0  0  0  0  0  0
    0.4930    4.3830   -1.1330 Cl  0  0  0  0  0  0  0  0  0  0  0  0
  1  2  1  0
  2  3  1  0
  3  4  2  0
  3  5  1  0
  5  6  1  0
  5  8  2  3
  6  7  3  0
  8  9  1  0
  8 11  1  0
  9 10  1  0
 11 12  1  0
 12 13  2  0
 12 22  1  0
 13 14  1  0
 14 15  2  0
 14 19  1  0
 15 16  1  0
 16 17  1  0
 17 18  1  0
 18 19  2  0
 19 20  1  0
 20 21  1  0
 21 22  2  0
 22 23  1  0
M  END
