
     RDKit          3D

 23 25  0  0  0  0  0  0  0  0999 V2000
   -6.3560   -0.8250   -1.0250 N   0  0  0  0  0  0  0  0  0  0  0  0
   -5.4960   -0.6080    0.0960 C   0  0  1  0  0  0  0  0  0  0  0  0
   -4.0980   -0.5700   -0.3940 C   0  0  0  0  0  0  0  0  0  0  0  0
   -3.0740   -0.3330    0.4140 C   0  0  0  0  0  0  0  0  0  0  0  0
   -1.7130   -0.2890   -0.0240 N   0  0  0  0  0  0  0  0  0  0  0  0
   -0.6140   -0.0680    0.6730 C   0  0  0  0  0  0  0  0  0  0  0  0
    0.4570   -0.1290   -0.2170 C   0  0  0  0  0  0  0  0  0  0  0  0
    1.8170    0.0600    0.1650 N   0  0  0  0  0  0  0  0  0  0  0  0
    2.9200    0.0020   -0.7270 C   0  0  0  0  0  0  0  0  0  0  0  0
    2.6920   -0.2330   -1.9430 O   0  0  0  0  0  0  0  0  0  0  0  0
    4.2840    0.2060   -0.2600 C   0  0  0  0  0  0  0  0  0  0  0  0
    5.3470    0.1640   -1.0360 C   0  0  0  0  0  0  0  0  0  0  0  0
    6.5580    0.4070   -0.2770 C   0  0  0  0  0  0  0  0  0  0  0  0
    7.7880    0.4320   -0.7570 C   0  0  0  0  0  0  0  0  0  0  0  0
    8.0660    0.1570   -2.4610 Cl  0  0  0  0  0  0  0  0  0  0  0  0
    6.1160    0.6100    1.1030 C   0  0  0  0  0  0  0  0  0  0  0  0
    6.8500    0.8480    2.0790 O   0  0  0  0  0  0  0  0  0  0  0  0
    4.6940    0.4760    1.0670 N   0  0  0  0  0  0  0  0  0  0  0  0
   -0.1010   -0.3940   -1.4390 C   0  0  0  0  0  0  0  0  0  0  0  0
   -1.4120   -0.4880   -1.3050 N   0  0  0  0  0  0  0  0  0  0  0  0
   -3.3350   -0.1020    1.8570 C   0  0  0  0  0  0  0  0  0  0  0  0
   -4.6880    1.0870    2.0140 S   0  0  0  0  0  0  0  0  0  0  0  0
   -5.8550    0.7400    0.6830 C   0  0  0  0  0  0  0  0  0  0  0  0
  2  1  1  6
  2  3  1  0
  2 23  1  0
  3  4  2  0
  4  5  1  0
  4 21  1  0
  5  6  1  0
  5 20  1  0
  6  7  2  0
  7  8  1  0
  7 19  1  0
  8  9  1  0
  9 10  2  0
  9 11  1  0
 11 12  2  0
 11 18  1  0
 12 13  1  0
 13 14  2  3
 13 16  1  0
 14 15  1  0
 16 17  2  0
 16 18  1  0
 19 20  2  0
 21 22  1  0
 22 23  1  0
M  END
