
     RDKit          3D

 34 37  0  0  0  0  0  0  0  0999 V2000
   -0.4550   -1.3030    1.4470 C   0  0  0  0  0  0  0  0  0  0  0  0
   -1.0470   -0.1390    0.6420 C   0  0  2  0  0  0  0  0  0  0  0  0
   -2.0440    0.4920    1.5710 C   0  0  0  0  0  0  0  0  0  0  0  0
   -1.6470   -0.6320   -0.6410 C   0  0  0  0  0  0  0  0  0  0  0  0
   -2.7480   -1.5920   -0.5280 C   0  0  0  0  0  0  0  0  0  0  0  0
   -2.3600   -2.8700   -0.4770 O   0  0  0  0  0  0  0  0  0  0  0  0
   -3.1960   -3.8490   -0.3700 C   0  0  0  0  0  0  0  0  0  0  0  0
   -4.5560   -3.6300   -0.3030 C   0  0  0  0  0  0  0  0  0  0  0  0
   -5.0300   -2.3560   -0.3510 C   0  0  0  0  0  0  0  0  0  0  0  0
   -6.2300   -2.0280   -0.3000 O   0  0  0  0  0  0  0  0  0  0  0  0
   -4.0940   -1.3150   -0.4670 C   0  0  0  0  0  0  0  0  0  0  0  0
   -4.5490    0.0430   -0.5600 C   0  0  0  0  0  0  0  0  0  0  0  0
   -5.1640    0.7180    0.4670 C   0  0  0  0  0  0  0  0  0  0  0  0
   -5.5790    2.0240    0.3210 C   0  0  0  0  0  0  0  0  0  0  0  0
   -5.3880    2.7110   -0.8840 C   0  0  0  0  0  0  0  0  0  0  0  0
   -4.7720    2.0400   -1.9180 C   0  0  0  0  0  0  0  0  0  0  0  0
   -4.5000    2.8470   -3.4610 Cl  0  0  0  0  0  0  0  0  0  0  0  0
   -4.3660    0.7330   -1.7430 C   0  0  0  0  0  0  0  0  0  0  0  0
    0.0520    0.8320    0.2460 C   0  0  0  0  0  0  0  0  0  0  0  0
    0.9060    1.5360    1.6000 S   0  0  1  0  0  0  0  0  0  0  0  0
    0.0190    2.2710    2.5600 O   0  0  0  0  0  0  0  0  0  0  0  0
    1.5820    0.4450    2.3880 O   0  0  0  0  0  0  0  0  0  0  0  0
    2.1460    2.6410    0.9580 C   0  0  0  0  0  0  0  0  0  0  0  0
    3.0920    1.8760    0.0970 C   0  0  0  0  0  0  0  0  0  0  0  0
    4.2630    1.2410    0.5190 C   0  0  0  0  0  0  0  0  0  0  0  0
    4.8760    0.6440   -0.5610 C   0  0  0  0  0  0  0  0  0  0  0  0
    6.1270   -0.1210   -0.5730 C   0  0  0  0  0  0  0  0  0  0  0  0
    6.8000   -0.3050    0.5740 N   0  0  0  0  0  0  0  0  0  0  0  0
    7.9620   -1.0000    0.6140 C   0  0  0  0  0  0  0  0  0  0  0  0
    8.4970   -1.5460   -0.5300 C   0  0  0  0  0  0  0  0  0  0  0  0
    7.7970   -1.3500   -1.6990 C   0  0  0  0  0  0  0  0  0  0  0  0
    6.6390   -0.6500   -1.6980 N   0  0  0  0  0  0  0  0  0  0  0  0
    4.0810    0.9190   -1.6180 N   0  0  0  0  0  0  0  0  0  0  0  0
    3.0440    1.6370   -1.2230 N   0  0  0  0  0  0  0  0  0  0  0  0
  2  1  1  1
  2  3  1  0
  2  4  1  0
  2 19  1  0
  4  5  1  0
  5  6  1  0
  5 11  2  0
  6  7  1  0
  7  8  2  0
  8  9  1  0
  9 10  2  0
  9 11  1  0
 11 12  1  0
 12 13  2  0
 12 18  1  0
 13 14  1  0
 14 15  2  0
 15 16  1  0
 16 17  1  0
 16 18  2  0
 20 19  1  6
 20 21  2  0
 20 22  2  0
 20 23  1  0
 23 24  1  0
 24 25  1  0
 24 34  2  0
 25 26  2  0
 26 27  1  0
 26 33  1  0
 27 28  2  0
 27 32  1  0
 28 29  1  0
 29 30  2  0
 30 31  1  0
 31 32  2  0
 33 34  1  0
M  END
