
     RDKit          3D

 34 37  0  0  0  0  0  0  0  0999 V2000
   -6.4560   -1.6250   -0.7120 C   0  0  0  0  0  0  0  0  0  0  0  0
   -5.1190   -1.1900   -0.1760 C   0  0  0  0  0  0  0  0  0  0  0  0
   -4.6970    0.1530   -0.6860 C   0  0  2  0  0  0  0  0  0  0  0  0
   -3.3690    0.5500   -0.1320 C   0  0  0  0  0  0  0  0  0  0  0  0
   -2.4000    0.7910   -0.9070 O   0  0  0  0  0  0  0  0  0  0  0  0
   -3.1600    0.6650    1.2690 N   0  0  0  0  0  0  0  0  0  0  0  0
   -1.8520    1.0550    1.8130 C   0  0  0  0  0  0  0  0  0  0  0  0
   -0.8010    0.0790    1.4010 C   0  0  0  0  0  0  0  0  0  0  0  0
   -0.0150   -0.1440    0.5170 N   0  0  0  0  0  0  0  0  0  0  0  0
    0.8350   -1.1150    0.3890 C   0  0  0  0  0  0  0  0  0  0  0  0
    1.8200   -1.3800   -0.7360 C   0  0  0  0  0  0  0  0  0  0  0  0
    3.1800   -1.0270   -0.3370 C   0  0  0  0  0  0  0  0  0  0  0  0
    3.3640   -0.5700    0.8440 O   0  0  0  0  0  0  0  0  0  0  0  0
    4.3080   -1.1350   -1.1070 O   0  0  0  0  0  0  0  0  0  0  0  0
    5.5800   -0.7830   -0.6700 C   0  0  0  0  0  0  0  0  0  0  0  0
    6.3190   -1.7990   -0.0790 C   0  0  0  0  0  0  0  0  0  0  0  0
    5.6710   -3.4190    0.0960 Cl  0  0  0  0  0  0  0  0  0  0  0  0
    7.6030   -1.5780    0.3990 C   0  0  0  0  0  0  0  0  0  0  0  0
    8.1750   -0.3250    0.2940 C   0  0  0  0  0  0  0  0  0  0  0  0
    7.4240    0.6770   -0.2990 C   0  0  0  0  0  0  0  0  0  0  0  0
    6.1390    0.4500   -0.7760 C   0  0  0  0  0  0  0  0  0  0  0  0
    5.6060    1.6800   -1.3390 C   0  0  0  0  0  0  0  0  0  0  0  0
    6.5300    2.6230   -1.2110 C   0  0  0  0  0  0  0  0  0  0  0  0
    7.7390    2.0910   -0.5570 C   0  0  0  0  0  0  0  0  0  0  0  0
    0.8050   -2.0400    1.4840 C   0  0  0  0  0  0  0  0  0  0  0  0
    1.6300   -3.2410    1.6510 C   0  0  0  0  0  0  0  0  0  0  0  0
   -0.4300   -1.3870    2.5290 S   0  0  0  0  0  0  0  0  0  0  0  0
   -5.6280    1.2200   -0.4530 N   0  0  0  0  0  0  0  0  0  0  0  0
   -5.5250    2.2830   -1.3090 C   0  0  0  0  0  0  0  0  0  0  0  0
   -6.3240    3.3460   -1.2090 N   0  0  0  0  0  0  0  0  0  0  0  0
   -7.2530    3.3770   -0.2480 C   0  0  0  0  0  0  0  0  0  0  0  0
   -7.3850    2.3390    0.6210 C   0  0  0  0  0  0  0  0  0  0  0  0
   -6.5480    1.2410    0.5070 C   0  0  0  0  0  0  0  0  0  0  0  0
   -6.6460    0.2720    1.2920 O   0  0  0  0  0  0  0  0  0  0  0  0
  1  2  1  0
  3  2  1  1
  3  4  1  0
  3 28  1  0
  4  5  2  0
  4  6  1  0
  6  7  1  0
  7  8  1  0
  8  9  2  0
  8 27  1  0
  9 10  1  0
 10 11  1  0
 10 25  2  0
 11 12  1  0
 12 13  2  0
 12 14  1  0
 14 15  1  0
 15 16  2  0
 15 21  1  0
 16 17  1  0
 16 18  1  0
 18 19  2  0
 19 20  1  0
 20 21  2  0
 20 24  1  0
 21 22  1  0
 22 23  2  0
 23 24  1  0
 25 26  1  0
 25 27  1  0
 28 29  1  0
 28 33  1  0
 29 30  2  0
 30 31  1  0
 31 32  2  0
 32 33  1  0
 33 34  2  0
M  END
