
     RDKit          3D

 34 37  0  0  0  0  0  0  0  0999 V2000
    8.8480    0.5970   -2.7940 C   0  0  0  0  0  0  0  0  0  0  0  0
    7.4290    0.1950   -2.5110 C   0  0  0  0  0  0  0  0  0  0  0  0
    6.5340   -0.2140   -3.4830 C   0  0  0  0  0  0  0  0  0  0  0  0
    5.3430   -0.4930   -2.8140 C   0  0  0  0  0  0  0  0  0  0  0  0
    5.5730   -0.2410   -1.4790 C   0  0  0  0  0  0  0  0  0  0  0  0
    4.5900   -0.3990   -0.3980 C   0  0  2  0  0  0  0  0  0  0  0  0
    4.1320   -1.8060   -0.2550 C   0  0  0  0  0  0  0  0  0  0  0  0
    2.9510   -2.0710   -0.3910 O   0  0  0  0  0  0  0  0  0  0  0  0
    3.1520    0.6860   -0.6150 S   0  0  0  0  0  0  0  0  0  0  0  0
    2.0330    0.4180    0.7660 C   0  0  0  0  0  0  0  0  0  0  0  0
    2.3170   -0.4610    1.7440 N   0  0  0  0  0  0  0  0  0  0  0  0
    1.4950   -0.6760    2.7870 C   0  0  0  0  0  0  0  0  0  0  0  0
    1.7770   -1.5140    3.7080 O   0  0  0  0  0  0  0  0  0  0  0  0
    0.3050    0.0090    2.8980 C   0  0  0  0  0  0  0  0  0  0  0  0
    0.0040    0.9130    1.9000 C   0  0  0  0  0  0  0  0  0  0  0  0
   -1.2090    1.6270    1.9940 N   0  0  0  0  0  0  0  0  0  0  0  0
   -2.3450    1.0380    2.1000 C   0  0  0  0  0  0  0  0  0  0  0  0
   -3.6190    1.7850    2.1980 C   0  0  0  0  0  0  0  0  0  0  0  0
   -4.5700    1.3710    1.2940 O   0  0  0  0  0  0  0  0  0  0  0  0
   -4.5390    1.3660   -0.0830 C   0  0  0  0  0  0  0  0  0  0  0  0
   -3.4450    1.8270   -0.7840 C   0  0  0  0  0  0  0  0  0  0  0  0
   -3.4460    1.8090   -2.1670 C   0  0  0  0  0  0  0  0  0  0  0  0
   -4.5270    1.3360   -2.8590 C   0  0  0  0  0  0  0  0  0  0  0  0
   -4.5850    1.2890   -4.6000 Cl  0  0  0  0  0  0  0  0  0  0  0  0
   -5.6410    0.8670   -2.1640 C   0  0  0  0  0  0  0  0  0  0  0  0
   -5.6460    0.8820   -0.7960 C   0  0  0  0  0  0  0  0  0  0  0  0
   -6.8390    0.3800   -0.0810 C   0  0  0  0  0  0  0  0  0  0  0  0
   -2.4230   -0.3850    2.1440 N   0  0  0  0  0  0  0  0  0  0  0  0
   -1.7580   -1.1740    1.2610 C   0  0  0  0  0  0  0  0  0  0  0  0
   -2.0560   -2.4710    1.5900 C   0  0  0  0  0  0  0  0  0  0  0  0
   -2.9040   -2.4340    2.6750 C   0  0  0  0  0  0  0  0  0  0  0  0
   -3.1270   -1.1220    3.0130 C   0  0  0  0  0  0  0  0  0  0  0  0
    0.8730    1.0900    0.8700 N   0  0  0  0  0  0  0  0  0  0  0  0
    6.8150    0.1610   -1.3630 O   0  0  0  0  0  0  0  0  0  0  0  0
  1  2  1  0
  2  3  2  0
  2 34  1  0
  3  4  1  0
  4  5  2  0
  5  6  1  0
  5 34  1  0
  6  7  1  0
  6  9  1  6
  7  8  2  0
  9 10  1  0
 10 11  2  0
 10 33  1  0
 11 12  1  0
 12 13  2  0
 12 14  1  0
 14 15  2  0
 15 16  1  0
 15 33  1  0
 16 17  2  3
 17 18  1  0
 17 28  1  0
 18 19  1  0
 19 20  1  0
 20 21  2  0
 20 26  1  0
 21 22  1  0
 22 23  2  0
 23 24  1  0
 23 25  1  0
 25 26  2  0
 26 27  1  0
 28 29  1  0
 28 32  1  0
 29 30  2  0
 30 31  1  0
 31 32  2  0
M  END
