
     RDKit          3D

 34 37  0  0  0  0  0  0  0  0999 V2000
   -9.7240    0.8490   -1.5520 C   0  0  0  0  0  0  0  0  0  0  0  0
   -8.5610    0.9210   -0.5400 C   0  0  0  0  0  0  0  0  0  0  0  0
   -7.9820   -0.2070   -0.1520 N   0  0  0  0  0  0  0  0  0  0  0  0
   -6.9360   -0.1860    0.7880 C   0  0  0  0  0  0  0  0  0  0  0  0
   -6.2610   -1.4370    1.1650 C   0  0  0  0  0  0  0  0  0  0  0  0
   -4.8880   -1.5630    0.6000 N   0  0  0  0  0  0  0  0  0  0  0  0
   -3.7730   -1.0650    1.3070 C   0  0  0  0  0  0  0  0  0  0  0  0
   -3.9160   -0.5240    2.4660 O   0  0  0  0  0  0  0  0  0  0  0  0
   -2.4590   -1.1320    0.7250 C   0  0  0  0  0  0  0  0  0  0  0  0
   -1.2680   -0.7770    1.0400 C   0  0  0  0  0  0  0  0  0  0  0  0
   -0.2550   -1.1260    0.0070 C   0  0  0  0  0  0  0  0  0  0  0  0
   -0.1460   -2.3400   -0.7330 C   0  0  0  0  0  0  0  0  0  0  0  0
    0.8920   -2.1090   -1.5210 C   0  0  0  0  0  0  0  0  0  0  0  0
    1.8110   -3.0380   -2.3420 C   0  0  0  0  0  0  0  0  0  0  0  0
    2.4510   -3.6890   -2.9180 N   0  0  0  0  0  0  0  0  0  0  0  0
    1.4350   -0.7970   -1.3020 C   0  0  0  0  0  0  0  0  0  0  0  0
    2.8240   -0.1800   -2.2300 S   0  0  0  0  0  0  0  0  0  0  0  0
    4.2990   -0.7850   -1.3560 C   0  0  0  0  0  0  0  0  0  0  0  0
    5.1070    0.1960   -0.6790 C   0  0  0  0  0  0  0  0  0  0  0  0
    4.7040    1.2060    0.1860 C   0  0  0  0  0  0  0  0  0  0  0  0
    5.6710    1.9380    0.8940 C   0  0  0  0  0  0  0  0  0  0  0  0
    6.9880    1.7040    0.7700 C   0  0  0  0  0  0  0  0  0  0  0  0
    8.0770    2.3560    1.4470 C   0  0  0  0  0  0  0  0  0  0  0  0
    9.3590    2.0140    1.3040 C   0  0  0  0  0  0  0  0  0  0  0  0
    9.7370    0.9640    0.4110 C   0  0  0  0  0  0  0  0  0  0  0  0
   11.4170    0.5180    0.2620 Cl  0  0  0  0  0  0  0  0  0  0  0  0
    8.7210    0.4020   -0.1890 C   0  0  0  0  0  0  0  0  0  0  0  0
    7.3640    0.6660   -0.1150 C   0  0  0  0  0  0  0  0  0  0  0  0
    6.4640   -0.0180   -0.7750 N   0  0  0  0  0  0  0  0  0  0  0  0
    0.6650   -0.4010   -0.4160 O   0  0  0  0  0  0  0  0  0  0  0  0
   -6.6020    1.0410    1.2210 C   0  0  0  0  0  0  0  0  0  0  0  0
   -7.1910    2.1200    0.8130 C   0  0  0  0  0  0  0  0  0  0  0  0
   -6.8350    3.2630    1.2610 O   0  0  0  0  0  0  0  0  0  0  0  0
   -8.2080    2.1180   -0.0840 O   0  0  0  0  0  0  0  0  0  0  0  0
  1  2  1  0
  2  3  2  0
  2 34  1  0
  3  4  1  0
  4  5  1  0
  4 31  2  0
  5  6  1  0
  6  7  1  0
  7  8  2  0
  7  9  1  0
  9 10  2  3
 10 11  1  0
 11 12  2  0
 11 30  1  0
 12 13  1  0
 13 14  1  0
 13 16  2  0
 14 15  3  0
 16 17  1  0
 16 30  1  0
 17 18  1  0
 18 19  1  0
 19 20  2  0
 19 29  1  0
 20 21  1  0
 21 22  2  0
 22 23  1  0
 22 28  1  0
 23 24  2  0
 24 25  1  0
 25 26  1  0
 25 27  2  0
 27 28  1  0
 28 29  2  0
 31 32  1  0
 32 33  2  0
 32 34  1  0
M  END
