
     RDKit          3D

 34 36  0  0  0  0  0  0  0  0999 V2000
    0.4330   -3.1430   -0.2100 C   0  0  0  0  0  0  0  0  0  0  0  0
    0.1180   -2.2140    0.7380 O   0  0  0  0  0  0  0  0  0  0  0  0
   -0.6600   -1.0960    0.7510 C   0  0  0  0  0  0  0  0  0  0  0  0
   -1.9880   -1.1600    1.0710 C   0  0  0  0  0  0  0  0  0  0  0  0
   -2.7420   -2.3800    1.3320 C   0  0  0  0  0  0  0  0  0  0  0  0
   -3.4950   -2.9940    0.2210 C   0  0  2  0  0  0  0  0  0  0  0  0
   -4.5620   -2.0080   -0.3200 C   0  0  0  0  0  0  0  0  0  0  0  0
   -4.3170   -4.1460    0.8300 C   0  0  0  0  0  0  0  0  0  0  0  0
   -2.7780   -3.5650   -0.9370 C   0  0  0  0  0  0  0  0  0  0  0  0
   -2.6780    0.0210    1.0680 N   0  0  0  0  0  0  0  0  0  0  0  0
   -2.1000    1.1780    0.7660 C   0  0  0  0  0  0  0  0  0  0  0  0
   -2.7980    2.2390    0.7800 O   0  0  0  0  0  0  0  0  0  0  0  0
   -0.7520    1.3030    0.4300 C   0  0  0  0  0  0  0  0  0  0  0  0
   -0.2300    2.6260    0.1340 C   0  0  0  0  0  0  0  0  0  0  0  0
   -1.0540    3.6480    0.1990 N   0  0  0  0  0  0  0  0  0  0  0  0
   -0.5590    4.9540   -0.0880 C   0  0  0  0  0  0  0  0  0  0  0  0
    0.7270    5.3280   -0.0260 C   0  0  0  0  0  0  0  0  0  0  0  0
    0.8250    6.7530   -0.3930 C   0  0  0  0  0  0  0  0  0  0  0  0
   -0.5640    7.1590   -0.6750 C   0  0  0  0  0  0  0  0  0  0  0  0
   -1.0880    8.7740   -1.1700 Cl  0  0  0  0  0  0  0  0  0  0  0  0
   -1.3490    6.1050   -0.4930 C   0  0  0  0  0  0  0  0  0  0  0  0
   -2.8320    6.1520   -0.6910 C   0  0  0  0  0  0  0  0  0  0  0  0
   -0.0350    0.1310    0.4280 C   0  0  0  0  0  0  0  0  0  0  0  0
    1.4160    0.1590    0.1480 C   0  0  0  0  0  0  0  0  0  0  0  0
    1.9870    1.2210   -0.1700 O   0  0  0  0  0  0  0  0  0  0  0  0
    2.1770   -0.9910    0.2380 N   0  0  0  0  0  0  0  0  0  0  0  0
    3.4010   -1.0670   -0.1270 C   0  0  0  0  0  0  0  0  0  0  0  0
    4.2970   -0.2760   -0.6390 N   0  0  0  0  0  0  0  0  0  0  0  0
    5.5160   -0.7080   -0.8750 C   0  0  0  0  0  0  0  0  0  0  0  0
    5.8580   -1.9690   -0.5950 C   0  0  0  0  0  0  0  0  0  0  0  0
    7.0730   -2.7680   -0.7180 C   0  0  0  0  0  0  0  0  0  0  0  0
    7.0370   -4.1860   -0.2760 C   0  0  0  0  0  0  0  0  0  0  0  0
    8.1350   -2.3330   -1.1710 O   0  0  0  0  0  0  0  0  0  0  0  0
    4.2740   -2.6170    0.0810 S   0  0  0  0  0  0  0  0  0  0  0  0
  1  2  1  0
  2  3  1  0
  3  4  2  0
  3 23  1  0
  4  5  1  0
  4 10  1  0
  5  6  1  0
  6  7  1  6
  6  8  1  0
  6  9  1  0
 10 11  1  0
 11 12  2  0
 11 13  1  0
 13 14  1  0
 13 23  2  0
 14 15  2  3
 15 16  1  0
 16 17  2  0
 16 21  1  0
 17 18  1  0
 18 19  1  0
 19 20  1  0
 19 21  2  0
 21 22  1  0
 23 24  1  0
 24 25  2  0
 24 26  1  0
 26 27  2  3
 27 28  1  0
 27 34  1  0
 28 29  1  0
 29 30  2  0
 30 31  1  0
 30 34  1  0
 31 32  1  0
 31 33  2  0
M  END
