
     RDKit          3D

 34 37  0  0  0  0  0  0  0  0999 V2000
   -6.1010   -3.3460    1.3970 C   0  0  0  0  0  0  0  0  0  0  0  0
   -5.3720   -4.6030    1.6950 C   0  0  0  0  0  0  0  0  0  0  0  0
   -4.0550   -4.6210    1.5810 C   0  0  0  0  0  0  0  0  0  0  0  0
   -3.2910   -3.4520    1.1740 C   0  0  0  0  0  0  0  0  0  0  0  0
   -1.9960   -3.4470    1.0550 C   0  0  0  0  0  0  0  0  0  0  0  0
   -1.1890   -4.9810    1.4200 Cl  0  0  0  0  0  0  0  0  0  0  0  0
   -1.1600   -2.3120    0.6960 C   0  0  0  0  0  0  0  0  0  0  0  0
    0.1440   -2.4750    0.3120 N   0  0  0  0  0  0  0  0  0  0  0  0
    0.6870   -1.3080   -0.0030 N   0  0  0  0  0  0  0  0  0  0  0  0
    2.0470   -1.1680   -0.3970 C   0  0  0  0  0  0  0  0  0  0  0  0
    2.9870   -0.6830    0.4870 C   0  0  0  0  0  0  0  0  0  0  0  0
    4.3150   -0.5660    0.1890 C   0  0  0  0  0  0  0  0  0  0  0  0
    4.7620   -0.9460   -1.0540 C   0  0  0  0  0  0  0  0  0  0  0  0
    6.1700   -0.8390   -1.4140 C   0  0  0  0  0  0  0  0  0  0  0  0
    6.5110   -1.2030   -2.5650 O   0  0  0  0  0  0  0  0  0  0  0  0
    7.1380   -0.3590   -0.5590 O   0  0  0  0  0  0  0  0  0  0  0  0
    8.5060   -0.2470   -0.8870 C   0  0  0  0  0  0  0  0  0  0  0  0
    3.8120   -1.4290   -1.9290 C   0  0  0  0  0  0  0  0  0  0  0  0
    2.5060   -1.5390   -1.6220 N   0  0  0  0  0  0  0  0  0  0  0  0
   -0.2090   -0.3510    0.1570 C   0  0  0  0  0  0  0  0  0  0  0  0
   -0.1950    1.0370   -0.0720 N   0  0  0  0  0  0  0  0  0  0  0  0
    0.7220    1.8220   -0.7970 C   0  0  0  0  0  0  0  0  0  0  0  0
    1.6270    1.3000   -1.4370 O   0  0  0  0  0  0  0  0  0  0  0  0
    0.6550    3.3140   -0.8360 C   0  0  2  0  0  0  0  0  0  0  0  0
   -0.6030    3.8180   -1.4760 C   0  0  0  0  0  0  0  0  0  0  0  0
   -0.2140    5.2520   -1.8240 C   0  0  0  0  0  0  0  0  0  0  0  0
    1.2840    5.1960   -1.7030 C   0  0  0  0  0  0  0  0  0  0  0  0
    1.6470    3.8630   -1.6030 O   0  0  0  0  0  0  0  0  0  0  0  0
   -1.4140   -0.9790    0.6120 C   0  0  0  0  0  0  0  0  0  0  0  0
   -2.6010   -0.2220    1.0870 C   0  0  0  0  0  0  0  0  0  0  0  0
   -3.1260    0.7150    0.3740 C   0  0  0  0  0  0  0  0  0  0  0  0
   -4.3070    1.4340    0.9010 C   0  0  0  0  0  0  0  0  0  0  0  0
   -4.8510    0.1880    2.1570 S   0  0  0  0  0  0  0  0  0  0  0  0
   -3.1230   -0.3920    2.4600 C   0  0  0  0  0  0  0  0  0  0  0  0
  1  2  1  0
  2  3  2  3
  3  4  1  0
  4  5  2  3
  5  6  1  0
  5  7  1  0
  7  8  2  0
  7 29  1  0
  8  9  1  0
  9 10  1  0
  9 20  1  0
 10 11  2  0
 10 19  1  0
 11 12  1  0
 12 13  2  0
 13 14  1  0
 13 18  1  0
 14 15  2  0
 14 16  1  0
 16 17  1  0
 18 19  2  0
 20 21  1  0
 20 29  2  0
 21 22  1  0
 22 23  2  0
 24 22  1  6
 24 25  1  0
 24 28  1  0
 25 26  1  0
 26 27  1  0
 27 28  1  0
 29 30  1  0
 30 31  2  0
 30 34  1  0
 31 32  1  0
 32 33  1  0
 33 34  1  0
M  END
