
     RDKit          3D

 34 37  0  0  0  0  0  0  0  0999 V2000
   -7.2230    2.7230   -2.4930 C   0  0  0  0  0  0  0  0  0  0  0  0
   -6.2010    3.5770   -2.0860 O   0  0  0  0  0  0  0  0  0  0  0  0
   -5.3670    2.9420   -1.1590 C   0  0  0  0  0  0  0  0  0  0  0  0
   -4.7240    1.7380   -1.7110 C   0  0  0  0  0  0  0  0  0  0  0  0
   -4.2860    0.6340   -1.2780 N   0  0  0  0  0  0  0  0  0  0  0  0
   -3.7390   -0.2890   -1.9940 C   0  0  0  0  0  0  0  0  0  0  0  0
   -3.2470   -1.5710   -1.3890 C   0  0  0  0  0  0  0  0  0  0  0  0
   -2.7230   -2.4250   -2.1650 O   0  0  0  0  0  0  0  0  0  0  0  0
   -3.3710   -1.7960   -0.0330 N   0  0  0  0  0  0  0  0  0  0  0  0
   -2.5890   -1.6530    0.9370 C   0  0  0  0  0  0  0  0  0  0  0  0
   -1.2580   -1.1750    0.8360 N   0  0  0  0  0  0  0  0  0  0  0  0
   -0.5340   -1.1640   -0.4150 C   0  0  0  0  0  0  0  0  0  0  0  0
    0.8660   -0.6460   -0.1740 C   0  0  0  0  0  0  0  0  0  0  0  0
    1.8010   -0.4040   -1.1270 C   0  0  0  0  0  0  0  0  0  0  0  0
    2.9360    0.0580   -0.4780 C   0  0  0  0  0  0  0  0  0  0  0  0
    4.1920    0.4650   -0.8780 C   0  0  0  0  0  0  0  0  0  0  0  0
    5.1380    0.8820    0.0140 C   0  0  0  0  0  0  0  0  0  0  0  0
    6.4960    1.3310   -0.3240 C   0  0  0  0  0  0  0  0  0  0  0  0
    6.8410    1.2730   -1.7740 C   0  0  1  0  0  0  0  0  0  0  0  0
    8.2850    1.7850   -1.8940 C   0  0  0  0  0  0  0  0  0  0  0  0
    6.8140   -0.1110   -2.3510 C   0  0  0  0  0  0  0  0  0  0  0  0
    4.8090    0.8920    1.3650 C   0  0  0  0  0  0  0  0  0  0  0  0
    5.9930    1.4230    2.5720 Cl  0  0  0  0  0  0  0  0  0  0  0  0
    3.5790    0.4970    1.7940 C   0  0  0  0  0  0  0  0  0  0  0  0
    2.6380    0.0770    0.8580 C   0  0  0  0  0  0  0  0  0  0  0  0
    1.3970   -0.3510    0.9750 O   0  0  0  0  0  0  0  0  0  0  0  0
   -3.0250   -1.9870    2.2840 N   0  0  0  0  0  0  0  0  0  0  0  0
   -2.4500   -3.0840    2.9790 C   0  0  0  0  0  0  0  0  0  0  0  0
   -2.9280   -3.2710    4.3740 C   0  0  0  0  0  0  0  0  0  0  0  0
   -3.9750   -2.4770    4.7690 O   0  0  0  0  0  0  0  0  0  0  0  0
   -3.8030   -1.1420    4.3670 C   0  0  0  0  0  0  0  0  0  0  0  0
   -4.0460   -1.1650    2.8570 C   0  0  0  0  0  0  0  0  0  0  0  0
   -3.6130   -0.0720   -3.3410 C   0  0  0  0  0  0  0  0  0  0  0  0
   -4.3690    1.6000   -3.4500 S   0  0  0  0  0  0  0  0  0  0  0  0
  1  2  1  0
  2  3  1  0
  3  4  1  0
  4  5  2  0
  4 34  1  0
  5  6  1  0
  6  7  1  0
  6 33  2  0
  7  8  2  0
  7  9  1  0
  9 10  2  3
 10 11  1  0
 10 27  1  0
 11 12  1  0
 12 13  1  0
 13 14  2  0
 13 26  1  0
 14 15  1  0
 15 16  2  0
 15 25  1  0
 16 17  1  0
 17 18  1  0
 17 22  2  0
 18 19  1  0
 19 20  1  1
 19 21  1  0
 22 23  1  0
 22 24  1  0
 24 25  2  0
 25 26  1  0
 27 28  1  0
 27 32  1  0
 28 29  1  0
 29 30  1  0
 30 31  1  0
 31 32  1  0
 33 34  1  0
M  END
