
     RDKit          3D

 34 37  0  0  0  0  0  0  0  0999 V2000
    7.4410   -1.9620   -0.7190 C   0  0  0  0  0  0  0  0  0  0  0  0
    7.8290   -0.7710   -0.3110 C   0  0  0  0  0  0  0  0  0  0  0  0
    9.2540   -0.3750   -0.3440 C   0  0  0  0  0  0  0  0  0  0  0  0
    9.4410    1.0110   -0.3040 O   0  0  0  0  0  0  0  0  0  0  0  0
    8.4940    1.9040    0.1680 C   0  0  0  0  0  0  0  0  0  0  0  0
    8.7950    3.1110    0.3830 O   0  0  0  0  0  0  0  0  0  0  0  0
    7.1320    1.4510    0.4200 C   0  0  0  0  0  0  0  0  0  0  0  0
    6.8490    0.1830    0.1850 C   0  0  0  0  0  0  0  0  0  0  0  0
    5.4670   -0.3200    0.4300 C   0  0  0  0  0  0  0  0  0  0  0  0
    4.3840    0.9890    1.0390 S   0  0  0  0  0  0  0  0  0  0  0  0
    2.7620    0.2720    1.2960 C   0  0  0  0  0  0  0  0  0  0  0  0
    1.8250    0.2740    0.2500 C   0  0  0  0  0  0  0  0  0  0  0  0
    0.5830   -0.2650    0.4170 C   0  0  0  0  0  0  0  0  0  0  0  0
   -0.4090   -0.2780   -0.6480 C   0  0  0  0  0  0  0  0  0  0  0  0
   -0.1940    0.2430   -1.9040 C   0  0  0  0  0  0  0  0  0  0  0  0
   -1.1670    0.2120   -2.8950 C   0  0  0  0  0  0  0  0  0  0  0  0
   -2.3760   -0.3610   -2.5950 C   0  0  0  0  0  0  0  0  0  0  0  0
   -3.3070   -0.4170   -3.4690 O   0  0  0  0  0  0  0  0  0  0  0  0
   -2.5670   -0.8650   -1.3620 N   0  0  0  0  0  0  0  0  0  0  0  0
   -3.8780   -1.4600   -1.1080 C   0  0  0  0  0  0  0  0  0  0  0  0
   -4.8310   -0.4180   -0.5860 C   0  0  0  0  0  0  0  0  0  0  0  0
   -4.3790    0.7370   -0.4560 O   0  0  0  0  0  0  0  0  0  0  0  0
   -6.1610   -0.7300   -0.2610 N   0  0  0  0  0  0  0  0  0  0  0  0
   -7.1380    0.1880    0.2460 C   0  0  0  0  0  0  0  0  0  0  0  0
   -6.8500    1.4390    0.7110 C   0  0  0  0  0  0  0  0  0  0  0  0
   -7.8620    2.2770    1.1710 C   0  0  0  0  0  0  0  0  0  0  0  0
   -9.1580    1.8390    1.1560 C   0  0  0  0  0  0  0  0  0  0  0  0
  -10.4460    2.8720    1.7280 Cl  0  0  0  0  0  0  0  0  0  0  0  0
   -9.4870    0.5870    0.6960 C   0  0  0  0  0  0  0  0  0  0  0  0
   -8.4800   -0.2220    0.2480 C   0  0  0  0  0  0  0  0  0  0  0  0
   -1.6380   -0.8310   -0.4260 N   0  0  0  0  0  0  0  0  0  0  0  0
    0.2870   -0.8090    1.6480 C   0  0  0  0  0  0  0  0  0  0  0  0
    1.2290   -0.8050    2.6850 C   0  0  0  0  0  0  0  0  0  0  0  0
    2.4430   -0.2610    2.4720 N   0  0  0  0  0  0  0  0  0  0  0  0
  1  2  2  0
  2  3  1  0
  2  8  1  0
  3  4  1  0
  4  5  1  0
  5  6  2  0
  5  7  1  0
  7  8  2  0
  8  9  1  0
  9 10  1  0
 10 11  1  0
 11 12  2  0
 11 34  1  0
 12 13  1  0
 13 14  1  0
 13 32  2  0
 14 15  1  0
 14 31  2  0
 15 16  2  0
 16 17  1  0
 17 18  2  0
 17 19  1  0
 19 20  1  0
 19 31  1  0
 20 21  1  0
 21 22  2  0
 21 23  1  0
 23 24  1  0
 24 25  2  0
 24 30  1  0
 25 26  1  0
 26 27  2  0
 27 28  1  0
 27 29  1  0
 29 30  2  0
 32 33  1  0
 33 34  2  0
M  END
