
     RDKit          3D

 34 37  0  0  0  0  0  0  0  0999 V2000
   -6.7120   -5.2180    0.4980 C   0  0  0  0  0  0  0  0  0  0  0  0
   -5.8700   -4.0040    0.5790 C   0  0  0  0  0  0  0  0  0  0  0  0
   -4.5630   -4.0880    0.4910 C   0  0  0  0  0  0  0  0  0  0  0  0
   -3.7110   -2.8990    0.5690 C   0  0  0  0  0  0  0  0  0  0  0  0
   -2.4310   -3.0020    0.4810 C   0  0  0  0  0  0  0  0  0  0  0  0
   -1.8170   -4.6830    0.2720 Cl  0  0  0  0  0  0  0  0  0  0  0  0
   -1.4090   -1.9890    0.4590 C   0  0  0  0  0  0  0  0  0  0  0  0
   -0.0680   -2.2170    0.6360 N   0  0  0  0  0  0  0  0  0  0  0  0
    0.5950   -1.1030    0.5540 N   0  0  0  0  0  0  0  0  0  0  0  0
    2.0080   -0.8980    0.6790 C   0  0  0  0  0  0  0  0  0  0  0  0
    2.8110   -1.3320   -0.3520 C   0  0  0  0  0  0  0  0  0  0  0  0
    4.1520   -1.1700   -0.2990 C   0  0  0  0  0  0  0  0  0  0  0  0
    4.7430   -0.5750    0.7750 C   0  0  0  0  0  0  0  0  0  0  0  0
    6.1970   -0.3920    0.8500 C   0  0  0  0  0  0  0  0  0  0  0  0
    6.7390    0.1480    1.8210 O   0  0  0  0  0  0  0  0  0  0  0  0
    6.9710   -0.8350   -0.1950 O   0  0  0  0  0  0  0  0  0  0  0  0
    8.3720   -0.6970   -0.2020 C   0  0  0  0  0  0  0  0  0  0  0  0
    3.9120   -0.1460    1.8030 C   0  0  0  0  0  0  0  0  0  0  0  0
    2.5720   -0.3180    1.7280 N   0  0  0  0  0  0  0  0  0  0  0  0
   -0.2850   -0.0640    0.3110 C   0  0  0  0  0  0  0  0  0  0  0  0
    0.1960    1.2590    0.1940 N   0  0  0  0  0  0  0  0  0  0  0  0
   -0.3710    2.3690   -0.4470 C   0  0  0  0  0  0  0  0  0  0  0  0
   -1.3970    2.2180   -1.1280 O   0  0  0  0  0  0  0  0  0  0  0  0
    0.2660    3.7400   -0.3080 C   0  0  2  0  0  0  0  0  0  0  0  0
    0.6270    4.3140   -1.6400 C   0  0  0  0  0  0  0  0  0  0  0  0
    1.8890    5.0830   -1.3370 C   0  0  0  0  0  0  0  0  0  0  0  0
    2.3150    4.5840   -0.0010 C   0  0  0  0  0  0  0  0  0  0  0  0
    1.3790    3.7040    0.4750 O   0  0  0  0  0  0  0  0  0  0  0  0
   -1.5300   -0.6360    0.2580 C   0  0  0  0  0  0  0  0  0  0  0  0
   -2.7860    0.0960   -0.0670 C   0  0  0  0  0  0  0  0  0  0  0  0
   -3.5250   -0.2310   -1.0800 C   0  0  0  0  0  0  0  0  0  0  0  0
   -4.7500    0.5330   -1.3450 C   0  0  0  0  0  0  0  0  0  0  0  0
   -4.5390    1.9400   -0.2150 S   0  0  0  0  0  0  0  0  0  0  0  0
   -3.3280    1.1020    0.8720 C   0  0  0  0  0  0  0  0  0  0  0  0
  1  2  1  0
  2  3  2  3
  3  4  1  0
  4  5  2  3
  5  6  1  0
  5  7  1  0
  7  8  2  0
  7 29  1  0
  8  9  1  0
  9 10  1  0
  9 20  1  0
 10 11  2  0
 10 19  1  0
 11 12  1  0
 12 13  2  0
 13 14  1  0
 13 18  1  0
 14 15  2  0
 14 16  1  0
 16 17  1  0
 18 19  2  0
 20 21  1  0
 20 29  2  0
 21 22  1  0
 22 23  2  0
 24 22  1  6
 24 25  1  0
 24 28  1  0
 25 26  1  0
 26 27  1  0
 27 28  1  0
 29 30  1  0
 30 31  2  0
 30 34  1  0
 31 32  1  0
 32 33  1  0
 33 34  1  0
M  END
