
     RDKit          3D

 34 37  0  0  0  0  0  0  0  0999 V2000
   -5.4150   -2.6490    3.4200 C   0  0  0  0  0  0  0  0  0  0  0  0
   -4.7070   -1.7940    2.6920 C   0  0  0  0  0  0  0  0  0  0  0  0
   -4.7970   -0.3450    2.9820 C   0  0  0  0  0  0  0  0  0  0  0  0
   -5.3030    0.4270    1.7910 C   0  0  0  0  0  0  0  0  0  0  0  0
   -6.6540    0.5960    1.6120 C   0  0  0  0  0  0  0  0  0  0  0  0
   -7.1410    1.2890    0.5460 C   0  0  0  0  0  0  0  0  0  0  0  0
   -6.2410    1.8120   -0.3400 C   0  0  0  0  0  0  0  0  0  0  0  0
   -6.7500    2.5110   -1.4120 C   0  0  0  0  0  0  0  0  0  0  0  0
   -8.4950    2.7110   -1.6110 Cl  0  0  0  0  0  0  0  0  0  0  0  0
   -5.9090    3.0570   -2.3290 C   0  0  0  0  0  0  0  0  0  0  0  0
   -4.5620    2.9090   -2.1830 C   0  0  0  0  0  0  0  0  0  0  0  0
   -3.9930    2.2080   -1.1130 C   0  0  0  0  0  0  0  0  0  0  0  0
   -2.5680    2.1240   -1.0730 C   0  0  0  0  0  0  0  0  0  0  0  0
   -1.9310    1.5180   -0.2010 O   0  0  0  0  0  0  0  0  0  0  0  0
   -1.7600    2.7370   -2.0400 O   0  0  0  0  0  0  0  0  0  0  0  0
   -0.3730    2.6930   -2.0530 C   0  0  0  0  0  0  0  0  0  0  0  0
    0.2060    1.3400   -2.1470 C   0  0  0  0  0  0  0  0  0  0  0  0
   -0.3740    0.1450   -2.1350 N   0  0  0  0  0  0  0  0  0  0  0  0
    0.5620   -0.8050   -2.2530 N   0  0  0  0  0  0  0  0  0  0  0  0
    1.7440   -0.2100   -2.3410 C   0  0  0  0  0  0  0  0  0  0  0  0
    3.3860   -0.9010   -2.5200 S   0  0  0  0  0  0  0  0  0  0  0  0
    4.0640   -1.1850   -0.8750 C   0  0  1  0  0  0  0  0  0  0  0  0
    3.2650   -2.2560   -0.2050 C   0  0  0  0  0  0  0  0  0  0  0  0
    5.5210   -1.4900   -0.9220 C   0  0  0  0  0  0  0  0  0  0  0  0
    6.1570   -1.5420   -2.0020 O   0  0  0  0  0  0  0  0  0  0  0  0
    6.1940   -1.7250    0.2950 N   0  0  0  0  0  0  0  0  0  0  0  0
    7.6080   -2.0280    0.2780 C   0  0  0  0  0  0  0  0  0  0  0  0
    8.3270   -0.9710    1.0890 C   0  0  0  0  0  0  0  0  0  0  0  0
    7.4260   -0.1910    1.7990 O   0  0  0  0  0  0  0  0  0  0  0  0
    6.5110   -0.9320    2.5240 C   0  0  0  0  0  0  0  0  0  0  0  0
    5.5520   -1.6810    1.5930 C   0  0  0  0  0  0  0  0  0  0  0  0
    1.5300    1.1200   -2.2760 N   0  0  0  0  0  0  0  0  0  0  0  0
   -4.8500    1.6650   -0.1990 C   0  0  0  0  0  0  0  0  0  0  0  0
   -4.3880    0.9590    0.8890 C   0  0  0  0  0  0  0  0  0  0  0  0
  1  2  2  0
  2  3  1  0
  3  4  1  0
  4  5  2  0
  4 34  1  0
  5  6  1  0
  6  7  2  0
  7  8  1  0
  7 33  1  0
  8  9  1  0
  8 10  2  0
 10 11  1  0
 11 12  2  0
 12 13  1  0
 12 33  1  0
 13 14  2  0
 13 15  1  0
 15 16  1  0
 16 17  1  0
 17 18  2  0
 17 32  1  0
 18 19  1  0
 19 20  2  0
 20 21  1  0
 20 32  1  0
 21 22  1  0
 22 23  1  6
 22 24  1  0
 24 25  2  0
 24 26  1  0
 26 27  1  0
 26 31  1  0
 27 28  1  0
 28 29  1  0
 29 30  1  0
 30 31  1  0
 33 34  2  0
M  END
