
     RDKit          3D

 34 37  0  0  0  0  0  0  0  0999 V2000
   -7.1550   -0.9540    0.1330 C   0  0  0  0  0  0  0  0  0  0  0  0
   -5.8240   -1.5600   -0.2490 C   0  0  0  0  0  0  0  0  0  0  0  0
   -4.9040   -0.4870   -0.8600 C   0  0  2  0  0  0  0  0  0  0  0  0
   -3.6210   -1.1070   -1.2030 C   0  0  0  0  0  0  0  0  0  0  0  0
   -3.4230   -2.3260   -0.8770 O   0  0  0  0  0  0  0  0  0  0  0  0
   -2.5660   -0.4670   -1.8730 N   0  0  0  0  0  0  0  0  0  0  0  0
   -1.2980   -0.9980   -2.2340 C   0  0  0  0  0  0  0  0  0  0  0  0
   -0.4300   -1.3880   -1.1010 C   0  0  0  0  0  0  0  0  0  0  0  0
    0.1480   -0.8170   -0.1390 N   0  0  0  0  0  0  0  0  0  0  0  0
    0.9010   -1.3750    0.7350 C   0  0  0  0  0  0  0  0  0  0  0  0
    1.5850   -0.5960    1.8410 C   0  0  0  0  0  0  0  0  0  0  0  0
    3.0080   -0.3460    1.4600 C   0  0  0  0  0  0  0  0  0  0  0  0
    3.9330   -0.1890    2.3250 O   0  0  0  0  0  0  0  0  0  0  0  0
    3.4170   -0.2650    0.1150 O   0  0  0  0  0  0  0  0  0  0  0  0
    4.7500   -0.0070   -0.1910 C   0  0  0  0  0  0  0  0  0  0  0  0
    5.7370   -0.9250   -0.3800 C   0  0  0  0  0  0  0  0  0  0  0  0
    5.3470   -2.6060   -0.2480 Cl  0  0  0  0  0  0  0  0  0  0  0  0
    7.0420   -0.5500   -0.6820 C   0  0  0  0  0  0  0  0  0  0  0  0
    7.3730    0.8020   -0.7950 C   0  0  0  0  0  0  0  0  0  0  0  0
    6.3780    1.7260   -0.6040 C   0  0  0  0  0  0  0  0  0  0  0  0
    5.0950    1.3460   -0.3090 C   0  0  0  0  0  0  0  0  0  0  0  0
    4.3080    2.5740   -0.1730 C   0  0  0  0  0  0  0  0  0  0  0  0
    5.0590    3.6410   -0.3720 C   0  0  0  0  0  0  0  0  0  0  0  0
    6.4530    3.2280   -0.6650 C   0  0  0  0  0  0  0  0  0  0  0  0
    1.1070   -2.7420    0.6210 C   0  0  0  0  0  0  0  0  0  0  0  0
    1.9060   -3.6370    1.4610 C   0  0  0  0  0  0  0  0  0  0  0  0
    0.1520   -3.1360   -0.8060 S   0  0  0  0  0  0  0  0  0  0  0  0
   -4.8160    0.6560    0.0020 N   0  0  0  0  0  0  0  0  0  0  0  0
   -4.6990    0.5110    1.3330 C   0  0  0  0  0  0  0  0  0  0  0  0
   -4.6020    1.5980    2.1520 N   0  0  0  0  0  0  0  0  0  0  0  0
   -4.6170    2.8620    1.6790 C   0  0  0  0  0  0  0  0  0  0  0  0
   -4.7360    3.0150    0.3230 C   0  0  0  0  0  0  0  0  0  0  0  0
   -4.8330    1.9050   -0.4740 C   0  0  0  0  0  0  0  0  0  0  0  0
   -4.9460    2.0970   -1.7210 O   0  0  0  0  0  0  0  0  0  0  0  0
  1  2  1  0
  3  2  1  1
  3  4  1  0
  3 28  1  0
  4  5  2  0
  4  6  1  0
  6  7  1  0
  7  8  1  0
  8  9  2  0
  8 27  1  0
  9 10  1  0
 10 11  1  0
 10 25  2  0
 11 12  1  0
 12 13  2  0
 12 14  1  0
 14 15  1  0
 15 16  2  0
 15 21  1  0
 16 17  1  0
 16 18  1  0
 18 19  2  0
 19 20  1  0
 20 21  2  0
 20 24  1  0
 21 22  1  0
 22 23  2  0
 23 24  1  0
 25 26  1  0
 25 27  1  0
 28 29  1  0
 28 33  1  0
 29 30  2  0
 30 31  1  0
 31 32  2  0
 32 33  1  0
 33 34  2  0
M  END
