
     RDKit          3D

 34 37  0  0  0  0  0  0  0  0999 V2000
   -2.4740   -0.3420    1.4870 O   0  0  0  0  0  0  0  0  0  0  0  0
   -2.6480   -0.8500    0.3330 C   0  0  0  0  0  0  0  0  0  0  0  0
   -1.5580   -1.6510   -0.0450 O   0  0  0  0  0  0  0  0  0  0  0  0
   -0.4280   -1.8320    0.7910 C   0  0  0  0  0  0  0  0  0  0  0  0
    0.1320   -0.4760    0.9950 C   0  0  0  0  0  0  0  0  0  0  0  0
   -0.0430    0.6970    0.6950 N   0  0  0  0  0  0  0  0  0  0  0  0
    0.7040    1.6630    1.0910 N   0  0  0  0  0  0  0  0  0  0  0  0
    1.6920    1.5320    1.8240 C   0  0  0  0  0  0  0  0  0  0  0  0
    2.7070    2.2930    2.4390 N   0  0  0  0  0  0  0  0  0  0  0  0
    3.8010    2.5210    1.7460 C   0  0  0  0  0  0  0  0  0  0  0  0
    3.9480    2.0180    0.4330 N   0  0  0  0  0  0  0  0  0  0  0  0
    3.3510    2.6580   -0.6150 C   0  0  0  0  0  0  0  0  0  0  0  0
    3.6600    1.9460   -1.7480 C   0  0  0  0  0  0  0  0  0  0  0  0
    4.4410    0.8930   -1.3310 C   0  0  0  0  0  0  0  0  0  0  0  0
    4.6180    0.9450    0.0470 C   0  0  0  0  0  0  0  0  0  0  0  0
    5.3930   -0.0290    0.8000 C   0  0  0  0  0  0  0  0  0  0  0  0
    6.0070   -1.0920    0.1220 C   0  0  0  0  0  0  0  0  0  0  0  0
    6.7460   -2.0370    0.7860 C   0  0  0  0  0  0  0  0  0  0  0  0
    6.9180   -1.9850    2.1440 C   0  0  0  0  0  0  0  0  0  0  0  0
    7.8600   -3.1810    3.0230 Cl  0  0  0  0  0  0  0  0  0  0  0  0
    6.3190   -0.9460    2.8140 C   0  0  0  0  0  0  0  0  0  0  0  0
    5.5680    0.0180    2.1560 C   0  0  0  0  0  0  0  0  0  0  0  0
    1.6150   -0.3460    2.0480 S   0  0  0  0  0  0  0  0  0  0  0  0
   -3.8120   -0.6390   -0.4990 C   0  0  0  0  0  0  0  0  0  0  0  0
   -3.9700   -1.1710   -1.6850 C   0  0  0  0  0  0  0  0  0  0  0  0
   -3.0300   -2.0250   -2.3330 C   0  0  0  0  0  0  0  0  0  0  0  0
   -3.3010   -2.5160   -3.5630 C   0  0  0  0  0  0  0  0  0  0  0  0
   -2.4240   -3.3460   -4.2320 O   0  0  0  0  0  0  0  0  0  0  0  0
   -4.8990    0.2640   -0.0470 C   0  0  0  0  0  0  0  0  0  0  0  0
   -4.9210    0.8580    1.1190 C   0  0  0  0  0  0  0  0  0  0  0  0
   -6.0010    1.7740    1.6090 C   0  0  0  0  0  0  0  0  0  0  0  0
   -7.1280    1.6670    0.7780 O   0  0  0  0  0  0  0  0  0  0  0  0
   -6.7260    1.8110   -0.5320 C   0  0  0  0  0  0  0  0  0  0  0  0
   -6.0330    0.5590   -0.9970 C   0  0  0  0  0  0  0  0  0  0  0  0
  1  2  2  0
  2  3  1  0
  2 24  1  0
  3  4  1  0
  4  5  1  0
  5  6  2  0
  5 23  1  0
  6  7  1  0
  7  8  2  0
  8  9  1  0
  8 23  1  0
  9 10  2  3
 10 11  1  0
 11 12  1  0
 11 15  1  0
 12 13  2  0
 13 14  1  0
 14 15  2  0
 15 16  1  0
 16 17  2  0
 16 22  1  0
 17 18  1  0
 18 19  2  0
 19 20  1  0
 19 21  1  0
 21 22  2  0
 24 25  2  3
 24 29  1  0
 25 26  1  0
 26 27  2  3
 27 28  1  0
 29 30  2  0
 29 34  1  0
 30 31  1  0
 31 32  1  0
 32 33  1  0
 33 34  1  0
M  END
