
     RDKit          3D

 38 42  0  0  0  0  0  0  0  0999 V2000
   -8.2730   -1.7270    2.0130 C   0  0  0  0  0  0  0  0  0  0  0  0
   -6.7350   -1.8110    2.0810 C   0  0  0  0  0  0  0  0  0  0  0  0
   -6.1580   -0.9540    1.0170 C   0  0  0  0  0  0  0  0  0  0  0  0
   -5.1580   -0.0540    1.1690 N   0  0  0  0  0  0  0  0  0  0  0  0
   -4.6930    0.6930    0.1240 C   0  0  0  0  0  0  0  0  0  0  0  0
   -5.2880    0.4930   -1.0960 C   0  0  0  0  0  0  0  0  0  0  0  0
   -6.2960   -0.4270   -1.2000 C   0  0  0  0  0  0  0  0  0  0  0  0
   -6.8060   -0.5190   -2.3690 O   0  0  0  0  0  0  0  0  0  0  0  0
   -6.6990   -1.1050   -0.2000 O   0  0  0  0  0  0  0  0  0  0  0  0
   -4.8660    1.3240   -2.2310 C   0  0  0  0  0  0  0  0  0  0  0  0
   -3.5550    1.8650   -2.0930 C   0  0  0  0  0  0  0  0  0  0  0  0
   -2.9020    2.1170   -0.8030 N   0  0  2  0  0  0  0  0  0  0  0  0
   -1.6000    1.6490   -1.0410 C   0  0  0  0  0  0  0  0  0  0  0  0
   -0.6200    1.2420   -0.0640 C   0  0  0  0  0  0  0  0  0  0  0  0
    0.2750    1.9210    0.6840 N   0  0  0  0  0  0  0  0  0  0  0  0
    1.1870    1.1120    1.1930 C   0  0  0  0  0  0  0  0  0  0  0  0
    2.4820    1.3940    1.9730 C   0  0  2  0  0  0  0  0  0  0  0  0
    3.0720    2.6280    1.3190 C   0  0  0  0  0  0  0  0  0  0  0  0
    3.6660    2.2320   -0.0400 C   0  0  0  0  0  0  0  0  0  0  0  0
    4.9780    1.5450    0.3480 C   0  0  0  0  0  0  0  0  0  0  0  0
    4.5740    0.3350    1.0120 N   0  0  0  0  0  0  0  0  0  0  0  0
    5.4410   -0.8600    0.8970 C   0  0  0  0  0  0  0  0  0  0  0  0
    4.9920   -1.8780    1.4140 O   0  0  0  0  0  0  0  0  0  0  0  0
    6.7090   -0.7420    0.2090 C   0  0  0  0  0  0  0  0  0  0  0  0
    7.3920    0.3300   -0.1210 O   0  0  0  0  0  0  0  0  0  0  0  0
    8.5190    0.0050   -0.7650 C   0  0  0  0  0  0  0  0  0  0  0  0
    8.5950   -1.3470   -0.8730 C   0  0  0  0  0  0  0  0  0  0  0  0
    7.4400   -1.8420   -0.2560 C   0  0  0  0  0  0  0  0  0  0  0  0
    7.0150   -3.2660   -0.1760 C   0  0  0  0  0  0  0  0  0  0  0  0
    3.3690    0.2250    1.7770 C   0  0  0  0  0  0  0  0  0  0  0  0
    0.8940   -0.1490    0.7920 N   0  0  0  0  0  0  0  0  0  0  0  0
   -0.1620   -0.1190    0.0470 C   0  0  0  0  0  0  0  0  0  0  0  0
   -0.9050   -1.2100   -0.6330 C   0  0  0  0  0  0  0  0  0  0  0  0
   -0.5800   -2.4270   -0.2060 C   0  0  0  0  0  0  0  0  0  0  0  0
   -1.1370   -3.6720   -0.6900 C   0  0  0  0  0  0  0  0  0  0  0  0
   -1.9540   -3.6060   -1.6270 O   0  0  0  0  0  0  0  0  0  0  0  0
   -0.6890   -5.1980    0.0060 Cl  0  0  0  0  0  0  0  0  0  0  0  0
   -3.5700    1.6120    0.3550 C   0  0  0  0  0  0  0  0  0  0  0  0
  1  2  1  0
  2  3  1  0
  3  4  2  0
  3  9  1  0
  4  5  1  0
  5  6  2  0
  5 38  1  0
  6  7  1  0
  6 10  1  0
  7  8  2  0
  7  9  1  0
 10 11  1  0
 11 12  1  0
 12 13  1  6
 12 38  1  0
 13 14  1  0
 14 15  1  0
 14 32  2  0
 15 16  1  0
 17 16  1  6
 16 31  2  0
 17 18  1  0
 17 30  1  0
 18 19  1  0
 19 20  1  0
 20 21  1  0
 21 22  1  0
 21 30  1  0
 22 23  2  0
 22 24  1  0
 24 25  1  0
 24 28  2  0
 25 26  1  0
 26 27  2  0
 27 28  1  0
 28 29  1  0
 31 32  1  0
 32 33  1  0
 33 34  2  3
 34 35  1  0
 35 36  2  0
 35 37  1  0
M  CHG  2   4   1  12   1
M  END
