
     RDKit          3D

 38 43  0  0  0  0  0  0  0  0999 V2000
    8.8180   -1.4210    1.3830 C   0  0  0  0  0  0  0  0  0  0  0  0
    8.9000   -0.7130    0.0460 C   0  0  0  0  0  0  0  0  0  0  0  0
    8.4200   -1.5000   -0.9610 O   0  0  0  0  0  0  0  0  0  0  0  0
    7.1220   -1.9060   -0.8630 C   0  0  0  0  0  0  0  0  0  0  0  0
    6.1510   -0.7620   -0.8350 C   0  0  0  0  0  0  0  0  0  0  0  0
    6.4200    0.4730   -0.8880 O   0  0  0  0  0  0  0  0  0  0  0  0
    5.3070    1.2490   -0.8390 C   0  0  0  0  0  0  0  0  0  0  0  0
    5.2690    2.5480   -0.8740 O   0  0  0  0  0  0  0  0  0  0  0  0
    5.2320    3.8320   -0.9080 C   0  0  0  0  0  0  0  0  0  0  0  0
    4.2480    0.3400   -0.7460 C   0  0  0  0  0  0  0  0  0  0  0  0
    2.8280    0.6400   -0.6630 C   0  0  0  0  0  0  0  0  0  0  0  0
    1.8410   -0.2840   -0.5990 N   0  0  0  0  0  0  0  0  0  0  0  0
    0.6550    0.3490   -0.5400 C   0  0  0  0  0  0  0  0  0  0  0  0
   -0.6580   -0.1200   -0.4640 C   0  0  0  0  0  0  0  0  0  0  0  0
   -1.6790    0.7830   -0.4180 C   0  0  0  0  0  0  0  0  0  0  0  0
   -1.4010    2.1070   -0.4460 N   0  0  0  0  0  0  0  0  0  0  0  0
   -0.1560    2.5780   -0.5170 C   0  0  0  0  0  0  0  0  0  0  0  0
    0.9030    1.7020   -0.5660 C   0  0  0  0  0  0  0  0  0  0  0  0
    2.2580    1.8390   -0.6430 N   0  0  0  0  0  0  0  0  0  0  0  0
   -3.0210    0.0730   -0.3440 C   0  0  2  0  0  0  0  0  0  0  0  0
   -3.5830    0.2380    0.9540 N   0  0  0  0  0  0  0  0  0  0  0  0
   -4.1100    1.5730    1.0890 C   0  0  0  0  0  0  0  0  0  0  0  0
   -5.5730    1.6950    0.8060 C   0  0  2  0  0  0  0  0  0  0  0  0
   -6.4040    0.9240    1.6290 O   0  0  0  0  0  0  0  0  0  0  0  0
   -7.4990    0.5760    0.8300 C   0  0  0  0  0  0  0  0  0  0  0  0
   -8.7780    0.1070    1.1630 C   0  0  0  0  0  0  0  0  0  0  0  0
   -9.6860   -0.1650    0.1620 C   0  0  0  0  0  0  0  0  0  0  0  0
   -9.2900    0.0400   -1.1430 C   0  0  0  0  0  0  0  0  0  0  0  0
   -8.0510    0.4950   -1.4910 C   0  0  0  0  0  0  0  0  0  0  0  0
   -7.1290    0.7710   -0.4740 C   0  0  0  0  0  0  0  0  0  0  0  0
   -5.8130    1.2400   -0.5200 O   0  0  0  0  0  0  0  0  0  0  0  0
   -2.6690   -1.3270   -0.7210 C   0  0  0  0  0  0  0  0  0  0  0  0
   -1.2000   -1.5060   -0.4180 C   0  0  2  0  0  0  0  0  0  0  0  0
   -1.0830   -2.0850    0.8990 N   0  0  2  0  0  0  0  0  0  0  0  0
   -0.2600   -1.3080    1.7820 C   0  0  0  0  0  0  0  0  0  0  0  0
   -0.4840   -3.4260    0.8440 C   0  0  0  0  0  0  0  0  0  0  0  0
    4.8100   -0.9380   -0.7440 C   0  0  0  0  0  0  0  0  0  0  0  0
    3.8590   -2.3980   -0.6410 Cl  0  0  0  0  0  0  0  0  0  0  0  0
  1  2  1  0
  2  3  1  0
  3  4  1  0
  4  5  1  0
  5  6  1  0
  5 37  2  0
  6  7  1  0
  7  8  1  0
  7 10  2  0
  8  9  1  0
 10 11  1  0
 10 37  1  0
 11 12  2  0
 11 19  1  0
 12 13  1  0
 13 14  2  0
 13 18  1  0
 14 15  1  0
 14 33  1  0
 15 16  2  0
 15 20  1  0
 16 17  1  0
 17 18  2  0
 18 19  1  0
 20 21  1  1
 20 32  1  0
 21 22  1  0
 23 22  1  1
 23 24  1  0
 23 31  1  0
 24 25  1  0
 25 26  2  0
 25 30  1  0
 26 27  1  0
 27 28  2  0
 28 29  1  0
 29 30  2  0
 30 31  1  0
 33 32  1  1
 33 34  1  0
 34 35  1  1
 34 36  1  0
 37 38  1  0
M  CHG  2  21   1  34   1
M  END
