
     RDKit          3D

 38 41  0  0  0  0  0  0  0  0999 V2000
   -2.3170    0.2140   -2.7400 C   0  0  0  0  0  0  0  0  0  0  0  0
   -3.1340    0.7740   -1.5960 C   0  0  2  0  0  0  0  0  0  0  0  0
   -3.2930    2.2610   -1.8500 C   0  0  0  0  0  0  0  0  0  0  0  0
   -2.4240    0.6440   -0.2690 C   0  0  0  0  0  0  0  0  0  0  0  0
   -2.1050   -0.6460    0.1400 N   0  0  0  0  0  0  0  0  0  0  0  0
   -0.7350   -0.7540    0.5680 C   0  0  0  0  0  0  0  0  0  0  0  0
   -0.3630    0.1770    1.6950 C   0  0  1  0  0  0  0  0  0  0  0  0
   -1.1370   -0.0590    2.8340 O   0  0  0  0  0  0  0  0  0  0  0  0
    1.0730    0.0550    2.0940 C   0  0  2  0  0  0  0  0  0  0  0  0
    1.3850    1.0810    3.1550 C   0  0  0  0  0  0  0  0  0  0  0  0
    1.1630    2.4670    2.7100 C   0  0  0  0  0  0  0  0  0  0  0  0
   -0.0280    3.1230    2.8570 C   0  0  0  0  0  0  0  0  0  0  0  0
   -0.2280    4.4380    2.4310 C   0  0  0  0  0  0  0  0  0  0  0  0
    0.8360    5.0890    1.8380 C   0  0  0  0  0  0  0  0  0  0  0  0
    2.0570    4.4680    1.6690 C   0  0  0  0  0  0  0  0  0  0  0  0
    2.2090    3.1720    2.1040 C   0  0  0  0  0  0  0  0  0  0  0  0
    1.9890    0.2780    1.0010 N   0  0  0  0  0  0  0  0  0  0  0  0
    2.9330   -0.7260    0.6700 C   0  0  0  0  0  0  0  0  0  0  0  0
    2.9560   -1.7790    1.3260 O   0  0  0  0  0  0  0  0  0  0  0  0
    3.8470   -0.5910   -0.3640 O   0  0  0  0  0  0  0  0  0  0  0  0
    4.7640   -1.6300   -0.6430 C   0  0  1  0  0  0  0  0  0  0  0  0
    4.6530   -2.1370   -2.0410 C   0  0  0  0  0  0  0  0  0  0  0  0
    5.9180   -2.2300   -2.5900 O   0  0  0  0  0  0  0  0  0  0  0  0
    6.8310   -2.1760   -1.5420 C   0  0  1  0  0  0  0  0  0  0  0  0
    8.0070   -1.5410   -1.8570 O   0  0  0  0  0  0  0  0  0  0  0  0
    7.6680   -0.2290   -2.1140 C   0  0  0  0  0  0  0  0  0  0  0  0
    6.4550    0.1160   -1.2780 C   0  0  0  0  0  0  0  0  0  0  0  0
    6.1900   -1.1910   -0.5660 C   0  0  1  0  0  0  0  0  0  0  0  0
   -3.1540   -1.5890    1.0230 S   0  0  1  0  0  0  0  0  0  0  0  0
   -2.5250   -2.9450    1.2530 O   0  0  0  0  0  0  0  0  0  0  0  0
   -3.5350   -1.0590    2.3700 O   0  0  0  0  0  0  0  0  0  0  0  0
   -4.6760   -1.9420    0.1860 C   0  0  0  0  0  0  0  0  0  0  0  0
   -5.7300   -1.0930    0.3640 C   0  0  0  0  0  0  0  0  0  0  0  0
   -6.9250   -1.3420   -0.2740 C   0  0  0  0  0  0  0  0  0  0  0  0
   -7.0990   -2.4420   -1.1020 C   0  0  0  0  0  0  0  0  0  0  0  0
   -8.3360   -2.6810   -1.7490 N   0  0  0  0  0  0  0  0  0  0  0  0
   -6.0050   -3.2670   -1.2470 C   0  0  0  0  0  0  0  0  0  0  0  0
   -4.8010   -3.0430   -0.6230 C   0  0  0  0  0  0  0  0  0  0  0  0
  2  1  1  6
  2  3  1  0
  2  4  1  0
  4  5  1  0
  5  6  1  0
 29  5  1  6
  6  7  1  0
  7  8  1  1
  7  9  1  0
  9 10  1  1
  9 17  1  0
 10 11  1  0
 11 12  2  0
 11 16  1  0
 12 13  1  0
 13 14  2  0
 14 15  1  0
 15 16  2  0
 17 18  1  0
 18 19  2  0
 18 20  1  0
 21 20  1  6
 21 22  1  0
 21 28  1  0
 22 23  1  0
 24 23  1  6
 24 25  1  0
 24 28  1  0
 25 26  1  0
 26 27  1  0
 28 27  1  6
 29 30  2  0
 29 31  2  0
 29 32  1  0
 32 33  2  0
 32 38  1  0
 33 34  1  0
 34 35  2  0
 35 36  1  0
 35 37  1  0
 37 38  2  0
M  END
