
     RDKit          3D

 38 42  0  0  0  0  0  0  0  0999 V2000
    7.0520    1.7510    1.7140 C   0  0  0  0  0  0  0  0  0  0  0  0
    7.4040    0.7580    2.6090 O   0  0  0  0  0  0  0  0  0  0  0  0
    6.9920   -0.4730    2.1220 C   0  0  0  0  0  0  0  0  0  0  0  0
    7.6190   -0.7990    0.8000 C   0  0  0  0  0  0  0  0  0  0  0  0
    8.9610   -1.1460    0.7770 C   0  0  0  0  0  0  0  0  0  0  0  0
    9.5840   -1.4570   -0.3910 C   0  0  0  0  0  0  0  0  0  0  0  0
    8.8800   -1.4280   -1.5670 C   0  0  0  0  0  0  0  0  0  0  0  0
    9.6540   -1.8230   -3.0940 Cl  0  0  0  0  0  0  0  0  0  0  0  0
    7.5510   -1.0810   -1.5200 C   0  0  0  0  0  0  0  0  0  0  0  0
    6.9520   -0.7780   -0.3610 N   0  0  0  0  0  0  0  0  0  0  0  0
    5.5880   -0.4360   -0.3740 C   0  0  0  0  0  0  0  0  0  0  0  0
    4.6080   -1.2860    0.0570 C   0  0  0  0  0  0  0  0  0  0  0  0
    3.2700   -0.9230    0.0310 C   0  0  0  0  0  0  0  0  0  0  0  0
    2.9530    0.3210   -0.4430 C   0  0  0  0  0  0  0  0  0  0  0  0
    1.5760    0.7670   -0.5020 C   0  0  0  0  0  0  0  0  0  0  0  0
    1.3730    1.9500   -0.9280 O   0  0  0  0  0  0  0  0  0  0  0  0
    0.5070   -0.0540   -0.1140 N   0  0  0  0  0  0  0  0  0  0  0  0
   -0.8490    0.3300   -0.1440 C   0  0  0  0  0  0  0  0  0  0  0  0
   -1.2990    1.6170   -0.1990 C   0  0  0  0  0  0  0  0  0  0  0  0
   -2.6660    1.9110   -0.2520 C   0  0  0  0  0  0  0  0  0  0  0  0
   -3.5680    0.8720   -0.2490 C   0  0  0  0  0  0  0  0  0  0  0  0
   -4.9040    1.1290   -0.3010 O   0  0  0  0  0  0  0  0  0  0  0  0
   -5.6060    2.3170   -0.3660 C   0  0  1  0  0  0  0  0  0  0  0  0
   -5.4380    3.1520    0.8690 C   0  0  0  0  0  0  0  0  0  0  0  0
   -5.2460    4.5480    0.3930 C   0  0  0  0  0  0  0  0  0  0  0  0
   -5.0890    4.5540   -1.0240 N   0  0  0  0  0  0  0  0  0  0  0  0
   -5.2960    3.2220   -1.5060 C   0  0  0  0  0  0  0  0  0  0  0  0
   -3.1580   -0.4430   -0.1950 C   0  0  0  0  0  0  0  0  0  0  0  0
   -4.1910   -1.4890   -0.2010 C   0  0  0  0  0  0  0  0  0  0  0  0
   -5.4090   -1.1840   -0.2570 O   0  0  0  0  0  0  0  0  0  0  0  0
   -3.9000   -2.8160   -0.1480 O   0  0  0  0  0  0  0  0  0  0  0  0
   -4.6580   -3.9500   -0.1330 C   0  0  0  0  0  0  0  0  0  0  0  0
   -5.5640   -4.2460    0.9920 C   0  0  1  0  0  0  0  0  0  0  0  0
   -6.7030   -3.5020    1.4860 C   0  0  0  0  0  0  0  0  0  0  0  0
   -6.9890   -4.7170    0.6300 C   0  0  0  0  0  0  0  0  0  0  0  0
   -1.8140   -0.6860   -0.1430 C   0  0  0  0  0  0  0  0  0  0  0  0
    3.9310    1.1260   -0.8560 N   0  0  0  0  0  0  0  0  0  0  0  0
    5.2090    0.7720   -0.8270 N   0  0  0  0  0  0  0  0  0  0  0  0
  1  2  1  0
  2  3  1  0
  3  4  1  0
  4  5  2  0
  4 10  1  0
  5  6  1  0
  6  7  2  0
  7  8  1  0
  7  9  1  0
  9 10  2  0
 10 11  1  0
 11 12  2  0
 11 38  1  0
 12 13  1  0
 13 14  2  0
 14 15  1  0
 14 37  1  0
 15 16  2  0
 15 17  1  0
 17 18  1  0
 18 19  2  0
 18 36  1  0
 19 20  1  0
 20 21  2  0
 21 22  1  0
 21 28  1  0
 23 22  1  1
 23 24  1  0
 23 27  1  0
 24 25  1  0
 25 26  1  0
 26 27  1  0
 28 29  1  0
 28 36  2  0
 29 30  2  0
 29 31  1  0
 31 32  1  0
 33 32  1  6
 33 34  1  0
 33 35  1  0
 34 35  1  0
 37 38  2  0
M  CHG  2  10   1  26   1
M  END
