
     RDKit          3D

 38 42  0  0  0  0  0  0  0  0999 V2000
    8.1700    2.8310    0.6360 C   0  0  0  0  0  0  0  0  0  0  0  0
    6.9900    2.1010    0.4110 O   0  0  0  0  0  0  0  0  0  0  0  0
    7.0480    0.7240    0.3510 C   0  0  0  0  0  0  0  0  0  0  0  0
    8.2490    0.0680    0.5100 C   0  0  0  0  0  0  0  0  0  0  0  0
    8.2670   -1.3070    0.4450 C   0  0  0  0  0  0  0  0  0  0  0  0
    7.1250   -2.0340    0.2260 C   0  0  0  0  0  0  0  0  0  0  0  0
    5.9090   -1.3500    0.0670 C   0  0  0  0  0  0  0  0  0  0  0  0
    5.8490    0.0280    0.1260 C   0  0  0  0  0  0  0  0  0  0  0  0
    4.6770    0.7890   -0.0300 N   0  0  0  0  0  0  0  0  0  0  0  0
    3.3680    0.2760   -0.2340 C   0  0  0  0  0  0  0  0  0  0  0  0
    3.1870   -0.9450   -0.2840 O   0  0  0  0  0  0  0  0  0  0  0  0
    2.2600    1.2650   -0.3780 C   0  0  0  0  0  0  0  0  0  0  0  0
    0.9990    0.7000   -0.5730 O   0  0  0  0  0  0  0  0  0  0  0  0
    0.3270   -0.1500    0.2690 C   0  0  0  0  0  0  0  0  0  0  0  0
    0.9260   -0.4740    1.3590 O   0  0  0  0  0  0  0  0  0  0  0  0
   -0.9890   -0.7090    0.0440 C   0  0  0  0  0  0  0  0  0  0  0  0
   -0.9910   -1.9900   -0.5490 C   0  0  0  0  0  0  0  0  0  0  0  0
    0.2890   -2.6890   -0.8690 C   0  0  0  0  0  0  0  0  0  0  0  0
    1.0540   -3.3610    0.5640 Cl  0  0  0  0  0  0  0  0  0  0  0  0
   -2.1380   -2.5940   -0.8310 N   0  0  0  0  0  0  0  0  0  0  0  0
   -3.2760   -1.9600   -0.5380 C   0  0  0  0  0  0  0  0  0  0  0  0
   -4.4860   -2.6300   -0.8480 N   0  0  0  0  0  0  0  0  0  0  0  0
   -5.2040   -2.5290   -2.0910 C   0  0  0  0  0  0  0  0  0  0  0  0
   -5.7570   -3.9260   -2.2630 C   0  0  0  0  0  0  0  0  0  0  0  0
   -5.5800   -4.6430   -0.9560 C   0  0  0  0  0  0  0  0  0  0  0  0
   -5.2250   -3.5280    0.0010 C   0  0  0  0  0  0  0  0  0  0  0  0
   -3.2880   -0.7300    0.0310 N   0  0  0  0  0  0  0  0  0  0  0  0
   -2.1400   -0.0520    0.3440 C   0  0  0  0  0  0  0  0  0  0  0  0
   -2.2340    1.3080    0.8460 C   0  0  0  0  0  0  0  0  0  0  0  0
   -1.2570    2.0310    1.4690 C   0  0  0  0  0  0  0  0  0  0  0  0
   -1.4960    3.3520    1.8240 C   0  0  0  0  0  0  0  0  0  0  0  0
   -2.7030    3.9710    1.5660 C   0  0  0  0  0  0  0  0  0  0  0  0
   -3.7060    3.2650    0.9390 C   0  0  0  0  0  0  0  0  0  0  0  0
   -3.4650    1.9560    0.5880 C   0  0  0  0  0  0  0  0  0  0  0  0
   -4.8850    4.1260    0.7700 C   0  0  0  0  0  0  0  0  0  0  0  0
   -6.0230    3.7840    0.3640 O   0  0  0  0  0  0  0  0  0  0  0  0
   -4.4940    5.4810    1.1680 C   0  0  0  0  0  0  0  0  0  0  0  0
   -3.2170    5.2750    1.8110 N   0  0  0  0  0  0  0  0  0  0  0  0
  1  2  1  0
  2  3  1  0
  3  4  2  0
  3  8  1  0
  4  5  1  0
  5  6  2  0
  6  7  1  0
  7  8  2  0
  8  9  1  0
  9 10  1  0
 10 11  2  0
 10 12  1  0
 12 13  1  0
 13 14  1  0
 14 15  2  0
 14 16  1  0
 16 17  2  0
 16 28  1  0
 17 18  1  0
 17 20  1  0
 18 19  1  0
 20 21  2  0
 21 22  1  0
 21 27  1  0
 22 23  1  0
 22 26  1  0
 23 24  1  0
 24 25  1  0
 25 26  1  0
 27 28  2  0
 28 29  1  0
 29 30  2  0
 29 34  1  0
 30 31  1  0
 31 32  2  0
 32 33  1  0
 32 38  1  0
 33 34  2  0
 33 35  1  0
 35 36  2  0
 35 37  1  0
 37 38  1  0
M  CHG  2  20   1  27   1
M  END
