
     RDKit          3D

 38 42  0  0  0  0  0  0  0  0999 V2000
    8.1090   -4.2270    0.5160 C   0  0  0  0  0  0  0  0  0  0  0  0
    7.5040   -3.1090    0.9550 O   0  0  0  0  0  0  0  0  0  0  0  0
    6.7110   -2.3750    0.1130 C   0  0  2  0  0  0  0  0  0  0  0  0
    6.9560   -0.9480   -0.0320 C   0  0  0  0  0  0  0  0  0  0  0  0
    5.2500   -2.7720    0.3510 C   0  0  0  0  0  0  0  0  0  0  0  0
    4.2650   -2.0930   -0.2700 O   0  0  0  0  0  0  0  0  0  0  0  0
    3.6790   -0.8590   -0.0580 C   0  0  0  0  0  0  0  0  0  0  0  0
    4.1080   -0.2060    0.9370 O   0  0  0  0  0  0  0  0  0  0  0  0
    2.6160   -0.3760   -0.9620 C   0  0  0  0  0  0  0  0  0  0  0  0
    1.5460    0.3650   -0.3790 N   0  0  0  0  0  0  0  0  0  0  0  0
    0.4690   -0.2650    0.0610 C   0  0  0  0  0  0  0  0  0  0  0  0
    0.5020   -1.5250    0.0330 O   0  0  0  0  0  0  0  0  0  0  0  0
   -0.6870    0.3920    0.5460 C   0  0  0  0  0  0  0  0  0  0  0  0
   -1.7080   -0.5030    1.0450 C   0  0  0  0  0  0  0  0  0  0  0  0
   -2.9050   -0.7280    0.3170 N   0  0  2  0  0  0  0  0  0  0  0  0
   -3.7720    0.1170   -0.2910 C   0  0  0  0  0  0  0  0  0  0  0  0
   -5.2550   -0.1280    0.0940 C   0  0  0  0  0  0  0  0  0  0  0  0
   -5.5840   -1.4600   -0.3980 N   0  0  0  0  0  0  0  0  0  0  0  0
   -6.8400   -1.9260    0.1760 C   0  0  0  0  0  0  0  0  0  0  0  0
   -6.6950   -3.3650    0.0590 N   0  0  0  0  0  0  0  0  0  0  0  0
   -5.3920   -3.5470    0.6640 C   0  0  0  0  0  0  0  0  0  0  0  0
   -4.5850   -2.4510   -0.0060 C   0  0  1  0  0  0  0  0  0  0  0  0
   -4.0030   -3.0480   -1.2450 C   0  0  0  0  0  0  0  0  0  0  0  0
   -3.6170   -1.8720    0.9700 C   0  0  0  0  0  0  0  0  0  0  0  0
   -0.6130    1.7500    0.5390 C   0  0  0  0  0  0  0  0  0  0  0  0
   -1.6820    2.4300    1.0440 C   0  0  0  0  0  0  0  0  0  0  0  0
   -1.6870    3.7900    1.1170 C   0  0  0  0  0  0  0  0  0  0  0  0
   -0.5570    4.4480    0.6590 C   0  0  0  0  0  0  0  0  0  0  0  0
   -0.5440    5.8380    0.7470 C   0  0  0  0  0  0  0  0  0  0  0  0
    0.5730    6.5400    0.3230 C   0  0  0  0  0  0  0  0  0  0  0  0
    0.5610    8.2780    0.4350 Cl  0  0  0  0  0  0  0  0  0  0  0  0
    1.6480    5.8600   -0.1810 C   0  0  0  0  0  0  0  0  0  0  0  0
    2.8780    6.5700   -0.6320 C   0  0  0  0  0  0  0  0  0  0  0  0
    1.6460    4.4650   -0.2760 C   0  0  0  0  0  0  0  0  0  0  0  0
    0.5490    3.7630    0.1410 C   0  0  0  0  0  0  0  0  0  0  0  0
    0.4990    2.3940    0.0900 N   0  0  0  0  0  0  0  0  0  0  0  0
    1.5570    1.7310   -0.3610 C   0  0  0  0  0  0  0  0  0  0  0  0
    2.5900    2.2630   -0.7820 O   0  0  0  0  0  0  0  0  0  0  0  0
  1  2  1  0
  2  3  1  0
  3  4  1  1
  3  5  1  0
  5  6  1  0
  6  7  1  0
  7  8  2  0
  7  9  1  0
  9 10  1  0
 10 11  1  0
 10 37  1  0
 11 12  2  0
 11 13  1  0
 13 14  1  0
 13 25  2  0
 15 14  1  1
 15 16  1  0
 15 24  1  0
 16 17  1  0
 17 18  1  0
 18 19  1  0
 18 22  1  0
 19 20  1  0
 20 21  1  0
 21 22  1  0
 22 23  1  6
 22 24  1  0
 25 26  1  0
 25 36  1  0
 26 27  2  0
 27 28  1  0
 28 29  2  0
 28 35  1  0
 29 30  1  0
 30 31  1  0
 30 32  2  0
 32 33  1  0
 32 34  1  0
 34 35  2  0
 35 36  1  0
 36 37  1  0
 37 38  2  0
M  CHG  2  15   1  20   1
M  END
