
     RDKit          3D

 38 42  0  0  0  0  0  0  0  0999 V2000
    7.5670    2.0790   -0.6620 C   0  0  0  0  0  0  0  0  0  0  0  0
    6.0770    1.9910   -0.5930 C   0  0  0  0  0  0  0  0  0  0  0  0
    5.3790    3.1790   -0.6430 C   0  0  0  0  0  0  0  0  0  0  0  0
    4.0190    3.1480   -0.5640 C   0  0  0  0  0  0  0  0  0  0  0  0
    3.3580    1.9140   -0.4360 C   0  0  0  0  0  0  0  0  0  0  0  0
    4.0490    0.7520   -0.3920 C   0  0  0  0  0  0  0  0  0  0  0  0
    3.4250   -0.5610   -0.3550 C   0  0  0  0  0  0  0  0  0  0  0  0
    2.0060   -0.5520   -0.1240 O   0  0  0  0  0  0  0  0  0  0  0  0
    1.6710   -0.0130    1.1450 C   0  0  0  0  0  0  0  0  0  0  0  0
    2.6520    0.4080    1.8350 O   0  0  0  0  0  0  0  0  0  0  0  0
    0.2920    0.0380    1.6520 C   0  0  0  0  0  0  0  0  0  0  0  0
   -0.7410   -0.2770    0.8820 O   0  0  0  0  0  0  0  0  0  0  0  0
   -1.6030    0.4650    0.1140 C   0  0  0  0  0  0  0  0  0  0  0  0
   -1.5140    1.6850    0.0460 O   0  0  0  0  0  0  0  0  0  0  0  0
   -2.6850   -0.3670   -0.6050 C   0  0  0  0  0  0  0  0  0  0  0  0
   -3.3480   -1.0700    0.4170 N   0  0  1  0  0  0  0  0  0  0  0  0
   -3.2980   -0.1490    1.6150 C   0  0  0  0  0  0  0  0  0  0  0  0
   -4.6720   -1.4210    0.2490 C   0  0  0  0  0  0  0  0  0  0  0  0
   -5.1860   -2.6030    0.7690 N   0  0  0  0  0  0  0  0  0  0  0  0
   -6.4650   -2.5760    0.6020 N   0  0  0  0  0  0  0  0  0  0  0  0
   -6.8150   -1.4280   -0.0010 C   0  0  0  0  0  0  0  0  0  0  0  0
   -5.7070   -0.7110   -0.2230 N   0  0  0  0  0  0  0  0  0  0  0  0
   -6.1690    0.5180   -0.8130 C   0  0  0  0  0  0  0  0  0  0  0  0
   -5.4300    1.4780   -1.1710 O   0  0  0  0  0  0  0  0  0  0  0  0
   -7.6140    0.5140   -0.9400 C   0  0  0  0  0  0  0  0  0  0  0  0
   -8.5630    1.4130   -1.4130 C   0  0  0  0  0  0  0  0  0  0  0  0
   -9.9190    1.1420   -1.3990 C   0  0  0  0  0  0  0  0  0  0  0  0
  -10.2860   -0.1050   -0.8730 C   0  0  0  0  0  0  0  0  0  0  0  0
   -9.3620   -1.0030   -0.4040 C   0  0  0  0  0  0  0  0  0  0  0  0
   -8.0260   -0.6940   -0.4370 C   0  0  0  0  0  0  0  0  0  0  0  0
    5.4530    0.7810   -0.4700 C   0  0  0  0  0  0  0  0  0  0  0  0
    6.1510   -0.5110   -0.3890 C   0  0  0  0  0  0  0  0  0  0  0  0
    6.3220   -1.3430   -1.4660 C   0  0  0  0  0  0  0  0  0  0  0  0
    6.9400   -2.5660   -1.3260 C   0  0  0  0  0  0  0  0  0  0  0  0
    7.3830   -2.9540   -0.1210 N   0  0  0  0  0  0  0  0  0  0  0  0
    7.2470   -2.1910    0.9630 C   0  0  0  0  0  0  0  0  0  0  0  0
    7.8600   -2.8230    2.4760 Cl  0  0  0  0  0  0  0  0  0  0  0  0
    6.6280   -0.9560    0.8440 C   0  0  0  0  0  0  0  0  0  0  0  0
  1  2  1  0
  2  3  2  0
  2 31  1  0
  3  4  1  0
  4  5  2  0
  5  6  1  0
  6  7  1  0
  6 31  2  0
  7  8  1  0
  8  9  1  0
  9 10  2  0
  9 11  1  0
 11 12  1  0
 12 13  1  0
 13 14  2  0
 13 15  1  0
 15 16  1  0
 16 17  1  1
 16 18  1  0
 18 19  2  0
 18 22  1  0
 19 20  1  0
 20 21  2  0
 21 22  1  0
 21 30  1  0
 22 23  1  0
 23 24  2  0
 23 25  1  0
 25 26  2  0
 25 30  1  0
 26 27  1  0
 27 28  2  0
 28 29  1  0
 29 30  2  0
 31 32  1  0
 32 33  2  0
 32 38  1  0
 33 34  1  0
 34 35  2  0
 35 36  1  0
 36 37  1  0
 36 38  2  0
M  CHG  2  16   1  35   1
M  END
