
     RDKit          3D

 38 42  0  0  0  0  0  0  0  0999 V2000
   -9.5030    1.8560    0.9930 C   0  0  0  0  0  0  0  0  0  0  0  0
   -8.4120    1.0910    0.4180 N   0  0  2  0  0  0  0  0  0  0  0  0
   -8.4850   -0.2470    0.9700 C   0  0  0  0  0  0  0  0  0  0  0  0
   -7.3590   -1.1210    0.5260 C   0  0  0  0  0  0  0  0  0  0  0  0
   -6.0550   -0.4910    0.9600 C   0  0  0  0  0  0  0  0  0  0  0  0
   -5.9510    0.9240    0.4940 C   0  0  1  0  0  0  0  0  0  0  0  0
   -5.4340    1.0650   -0.8910 C   0  0  0  0  0  0  0  0  0  0  0  0
   -6.1790    1.5860   -1.7640 O   0  0  0  0  0  0  0  0  0  0  0  0
   -4.1280    0.6310   -1.2630 N   0  0  0  0  0  0  0  0  0  0  0  0
   -3.5410    0.7230   -2.5900 C   0  0  0  0  0  0  0  0  0  0  0  0
   -2.1080    1.1240   -2.2200 C   0  0  0  0  0  0  0  0  0  0  0  0
   -1.8660    0.5480   -0.9290 N   0  0  2  0  0  0  0  0  0  0  0  0
   -0.8920   -0.5230   -0.9730 C   0  0  0  0  0  0  0  0  0  0  0  0
    0.4580   -0.0170   -0.5690 C   0  0  0  0  0  0  0  0  0  0  0  0
    1.4500   -1.0020   -0.5890 O   0  0  0  0  0  0  0  0  0  0  0  0
    1.7760   -1.6760   -1.7330 C   0  0  0  0  0  0  0  0  0  0  0  0
    1.1830   -1.4180   -2.8020 O   0  0  0  0  0  0  0  0  0  0  0  0
    2.8270   -2.7270   -1.7800 C   0  0  0  0  0  0  0  0  0  0  0  0
    3.4210   -2.9140   -0.4790 N   0  0  0  0  0  0  0  0  0  0  0  0
    3.0620   -3.7270    0.4800 N   0  0  0  0  0  0  0  0  0  0  0  0
    3.8760   -3.6090    1.5560 C   0  0  0  0  0  0  0  0  0  0  0  0
    4.8040   -2.6440    1.2210 C   0  0  0  0  0  0  0  0  0  0  0  0
    5.8880   -2.0600    1.8530 C   0  0  0  0  0  0  0  0  0  0  0  0
    6.6680   -1.0870    1.2650 C   0  0  0  0  0  0  0  0  0  0  0  0
    7.7590   -0.5310    1.9600 O   0  0  0  0  0  0  0  0  0  0  0  0
    8.5030    0.4410    1.3190 C   0  0  0  0  0  0  0  0  0  0  0  0
    9.5820    0.0680    0.5570 C   0  0  0  0  0  0  0  0  0  0  0  0
   10.3230    1.0510   -0.0820 C   0  0  0  0  0  0  0  0  0  0  0  0
    9.9750    2.3790    0.0510 C   0  0  0  0  0  0  0  0  0  0  0  0
   10.7370    3.3280   -0.6000 O   0  0  0  0  0  0  0  0  0  0  0  0
    8.8880    2.7640    0.8180 C   0  0  0  0  0  0  0  0  0  0  0  0
    8.5240    4.4640    0.9290 Cl  0  0  0  0  0  0  0  0  0  0  0  0
    8.1600    1.7730    1.4490 C   0  0  0  0  0  0  0  0  0  0  0  0
    6.3480   -0.6770   -0.0200 C   0  0  0  0  0  0  0  0  0  0  0  0
    5.2710   -1.2470   -0.6650 C   0  0  0  0  0  0  0  0  0  0  0  0
    4.4970   -2.2280   -0.0520 C   0  0  0  0  0  0  0  0  0  0  0  0
   -3.1170    0.0200   -0.4250 C   0  0  0  0  0  0  0  0  0  0  0  0
   -7.1810    1.7510    0.7120 C   0  0  0  0  0  0  0  0  0  0  0  0
  2  1  1  1
  2  3  1  0
  2 38  1  0
  3  4  1  0
  4  5  1  0
  5  6  1  0
  6  7  1  6
  6 38  1  0
  7  8  2  0
  7  9  1  0
  9 10  1  0
  9 37  1  0
 10 11  1  0
 11 12  1  0
 12 13  1  6
 12 37  1  0
 13 14  1  0
 14 15  1  0
 15 16  1  0
 16 17  2  0
 16 18  1  0
 18 19  1  0
 19 20  1  0
 19 36  1  0
 20 21  2  0
 21 22  1  0
 22 23  2  0
 22 36  1  0
 23 24  1  0
 24 25  1  0
 24 34  2  0
 25 26  1  0
 26 27  2  0
 26 33  1  0
 27 28  1  0
 28 29  2  0
 29 30  1  0
 29 31  1  0
 31 32  1  0
 31 33  2  0
 34 35  1  0
 35 36  2  0
M  CHG  2   2   1  12   1
M  END
