
     RDKit          3D

 11 11  0  0  0  0  0  0  0  0999 V2000
   -1.4160    0.4310   -1.3280 N   0  0  0  0  0  0  0  0  0  0  0  0
   -0.5740    0.0890   -0.1710 C   0  0  2  0  0  0  0  0  0  0  0  0
   -1.5530   -0.4730    0.8720 C   0  0  0  0  0  0  0  0  0  0  0  0
   -2.5120    0.4410    1.2250 O   0  0  0  0  0  0  0  0  0  0  0  0
    0.1090    1.2930    0.3470 C   0  0  0  0  0  0  0  0  0  0  0  0
    1.4970    1.5220   -0.0990 C   0  0  0  0  0  0  0  0  0  0  0  0
    2.0920    0.4510   -0.7460 O   0  0  0  0  0  0  0  0  0  0  0  0
    1.7200   -0.6910    0.0000 C   0  0  2  0  0  0  0  0  0  0  0  0
    2.6270   -1.7070   -0.1270 O   0  0  0  0  0  0  0  0  0  0  0  0
    0.3400   -1.0510   -0.5260 C   0  0  1  0  0  0  0  0  0  0  0  0
   -0.0460   -2.2580    0.0130 O   0  0  0  0  0  0  0  0  0  0  0  0
  2  1  1  6
  2  3  1  0
  2  5  1  0
  2 10  1  0
  3  4  1  0
  5  6  1  0
  6  7  1  0
  7  8  1  0
  8  9  1  6
  8 10  1  0
 10 11  1  1
M  CHG  1   1   1
M  END
