
     RDKit          3D

 11 11  0  0  0  0  0  0  0  0999 V2000
   -1.0410    1.9280   -0.6040 N   0  0  0  0  0  0  0  0  0  0  0  0
   -1.2110    0.6130   -0.0370 C   0  0  1  0  0  0  0  0  0  0  0  0
   -2.2010   -0.2200   -0.8430 C   0  0  0  0  0  0  0  0  0  0  0  0
   -1.4730   -1.2810   -1.3690 O   0  0  0  0  0  0  0  0  0  0  0  0
   -0.9970   -2.1310   -0.3720 C   0  0  0  0  0  0  0  0  0  0  0  0
   -0.2490   -1.4190    0.5870 O   0  0  0  0  0  0  0  0  0  0  0  0
    0.0730   -0.1900   -0.0240 C   0  0  2  0  0  0  0  0  0  0  0  0
    1.1720    0.5230    0.7270 C   0  0  2  0  0  0  0  0  0  0  0  0
    1.4180    1.7170    0.0510 O   0  0  0  0  0  0  0  0  0  0  0  0
    2.4310   -0.2820    0.7440 C   0  0  0  0  0  0  0  0  0  0  0  0
    2.2570   -1.4930    1.4070 O   0  0  0  0  0  0  0  0  0  0  0  0
  2  1  1  6
  2  3  1  0
  2  7  1  0
  3  4  1  0
  4  5  1  0
  5  6  1  0
  7  6  1  1
  7  8  1  0
  8  9  1  6
  8 10  1  0
 10 11  1  0
M  CHG  1   1   1
M  END
