
     RDKit          3D

 11 11  0  0  0  0  0  0  0  0999 V2000
    3.4290   -0.4550    0.2340 O   0  0  0  0  0  0  0  0  0  0  0  0
    2.4060    0.4190    0.4610 C   0  0  0  0  0  0  0  0  0  0  0  0
    1.0930    0.0390   -0.1310 C   0  0  1  0  0  0  0  0  0  0  0  0
    0.6350   -1.2290    0.3880 N   0  0  0  0  0  0  0  0  0  0  0  0
   -0.7000   -1.5470   -0.0430 C   0  0  0  0  0  0  0  0  0  0  0  0
   -1.7000   -0.4730    0.2460 C   0  0  2  0  0  0  0  0  0  0  0  0
   -2.9010   -0.8500   -0.3940 O   0  0  0  0  0  0  0  0  0  0  0  0
   -1.2110    0.7970   -0.4430 C   0  0  1  0  0  0  0  0  0  0  0  0
   -2.1610    1.7930   -0.2920 O   0  0  0  0  0  0  0  0  0  0  0  0
    0.1060    1.1550    0.1690 C   0  0  1  0  0  0  0  0  0  0  0  0
   -0.0220    1.3040    1.5430 O   0  0  0  0  0  0  0  0  0  0  0  0
  1  2  1  0
  3  2  1  1
  3  4  1  0
  3 10  1  0
  4  5  1  0
  5  6  1  0
  6  7  1  6
  6  8  1  0
  8  9  1  1
  8 10  1  0
 10 11  1  1
M  CHG  1   4   1
M  END
