
     RDKit          3D

 11 11  0  0  0  0  0  0  0  0999 V2000
    0.2250    1.4890   -0.8520 C   0  0  0  0  0  0  0  0  0  0  0  0
    0.2470    0.0270   -0.4740 C   0  0  1  0  0  0  0  0  0  0  0  0
   -1.1350   -0.5150   -0.2220 C   0  0  1  0  0  0  0  0  0  0  0  0
   -0.9630   -1.9070    0.2200 N   0  0  0  0  0  0  0  0  0  0  0  0
   -1.9160    0.2730    0.7700 C   0  0  0  0  0  0  0  0  0  0  0  0
   -2.0620    1.5690    0.3290 O   0  0  0  0  0  0  0  0  0  0  0  0
    0.9160   -0.7030   -1.4530 O   0  0  0  0  0  0  0  0  0  0  0  0
    2.2330   -0.3950   -1.2400 C   0  0  0  0  0  0  0  0  0  0  0  0
    2.4220    0.0160    0.0560 O   0  0  0  0  0  0  0  0  0  0  0  0
    1.1680   -0.1330    0.6980 C   0  0  1  0  0  0  0  0  0  0  0  0
    1.0530    0.8950    1.6250 O   0  0  0  0  0  0  0  0  0  0  0  0
  2  1  1  6
  2  3  1  0
  2  7  1  0
  2 10  1  0
  3  4  1  1
  3  5  1  0
  5  6  1  0
  7  8  1  0
  8  9  1  0
  9 10  1  0
 10 11  1  1
M  CHG  1   4   1
M  END
