
     RDKit          3D

 11 11  0  0  0  0  0  0  0  0999 V2000
    2.1540    0.1920   -1.0840 N   0  0  0  0  0  0  0  0  0  0  0  0
    2.0580    0.1950    0.3460 C   0  0  1  0  0  0  0  0  0  0  0  0
    2.7040    1.3390    0.8120 O   0  0  0  0  0  0  0  0  0  0  0  0
    0.6430    0.1010    0.8630 C   0  0  2  0  0  0  0  0  0  0  0  0
    0.1570   -1.2880    0.6670 C   0  0  0  0  0  0  0  0  0  0  0  0
   -0.6690   -1.4970   -0.3980 O   0  0  0  0  0  0  0  0  0  0  0  0
   -1.9710   -1.1620   -0.0040 C   0  0  0  0  0  0  0  0  0  0  0  0
   -2.2330    0.2400   -0.4400 C   0  0  1  0  0  0  0  0  0  0  0  0
   -3.1020    0.9330    0.3700 O   0  0  0  0  0  0  0  0  0  0  0  0
   -0.9130    0.9600   -0.6420 C   0  0  0  0  0  0  0  0  0  0  0  0
   -0.1760    1.1030    0.4790 O   0  0  0  0  0  0  0  0  0  0  0  0
  2  1  1  6
  2  3  1  0
  2  4  1  0
  4  5  1  6
  4 11  1  0
  5  6  1  0
  6  7  1  0
  7  8  1  0
  8  9  1  1
  8 10  1  0
 10 11  1  0
M  CHG  1   1   1
M  END
