
     RDKit          3D

 11 11  0  0  0  0  0  0  0  0999 V2000
    0.5130   -1.8000    0.7150 N   0  0  0  0  0  0  0  0  0  0  0  0
    0.0930   -0.8100   -0.2910 C   0  0  2  0  0  0  0  0  0  0  0  0
    1.3580   -0.1090   -0.7630 C   0  0  2  0  0  0  0  0  0  0  0  0
    2.3680   -1.0450   -0.9240 O   0  0  0  0  0  0  0  0  0  0  0  0
    1.7410    0.8440    0.3440 C   0  0  0  0  0  0  0  0  0  0  0  0
    0.6370    1.8140    0.5440 C   0  0  0  0  0  0  0  0  0  0  0  0
   -0.6180    1.3870    0.4500 O   0  0  0  0  0  0  0  0  0  0  0  0
   -0.9350    0.1130    0.2380 C   0  0  2  0  0  0  0  0  0  0  0  0
   -1.4400   -0.4460    1.4330 O   0  0  0  0  0  0  0  0  0  0  0  0
   -2.1240    0.0870   -0.7360 C   0  0  0  0  0  0  0  0  0  0  0  0
   -3.1860    0.7630   -0.1730 O   0  0  0  0  0  0  0  0  0  0  0  0
  2  1  1  1
  2  3  1  0
  2  8  1  0
  3  4  1  1
  3  5  1  0
  5  6  1  0
  6  7  1  0
  7  8  1  0
  8  9  1  1
  8 10  1  0
 10 11  1  0
M  CHG  1   1   1
M  END
