
     RDKit          3D

 25 26  0  0  0  0  0  0  0  0999 V2000
   -6.2690    0.9000    1.5550 C   0  0  0  0  0  0  0  0  0  0  0  0
   -5.6710    0.4740    0.2090 C   0  0  1  0  0  0  0  0  0  0  0  0
   -6.6390    0.6010   -0.7990 O   0  0  0  0  0  0  0  0  0  0  0  0
   -4.4640    1.3130   -0.1470 C   0  0  0  0  0  0  0  0  0  0  0  0
   -3.3680    0.5410   -0.8300 C   0  0  0  0  0  0  0  0  0  0  0  0
   -2.8040   -0.4800    0.1480 C   0  0  2  0  0  0  0  0  0  0  0  0
   -1.9800   -1.4920   -0.6090 C   0  0  0  0  0  0  0  0  0  0  0  0
   -2.4740   -2.4750   -1.2020 O   0  0  0  0  0  0  0  0  0  0  0  0
   -0.6100   -1.3570   -0.6680 O   0  0  0  0  0  0  0  0  0  0  0  0
    0.2250   -2.2530   -1.3530 C   0  0  0  0  0  0  0  0  0  0  0  0
    1.6110   -1.9740   -1.2650 C   0  0  0  0  0  0  0  0  0  0  0  0
    2.5760   -2.4760   -1.6740 O   0  0  0  0  0  0  0  0  0  0  0  0
    1.9450   -0.5400   -0.3140 N   0  0  0  0  0  0  0  0  0  0  0  0
    3.3410   -0.6190   -0.4240 C   0  0  0  0  0  0  0  0  0  0  0  0
    4.1280   -1.3250   -0.9000 O   0  0  0  0  0  0  0  0  0  0  0  0
    3.9300    0.5780    0.2980 N   0  0  0  0  0  0  0  0  0  0  0  0
    5.3050    0.7430    0.3610 C   0  0  0  0  0  0  0  0  0  0  0  0
    5.8780    0.7460    1.5490 C   0  0  0  0  0  0  0  0  0  0  0  0
    7.3280    0.9150    1.6980 C   0  0  0  0  0  0  0  0  0  0  0  0
    7.9840    1.0640    0.4830 O   0  0  0  0  0  0  0  0  0  0  0  0
    7.3790    1.0580   -0.7430 C   0  0  0  0  0  0  0  0  0  0  0  0
    6.0660    0.9040   -0.8600 C   0  0  0  0  0  0  0  0  0  0  0  0
   -3.9080   -1.2230    0.6930 N   0  0  0  0  0  0  0  0  0  0  0  0
   -5.2320   -0.9260    0.3540 C   0  0  0  0  0  0  0  0  0  0  0  0
   -6.0940   -1.8510    0.1640 O   0  0  0  0  0  0  0  0  0  0  0  0
  2  1  1  1
  2  3  1  0
  2  4  1  0
  2 24  1  0
  4  5  1  0
  5  6  1  0
  6  7  1  6
  6 23  1  0
  7  8  2  0
  7  9  1  0
  9 10  1  0
 10 11  1  0
 11 12  2  0
 11 13  1  0
 13 14  1  0
 14 15  2  0
 14 16  1  0
 16 17  1  0
 17 18  2  0
 17 22  1  0
 18 19  1  0
 19 20  1  0
 20 21  1  0
 21 22  2  0
 23 24  1  0
 24 25  2  0
M  END
