
     RDKit          3D

 25 26  0  0  0  0  0  0  0  0999 V2000
   -3.4510    2.9970    2.8330 C   0  0  0  0  0  0  0  0  0  0  0  0
   -3.0330    2.2660    1.6900 O   0  0  0  0  0  0  0  0  0  0  0  0
   -1.9000    1.5140    1.6220 C   0  0  0  0  0  0  0  0  0  0  0  0
   -1.1810    1.4850    2.6820 O   0  0  0  0  0  0  0  0  0  0  0  0
   -1.4250    0.7490    0.4830 C   0  0  1  0  0  0  0  0  0  0  0  0
   -0.1750    0.0610    0.7210 N   0  0  0  0  0  0  0  0  0  0  0  0
    1.0020    0.3160   -0.0620 C   0  0  0  0  0  0  0  0  0  0  0  0
    0.8920    1.1500   -0.9450 O   0  0  0  0  0  0  0  0  0  0  0  0
    2.1840   -0.3780    0.2100 N   0  0  0  0  0  0  0  0  0  0  0  0
    3.4100   -0.2200   -0.4850 C   0  0  0  0  0  0  0  0  0  0  0  0
    3.5730    0.6190   -1.4880 C   0  0  0  0  0  0  0  0  0  0  0  0
    4.8430    0.8280   -2.2580 C   0  0  0  0  0  0  0  0  0  0  0  0
    5.8800    0.0270   -1.8050 O   0  0  0  0  0  0  0  0  0  0  0  0
    5.7600   -0.8640   -0.7620 C   0  0  0  0  0  0  0  0  0  0  0  0
    4.5830   -1.0090   -0.1020 C   0  0  0  0  0  0  0  0  0  0  0  0
    4.5930   -1.9720    0.9660 C   0  0  0  0  0  0  0  0  0  0  0  0
    3.6300   -2.2470    1.6800 O   0  0  0  0  0  0  0  0  0  0  0  0
    5.7730   -2.6880    1.2630 O   0  0  0  0  0  0  0  0  0  0  0  0
   -2.4900   -0.1680   -0.0360 C   0  0  2  0  0  0  0  0  0  0  0  0
   -1.9700   -1.0110   -1.2060 C   0  0  0  0  0  0  0  0  0  0  0  0
   -3.1280   -1.8500   -1.7250 C   0  0  0  0  0  0  0  0  0  0  0  0
   -4.0900   -0.9230   -2.4290 C   0  0  0  0  0  0  0  0  0  0  0  0
   -4.5650    0.0760   -1.4200 C   0  0  0  0  0  0  0  0  0  0  0  0
   -5.7680    0.4060   -1.3260 O   0  0  0  0  0  0  0  0  0  0  0  0
   -3.5940    0.6560   -0.5480 N   0  0  0  0  0  0  0  0  0  0  0  0
  1  2  1  0
  2  3  1  0
  3  4  2  0
  3  5  1  0
  5  6  1  1
  5 19  1  0
  6  7  1  0
  7  8  2  0
  7  9  1  0
  9 10  1  0
 10 11  2  0
 10 15  1  0
 11 12  1  0
 12 13  1  0
 13 14  1  0
 14 15  2  0
 15 16  1  0
 16 17  2  0
 16 18  1  0
 19 20  1  6
 19 25  1  0
 20 21  1  0
 21 22  1  0
 22 23  1  0
 23 24  2  0
 23 25  1  0
M  END
