
     RDKit          3D

 25 26  0  0  0  0  0  0  0  0999 V2000
   -3.4850   -4.1520    1.2320 C   0  0  0  0  0  0  0  0  0  0  0  0
   -3.4220   -2.6560    1.1330 C   0  0  0  0  0  0  0  0  0  0  0  0
   -4.1870   -1.9830    1.8760 O   0  0  0  0  0  0  0  0  0  0  0  0
   -2.5330   -2.0070    0.2340 N   0  0  0  0  0  0  0  0  0  0  0  0
   -2.5050   -0.5760    0.1710 C   0  0  1  0  0  0  0  0  0  0  0  0
   -1.1590   -0.0220    0.5200 C   0  0  0  0  0  0  0  0  0  0  0  0
   -0.3690   -0.6320    1.3340 N   0  0  0  0  0  0  0  0  0  0  0  0
    0.8410   -0.0940    1.6220 O   0  0  0  0  0  0  0  0  0  0  0  0
    1.9740   -0.3700    0.8250 C   0  0  0  0  0  0  0  0  0  0  0  0
    1.8280   -1.1200   -0.1470 O   0  0  0  0  0  0  0  0  0  0  0  0
    3.2250    0.1870    1.1240 N   0  0  0  0  0  0  0  0  0  0  0  0
    4.4300   -0.0010    0.4260 C   0  0  0  0  0  0  0  0  0  0  0  0
    5.5430    0.7660    0.7970 C   0  0  0  0  0  0  0  0  0  0  0  0
    6.7390    0.6220    0.1610 C   0  0  0  0  0  0  0  0  0  0  0  0
    6.8990   -0.2840   -0.8690 C   0  0  0  0  0  0  0  0  0  0  0  0
    5.8310   -1.0360   -1.2420 C   0  0  0  0  0  0  0  0  0  0  0  0
    4.6040   -0.8900   -0.5920 C   0  0  0  0  0  0  0  0  0  0  0  0
   -0.8080    1.1680   -0.0710 O   0  0  0  0  0  0  0  0  0  0  0  0
   -1.7170    2.0880   -0.6270 C   0  0  2  0  0  0  0  0  0  0  0  0
   -1.9980    3.1780    0.3860 C   0  0  0  0  0  0  0  0  0  0  0  0
   -2.9100    4.0640   -0.2250 O   0  0  0  0  0  0  0  0  0  0  0  0
   -3.0150    1.4510   -1.0480 C   0  0  1  0  0  0  0  0  0  0  0  0
   -3.5830    2.0290   -2.1570 O   0  0  0  0  0  0  0  0  0  0  0  0
   -2.8060   -0.0580   -1.2290 C   0  0  2  0  0  0  0  0  0  0  0  0
   -3.9690   -0.6260   -1.7330 O   0  0  0  0  0  0  0  0  0  0  0  0
  1  2  1  0
  2  3  2  0
  2  4  1  0
  5  4  1  6
  5  6  1  0
  5 24  1  0
  6  7  2  3
  6 18  1  0
  7  8  1  0
  8  9  1  0
  9 10  2  0
  9 11  1  0
 11 12  1  0
 12 13  2  0
 12 17  1  0
 13 14  1  0
 14 15  2  0
 15 16  1  0
 16 17  2  0
 18 19  1  0
 19 20  1  1
 19 22  1  0
 20 21  1  0
 22 23  1  6
 22 24  1  0
 24 25  1  1
M  END
