
     RDKit          3D

 25 26  0  0  0  0  0  0  0  0999 V2000
   -5.2460    0.1690   -0.5010 C   0  0  0  0  0  0  0  0  0  0  0  0
   -4.7870   -0.4280    0.8150 C   0  0  1  0  0  0  0  0  0  0  0  0
   -3.9870   -1.5470    0.5050 O   0  0  0  0  0  0  0  0  0  0  0  0
   -2.6950   -1.1420    0.2570 C   0  0  0  0  0  0  0  0  0  0  0  0
   -1.6500   -1.9320   -0.5200 C   0  0  1  0  0  0  0  0  0  0  0  0
   -2.1790   -2.1700   -1.9390 C   0  0  0  0  0  0  0  0  0  0  0  0
   -1.1900   -2.7800   -2.6650 O   0  0  0  0  0  0  0  0  0  0  0  0
   -0.4910   -1.0840   -0.6620 N   0  0  0  0  0  0  0  0  0  0  0  0
    0.8070   -1.4590   -0.2220 C   0  0  0  0  0  0  0  0  0  0  0  0
    0.9330   -2.5750    0.3080 O   0  0  0  0  0  0  0  0  0  0  0  0
    1.8920   -0.5180   -0.4210 C   0  0  0  0  0  0  0  0  0  0  0  0
    1.7270    0.5980   -0.9600 O   0  0  0  0  0  0  0  0  0  0  0  0
    3.1910   -0.8760    0.0110 N   0  0  0  0  0  0  0  0  0  0  0  0
    4.2540    0.0260   -0.1750 C   0  0  0  0  0  0  0  0  0  0  0  0
    4.9320    0.4800    0.8920 C   0  0  0  0  0  0  0  0  0  0  0  0
    6.0160    1.4090    0.6120 C   0  0  0  0  0  0  0  0  0  0  0  0
    6.4320    2.1830    1.4880 O   0  0  0  0  0  0  0  0  0  0  0  0
    6.6260    1.4300   -0.7300 C   0  0  0  0  0  0  0  0  0  0  0  0
    6.0890    0.4280   -1.5510 O   0  0  0  0  0  0  0  0  0  0  0  0
    4.7020    0.5350   -1.4950 C   0  0  0  0  0  0  0  0  0  0  0  0
   -2.5090    0.0400    0.8010 C   0  0  0  0  0  0  0  0  0  0  0  0
   -3.7430    0.4510    1.4480 C   0  0  0  0  0  0  0  0  0  0  0  0
   -3.8670    1.3760    2.3630 C   0  0  0  0  0  0  0  0  0  0  0  0
   -2.7360    2.0880    2.8180 N   0  0  0  0  0  0  0  0  0  0  0  0
   -2.3340    3.1920    2.1670 O   0  0  0  0  0  0  0  0  0  0  0  0
  2  1  1  6
  2  3  1  0
  2 22  1  0
  3  4  1  0
  4  5  1  0
  4 21  2  0
  5  6  1  6
  5  8  1  0
  6  7  1  0
  8  9  1  0
  9 10  2  0
  9 11  1  0
 11 12  2  0
 11 13  1  0
 13 14  1  0
 14 15  2  0
 14 20  1  0
 15 16  1  0
 16 17  2  0
 16 18  1  0
 18 19  1  0
 19 20  1  0
 21 22  1  0
 22 23  2  3
 23 24  1  0
 24 25  1  0
M  END
