
     RDKit          3D

 25 26  0  0  0  0  0  0  0  0999 V2000
   -5.1200    0.0680    1.5650 C   0  0  0  0  0  0  0  0  0  0  0  0
   -4.3200    0.8030    0.7470 O   0  0  0  0  0  0  0  0  0  0  0  0
   -3.1680    0.1270    0.2710 C   0  0  2  0  0  0  0  0  0  0  0  0
   -2.3000   -0.3290    1.3610 C   0  0  0  0  0  0  0  0  0  0  0  0
   -1.1110   -1.0370    1.1250 N   0  0  0  0  0  0  0  0  0  0  0  0
    0.0760   -0.6240    0.4950 C   0  0  0  0  0  0  0  0  0  0  0  0
    0.1980    0.5240    0.0800 O   0  0  0  0  0  0  0  0  0  0  0  0
    1.1950   -1.4970    0.3020 N   0  0  0  0  0  0  0  0  0  0  0  0
    2.3870   -1.0690   -0.3120 C   0  0  0  0  0  0  0  0  0  0  0  0
    2.7910   -1.5430   -1.4750 C   0  0  0  0  0  0  0  0  0  0  0  0
    4.0430   -1.0600   -2.0750 C   0  0  2  0  0  0  0  0  0  0  0  0
    4.5660   -1.9580   -3.0070 O   0  0  0  0  0  0  0  0  0  0  0  0
    5.0420   -0.7180   -1.0060 C   0  0  0  0  0  0  0  0  0  0  0  0
    4.4380    0.3170   -0.1950 O   0  0  0  0  0  0  0  0  0  0  0  0
    3.2150   -0.1040    0.3790 C   0  0  0  0  0  0  0  0  0  0  0  0
    2.8300    0.3740    1.5380 C   0  0  0  0  0  0  0  0  0  0  0  0
    3.6890    1.3470    2.2040 C   0  0  0  0  0  0  0  0  0  0  0  0
    3.3470    1.8220    3.3120 O   0  0  0  0  0  0  0  0  0  0  0  0
    4.8890    1.7820    1.6620 O   0  0  0  0  0  0  0  0  0  0  0  0
    5.7160    2.6870    2.2540 N   0  0  0  0  0  0  0  0  0  0  0  0
   -2.5260    1.1410   -0.6520 C   0  0  0  0  0  0  0  0  0  0  0  0
   -3.6740    1.7540   -1.5040 C   0  0  0  0  0  0  0  0  0  0  0  0
   -4.0910    0.6910   -2.3120 O   0  0  0  0  0  0  0  0  0  0  0  0
   -4.6620   -0.3280   -1.5770 C   0  0  0  0  0  0  0  0  0  0  0  0
   -3.6970   -0.9820   -0.6120 C   0  0  0  0  0  0  0  0  0  0  0  0
  1  2  1  0
  2  3  1  0
  3  4  1  1
  3 21  1  0
  3 25  1  0
  4  5  1  0
  5  6  1  0
  6  7  2  0
  6  8  1  0
  8  9  1  0
  9 10  2  0
  9 15  1  0
 10 11  1  0
 11 12  1  6
 11 13  1  0
 13 14  1  0
 14 15  1  0
 15 16  2  3
 16 17  1  0
 17 18  2  0
 17 19  1  0
 19 20  1  0
 21 22  1  0
 22 23  1  0
 23 24  1  0
 24 25  1  0
M  END
