
     RDKit          3D

 25 26  0  0  0  0  0  0  0  0999 V2000
    6.6670   -0.4870    1.6650 C   0  0  0  0  0  0  0  0  0  0  0  0
    6.6420   -0.9110    0.3510 O   0  0  0  0  0  0  0  0  0  0  0  0
    5.4200   -1.2160   -0.1690 C   0  0  0  0  0  0  0  0  0  0  0  0
    4.4620   -0.0460   -0.1680 C   0  0  2  0  0  0  0  0  0  0  0  0
    3.2310   -0.4610   -0.7440 N   0  0  0  0  0  0  0  0  0  0  0  0
    1.9730   -0.2670    0.0500 C   0  0  0  0  0  0  0  0  0  0  0  0
    2.1290    0.2280    1.1380 O   0  0  0  0  0  0  0  0  0  0  0  0
    0.9260   -0.7400   -0.7550 N   0  0  0  0  0  0  0  0  0  0  0  0
   -0.3130   -0.3240    0.3480 C   0  0  0  0  0  0  0  0  0  0  0  0
   -0.0220    0.2230    1.3340 O   0  0  0  0  0  0  0  0  0  0  0  0
   -1.6050   -0.7450   -0.1500 C   0  0  0  0  0  0  0  0  0  0  0  0
   -2.6590   -0.2050    0.7880 C   0  0  1  0  0  0  0  0  0  0  0  0
   -2.6860    1.2840    0.8510 C   0  0  0  0  0  0  0  0  0  0  0  0
   -3.7960    1.6390   -0.1560 C   0  0  0  0  0  0  0  0  0  0  0  0
   -4.7130    0.4820    0.0100 C   0  0  0  0  0  0  0  0  0  0  0  0
   -6.0210    0.4150   -0.2270 C   0  0  0  0  0  0  0  0  0  0  0  0
   -6.8370   -0.7270   -0.0440 O   0  0  0  0  0  0  0  0  0  0  0  0
   -8.1420   -0.4370   -0.3900 C   0  0  0  0  0  0  0  0  0  0  0  0
   -8.2280    0.8160   -0.7850 C   0  0  0  0  0  0  0  0  0  0  0  0
   -6.9130    1.4490   -0.7160 C   0  0  0  0  0  0  0  0  0  0  0  0
   -6.6330    2.6350   -1.0180 O   0  0  0  0  0  0  0  0  0  0  0  0
   -3.9640   -0.5840    0.4760 O   0  0  0  0  0  0  0  0  0  0  0  0
    5.0530    1.0050   -1.0770 C   0  0  0  0  0  0  0  0  0  0  0  0
    6.2520    1.6440   -0.7530 N   0  0  0  0  0  0  0  0  0  0  0  0
    4.4450    1.3080   -2.1500 O   0  0  0  0  0  0  0  0  0  0  0  0
  1  2  1  0
  2  3  1  0
  4  3  1  6
  4  5  1  0
  4 23  1  0
  5  6  1  0
  6  7  2  0
  6  8  1  0
  8  9  1  0
  9 10  2  0
  9 11  1  0
 12 11  1  6
 12 13  1  0
 12 22  1  0
 13 14  1  0
 14 15  1  0
 15 16  2  3
 15 22  1  0
 16 17  1  0
 16 20  1  0
 17 18  1  0
 18 19  2  0
 19 20  1  0
 20 21  2  0
 23 24  1  0
 23 25  2  0
M  END
