
     RDKit          3D

 14 14  0  0  0  0  0  0  0  0999 V2000
   -0.1120    1.7490   -0.5480 N   0  0  0  0  0  0  0  0  0  0  0  0
    0.0500    0.4710    0.1760 C   0  0  1  0  0  0  0  0  0  0  0  0
   -1.3220    0.2090    0.7780 C   0  0  0  0  0  0  0  0  0  0  0  0
   -2.3790    0.1010   -0.2970 C   0  0  0  0  0  0  0  0  0  0  0  0
   -3.7410   -0.1570    0.2550 C   0  0  0  0  0  0  0  0  0  0  0  0
   -3.8550   -1.3160    0.9780 O   0  0  0  0  0  0  0  0  0  0  0  0
    0.4640   -0.6070   -0.7610 C   0  0  0  0  0  0  0  0  0  0  0  0
    1.8030   -1.1680   -0.6500 C   0  0  1  0  0  0  0  0  0  0  0  0
    2.3230   -1.3820   -1.9540 O   0  0  0  0  0  0  0  0  0  0  0  0
    2.8400   -0.4140    0.1000 C   0  0  2  0  0  0  0  0  0  0  0  0
    3.7690   -1.2910    0.6900 O   0  0  0  0  0  0  0  0  0  0  0  0
    2.3210    0.4000    1.1700 N   0  0  0  0  0  0  0  0  0  0  0  0
    0.9690    0.7380    1.2760 C   0  0  0  0  0  0  0  0  0  0  0  0
    0.5700    1.2740    2.3390 O   0  0  0  0  0  0  0  0  0  0  0  0
  2  1  1  6
  2  3  1  0
  2  7  1  0
  2 13  1  0
  3  4  1  0
  4  5  1  0
  5  6  1  0
  7  8  1  0
  8  9  1  6
  8 10  1  0
 10 11  1  1
 10 12  1  0
 12 13  1  0
 13 14  2  0
M  CHG  1   1   1
M  END
