
     RDKit          3D

 11 11  0  0  0  0  0  0  0  0999 V2000
    4.0340    0.8660   -0.3980 C   0  0  0  0  0  0  0  0  0  0  0  0
    3.0790    0.2440    0.6050 C   0  0  0  0  0  0  0  0  0  0  0  0
    1.6380    0.3160    0.0750 C   0  0  0  0  0  0  0  0  0  0  0  0
    0.7630   -0.2740    1.0350 N   0  0  0  0  0  0  0  0  0  0  0  0
   -0.4650   -0.7660    0.5640 C   0  0  2  0  0  0  0  0  0  0  0  0
   -0.4450   -1.3260   -0.8310 C   0  0  0  0  0  0  0  0  0  0  0  0
   -1.9560   -1.5640   -1.0140 C   0  0  0  0  0  0  0  0  0  0  0  0
   -2.4260   -0.1530   -0.7240 C   0  0  0  0  0  0  0  0  0  0  0  0
   -1.6230    0.1730    0.5320 C   0  0  1  0  0  0  0  0  0  0  0  0
   -2.5860   -0.0530    1.6850 C   0  0  0  0  0  0  0  0  0  0  0  0
   -1.2740    1.6200    0.4630 C   0  0  0  0  0  0  0  0  0  0  0  0
  1  2  1  0
  2  3  1  0
  3  4  1  0
  5  4  1  6
  5  6  1  0
  5  9  1  0
  6  7  1  0
  7  8  1  0
  8  9  1  0
  9 10  1  1
  9 11  1  0
M  CHG  1   4   1
M  END
