
     RDKit          3D

 10 10  0  0  0  0  0  0  0  0999 V2000
   -2.7380    1.5400   -0.0080 C   0  0  0  0  0  0  0  0  0  0  0  0
   -2.2630    0.3840    0.8090 C   0  0  0  0  0  0  0  0  0  0  0  0
   -1.3630   -0.5600    0.0530 C   0  0  1  0  0  0  0  0  0  0  0  0
   -2.1170   -1.1190   -1.1350 C   0  0  0  0  0  0  0  0  0  0  0  0
   -0.1220    0.0380   -0.3450 N   0  0  0  0  0  0  0  0  0  0  0  0
    0.9610   -0.8100    0.0760 C   0  0  1  0  0  0  0  0  0  0  0  0
    2.1350   -0.7750   -0.8740 C   0  0  0  0  0  0  0  0  0  0  0  0
    2.7450    0.5720   -0.5650 C   0  0  0  0  0  0  0  0  0  0  0  0
    2.7480    0.5760    0.9450 C   0  0  0  0  0  0  0  0  0  0  0  0
    1.5980   -0.3320    1.3680 C   0  0  0  0  0  0  0  0  0  0  0  0
  1  2  1  0
  2  3  1  0
  3  4  1  6
  3  5  1  0
  6  5  1  6
  6  7  1  0
  6 10  1  0
  7  8  1  0
  8  9  1  0
  9 10  1  0
M  CHG  1   5   1
M  END
