
     RDKit          3D

 13 13  0  0  0  0  0  0  0  0999 V2000
   -1.9160    1.5210   -0.5330 N   0  0  0  0  0  0  0  0  0  0  0  0
   -2.0000    0.6010    0.5530 C   0  0  1  0  0  0  0  0  0  0  0  0
   -3.3990    0.4410    0.9060 N   0  0  0  0  0  0  0  0  0  0  0  0
   -1.4390   -0.7690    0.2060 C   0  0  0  0  0  0  0  0  0  0  0  0
    0.0220   -0.6610   -0.1810 C   0  0  2  0  0  0  0  0  0  0  0  0
    0.4930   -2.0630   -0.5080 C   0  0  0  0  0  0  0  0  0  0  0  0
    0.3820   -2.8840    0.5890 O   0  0  0  0  0  0  0  0  0  0  0  0
    0.7860   -0.2060    1.0350 C   0  0  0  0  0  0  0  0  0  0  0  0
    2.1530   -0.4360    0.9130 O   0  0  0  0  0  0  0  0  0  0  0  0
    2.8400    0.6330    0.3820 C   0  0  0  0  0  0  0  0  0  0  0  0
    2.0330    1.4680   -0.5670 C   0  0  0  0  0  0  0  0  0  0  0  0
    1.4060    0.5540   -1.5820 C   0  0  0  0  0  0  0  0  0  0  0  0
    0.1150    0.1890   -1.2460 O   0  0  0  0  0  0  0  0  0  0  0  0
  2  1  1  6
  2  3  1  0
  2  4  1  0
  5  4  1  1
  5  6  1  0
  5  8  1  0
  5 13  1  0
  6  7  1  0
  8  9  1  0
  9 10  1  0
 10 11  1  0
 11 12  1  0
 12 13  1  0
M  CHG  1   3   1
M  END
