
     RDKit          3D

 14 14  0  0  0  0  0  0  0  0999 V2000
   -2.1680   -0.4820    1.8810 C   0  0  0  0  0  0  0  0  0  0  0  0
   -0.9790   -0.6590    0.9820 C   0  0  2  0  0  0  0  0  0  0  0  0
    0.2390   -0.6980    1.7480 O   0  0  0  0  0  0  0  0  0  0  0  0
    1.2870    0.0290    1.1960 C   0  0  0  0  0  0  0  0  0  0  0  0
    2.1440    0.6460    1.9050 O   0  0  0  0  0  0  0  0  0  0  0  0
    1.4120    0.0860   -0.2910 C   0  0  1  0  0  0  0  0  0  0  0  0
    2.0040    1.4160   -0.7320 C   0  0  0  0  0  0  0  0  0  0  0  0
    2.3100   -1.0420   -0.6730 C   0  0  0  0  0  0  0  0  0  0  0  0
    3.6130   -1.0890   -0.1160 N   0  0  0  0  0  0  0  0  0  0  0  0
    1.9740   -1.9580   -1.4650 O   0  0  0  0  0  0  0  0  0  0  0  0
    0.1730   -0.0170   -0.9240 O   0  0  0  0  0  0  0  0  0  0  0  0
   -0.7870    0.4230   -0.0130 C   0  0  1  0  0  0  0  0  0  0  0  0
   -2.0370    0.8820   -0.7040 C   0  0  0  0  0  0  0  0  0  0  0  0
   -2.5510   -0.2760   -1.4520 N   0  0  0  0  0  0  0  0  0  0  0  0
  2  1  1  1
  2  3  1  0
  2 12  1  0
  3  4  1  0
  4  5  2  0
  4  6  1  0
  6  7  1  1
  6  8  1  0
  6 11  1  0
  8  9  1  0
  8 10  2  0
 11 12  1  0
 12 13  1  6
 13 14  1  0
M  CHG  1  14   1
M  END
