
     RDKit          3D

 14 15  0  0  0  0  0  0  0  0999 V2000
   -1.5110    1.7790   -0.1230 N   0  0  0  0  0  0  0  0  0  0  0  0
   -1.6050    0.4120    0.3480 C   0  0  1  0  0  0  0  0  0  0  0  0
   -2.1260   -0.4420   -0.7600 C   0  0  0  0  0  0  0  0  0  0  0  0
   -1.8910   -1.9010   -0.5500 C   0  0  0  0  0  0  0  0  0  0  0  0
   -0.6960   -2.1990    0.0730 O   0  0  0  0  0  0  0  0  0  0  0  0
   -0.5460   -1.5600    1.2910 C   0  0  0  0  0  0  0  0  0  0  0  0
   -0.3690   -0.0820    1.0070 C   0  0  2  0  0  0  0  0  0  0  0  0
   -0.2260    0.5470    2.2410 O   0  0  0  0  0  0  0  0  0  0  0  0
    0.8880    0.0960    0.2370 C   0  0  1  0  0  0  0  0  0  0  0  0
    0.8650   -0.5180   -1.0740 N   0  0  0  0  0  0  0  0  0  0  0  0
    2.1460   -0.8630   -1.3620 O   0  0  0  0  0  0  0  0  0  0  0  0
    3.0580    0.0720   -0.9010 C   0  0  0  0  0  0  0  0  0  0  0  0
    2.4670    1.4190   -0.6410 C   0  0  0  0  0  0  0  0  0  0  0  0
    1.2920    1.4050    0.0720 O   0  0  0  0  0  0  0  0  0  0  0  0
  2  1  1  6
  2  3  1  0
  2  7  1  0
  3  4  1  0
  4  5  1  0
  5  6  1  0
  6  7  1  0
  7  8  1  1
  7  9  1  0
  9 10  1  6
  9 14  1  0
 10 11  1  0
 11 12  1  0
 12 13  1  0
 13 14  1  0
M  CHG  1   1   1
M  END
