
     RDKit          3D

 26 29  0  0  0  0  0  0  0  0999 V2000
   -1.7050    3.2350    3.2510 C   0  0  0  0  0  0  0  0  0  0  0  0
   -1.7700    2.2770    2.1220 C   0  0  0  0  0  0  0  0  0  0  0  0
   -2.9590    1.9800    1.5180 C   0  0  0  0  0  0  0  0  0  0  0  0
   -3.0770    1.1000    0.4670 C   0  0  0  0  0  0  0  0  0  0  0  0
   -1.9120    0.4790    0.0000 C   0  0  0  0  0  0  0  0  0  0  0  0
   -2.0010   -0.3820   -1.1110 N   0  0  0  0  0  0  0  0  0  0  0  0
   -3.2630   -0.8820   -1.5380 C   0  0  0  0  0  0  0  0  0  0  0  0
   -3.5740   -0.9690   -2.8880 C   0  0  0  0  0  0  0  0  0  0  0  0
   -4.7680   -1.4960   -3.2920 C   0  0  0  0  0  0  0  0  0  0  0  0
   -5.6820   -1.9500   -2.3720 C   0  0  0  0  0  0  0  0  0  0  0  0
   -5.3550   -1.8540   -1.0610 N   0  0  0  0  0  0  0  0  0  0  0  0
   -4.1880   -1.3400   -0.6380 C   0  0  0  0  0  0  0  0  0  0  0  0
   -0.7120    0.7890    0.6220 C   0  0  0  0  0  0  0  0  0  0  0  0
    0.5120    0.1740    0.1970 N   0  0  0  0  0  0  0  0  0  0  0  0
    1.7380    0.5100    0.8220 C   0  0  0  0  0  0  0  0  0  0  0  0
    2.9070   -0.2040    0.2720 C   0  0  0  0  0  0  0  0  0  0  0  0
    2.9010   -1.1210   -0.7450 C   0  0  0  0  0  0  0  0  0  0  0  0
    4.0880   -1.7320   -1.1770 C   0  0  0  0  0  0  0  0  0  0  0  0
    5.3040   -1.4450   -0.6080 C   0  0  0  0  0  0  0  0  0  0  0  0
    6.5040   -2.0720   -1.0540 N   0  0  0  0  0  0  0  0  0  0  0  0
    5.2860   -0.5440    0.3870 N   0  0  0  0  0  0  0  0  0  0  0  0
    6.3040   -0.0700    1.1230 N   0  0  0  0  0  0  0  0  0  0  0  0
    5.8080    0.8050    1.9900 N   0  0  0  0  0  0  0  0  0  0  0  0
    4.4960    0.9030    1.8270 N   0  0  0  0  0  0  0  0  0  0  0  0
    4.1790    0.0570    0.8240 C   0  0  0  0  0  0  0  0  0  0  0  0
   -0.6180    1.6750    1.6730 C   0  0  0  0  0  0  0  0  0  0  0  0
  1  2  1  0
  2  3  2  0
  2 26  1  0
  3  4  1  0
  4  5  2  0
  5  6  1  0
  5 13  1  0
  6  7  1  0
  7  8  2  0
  7 12  1  0
  8  9  1  0
  9 10  2  0
 10 11  1  0
 11 12  2  0
 13 14  1  0
 13 26  2  0
 14 15  1  0
 15 16  1  0
 16 17  2  0
 16 25  1  0
 17 18  1  0
 18 19  2  0
 19 20  1  0
 19 21  1  0
 21 22  1  0
 21 25  1  0
 22 23  2  0
 23 24  1  0
 24 25  2  0
M  END
