
     RDKit          3D

 26 29  0  0  0  0  0  0  0  0999 V2000
   -4.2230   -2.5490    1.0600 C   0  0  0  0  0  0  0  0  0  0  0  0
   -4.5010   -1.9210   -0.2540 C   0  0  0  0  0  0  0  0  0  0  0  0
   -3.2970   -1.6610   -1.1180 C   0  0  0  0  0  0  0  0  0  0  0  0
   -2.3290   -0.7730   -0.5210 N   0  0  0  0  0  0  0  0  0  0  0  0
   -2.4070    0.5220   -0.6170 N   0  0  0  0  0  0  0  0  0  0  0  0
   -1.3870    1.1500    0.0470 C   0  0  0  0  0  0  0  0  0  0  0  0
   -1.2860    2.6110    0.1050 C   0  0  0  0  0  0  0  0  0  0  0  0
   -0.5010    3.3930    0.7980 C   0  0  0  0  0  0  0  0  0  0  0  0
   -0.7570    4.8440    0.5300 C   0  0  0  0  0  0  0  0  0  0  0  0
   -1.8460    4.7670   -0.4580 C   0  0  0  0  0  0  0  0  0  0  0  0
   -2.1470    3.5110   -0.7000 C   0  0  0  0  0  0  0  0  0  0  0  0
   -0.6130    0.1720    0.5920 C   0  0  0  0  0  0  0  0  0  0  0  0
    0.6560    0.2100    1.3360 C   0  0  0  0  0  0  0  0  0  0  0  0
    1.8650    0.1730    0.5410 N   0  0  0  0  0  0  0  0  0  0  0  0
    2.6250    1.0860   -0.0530 C   0  0  0  0  0  0  0  0  0  0  0  0
    2.3690    2.4840   -0.0500 N   0  0  0  0  0  0  0  0  0  0  0  0
    3.7120    0.5110   -0.6690 N   0  0  0  0  0  0  0  0  0  0  0  0
    3.6470   -0.7810   -0.4670 C   0  0  0  0  0  0  0  0  0  0  0  0
    4.4940   -1.8030   -0.8630 C   0  0  0  0  0  0  0  0  0  0  0  0
    5.7220   -1.6020   -1.6680 C   0  0  0  0  0  0  0  0  0  0  0  0
    4.1690   -3.0510   -0.4900 N   0  0  0  0  0  0  0  0  0  0  0  0
    3.0500   -3.3010    0.2510 C   0  0  0  0  0  0  0  0  0  0  0  0
    2.2670   -2.2830    0.6070 N   0  0  0  0  0  0  0  0  0  0  0  0
    2.5140   -1.0200    0.2800 C   0  0  0  0  0  0  0  0  0  0  0  0
   -1.2420   -1.0330    0.2140 C   0  0  0  0  0  0  0  0  0  0  0  0
   -0.8050   -2.3190    0.5470 N   0  0  0  0  0  0  0  0  0  0  0  0
  1  2  1  0
  2  3  1  0
  3  4  1  0
  4  5  1  0
  4 25  1  0
  5  6  2  0
  6  7  1  0
  6 12  1  0
  7  8  2  0
  7 11  1  0
  8  9  1  0
  9 10  1  0
 10 11  2  0
 12 13  1  0
 12 25  2  0
 13 14  1  0
 14 15  1  0
 14 24  1  0
 15 16  1  0
 15 17  2  0
 17 18  1  0
 18 19  2  0
 18 24  1  0
 19 20  1  0
 19 21  1  0
 21 22  2  0
 22 23  1  0
 23 24  2  0
 25 26  1  0
M  END
