
     RDKit          3D

 26 29  0  0  0  0  0  0  0  0999 V2000
    6.5100   -1.8470   -2.1180 C   0  0  0  0  0  0  0  0  0  0  0  0
    6.1040   -0.6660   -1.2990 C   0  0  0  0  0  0  0  0  0  0  0  0
    7.0000    0.2550   -0.8330 C   0  0  0  0  0  0  0  0  0  0  0  0
    6.5440    1.3190   -0.0840 C   0  0  0  0  0  0  0  0  0  0  0  0
    5.2370    1.4490    0.1850 N   0  0  0  0  0  0  0  0  0  0  0  0
    4.3790    0.5210   -0.2910 C   0  0  0  0  0  0  0  0  0  0  0  0
    2.9420    0.6150   -0.0270 C   0  0  0  0  0  0  0  0  0  0  0  0
    2.1000   -0.3440   -0.5260 C   0  0  0  0  0  0  0  0  0  0  0  0
    0.7410   -0.2100   -0.2480 C   0  0  0  0  0  0  0  0  0  0  0  0
    0.2120    0.8220    0.4920 C   0  0  0  0  0  0  0  0  0  0  0  0
   -1.1530    0.9630    0.7750 N   0  0  0  0  0  0  0  0  0  0  0  0
   -2.1820    0.0850    0.3560 C   0  0  0  0  0  0  0  0  0  0  0  0
   -2.1470   -1.0350   -0.3710 N   0  0  0  0  0  0  0  0  0  0  0  0
   -3.3640   -1.5290   -0.5170 N   0  0  0  0  0  0  0  0  0  0  0  0
   -4.2420   -0.7280    0.1230 C   0  0  0  0  0  0  0  0  0  0  0  0
   -5.6940   -0.9210    0.2040 C   0  0  0  0  0  0  0  0  0  0  0  0
   -6.4610   -0.0090    0.9000 C   0  0  0  0  0  0  0  0  0  0  0  0
   -7.8340   -0.1310    1.0140 C   0  0  0  0  0  0  0  0  0  0  0  0
   -8.4210   -1.1810    0.4210 N   0  0  0  0  0  0  0  0  0  0  0  0
   -7.6970   -2.0850   -0.2630 C   0  0  0  0  0  0  0  0  0  0  0  0
   -6.3250   -1.9760   -0.3870 C   0  0  0  0  0  0  0  0  0  0  0  0
   -3.5040    0.2550    0.6520 N   0  0  0  0  0  0  0  0  0  0  0  0
    1.1110    1.7610    0.9690 C   0  0  0  0  0  0  0  0  0  0  0  0
    0.6900    2.8800    1.7490 N   0  0  0  0  0  0  0  0  0  0  0  0
    2.4610    1.6690    0.7190 C   0  0  0  0  0  0  0  0  0  0  0  0
    4.8180   -0.5160   -1.0210 N   0  0  0  0  0  0  0  0  0  0  0  0
  1  2  1  0
  2  3  2  0
  2 26  1  0
  3  4  1  0
  4  5  2  0
  5  6  1  0
  6  7  1  0
  6 26  2  0
  7  8  2  0
  7 25  1  0
  8  9  1  0
  9 10  2  0
 10 11  1  0
 10 23  1  0
 11 12  1  0
 12 13  2  0
 12 22  1  0
 13 14  1  0
 14 15  2  0
 15 16  1  0
 15 22  1  0
 16 17  2  0
 16 21  1  0
 17 18  1  0
 18 19  2  0
 19 20  1  0
 20 21  2  0
 23 24  1  0
 23 25  2  0
M  END
