
     RDKit          3D

 26 29  0  0  0  0  0  0  0  0999 V2000
    5.6460    1.3130   -3.3530 C   0  0  0  0  0  0  0  0  0  0  0  0
    4.6290    0.8230   -2.3900 C   0  0  0  0  0  0  0  0  0  0  0  0
    4.8580    0.7290   -1.0300 C   0  0  0  0  0  0  0  0  0  0  0  0
    3.8910    0.2680   -0.1540 C   0  0  0  0  0  0  0  0  0  0  0  0
    2.6580   -0.1080   -0.6640 C   0  0  0  0  0  0  0  0  0  0  0  0
    1.6410   -0.5870    0.2260 N   0  0  0  0  0  0  0  0  0  0  0  0
    0.5410    0.0900    0.5950 C   0  0  0  0  0  0  0  0  0  0  0  0
   -0.1880   -0.6990    1.4550 C   0  0  0  0  0  0  0  0  0  0  0  0
   -1.4470   -0.3710    2.1000 N   0  0  0  0  0  0  0  0  0  0  0  0
   -2.0770    0.8760    1.8840 C   0  0  0  0  0  0  0  0  0  0  0  0
   -2.8640    1.0940    0.6790 C   0  0  0  0  0  0  0  0  0  0  0  0
   -3.3860    2.3840    0.4320 C   0  0  0  0  0  0  0  0  0  0  0  0
   -3.0760    3.4710    1.3880 C   0  0  0  0  0  0  0  0  0  0  0  0
   -4.1390    2.6240   -0.6480 N   0  0  0  0  0  0  0  0  0  0  0  0
   -4.4310    1.6880   -1.5220 N   0  0  0  0  0  0  0  0  0  0  0  0
   -3.9720    0.4400   -1.3520 C   0  0  0  0  0  0  0  0  0  0  0  0
   -4.1720   -0.6720   -2.1140 N   0  0  0  0  0  0  0  0  0  0  0  0
   -3.5370   -1.6930   -1.5310 C   0  0  0  0  0  0  0  0  0  0  0  0
   -2.9230   -1.1970   -0.3700 C   0  0  0  0  0  0  0  0  0  0  0  0
   -3.1950    0.1490   -0.2580 C   0  0  0  0  0  0  0  0  0  0  0  0
    0.4940   -1.8670    1.5990 C   0  0  0  0  0  0  0  0  0  0  0  0
    0.1460   -3.0710    2.4200 C   0  0  0  0  0  0  0  0  0  0  0  0
    1.1660   -4.0880    2.2730 N   0  0  0  0  0  0  0  0  0  0  0  0
    1.6020   -1.7610    0.8350 N   0  0  0  0  0  0  0  0  0  0  0  0
    2.4410   -0.0120   -2.0040 C   0  0  0  0  0  0  0  0  0  0  0  0
    3.4020    0.4400   -2.8300 N   0  0  0  0  0  0  0  0  0  0  0  0
  1  2  1  0
  2  3  2  0
  2 26  1  0
  3  4  1  0
  4  5  2  0
  5  6  1  0
  5 25  1  0
  6  7  1  0
  6 24  1  0
  7  8  2  0
  8  9  1  0
  8 21  1  0
  9 10  1  0
 10 11  1  0
 11 12  2  0
 11 20  1  0
 12 13  1  0
 12 14  1  0
 14 15  2  0
 15 16  1  0
 16 17  1  0
 16 20  2  0
 17 18  1  0
 18 19  2  0
 19 20  1  0
 21 22  1  0
 21 24  2  0
 22 23  1  0
 25 26  2  0
M  END
