
     RDKit          3D

 26 29  0  0  0  0  0  0  0  0999 V2000
   -7.4310   -1.3780   -1.7890 C   0  0  0  0  0  0  0  0  0  0  0  0
   -7.7790    0.0140   -1.3190 C   0  0  0  0  0  0  0  0  0  0  0  0
   -7.2180    0.3220   -0.0370 N   0  0  0  0  0  0  0  0  0  0  0  0
   -5.8170    0.3480    0.2170 C   0  0  0  0  0  0  0  0  0  0  0  0
   -4.8870    0.1210   -0.7810 C   0  0  0  0  0  0  0  0  0  0  0  0
   -3.5220    0.1460   -0.5190 C   0  0  0  0  0  0  0  0  0  0  0  0
   -3.0460    0.4000    0.7470 C   0  0  0  0  0  0  0  0  0  0  0  0
   -1.5960    0.4180    0.9800 C   0  0  0  0  0  0  0  0  0  0  0  0
   -0.6470    0.2060    0.0620 N   0  0  0  0  0  0  0  0  0  0  0  0
    0.5760    0.2950    0.6110 C   0  0  0  0  0  0  0  0  0  0  0  0
    1.8670    0.1300   -0.0460 C   0  0  0  0  0  0  0  0  0  0  0  0
    1.8850   -0.1510   -1.3940 C   0  0  0  0  0  0  0  0  0  0  0  0
    3.1000   -0.3140   -2.0510 C   0  0  0  0  0  0  0  0  0  0  0  0
    4.2920   -0.1880   -1.3240 C   0  0  0  0  0  0  0  0  0  0  0  0
    4.2840    0.0920    0.0180 C   0  0  0  0  0  0  0  0  0  0  0  0
    5.4810    0.2140    0.7500 N   0  0  0  0  0  0  0  0  0  0  0  0
    6.7670   -0.0120    0.1950 C   0  0  0  0  0  0  0  0  0  0  0  0
    7.0450   -0.9530   -0.6370 N   0  0  0  0  0  0  0  0  0  0  0  0
    8.4480   -0.9010   -1.0040 C   0  0  0  0  0  0  0  0  0  0  0  0
    8.9220    0.4010   -0.5660 N   0  0  0  0  0  0  0  0  0  0  0  0
    7.9740    0.7130    0.4260 N   0  0  0  0  0  0  0  0  0  0  0  0
    3.0620    0.2470    0.6360 C   0  0  0  0  0  0  0  0  0  0  0  0
    0.3450    0.5720    1.9190 N   0  0  0  0  0  0  0  0  0  0  0  0
   -0.9560    0.6440    2.1330 N   0  0  0  0  0  0  0  0  0  0  0  0
   -3.9520    0.6270    1.7470 C   0  0  0  0  0  0  0  0  0  0  0  0
   -5.3020    0.5990    1.4710 C   0  0  0  0  0  0  0  0  0  0  0  0
  1  2  1  0
  2  3  1  0
  3  4  1  0
  4  5  2  0
  4 26  1  0
  5  6  1  0
  6  7  2  0
  7  8  1  0
  7 25  1  0
  8  9  2  0
  8 24  1  0
  9 10  1  0
 10 11  1  0
 10 23  2  0
 11 12  2  0
 11 22  1  0
 12 13  1  0
 13 14  2  0
 14 15  1  0
 15 16  1  0
 15 22  2  0
 16 17  1  0
 17 18  2  0
 17 21  1  0
 18 19  1  0
 19 20  1  0
 20 21  1  0
 23 24  1  0
 25 26  2  0
M  END
