
     RDKit          3D

 26 29  0  0  0  0  0  0  0  0999 V2000
   -2.4340   -4.2460    0.0400 C   0  0  0  0  0  0  0  0  0  0  0  0
   -3.2630   -3.1710    0.1240 C   0  0  0  0  0  0  0  0  0  0  0  0
   -2.7050   -1.8920   -0.0030 C   0  0  0  0  0  0  0  0  0  0  0  0
   -1.3760   -1.6930   -0.2040 C   0  0  0  0  0  0  0  0  0  0  0  0
   -0.7440   -0.3810   -0.3430 C   0  0  0  0  0  0  0  0  0  0  0  0
   -1.4960    0.7620   -0.2730 C   0  0  0  0  0  0  0  0  0  0  0  0
   -0.8280    1.9760   -0.4130 C   0  0  0  0  0  0  0  0  0  0  0  0
   -1.5150    3.0640   -0.3510 N   0  0  0  0  0  0  0  0  0  0  0  0
   -2.9160    3.0420   -0.1460 C   0  0  0  0  0  0  0  0  0  0  0  0
   -3.5990    2.6570    0.9890 C   0  0  0  0  0  0  0  0  0  0  0  0
   -4.9580    2.7990    0.7370 C   0  0  0  0  0  0  0  0  0  0  0  0
   -5.0990    3.2540   -0.5050 N   0  0  0  0  0  0  0  0  0  0  0  0
   -3.8790    3.4120   -1.0650 C   0  0  0  0  0  0  0  0  0  0  0  0
    0.5000    1.9810   -0.6070 N   0  0  0  0  0  0  0  0  0  0  0  0
    1.2460    0.8430   -0.6760 C   0  0  0  0  0  0  0  0  0  0  0  0
    2.6410    0.8810   -0.8810 N   0  0  0  0  0  0  0  0  0  0  0  0
    3.3570   -0.3050   -0.9440 N   0  0  0  0  0  0  0  0  0  0  0  0
    4.5000   -0.4210   -0.0930 C   0  0  0  0  0  0  0  0  0  0  0  0
    4.4280   -0.9290    1.1880 C   0  0  0  0  0  0  0  0  0  0  0  0
    5.5260   -1.0310    1.9810 N   0  0  0  0  0  0  0  0  0  0  0  0
    6.7290   -0.6330    1.5320 C   0  0  0  0  0  0  0  0  0  0  0  0
    6.8110   -0.1190    0.2420 C   0  0  0  0  0  0  0  0  0  0  0  0
    5.7090   -0.0270   -0.5260 N   0  0  0  0  0  0  0  0  0  0  0  0
    0.6070   -0.3280   -0.5420 N   0  0  0  0  0  0  0  0  0  0  0  0
   -0.5430   -2.8170   -0.2860 C   0  0  0  0  0  0  0  0  0  0  0  0
   -1.0850   -4.0590   -0.1630 C   0  0  0  0  0  0  0  0  0  0  0  0
  1  2  2  0
  1 26  1  0
  2  3  1  0
  3  4  2  0
  4  5  1  0
  4 25  1  0
  5  6  2  0
  5 24  1  0
  6  7  1  0
  7  8  2  3
  7 14  1  0
  8  9  1  0
  9 10  1  0
  9 13  2  0
 10 11  2  0
 11 12  1  0
 12 13  1  0
 14 15  1  0
 15 16  1  0
 15 24  2  0
 16 17  1  0
 17 18  1  0
 18 19  2  0
 18 23  1  0
 19 20  1  0
 20 21  2  0
 21 22  1  0
 22 23  2  0
 25 26  2  0
M  END
