
     RDKit          3D

 26 29  0  0  0  0  0  0  0  0999 V2000
   -2.4600    3.0730    3.3020 C   0  0  0  0  0  0  0  0  0  0  0  0
   -1.9590    2.4000    2.2850 C   0  0  0  0  0  0  0  0  0  0  0  0
   -2.0220    1.0070    2.0110 N   0  0  0  0  0  0  0  0  0  0  0  0
   -1.4060    0.7120    0.9100 C   0  0  0  0  0  0  0  0  0  0  0  0
   -1.2950   -0.6360    0.3510 C   0  0  0  0  0  0  0  0  0  0  0  0
   -2.4500   -1.3900    0.1640 C   0  0  0  0  0  0  0  0  0  0  0  0
   -3.7930   -1.0430    0.4730 N   0  0  0  0  0  0  0  0  0  0  0  0
   -4.8970   -1.9440    0.2210 C   0  0  0  0  0  0  0  0  0  0  0  0
   -4.9260   -2.2570   -1.2420 C   0  0  0  0  0  0  0  0  0  0  0  0
   -2.0420   -2.5220   -0.3770 N   0  0  0  0  0  0  0  0  0  0  0  0
   -0.7030   -2.5070   -0.5310 N   0  0  0  0  0  0  0  0  0  0  0  0
   -0.1780   -1.3550   -0.0930 C   0  0  0  0  0  0  0  0  0  0  0  0
    1.1770   -0.8300   -0.0950 C   0  0  0  0  0  0  0  0  0  0  0  0
    1.5300    0.1500    0.8610 C   0  0  0  0  0  0  0  0  0  0  0  0
    2.7180    0.7650    0.8740 N   0  0  0  0  0  0  0  0  0  0  0  0
    3.5930    0.4110   -0.0790 C   0  0  0  0  0  0  0  0  0  0  0  0
    4.9240    1.0940   -0.0720 C   0  0  1  0  0  0  0  0  0  0  0  0
    5.0080    2.5050    0.4530 C   0  0  0  0  0  0  0  0  0  0  0  0
    5.5580    1.3860    1.2620 C   0  0  0  0  0  0  0  0  0  0  0  0
    3.2930   -0.5080   -0.9920 N   0  0  0  0  0  0  0  0  0  0  0  0
    2.0840   -1.1690   -1.0480 C   0  0  0  0  0  0  0  0  0  0  0  0
    1.8320   -2.1820   -2.0690 C   0  0  0  0  0  0  0  0  0  0  0  0
    0.8470   -1.7990   -3.1150 C   0  0  0  0  0  0  0  0  0  0  0  0
   -0.8590    1.8960    0.3200 N   0  0  0  0  0  0  0  0  0  0  0  0
   -1.2010    2.9680    1.1790 C   0  0  0  0  0  0  0  0  0  0  0  0
   -0.9260    4.2100    1.0600 N   0  0  0  0  0  0  0  0  0  0  0  0
  1  2  2  0
  2  3  1  0
  2 25  1  0
  3  4  2  0
  4  5  1  0
  4 24  1  0
  5  6  1  0
  5 12  2  0
  6  7  1  0
  6 10  2  0
  7  8  1  0
  8  9  1  0
 10 11  1  0
 11 12  1  0
 12 13  1  0
 13 14  2  0
 13 21  1  0
 14 15  1  0
 15 16  2  0
 17 16  1  1
 16 20  1  0
 17 18  1  0
 17 19  1  0
 18 19  1  0
 20 21  2  0
 21 22  1  0
 22 23  1  0
 24 25  1  0
 25 26  2  0
M  END
