
     RDKit          3D

 27 26  0  0  0  0  0  0  0  0999 V2000
   -8.1670   -0.2710    0.4900 C   0  0  0  0  0  0  0  0  0  0  0  0
   -6.7940    0.3550    0.4460 C   0  0  2  0  0  0  0  0  0  0  0  0
   -6.6520    1.2580    1.5090 O   0  0  0  0  0  0  0  0  0  0  0  0
   -6.4640    1.0080   -0.8490 C   0  0  0  0  0  0  0  0  0  0  0  0
   -6.6630    0.0210   -1.9170 N   0  0  0  0  0  0  0  0  0  0  0  0
   -5.7960   -0.7590    0.7070 C   0  0  2  0  0  0  0  0  0  0  0  0
   -6.1290   -1.3930    2.0720 C   0  0  0  0  0  0  0  0  0  0  0  0
   -5.1970   -2.4150    2.3270 O   0  0  0  0  0  0  0  0  0  0  0  0
   -4.4940   -0.2550    0.8300 N   0  0  0  0  0  0  0  0  0  0  0  0
   -3.3270   -0.6910    0.0080 C   0  0  0  0  0  0  0  0  0  0  0  0
   -3.5550   -1.5280   -0.8220 O   0  0  0  0  0  0  0  0  0  0  0  0
   -2.1870    0.0380    0.4470 N   0  0  0  0  0  0  0  0  0  0  0  0
   -0.9940   -0.9370   -0.3710 C   0  0  0  0  0  0  0  0  0  0  0  0
   -1.4830   -1.7360   -1.0590 O   0  0  0  0  0  0  0  0  0  0  0  0
    0.3520   -0.5600   -0.0020 C   0  0  0  0  0  0  0  0  0  0  0  0
    0.5850    0.6670    0.5380 O   0  0  0  0  0  0  0  0  0  0  0  0
    1.8470    0.7510    1.0770 C   0  0  0  0  0  0  0  0  0  0  0  0
    2.8900    0.2930    0.0930 C   0  0  0  0  0  0  0  0  0  0  0  0
    4.1580    0.3810    0.6180 O   0  0  0  0  0  0  0  0  0  0  0  0
    4.7410    1.5810    0.8120 C   0  0  0  0  0  0  0  0  0  0  0  0
    5.0160    2.1550   -0.5860 C   0  0  0  0  0  0  0  0  0  0  0  0
    5.8310    1.2730   -1.2590 O   0  0  0  0  0  0  0  0  0  0  0  0
    7.0330    1.0910   -0.6320 C   0  0  0  0  0  0  0  0  0  0  0  0
    7.8810    0.0950   -1.4110 C   0  0  2  0  0  0  0  0  0  0  0  0
    8.0820    0.4600   -2.7030 O   0  0  0  0  0  0  0  0  0  0  0  0
    7.3030   -1.2630   -1.2770 C   0  0  0  0  0  0  0  0  0  0  0  0
    6.0480   -1.4870   -1.8970 N   0  0  0  0  0  0  0  0  0  0  0  0
  2  1  1  6
  2  3  1  0
  2  4  1  0
  2  6  1  0
  4  5  1  0
  6  7  1  1
  6  9  1  0
  7  8  1  0
  9 10  1  0
 10 11  2  0
 10 12  1  0
 12 13  1  0
 13 14  2  0
 13 15  1  0
 15 16  1  0
 16 17  1  0
 17 18  1  0
 18 19  1  0
 19 20  1  0
 20 21  1  0
 21 22  1  0
 22 23  1  0
 23 24  1  0
 24 25  1  6
 24 26  1  0
 26 27  1  0
M  CHG  1  27   1
M  END
