
     RDKit          3D

 27 26  0  0  0  0  0  0  0  0999 V2000
   -4.5640   -3.2870   -0.7970 C   0  0  0  0  0  0  0  0  0  0  0  0
   -3.2950   -2.5660   -1.0040 C   0  0  0  0  0  0  0  0  0  0  0  0
   -3.1090   -1.2660   -0.3330 C   0  0  2  0  0  0  0  0  0  0  0  0
   -1.8440   -0.7800   -0.6240 O   0  0  0  0  0  0  0  0  0  0  0  0
   -1.2720    0.4480   -0.3480 C   0  0  0  0  0  0  0  0  0  0  0  0
   -1.9750    1.2310    0.3040 O   0  0  0  0  0  0  0  0  0  0  0  0
    0.0750    0.7880   -0.7850 C   0  0  2  0  0  0  0  0  0  0  0  0
   -0.0440    0.6400   -2.3700 C   0  0  0  0  0  0  0  0  0  0  0  0
    1.1510   -0.0380   -0.4500 N   0  0  0  0  0  0  0  0  0  0  0  0
    1.7280   -0.5710    0.7050 C   0  0  0  0  0  0  0  0  0  0  0  0
    1.3080   -0.3220    1.8150 O   0  0  0  0  0  0  0  0  0  0  0  0
    2.8070   -1.4120    0.5700 O   0  0  0  0  0  0  0  0  0  0  0  0
    3.5800   -2.0800    1.4890 C   0  0  0  0  0  0  0  0  0  0  0  0
    4.5370   -2.9410    0.6830 C   0  0  0  0  0  0  0  0  0  0  0  0
    5.6530   -3.6150    1.1700 N   0  0  0  0  0  0  0  0  0  0  0  0
    4.3040   -3.0520   -0.5390 O   0  0  0  0  0  0  0  0  0  0  0  0
    0.3600    2.3070   -0.6990 C   0  0  2  0  0  0  0  0  0  0  0  0
   -0.4360    3.0850   -1.6990 C   0  0  0  0  0  0  0  0  0  0  0  0
    1.8140    2.5420   -0.7720 C   0  0  0  0  0  0  0  0  0  0  0  0
    2.3350    3.7840   -0.6820 O   0  0  0  0  0  0  0  0  0  0  0  0
    2.1660    4.4920    0.4820 C   0  0  0  0  0  0  0  0  0  0  0  0
   -0.1540    2.7770    0.6700 C   0  0  0  0  0  0  0  0  0  0  0  0
   -1.2230    3.7140    0.7230 N   0  0  0  0  0  0  0  0  0  0  0  0
    0.3390    2.3550    1.7290 O   0  0  0  0  0  0  0  0  0  0  0  0
   -3.0200   -1.6440    1.2380 C   0  0  0  0  0  0  0  0  0  0  0  0
   -4.1870   -1.9670    1.9240 N   0  0  0  0  0  0  0  0  0  0  0  0
   -1.9370   -1.6050    1.6990 O   0  0  0  0  0  0  0  0  0  0  0  0
  1  2  1  0
  3  2  1  6
  3  4  1  0
  3 25  1  0
  4  5  1  0
  5  6  2  0
  5  7  1  0
  7  8  1  6
  7  9  1  0
  7 17  1  0
  9 10  1  0
 10 11  2  0
 10 12  1  0
 12 13  1  0
 13 14  1  0
 14 15  1  0
 14 16  2  0
 17 18  1  6
 17 19  1  0
 17 22  1  0
 19 20  1  0
 20 21  1  0
 22 23  1  0
 22 24  2  0
 25 26  1  0
 25 27  2  0
M  CHG  2  15   1  26   1
M  END
