
     RDKit          3D

 26 25  0  0  0  0  0  0  0  0999 V2000
   -0.7570   -4.5050    0.4880 C   0  0  0  0  0  0  0  0  0  0  0  0
    0.1830   -3.7920   -0.4680 C   0  0  2  0  0  0  0  0  0  0  0  0
    0.0560   -2.4210   -0.3880 O   0  0  0  0  0  0  0  0  0  0  0  0
    1.2430   -1.8540    0.0660 C   0  0  0  0  0  0  0  0  0  0  0  0
    1.0940   -0.3400    0.1510 C   0  0  1  0  0  0  0  0  0  0  0  0
    0.0510    0.0420    1.1710 C   0  0  0  0  0  0  0  0  0  0  0  0
   -1.2390   -0.4060    0.8020 O   0  0  0  0  0  0  0  0  0  0  0  0
   -2.3130   -0.1420    1.6230 C   0  0  0  0  0  0  0  0  0  0  0  0
   -2.2310   -0.3860    2.9040 C   0  0  0  0  0  0  0  0  0  0  0  0
   -3.3150   -0.1160    3.7150 O   0  0  0  0  0  0  0  0  0  0  0  0
   -3.5660    0.4250    1.0350 C   0  0  0  0  0  0  0  0  0  0  0  0
   -4.6140    0.6630    1.9530 N   0  0  0  0  0  0  0  0  0  0  0  0
   -3.6150    0.6540   -0.2330 C   0  0  0  0  0  0  0  0  0  0  0  0
   -4.7130    1.1940   -1.0110 C   0  0  0  0  0  0  0  0  0  0  0  0
   -5.8840    1.5060   -0.2470 N   0  0  0  0  0  0  0  0  0  0  0  0
    2.3360    0.1550    0.6180 O   0  0  0  0  0  0  0  0  0  0  0  0
    3.0560    1.0820   -0.1580 C   0  0  0  0  0  0  0  0  0  0  0  0
    2.6150    1.4820   -1.2680 O   0  0  0  0  0  0  0  0  0  0  0  0
    4.3060    1.6020    0.2760 N   0  0  0  0  0  0  0  0  0  0  0  0
    5.0900    2.5470   -0.4660 C   0  0  0  0  0  0  0  0  0  0  0  0
    4.3590    3.8450   -0.7170 C   0  0  0  0  0  0  0  0  0  0  0  0
    5.2590    4.7990   -1.5110 C   0  0  0  0  0  0  0  0  0  0  0  0
    5.6080    4.2370   -2.7340 O   0  0  0  0  0  0  0  0  0  0  0  0
   -0.0260   -4.3020   -1.8450 C   0  0  0  0  0  0  0  0  0  0  0  0
    0.0720   -5.6950   -2.0980 N   0  0  0  0  0  0  0  0  0  0  0  0
   -0.2850   -3.5340   -2.7830 O   0  0  0  0  0  0  0  0  0  0  0  0
  2  1  1  1
  2  3  1  0
  2 24  1  0
  3  4  1  0
  5  4  1  1
  5  6  1  0
  5 16  1  0
  6  7  1  0
  7  8  1  0
  8  9  2  3
  8 11  1  0
  9 10  1  0
 11 12  1  0
 11 13  2  3
 13 14  1  0
 14 15  1  0
 16 17  1  0
 17 18  2  0
 17 19  1  0
 19 20  1  0
 20 21  1  0
 21 22  1  0
 22 23  1  0
 24 25  1  0
 24 26  2  0
M  CHG  1  15   1
M  END
