
     RDKit          3D

 13 14  0  0  0  0  0  0  0  0999 V2000
    3.9240    0.0730   -0.6920 N   0  0  0  0  0  0  0  0  0  0  0  0
    3.1360    0.0590    0.8340 S   0  0  2  0  0  0  0  0  0  0  0  0
    3.4770    1.2590    1.6690 O   0  0  0  0  0  0  0  0  0  0  0  0
    3.5090   -1.1840    1.5670 O   0  0  0  0  0  0  0  0  0  0  0  0
    1.4180    0.1450    0.4850 C   0  0  0  0  0  0  0  0  0  0  0  0
    0.5120    0.8290    0.3150 N   0  0  0  0  0  0  0  0  0  0  0  0
   -0.7420    0.5360    0.0520 C   0  0  0  0  0  0  0  0  0  0  0  0
   -1.8180    1.4120   -0.1490 C   0  0  0  0  0  0  0  0  0  0  0  0
   -3.0660    0.9040   -0.4150 C   0  0  0  0  0  0  0  0  0  0  0  0
   -3.3620   -0.4330   -0.5050 C   0  0  0  0  0  0  0  0  0  0  0  0
   -2.3030   -1.3010   -0.3080 C   0  0  0  0  0  0  0  0  0  0  0  0
   -1.0180   -0.7820   -0.0330 C   0  0  0  0  0  0  0  0  0  0  0  0
    0.5430   -1.5390    0.2690 S   0  0  0  0  0  0  0  0  0  0  0  0
  2  1  1  6
  2  3  2  0
  2  4  2  0
  2  5  1  0
  5  6  2  0
  5 13  1  0
  6  7  1  0
  7  8  2  0
  7 12  1  0
  8  9  1  0
  9 10  2  0
 10 11  1  0
 11 12  2  0
 12 13  1  0
M  END
