
     RDKit          3D

 27 26  0  0  0  0  0  0  0  0999 V2000
    0.1130    0.2550    1.6610 C   0  0  0  0  0  0  0  0  0  0  0  0
   -0.3550    0.8140    0.3320 C   0  0  2  0  0  0  0  0  0  0  0  0
   -1.2820   -0.0240   -0.3480 N   0  0  0  0  0  0  0  0  0  0  0  0
   -2.5440   -0.4050    0.2010 C   0  0  0  0  0  0  0  0  0  0  0  0
   -2.8210    0.0410    1.3500 O   0  0  0  0  0  0  0  0  0  0  0  0
   -3.4420   -1.2480   -0.5170 N   0  0  0  0  0  0  0  0  0  0  0  0
   -4.6990   -1.6050    0.0720 C   0  0  2  0  0  0  0  0  0  0  0  0
   -4.8160   -3.0970    0.3010 C   0  0  0  0  0  0  0  0  0  0  0  0
   -6.1050   -3.3670    0.8940 N   0  0  0  0  0  0  0  0  0  0  0  0
   -5.8050   -1.1040   -0.8380 C   0  0  0  0  0  0  0  0  0  0  0  0
   -5.6690   -1.6950   -2.0740 O   0  0  0  0  0  0  0  0  0  0  0  0
    0.7400    1.0510   -0.4940 O   0  0  0  0  0  0  0  0  0  0  0  0
    1.4760   -0.0740   -0.7640 C   0  0  0  0  0  0  0  0  0  0  0  0
    2.6290    0.3660   -1.6760 C   0  0  0  0  0  0  0  0  0  0  0  0
    3.4210    1.3080   -1.0690 O   0  0  0  0  0  0  0  0  0  0  0  0
    4.0150    0.9020    0.0970 C   0  0  0  0  0  0  0  0  0  0  0  0
    4.9210   -0.2970   -0.0800 C   0  0  0  0  0  0  0  0  0  0  0  0
    5.4490   -0.5980    1.1640 O   0  0  0  0  0  0  0  0  0  0  0  0
    6.3010   -1.6740    1.1830 C   0  0  0  0  0  0  0  0  0  0  0  0
    7.5140   -1.5240    0.3030 C   0  0  0  0  0  0  0  0  0  0  0  0
    8.2740   -2.7050    0.4390 O   0  0  0  0  0  0  0  0  0  0  0  0
   -0.9270    2.2000    0.6520 C   0  0  1  0  0  0  0  0  0  0  0  0
    0.1370    2.8600    1.3150 O   0  0  0  0  0  0  0  0  0  0  0  0
   -1.1490    2.9540   -0.6340 C   0  0  0  0  0  0  0  0  0  0  0  0
   -1.6970    4.2900   -0.3970 C   0  0  0  0  0  0  0  0  0  0  0  0
   -1.9990    4.8420    0.8660 N   0  0  0  0  0  0  0  0  0  0  0  0
   -1.9140    4.9950   -1.3920 O   0  0  0  0  0  0  0  0  0  0  0  0
  2  1  1  1
  2  3  1  0
  2 12  1  0
  2 22  1  0
  3  4  1  0
  4  5  2  0
  4  6  1  0
  6  7  1  0
  7  8  1  6
  7 10  1  0
  8  9  1  0
 10 11  1  0
 12 13  1  0
 13 14  1  0
 14 15  1  0
 15 16  1  0
 16 17  1  0
 17 18  1  0
 18 19  1  0
 19 20  1  0
 20 21  1  0
 22 23  1  1
 22 24  1  0
 24 25  1  0
 25 26  1  0
 25 27  2  0
M  CHG  2   9   1  26   1
M  END
