
     RDKit          3D

 27 26  0  0  0  0  0  0  0  0999 V2000
   -2.4220   -0.3200    2.2420 C   0  0  0  0  0  0  0  0  0  0  0  0
   -2.0630   -0.4500    0.8010 C   0  0  1  0  0  0  0  0  0  0  0  0
   -1.3220    0.7390    0.4280 N   0  0  0  0  0  0  0  0  0  0  0  0
   -0.1220    0.9850    1.1940 C   0  0  0  0  0  0  0  0  0  0  0  0
    0.2480    0.2140    2.1240 O   0  0  0  0  0  0  0  0  0  0  0  0
    0.6810    2.0810    0.9440 O   0  0  0  0  0  0  0  0  0  0  0  0
    1.8680    2.3940    1.6440 C   0  0  0  0  0  0  0  0  0  0  0  0
    2.9290    1.3360    1.5500 C   0  0  0  0  0  0  0  0  0  0  0  0
    3.3530    1.0770    0.1220 C   0  0  0  0  0  0  0  0  0  0  0  0
    4.3340    0.0910    0.1000 O   0  0  0  0  0  0  0  0  0  0  0  0
    4.7340   -0.1600   -1.2120 C   0  0  0  0  0  0  0  0  0  0  0  0
    5.7930   -1.2240   -1.2460 C   0  0  0  0  0  0  0  0  0  0  0  0
    6.9430   -0.8730   -0.5230 O   0  0  0  0  0  0  0  0  0  0  0  0
    7.6830    0.2520   -0.8570 C   0  0  0  0  0  0  0  0  0  0  0  0
    8.8470    0.6110   -0.1280 N   0  0  0  0  0  0  0  0  0  0  0  0
    7.3660    1.0100   -1.8170 O   0  0  0  0  0  0  0  0  0  0  0  0
   -1.1460   -1.5920    0.5850 C   0  0  0  0  0  0  0  0  0  0  0  0
   -1.4810   -2.9270    0.9340 N   0  0  0  0  0  0  0  0  0  0  0  0
   -0.0030   -1.3720    0.0670 O   0  0  0  0  0  0  0  0  0  0  0  0
   -3.2850   -0.6460   -0.0820 C   0  0  2  0  0  0  0  0  0  0  0  0
   -3.9560   -1.9140    0.4040 C   0  0  0  0  0  0  0  0  0  0  0  0
   -2.8190   -0.9250   -1.4930 C   0  0  0  0  0  0  0  0  0  0  0  0
   -2.0670    0.0570   -2.0710 O   0  0  0  0  0  0  0  0  0  0  0  0
   -4.2430    0.4740    0.0620 C   0  0  1  0  0  0  0  0  0  0  0  0
   -3.7430    1.7340   -0.2730 O   0  0  0  0  0  0  0  0  0  0  0  0
   -5.5700    0.3530   -0.5960 C   0  0  0  0  0  0  0  0  0  0  0  0
   -5.5460    0.4660   -2.0430 N   0  0  0  0  0  0  0  0  0  0  0  0
  2  1  1  1
  2  3  1  0
  2 17  1  0
  2 20  1  0
  3  4  1  0
  4  5  2  0
  4  6  1  0
  6  7  1  0
  7  8  1  0
  8  9  1  0
  9 10  1  0
 10 11  1  0
 11 12  1  0
 12 13  1  0
 13 14  1  0
 14 15  1  0
 14 16  2  0
 17 18  1  0
 17 19  2  0
 20 21  1  1
 20 22  1  0
 20 24  1  0
 22 23  1  0
 24 25  1  6
 24 26  1  0
 26 27  1  0
M  CHG  1  27   1
M  END
