
     RDKit          3D

  9  9  0  0  0  0  0  0  0  0999 V2000
    2.2900   -0.5370    1.4080 O   0  0  0  0  0  0  0  0  0  0  0  0
    2.3820    0.0490    0.3020 C   0  0  0  0  0  0  0  0  0  0  0  0
    3.3590    0.9850    0.1010 O   0  0  0  0  0  0  0  0  0  0  0  0
    1.4750   -0.2630   -0.7500 N   0  0  0  0  0  0  0  0  0  0  0  0
    0.2370   -1.4500   -0.5130 S   0  0  0  0  0  0  0  0  0  0  0  0
   -1.2590   -0.8800    0.2340 C   0  0  2  0  0  0  0  0  0  0  0  0
   -2.1630    0.0360   -0.5420 C   0  0  0  0  0  0  0  0  0  0  0  0
   -1.8120    1.1560    0.1610 O   0  0  0  0  0  0  0  0  0  0  0  0
   -1.1620    0.3660    1.0900 C   0  0  0  0  0  0  0  0  0  0  0  0
  1  2  2  0
  2  3  1  0
  2  4  1  0
  4  5  1  0
  6  5  1  6
  6  7  1  0
  6  9  1  0
  7  8  1  0
  8  9  1  0
M  END
