
     RDKit          3D

  9  8  0  0  0  0  0  0  0  0999 V2000
    3.0240    0.4780   -0.1690 C   0  0  0  0  0  0  0  0  0  0  0  0
    1.6630    0.1470   -0.4340 O   0  0  0  0  0  0  0  0  0  0  0  0
    0.7920   -0.0390    0.6190 C   0  0  0  0  0  0  0  0  0  0  0  0
    1.1700    0.0760    1.8120 O   0  0  0  0  0  0  0  0  0  0  0  0
   -0.6030   -0.3790    0.2910 C   0  0  0  0  0  0  0  0  0  0  0  0
   -1.5030   -0.5720    1.3720 N   0  0  0  0  0  0  0  0  0  0  0  0
   -1.0020   -0.5000   -0.9610 C   0  0  0  0  0  0  0  0  0  0  0  0
   -2.7100   -0.9150   -1.2660 S   0  0  0  0  0  0  0  0  0  0  0  0
   -3.6990    0.4450   -0.9800 O   0  0  0  0  0  0  0  0  0  0  0  0
  1  2  1  0
  2  3  1  0
  3  4  2  0
  3  5  1  0
  5  6  1  0
  5  7  2  3
  7  8  1  0
  8  9  1  0
M  END
