
     RDKit          3D

  9  8  0  0  0  0  0  0  0  0999 V2000
    3.0380    0.4980    0.2810 C   0  0  0  0  0  0  0  0  0  0  0  0
    1.3320    0.2340    0.8070 S   0  0  0  0  0  0  0  0  0  0  0  0
    0.4290   -0.6390   -0.4600 C   0  0  0  0  0  0  0  0  0  0  0  0
    1.0920   -1.0020   -1.6480 O   0  0  0  0  0  0  0  0  0  0  0  0
   -0.7940   -0.9650   -0.3690 N   0  0  0  0  0  0  0  0  0  0  0  0
   -1.6740   -0.7130    0.7230 C   0  0  0  0  0  0  0  0  0  0  0  0
   -2.4910    0.4890    0.4130 C   0  0  0  0  0  0  0  0  0  0  0  0
   -3.3560    0.9410    1.2070 O   0  0  0  0  0  0  0  0  0  0  0  0
   -2.3330    1.1760   -0.7830 O   0  0  0  0  0  0  0  0  0  0  0  0
  1  2  1  0
  2  3  1  0
  3  4  1  0
  3  5  2  3
  5  6  1  0
  6  7  1  0
  7  8  2  0
  7  9  1  0
M  END
