
     RDKit          3D

  9  8  0  0  0  0  0  0  0  0999 V2000
   -3.3750    0.8530   -0.1610 C   0  0  0  0  0  0  0  0  0  0  0  0
   -1.9940    1.0210   -0.4570 O   0  0  0  0  0  0  0  0  0  0  0  0
   -1.0570    0.0150   -0.1890 C   0  0  0  0  0  0  0  0  0  0  0  0
   -1.5210   -1.0370    0.3280 O   0  0  0  0  0  0  0  0  0  0  0  0
    0.2760    0.1510   -0.4640 O   0  0  0  0  0  0  0  0  0  0  0  0
    1.1800   -0.9230   -0.1620 C   0  0  0  0  0  0  0  0  0  0  0  0
    2.5600   -0.5920   -0.5270 C   0  0  0  0  0  0  0  0  0  0  0  0
    3.1650    0.5360    0.0920 N   0  0  0  0  0  0  0  0  0  0  0  0
    3.3260   -1.5310   -1.6180 S   0  0  0  0  0  0  0  0  0  0  0  0
  1  2  1  0
  2  3  1  0
  3  4  2  0
  3  5  1  0
  5  6  1  0
  6  7  1  0
  7  8  1  0
  7  9  2  0
M  END
