
     RDKit          3D

  8  8  0  0  0  0  0  0  0  0999 V2000
    1.7670    0.1940   -1.8550 O   0  0  0  0  0  0  0  0  0  0  0  0
    1.9200   -0.0340   -0.6100 C   0  0  0  0  0  0  0  0  0  0  0  0
    3.2110   -0.2050   -0.1120 O   0  0  0  0  0  0  0  0  0  0  0  0
    0.7600   -0.0970    0.1870 N   0  0  0  0  0  0  0  0  0  0  0  0
   -0.5880    0.0850   -0.3470 C   0  0  1  0  0  0  0  0  0  0  0  0
   -1.5220   -0.9780    0.1920 C   0  0  0  0  0  0  0  0  0  0  0  0
   -2.5000    0.0090    0.3190 O   0  0  0  0  0  0  0  0  0  0  0  0
   -1.4820    0.9230    0.5330 C   0  0  0  0  0  0  0  0  0  0  0  0
  1  2  2  0
  2  3  1  0
  2  4  1  0
  5  4  1  1
  5  6  1  0
  5  8  1  0
  6  7  1  0
  7  8  1  0
M  END
