
     RDKit          3D

  9  9  0  0  0  0  0  0  0  0999 V2000
   -2.4340    0.0270    0.9920 N   0  0  0  0  0  0  0  0  0  0  0  0
   -1.6760   -0.2340   -0.5560 S   0  0  1  0  0  0  0  0  0  0  0  0
   -1.9690   -1.5760   -1.1060 O   0  0  0  0  0  0  0  0  0  0  0  0
   -2.1420    0.8800   -1.4500 O   0  0  0  0  0  0  0  0  0  0  0  0
    0.0470    0.0170   -0.2820 C   0  0  0  0  0  0  0  0  0  0  0  0
    1.0730   -0.8830   -0.4720 C   0  0  0  0  0  0  0  0  0  0  0  0
    2.2260   -0.2220   -0.1230 C   0  0  0  0  0  0  0  0  0  0  0  0
    1.8280    1.0430    0.2590 C   0  0  0  0  0  0  0  0  0  0  0  0
    0.5170    1.1620    0.1550 O   0  0  0  0  0  0  0  0  0  0  0  0
  2  1  1  1
  2  3  2  0
  2  4  2  0
  2  5  1  0
  5  6  2  0
  5  9  1  0
  6  7  1  0
  7  8  2  0
  8  9  1  0
M  END
