
     RDKit          3D

  8  8  0  0  0  0  0  0  0  0999 V2000
    2.3140   -0.6700    0.2860 N   0  0  0  0  0  0  0  0  0  0  0  0
    1.4780    0.4450    0.1040 C   0  0  0  0  0  0  0  0  0  0  0  0
    1.9330    1.6100    0.1710 O   0  0  0  0  0  0  0  0  0  0  0  0
    0.0650    0.2620   -0.1640 C   0  0  0  0  0  0  0  0  0  0  0  0
   -0.8420    1.2130   -0.3560 C   0  0  0  0  0  0  0  0  0  0  0  0
   -2.0850    0.6480   -0.5850 O   0  0  0  0  0  0  0  0  0  0  0  0
   -1.9980   -0.6660   -0.0360 C   0  0  0  0  0  0  0  0  0  0  0  0
   -0.6280   -0.9600   -0.2760 O   0  0  0  0  0  0  0  0  0  0  0  0
  1  2  1  0
  2  3  2  0
  2  4  1  0
  4  5  2  0
  4  8  1  0
  5  6  1  0
  6  7  1  0
  7  8  1  0
M  END
