
     RDKit          3D

  9  9  0  0  0  0  0  0  0  0999 V2000
    3.4150   -0.7100   -0.1620 O   0  0  0  0  0  0  0  0  0  0  0  0
    2.2060   -0.4370   -0.1410 C   0  0  0  0  0  0  0  0  0  0  0  0
    1.6020    0.8050   -0.0200 N   0  0  0  0  0  0  0  0  0  0  0  0
    0.2100    0.8210   -0.0270 C   0  0  0  0  0  0  0  0  0  0  0  0
   -0.4960    1.8870    0.0770 O   0  0  0  0  0  0  0  0  0  0  0  0
   -0.4440   -0.4570   -0.1590 C   0  0  0  0  0  0  0  0  0  0  0  0
   -1.7170   -0.7960   -0.2010 C   0  0  0  0  0  0  0  0  0  0  0  0
   -2.7480    0.1290   -0.1140 O   0  0  0  0  0  0  0  0  0  0  0  0
    0.8970   -1.6400   -0.2700 S   0  0  0  0  0  0  0  0  0  0  0  0
  1  2  2  0
  2  3  1  0
  2  9  1  0
  3  4  1  0
  4  5  2  0
  4  6  1  0
  6  7  2  3
  6  9  1  0
  7  8  1  0
M  END
