
     RDKit          3D

  9  9  0  0  0  0  0  0  0  0999 V2000
    2.4750    0.1530   -0.8500 O   0  0  0  0  0  0  0  0  0  0  0  0
    1.7590   -0.2660    0.2040 N   0  0  0  0  0  0  0  0  0  0  0  0
    0.3420   -0.2430    0.0870 C   0  0  0  0  0  0  0  0  0  0  0  0
   -0.2680    0.8970   -0.2170 C   0  0  0  0  0  0  0  0  0  0  0  0
    0.4870    2.0460   -0.4140 O   0  0  0  0  0  0  0  0  0  0  0  0
   -1.7200    0.8690   -0.3250 C   0  0  0  0  0  0  0  0  0  0  0  0
   -2.4240   -0.2010   -0.1420 N   0  0  0  0  0  0  0  0  0  0  0  0
   -1.8330   -1.4290    0.1800 N   0  0  0  0  0  0  0  0  0  0  0  0
   -0.4370   -1.4250    0.2900 N   0  0  0  0  0  0  0  0  0  0  0  0
  1  2  1  0
  2  3  1  0
  3  4  2  0
  3  9  1  0
  4  5  1  0
  4  6  1  0
  6  7  2  0
  7  8  1  0
  8  9  1  0
M  END
