
     RDKit          3D

  9  9  0  0  0  0  0  0  0  0999 V2000
   -1.7480    0.9550    1.3430 O   0  0  0  0  0  0  0  0  0  0  0  0
   -2.2320    0.3620    0.0510 S   0  0  2  0  0  0  0  0  0  0  0  0
   -3.4970   -0.4190    0.2360 O   0  0  0  0  0  0  0  0  0  0  0  0
   -0.9810   -0.6540   -0.5600 N   0  0  0  0  0  0  0  0  0  0  0  0
    0.3670   -0.3970   -0.1840 C   0  0  0  0  0  0  0  0  0  0  0  0
    1.2870   -1.3290    0.2140 C   0  0  0  0  0  0  0  0  0  0  0  0
    2.4240   -0.6780    0.4750 N   0  0  0  0  0  0  0  0  0  0  0  0
    2.3070    0.6180    0.2740 N   0  0  0  0  0  0  0  0  0  0  0  0
    1.0400    0.8200   -0.1370 C   0  0  0  0  0  0  0  0  0  0  0  0
  1  2  2  0
  2  3  2  0
  2  4  1  1
  4  5  1  0
  5  6  1  0
  5  9  2  0
  6  7  2  0
  7  8  1  0
  8  9  1  0
M  END
