
     RDKit          3D

  9  9  0  0  0  0  0  0  0  0999 V2000
   -2.0330   -1.6460   -0.0140 O   0  0  0  0  0  0  0  0  0  0  0  0
   -1.0550   -0.8450   -0.0080 C   0  0  0  0  0  0  0  0  0  0  0  0
   -1.3120    0.4750   -0.0540 N   0  0  0  0  0  0  0  0  0  0  0  0
   -0.2730    1.3480   -0.0470 C   0  0  0  0  0  0  0  0  0  0  0  0
   -0.5080    2.5740   -0.0900 O   0  0  0  0  0  0  0  0  0  0  0  0
    0.9950    0.8700    0.0050 N   0  0  0  0  0  0  0  0  0  0  0  0
    1.2650   -0.4450    0.0510 C   0  0  0  0  0  0  0  0  0  0  0  0
    2.7840   -1.0450    0.1150 S   0  0  0  0  0  0  0  0  0  0  0  0
    0.2280   -1.3020    0.0450 N   0  0  0  0  0  0  0  0  0  0  0  0
  1  2  2  0
  2  3  1  0
  2  9  1  0
  3  4  1  0
  4  5  2  0
  4  6  1  0
  6  7  1  0
  7  8  2  0
  7  9  1  0
M  END
