
     RDKit          3D

  9  9  0  0  0  0  0  0  0  0999 V2000
    2.6970   -0.0630    0.1680 C   0  0  0  0  0  0  0  0  0  0  0  0
    1.5060   -0.1860   -1.2190 S   0  0  0  0  0  0  0  0  0  0  0  0
   -0.1450   -0.0510   -0.5590 N   0  0  0  0  0  0  0  0  0  0  0  0
   -0.8590   -1.0030    0.0150 N   0  0  0  0  0  0  0  0  0  0  0  0
   -2.0690   -0.5580    0.4000 C   0  0  0  0  0  0  0  0  0  0  0  0
   -2.9610   -1.2440    0.9730 O   0  0  0  0  0  0  0  0  0  0  0  0
   -2.0930    0.7410    0.0410 N   0  0  0  0  0  0  0  0  0  0  0  0
   -0.9210    1.0460   -0.5430 C   0  0  0  0  0  0  0  0  0  0  0  0
   -0.6180    2.1760   -0.9930 O   0  0  0  0  0  0  0  0  0  0  0  0
  1  2  1  0
  2  3  1  0
  3  4  1  0
  3  8  1  0
  4  5  1  0
  5  6  2  0
  5  7  1  0
  7  8  1  0
  8  9  2  0
M  END
