
     RDKit          3D

  9  9  0  0  0  0  0  0  0  0999 V2000
    2.5640    0.3170   -0.1500 N   0  0  0  0  0  0  0  0  0  0  0  0
    1.1130    0.2600   -0.1110 C   0  0  0  0  0  0  0  0  0  0  0  0
    0.4040    1.2730   -0.3930 N   0  0  0  0  0  0  0  0  0  0  0  0
   -0.9640    1.3980   -0.4070 N   0  0  0  0  0  0  0  0  0  0  0  0
   -1.9230    0.0370    0.0010 S   0  0  1  0  0  0  0  0  0  0  0  0
   -2.6760    0.3770    1.2820 O   0  0  0  0  0  0  0  0  0  0  0  0
   -2.8800   -0.3350   -1.0860 O   0  0  0  0  0  0  0  0  0  0  0  0
   -0.7920   -1.2390    0.3520 C   0  0  0  0  0  0  0  0  0  0  0  0
    0.4940   -0.9960    0.2610 C   0  0  0  0  0  0  0  0  0  0  0  0
  1  2  1  0
  2  3  2  0
  2  9  1  0
  3  4  1  0
  5  4  1  6
  5  6  2  0
  5  7  2  0
  5  8  1  0
  8  9  2  0
M  END
