
     RDKit          3D

  9  9  0  0  0  0  0  0  0  0999 V2000
   -2.8130    0.5660    0.1600 O   0  0  0  0  0  0  0  0  0  0  0  0
   -1.5640    0.4040    0.0300 C   0  0  0  0  0  0  0  0  0  0  0  0
   -0.7300    1.4300   -0.2220 N   0  0  0  0  0  0  0  0  0  0  0  0
    0.5500    1.1780   -0.3420 N   0  0  0  0  0  0  0  0  0  0  0  0
    1.0970   -0.0490   -0.2310 C   0  0  0  0  0  0  0  0  0  0  0  0
    2.8760   -0.3060   -0.4120 S   0  0  0  0  0  0  0  0  0  0  0  0
    0.2850   -1.0890    0.0200 N   0  0  0  0  0  0  0  0  0  0  0  0
   -1.0360   -0.8740    0.1510 C   0  0  0  0  0  0  0  0  0  0  0  0
   -1.7840   -1.8500    0.3840 O   0  0  0  0  0  0  0  0  0  0  0  0
  1  2  2  0
  2  3  1  0
  2  8  1  0
  3  4  1  0
  4  5  2  0
  5  6  1  0
  5  7  1  0
  7  8  1  0
  8  9  2  0
M  END
