
     RDKit          3D

  9  9  0  0  0  0  0  0  0  0999 V2000
    2.5960   -0.2270    0.0200 N   0  0  0  0  0  0  0  0  0  0  0  0
    1.1590   -0.1640    0.0100 C   0  0  0  0  0  0  0  0  0  0  0  0
    0.5200    0.9980   -0.0780 N   0  0  0  0  0  0  0  0  0  0  0  0
   -0.8020    1.1850   -0.0960 C   0  0  0  0  0  0  0  0  0  0  0  0
   -1.2330    2.3930   -0.1870 O   0  0  0  0  0  0  0  0  0  0  0  0
   -1.7570    0.1990   -0.0270 C   0  0  0  0  0  0  0  0  0  0  0  0
   -2.9900    0.5580   -0.0580 O   0  0  0  0  0  0  0  0  0  0  0  0
   -1.5090   -1.1200    0.0720 N   0  0  0  0  0  0  0  0  0  0  0  0
    0.1260   -1.5150    0.1070 S   0  0  0  0  0  0  0  0  0  0  0  0
  1  2  1  0
  2  3  2  0
  2  9  1  0
  3  4  1  0
  4  5  2  0
  4  6  1  0
  6  7  2  0
  6  8  1  0
  8  9  1  0
M  END
