
     RDKit          3D

  9  9  0  0  0  0  0  0  0  0999 V2000
    3.0200   -1.1570    0.4610 O   0  0  0  0  0  0  0  0  0  0  0  0
    1.9250   -0.5720    0.1840 C   0  0  0  0  0  0  0  0  0  0  0  0
    1.7800    0.6830   -0.2860 N   0  0  0  0  0  0  0  0  0  0  0  0
    0.4680    0.9330   -0.4520 C   0  0  0  0  0  0  0  0  0  0  0  0
   -0.1510    2.3430   -1.0060 S   0  0  0  0  0  0  0  0  0  0  0  0
   -0.2190   -0.1650   -0.0860 N   0  0  0  0  0  0  0  0  0  0  0  0
   -1.6790   -0.3070   -0.1160 C   0  0  0  0  0  0  0  0  0  0  0  0
   -2.2420    0.0920    1.0890 O   0  0  0  0  0  0  0  0  0  0  0  0
    0.6720   -1.0510    0.2900 N   0  0  0  0  0  0  0  0  0  0  0  0
  1  2  2  0
  2  3  1  0
  2  9  1  0
  3  4  1  0
  4  5  2  0
  4  6  1  0
  6  7  1  0
  6  9  1  0
  7  8  1  0
M  END
