
     RDKit          3D

 13 13  0  0  0  0  0  0  0  0999 V2000
   -2.9180    2.0190   -0.9350 O   0  0  0  0  0  0  0  0  0  0  0  0
   -1.9350    1.4620   -0.4070 C   0  0  0  0  0  0  0  0  0  0  0  0
   -1.8900    1.4320    0.9780 O   0  0  0  0  0  0  0  0  0  0  0  0
   -0.8860    0.8750   -1.2480 C   0  0  0  0  0  0  0  0  0  0  0  0
    0.0040   -0.0460   -0.6380 N   0  0  0  0  0  0  0  0  0  0  0  0
   -0.3970   -1.3680   -0.2720 C   0  0  0  0  0  0  0  0  0  0  0  0
   -1.3770   -1.5110    0.8300 C   0  0  0  0  0  0  0  0  0  0  0  0
   -1.6400   -2.8920    1.0500 O   0  0  0  0  0  0  0  0  0  0  0  0
    1.3440    0.3410   -0.3650 C   0  0  0  0  0  0  0  0  0  0  0  0
    2.1340   -0.1780    0.5880 C   0  0  0  0  0  0  0  0  0  0  0  0
    3.4300    0.4870    0.5430 C   0  0  0  0  0  0  0  0  0  0  0  0
    3.3380    1.3150   -0.4550 C   0  0  0  0  0  0  0  0  0  0  0  0
    2.1440    1.3560   -1.0300 C   0  0  0  0  0  0  0  0  0  0  0  0
  1  2  2  0
  2  3  1  0
  2  4  1  0
  4  5  1  0
  5  6  1  0
  5  9  1  0
  6  7  1  0
  7  8  1  0
  9 10  2  0
  9 13  1  0
 10 11  1  0
 11 12  2  0
 12 13  2  0
M  END
