
     RDKit          3D

 13 13  0  0  0  0  0  0  0  0999 V2000
   -3.5170   -0.1590    1.2630 C   0  0  0  0  0  0  0  0  0  0  0  0
   -2.3870   -0.0310    0.5640 C   0  0  0  0  0  0  0  0  0  0  0  0
   -2.4900    0.3900   -0.8410 C   0  0  0  0  0  0  0  0  0  0  0  0
   -1.1500   -0.3070    1.2120 C   0  0  0  0  0  0  0  0  0  0  0  0
    0.0700   -0.2530    0.7430 C   0  0  0  0  0  0  0  0  0  0  0  0
    0.5950    0.0960   -0.5650 C   0  0  0  0  0  0  0  0  0  0  0  0
    1.9390    0.0010   -0.5590 C   0  0  0  0  0  0  0  0  0  0  0  0
    2.8190    0.2730   -1.6890 C   0  0  0  0  0  0  0  0  0  0  0  0
    4.2260    0.1440   -1.5810 N   0  0  0  0  0  0  0  0  0  0  0  0
    2.3010    0.6270   -2.7710 O   0  0  0  0  0  0  0  0  0  0  0  0
    2.3520   -0.3980    0.7010 O   0  0  0  0  0  0  0  0  0  0  0  0
    1.2890   -0.5690    1.5310 C   0  0  0  0  0  0  0  0  0  0  0  0
    1.2980   -0.9290    2.7530 O   0  0  0  0  0  0  0  0  0  0  0  0
  1  2  2  0
  2  3  1  0
  2  4  1  0
  4  5  2  3
  5  6  1  0
  5 12  1  0
  6  7  2  0
  7  8  1  0
  7 11  1  0
  8  9  1  0
  8 10  2  0
 11 12  1  0
 12 13  2  0
M  END
