
     RDKit          3D

 13 13  0  0  0  0  0  0  0  0999 V2000
   -2.0460   -0.0530   -2.1250 C   0  0  0  0  0  0  0  0  0  0  0  0
   -2.2790   -0.3820   -0.8630 C   0  0  0  0  0  0  0  0  0  0  0  0
   -3.5920   -0.5270   -0.2300 C   0  0  0  0  0  0  0  0  0  0  0  0
   -3.4300   -0.8580    1.0180 C   0  0  0  0  0  0  0  0  0  0  0  0
   -4.4860   -1.0770    1.9170 O   0  0  0  0  0  0  0  0  0  0  0  0
   -2.0010   -0.9530    1.2880 C   0  0  0  0  0  0  0  0  0  0  0  0
   -1.3160   -0.6760    0.1910 C   0  0  0  0  0  0  0  0  0  0  0  0
    0.0720   -0.6670    0.0720 O   0  0  0  0  0  0  0  0  0  0  0  0
    0.8510    0.4720    0.3430 C   0  0  0  0  0  0  0  0  0  0  0  0
    2.2810    0.1470    0.1210 C   0  0  0  0  0  0  0  0  0  0  0  0
    2.6120   -0.9910   -0.2460 O   0  0  0  0  0  0  0  0  0  0  0  0
    3.3170    1.1140    0.3190 N   0  0  0  0  0  0  0  0  0  0  0  0
    4.7240    0.7610    0.0910 C   0  0  0  0  0  0  0  0  0  0  0  0
  1  2  2  0
  2  3  1  0
  2  7  1  0
  3  4  2  0
  4  5  1  0
  4  6  1  0
  6  7  2  0
  7  8  1  0
  8  9  1  0
  9 10  1  0
 10 11  2  0
 10 12  1  0
 12 13  1  0
M  END
