
     RDKit          3D

 13 13  0  0  0  0  0  0  0  0999 V2000
   -1.7000   -0.5300    2.0200 C   0  0  0  0  0  0  0  0  0  0  0  0
   -2.2560   -0.2400    0.8580 C   0  0  0  0  0  0  0  0  0  0  0  0
   -1.4540   -0.1600   -0.3480 C   0  0  0  0  0  0  0  0  0  0  0  0
   -2.0570    0.1220   -1.4910 C   0  0  0  0  0  0  0  0  0  0  0  0
   -3.5150    0.3440   -1.5030 C   0  0  0  0  0  0  0  0  0  0  0  0
   -0.0530   -0.3890   -0.2820 N   0  0  0  0  0  0  0  0  0  0  0  0
    0.8020    0.4680    0.4470 C   0  0  0  0  0  0  0  0  0  0  0  0
    0.3690    1.4890    1.0760 O   0  0  0  0  0  0  0  0  0  0  0  0
    2.2280    0.1370    0.4570 C   0  0  0  0  0  0  0  0  0  0  0  0
    2.8250   -0.8720   -0.1360 C   0  0  0  0  0  0  0  0  0  0  0  0
    4.1810   -0.7890    0.1450 O   0  0  0  0  0  0  0  0  0  0  0  0
    4.4260    0.5350    0.6000 C   0  0  0  0  0  0  0  0  0  0  0  0
    3.1660    0.8860    1.1260 O   0  0  0  0  0  0  0  0  0  0  0  0
  1  2  2  0
  2  3  1  0
  3  4  2  3
  3  6  1  0
  4  5  1  0
  6  7  1  0
  7  8  2  0
  7  9  1  0
  9 10  2  0
  9 13  1  0
 10 11  1  0
 11 12  1  0
 12 13  1  0
M  END
