
     RDKit          3D

  9  9  0  0  0  0  0  0  0  0999 V2000
   -2.5880    0.1820    0.6210 N   0  0  0  0  0  0  0  0  0  0  0  0
   -1.5800   -0.3410   -0.6650 S   0  0  2  0  0  0  0  0  0  0  0  0
   -1.8260    0.5120   -1.8770 O   0  0  0  0  0  0  0  0  0  0  0  0
   -1.8590   -1.7860   -0.9400 O   0  0  0  0  0  0  0  0  0  0  0  0
    0.1150   -0.2730   -0.1980 C   0  0  0  0  0  0  0  0  0  0  0  0
    0.9190   -0.9000    0.2770 N   0  0  0  0  0  0  0  0  0  0  0  0
    2.1960   -0.6050    0.5310 C   0  0  0  0  0  0  0  0  0  0  0  0
    2.5700    0.6070    0.1700 C   0  0  0  0  0  0  0  0  0  0  0  0
    1.0910    1.3380   -0.5400 S   0  0  0  0  0  0  0  0  0  0  0  0
  2  1  1  1
  2  3  2  0
  2  4  2  0
  2  5  1  0
  5  6  2  0
  5  9  1  0
  6  7  1  0
  7  8  2  0
  8  9  1  0
M  END
