
     RDKit          3D

 13 14  0  0  0  0  0  0  0  0999 V2000
    2.1240   -1.4770    0.9800 O   0  0  0  0  0  0  0  0  0  0  0  0
    2.6710   -0.7650   -0.0510 C   0  0  0  0  0  0  0  0  0  0  0  0
    1.5320   -0.4160   -1.0260 C   0  0  0  0  0  0  0  0  0  0  0  0
    0.5540    0.3580   -0.3270 N   0  0  0  0  0  0  0  0  0  0  0  0
    0.8650    1.7050    0.1110 C   0  0  0  0  0  0  0  0  0  0  0  0
   -0.2480    2.6850   -0.0360 C   0  0  0  0  0  0  0  0  0  0  0  0
   -1.5090    2.1550    0.3080 O   0  0  0  0  0  0  0  0  0  0  0  0
   -1.7930    0.8010    0.2870 C   0  0  0  0  0  0  0  0  0  0  0  0
   -2.9840    0.3100    0.5510 C   0  0  0  0  0  0  0  0  0  0  0  0
   -3.2620   -1.0280    0.5300 O   0  0  0  0  0  0  0  0  0  0  0  0
   -2.3160   -2.0050    0.2290 C   0  0  0  0  0  0  0  0  0  0  0  0
   -0.9780   -1.4620   -0.0670 C   0  0  0  0  0  0  0  0  0  0  0  0
   -0.7390   -0.1620   -0.0400 C   0  0  0  0  0  0  0  0  0  0  0  0
  1  2  1  0
  2  3  1  0
  3  4  1  0
  4  5  1  0
  4 13  1  0
  5  6  1  0
  6  7  1  0
  7  8  1  0
  8  9  2  0
  8 13  1  0
  9 10  1  0
 10 11  1  0
 11 12  1  0
 12 13  2  0
M  END
