
     RDKit          3D

  9  9  0  0  0  0  0  0  0  0999 V2000
    2.6620   -0.7910   -0.1380 N   0  0  0  0  0  0  0  0  0  0  0  0
    1.6500    0.4500    0.4820 S   0  0  1  0  0  0  0  0  0  0  0  0
    1.9040    0.5230    1.9740 O   0  0  0  0  0  0  0  0  0  0  0  0
    1.9390    1.7580   -0.1460 O   0  0  0  0  0  0  0  0  0  0  0  0
   -0.0330    0.0990    0.2620 C   0  0  0  0  0  0  0  0  0  0  0  0
   -1.0180    0.7380   -0.3960 C   0  0  0  0  0  0  0  0  0  0  0  0
   -2.2600    0.2470   -0.4120 C   0  0  0  0  0  0  0  0  0  0  0  0
   -2.4890   -0.9290    0.2660 C   0  0  0  0  0  0  0  0  0  0  0  0
   -0.8550   -1.3210    0.9380 S   0  0  0  0  0  0  0  0  0  0  0  0
  2  1  1  6
  2  3  2  0
  2  4  2  0
  2  5  1  0
  5  6  2  0
  5  9  1  0
  6  7  1  0
  7  8  2  0
  8  9  1  0
M  END
