
     RDKit          3D

  9  8  0  0  0  0  0  0  0  0999 V2000
   -3.2840    0.8310    0.0870 C   0  0  0  0  0  0  0  0  0  0  0  0
   -2.2150   -0.0000    0.4040 O   0  0  0  0  0  0  0  0  0  0  0  0
   -0.8770    0.2510    0.2230 C   0  0  0  0  0  0  0  0  0  0  0  0
   -0.0910    1.1470    1.3230 S   0  0  0  0  0  0  0  0  0  0  0  0
   -0.2390   -0.3280   -0.9890 C   0  0  0  0  0  0  0  0  0  0  0  0
    1.5080    0.0330   -1.1160 S   0  0  0  0  0  0  0  0  0  0  0  0
    2.4850   -0.7240    0.1310 C   0  0  0  0  0  0  0  0  0  0  0  0
    3.8880   -0.5620    0.1980 N   0  0  0  0  0  0  0  0  0  0  0  0
    1.9310   -1.4390    1.0030 O   0  0  0  0  0  0  0  0  0  0  0  0
  1  2  1  0
  2  3  1  0
  3  4  2  0
  3  5  1  0
  5  6  1  0
  6  7  1  0
  7  8  1  0
  7  9  2  0
M  END
