
     RDKit          3D

  9  9  0  0  0  0  0  0  0  0999 V2000
    2.5700    0.5540    0.0250 N   0  0  0  0  0  0  0  0  0  0  0  0
    1.5950   -0.4620   -0.0090 C   0  0  0  0  0  0  0  0  0  0  0  0
    0.3050   -0.1420   -0.0050 C   0  0  0  0  0  0  0  0  0  0  0  0
   -0.3770    1.5130    0.0420 S   0  0  0  0  0  0  0  0  0  0  0  0
   -2.0870    1.0090    0.0210 C   0  0  0  0  0  0  0  0  0  0  0  0
   -3.0410    1.7950    0.0410 O   0  0  0  0  0  0  0  0  0  0  0  0
   -2.0950   -0.3810   -0.0210 N   0  0  0  0  0  0  0  0  0  0  0  0
   -0.8550   -1.0070   -0.0350 C   0  0  0  0  0  0  0  0  0  0  0  0
   -0.7090   -2.2860   -0.0740 O   0  0  0  0  0  0  0  0  0  0  0  0
  1  2  1  0
  2  3  2  3
  3  4  1  0
  3  8  1  0
  4  5  1  0
  5  6  2  0
  5  7  1  0
  7  8  1  0
  8  9  2  0
M  END
