
     RDKit          3D

  9  9  0  0  0  0  0  0  0  0999 V2000
    3.3640   -1.3270    0.5960 O   0  0  0  0  0  0  0  0  0  0  0  0
    2.2580   -0.7980    0.4080 C   0  0  0  0  0  0  0  0  0  0  0  0
    1.8490    0.4460    0.2880 N   0  0  0  0  0  0  0  0  0  0  0  0
    0.5880    0.7300    0.0890 C   0  0  0  0  0  0  0  0  0  0  0  0
   -0.0230    2.4400   -0.0830 S   0  0  0  0  0  0  0  0  0  0  0  0
   -0.3090   -0.3110    0.0060 C   0  0  0  0  0  0  0  0  0  0  0  0
   -1.7620   -0.3050   -0.2090 C   0  0  0  0  0  0  0  0  0  0  0  0
   -2.2080   -1.6200   -0.2120 O   0  0  0  0  0  0  0  0  0  0  0  0
    0.6860   -1.7860    0.2230 S   0  0  0  0  0  0  0  0  0  0  0  0
  1  2  2  0
  2  3  1  0
  2  9  1  0
  3  4  1  0
  4  5  1  0
  4  6  2  0
  6  7  1  0
  6  9  1  0
  7  8  1  0
M  END
