
     RDKit          3D

  9  8  0  0  0  0  0  0  0  0999 V2000
   -3.1330    0.0950   -0.5150 C   0  0  0  0  0  0  0  0  0  0  0  0
   -2.5410   -1.2280    0.5530 S   0  0  0  0  0  0  0  0  0  0  0  0
   -0.7850   -1.1810    0.7840 C   0  0  0  0  0  0  0  0  0  0  0  0
   -0.1220   -2.3370    1.7400 S   0  0  0  0  0  0  0  0  0  0  0  0
    0.0710   -0.2290    0.2100 N   0  0  0  0  0  0  0  0  0  0  0  0
    1.4840   -0.2720    0.4560 C   0  0  0  0  0  0  0  0  0  0  0  0
    2.2170    0.8160   -0.2380 C   0  0  0  0  0  0  0  0  0  0  0  0
    1.5680    1.6270   -0.9360 O   0  0  0  0  0  0  0  0  0  0  0  0
    3.5730    0.9250   -0.1130 O   0  0  0  0  0  0  0  0  0  0  0  0
  1  2  1  0
  2  3  1  0
  3  4  2  0
  3  5  1  0
  5  6  1  0
  6  7  1  0
  7  8  2  0
  7  9  1  0
M  END
