
     RDKit          3D

  8  7  0  0  0  0  0  0  0  0999 V2000
   -3.2250   -0.0520    0.2320 C   0  0  0  0  0  0  0  0  0  0  0  0
   -2.2240   -0.2820   -1.2390 S   0  0  0  0  0  0  0  0  0  0  0  0
   -0.5380   -0.7850   -0.8860 C   0  0  0  0  0  0  0  0  0  0  0  0
    0.2420    0.3020   -0.1810 C   0  0  0  0  0  0  0  0  0  0  0  0
    1.5750   -0.1820    0.0650 N   0  0  0  0  0  0  0  0  0  0  0  0
    2.5780    0.6040    0.7270 C   0  0  0  0  0  0  0  0  0  0  0  0
    2.2890    1.7690    1.1140 O   0  0  0  0  0  0  0  0  0  0  0  0
    3.8430    0.1180    0.9480 O   0  0  0  0  0  0  0  0  0  0  0  0
  1  2  1  0
  2  3  1  0
  3  4  1  0
  4  5  1  0
  5  6  1  0
  6  7  2  0
  6  8  1  0
M  END
