
     RDKit          3D

 15 17  0  0  0  0  0  0  0  0999 V2000
   -2.8620    1.1030   -0.6990 C   0  0  0  0  0  0  0  0  0  0  0  0
   -3.7390    0.1830   -0.3880 C   0  0  0  0  0  0  0  0  0  0  0  0
   -3.4300   -1.1170    0.1960 C   0  0  0  0  0  0  0  0  0  0  0  0
   -1.9970   -1.3860    0.4450 C   0  0  0  0  0  0  0  0  0  0  0  0
   -1.0700   -0.3040    0.0690 C   0  0  0  0  0  0  0  0  0  0  0  0
    0.3540   -0.5250    0.2960 C   0  0  0  0  0  0  0  0  0  0  0  0
    0.8900   -1.6620    0.8310 N   0  0  0  0  0  0  0  0  0  0  0  0
    2.1910   -1.5880    0.9210 N   0  0  0  0  0  0  0  0  0  0  0  0
    2.5640   -0.3980    0.4480 C   0  0  0  0  0  0  0  0  0  0  0  0
    3.8190    0.1700    0.3220 C   0  0  0  0  0  0  0  0  0  0  0  0
    3.8930    1.4340   -0.2110 C   0  0  0  0  0  0  0  0  0  0  0  0
    2.7450    2.0980   -0.6020 C   0  0  0  0  0  0  0  0  0  0  0  0
    1.5370    1.5280   -0.4710 N   0  0  0  0  0  0  0  0  0  0  0  0
    1.4280    0.2960    0.0450 C   0  0  0  0  0  0  0  0  0  0  0  0
   -1.4490    0.8420   -0.4560 C   0  0  0  0  0  0  0  0  0  0  0  0
  1  2  2  0
  1 15  1  0
  2  3  1  0
  3  4  1  0
  4  5  1  0
  5  6  1  0
  5 15  2  0
  6  7  2  0
  6 14  1  0
  7  8  1  0
  8  9  1  0
  9 10  2  0
  9 14  1  0
 10 11  1  0
 11 12  2  0
 12 13  1  0
 13 14  2  0
M  END
