
     RDKit          3D

 13 13  0  0  0  0  0  0  0  0999 V2000
    0.8610    1.1610    1.1480 C   0  0  0  0  0  0  0  0  0  0  0  0
    0.7910    0.1630    0.0240 C   0  0  2  0  0  0  0  0  0  0  0  0
    2.0460   -0.6200    0.0340 C   0  0  0  0  0  0  0  0  0  0  0  0
    2.2740   -1.2830    1.0830 O   0  0  0  0  0  0  0  0  0  0  0  0
    2.9490   -0.6660   -1.0010 O   0  0  0  0  0  0  0  0  0  0  0  0
    0.6000    0.8780   -1.1760 O   0  0  0  0  0  0  0  0  0  0  0  0
   -0.6980    1.4100   -1.3280 C   0  0  0  0  0  0  0  0  0  0  0  0
   -1.0310    2.0880   -2.3080 O   0  0  0  0  0  0  0  0  0  0  0  0
   -1.6750    1.1560   -0.3070 N   0  0  0  0  0  0  0  0  0  0  0  0
   -1.6010    0.0120    0.5700 C   0  0  2  0  0  0  0  0  0  0  0  0
   -1.4500    0.3490    1.9010 O   0  0  0  0  0  0  0  0  0  0  0  0
   -0.3750   -0.7830    0.1620 C   0  0  1  0  0  0  0  0  0  0  0  0
   -0.6800   -1.3400   -1.1640 N   0  0  0  0  0  0  0  0  0  0  0  0
  2  1  1  1
  2  3  1  0
  2  6  1  0
  2 12  1  0
  3  4  2  0
  3  5  1  0
  6  7  1  0
  7  8  2  0
  7  9  1  0
  9 10  1  0
 10 11  1  1
 10 12  1  0
 12 13  1  6
M  CHG  1  13   1
M  END
