
     RDKit          3D

 15 17  0  0  0  0  0  0  0  0999 V2000
    2.4930    1.5780   -0.2840 C   0  0  0  0  0  0  0  0  0  0  0  0
    1.2830    1.0130   -0.1750 C   0  0  0  0  0  0  0  0  0  0  0  0
    1.3890   -0.3990    0.0480 C   0  0  0  0  0  0  0  0  0  0  0  0
    0.3160   -1.3930    0.2230 C   0  0  0  0  0  0  0  0  0  0  0  0
    0.4930   -2.7240    0.4320 N   0  0  0  0  0  0  0  0  0  0  0  0
   -0.6460   -3.3390    0.5470 N   0  0  0  0  0  0  0  0  0  0  0  0
   -1.6120   -2.4470    0.4200 C   0  0  0  0  0  0  0  0  0  0  0  0
   -1.0300   -1.1830    0.2100 C   0  0  0  0  0  0  0  0  0  0  0  0
   -1.7330    0.0320    0.0270 N   0  0  0  0  0  0  0  0  0  0  0  0
   -2.1220    0.8850    0.9690 C   0  0  0  0  0  0  0  0  0  0  0  0
   -2.7860    1.9470    0.3960 C   0  0  0  0  0  0  0  0  0  0  0  0
   -2.8000    1.7260   -0.9660 C   0  0  0  0  0  0  0  0  0  0  0  0
   -2.1310    0.5190   -1.1490 C   0  0  0  0  0  0  0  0  0  0  0  0
    2.6810   -0.6970    0.0760 C   0  0  0  0  0  0  0  0  0  0  0  0
    3.5020    0.5180   -0.1300 C   0  0  0  0  0  0  0  0  0  0  0  0
  1  2  2  0
  1 15  1  0
  2  3  1  0
  3  4  1  0
  3 14  2  0
  4  5  1  0
  4  8  2  0
  5  6  1  0
  6  7  2  0
  7  8  1  0
  8  9  1  0
  9 10  1  0
  9 13  1  0
 10 11  2  0
 11 12  1  0
 12 13  2  0
 14 15  1  0
M  END
