
     RDKit          3D

 15 17  0  0  0  0  0  0  0  0999 V2000
   -3.9990    0.8560    0.2600 C   0  0  0  0  0  0  0  0  0  0  0  0
   -4.1590   -0.4800   -0.0420 C   0  0  0  0  0  0  0  0  0  0  0  0
   -2.9280   -1.0320   -0.1930 N   0  0  0  0  0  0  0  0  0  0  0  0
   -1.9870   -0.0910    0.0030 C   0  0  0  0  0  0  0  0  0  0  0  0
   -0.5380   -0.2780   -0.0690 C   0  0  0  0  0  0  0  0  0  0  0  0
   -0.0380   -1.5280   -0.3650 C   0  0  0  0  0  0  0  0  0  0  0  0
    1.3360   -1.6650   -0.4240 C   0  0  0  0  0  0  0  0  0  0  0  0
    2.1450   -0.5810   -0.1930 C   0  0  0  0  0  0  0  0  0  0  0  0
    3.5310   -0.6610   -0.2390 C   0  0  0  0  0  0  0  0  0  0  0  0
    4.3170    0.4080   -0.0110 N   0  0  0  0  0  0  0  0  0  0  0  0
    3.8180    1.6240    0.2770 C   0  0  0  0  0  0  0  0  0  0  0  0
    2.4420    1.7540    0.3350 C   0  0  0  0  0  0  0  0  0  0  0  0
    1.6210    0.6660    0.1030 C   0  0  0  0  0  0  0  0  0  0  0  0
    0.2750    0.7700    0.1540 N   0  0  0  0  0  0  0  0  0  0  0  0
   -2.6420    1.1000    0.2880 C   0  0  0  0  0  0  0  0  0  0  0  0
  1  2  2  0
  1 15  1  0
  2  3  1  0
  3  4  1  0
  4  5  1  0
  4 15  2  0
  5  6  2  0
  5 14  1  0
  6  7  1  0
  7  8  2  0
  8  9  1  0
  8 13  1  0
  9 10  2  0
 10 11  1  0
 11 12  2  0
 12 13  1  0
 13 14  2  0
M  END
