
     RDKit          3D

 12 12  0  0  0  0  0  0  0  0999 V2000
   -3.8260   -0.5310   -0.1200 N   0  0  0  0  0  0  0  0  0  0  0  0
   -2.7890    0.4260    0.0720 C   0  0  0  0  0  0  0  0  0  0  0  0
   -3.0680    1.6290   -0.1620 O   0  0  0  0  0  0  0  0  0  0  0  0
   -1.4360    0.0290    0.5290 C   0  0  1  0  0  0  0  0  0  0  0  0
   -1.3040   -1.3150    0.7360 O   0  0  0  0  0  0  0  0  0  0  0  0
   -0.0250   -1.7990    0.6470 C   0  0  0  0  0  0  0  0  0  0  0  0
    0.9510   -0.8830    1.0150 O   0  0  0  0  0  0  0  0  0  0  0  0
    0.9550    0.2690    0.2780 C   0  0  1  0  0  0  0  0  0  0  0  0
    2.1310    0.3790   -0.6620 C   0  0  0  0  0  0  0  0  0  0  0  0
    3.3710    0.3500    0.0860 N   0  0  0  0  0  0  0  0  0  0  0  0
   -0.3590    0.5290   -0.4270 C   0  0  2  0  0  0  0  0  0  0  0  0
   -0.5320    1.9050   -0.5600 O   0  0  0  0  0  0  0  0  0  0  0  0
  1  2  1  0
  2  3  2  0
  4  2  1  6
  4  5  1  0
  4 11  1  0
  5  6  1  0
  6  7  1  0
  7  8  1  0
  8  9  1  6
  8 11  1  0
  9 10  1  0
 11 12  1  1
M  CHG  1  10   1
M  END
