
     RDKit          3D

 12 12  0  0  0  0  0  0  0  0999 V2000
    3.4420   -0.1540    0.2750 C   0  0  0  0  0  0  0  0  0  0  0  0
    2.4350   -0.1860   -0.6800 O   0  0  0  0  0  0  0  0  0  0  0  0
    1.3740    0.6130   -0.2700 C   0  0  1  0  0  0  0  0  0  0  0  0
    1.1540    1.6730   -1.1480 O   0  0  0  0  0  0  0  0  0  0  0  0
    0.1700   -0.2870   -0.1550 C   0  0  2  0  0  0  0  0  0  0  0  0
   -0.1300   -0.8930   -1.4020 O   0  0  0  0  0  0  0  0  0  0  0  0
   -1.1320   -1.8660   -1.3510 C   0  0  0  0  0  0  0  0  0  0  0  0
   -1.3140   -2.7050   -2.2840 O   0  0  0  0  0  0  0  0  0  0  0  0
   -1.9390   -1.8560   -0.1820 N   0  0  0  0  0  0  0  0  0  0  0  0
   -2.1590   -0.6130    0.5070 C   0  0  0  0  0  0  0  0  0  0  0  0
   -1.0360    0.3670    0.4240 C   0  0  2  0  0  0  0  0  0  0  0  0
   -1.4930    1.5130   -0.3280 N   0  0  0  0  0  0  0  0  0  0  0  0
  1  2  1  0
  2  3  1  0
  3  4  1  6
  3  5  1  0
  5  6  1  6
  5 11  1  0
  6  7  1  0
  7  8  2  0
  7  9  1  0
  9 10  1  0
 10 11  1  0
 11 12  1  6
M  CHG  1  12   1
M  END
