
     RDKit          3D

 17 18  0  0  0  0  0  0  0  0999 V2000
    5.4470    0.1490    0.2770 O   0  0  0  0  0  0  0  0  0  0  0  0
    4.1810    0.1470    0.1270 C   0  0  0  0  0  0  0  0  0  0  0  0
    3.6210   -1.0140   -0.3850 C   0  0  0  0  0  0  0  0  0  0  0  0
    2.2440   -0.9990   -0.5420 C   0  0  0  0  0  0  0  0  0  0  0  0
    1.5000    0.0660   -0.2190 N   0  0  0  0  0  0  0  0  0  0  0  0
    0.0950    0.0180   -0.4020 C   0  0  2  0  0  0  0  0  0  0  0  0
   -0.5840    1.1020    0.1300 O   0  0  0  0  0  0  0  0  0  0  0  0
   -1.9150    0.6690   -0.0280 C   0  0  2  0  0  0  0  0  0  0  0  0
   -2.8670    1.6640    0.5770 C   0  0  0  0  0  0  0  0  0  0  0  0
   -4.1620    1.1830    0.3910 O   0  0  0  0  0  0  0  0  0  0  0  0
   -1.8910   -0.6470    0.6670 C   0  0  1  0  0  0  0  0  0  0  0  0
   -2.8780   -1.5270    0.2410 O   0  0  0  0  0  0  0  0  0  0  0  0
   -0.5450   -1.2120    0.2410 C   0  0  1  0  0  0  0  0  0  0  0  0
   -0.6600   -2.1660   -0.7460 O   0  0  0  0  0  0  0  0  0  0  0  0
    2.0990    1.1610    0.2730 C   0  0  0  0  0  0  0  0  0  0  0  0
    1.2410    2.4920    0.6850 S   0  0  0  0  0  0  0  0  0  0  0  0
    3.4490    1.2060    0.4490 N   0  0  0  0  0  0  0  0  0  0  0  0
  1  2  2  0
  2  3  1  0
  2 17  1  0
  3  4  2  0
  4  5  1  0
  6  5  1  1
  5 15  1  0
  6  7  1  0
  6 13  1  0
  7  8  1  0
  8  9  1  1
  8 11  1  0
  9 10  1  0
 11 12  1  6
 11 13  1  0
 13 14  1  6
 15 16  2  0
 15 17  1  0
M  END
