
     RDKit          3D

 13 13  0  0  0  0  0  0  0  0999 V2000
    4.1580    0.8610   -0.4440 N   0  0  0  0  0  0  0  0  0  0  0  0
    2.9720    0.6770    0.3040 C   0  0  0  0  0  0  0  0  0  0  0  0
    2.9670    1.0180    1.5060 O   0  0  0  0  0  0  0  0  0  0  0  0
    1.7900    0.1020   -0.3210 C   0  0  0  0  0  0  0  0  0  0  0  0
    0.7030   -0.0170    0.5390 O   0  0  0  0  0  0  0  0  0  0  0  0
   -0.3530   -0.5650   -0.1370 C   0  0  1  0  0  0  0  0  0  0  0  0
   -0.7850   -1.8750    0.4290 C   0  0  0  0  0  0  0  0  0  0  0  0
   -0.0880   -2.9090    0.1990 O   0  0  0  0  0  0  0  0  0  0  0  0
   -1.9380   -1.9070    1.1880 O   0  0  0  0  0  0  0  0  0  0  0  0
   -3.0250   -1.1550    0.9030 O   0  0  0  0  0  0  0  0  0  0  0  0
   -2.7810   -0.5760   -0.3350 C   0  0  0  0  0  0  0  0  0  0  0  0
   -1.5700    0.3240   -0.1860 C   0  0  1  0  0  0  0  0  0  0  0  0
   -1.6950    1.1990    0.9340 N   0  0  0  0  0  0  0  0  0  0  0  0
  1  2  1  0
  2  3  2  0
  2  4  1  0
  4  5  1  0
  6  5  1  1
  6  7  1  0
  6 12  1  0
  7  8  2  0
  7  9  1  0
  9 10  1  0
 10 11  1  0
 11 12  1  0
 12 13  1  1
M  CHG  1  13   1
M  END
