
     RDKit          3D

 12 12  0  0  0  0  0  0  0  0999 V2000
    2.6770    1.5110   -0.1380 N   0  0  0  0  0  0  0  0  0  0  0  0
    2.7330    0.3640    0.7220 C   0  0  0  0  0  0  0  0  0  0  0  0
    1.6440   -0.6480    0.4320 C   0  0  2  0  0  0  0  0  0  0  0  0
    1.7100   -1.1310   -0.8590 O   0  0  0  0  0  0  0  0  0  0  0  0
    0.6400   -2.0000   -1.0460 C   0  0  0  0  0  0  0  0  0  0  0  0
   -0.5780   -1.3660   -1.0780 O   0  0  0  0  0  0  0  0  0  0  0  0
   -0.5690   -0.0760   -0.5980 C   0  0  1  0  0  0  0  0  0  0  0  0
   -1.9450    0.3390   -0.0870 C   0  0  0  0  0  0  0  0  0  0  0  0
   -2.9030    0.2780   -1.0870 O   0  0  0  0  0  0  0  0  0  0  0  0
   -4.0730    0.6640   -0.5250 N   0  0  0  0  0  0  0  0  0  0  0  0
    0.3210   -0.0050    0.6520 C   0  0  1  0  0  0  0  0  0  0  0  0
   -0.4300   -0.6640    1.6540 O   0  0  0  0  0  0  0  0  0  0  0  0
  1  2  1  0
  3  2  1  6
  3  4  1  0
  3 11  1  0
  4  5  1  0
  5  6  1  0
  6  7  1  0
  7  8  1  1
  7 11  1  0
  8  9  1  0
  9 10  1  0
 11 12  1  1
M  CHG  2   1   1  10   1
M  END
