
     RDKit          3D

 18 20  0  0  0  0  0  0  0  0999 V2000
   -4.2510    1.2210    1.8900 N   0  0  0  0  0  0  0  0  0  0  0  0
   -4.3370    0.2230    0.9100 C   0  0  0  0  0  0  0  0  0  0  0  0
   -5.4000   -0.3080    0.5730 O   0  0  0  0  0  0  0  0  0  0  0  0
   -3.0830   -0.2110    0.2490 C   0  0  0  0  0  0  0  0  0  0  0  0
   -1.9700    0.3200    0.5780 N   0  0  0  0  0  0  0  0  0  0  0  0
   -0.7580   -0.0290    0.0090 N   0  0  0  0  0  0  0  0  0  0  0  0
   -0.6940   -1.0270   -0.9970 C   0  0  0  0  0  0  0  0  0  0  0  0
    0.8370   -1.4810   -1.7280 S   0  0  0  0  0  0  0  0  0  0  0  0
    2.1580   -0.5170   -1.0060 C   0  0  0  0  0  0  0  0  0  0  0  0
    2.3820    0.3460   -0.1850 N   0  0  0  0  0  0  0  0  0  0  0  0
    3.5440    0.8600    0.1160 C   0  0  0  0  0  0  0  0  0  0  0  0
    4.0740    1.8270    0.9860 C   0  0  0  0  0  0  0  0  0  0  0  0
    5.3670    1.8930    0.8170 O   0  0  0  0  0  0  0  0  0  0  0  0
    5.7770    1.0610   -0.0880 C   0  0  0  0  0  0  0  0  0  0  0  0
    4.6200    0.3770   -0.5600 C   0  0  0  0  0  0  0  0  0  0  0  0
    3.9280   -0.8000   -1.6100 S   0  0  0  0  0  0  0  0  0  0  0  0
   -1.8420   -1.5770   -1.3380 C   0  0  0  0  0  0  0  0  0  0  0  0
   -3.1600   -1.2590   -0.7820 C   0  0  0  0  0  0  0  0  0  0  0  0
  1  2  1  0
  2  3  2  0
  2  4  1  0
  4  5  2  0
  4 18  1  0
  5  6  1  0
  6  7  1  0
  7  8  1  0
  7 17  2  0
  8  9  1  0
  9 10  2  0
  9 16  1  0
 10 11  1  0
 11 12  2  0
 11 15  1  0
 12 13  1  0
 13 14  1  0
 14 15  2  0
 15 16  1  0
 17 18  1  0
M  END
