
     RDKit          3D

 18 20  0  0  0  0  0  0  0  0999 V2000
    4.6850   -0.7010    1.6800 C   0  0  0  0  0  0  0  0  0  0  0  0
    4.0770   -0.3740    0.3430 C   0  0  0  0  0  0  0  0  0  0  0  0
    4.6960   -0.1720   -0.8200 N   0  0  0  0  0  0  0  0  0  0  0  0
    3.8300    0.0910   -1.7720 N   0  0  0  0  0  0  0  0  0  0  0  0
    2.5630    0.0710   -1.2500 C   0  0  0  0  0  0  0  0  0  0  0  0
    2.7390   -0.2240    0.0810 C   0  0  0  0  0  0  0  0  0  0  0  0
    1.3100   -0.3370    1.0970 S   0  0  2  0  0  0  0  0  0  0  0  0
    1.3900    0.6180    2.2480 O   0  0  0  0  0  0  0  0  0  0  0  0
    1.2560   -1.7490    1.6630 O   0  0  0  0  0  0  0  0  0  0  0  0
   -0.0270   -0.0250    0.0750 N   0  0  0  0  0  0  0  0  0  0  0  0
    0.0490    0.2350   -1.1780 C   0  0  0  0  0  0  0  0  0  0  0  0
   -1.4850    0.5430   -2.1170 S   0  0  0  0  0  0  0  0  0  0  0  0
   -2.9100    0.4060   -1.0440 C   0  0  2  0  0  0  0  0  0  0  0  0
   -2.9570    1.4860    0.0220 C   0  0  0  0  0  0  0  0  0  0  0  0
   -3.8660    0.8230    1.0460 C   0  0  0  0  0  0  0  0  0  0  0  0
   -3.3420   -0.5790    1.0900 C   0  0  0  0  0  0  0  0  0  0  0  0
   -2.9020   -0.9030   -0.3260 C   0  0  0  0  0  0  0  0  0  0  0  0
    1.2910    0.2870   -1.8410 N   0  0  0  0  0  0  0  0  0  0  0  0
  1  2  1  0
  2  3  2  0
  2  6  1  0
  3  4  1  0
  4  5  1  0
  5  6  2  0
  5 18  1  0
  6  7  1  0
  7  8  2  0
  7  9  2  0
  7 10  1  6
 10 11  2  0
 11 12  1  0
 11 18  1  0
 13 12  1  1
 13 14  1  0
 13 17  1  0
 14 15  1  0
 15 16  1  0
 16 17  1  0
M  END
