
     RDKit          3D

 18 19  0  0  0  0  0  0  0  0999 V2000
   -1.9030   -1.0480    2.3750 C   0  0  0  0  0  0  0  0  0  0  0  0
   -2.8180   -0.3440    1.7960 C   0  0  0  0  0  0  0  0  0  0  0  0
   -4.5300   -0.7110    2.1320 S   0  0  0  0  0  0  0  0  0  0  0  0
   -5.4590    0.5110    1.2130 C   0  0  0  0  0  0  0  0  0  0  0  0
   -4.7900    1.3780    0.4970 C   0  0  0  0  0  0  0  0  0  0  0  0
   -3.3810    1.4880    0.3460 C   0  0  0  0  0  0  0  0  0  0  0  0
   -2.4670    0.7460    0.8990 C   0  0  0  0  0  0  0  0  0  0  0  0
   -1.0720    1.0050    0.6210 N   0  0  0  0  0  0  0  0  0  0  0  0
   -0.3020    0.0350   -0.0610 C   0  0  0  0  0  0  0  0  0  0  0  0
   -0.8870   -1.0300   -0.4060 O   0  0  0  0  0  0  0  0  0  0  0  0
    1.1420    0.2250   -0.3760 C   0  0  0  0  0  0  0  0  0  0  0  0
    1.7640   -1.2310   -1.2490 S   0  0  0  0  0  0  0  0  0  0  0  0
    3.4830   -0.9680   -1.6070 C   0  0  0  0  0  0  0  0  0  0  0  0
    3.9470   -0.3900   -2.7310 N   0  0  0  0  0  0  0  0  0  0  0  0
    5.2840   -0.3400   -2.6970 N   0  0  0  0  0  0  0  0  0  0  0  0
    5.6710   -0.8960   -1.5310 C   0  0  0  0  0  0  0  0  0  0  0  0
    6.8670   -1.0090   -1.1790 O   0  0  0  0  0  0  0  0  0  0  0  0
    4.5650   -1.2730   -0.8800 N   0  0  0  0  0  0  0  0  0  0  0  0
  1  2  2  0
  2  3  1  0
  2  7  1  0
  3  4  1  0
  4  5  2  0
  5  6  1  0
  6  7  2  0
  7  8  1  0
  8  9  1  0
  9 10  2  0
  9 11  1  0
 11 12  1  0
 12 13  1  0
 13 14  2  0
 13 18  1  0
 14 15  1  0
 15 16  1  0
 16 17  2  0
 16 18  1  0
M  END
