
     RDKit          3D

 18 20  0  0  0  0  0  0  0  0999 V2000
   -3.2370   -0.3090    1.7620 C   0  0  0  0  0  0  0  0  0  0  0  0
   -3.4030    0.1490    0.3570 C   0  0  0  0  0  0  0  0  0  0  0  0
   -4.5750    0.4270   -0.2420 N   0  0  0  0  0  0  0  0  0  0  0  0
   -4.3440    0.8040   -1.4880 N   0  0  0  0  0  0  0  0  0  0  0  0
   -2.9980    0.7690   -1.7000 C   0  0  0  0  0  0  0  0  0  0  0  0
   -2.3670    0.3570   -0.5490 C   0  0  0  0  0  0  0  0  0  0  0  0
   -0.9900    0.1620   -0.2610 N   0  0  0  0  0  0  0  0  0  0  0  0
    0.0480    0.3740   -1.1800 C   0  0  0  0  0  0  0  0  0  0  0  0
   -0.2220    0.7620   -2.3400 O   0  0  0  0  0  0  0  0  0  0  0  0
    1.4380    0.1560   -0.8230 C   0  0  0  0  0  0  0  0  0  0  0  0
    2.0200   -0.2490    0.3160 C   0  0  0  0  0  0  0  0  0  0  0  0
    3.3940   -0.3630    0.3470 C   0  0  0  0  0  0  0  0  0  0  0  0
    4.2650   -0.7960    1.5080 C   0  0  0  0  0  0  0  0  0  0  0  0
    3.9190   -1.1210    2.6170 O   0  0  0  0  0  0  0  0  0  0  0  0
    5.9010   -0.7070    0.8350 S   0  0  0  0  0  0  0  0  0  0  0  0
    5.3650   -0.1450   -0.8120 N   0  0  0  0  0  0  0  0  0  0  0  0
    4.1070   -0.1040   -0.6400 C   0  0  0  0  0  0  0  0  0  0  0  0
    2.7700    0.4100   -1.9430 S   0  0  0  0  0  0  0  0  0  0  0  0
  1  2  1  0
  2  3  1  0
  2  6  2  0
  3  4  1  0
  4  5  2  0
  5  6  1  0
  6  7  1  0
  7  8  1  0
  8  9  2  0
  8 10  1  0
 10 11  2  0
 10 18  1  0
 11 12  1  0
 12 13  1  0
 12 17  2  0
 13 14  2  0
 13 15  1  0
 15 16  1  0
 16 17  1  0
 17 18  1  0
M  END
