
     RDKit          3D

 18 20  0  0  0  0  0  0  0  0999 V2000
   -2.6320    0.8420    1.1050 O   0  0  0  0  0  0  0  0  0  0  0  0
   -3.2660    0.0970    0.2660 C   0  0  0  0  0  0  0  0  0  0  0  0
   -4.5540   -0.3860    0.4940 N   0  0  0  0  0  0  0  0  0  0  0  0
   -5.1120   -1.1850   -0.5090 C   0  0  0  0  0  0  0  0  0  0  0  0
   -6.4230   -2.1070   -0.4390 S   0  0  0  0  0  0  0  0  0  0  0  0
   -4.0610   -0.9880   -1.9250 S   0  0  0  0  0  0  0  0  0  0  0  0
   -2.6500   -0.2860   -0.9910 C   0  0  0  0  0  0  0  0  0  0  0  0
   -1.4270   -0.1980   -1.4500 C   0  0  0  0  0  0  0  0  0  0  0  0
   -0.2660    0.3600   -0.7630 C   0  0  0  0  0  0  0  0  0  0  0  0
   -0.1330    1.5880   -0.1550 C   0  0  0  0  0  0  0  0  0  0  0  0
    1.1500    1.6210    0.3450 C   0  0  0  0  0  0  0  0  0  0  0  0
    1.7410    0.4280    0.0270 C   0  0  0  0  0  0  0  0  0  0  0  0
    3.1200    0.0050    0.3570 C   0  0  0  0  0  0  0  0  0  0  0  0
    4.0430    0.7120    1.0220 N   0  0  0  0  0  0  0  0  0  0  0  0
    5.1410   -0.0500    1.1010 C   0  0  0  0  0  0  0  0  0  0  0  0
    4.8640   -1.2160    0.4780 N   0  0  0  0  0  0  0  0  0  0  0  0
    3.6220   -1.1820    0.0200 N   0  0  0  0  0  0  0  0  0  0  0  0
    0.8720   -0.2820   -0.6250 O   0  0  0  0  0  0  0  0  0  0  0  0
  1  2  2  0
  2  3  1  0
  2  7  1  0
  3  4  1  0
  4  5  2  0
  4  6  1  0
  6  7  1  0
  7  8  2  3
  8  9  1  0
  9 10  2  0
  9 18  1  0
 10 11  1  0
 11 12  2  0
 12 13  1  0
 12 18  1  0
 13 14  1  0
 13 17  2  0
 14 15  2  0
 15 16  1  0
 16 17  1  0
M  END
