
     RDKit          3D

 25 27  0  0  0  0  0  0  0  0999 V2000
    3.1290    1.0440   -1.2380 O   0  0  0  0  0  0  0  0  0  0  0  0
    2.6470    0.1960   -0.4100 C   0  0  0  0  0  0  0  0  0  0  0  0
    3.3750   -1.0180    0.0030 C   0  0  0  0  0  0  0  0  0  0  0  0
    4.8070   -0.9220   -0.4300 C   0  0  0  0  0  0  0  0  0  0  0  0
    5.4600    0.2380    0.2560 C   0  0  0  0  0  0  0  0  0  0  0  0
    6.9020    0.2760   -0.2260 C   0  0  2  0  0  0  0  0  0  0  0  0
    7.5070   -0.9040    0.1120 F   0  0  0  0  0  0  0  0  0  0  0  0
    7.5180    1.3230    0.4300 F   0  0  0  0  0  0  0  0  0  0  0  0
    6.8860    0.4330   -1.5830 F   0  0  0  0  0  0  0  0  0  0  0  0
    1.3440    0.4190    0.1480 N   0  0  0  0  0  0  0  0  0  0  0  0
    0.8050   -0.5420    1.0820 C   0  0  0  0  0  0  0  0  0  0  0  0
   -0.7090   -0.2910    1.1150 C   0  0  0  0  0  0  0  0  0  0  0  0
   -1.1340   -0.1770   -0.3410 C   0  0  1  0  0  0  0  0  0  0  0  0
   -2.5630   -0.4880   -0.4840 C   0  0  0  0  0  0  0  0  0  0  0  0
   -3.6330    0.1280    0.0670 N   0  0  0  0  0  0  0  0  0  0  0  0
   -4.7510   -0.4910   -0.3370 C   0  0  0  0  0  0  0  0  0  0  0  0
   -6.1200   -0.1490    0.0220 C   0  0  0  0  0  0  0  0  0  0  0  0
   -6.7530    0.6320    0.6700 N   0  0  0  0  0  0  0  0  0  0  0  0
   -8.0100    0.7460    0.8440 C   0  0  0  0  0  0  0  0  0  0  0  0
   -8.8610   -0.1730    0.1910 C   0  0  0  0  0  0  0  0  0  0  0  0
   -7.5440   -1.1620   -0.6660 S   0  0  0  0  0  0  0  0  0  0  0  0
   -4.3270   -1.4950   -1.1440 N   0  0  0  0  0  0  0  0  0  0  0  0
   -3.0270   -1.4740   -1.2160 O   0  0  0  0  0  0  0  0  0  0  0  0
   -0.7880    1.2190   -0.7910 C   0  0  0  0  0  0  0  0  0  0  0  0
    0.5560    1.5820   -0.2020 C   0  0  0  0  0  0  0  0  0  0  0  0
  1  2  2  0
  2  3  1  0
  2 10  1  0
  3  4  1  0
  4  5  1  0
  5  6  1  0
  6  7  1  6
  6  8  1  0
  6  9  1  0
 10 11  1  0
 10 25  1  0
 11 12  1  0
 12 13  1  0
 13 14  1  1
 13 24  1  0
 14 15  2  0
 14 23  1  0
 15 16  1  0
 16 17  1  0
 16 22  2  0
 17 18  2  0
 17 21  1  0
 18 19  1  0
 19 20  2  0
 20 21  1  0
 22 23  1  0
 24 25  1  0
M  END
