
     RDKit          3D

 27 29  0  0  0  0  0  0  0  0999 V2000
   -2.7320    0.2730   -1.4070 N   0  0  0  0  0  0  0  0  0  0  0  0
   -2.3070   -0.6010   -0.3780 C   0  0  2  0  0  0  0  0  0  0  0  0
   -2.4890    0.1030    0.9650 C   0  0  0  0  0  0  0  0  0  0  0  0
   -3.8900    0.4790    1.2320 C   0  0  0  0  0  0  0  0  0  0  0  0
   -4.7800   -0.3790    1.8660 C   0  0  0  0  0  0  0  0  0  0  0  0
   -6.0870   -0.0220    2.1210 C   0  0  0  0  0  0  0  0  0  0  0  0
   -6.5620    1.2190    1.7510 C   0  0  0  0  0  0  0  0  0  0  0  0
   -5.6980    2.1050    1.1140 C   0  0  0  0  0  0  0  0  0  0  0  0
   -4.4140    1.7140    0.8800 C   0  0  0  0  0  0  0  0  0  0  0  0
   -0.9960   -1.2150   -0.4710 C   0  0  0  0  0  0  0  0  0  0  0  0
   -0.7330   -2.0390    0.4990 O   0  0  0  0  0  0  0  0  0  0  0  0
    0.0250   -1.0700   -1.4190 N   0  0  0  0  0  0  0  0  0  0  0  0
    0.1580   -0.2830   -2.6240 C   0  0  0  0  0  0  0  0  0  0  0  0
    0.6320   -1.3580   -3.5970 C   0  0  0  0  0  0  0  0  0  0  0  0
    1.4820   -2.2800   -2.7510 C   0  0  0  0  0  0  0  0  0  0  0  0
    1.3180   -1.7910   -1.3410 C   0  0  1  0  0  0  0  0  0  0  0  0
    2.3210   -0.8300   -0.8830 C   0  0  0  0  0  0  0  0  0  0  0  0
    2.0120    0.3490   -0.5510 O   0  0  0  0  0  0  0  0  0  0  0  0
    3.7130   -1.1410   -0.7760 N   0  0  0  0  0  0  0  0  0  0  0  0
    4.6940   -0.2190   -0.3260 C   0  0  0  0  0  0  0  0  0  0  0  0
    4.5740    0.2490    1.0540 C   0  0  0  0  0  0  0  0  0  0  0  0
    3.6380   -0.1350    1.9740 C   0  0  0  0  0  0  0  0  0  0  0  0
    3.6700    0.3850    3.2260 N   0  0  0  0  0  0  0  0  0  0  0  0
    4.5860    1.2740    3.6280 C   0  0  0  0  0  0  0  0  0  0  0  0
    5.5450    1.6860    2.7360 C   0  0  0  0  0  0  0  0  0  0  0  0
    5.5370    1.1780    1.4650 C   0  0  0  0  0  0  0  0  0  0  0  0
    6.7720    1.7230    0.3520 Cl  0  0  0  0  0  0  0  0  0  0  0  0
  2  1  1  6
  2  3  1  0
  2 10  1  0
  3  4  1  0
  4  5  2  0
  4  9  1  0
  5  6  1  0
  6  7  2  0
  7  8  1  0
  8  9  2  0
 10 11  2  0
 10 12  1  0
 12 13  1  0
 12 16  1  0
 13 14  1  0
 14 15  1  0
 15 16  1  0
 16 17  1  6
 17 18  2  0
 17 19  1  0
 19 20  1  0
 20 21  1  0
 21 22  2  0
 21 26  1  0
 22 23  1  0
 23 24  2  0
 24 25  1  0
 25 26  2  0
 26 27  1  0
M  CHG  1   1   1
M  END
