
     RDKit          3D

 20 21  0  0  0  0  0  0  0  0999 V2000
    3.6490    1.1950   -0.7650 C   0  0  0  0  0  0  0  0  0  0  0  0
    2.7350    0.1540   -0.8570 O   0  0  0  0  0  0  0  0  0  0  0  0
    2.7340   -0.6600    0.1970 N   0  0  2  0  0  0  0  0  0  0  0  0
    1.4640   -1.1390    0.6200 N   0  0  0  0  0  0  0  0  0  0  0  0
    1.6470   -1.5990    2.2880 Cl  0  0  0  0  0  0  0  0  0  0  0  0
    0.5970   -0.1550    0.4360 O   0  0  0  0  0  0  0  0  0  0  0  0
   -0.7270   -0.5790    0.3020 C   0  0  2  0  0  0  0  0  0  0  0  0
   -1.2500   -1.3270    1.4990 C   0  0  0  0  0  0  0  0  0  0  0  0
   -0.9000   -1.3500   -0.8550 O   0  0  0  0  0  0  0  0  0  0  0  0
   -2.0440   -1.9880   -1.2080 C   0  0  0  0  0  0  0  0  0  0  0  0
   -3.0550   -1.9440   -0.4810 O   0  0  0  0  0  0  0  0  0  0  0  0
   -2.1850   -2.7310   -2.3870 O   0  0  0  0  0  0  0  0  0  0  0  0
   -1.5310    0.7080    0.2420 C   0  0  0  0  0  0  0  0  0  0  0  0
   -1.0160    1.9090    0.4620 C   0  0  0  0  0  0  0  0  0  0  0  0
    0.6860    2.2430    0.8600 Cl  0  0  0  0  0  0  0  0  0  0  0  0
   -2.0410    2.9400    0.3620 C   0  0  0  0  0  0  0  0  0  0  0  0
   -3.1650    2.3570    0.0810 C   0  0  0  0  0  0  0  0  0  0  0  0
   -2.9490    0.9050   -0.0250 C   0  0  0  0  0  0  0  0  0  0  0  0
    3.7960   -0.6800    1.0670 C   0  0  0  0  0  0  0  0  0  0  0  0
    3.6270   -1.7480    0.1090 O   0  0  0  0  0  0  0  0  0  0  0  0
  1  2  1  0
  3  2  1  6
  3  4  1  0
  3 19  1  0
  3 20  1  0
  4  5  1  0
  4  6  1  0
  6  7  1  0
  7  8  1  1
  7  9  1  0
  7 13  1  0
  9 10  1  0
 10 11  2  0
 10 12  1  0
 13 14  2  0
 13 18  1  0
 14 15  1  0
 14 16  1  0
 16 17  2  0
 17 18  1  0
 19 20  1  0
M  CHG  1   3   1
M  END
