
     RDKit          3D

 18 19  0  0  0  0  0  0  0  0999 V2000
    0.2200   -2.3530   -0.5450 C   0  0  0  0  0  0  0  0  0  0  0  0
   -0.1760   -1.0760   -0.2750 O   0  0  0  0  0  0  0  0  0  0  0  0
    0.5920   -0.1180   -0.8260 N   0  0  2  0  0  0  0  0  0  0  0  0
    0.7150   -0.4350   -2.2380 C   0  0  0  0  0  0  0  0  0  0  0  0
    1.9250   -0.0860   -0.2840 C   0  0  0  0  0  0  0  0  0  0  0  0
    1.9720   -0.3780    1.1960 C   0  0  0  0  0  0  0  0  0  0  0  0
    3.3370   -0.3070    1.5610 O   0  0  0  0  0  0  0  0  0  0  0  0
    3.4840   -0.5490    2.8450 O   0  0  0  0  0  0  0  0  0  0  0  0
   -0.1080    1.1270   -0.7180 C   0  0  1  0  0  0  0  0  0  0  0  0
    0.8500    2.3440    0.2020 Cl  0  0  0  0  0  0  0  0  0  0  0  0
   -0.3400    1.6820   -1.9500 O   0  0  0  0  0  0  0  0  0  0  0  0
   -1.3100    1.1640   -2.6220 O   0  0  0  0  0  0  0  0  0  0  0  0
   -2.4670    1.5520   -2.0390 N   0  0  0  0  0  0  0  0  0  0  0  0
   -2.6150    1.2100   -0.6650 C   0  0  0  0  0  0  0  0  0  0  0  0
   -3.3200    0.9580    0.4370 C   0  0  0  0  0  0  0  0  0  0  0  0
   -2.0700    0.7290    1.1520 C   0  0  0  0  0  0  0  0  0  0  0  0
   -1.7500    0.3660    2.5380 C   0  0  0  0  0  0  0  0  0  0  0  0
   -1.3810    0.9750    0.0750 C   0  0  0  0  0  0  0  0  0  0  0  0
  1  2  1  0
  2  3  1  0
  3  4  1  6
  3  5  1  0
  3  9  1  0
  5  6  1  0
  6  7  1  0
  7  8  1  0
  9 10  1  1
  9 11  1  0
  9 18  1  0
 11 12  1  0
 12 13  1  0
 13 14  1  0
 14 15  2  0
 14 18  1  0
 15 16  1  0
 16 17  1  0
 16 18  2  0
M  CHG  1   3   1
M  END
