
     RDKit          3D

 20 20  0  0  0  0  0  0  0  0999 V2000
   -2.0990   -1.9670    0.0450 C   0  0  0  0  0  0  0  0  0  0  0  0
   -1.2540   -0.7360   -0.4070 C   0  0  2  0  0  0  0  0  0  0  0  0
   -1.4500   -0.6910   -1.8770 C   0  0  0  0  0  0  0  0  0  0  0  0
    0.0790   -0.9890    0.1150 C   0  0  0  0  0  0  0  0  0  0  0  0
    1.1710   -0.1170   -0.0670 N   0  0  2  0  0  0  0  0  0  0  0  0
    1.4960    0.1600   -1.4670 C   0  0  0  0  0  0  0  0  0  0  0  0
    2.2720   -0.8440    0.3770 O   0  0  0  0  0  0  0  0  0  0  0  0
    3.1340   -1.0900   -0.5310 O   0  0  0  0  0  0  0  0  0  0  0  0
    4.1960   -0.3280   -0.5160 O   0  0  0  0  0  0  0  0  0  0  0  0
    4.5950    0.0630    0.7300 C   0  0  0  0  0  0  0  0  0  0  0  0
    3.6210    0.8730    1.4900 C   0  0  0  0  0  0  0  0  0  0  0  0
    4.2260    1.5840    2.3630 O   0  0  0  0  0  0  0  0  0  0  0  0
    2.2270    1.0930    1.5340 N   0  0  0  0  0  0  0  0  0  0  0  0
    1.6980    1.6550    3.0880 Cl  0  0  0  0  0  0  0  0  0  0  0  0
    1.2220    0.9800    0.6870 O   0  0  0  0  0  0  0  0  0  0  0  0
   -1.9770    0.4310    0.2220 C   0  0  1  0  0  0  0  0  0  0  0  0
   -3.4350    0.4670   -0.3140 C   0  0  0  0  0  0  0  0  0  0  0  0
   -2.1210    0.3340    1.7210 C   0  0  0  0  0  0  0  0  0  0  0  0
   -1.2140    2.0330   -0.1240 S   0  0  0  0  0  0  0  0  0  0  0  0
   -1.2990    2.5190   -1.7370 O   0  0  0  0  0  0  0  0  0  0  0  0
  2  1  1  1
  2  3  1  0
  2  4  1  0
  2 16  1  0
  4  5  1  0
  5  6  1  6
  5  7  1  0
  5 15  1  0
  7  8  1  0
  8  9  1  0
  9 10  1  0
 10 11  1  0
 11 12  2  0
 11 13  1  0
 13 14  1  0
 13 15  1  0
 16 17  1  6
 16 18  1  0
 16 19  1  0
 19 20  1  0
M  CHG  1   5   1
M  END
