
     RDKit          3D

 22 23  0  0  0  0  0  0  0  0999 V2000
    3.0160   -1.5270    0.1370 O   0  0  0  0  0  0  0  0  0  0  0  0
    2.9300   -0.3260    0.5000 C   0  0  0  0  0  0  0  0  0  0  0  0
    4.0870    0.4380    0.4470 O   0  0  0  0  0  0  0  0  0  0  0  0
    5.2870   -0.1200    0.0050 C   0  0  2  0  0  0  0  0  0  0  0  0
    6.3740   -0.0930    1.0460 C   0  0  0  0  0  0  0  0  0  0  0  0
    5.9520   -0.8180    2.1640 O   0  0  0  0  0  0  0  0  0  0  0  0
    5.8180    0.6170   -1.2190 C   0  0  0  0  0  0  0  0  0  0  0  0
    4.8440    0.5040   -2.2160 O   0  0  0  0  0  0  0  0  0  0  0  0
    1.6180    0.2410    0.9710 C   0  0  1  0  0  0  0  0  0  0  0  0
    1.7840    1.5740    1.3120 O   0  0  0  0  0  0  0  0  0  0  0  0
    0.6550    0.0780   -0.1840 C   0  0  0  0  0  0  0  0  0  0  0  0
   -0.7210    0.6130    0.1570 C   0  0  1  0  0  0  0  0  0  0  0  0
   -1.5890    0.3980   -1.0620 C   0  0  0  0  0  0  0  0  0  0  0  0
   -2.8710   -0.2380   -0.6050 C   0  0  2  0  0  0  0  0  0  0  0  0
   -2.7070   -1.5800   -0.2700 O   0  0  0  0  0  0  0  0  0  0  0  0
   -3.9630   -0.1770   -1.6530 C   0  0  0  0  0  0  0  0  0  0  0  0
   -5.0770   -1.0830   -1.1620 C   0  0  0  0  0  0  0  0  0  0  0  0
   -5.4060   -0.8830    0.2750 C   0  0  0  0  0  0  0  0  0  0  0  0
   -4.7990    0.3090    0.9120 C   0  0  0  0  0  0  0  0  0  0  0  0
   -3.3800    0.5740    0.5750 C   0  0  1  0  0  0  0  0  0  0  0  0
   -2.4170    0.3450    1.7120 C   0  0  0  0  0  0  0  0  0  0  0  0
   -1.1650   -0.0600    1.2720 O   0  0  0  0  0  0  0  0  0  0  0  0
  1  2  2  0
  2  3  1  0
  2  9  1  0
  3  4  1  0
  4  5  1  1
  4  7  1  0
  5  6  1  0
  7  8  1  0
  9 10  1  6
  9 11  1  0
 12 11  1  6
 12 13  1  0
 12 22  1  0
 13 14  1  0
 14 15  1  1
 14 16  1  0
 14 20  1  0
 16 17  1  0
 17 18  1  0
 18 19  1  0
 20 19  1  1
 20 21  1  0
 21 22  1  0
M  END
