
     RDKit          3D

 20 21  0  0  0  0  0  0  0  0999 V2000
   -0.8540   -3.5880   -0.3660 C   0  0  0  0  0  0  0  0  0  0  0  0
   -0.3070   -2.8090    0.6830 O   0  0  0  0  0  0  0  0  0  0  0  0
    0.0490   -1.5050    0.3980 N   0  0  0  0  0  0  0  0  0  0  0  0
   -0.7950   -0.5450    0.2920 C   0  0  0  0  0  0  0  0  0  0  0  0
   -2.2410   -0.5790    0.4340 C   0  0  0  0  0  0  0  0  0  0  0  0
   -2.9970    0.5230    0.2920 C   0  0  0  0  0  0  0  0  0  0  0  0
   -4.4630    0.4560    0.4420 C   0  0  0  0  0  0  0  0  0  0  0  0
   -5.2110    0.8190   -0.6250 O   0  0  0  0  0  0  0  0  0  0  0  0
   -5.1290    2.0660   -1.1320 C   0  0  0  0  0  0  0  0  0  0  0  0
   -3.5930    2.5960   -1.7710 Cl  0  0  0  0  0  0  0  0  0  0  0  0
   -0.0880    0.6390   -0.0020 O   0  0  0  0  0  0  0  0  0  0  0  0
    1.1880    0.1860   -0.4730 C   0  0  1  0  0  0  0  0  0  0  0  0
    1.1470   -0.0600   -2.2200 Cl  0  0  0  0  0  0  0  0  0  0  0  0
    2.1130    1.1220   -0.0740 O   0  0  0  0  0  0  0  0  0  0  0  0
    3.3680    0.8330   -0.4460 N   0  0  0  0  0  0  0  0  0  0  0  0
    4.2750    1.7830    0.1490 C   0  0  0  0  0  0  0  0  0  0  0  0
    5.3170    0.9230    0.8030 C   0  0  0  0  0  0  0  0  0  0  0  0
    5.2170   -0.2770    0.1070 O   0  0  0  0  0  0  0  0  0  0  0  0
    3.8190   -0.4570    0.0430 C   0  0  0  0  0  0  0  0  0  0  0  0
    1.3210   -1.0550    0.1930 O   0  0  0  0  0  0  0  0  0  0  0  0
  1  2  1  0
  2  3  1  0
  3  4  2  0
  3 20  1  0
  4  5  1  0
  4 11  1  0
  5  6  2  3
  6  7  1  0
  7  8  1  0
  8  9  1  0
  9 10  1  0
 11 12  1  0
 12 13  1  6
 12 14  1  0
 12 20  1  0
 14 15  1  0
 15 16  1  0
 15 19  1  0
 16 17  1  0
 17 18  1  0
 18 19  1  0
M  CHG  1   3   1
M  END
