
     RDKit          3D

 20 21  0  0  0  0  0  0  0  0999 V2000
    2.2740    2.0890    1.5210 C   0  0  0  0  0  0  0  0  0  0  0  0
    1.3030    1.2180    0.8110 C   0  0  0  0  0  0  0  0  0  0  0  0
    0.0040    1.4300    0.8030 C   0  0  0  0  0  0  0  0  0  0  0  0
   -0.8320    2.7430    1.6040 Cl  0  0  0  0  0  0  0  0  0  0  0  0
   -0.6990    0.3980   -0.0070 C   0  0  0  0  0  0  0  0  0  0  0  0
   -2.1650    0.2890   -0.2330 C   0  0  2  0  0  0  0  0  0  0  0  0
   -2.9420   -0.2320    0.9360 C   0  0  0  0  0  0  0  0  0  0  0  0
   -2.6300   -0.0500   -1.5910 C   0  0  0  0  0  0  0  0  0  0  0  0
   -2.5320    1.7060   -0.1510 O   0  0  0  0  0  0  0  0  0  0  0  0
    0.2510   -0.3830   -0.4350 C   0  0  0  0  0  0  0  0  0  0  0  0
    0.2840   -1.5610   -1.2580 N   0  0  0  0  0  0  0  0  0  0  0  0
   -1.0560   -2.5910   -1.3070 Cl  0  0  0  0  0  0  0  0  0  0  0  0
    1.4700   -1.7630   -1.9780 N   0  0  0  0  0  0  0  0  0  0  0  0
    1.6000   -2.7730   -2.6870 O   0  0  0  0  0  0  0  0  0  0  0  0
    2.5440   -0.8020   -1.8980 C   0  0  0  0  0  0  0  0  0  0  0  0
    2.3500    0.2730   -1.0720 O   0  0  0  0  0  0  0  0  0  0  0  0
    1.6070    0.0240    0.0480 C   0  0  1  0  0  0  0  0  0  0  0  0
    2.1550   -0.9940    0.8380 O   0  0  0  0  0  0  0  0  0  0  0  0
    1.3280   -1.3490    1.7900 O   0  0  0  0  0  0  0  0  0  0  0  0
    1.9850   -1.7270    2.8630 O   0  0  0  0  0  0  0  0  0  0  0  0
  1  2  1  0
  2  3  2  0
  2 17  1  0
  3  4  1  0
  3  5  1  0
  5  6  1  0
  5 10  2  0
  6  7  1  1
  6  8  1  0
  6  9  1  0
 10 11  1  0
 10 17  1  0
 11 12  1  0
 11 13  1  0
 13 14  2  0
 13 15  1  0
 15 16  1  0
 16 17  1  0
 17 18  1  1
 18 19  1  0
 19 20  1  0
M  CHG  1  13   1
M  END
