
     RDKit          3D

 25 27  0  0  0  0  0  0  0  0999 V2000
   -6.2440    0.4990   -1.6570 C   0  0  0  0  0  0  0  0  0  0  0  0
   -5.1770   -0.1970   -1.8360 N   0  0  0  0  0  0  0  0  0  0  0  0
   -4.5210   -0.8970   -0.7930 C   0  0  0  0  0  0  0  0  0  0  0  0
   -4.9170   -2.1090   -0.4640 C   0  0  0  0  0  0  0  0  0  0  0  0
   -3.4470   -0.2390   -0.1430 N   0  0  0  0  0  0  0  0  0  0  0  0
   -3.3730   -0.2990    1.2840 C   0  0  0  0  0  0  0  0  0  0  0  0
   -2.6110    0.9400    1.7360 C   0  0  0  0  0  0  0  0  0  0  0  0
   -1.2300    0.8430    1.1510 C   0  0  0  0  0  0  0  0  0  0  0  0
   -1.1800    0.7070   -0.3270 C   0  0  1  0  0  0  0  0  0  0  0  0
   -0.6960    1.9290   -0.8490 O   0  0  0  0  0  0  0  0  0  0  0  0
   -0.1420   -0.3350   -0.6880 C   0  0  0  0  0  0  0  0  0  0  0  0
    1.1730    0.1600   -0.1450 C   0  0  0  0  0  0  0  0  0  0  0  0
    1.4250    1.2900    0.5290 N   0  0  0  0  0  0  0  0  0  0  0  0
    2.6910    1.3780    0.8390 N   0  0  0  0  0  0  0  0  0  0  0  0
    3.2730    0.2740    0.3520 C   0  0  0  0  0  0  0  0  0  0  0  0
    4.6860   -0.0340    0.4730 C   0  0  0  0  0  0  0  0  0  0  0  0
    5.5220    0.8320    1.1220 C   0  0  0  0  0  0  0  0  0  0  0  0
    6.8660    0.5620    1.2510 C   0  0  0  0  0  0  0  0  0  0  0  0
    7.3550   -0.6110    0.7070 C   0  0  0  0  0  0  0  0  0  0  0  0
    9.0510   -0.9380    0.8770 Cl  0  0  0  0  0  0  0  0  0  0  0  0
    6.5140   -1.4800    0.0550 C   0  0  0  0  0  0  0  0  0  0  0  0
    5.1830   -1.1930   -0.0620 C   0  0  0  0  0  0  0  0  0  0  0  0
    4.1120   -2.2970   -0.8910 Cl  0  0  0  0  0  0  0  0  0  0  0  0
    2.3300   -0.4520   -0.2430 O   0  0  0  0  0  0  0  0  0  0  0  0
   -2.4990    0.4510   -0.9840 C   0  0  0  0  0  0  0  0  0  0  0  0
  1  2  2  0
  2  3  1  0
  3  4  2  0
  3  5  1  0
  5  6  1  0
  5 25  1  0
  6  7  1  0
  7  8  1  0
  8  9  1  0
  9 10  1  6
  9 11  1  0
  9 25  1  0
 11 12  1  0
 12 13  2  0
 12 24  1  0
 13 14  1  0
 14 15  2  0
 15 16  1  0
 15 24  1  0
 16 17  2  0
 16 22  1  0
 17 18  1  0
 18 19  2  0
 19 20  1  0
 19 21  1  0
 21 22  2  0
 22 23  1  0
M  END
