
     RDKit          3D

 16 17  0  0  0  0  0  0  0  0999 V2000
   -4.6180   -0.3280   -0.8730 C   0  0  0  0  0  0  0  0  0  0  0  0
   -3.4480   -1.0510   -1.5550 C   0  0  0  0  0  0  0  0  0  0  0  0
   -2.1940   -0.6600   -1.2000 N   0  0  0  0  0  0  0  0  0  0  0  0
   -0.9350   -0.2670   -0.8430 C   0  0  0  0  0  0  0  0  0  0  0  0
   -0.3270   -0.2500    0.3160 N   0  0  0  0  0  0  0  0  0  0  0  0
    0.9520    0.1770    0.5420 C   0  0  0  0  0  0  0  0  0  0  0  0
    1.4720    0.1490    1.8060 N   0  0  0  0  0  0  0  0  0  0  0  0
    2.7210    0.5650    2.0480 C   0  0  0  0  0  0  0  0  0  0  0  0
    3.3250    0.5510    3.4190 C   0  0  0  0  0  0  0  0  0  0  0  0
    3.4520    1.0210    0.9600 C   0  0  0  0  0  0  0  0  0  0  0  0
    2.9520    1.0600   -0.3160 C   0  0  0  0  0  0  0  0  0  0  0  0
    1.6610    0.6240   -0.5300 C   0  0  0  0  0  0  0  0  0  0  0  0
    1.1090    0.6450   -1.7950 C   0  0  0  0  0  0  0  0  0  0  0  0
    1.8160    1.0720   -2.7770 O   0  0  0  0  0  0  0  0  0  0  0  0
   -0.1580    0.2110   -1.9510 C   0  0  0  0  0  0  0  0  0  0  0  0
   -0.8640    0.2330   -3.5520 Cl  0  0  0  0  0  0  0  0  0  0  0  0
  1  2  1  0
  2  3  1  0
  3  4  1  0
  4  5  1  0
  4 15  2  0
  5  6  1  0
  6  7  2  0
  6 12  1  0
  7  8  1  0
  8  9  1  0
  8 10  2  0
 10 11  1  0
 11 12  2  0
 12 13  1  0
 13 14  2  0
 13 15  1  0
 15 16  1  0
M  END
