
     RDKit          3D

 25 26  0  0  0  0  0  0  0  0999 V2000
    5.9450    0.7520   -1.7410 C   0  0  0  0  0  0  0  0  0  0  0  0
    4.4680    0.8000   -1.3680 C   0  0  0  0  0  0  0  0  0  0  0  0
    4.2270   -0.2920   -0.3690 C   0  0  0  0  0  0  0  0  0  0  0  0
    2.8320   -0.3820    0.0980 C   0  0  0  0  0  0  0  0  0  0  0  0
    2.4730    0.0650    1.3200 N   0  0  0  0  0  0  0  0  0  0  0  0
    1.1940   -0.0050    1.7830 C   0  0  0  0  0  0  0  0  0  0  0  0
    0.1830   -0.5430    1.0190 C   0  0  0  0  0  0  0  0  0  0  0  0
   -1.1140   -0.6010    1.5180 N   0  0  0  0  0  0  0  0  0  0  0  0
   -2.1960   -0.1830    0.9860 C   0  0  0  0  0  0  0  0  0  0  0  0
   -3.3960   -0.3900    1.7570 N   0  0  0  0  0  0  0  0  0  0  0  0
   -3.3190   -0.7280    3.1180 C   0  0  0  0  0  0  0  0  0  0  0  0
   -2.9000   -2.0890    3.5010 C   0  0  0  0  0  0  0  0  0  0  0  0
   -3.6150    0.1540    4.0360 C   0  0  0  0  0  0  0  0  0  0  0  0
   -3.5420   -0.1960    5.7540 Cl  0  0  0  0  0  0  0  0  0  0  0  0
   -4.1080    1.7610    3.5090 Cl  0  0  0  0  0  0  0  0  0  0  0  0
   -2.3430    0.4530   -0.2580 N   0  0  0  0  0  0  0  0  0  0  0  0
   -1.5750    1.6240   -0.6570 C   0  0  0  0  0  0  0  0  0  0  0  0
   -1.5430    1.6210   -2.1710 C   0  0  0  0  0  0  0  0  0  0  0  0
   -2.8010    1.8610   -2.6930 O   0  0  0  0  0  0  0  0  0  0  0  0
   -3.8090    1.1970   -2.0140 C   0  0  0  0  0  0  0  0  0  0  0  0
   -3.3000   -0.0200   -1.2710 C   0  0  0  0  0  0  0  0  0  0  0  0
    0.5340   -1.0040   -0.2290 C   0  0  0  0  0  0  0  0  0  0  0  0
   -0.3140   -1.5100   -0.9970 O   0  0  0  0  0  0  0  0  0  0  0  0
    1.8530   -0.9290   -0.7000 C   0  0  0  0  0  0  0  0  0  0  0  0
    2.1390   -1.4550   -2.0780 C   0  0  0  0  0  0  0  0  0  0  0  0
  1  2  1  0
  2  3  1  0
  3  4  1  0
  4  5  1  0
  4 24  2  0
  5  6  1  0
  6  7  2  0
  7  8  1  0
  7 22  1  0
  8  9  2  3
  9 10  1  0
  9 16  1  0
 10 11  1  0
 11 12  1  0
 11 13  2  3
 13 14  1  0
 13 15  1  0
 16 17  1  0
 16 21  1  0
 17 18  1  0
 18 19  1  0
 19 20  1  0
 20 21  1  0
 22 23  2  0
 22 24  1  0
 24 25  1  0
M  END
