
     RDKit          3D

 25 27  0  0  0  0  0  0  0  0999 V2000
    6.3400   -0.1110   -1.2680 C   0  0  0  0  0  0  0  0  0  0  0  0
    6.5530    0.1820    0.1800 C   0  0  0  0  0  0  0  0  0  0  0  0
    5.6720    1.1570    0.6760 O   0  0  0  0  0  0  0  0  0  0  0  0
    4.3050    1.0180    0.6830 C   0  0  0  0  0  0  0  0  0  0  0  0
    3.6780   -0.1060    0.2050 C   0  0  0  0  0  0  0  0  0  0  0  0
    2.2820   -0.2120    0.2300 C   0  0  0  0  0  0  0  0  0  0  0  0
    1.5180    0.8140    0.7370 C   0  0  0  0  0  0  0  0  0  0  0  0
    2.1700    1.9270    1.2090 C   0  0  0  0  0  0  0  0  0  0  0  0
    1.2360    3.2560    1.8620 Cl  0  0  0  0  0  0  0  0  0  0  0  0
    3.5450    2.0560    1.1950 C   0  0  0  0  0  0  0  0  0  0  0  0
    4.2920    3.5130    1.8190 Cl  0  0  0  0  0  0  0  0  0  0  0  0
    0.0150    0.7120    0.7690 C   0  0  0  0  0  0  0  0  0  0  0  0
   -0.4370   -0.0900   -0.3510 N   0  0  0  0  0  0  0  0  0  0  0  0
   -1.8030    0.0260   -0.7300 C   0  0  0  0  0  0  0  0  0  0  0  0
   -2.0770    0.4470   -1.9750 N   0  0  0  0  0  0  0  0  0  0  0  0
   -3.3680    0.5580   -2.3360 C   0  0  0  0  0  0  0  0  0  0  0  0
   -4.3410    0.2500   -1.4560 N   0  0  0  0  0  0  0  0  0  0  0  0
   -4.0910   -0.1700   -0.2140 C   0  0  0  0  0  0  0  0  0  0  0  0
   -5.0760   -0.4930    0.7060 O   0  0  0  0  0  0  0  0  0  0  0  0
   -6.4370   -0.3670    0.2980 C   0  0  0  0  0  0  0  0  0  0  0  0
   -7.3510   -0.7670    1.4490 C   0  0  0  0  0  0  0  0  0  0  0  0
   -2.7630   -0.3000    0.2040 C   0  0  0  0  0  0  0  0  0  0  0  0
   -2.4410   -0.7410    1.5080 N   0  0  0  0  0  0  0  0  0  0  0  0
    0.4080   -0.9820   -1.0890 C   0  0  0  0  0  0  0  0  0  0  0  0
    1.6260   -1.4140   -0.2830 C   0  0  0  0  0  0  0  0  0  0  0  0
  1  2  1  0
  2  3  1  0
  3  4  1  0
  4  5  2  0
  4 10  1  0
  5  6  1  0
  6  7  2  0
  6 25  1  0
  7  8  1  0
  7 12  1  0
  8  9  1  0
  8 10  2  0
 10 11  1  0
 12 13  1  0
 13 14  1  0
 13 24  1  0
 14 15  2  0
 14 22  1  0
 15 16  1  0
 16 17  2  0
 17 18  1  0
 18 19  1  0
 18 22  2  0
 19 20  1  0
 20 21  1  0
 22 23  1  0
 24 25  1  0
M  END
