
     RDKit          3D

 25 27  0  0  0  0  0  0  0  0999 V2000
   -8.4560    0.1160   -2.4580 O   0  0  0  0  0  0  0  0  0  0  0  0
   -7.7800    0.0580   -1.4050 C   0  0  0  0  0  0  0  0  0  0  0  0
   -8.6460   -0.0610    0.1060 Cl  0  0  0  0  0  0  0  0  0  0  0  0
   -6.3390    0.0890   -1.4780 C   0  0  0  0  0  0  0  0  0  0  0  0
   -5.5550    0.0310   -0.4080 C   0  0  0  0  0  0  0  0  0  0  0  0
   -4.1200    0.0680   -0.5580 C   0  0  0  0  0  0  0  0  0  0  0  0
   -3.2940    0.0130    0.4660 C   0  0  0  0  0  0  0  0  0  0  0  0
   -3.7300   -0.0850    1.7940 N   0  0  0  0  0  0  0  0  0  0  0  0
   -2.8040   -0.1430    2.9000 C   0  0  0  0  0  0  0  0  0  0  0  0
   -3.2100   -0.2310    4.0830 O   0  0  0  0  0  0  0  0  0  0  0  0
   -1.4290   -0.0970    2.5820 N   0  0  0  0  0  0  0  0  0  0  0  0
   -0.9640    0.0030    1.2300 C   0  0  0  0  0  0  0  0  0  0  0  0
    0.3780    0.0460    0.9360 C   0  0  0  0  0  0  0  0  0  0  0  0
    0.8430    0.1410   -0.3500 C   0  0  0  0  0  0  0  0  0  0  0  0
    2.2490    0.1800   -0.5690 N   0  0  0  0  0  0  0  0  0  0  0  0
    2.6510    0.2640   -1.9630 C   0  0  0  0  0  0  0  0  0  0  0  0
    4.1020   -0.0060   -2.1380 C   0  0  0  0  0  0  0  0  0  0  0  0
    4.9480    0.6620   -1.0850 C   0  0  0  0  0  0  0  0  0  0  0  0
    4.5680    0.2520    0.3070 C   0  0  2  0  0  0  0  0  0  0  0  0
    5.2050   -1.1050    0.6360 C   0  0  0  0  0  0  0  0  0  0  0  0
    6.9580   -1.0360    0.5380 Cl  0  0  0  0  0  0  0  0  0  0  0  0
    3.1180    0.1370    0.5550 C   0  0  0  0  0  0  0  0  0  0  0  0
   -0.0960    0.1930   -1.3480 C   0  0  0  0  0  0  0  0  0  0  0  0
   -1.4170    0.1530   -1.0990 N   0  0  0  0  0  0  0  0  0  0  0  0
   -1.8440    0.0580    0.1800 C   0  0  0  0  0  0  0  0  0  0  0  0
  1  2  2  0
  2  3  1  0
  2  4  1  0
  4  5  2  3
  5  6  1  0
  6  7  2  3
  7  8  1  0
  7 25  1  0
  8  9  1  0
  9 10  2  0
  9 11  1  0
 11 12  1  0
 12 13  2  0
 12 25  1  0
 13 14  1  0
 14 15  1  0
 14 23  2  0
 15 16  1  0
 15 22  1  0
 16 17  1  0
 17 18  1  0
 18 19  1  0
 19 20  1  6
 19 22  1  0
 20 21  1  0
 23 24  1  0
 24 25  2  0
M  END
