
     RDKit          3D

 25 27  0  0  0  0  0  0  0  0999 V2000
   -6.4230   -0.5740   -1.6990 C   0  0  0  0  0  0  0  0  0  0  0  0
   -5.6960   -0.3080   -0.4370 C   0  0  0  0  0  0  0  0  0  0  0  0
   -6.1580   -0.5110    0.8070 N   0  0  0  0  0  0  0  0  0  0  0  0
   -5.2600   -0.1700    1.6740 O   0  0  0  0  0  0  0  0  0  0  0  0
   -4.1670    0.2720    1.0320 C   0  0  0  0  0  0  0  0  0  0  0  0
   -2.9940    0.7290    1.7690 C   0  0  0  0  0  0  0  0  0  0  0  0
   -4.3990    0.2020   -0.2930 C   0  0  0  0  0  0  0  0  0  0  0  0
   -3.5930    0.5750   -1.4470 C   0  0  0  0  0  0  0  0  0  0  0  0
   -2.2630    1.0260   -1.2190 N   0  0  0  0  0  0  0  0  0  0  0  0
   -1.2690    0.1050   -0.7180 C   0  0  0  0  0  0  0  0  0  0  0  0
   -1.6600   -1.0690   -0.5180 O   0  0  0  0  0  0  0  0  0  0  0  0
    0.0650    0.5000   -0.4680 N   0  0  0  0  0  0  0  0  0  0  0  0
    1.0770   -0.3190    0.0210 C   0  0  0  0  0  0  0  0  0  0  0  0
    0.8870   -1.5540    0.5650 C   0  0  0  0  0  0  0  0  0  0  0  0
    2.0060   -2.2570    0.9880 C   0  0  0  0  0  0  0  0  0  0  0  0
    3.2550   -1.7960    0.8940 N   0  0  0  0  0  0  0  0  0  0  0  0
    3.4780   -0.5630    0.3540 C   0  0  0  0  0  0  0  0  0  0  0  0
    4.8560   -0.0920    0.2640 C   0  0  0  0  0  0  0  0  0  0  0  0
    5.9240   -0.7860    0.6730 C   0  0  0  0  0  0  0  0  0  0  0  0
    7.1690   -0.0540    0.4530 C   0  0  0  0  0  0  0  0  0  0  0  0
    6.7050    1.2080   -0.1590 C   0  0  0  0  0  0  0  0  0  0  0  0
    7.7610    2.5380   -0.6660 Cl  0  0  0  0  0  0  0  0  0  0  0  0
    5.3800    1.1550   -0.2530 C   0  0  0  0  0  0  0  0  0  0  0  0
    4.4710    2.4940   -0.9400 Cl  0  0  0  0  0  0  0  0  0  0  0  0
    2.3960    0.1520   -0.0710 C   0  0  0  0  0  0  0  0  0  0  0  0
  1  2  1  0
  2  3  2  0
  2  7  1  0
  3  4  1  0
  4  5  1  0
  5  6  1  0
  5  7  2  0
  7  8  1  0
  8  9  1  0
  9 10  1  0
 10 11  2  0
 10 12  1  0
 12 13  1  0
 13 14  2  0
 13 25  1  0
 14 15  1  0
 15 16  2  0
 16 17  1  0
 17 18  1  0
 17 25  2  0
 18 19  2  0
 18 23  1  0
 19 20  1  0
 20 21  1  0
 21 22  1  0
 21 23  2  0
 23 24  1  0
M  END
