
     RDKit          3D

 16 17  0  0  0  0  0  0  0  0999 V2000
    3.2130    1.8210    1.1200 C   0  0  0  0  0  0  0  0  0  0  0  0
    2.7640    0.5110    0.6080 C   0  0  0  0  0  0  0  0  0  0  0  0
    3.1760    0.0960   -0.4920 O   0  0  0  0  0  0  0  0  0  0  0  0
    1.8490   -0.3340    1.3370 N   0  0  0  0  0  0  0  0  0  0  0  0
    1.4150   -1.5320    0.9070 N   0  0  0  0  0  0  0  0  0  0  0  0
    0.4720   -2.0020    0.2430 C   0  0  0  0  0  0  0  0  0  0  0  0
    0.5050   -3.5270    0.0670 C   0  0  0  0  0  0  0  0  0  0  0  0
   -0.6570   -1.2820   -0.3680 C   0  0  0  0  0  0  0  0  0  0  0  0
   -1.6830   -1.8510   -1.1150 C   0  0  0  0  0  0  0  0  0  0  0  0
   -1.8030   -3.5840   -1.4570 Cl  0  0  0  0  0  0  0  0  0  0  0  0
   -2.5460   -0.9140   -1.5260 N   0  0  0  0  0  0  0  0  0  0  0  0
   -2.1010    0.2800   -1.0580 C   0  0  0  0  0  0  0  0  0  0  0  0
   -0.9440    0.0820   -0.3410 C   0  0  0  0  0  0  0  0  0  0  0  0
   -0.4670    1.3910    0.2010 C   0  0  0  0  0  0  0  0  0  0  0  0
   -1.6760    2.3060    0.0570 C   0  0  0  0  0  0  0  0  0  0  0  0
   -2.4200    1.7250   -1.0730 C   0  0  0  0  0  0  0  0  0  0  0  0
  1  2  1  0
  2  3  2  0
  2  4  1  0
  4  5  1  0
  5  6  2  3
  6  7  1  0
  6  8  1  0
  8  9  2  0
  8 13  1  0
  9 10  1  0
  9 11  1  0
 11 12  1  0
 12 13  2  0
 12 16  1  0
 13 14  1  0
 14 15  1  0
 15 16  1  0
M  END
