
     RDKit          3D

 25 27  0  0  0  0  0  0  0  0999 V2000
   -5.9910    1.9890    0.6750 C   0  0  0  0  0  0  0  0  0  0  0  0
   -4.7040    1.2830    0.6310 C   0  0  0  0  0  0  0  0  0  0  0  0
   -4.5100    0.0830    0.1200 C   0  0  0  0  0  0  0  0  0  0  0  0
   -3.2750   -0.6830    0.0360 C   0  0  0  0  0  0  0  0  0  0  0  0
   -1.9770   -0.1600    0.5270 C   0  0  0  0  0  0  0  0  0  0  0  0
   -0.7690   -0.3640   -0.0150 N   0  0  0  0  0  0  0  0  0  0  0  0
    0.1140    0.2910    0.7530 C   0  0  0  0  0  0  0  0  0  0  0  0
    1.5620    0.3810    0.5940 C   0  0  0  0  0  0  0  0  0  0  0  0
    2.2460   -0.2370   -0.4230 C   0  0  0  0  0  0  0  0  0  0  0  0
    3.6360   -0.1540   -0.5760 C   0  0  0  0  0  0  0  0  0  0  0  0
    4.3490    0.5680    0.3190 C   0  0  0  0  0  0  0  0  0  0  0  0
    5.7410    0.7230    0.2720 N   0  0  0  0  0  0  0  0  0  0  0  0
    6.6110    0.1750   -0.6830 C   0  0  0  0  0  0  0  0  0  0  0  0
    8.0830    0.4700   -0.5420 C   0  0  0  0  0  0  0  0  0  0  0  0
    6.1950   -0.5370   -1.6240 O   0  0  0  0  0  0  0  0  0  0  0  0
    3.6750    1.2050    1.3620 C   0  0  0  0  0  0  0  0  0  0  0  0
    2.3000    1.1110    1.4960 C   0  0  0  0  0  0  0  0  0  0  0  0
   -0.5820    0.8720    1.7360 N   0  0  0  0  0  0  0  0  0  0  0  0
   -1.8210    0.5900    1.5810 O   0  0  0  0  0  0  0  0  0  0  0  0
   -3.5050   -1.8610   -0.5190 C   0  0  0  0  0  0  0  0  0  0  0  0
   -2.4410   -2.8700   -0.7420 C   0  0  0  0  0  0  0  0  0  0  0  0
   -4.8830   -1.9790   -0.8460 N   0  0  0  0  0  0  0  0  0  0  0  0
   -5.5760   -0.7450   -0.4930 C   0  0  2  0  0  0  0  0  0  0  0  0
   -6.3190    0.0020   -1.9140 Cl  0  0  0  0  0  0  0  0  0  0  0  0
   -6.8470   -1.0880    0.7080 Cl  0  0  0  0  0  0  0  0  0  0  0  0
  1  2  1  0
  2  3  2  3
  3  4  1  0
  3 23  1  0
  4  5  1  0
  4 20  2  0
  5  6  2  0
  5 19  1  0
  6  7  1  0
  7  8  1  0
  7 18  2  0
  8  9  2  0
  8 17  1  0
  9 10  1  0
 10 11  2  0
 11 12  1  0
 11 16  1  0
 12 13  1  0
 13 14  1  0
 13 15  2  0
 16 17  2  0
 18 19  1  0
 20 21  1  0
 20 22  1  0
 22 23  1  0
 23 24  1  6
 23 25  1  0
M  END
