
     RDKit          3D

 29 31  0  0  0  0  0  0  0  0999 V2000
    4.8780   -2.5130    0.5080 C   0  0  0  0  0  0  0  0  0  0  0  0
    4.9440   -1.1500    0.5780 N   0  0  0  0  0  0  0  0  0  0  0  0
    4.2320   -0.1570    0.6000 C   0  0  0  0  0  0  0  0  0  0  0  0
    4.9230    1.1070    0.6890 O   0  0  0  0  0  0  0  0  0  0  0  0
    6.2550    1.0980    0.2190 C   0  0  0  0  0  0  0  0  0  0  0  0
    6.2730    0.7250   -1.2230 C   0  0  0  0  0  0  0  0  0  0  0  0
    5.4590    1.7520   -2.0080 C   0  0  0  0  0  0  0  0  0  0  0  0
    5.9840    3.0250   -1.8660 O   0  0  0  0  0  0  0  0  0  0  0  0
    2.7720   -0.1110    0.5470 C   0  0  0  0  0  0  0  0  0  0  0  0
    2.0660   -1.1990    0.4610 C   0  0  0  0  0  0  0  0  0  0  0  0
    0.5690   -1.1420    0.4080 C   0  0  0  0  0  0  0  0  0  0  0  0
   -0.1310   -2.4060    0.3120 C   0  0  0  0  0  0  0  0  0  0  0  0
   -1.3700   -2.4450    0.2630 O   0  0  0  0  0  0  0  0  0  0  0  0
    0.5450   -3.6190    0.2720 O   0  0  0  0  0  0  0  0  0  0  0  0
   -0.1010   -4.8640    0.1790 C   0  0  0  0  0  0  0  0  0  0  0  0
   -0.0780   -0.0080    0.4450 C   0  0  0  0  0  0  0  0  0  0  0  0
   -1.4870    0.0780    0.3970 N   0  0  0  0  0  0  0  0  0  0  0  0
   -2.2250    0.0200    1.6620 C   0  0  0  0  0  0  0  0  0  0  0  0
   -3.0010    1.3090    1.8710 C   0  0  0  0  0  0  0  0  0  0  0  0
   -3.0960    2.1080    0.6170 C   0  0  0  0  0  0  0  0  0  0  0  0
   -3.3600    1.2790   -0.6040 C   0  0  2  0  0  0  0  0  0  0  0  0
   -4.6820    0.5990   -0.4810 C   0  0  1  0  0  0  0  0  0  0  0  0
   -5.8210    1.5850   -0.3360 C   0  0  0  0  0  0  0  0  0  0  0  0
   -7.0180    0.6820   -0.6660 C   0  0  0  0  0  0  0  0  0  0  0  0
   -6.3760   -0.4050   -1.4670 C   0  0  0  0  0  0  0  0  0  0  0  0
   -5.0430   -0.0600   -1.6620 O   0  0  0  0  0  0  0  0  0  0  0  0
   -2.2480    0.2690   -0.8500 C   0  0  0  0  0  0  0  0  0  0  0  0
    0.7100    1.2070    0.5410 N   0  0  0  0  0  0  0  0  0  0  0  0
    2.1310    1.2400    0.6050 C   0  0  0  0  0  0  0  0  0  0  0  0
  1  2  1  0
  2  3  2  3
  3  4  1  0
  3  9  1  0
  4  5  1  0
  5  6  1  0
  6  7  1  0
  7  8  1  0
  9 10  2  0
  9 29  1  0
 10 11  1  0
 11 12  1  0
 11 16  2  0
 12 13  2  0
 12 14  1  0
 14 15  1  0
 16 17  1  0
 16 28  1  0
 17 18  1  0
 17 27  1  0
 18 19  1  0
 19 20  1  0
 21 20  1  1
 21 22  1  0
 21 27  1  0
 22 23  1  6
 22 26  1  0
 23 24  1  0
 24 25  1  0
 25 26  1  0
 28 29  1  0
M  END
