
     RDKit          3D

 30 32  0  0  0  0  0  0  0  0999 V2000
   -6.6360    2.1100   -2.7000 C   0  0  0  0  0  0  0  0  0  0  0  0
   -5.7960    2.4610   -1.6240 O   0  0  0  0  0  0  0  0  0  0  0  0
   -5.8990    1.8600   -0.3860 C   0  0  0  0  0  0  0  0  0  0  0  0
   -6.4510    2.5000    0.6080 C   0  0  0  0  0  0  0  0  0  0  0  0
   -6.5760    1.9380    1.8660 O   0  0  0  0  0  0  0  0  0  0  0  0
   -6.1190    0.6570    2.1420 C   0  0  0  0  0  0  0  0  0  0  0  0
   -5.4990   -0.0450    0.9990 C   0  0  0  0  0  0  0  0  0  0  0  0
   -5.3980    0.5260   -0.1890 C   0  0  0  0  0  0  0  0  0  0  0  0
   -4.7990   -0.1910   -1.2370 O   0  0  0  0  0  0  0  0  0  0  0  0
   -3.3960   -0.0110   -1.4890 C   0  0  0  0  0  0  0  0  0  0  0  0
   -2.6910   -0.4170   -0.2280 C   0  0  0  0  0  0  0  0  0  0  0  0
   -1.2050   -0.2910   -0.3140 C   0  0  0  0  0  0  0  0  0  0  0  0
   -0.5200   -0.7060    0.9710 C   0  0  0  0  0  0  0  0  0  0  0  0
    0.9530   -0.5780    0.8710 C   0  0  0  0  0  0  0  0  0  0  0  0
    1.4220   -0.1490   -0.2040 O   0  0  0  0  0  0  0  0  0  0  0  0
    1.8210   -0.9160    1.9240 N   0  0  0  0  0  0  0  0  0  0  0  0
    1.1970   -1.4050    3.1650 C   0  0  0  0  0  0  0  0  0  0  0  0
    2.2480   -2.1880    3.9580 C   0  0  0  0  0  0  0  0  0  0  0  0
    3.0820   -3.0380    3.0200 C   0  0  0  0  0  0  0  0  0  0  0  0
    3.8060   -2.2440    1.9720 C   0  0  0  0  0  0  0  0  0  0  0  0
    3.2480   -0.8380    1.9430 C   0  0  1  0  0  0  0  0  0  0  0  0
    3.8450   -0.0460    0.8390 C   0  0  0  0  0  0  0  0  0  0  0  0
    4.2150    1.1260    1.0960 O   0  0  0  0  0  0  0  0  0  0  0  0
    4.0340   -0.5030   -0.4790 N   0  0  0  0  0  0  0  0  0  0  0  0
    4.6030    0.2610   -1.5250 C   0  0  0  0  0  0  0  0  0  0  0  0
    5.7000   -0.1260   -2.1490 C   0  0  0  0  0  0  0  0  0  0  0  0
    6.2990    0.6050   -3.1960 N   0  0  0  0  0  0  0  0  0  0  0  0
    5.7710    1.8470   -3.6650 C   0  0  0  0  0  0  0  0  0  0  0  0
    4.5510    2.2350   -2.9420 C   0  0  0  0  0  0  0  0  0  0  0  0
    4.0190    1.5200   -1.9720 C   0  0  0  0  0  0  0  0  0  0  0  0
  1  2  1  0
  2  3  1  0
  3  4  2  0
  3  8  1  0
  4  5  1  0
  5  6  1  0
  6  7  1  0
  7  8  2  0
  8  9  1  0
  9 10  1  0
 10 11  1  0
 11 12  1  0
 12 13  1  0
 13 14  1  0
 14 15  2  0
 14 16  1  0
 16 17  1  0
 16 21  1  0
 17 18  1  0
 18 19  1  0
 19 20  1  0
 20 21  1  0
 21 22  1  6
 22 23  2  0
 22 24  1  0
 24 25  1  0
 25 26  2  0
 25 30  1  0
 26 27  1  0
 27 28  1  0
 28 29  1  0
 29 30  2  0
M  END
