
     RDKit          3D

 30 32  0  0  0  0  0  0  0  0999 V2000
   -4.4570   -4.9330    0.9770 C   0  0  0  0  0  0  0  0  0  0  0  0
   -4.1960   -3.4430    0.7180 C   0  0  0  0  0  0  0  0  0  0  0  0
   -2.7700   -3.3760    0.1750 C   0  0  0  0  0  0  0  0  0  0  0  0
   -2.4630   -2.0540   -0.0840 O   0  0  0  0  0  0  0  0  0  0  0  0
   -1.2800   -1.5690   -0.5810 C   0  0  0  0  0  0  0  0  0  0  0  0
   -0.2620   -2.5120   -0.8610 C   0  0  0  0  0  0  0  0  0  0  0  0
    0.9480   -2.1000   -1.3610 C   0  0  0  0  0  0  0  0  0  0  0  0
    1.2070   -0.7680   -1.6040 C   0  0  0  0  0  0  0  0  0  0  0  0
    2.7350   -0.2370   -2.2370 S   0  0  1  0  0  0  0  0  0  0  0  0
    3.2220   -1.3070   -3.2030 O   0  0  0  0  0  0  0  0  0  0  0  0
    2.4530    1.0050   -3.0740 O   0  0  0  0  0  0  0  0  0  0  0  0
    3.9050    0.1410   -1.1070 N   0  0  0  0  0  0  0  0  0  0  0  0
    3.4770    1.2230   -0.2730 C   0  0  0  0  0  0  0  0  0  0  0  0
    4.5200    1.6640    0.7120 C   0  0  0  0  0  0  0  0  0  0  0  0
    4.8530    0.5360    1.5240 N   0  0  0  0  0  0  0  0  0  0  0  0
    3.9540    0.2930    2.6070 C   0  0  0  0  0  0  0  0  0  0  0  0
    5.2710   -0.6090    0.8080 C   0  0  0  0  0  0  0  0  0  0  0  0
    4.5870   -0.9160   -0.4680 C   0  0  0  0  0  0  0  0  0  0  0  0
    0.1990    0.1110   -1.3210 C   0  0  0  0  0  0  0  0  0  0  0  0
   -1.0610   -0.2500   -0.8070 C   0  0  0  0  0  0  0  0  0  0  0  0
   -2.0280    0.8040   -0.5590 C   0  0  0  0  0  0  0  0  0  0  0  0
   -1.7130    2.0940   -0.8130 N   0  0  0  0  0  0  0  0  0  0  0  0
   -2.5930    3.0690   -0.5880 C   0  0  0  0  0  0  0  0  0  0  0  0
   -2.2750    4.5120   -0.8600 C   0  0  0  0  0  0  0  0  0  0  0  0
   -2.0090    5.1590    0.4920 C   0  0  0  0  0  0  0  0  0  0  0  0
   -3.8440    2.8110   -0.0930 C   0  0  0  0  0  0  0  0  0  0  0  0
   -5.0030    4.0870    0.2040 Cl  0  0  0  0  0  0  0  0  0  0  0  0
   -4.1810    1.5150    0.1700 C   0  0  0  0  0  0  0  0  0  0  0  0
   -5.3030    1.1840    0.6250 O   0  0  0  0  0  0  0  0  0  0  0  0
   -3.2340    0.5580   -0.0820 N   0  0  0  0  0  0  0  0  0  0  0  0
  1  2  1  0
  2  3  1  0
  3  4  1  0
  4  5  1  0
  5  6  2  0
  5 20  1  0
  6  7  1  0
  7  8  2  0
  8  9  1  0
  8 19  1  0
  9 10  2  0
  9 11  2  0
  9 12  1  1
 12 13  1  0
 12 18  1  0
 13 14  1  0
 14 15  1  0
 15 16  1  0
 15 17  1  0
 17 18  1  0
 19 20  2  0
 20 21  1  0
 21 22  2  0
 21 30  1  0
 22 23  1  0
 23 24  1  0
 23 26  2  0
 24 25  1  0
 26 27  1  0
 26 28  1  0
 28 29  2  0
 28 30  1  0
M  END
