
     RDKit          3D

 29 31  0  0  0  0  0  0  0  0999 V2000
   -6.4040    2.4500    0.9480 C   0  0  0  0  0  0  0  0  0  0  0  0
   -4.9960    2.4140    1.5270 C   0  0  0  0  0  0  0  0  0  0  0  0
   -4.0790    1.9580    0.4840 C   0  0  0  0  0  0  0  0  0  0  0  0
   -3.2810    0.8800    0.5540 C   0  0  0  0  0  0  0  0  0  0  0  0
   -3.3160    0.0800    1.7700 C   0  0  0  0  0  0  0  0  0  0  0  0
   -2.3790    0.6520   -0.5410 C   0  0  0  0  0  0  0  0  0  0  0  0
   -1.5330   -0.2640   -0.8290 C   0  0  0  0  0  0  0  0  0  0  0  0
   -0.6020   -0.0320   -2.3880 S   0  0  0  0  0  0  0  0  0  0  0  0
    0.0650   -1.5990   -2.9480 C   0  0  0  0  0  0  0  0  0  0  0  0
   -1.4190   -1.5640   -0.2590 C   0  0  0  0  0  0  0  0  0  0  0  0
   -2.5590   -2.3040    0.0590 C   0  0  0  0  0  0  0  0  0  0  0  0
   -2.4480   -3.5280    0.6500 C   0  0  0  0  0  0  0  0  0  0  0  0
   -1.2300   -4.0730    0.9520 C   0  0  0  0  0  0  0  0  0  0  0  0
   -0.0970   -3.3160    0.6270 C   0  0  0  0  0  0  0  0  0  0  0  0
   -0.1510   -2.0790    0.0330 C   0  0  0  0  0  0  0  0  0  0  0  0
    0.9680   -1.2770   -0.2160 N   0  0  0  0  0  0  0  0  0  0  0  0
    2.3360   -1.6310   -0.1480 C   0  0  0  0  0  0  0  0  0  0  0  0
    2.6360   -2.7990    0.1670 O   0  0  0  0  0  0  0  0  0  0  0  0
    3.3990   -0.6380   -0.4440 C   0  0  0  0  0  0  0  0  0  0  0  0
    3.3000    0.6740   -0.0890 C   0  0  0  0  0  0  0  0  0  0  0  0
    4.3520    1.5250   -0.4120 C   0  0  0  0  0  0  0  0  0  0  0  0
    5.4820    1.1040   -1.0700 C   0  0  0  0  0  0  0  0  0  0  0  0
    5.5460   -0.1980   -1.4050 N   0  0  0  0  0  0  0  0  0  0  0  0
    4.5420   -1.0400   -1.1030 C   0  0  0  0  0  0  0  0  0  0  0  0
    4.7070   -2.2470   -1.4670 O   0  0  0  0  0  0  0  0  0  0  0  0
    6.4070    2.2330   -1.2660 C   0  0  0  0  0  0  0  0  0  0  0  0
    5.7550    3.3800   -0.6760 N   0  0  0  0  0  0  0  0  0  0  0  0
    4.5110    2.9500   -0.1590 C   0  0  0  0  0  0  0  0  0  0  0  0
    3.6620    3.6690    0.4290 O   0  0  0  0  0  0  0  0  0  0  0  0
  1  2  1  0
  2  3  1  0
  3  4  2  3
  4  5  1  0
  4  6  1  0
  6  7  2  3
  7  8  1  0
  7 10  1  0
  8  9  1  0
 10 11  2  0
 10 15  1  0
 11 12  1  0
 12 13  2  0
 13 14  1  0
 14 15  2  0
 15 16  1  0
 16 17  1  0
 17 18  2  0
 17 19  1  0
 19 20  2  0
 19 24  1  0
 20 21  1  0
 21 22  2  0
 21 28  1  0
 22 23  1  0
 22 26  1  0
 23 24  1  0
 24 25  2  0
 26 27  1  0
 27 28  1  0
 28 29  2  0
M  END
