
     RDKit          3D

 30 31  0  0  0  0  0  0  0  0999 V2000
    6.2460    0.6510    0.6750 C   0  0  0  0  0  0  0  0  0  0  0  0
    5.4020    1.8130    0.2710 C   0  0  0  0  0  0  0  0  0  0  0  0
    4.8620    1.7000   -1.0330 O   0  0  0  0  0  0  0  0  0  0  0  0
    4.0280    0.6830   -1.4380 C   0  0  0  0  0  0  0  0  0  0  0  0
    3.7420   -0.1920   -0.5760 O   0  0  0  0  0  0  0  0  0  0  0  0
    3.4640    0.5660   -2.7990 C   0  0  2  0  0  0  0  0  0  0  0  0
    2.6310    1.7910   -3.0970 C   0  0  0  0  0  0  0  0  0  0  0  0
    1.4260    1.5570   -2.1740 C   0  0  0  0  0  0  0  0  0  0  0  0
    1.2870    0.1930   -1.9960 N   0  0  0  0  0  0  0  0  0  0  0  0
    0.3990   -0.6260   -1.2460 C   0  0  0  0  0  0  0  0  0  0  0  0
    0.6290   -1.9020   -1.3930 O   0  0  0  0  0  0  0  0  0  0  0  0
   -0.6860   -0.3340   -0.3690 C   0  0  0  0  0  0  0  0  0  0  0  0
   -0.9900    0.9870   -0.2230 C   0  0  0  0  0  0  0  0  0  0  0  0
   -2.0390    1.5370    0.6090 C   0  0  0  0  0  0  0  0  0  0  0  0
   -2.1940    2.8810    0.6220 C   0  0  0  0  0  0  0  0  0  0  0  0
   -1.3550    3.6360   -0.1470 O   0  0  0  0  0  0  0  0  0  0  0  0
   -1.2030    5.0200   -0.0910 C   0  0  0  0  0  0  0  0  0  0  0  0
   -3.2350    3.4460    1.4440 C   0  0  0  0  0  0  0  0  0  0  0  0
   -4.0870    2.6000    2.2330 N   0  0  0  0  0  0  0  0  0  0  0  0
   -3.3880    4.6950    1.4650 O   0  0  0  0  0  0  0  0  0  0  0  0
   -1.5310   -1.2520    0.3040 C   0  0  0  0  0  0  0  0  0  0  0  0
   -1.6460   -2.5110    0.5200 C   0  0  0  0  0  0  0  0  0  0  0  0
   -0.8210   -3.6340    0.0970 C   0  0  0  0  0  0  0  0  0  0  0  0
   -1.6230   -4.5390   -0.8430 C   0  0  0  0  0  0  0  0  0  0  0  0
   -2.8570   -2.9300    1.3720 C   0  0  0  0  0  0  0  0  0  0  0  0
   -3.1100   -4.1660    1.6820 C   0  0  0  0  0  0  0  0  0  0  0  0
   -4.3540   -4.1980    2.5110 C   0  0  0  0  0  0  0  0  0  0  0  0
   -4.7340   -2.8280    2.6080 N   0  0  0  0  0  0  0  0  0  0  0  0
   -3.8620   -2.1010    1.9460 C   0  0  0  0  0  0  0  0  0  0  0  0
    2.3480   -0.4950   -2.7910 C   0  0  0  0  0  0  0  0  0  0  0  0
  1  2  1  0
  2  3  1  0
  3  4  1  0
  4  5  2  0
  6  4  1  1
  6  7  1  0
  6 30  1  0
  7  8  1  0
  8  9  1  0
  9 10  1  0
  9 30  1  0
 10 11  2  0
 10 12  1  0
 12 13  2  3
 12 21  1  0
 13 14  1  0
 14 15  2  3
 15 16  1  0
 15 18  1  0
 16 17  1  0
 18 19  1  0
 18 20  2  0
 21 22  2  3
 22 23  1  0
 22 25  1  0
 23 24  1  0
 25 26  2  0
 25 29  1  0
 26 27  1  0
 27 28  1  0
 28 29  2  0
M  END
