
     RDKit          3D

 30 32  0  0  0  0  0  0  0  0999 V2000
    9.1820   -0.5570   -0.7400 C   0  0  0  0  0  0  0  0  0  0  0  0
    7.9770   -1.4620   -0.7340 C   0  0  0  0  0  0  0  0  0  0  0  0
    6.7640   -0.6800   -0.4090 C   0  0  0  0  0  0  0  0  0  0  0  0
    5.6270   -1.2680   -0.3730 O   0  0  0  0  0  0  0  0  0  0  0  0
    6.8800    0.7360   -0.1370 C   0  0  0  0  0  0  0  0  0  0  0  0
    5.8050    1.4310    0.1520 C   0  0  0  0  0  0  0  0  0  0  0  0
    4.4350    0.9130    0.2340 C   0  0  0  0  0  0  0  0  0  0  0  0
    3.5830    2.0760    0.5910 C   0  0  0  0  0  0  0  0  0  0  0  0
    2.1460    2.0210    0.7810 C   0  0  0  0  0  0  0  0  0  0  0  0
    1.4990    3.0500    1.0850 O   0  0  0  0  0  0  0  0  0  0  0  0
    1.4410    0.7670    0.6190 C   0  0  0  0  0  0  0  0  0  0  0  0
    0.1290    0.6730    0.7850 C   0  0  0  0  0  0  0  0  0  0  0  0
   -0.5450   -0.6150    0.6120 C   0  0  0  0  0  0  0  0  0  0  0  0
   -1.7140   -0.7980    1.3750 N   0  0  0  0  0  0  0  0  0  0  0  0
   -2.8580   -1.3550    0.7170 C   0  0  2  0  0  0  0  0  0  0  0  0
   -2.4910   -2.7550    0.2300 C   0  0  0  0  0  0  0  0  0  0  0  0
   -3.3370   -0.5900   -0.4420 C   0  0  0  0  0  0  0  0  0  0  0  0
   -2.6120    0.3730   -0.8230 O   0  0  0  0  0  0  0  0  0  0  0  0
   -4.5300   -0.8570   -1.1380 N   0  0  0  0  0  0  0  0  0  0  0  0
   -5.4130   -1.9180   -0.7470 C   0  0  0  0  0  0  0  0  0  0  0  0
   -6.6790   -1.2870   -0.1990 C   0  0  0  0  0  0  0  0  0  0  0  0
   -7.1740   -0.1640   -1.0530 C   0  0  0  0  0  0  0  0  0  0  0  0
   -6.4820    1.0190   -0.8640 O   0  0  0  0  0  0  0  0  0  0  0  0
   -5.4800    1.2410   -1.7780 C   0  0  0  0  0  0  0  0  0  0  0  0
   -4.8020    0.0230   -2.2860 C   0  0  0  0  0  0  0  0  0  0  0  0
   -2.0040    0.1780    2.3640 C   0  0  0  0  0  0  0  0  0  0  0  0
   -1.7910    1.6040    1.9440 C   0  0  0  0  0  0  0  0  0  0  0  0
   -0.6510    1.7650    1.1240 O   0  0  0  0  0  0  0  0  0  0  0  0
    4.3710    3.1380    0.7000 C   0  0  0  0  0  0  0  0  0  0  0  0
    5.7230    2.8140    0.4460 N   0  0  0  0  0  0  0  0  0  0  0  0
  1  2  1  0
  2  3  1  0
  3  4  2  0
  3  5  1  0
  5  6  2  3
  6  7  1  0
  6 30  1  0
  7  8  1  0
  8  9  1  0
  8 29  2  0
  9 10  2  0
  9 11  1  0
 11 12  2  3
 12 13  1  0
 12 28  1  0
 13 14  1  0
 14 15  1  0
 14 26  1  0
 15 16  1  6
 15 17  1  0
 17 18  2  0
 17 19  1  0
 19 20  1  0
 19 25  1  0
 20 21  1  0
 21 22  1  0
 22 23  1  0
 23 24  1  0
 24 25  1  0
 26 27  1  0
 27 28  1  0
 29 30  1  0
M  END
