
     RDKit          3D

 30 32  0  0  0  0  0  0  0  0999 V2000
   -1.5430   -1.8100    0.6940 O   0  0  0  0  0  0  0  0  0  0  0  0
   -2.3640   -0.8650    0.8470 C   0  0  0  0  0  0  0  0  0  0  0  0
   -1.8390    0.5190    0.8040 C   0  0  0  0  0  0  0  0  0  0  0  0
   -0.3260    0.5300    0.6670 C   0  0  0  0  0  0  0  0  0  0  0  0
    0.0960    1.9850    0.6330 C   0  0  0  0  0  0  0  0  0  0  0  0
    1.5040    2.1830    0.5060 N   0  0  0  0  0  0  0  0  0  0  0  0
    2.2950    1.7210   -0.5930 C   0  0  0  0  0  0  0  0  0  0  0  0
    1.6870    1.0990   -1.5010 O   0  0  0  0  0  0  0  0  0  0  0  0
    3.6890    1.9420   -0.6730 N   0  0  0  0  0  0  0  0  0  0  0  0
    4.3220    2.6630    0.4030 C   0  0  0  0  0  0  0  0  0  0  0  0
    5.7990    2.7940    0.2770 C   0  0  0  0  0  0  0  0  0  0  0  0
    6.3450    2.3920   -0.9150 O   0  0  0  0  0  0  0  0  0  0  0  0
    5.8260    1.1800   -1.4020 C   0  0  1  0  0  0  0  0  0  0  0  0
    6.0280    0.1490   -0.3520 C   0  0  0  0  0  0  0  0  0  0  0  0
    5.5480   -1.2010   -0.6730 C   0  0  0  0  0  0  0  0  0  0  0  0
    6.2690   -2.3330   -0.7490 C   0  0  0  0  0  0  0  0  0  0  0  0
    5.3740   -3.4110   -1.0950 C   0  0  0  0  0  0  0  0  0  0  0  0
    4.2560   -2.7950   -1.4480 C   0  0  0  0  0  0  0  0  0  0  0  0
    4.1730   -1.5800   -0.9620 C   0  0  0  0  0  0  0  0  0  0  0  0
    4.4170    1.4510   -1.8030 C   0  0  0  0  0  0  0  0  0  0  0  0
   -3.7220   -1.2040    1.0510 N   0  0  0  0  0  0  0  0  0  0  0  0
   -4.0420   -2.6450    1.0800 C   0  0  0  0  0  0  0  0  0  0  0  0
   -3.8670   -3.0110    2.5700 C   0  0  0  0  0  0  0  0  0  0  0  0
   -4.1310   -4.3480    2.7890 O   0  0  0  0  0  0  0  0  0  0  0  0
   -4.8110   -0.3120    1.2500 C   0  0  0  0  0  0  0  0  0  0  0  0
   -5.5390    0.1940    0.0810 C   0  0  2  0  0  0  0  0  0  0  0  0
   -6.2770   -0.8250   -0.7600 C   0  0  0  0  0  0  0  0  0  0  0  0
   -6.5930    0.0770   -1.9790 C   0  0  0  0  0  0  0  0  0  0  0  0
   -5.5910    1.1800   -1.9120 C   0  0  0  0  0  0  0  0  0  0  0  0
   -4.7930    0.9280   -0.8270 O   0  0  0  0  0  0  0  0  0  0  0  0
  1  2  2  0
  2  3  1  0
  2 21  1  0
  3  4  1  0
  4  5  1  0
  5  6  1  0
  6  7  1  0
  7  8  2  0
  7  9  1  0
  9 10  1  0
  9 20  1  0
 10 11  1  0
 11 12  1  0
 12 13  1  0
 13 14  1  1
 13 20  1  0
 14 15  1  0
 15 16  2  0
 15 19  1  0
 16 17  1  0
 17 18  2  0
 18 19  2  0
 21 22  1  0
 21 25  1  0
 22 23  1  0
 23 24  1  0
 26 25  1  1
 26 27  1  0
 26 30  1  0
 27 28  1  0
 28 29  1  0
 29 30  1  0
M  END
