
     RDKit          3D

 29 31  0  0  0  0  0  0  0  0999 V2000
    7.4370    1.4220   -0.2260 C   0  0  0  0  0  0  0  0  0  0  0  0
    6.2560    0.5390   -0.4080 C   0  0  0  0  0  0  0  0  0  0  0  0
    6.3310   -0.6440   -1.1270 C   0  0  0  0  0  0  0  0  0  0  0  0
    5.2380   -1.4430   -1.2840 C   0  0  0  0  0  0  0  0  0  0  0  0
    5.2860   -2.7310   -2.0570 C   0  0  0  0  0  0  0  0  0  0  0  0
    4.0430   -1.0500   -0.7080 C   0  0  0  0  0  0  0  0  0  0  0  0
    3.9650    0.1150    0.0010 C   0  0  0  0  0  0  0  0  0  0  0  0
    2.6980    0.5060    0.5950 C   0  0  0  0  0  0  0  0  0  0  0  0
    2.7370    1.2420    1.7840 C   0  0  0  0  0  0  0  0  0  0  0  0
    1.5580    1.6240    2.3660 C   0  0  0  0  0  0  0  0  0  0  0  0
    1.4980    2.4060    3.6270 C   0  0  0  0  0  0  0  0  0  0  0  0
    0.3780    1.2630    1.7450 C   0  0  0  0  0  0  0  0  0  0  0  0
    0.2970    0.5460    0.5850 C   0  0  0  0  0  0  0  0  0  0  0  0
   -0.8840    0.1490   -0.0860 N   0  0  0  0  0  0  0  0  0  0  0  0
   -2.2230    0.3630    0.3270 C   0  0  0  0  0  0  0  0  0  0  0  0
   -2.4360    0.9600    1.3940 O   0  0  0  0  0  0  0  0  0  0  0  0
   -3.3710   -0.1090   -0.4830 C   0  0  0  0  0  0  0  0  0  0  0  0
   -4.6380    0.0180    0.3130 C   0  0  2  0  0  0  0  0  0  0  0  0
   -4.5940   -0.8360    1.5160 C   0  0  0  0  0  0  0  0  0  0  0  0
   -4.5340   -2.1920    1.1100 O   0  0  0  0  0  0  0  0  0  0  0  0
   -5.7710   -0.2340   -0.5480 N   0  0  0  0  0  0  0  0  0  0  0  0
   -6.0950   -1.4150   -1.2710 C   0  0  0  0  0  0  0  0  0  0  0  0
   -5.2670   -2.3430   -1.4640 O   0  0  0  0  0  0  0  0  0  0  0  0
   -7.5060   -1.3110   -1.7070 C   0  0  0  0  0  0  0  0  0  0  0  0
   -7.7340    0.1220   -1.7020 N   0  0  0  0  0  0  0  0  0  0  0  0
   -6.7870    0.7150   -0.8170 C   0  0  0  0  0  0  0  0  0  0  0  0
   -6.9310    2.2540   -0.2520 S   0  0  0  0  0  0  0  0  0  0  0  0
    1.5100    0.1620    0.0030 C   0  0  0  0  0  0  0  0  0  0  0  0
    5.0560    0.9180    0.1610 C   0  0  0  0  0  0  0  0  0  0  0  0
  1  2  1  0
  2  3  2  0
  2 29  1  0
  3  4  1  0
  4  5  1  0
  4  6  2  0
  6  7  1  0
  7  8  1  0
  7 29  2  0
  8  9  2  0
  8 28  1  0
  9 10  1  0
 10 11  1  0
 10 12  2  0
 12 13  1  0
 13 14  1  0
 13 28  2  0
 14 15  1  0
 15 16  2  0
 15 17  1  0
 18 17  1  6
 18 19  1  0
 18 21  1  0
 19 20  1  0
 21 22  1  0
 21 26  1  0
 22 23  2  0
 22 24  1  0
 24 25  1  0
 25 26  1  0
 26 27  2  0
M  END
