
     RDKit          3D

 24 27  0  0  0  0  0  0  0  0999 V2000
   -0.4770    1.0350   -3.1800 C   0  0  0  0  0  0  0  0  0  0  0  0
    0.6830    1.7430   -2.5800 C   0  0  0  0  0  0  0  0  0  0  0  0
    1.2520    1.0890   -1.3730 C   0  0  0  0  0  0  0  0  0  0  0  0
    2.4560    0.4390   -1.3560 N   0  0  0  0  0  0  0  0  0  0  0  0
    2.7150   -0.0030   -0.1380 N   0  0  0  0  0  0  0  0  0  0  0  0
    1.7240    0.3220    0.6960 C   0  0  0  0  0  0  0  0  0  0  0  0
    1.9670   -0.1170    1.9410 N   0  0  0  0  0  0  0  0  0  0  0  0
    3.1620   -0.7530    1.9290 C   0  0  0  0  0  0  0  0  0  0  0  0
    3.8800   -1.3930    2.9460 C   0  0  0  0  0  0  0  0  0  0  0  0
    5.0890   -1.9590    2.6130 C   0  0  0  0  0  0  0  0  0  0  0  0
    5.4920   -1.8480    1.2970 C   0  0  0  0  0  0  0  0  0  0  0  0
    4.8010   -1.2380    0.3360 N   0  0  0  0  0  0  0  0  0  0  0  0
    3.6130   -0.6730    0.6320 C   0  0  0  0  0  0  0  0  0  0  0  0
    0.7830    1.0190   -0.0820 C   0  0  0  0  0  0  0  0  0  0  0  0
   -0.4760    1.5610    0.4140 C   0  0  0  0  0  0  0  0  0  0  0  0
   -1.6870    0.7680    0.2040 C   0  0  0  0  0  0  0  0  0  0  0  0
   -2.8920    1.3830    0.5150 C   0  0  0  0  0  0  0  0  0  0  0  0
   -4.1080    0.7250    0.3680 C   0  0  0  0  0  0  0  0  0  0  0  0
   -5.6270    1.5130    0.7680 Cl  0  0  0  0  0  0  0  0  0  0  0  0
   -4.1470   -0.5750   -0.0960 C   0  0  0  0  0  0  0  0  0  0  0  0
   -5.4530   -1.2820   -0.2410 C   0  0  0  0  0  0  0  0  0  0  0  0
   -2.9650   -1.1880   -0.4050 C   0  0  0  0  0  0  0  0  0  0  0  0
   -1.7430   -0.5190   -0.2560 C   0  0  0  0  0  0  0  0  0  0  0  0
   -0.2900   -1.3920   -0.6730 Cl  0  0  0  0  0  0  0  0  0  0  0  0
  1  2  1  0
  2  3  1  0
  3  4  2  0
  3 14  1  0
  4  5  1  0
  5  6  1  0
  5 13  1  0
  6  7  1  0
  6 14  2  0
  7  8  1  0
  8  9  2  0
  8 13  1  0
  9 10  1  0
 10 11  2  0
 11 12  1  0
 12 13  2  0
 14 15  1  0
 15 16  1  0
 16 17  2  0
 16 23  1  0
 17 18  1  0
 18 19  1  0
 18 20  2  0
 20 21  1  0
 20 22  1  0
 22 23  2  0
 23 24  1  0
M  END
