
     RDKit          3D

 25 26  0  0  0  0  0  0  0  0999 V2000
   -3.6950    1.4530    1.8610 C   0  0  0  0  0  0  0  0  0  0  0  0
   -4.3870    0.6160    1.1410 C   0  0  0  0  0  0  0  0  0  0  0  0
   -5.8510    0.4420    1.3370 C   0  0  0  0  0  0  0  0  0  0  0  0
   -6.2050   -0.4600    0.4590 C   0  0  0  0  0  0  0  0  0  0  0  0
   -7.8670   -1.0290    0.2810 Cl  0  0  0  0  0  0  0  0  0  0  0  0
   -5.0840   -0.9080   -0.3140 C   0  0  0  0  0  0  0  0  0  0  0  0
   -5.1650   -1.9230   -1.3850 C   0  0  0  0  0  0  0  0  0  0  0  0
   -3.9530   -0.2600    0.0860 C   0  0  0  0  0  0  0  0  0  0  0  0
   -2.7330   -0.5490   -0.5440 N   0  0  0  0  0  0  0  0  0  0  0  0
   -1.4490   -0.0570   -0.3510 C   0  0  0  0  0  0  0  0  0  0  0  0
   -1.2140    0.7880    0.4990 O   0  0  0  0  0  0  0  0  0  0  0  0
   -0.2720   -0.5300   -1.1690 C   0  0  0  0  0  0  0  0  0  0  0  0
    0.9320    0.1260   -0.7770 N   0  0  0  0  0  0  0  0  0  0  0  0
    1.4700    0.0440    0.5460 C   0  0  0  0  0  0  0  0  0  0  0  0
    0.8100   -0.6540    1.3630 O   0  0  0  0  0  0  0  0  0  0  0  0
    2.6730    0.7090    0.9100 N   0  0  0  0  0  0  0  0  0  0  0  0
    3.2100    0.6200    2.2500 C   0  0  0  0  0  0  0  0  0  0  0  0
    3.3660    1.4690   -0.0300 N   0  0  0  0  0  0  0  0  0  0  0  0
    4.4580    1.0550   -0.5870 C   0  0  0  0  0  0  0  0  0  0  0  0
    5.2680    1.7470   -1.5720 C   0  0  0  0  0  0  0  0  0  0  0  0
    5.0790    2.8700   -2.0800 O   0  0  0  0  0  0  0  0  0  0  0  0
    6.3440    0.8700   -1.8500 N   0  0  0  0  0  0  0  0  0  0  0  0
    6.1870   -0.2850   -1.0730 N   0  0  0  0  0  0  0  0  0  0  0  0
    5.1310   -0.2280   -0.3380 C   0  0  0  0  0  0  0  0  0  0  0  0
    4.7040   -1.2340    0.5490 O   0  0  0  0  0  0  0  0  0  0  0  0
  1  2  2  0
  2  3  1  0
  2  8  1  0
  3  4  2  0
  4  5  1  0
  4  6  1  0
  6  7  1  0
  6  8  2  0
  8  9  1  0
  9 10  1  0
 10 11  2  0
 10 12  1  0
 12 13  1  0
 13 14  1  0
 14 15  2  0
 14 16  1  0
 16 17  1  0
 16 18  1  0
 18 19  2  3
 19 20  1  0
 19 24  1  0
 20 21  2  0
 20 22  1  0
 22 23  1  0
 23 24  2  0
 24 25  1  0
M  CHG  1  23   1
M  END
