
     RDKit          3D

 25 26  0  0  0  0  0  0  0  0999 V2000
    0.7140   -0.5820    4.3820 O   0  0  0  0  0  0  0  0  0  0  0  0
    1.3120   -0.1490    3.4660 C   0  0  0  0  0  0  0  0  0  0  0  0
    2.6450    0.3310    3.3080 C   0  0  0  0  0  0  0  0  0  0  0  0
    3.1480    0.7100    2.0400 N   0  0  0  0  0  0  0  0  0  0  0  0
    3.3350   -0.2140    0.9520 C   0  0  0  0  0  0  0  0  0  0  0  0
    3.0260   -1.4210    1.1500 O   0  0  0  0  0  0  0  0  0  0  0  0
    3.8730    0.2620   -0.3310 C   0  0  0  0  0  0  0  0  0  0  0  0
    4.1130   -0.4230   -1.4160 C   0  0  0  0  0  0  0  0  0  0  0  0
    4.6310    0.3910   -2.4320 O   0  0  0  0  0  0  0  0  0  0  0  0
    4.9910    1.6170   -1.8710 C   0  0  2  0  0  0  0  0  0  0  0  0
    6.4760    1.7010   -1.5130 C   0  0  0  0  0  0  0  0  0  0  0  0
    6.7690    3.3370   -0.8130 Cl  0  0  0  0  0  0  0  0  0  0  0  0
    4.2320    1.6050   -0.6190 N   0  0  0  0  0  0  0  0  0  0  0  0
    0.3830   -0.0650    2.0190 N   0  0  0  0  0  0  0  0  0  0  0  0
   -0.8220   -0.6950    2.5740 C   0  0  0  0  0  0  0  0  0  0  0  0
   -1.0990   -1.2430    3.5640 O   0  0  0  0  0  0  0  0  0  0  0  0
   -1.8720   -0.5450    1.5430 N   0  0  0  0  0  0  0  0  0  0  0  0
   -3.1610   -1.0820    1.7230 C   0  0  0  0  0  0  0  0  0  0  0  0
   -4.0400   -0.7510    0.5620 C   0  0  0  0  0  0  0  0  0  0  0  0
   -3.4860   -1.2080   -0.7780 C   0  0  0  0  0  0  0  0  0  0  0  0
   -4.4750   -0.8460   -1.7990 N   0  0  0  0  0  0  0  0  0  0  0  0
   -5.4720   -1.5570   -2.2980 C   0  0  0  0  0  0  0  0  0  0  0  0
   -6.1880   -0.7720   -3.2030 C   0  0  0  0  0  0  0  0  0  0  0  0
   -5.6010    0.4310   -3.2400 N   0  0  0  0  0  0  0  0  0  0  0  0
   -4.5710    0.3880   -2.3970 C   0  0  0  0  0  0  0  0  0  0  0  0
  1  2  2  0
  2  3  1  0
  2 14  1  0
  3  4  1  0
  4  5  1  0
  5  6  2  0
  5  7  1  0
  7  8  2  0
  7 13  1  0
  8  9  1  0
  9 10  1  0
 10 11  1  1
 10 13  1  0
 11 12  1  0
 14 15  1  0
 15 16  2  0
 15 17  1  0
 17 18  1  0
 18 19  1  0
 19 20  1  0
 20 21  1  0
 21 22  1  0
 21 25  1  0
 22 23  2  0
 23 24  1  0
 24 25  2  0
M  CHG  1  24   1
M  END
