
     RDKit          3D

 25 26  0  0  0  0  0  0  0  0999 V2000
    0.1770   -3.3460    0.6130 C   0  0  0  0  0  0  0  0  0  0  0  0
   -0.7770   -2.4170   -0.0860 C   0  0  0  0  0  0  0  0  0  0  0  0
   -0.7860   -1.0930    0.6360 C   0  0  2  0  0  0  0  0  0  0  0  0
    0.4380   -0.4060    0.6940 N   0  0  0  0  0  0  0  0  0  0  0  0
    1.2850   -0.5860   -0.4560 C   0  0  0  0  0  0  0  0  0  0  0  0
    2.5610    0.1870   -0.2960 C   0  0  0  0  0  0  0  0  0  0  0  0
    3.7240   -0.3570   -0.2930 N   0  0  0  0  0  0  0  0  0  0  0  0
    4.9320    0.3620   -0.1430 C   0  0  0  0  0  0  0  0  0  0  0  0
    6.0970   -0.2680   -0.1500 C   0  0  0  0  0  0  0  0  0  0  0  0
    7.6180    0.5710    0.0310 Cl  0  0  0  0  0  0  0  0  0  0  0  0
    4.9500    1.7740    0.0190 N   0  0  0  0  0  0  0  0  0  0  0  0
    3.6710    2.4140    0.0210 C   0  0  0  0  0  0  0  0  0  0  0  0
    3.6270    3.6470    0.1590 O   0  0  0  0  0  0  0  0  0  0  0  0
    2.4910    1.5980   -0.1390 N   0  0  0  0  0  0  0  0  0  0  0  0
   -1.2810   -1.4750    2.0290 C   0  0  0  0  0  0  0  0  0  0  0  0
   -0.6670   -1.4280    3.1010 O   0  0  0  0  0  0  0  0  0  0  0  0
   -2.5910   -1.8860    1.7820 O   0  0  0  0  0  0  0  0  0  0  0  0
   -3.0930   -1.2120    0.6500 C   0  0  0  0  0  0  0  0  0  0  0  0
   -4.2200   -1.2970    0.1030 O   0  0  0  0  0  0  0  0  0  0  0  0
   -1.9780   -0.3370    0.2020 C   0  0  0  0  0  0  0  0  0  0  0  0
   -2.1730    0.8030   -0.4100 C   0  0  0  0  0  0  0  0  0  0  0  0
   -1.1130    1.6460   -0.8310 N   0  0  0  0  0  0  0  0  0  0  0  0
   -3.4840    1.2960   -0.7100 N   0  0  0  0  0  0  0  0  0  0  0  0
   -4.1710    2.0950    0.2660 C   0  0  0  0  0  0  0  0  0  0  0  0
   -4.1090    1.0000   -1.9690 C   0  0  0  0  0  0  0  0  0  0  0  0
  1  2  1  0
  3  2  1  6
  3  4  1  0
  3 15  1  0
  3 20  1  0
  4  5  1  0
  5  6  1  0
  6  7  2  0
  6 14  1  0
  7  8  1  0
  8  9  2  3
  8 11  1  0
  9 10  1  0
 11 12  1  0
 12 13  2  0
 12 14  1  0
 15 16  2  0
 15 17  1  0
 17 18  1  0
 18 19  2  0
 18 20  1  0
 20 21  2  3
 21 22  1  0
 21 23  1  0
 23 24  1  0
 23 25  1  0
M  CHG  1   4   1
M  END
