
     RDKit          3D

 24 27  0  0  0  0  0  0  0  0999 V2000
    3.0930   -3.8570   -1.6770 Cl  0  0  0  0  0  0  0  0  0  0  0  0
    3.2670   -2.3120   -0.8620 C   0  0  0  0  0  0  0  0  0  0  0  0
    4.4460   -2.1020   -0.1540 C   0  0  0  0  0  0  0  0  0  0  0  0
    4.6270   -0.9040    0.5000 C   0  0  0  0  0  0  0  0  0  0  0  0
    6.0880   -0.5540    1.4200 Cl  0  0  0  0  0  0  0  0  0  0  0  0
    3.6460    0.0350    0.4340 C   0  0  0  0  0  0  0  0  0  0  0  0
    2.4530   -0.1370   -0.2640 C   0  0  0  0  0  0  0  0  0  0  0  0
    1.4550    0.8660   -0.3100 N   0  0  0  0  0  0  0  0  0  0  0  0
    1.6040    2.1330   -0.5670 N   0  0  0  0  0  0  0  0  0  0  0  0
    0.4250    2.7750   -0.5250 C   0  0  0  0  0  0  0  0  0  0  0  0
    0.0450    4.0830   -0.6960 C   0  0  0  0  0  0  0  0  0  0  0  0
   -1.2600    4.4860   -0.5680 C   0  0  0  0  0  0  0  0  0  0  0  0
   -2.2210    3.5540   -0.2570 C   0  0  0  0  0  0  0  0  0  0  0  0
   -1.8720    2.2410   -0.0810 C   0  0  0  0  0  0  0  0  0  0  0  0
   -0.5720    1.8400   -0.2130 C   0  0  0  0  0  0  0  0  0  0  0  0
    0.1120    0.6260   -0.0830 C   0  0  0  0  0  0  0  0  0  0  0  0
   -0.3810   -0.6270    0.2800 N   0  0  0  0  0  0  0  0  0  0  0  0
   -1.6460   -1.2120    0.2710 C   0  0  0  0  0  0  0  0  0  0  0  0
   -1.8540   -2.4570    0.8830 C   0  0  0  0  0  0  0  0  0  0  0  0
   -3.0900   -3.0510    0.7850 C   0  0  0  0  0  0  0  0  0  0  0  0
   -4.1560   -2.4960    0.1150 C   0  0  0  0  0  0  0  0  0  0  0  0
   -3.9090   -1.2610   -0.4770 C   0  0  0  0  0  0  0  0  0  0  0  0
   -2.7070   -0.7160   -0.3640 N   0  0  0  0  0  0  0  0  0  0  0  0
    2.2840   -1.3440   -0.9170 C   0  0  0  0  0  0  0  0  0  0  0  0
  1  2  1  0
  2  3  2  0
  2 24  1  0
  3  4  1  0
  4  5  1  0
  4  6  2  0
  6  7  1  0
  7  8  1  0
  7 24  2  0
  8  9  1  0
  8 16  1  0
  9 10  2  0
 10 11  1  0
 10 15  1  0
 11 12  2  0
 12 13  1  0
 13 14  2  0
 14 15  1  0
 15 16  2  0
 16 17  1  0
 17 18  1  0
 18 19  2  0
 18 23  1  0
 19 20  1  0
 20 21  2  0
 21 22  1  0
 22 23  2  0
M  END
