
     RDKit          3D

 22 23  0  0  0  0  0  0  0  0999 V2000
   -6.6650   -1.7600    1.6440 C   0  0  0  0  0  0  0  0  0  0  0  0
   -6.1470   -0.4830    1.2960 O   0  0  0  0  0  0  0  0  0  0  0  0
   -4.8040   -0.3890    0.9590 C   0  0  0  0  0  0  0  0  0  0  0  0
   -3.9580   -1.4930    0.9510 C   0  0  0  0  0  0  0  0  0  0  0  0
   -2.6450   -1.4010    0.6220 C   0  0  0  0  0  0  0  0  0  0  0  0
   -2.0660   -0.1670    0.2680 C   0  0  0  0  0  0  0  0  0  0  0  0
   -0.6900   -0.1410   -0.0940 N   0  0  0  0  0  0  0  0  0  0  0  0
    0.1640    0.9450   -0.0300 C   0  0  0  0  0  0  0  0  0  0  0  0
   -0.2920    2.3900    0.5350 S   0  0  0  0  0  0  0  0  0  0  0  0
    1.5360    0.7410   -0.4710 N   0  0  0  0  0  0  0  0  0  0  0  0
    1.9690   -0.5470   -0.9510 C   0  0  0  0  0  0  0  0  0  0  0  0
    3.4280   -0.4940   -1.3400 C   0  0  0  0  0  0  0  0  0  0  0  0
    4.2760   -0.1200   -0.1660 C   0  0  0  0  0  0  0  0  0  0  0  0
    5.6870   -0.0590   -0.5010 N   0  0  0  0  0  0  0  0  0  0  0  0
    6.2840    1.0610   -0.9390 C   0  0  0  0  0  0  0  0  0  0  0  0
    7.6030    0.7330   -1.1480 C   0  0  0  0  0  0  0  0  0  0  0  0
    7.7760   -0.5560   -0.8390 N   0  0  0  0  0  0  0  0  0  0  0  0
    6.5960   -1.0400   -0.4420 C   0  0  0  0  0  0  0  0  0  0  0  0
   -2.9090    0.9140    0.2780 C   0  0  0  0  0  0  0  0  0  0  0  0
   -4.2670    0.8300    0.6170 C   0  0  0  0  0  0  0  0  0  0  0  0
   -5.0620    1.9670    0.6070 O   0  0  0  0  0  0  0  0  0  0  0  0
   -4.5230    3.2270    0.2570 C   0  0  0  0  0  0  0  0  0  0  0  0
  1  2  1  0
  2  3  1  0
  3  4  2  0
  3 20  1  0
  4  5  1  0
  5  6  2  0
  6  7  1  0
  6 19  1  0
  7  8  1  0
  8  9  2  0
  8 10  1  0
 10 11  1  0
 11 12  1  0
 12 13  1  0
 13 14  1  0
 14 15  1  0
 14 18  1  0
 15 16  2  0
 16 17  1  0
 17 18  2  0
 19 20  2  0
 20 21  1  0
 21 22  1  0
M  END
