
     RDKit          3D

 25 27  0  0  0  0  0  0  0  0999 V2000
    4.6180    1.4780   -1.1500 C   0  0  0  0  0  0  0  0  0  0  0  0
    4.6610    0.7530    0.1590 C   0  0  2  0  0  0  0  0  0  0  0  0
    5.7130    1.2590    1.1010 C   0  0  0  0  0  0  0  0  0  0  0  0
    4.7770   -0.6960   -0.0220 N   0  0  0  0  0  0  0  0  0  0  0  0
    3.4650   -1.2510   -0.0670 C   0  0  0  0  0  0  0  0  0  0  0  0
    3.1550   -2.4150   -0.5060 O   0  0  0  0  0  0  0  0  0  0  0  0
    2.5930   -0.2720    0.4620 N   0  0  0  0  0  0  0  0  0  0  0  0
    1.1500   -0.4690    0.5840 C   0  0  0  0  0  0  0  0  0  0  0  0
    0.4370   -0.0040   -0.6670 C   0  0  1  0  0  0  0  0  0  0  0  0
    0.8580   -0.7080   -1.8470 N   0  0  0  0  0  0  0  0  0  0  0  0
   -1.0170   -0.3030   -0.4610 C   0  0  0  0  0  0  0  0  0  0  0  0
   -1.6160   -1.5020   -0.5460 N   0  0  0  0  0  0  0  0  0  0  0  0
   -2.9310   -1.3420   -0.2930 C   0  0  0  0  0  0  0  0  0  0  0  0
   -4.0040   -2.3890   -0.2710 C   0  0  0  0  0  0  0  0  0  0  0  0
   -4.5220   -2.4740   -1.5460 O   0  0  0  0  0  0  0  0  0  0  0  0
   -3.1680   -0.0420   -0.0470 N   0  0  0  0  0  0  0  0  0  0  0  0
   -4.4330    0.5690    0.2690 C   0  0  0  0  0  0  0  0  0  0  0  0
   -5.3640    1.0540   -0.6250 C   0  0  0  0  0  0  0  0  0  0  0  0
   -6.4420    1.5590    0.0930 C   0  0  0  0  0  0  0  0  0  0  0  0
   -6.0900    1.3430    1.4230 C   0  0  0  0  0  0  0  0  0  0  0  0
   -7.1140    1.8010    2.7900 Cl  0  0  0  0  0  0  0  0  0  0  0  0
   -4.9240    0.7710    1.4570 O   0  0  0  0  0  0  0  0  0  0  0  0
   -1.9970    0.5620   -0.1550 N   0  0  0  0  0  0  0  0  0  0  0  0
    3.3480    0.8630    0.8270 C   0  0  0  0  0  0  0  0  0  0  0  0
    2.9610    1.8090    1.5950 O   0  0  0  0  0  0  0  0  0  0  0  0
  2  1  1  6
  2  3  1  0
  2  4  1  0
  2 24  1  0
  4  5  1  0
  5  6  2  0
  5  7  1  0
  7  8  1  0
  7 24  1  0
  8  9  1  0
  9 10  1  6
  9 11  1  0
 11 12  1  0
 11 23  2  0
 12 13  2  0
 13 14  1  0
 13 16  1  0
 14 15  1  0
 16 17  1  0
 16 23  1  0
 17 18  2  0
 17 22  1  0
 18 19  1  0
 19 20  2  0
 20 21  1  0
 20 22  1  0
 24 25  2  0
M  CHG  1  10   1
M  END
