
     RDKit          3D

 25 27  0  0  0  0  0  0  0  0999 V2000
    3.4930    0.6030    1.3010 O   0  0  0  0  0  0  0  0  0  0  0  0
    2.9750   -0.3340    0.6590 C   0  0  0  0  0  0  0  0  0  0  0  0
    1.5350   -0.4050    0.6880 N   0  0  0  0  0  0  0  0  0  0  0  0
    0.7790    0.6210    0.4980 C   0  0  0  0  0  0  0  0  0  0  0  0
   -0.6100    0.4030    0.5540 N   0  0  0  0  0  0  0  0  0  0  0  0
   -1.2660   -0.6840   -0.0540 C   0  0  0  0  0  0  0  0  0  0  0  0
   -0.5960   -1.5960   -0.8240 C   0  0  0  0  0  0  0  0  0  0  0  0
   -1.3270   -2.6310   -1.3920 C   0  0  0  0  0  0  0  0  0  0  0  0
   -2.6480   -2.7330   -1.1920 N   0  0  0  0  0  0  0  0  0  0  0  0
   -3.3490   -1.8680   -0.4490 C   0  0  0  0  0  0  0  0  0  0  0  0
   -2.6500   -0.8390    0.1220 C   0  0  0  0  0  0  0  0  0  0  0  0
   -3.5620   -0.0760    0.8360 O   0  0  0  0  0  0  0  0  0  0  0  0
   -4.8250   -0.7170    0.8200 C   0  0  1  0  0  0  0  0  0  0  0  0
   -5.7900    0.2950    0.3770 N   0  0  0  0  0  0  0  0  0  0  0  0
   -7.0380   -0.1900    0.3190 O   0  0  0  0  0  0  0  0  0  0  0  0
   -4.7300   -1.7940   -0.1160 N   0  0  0  0  0  0  0  0  0  0  0  0
    1.2910    1.9710    0.2400 C   0  0  0  0  0  0  0  0  0  0  0  0
    0.6380    3.1370    0.6150 C   0  0  0  0  0  0  0  0  0  0  0  0
    1.4200    4.2210    0.2060 C   0  0  0  0  0  0  0  0  0  0  0  0
    2.5140    3.6360   -0.3990 C   0  0  0  0  0  0  0  0  0  0  0  0
    2.3860    2.3420   -0.3500 O   0  0  0  0  0  0  0  0  0  0  0  0
    3.7510   -1.2600   -0.0460 N   0  0  0  0  0  0  0  0  0  0  0  0
    5.1700   -1.2690   -0.1470 C   0  0  0  0  0  0  0  0  0  0  0  0
    5.8380   -0.1220   -0.8280 C   0  0  0  0  0  0  0  0  0  0  0  0
    5.6000    1.4410   -0.0900 Cl  0  0  0  0  0  0  0  0  0  0  0  0
  1  2  2  0
  2  3  1  0
  2 22  1  0
  3  4  2  3
  4  5  1  0
  4 17  1  0
  5  6  1  0
  6  7  2  0
  6 11  1  0
  7  8  1  0
  8  9  2  0
  9 10  1  0
 10 11  2  0
 10 16  1  0
 11 12  1  0
 12 13  1  0
 13 14  1  6
 13 16  1  0
 14 15  1  0
 17 18  2  0
 17 21  1  0
 18 19  1  0
 19 20  2  0
 20 21  1  0
 22 23  1  0
 23 24  1  0
 24 25  1  0
M  CHG  1  16   1
M  END
