
     RDKit          3D

 23 26  0  0  0  0  0  0  0  0999 V2000
   -2.1610   -2.1620   -1.3360 O   0  0  0  0  0  0  0  0  0  0  0  0
   -2.5990   -2.1590   -0.1550 C   0  0  0  0  0  0  0  0  0  0  0  0
   -2.8840   -3.3430    0.4670 C   0  0  0  0  0  0  0  0  0  0  0  0
   -3.3500   -3.2830    1.7330 N   0  0  0  0  0  0  0  0  0  0  0  0
   -3.5170   -2.1290    2.3300 N   0  0  0  0  0  0  0  0  0  0  0  0
   -3.2400   -0.9470    1.7320 C   0  0  0  0  0  0  0  0  0  0  0  0
   -2.7750   -0.9690    0.4710 N   0  0  0  0  0  0  0  0  0  0  0  0
   -2.4640    0.2440   -0.2140 C   0  0  0  0  0  0  0  0  0  0  0  0
   -3.4780    1.0070   -0.7210 C   0  0  0  0  0  0  0  0  0  0  0  0
   -3.2020    2.1850   -1.3890 C   0  0  0  0  0  0  0  0  0  0  0  0
   -1.8930    2.5590   -1.5240 C   0  0  0  0  0  0  0  0  0  0  0  0
   -0.8560    1.7790   -1.0060 C   0  0  0  0  0  0  0  0  0  0  0  0
   -1.1140    0.6170   -0.3470 C   0  0  0  0  0  0  0  0  0  0  0  0
   -0.1100   -0.2110    0.1970 N   0  0  0  0  0  0  0  0  0  0  0  0
    1.2900    0.0060    0.1590 C   0  0  0  0  0  0  0  0  0  0  0  0
    1.9760    1.0230   -0.3890 N   0  0  0  0  0  0  0  0  0  0  0  0
    3.2870    0.8370   -0.1990 C   0  0  0  0  0  0  0  0  0  0  0  0
    4.4280    1.5680   -0.5520 C   0  0  0  0  0  0  0  0  0  0  0  0
    5.6700    1.0880   -0.1950 C   0  0  0  0  0  0  0  0  0  0  0  0
    5.7500   -0.0730    0.4840 N   0  0  0  0  0  0  0  0  0  0  0  0
    4.6600   -0.7810    0.8280 C   0  0  0  0  0  0  0  0  0  0  0  0
    3.3880   -0.3450    0.4950 C   0  0  0  0  0  0  0  0  0  0  0  0
    2.1800   -0.8670    0.7220 N   0  0  0  0  0  0  0  0  0  0  0  0
  1  2  2  0
  2  3  1  0
  2  7  1  0
  3  4  2  0
  4  5  1  0
  5  6  2  0
  6  7  1  0
  7  8  1  0
  8  9  2  0
  8 13  1  0
  9 10  1  0
 10 11  2  0
 11 12  1  0
 12 13  2  0
 13 14  1  0
 14 15  1  0
 15 16  2  0
 15 23  1  0
 16 17  1  0
 17 18  2  0
 17 22  1  0
 18 19  1  0
 19 20  2  0
 20 21  1  0
 21 22  2  0
 22 23  1  0
M  END
