
     RDKit          3D

 23 23  0  0  0  0  0  0  0  0999 V2000
   -2.8390    2.2870   -3.1590 C   0  0  0  0  0  0  0  0  0  0  0  0
   -1.7380    2.5300   -2.1500 C   0  0  0  0  0  0  0  0  0  0  0  0
   -1.9350    1.6310   -0.9860 C   0  0  0  0  0  0  0  0  0  0  0  0
   -1.0090    0.7360   -0.6290 C   0  0  0  0  0  0  0  0  0  0  0  0
    0.1870    0.5730   -1.2980 O   0  0  0  0  0  0  0  0  0  0  0  0
    0.9660   -0.4140   -0.6560 C   0  0  1  0  0  0  0  0  0  0  0  0
    2.1900    0.3360   -0.2050 C   0  0  1  0  0  0  0  0  0  0  0  0
    3.2120   -0.4050    0.4600 N   0  0  0  0  0  0  0  0  0  0  0  0
    2.8220    1.0440   -1.3250 C   0  0  0  0  0  0  0  0  0  0  0  0
    3.7420    2.0960   -1.0070 O   0  0  0  0  0  0  0  0  0  0  0  0
    2.6110    0.7850   -2.5800 C   0  0  0  0  0  0  0  0  0  0  0  0
    1.7830   -0.1750   -3.0950 O   0  0  0  0  0  0  0  0  0  0  0  0
    3.2850    1.5470   -3.5850 O   0  0  0  0  0  0  0  0  0  0  0  0
    0.1200   -0.9160    0.4650 C   0  0  0  0  0  0  0  0  0  0  0  0
    0.4790   -2.0060    1.3510 C   0  0  0  0  0  0  0  0  0  0  0  0
    1.6160   -2.5940    1.1890 O   0  0  0  0  0  0  0  0  0  0  0  0
   -0.2670   -2.5140    2.3820 O   0  0  0  0  0  0  0  0  0  0  0  0
    0.2030   -3.5830    3.1710 C   0  0  0  0  0  0  0  0  0  0  0  0
   -1.0070   -0.2350    0.4740 C   0  0  0  0  0  0  0  0  0  0  0  0
   -2.1480   -0.3370    1.3980 C   0  0  0  0  0  0  0  0  0  0  0  0
   -3.1750    0.4150    1.2490 O   0  0  0  0  0  0  0  0  0  0  0  0
   -2.2490   -1.1930    2.4640 O   0  0  0  0  0  0  0  0  0  0  0  0
   -3.3680   -1.2500    3.3200 C   0  0  0  0  0  0  0  0  0  0  0  0
  1  2  1  0
  2  3  1  0
  3  4  2  3
  4  5  1  0
  4 19  1  0
  6  5  1  6
  6  7  1  0
  6 14  1  0
  7  8  1  6
  7  9  1  0
  9 10  1  0
  9 11  2  3
 11 12  1  0
 11 13  1  0
 14 15  1  0
 14 19  2  0
 15 16  2  0
 15 17  1  0
 17 18  1  0
 19 20  1  0
 20 21  2  0
 20 22  1  0
 22 23  1  0
M  CHG  2   8   1  12  -1
M  END
