
     RDKit          3D

 23 24  0  0  0  0  0  0  0  0999 V2000
   -0.2730   -0.8120   -1.6810 O   0  0  0  0  0  0  0  0  0  0  0  0
   -0.1170    0.0780   -0.8150 C   0  0  0  0  0  0  0  0  0  0  0  0
    1.1810    0.4520   -0.4360 N   0  0  0  0  0  0  0  0  0  0  0  0
    2.3980   -0.1430   -0.9980 C   0  0  1  0  0  0  0  0  0  0  0  0
    3.2380    0.8960   -1.6250 C   0  0  0  0  0  0  0  0  0  0  0  0
    4.4580    1.1110   -1.1770 C   0  0  0  0  0  0  0  0  0  0  0  0
    5.0340    0.4120   -0.1280 O   0  0  0  0  0  0  0  0  0  0  0  0
    4.3240   -0.5720    0.5130 C   0  0  0  0  0  0  0  0  0  0  0  0
    4.8790   -1.3630    1.6480 C   0  0  0  0  0  0  0  0  0  0  0  0
    6.1180   -2.1250    1.2580 C   0  0  0  0  0  0  0  0  0  0  0  0
    7.1220   -1.2330    0.8250 O   0  0  0  0  0  0  0  0  0  0  0  0
    3.0960   -0.8310    0.1080 C   0  0  0  0  0  0  0  0  0  0  0  0
   -1.2800    0.7120   -0.2140 C   0  0  0  0  0  0  0  0  0  0  0  0
   -1.1330    1.6150    0.6650 O   0  0  0  0  0  0  0  0  0  0  0  0
   -2.6110    0.3770   -0.5550 N   0  0  0  0  0  0  0  0  0  0  0  0
   -3.7420    1.0420    0.0770 C   0  0  1  0  0  0  0  0  0  0  0  0
   -4.4920    1.8250   -0.9530 C   0  0  0  0  0  0  0  0  0  0  0  0
   -5.5970    1.0160   -1.6000 C   0  0  0  0  0  0  0  0  0  0  0  0
   -6.3810    0.3650   -0.6470 O   0  0  0  0  0  0  0  0  0  0  0  0
   -5.8170   -0.1760    0.4910 C   0  0  0  0  0  0  0  0  0  0  0  0
   -6.5510   -1.0680    1.2980 O   0  0  0  0  0  0  0  0  0  0  0  0
   -4.5840    0.1220    0.8550 C   0  0  0  0  0  0  0  0  0  0  0  0
   -4.0330   -0.4390    2.0140 O   0  0  0  0  0  0  0  0  0  0  0  0
  1  2  2  0
  2  3  1  0
  2 13  1  0
  4  3  1  1
  4  5  1  0
  4 12  1  0
  5  6  2  0
  6  7  1  0
  7  8  1  0
  8  9  1  0
  8 12  2  0
  9 10  1  0
 10 11  1  0
 13 14  2  0
 13 15  1  0
 16 15  1  6
 16 17  1  0
 16 22  1  0
 17 18  1  0
 18 19  1  0
 19 20  1  0
 20 21  1  0
 20 22  2  0
 22 23  1  0
M  END
