
     RDKit          3D

 26 28  0  0  0  0  0  0  0  0999 V2000
    2.3400   -0.9650    2.7790 N   0  0  0  0  0  0  0  0  0  0  0  0
    2.6360   -1.8190    1.6790 C   0  0  2  0  0  0  0  0  0  0  0  0
    3.7970   -1.2220    0.8940 C   0  0  0  0  0  0  0  0  0  0  0  0
    3.5120    0.1220    0.3660 C   0  0  0  0  0  0  0  0  0  0  0  0
    3.7750    1.2760    1.1030 C   0  0  0  0  0  0  0  0  0  0  0  0
    3.5220    2.5450    0.6340 C   0  0  0  0  0  0  0  0  0  0  0  0
    2.9830    2.7200   -0.6160 C   0  0  0  0  0  0  0  0  0  0  0  0
    2.7150    1.6030   -1.3580 C   0  0  0  0  0  0  0  0  0  0  0  0
    2.9710    0.3170   -0.8850 C   0  0  0  0  0  0  0  0  0  0  0  0
    1.5060   -2.0580    0.8040 C   0  0  0  0  0  0  0  0  0  0  0  0
    1.7810   -2.7780   -0.2590 O   0  0  0  0  0  0  0  0  0  0  0  0
    0.1610   -1.6610    0.8830 N   0  0  0  0  0  0  0  0  0  0  0  0
   -0.6370   -0.9100    1.8100 C   0  0  0  0  0  0  0  0  0  0  0  0
   -1.8090   -1.8920    2.0100 C   0  0  0  0  0  0  0  0  0  0  0  0
   -2.0120   -2.3910    0.6140 C   0  0  0  0  0  0  0  0  0  0  0  0
   -0.8050   -2.0100   -0.1820 C   0  0  1  0  0  0  0  0  0  0  0  0
   -0.9720   -0.8230   -1.0440 C   0  0  0  0  0  0  0  0  0  0  0  0
   -0.2710    0.1830   -0.8590 O   0  0  0  0  0  0  0  0  0  0  0  0
   -1.9150   -0.7630   -2.1050 N   0  0  0  0  0  0  0  0  0  0  0  0
   -2.0790    0.3950   -2.9470 C   0  0  0  0  0  0  0  0  0  0  0  0
   -2.8150    1.4420   -2.2300 C   0  0  0  0  0  0  0  0  0  0  0  0
   -4.1800    1.4830   -2.2860 C   0  0  0  0  0  0  0  0  0  0  0  0
   -4.8770    2.4730   -1.6100 C   0  0  0  0  0  0  0  0  0  0  0  0
   -4.1830    3.4160   -0.8780 C   0  0  0  0  0  0  0  0  0  0  0  0
   -2.8030    3.3490   -0.8390 C   0  0  0  0  0  0  0  0  0  0  0  0
   -2.1610    2.3600   -1.5190 N   0  0  0  0  0  0  0  0  0  0  0  0
  2  1  1  1
  2  3  1  0
  2 10  1  0
  3  4  1  0
  4  5  2  0
  4  9  1  0
  5  6  1  0
  6  7  2  0
  7  8  1  0
  8  9  2  0
 10 11  2  0
 10 12  1  0
 12 13  1  0
 12 16  1  0
 13 14  1  0
 14 15  1  0
 15 16  1  0
 16 17  1  6
 17 18  2  0
 17 19  1  0
 19 20  1  0
 20 21  1  0
 21 22  2  0
 21 26  1  0
 22 23  1  0
 23 24  2  0
 24 25  1  0
 25 26  2  0
M  CHG  1   1   1
M  END
