
     RDKit          3D

 24 25  0  0  0  0  0  0  0  0999 V2000
    4.6010    2.2770    0.8460 C   0  0  0  0  0  0  0  0  0  0  0  0
    4.8670    0.9170    0.8470 O   0  0  0  0  0  0  0  0  0  0  0  0
    4.2430   -0.0930    0.1730 C   0  0  0  0  0  0  0  0  0  0  0  0
    4.8790   -1.2540    0.0290 C   0  0  0  0  0  0  0  0  0  0  0  0
    6.1930   -1.3530    0.6040 N   0  0  0  0  0  0  0  0  0  0  0  0
    4.2970   -2.3110   -0.6430 O   0  0  0  0  0  0  0  0  0  0  0  0
    3.0260   -2.2680   -1.2170 C   0  0  0  0  0  0  0  0  0  0  0  0
    2.3250   -0.9560   -1.0460 C   0  0  0  0  0  0  0  0  0  0  0  0
    2.8970    0.0310   -0.4060 C   0  0  0  0  0  0  0  0  0  0  0  0
    1.9910    1.2150   -0.3850 C   0  0  0  0  0  0  0  0  0  0  0  0
    0.8830    0.7690   -1.3090 C   0  0  2  0  0  0  0  0  0  0  0  0
   -0.4060    0.9960   -0.6130 C   0  0  0  0  0  0  0  0  0  0  0  0
   -0.7380    2.1750   -0.3400 O   0  0  0  0  0  0  0  0  0  0  0  0
   -1.2670   -0.0260   -0.2470 O   0  0  0  0  0  0  0  0  0  0  0  0
   -2.4580    0.2870    0.4060 C   0  0  2  0  0  0  0  0  0  0  0  0
   -2.5510   -0.3560    1.7720 C   0  0  0  0  0  0  0  0  0  0  0  0
   -3.6100   -0.2310   -0.4000 C   0  0  0  0  0  0  0  0  0  0  0  0
   -3.4110   -0.8330   -1.4720 O   0  0  0  0  0  0  0  0  0  0  0  0
   -4.9280   -0.0650    0.0060 O   0  0  0  0  0  0  0  0  0  0  0  0
   -6.0140   -0.5630   -0.7710 C   0  0  0  0  0  0  0  0  0  0  0  0
   -7.2680   -0.2160   -0.0530 C   0  0  0  0  0  0  0  0  0  0  0  0
   -7.2700    0.4820    1.1700 N   0  0  0  0  0  0  0  0  0  0  0  0
   -8.3660   -0.5680   -0.5720 O   0  0  0  0  0  0  0  0  0  0  0  0
    1.0400   -0.5990   -1.5070 O   0  0  0  0  0  0  0  0  0  0  0  0
  1  2  1  0
  2  3  1  0
  3  4  2  0
  3  9  1  0
  4  5  1  0
  4  6  1  0
  6  7  1  0
  7  8  1  0
  8  9  2  0
  8 24  1  0
  9 10  1  0
 10 11  1  0
 11 12  1  1
 11 24  1  0
 12 13  2  0
 12 14  1  0
 14 15  1  0
 15 16  1  1
 15 17  1  0
 17 18  2  0
 17 19  1  0
 19 20  1  0
 20 21  1  0
 21 22  1  0
 21 23  2  0
M  CHG  1   5   1
M  END
