
     RDKit          3D

 23 26  0  0  0  0  0  0  0  0999 V2000
    0.7580   -1.9190   -1.9120 C   0  0  0  0  0  0  0  0  0  0  0  0
    0.1090   -0.8440   -1.1450 C   0  0  0  0  0  0  0  0  0  0  0  0
   -1.2260   -0.7490   -0.9100 N   0  0  0  0  0  0  0  0  0  0  0  0
   -1.4860    0.3250   -0.1890 C   0  0  0  0  0  0  0  0  0  0  0  0
   -2.7690    0.8070    0.2860 C   0  0  0  0  0  0  0  0  0  0  0  0
   -2.9790    1.9360    1.0360 N   0  0  0  0  0  0  0  0  0  0  0  0
   -4.2880    2.0570    1.2840 C   0  0  0  0  0  0  0  0  0  0  0  0
   -4.9630    1.0180    0.7070 N   0  0  0  0  0  0  0  0  0  0  0  0
   -4.0190    0.2690    0.1050 C   0  0  0  0  0  0  0  0  0  0  0  0
   -4.7230   -0.8640   -0.5280 C   0  0  0  0  0  0  0  0  0  0  0  0
   -6.0250   -0.7450   -0.2830 C   0  0  0  0  0  0  0  0  0  0  0  0
   -6.2880    0.4570    0.5210 C   0  0  0  0  0  0  0  0  0  0  0  0
   -0.2810    0.9430    0.0500 C   0  0  0  0  0  0  0  0  0  0  0  0
    0.7360    0.2110   -0.5510 C   0  0  0  0  0  0  0  0  0  0  0  0
    2.1190    0.6100   -0.4830 C   0  0  0  0  0  0  0  0  0  0  0  0
    2.4660    1.6380    0.2170 O   0  0  0  0  0  0  0  0  0  0  0  0
    3.2160   -0.0170   -1.1270 N   0  0  0  0  0  0  0  0  0  0  0  0
    4.5720    0.4990   -0.9680 C   0  0  0  0  0  0  0  0  0  0  0  0
    5.1370    0.1500    0.3500 C   0  0  0  0  0  0  0  0  0  0  0  0
    4.6050   -0.5480    1.3660 N   0  0  0  0  0  0  0  0  0  0  0  0
    5.5070   -0.6000    2.3610 C   0  0  0  0  0  0  0  0  0  0  0  0
    6.6010    0.0640    1.9680 N   0  0  0  0  0  0  0  0  0  0  0  0
    6.3650    0.5140    0.7500 N   0  0  0  0  0  0  0  0  0  0  0  0
  1  2  1  0
  2  3  1  0
  2 14  2  0
  3  4  1  0
  4  5  1  0
  4 13  2  0
  5  6  1  0
  5  9  2  0
  6  7  2  0
  7  8  1  0
  8  9  1  0
  8 12  1  0
  9 10  1  0
 10 11  2  0
 11 12  1  0
 13 14  1  0
 14 15  1  0
 15 16  2  0
 15 17  1  0
 17 18  1  0
 18 19  1  0
 19 20  1  0
 19 23  2  0
 20 21  2  0
 21 22  1  0
 22 23  1  0
M  END
