
     RDKit          3D

 23 25  0  0  0  0  0  0  0  0999 V2000
    0.0160   -2.6670   -1.9780 C   0  0  0  0  0  0  0  0  0  0  0  0
    0.3300   -1.7760   -0.8760 C   0  0  0  0  0  0  0  0  0  0  0  0
    1.5820   -1.8770   -0.3760 C   0  0  0  0  0  0  0  0  0  0  0  0
    2.0540   -1.0860    0.6960 N   0  0  0  0  0  0  0  0  0  0  0  0
    3.1700   -0.2510    0.4980 C   0  0  0  0  0  0  0  0  0  0  0  0
    3.8040   -0.1950   -0.7160 C   0  0  0  0  0  0  0  0  0  0  0  0
    4.9120    0.6410   -0.8970 C   0  0  0  0  0  0  0  0  0  0  0  0
    5.3280    1.3710    0.1340 N   0  0  0  0  0  0  0  0  0  0  0  0
    4.7510    1.3540    1.3330 C   0  0  0  0  0  0  0  0  0  0  0  0
    5.2220    2.1310    2.3710 O   0  0  0  0  0  0  0  0  0  0  0  0
    3.6420    0.5230    1.5250 C   0  0  0  0  0  0  0  0  0  0  0  0
   -0.5050   -0.8160   -0.2570 C   0  0  0  0  0  0  0  0  0  0  0  0
   -1.7220   -0.3950   -0.3990 C   0  0  0  0  0  0  0  0  0  0  0  0
   -2.2280    0.6790    0.5020 C   0  0  0  0  0  0  0  0  0  0  0  0
   -1.3160    1.2170    1.5200 C   0  0  0  0  0  0  0  0  0  0  0  0
   -3.4500    1.1600    0.4210 C   0  0  0  0  0  0  0  0  0  0  0  0
   -3.9210    2.2330    1.3360 C   0  0  0  0  0  0  0  0  0  0  0  0
   -4.3580    0.6690   -0.5440 N   0  0  0  0  0  0  0  0  0  0  0  0
   -3.9370   -0.3420   -1.4180 C   0  0  0  0  0  0  0  0  0  0  0  0
   -4.5980   -0.9710   -2.4090 N   0  0  0  0  0  0  0  0  0  0  0  0
   -3.7530   -1.8380   -2.9240 N   0  0  0  0  0  0  0  0  0  0  0  0
   -2.6150   -1.7510   -2.2790 N   0  0  0  0  0  0  0  0  0  0  0  0
   -2.6630   -0.8530   -1.3440 N   0  0  0  0  0  0  0  0  0  0  0  0
  1  2  1  0
  2  3  2  3
  2 12  1  0
  3  4  1  0
  4  5  1  0
  5  6  2  0
  5 11  1  0
  6  7  1  0
  7  8  2  0
  8  9  1  0
  9 10  1  0
  9 11  2  0
 12 13  2  3
 13 14  1  0
 13 23  1  0
 14 15  1  0
 14 16  2  0
 16 17  1  0
 16 18  1  0
 18 19  1  0
 19 20  2  0
 19 23  1  0
 20 21  1  0
 21 22  2  0
 22 23  1  0
M  END
