
     RDKit          3D

 27 29  0  0  0  0  0  0  0  0999 V2000
    5.7160   -0.4620   -0.0320 C   0  0  0  0  0  0  0  0  0  0  0  0
    5.0590    0.7050   -0.5980 N   0  0  0  0  0  0  0  0  0  0  0  0
    5.3210    1.1180   -1.8620 C   0  0  0  0  0  0  0  0  0  0  0  0
    4.6970    2.2250   -2.3970 C   0  0  0  0  0  0  0  0  0  0  0  0
    3.7980    2.8920   -1.5920 C   0  0  0  0  0  0  0  0  0  0  0  0
    3.5270    2.4660   -0.2870 C   0  0  0  0  0  0  0  0  0  0  0  0
    4.1780    1.3540    0.2000 C   0  0  0  0  0  0  0  0  0  0  0  0
    3.9300    0.8570    1.5900 C   0  0  0  0  0  0  0  0  0  0  0  0
    3.0740   -0.2840    1.6490 N   0  0  0  0  0  0  0  0  0  0  0  0
    1.7210   -0.2750    1.1570 C   0  0  0  0  0  0  0  0  0  0  0  0
    1.2900    0.7700    0.6650 O   0  0  0  0  0  0  0  0  0  0  0  0
    0.9760   -1.5550    1.3010 C   0  0  2  0  0  0  0  0  0  0  0  0
    1.5910   -2.4950    0.2960 C   0  0  0  0  0  0  0  0  0  0  0  0
    0.4980   -3.5280    0.1510 C   0  0  0  0  0  0  0  0  0  0  0  0
   -0.7100   -2.5970    0.0360 C   0  0  0  0  0  0  0  0  0  0  0  0
   -0.4090   -1.4650    0.8820 N   0  0  0  0  0  0  0  0  0  0  0  0
   -1.3460   -0.4550    1.2220 C   0  0  0  0  0  0  0  0  0  0  0  0
   -0.8990    0.4760    1.9950 O   0  0  0  0  0  0  0  0  0  0  0  0
   -2.7360   -0.3090    0.8300 C   0  0  2  0  0  0  0  0  0  0  0  0
   -3.3660   -1.3850    0.1520 N   0  0  0  0  0  0  0  0  0  0  0  0
   -2.9300    0.9650   -0.0150 C   0  0  0  0  0  0  0  0  0  0  0  0
   -4.3120    1.1690   -0.4450 C   0  0  0  0  0  0  0  0  0  0  0  0
   -4.7420    0.6970   -1.6790 C   0  0  0  0  0  0  0  0  0  0  0  0
   -6.0410    0.8890   -2.0810 C   0  0  0  0  0  0  0  0  0  0  0  0
   -6.9820    1.5430   -1.3160 C   0  0  0  0  0  0  0  0  0  0  0  0
   -6.5500    2.0100   -0.0930 C   0  0  0  0  0  0  0  0  0  0  0  0
   -5.2560    1.8280    0.3290 C   0  0  0  0  0  0  0  0  0  0  0  0
  1  2  1  0
  2  3  2  0
  2  7  1  0
  3  4  1  0
  4  5  2  0
  5  6  1  0
  6  7  2  0
  7  8  1  0
  8  9  1  0
  9 10  1  0
 10 11  2  0
 12 10  1  6
 12 13  1  0
 12 16  1  0
 13 14  1  0
 14 15  1  0
 15 16  1  0
 16 17  1  0
 17 18  2  0
 17 19  1  0
 19 20  1  6
 19 21  1  0
 21 22  1  0
 22 23  2  0
 22 27  1  0
 23 24  1  0
 24 25  2  0
 25 26  1  0
 26 27  2  0
M  CHG  2   2   1  20   1
M  END
