
     RDKit          3D

 12 13  0  0  0  0  0  0  0  0999 V2000
   -1.8040   -1.8170   -0.2130 C   0  0  0  0  0  0  0  0  0  0  0  0
   -0.5970   -0.9360   -0.1100 C   0  0  0  0  0  0  0  0  0  0  0  0
   -0.5730    0.3520    0.0990 C   0  0  0  0  0  0  0  0  0  0  0  0
   -1.7560    1.2240    0.2810 C   0  0  0  0  0  0  0  0  0  0  0  0
   -1.8290    2.4940   -0.9610 Cl  0  0  0  0  0  0  0  0  0  0  0  0
    0.7930    0.8780    0.1380 C   0  0  0  0  0  0  0  0  0  0  0  0
    1.5550    2.0240    0.2990 C   0  0  0  0  0  0  0  0  0  0  0  0
    0.9350    3.6370    0.5820 Cl  0  0  0  0  0  0  0  0  0  0  0  0
    2.8290    1.6260    0.1910 N   0  0  0  0  0  0  0  0  0  0  0  0
    2.8540    0.2930   -0.0270 C   0  0  0  0  0  0  0  0  0  0  0  0
    1.5930   -0.1830   -0.0620 N   0  0  0  0  0  0  0  0  0  0  0  0
    0.8110   -1.3880   -0.2310 C   0  0  0  0  0  0  0  0  0  0  0  0
  1  2  1  0
  2  3  2  0
  2 12  1  0
  3  4  1  0
  3  6  1  0
  4  5  1  0
  6  7  2  0
  6 11  1  0
  7  8  1  0
  7  9  1  0
  9 10  2  0
 10 11  1  0
 11 12  1  0
M  END
