
     RDKit          3D

 27 30  0  0  0  0  0  0  0  0999 V2000
    7.4450   -1.8000   -1.3730 C   0  0  0  0  0  0  0  0  0  0  0  0
    6.5370   -2.0830   -0.1970 C   0  0  0  0  0  0  0  0  0  0  0  0
    5.6860   -0.8910    0.0310 C   0  0  0  0  0  0  0  0  0  0  0  0
    4.3760   -0.9960   -0.0440 C   0  0  0  0  0  0  0  0  0  0  0  0
    3.6260   -2.1320   -0.3230 O   0  0  0  0  0  0  0  0  0  0  0  0
    2.2630   -1.8080   -0.3060 C   0  0  0  0  0  0  0  0  0  0  0  0
    1.3470   -2.6150   -0.5200 O   0  0  0  0  0  0  0  0  0  0  0  0
    2.1680   -0.3930    0.0010 C   0  0  0  0  0  0  0  0  0  0  0  0
    3.4360    0.1130    0.1620 C   0  0  0  0  0  0  0  0  0  0  0  0
    3.6460    1.4390    0.4610 C   0  0  0  0  0  0  0  0  0  0  0  0
    2.5770    2.2910    0.6060 C   0  0  0  0  0  0  0  0  0  0  0  0
    2.7590    3.7270    0.9280 C   0  0  0  0  0  0  0  0  0  0  0  0
    1.2980    1.7720    0.4410 C   0  0  0  0  0  0  0  0  0  0  0  0
    0.2150    2.6110    0.5820 C   0  0  0  0  0  0  0  0  0  0  0  0
   -1.0800    2.0980    0.4180 C   0  0  0  0  0  0  0  0  0  0  0  0
   -1.3310    0.7860    0.1210 C   0  0  0  0  0  0  0  0  0  0  0  0
   -2.6290    0.2310   -0.0410 N   0  0  0  0  0  0  0  0  0  0  0  0
   -3.8520    0.8610    0.2080 C   0  0  0  0  0  0  0  0  0  0  0  0
   -3.8950    2.0300    0.6200 O   0  0  0  0  0  0  0  0  0  0  0  0
   -5.1340    0.1250   -0.0210 C   0  0  2  0  0  0  0  0  0  0  0  0
   -6.3120    0.9780    0.3050 C   0  0  0  0  0  0  0  0  0  0  0  0
   -5.1360   -1.2050    0.6780 C   0  0  0  0  0  0  0  0  0  0  0  0
   -5.9740   -2.1530   -0.1270 C   0  0  0  0  0  0  0  0  0  0  0  0
   -5.4370   -2.1730   -1.5310 C   0  0  0  0  0  0  0  0  0  0  0  0
   -5.1190   -0.3820   -1.7860 S   0  0  0  0  0  0  0  0  0  0  0  0
   -0.2110   -0.0450   -0.0170 C   0  0  0  0  0  0  0  0  0  0  0  0
    1.0590    0.4490    0.1410 C   0  0  0  0  0  0  0  0  0  0  0  0
  1  2  1  0
  2  3  1  0
  3  4  2  3
  4  5  1  0
  4  9  1  0
  5  6  1  0
  6  7  2  0
  6  8  1  0
  8  9  2  0
  8 27  1  0
  9 10  1  0
 10 11  2  0
 11 12  1  0
 11 13  1  0
 13 14  2  0
 13 27  1  0
 14 15  1  0
 15 16  2  0
 16 17  1  0
 16 26  1  0
 17 18  1  0
 18 19  2  0
 18 20  1  0
 20 21  1  6
 20 22  1  0
 20 25  1  0
 22 23  1  0
 23 24  1  0
 24 25  1  0
 26 27  2  0
M  END
