
     RDKit          3D

 27 30  0  0  0  0  0  0  0  0999 V2000
   -3.4680   -1.1170   -1.9300 C   0  0  0  0  0  0  0  0  0  0  0  0
   -4.4030   -0.4900   -0.9590 C   0  0  0  0  0  0  0  0  0  0  0  0
   -3.8580    0.1850    0.1010 C   0  0  0  0  0  0  0  0  0  0  0  0
   -2.3760    0.1760    0.0430 C   0  0  0  0  0  0  0  0  0  0  0  0
   -1.8800    1.3450   -0.5510 C   0  0  0  0  0  0  0  0  0  0  0  0
   -0.5660    1.3480   -0.9310 C   0  0  0  0  0  0  0  0  0  0  0  0
    0.2240    0.2310   -0.7230 C   0  0  0  0  0  0  0  0  0  0  0  0
    1.5440    0.2720   -1.3200 C   0  0  0  0  0  0  0  0  0  0  0  0
    2.6020    0.7400   -0.6730 O   0  0  0  0  0  0  0  0  0  0  0  0
    2.9720   -0.0340    0.4610 C   0  0  0  0  0  0  0  0  0  0  0  0
    4.4310    0.3990    0.5350 C   0  0  0  0  0  0  0  0  0  0  0  0
    5.1610    1.8900    0.9540 S   0  0  0  0  0  0  0  0  0  0  0  0
    6.8920    1.3540    0.7500 C   0  0  0  0  0  0  0  0  0  0  0  0
    6.7240    0.0800    0.3730 C   0  0  0  0  0  0  0  0  0  0  0  0
    5.4770   -0.4400    0.2570 C   0  0  0  0  0  0  0  0  0  0  0  0
    5.1420   -1.8480   -0.2330 C   0  0  0  0  0  0  0  0  0  0  0  0
    8.1120   -0.3980    0.0260 C   0  0  0  0  0  0  0  0  0  0  0  0
    8.5370   -1.5390   -0.1360 O   0  0  0  0  0  0  0  0  0  0  0  0
    8.9170    0.8640   -0.0990 C   0  0  0  0  0  0  0  0  0  0  0  0
    8.2250    1.7050    0.8330 O   0  0  0  0  0  0  0  0  0  0  0  0
   -0.2570   -0.8980   -0.1300 C   0  0  0  0  0  0  0  0  0  0  0  0
   -1.6250   -0.8940    0.2570 C   0  0  0  0  0  0  0  0  0  0  0  0
   -4.6040    0.8130    1.1460 C   0  0  0  0  0  0  0  0  0  0  0  0
   -6.0990    0.8800    0.8740 C   0  0  2  0  0  0  0  0  0  0  0  0
   -6.7420   -0.4080    1.3660 C   0  0  0  0  0  0  0  0  0  0  0  0
   -6.3260    0.9270   -0.6540 C   0  0  0  0  0  0  0  0  0  0  0  0
   -5.7990   -0.3860   -1.1100 N   0  0  0  0  0  0  0  0  0  0  0  0
  1  2  1  0
  2  3  2  0
  2 27  1  0
  3  4  1  0
  3 23  1  0
  4  5  2  0
  4 22  1  0
  5  6  1  0
  6  7  2  0
  7  8  1  0
  7 21  1  0
  8  9  1  0
  9 10  1  0
 10 11  1  0
 11 12  1  0
 11 15  2  0
 12 13  1  0
 13 14  2  0
 13 20  1  0
 14 15  1  0
 14 17  1  0
 15 16  1  0
 17 18  2  0
 17 19  1  0
 19 20  1  0
 21 22  2  0
 23 24  1  0
 24 25  1  6
 24 26  1  0
 26 27  1  0
M  END
