
     RDKit          3D

 12 13  0  0  0  0  0  0  0  0999 V2000
    4.5080    0.3630    0.1990 Cl  0  0  0  0  0  0  0  0  0  0  0  0
    2.8290    0.8930    0.2380 C   0  0  0  0  0  0  0  0  0  0  0  0
    2.4500    2.5660    0.5380 Cl  0  0  0  0  0  0  0  0  0  0  0  0
    1.8900   -0.0380    0.0320 C   0  0  0  0  0  0  0  0  0  0  0  0
    2.0880   -1.4730   -0.2270 C   0  0  0  0  0  0  0  0  0  0  0  0
    0.7660   -1.9960   -0.3540 N   0  0  0  0  0  0  0  0  0  0  0  0
   -0.1350   -1.1020   -0.2240 C   0  0  0  0  0  0  0  0  0  0  0  0
   -1.6140   -1.3180   -0.3030 C   0  0  0  0  0  0  0  0  0  0  0  0
   -2.3940   -0.1100    0.0190 C   0  0  0  0  0  0  0  0  0  0  0  0
   -1.7240    1.1920   -0.2980 C   0  0  0  0  0  0  0  0  0  0  0  0
   -0.3380    1.3180    0.1970 C   0  0  0  0  0  0  0  0  0  0  0  0
    0.4630    0.1470    0.0170 N   0  0  0  0  0  0  0  0  0  0  0  0
  1  2  1  0
  2  3  1  0
  2  4  2  3
  4  5  1  0
  4 12  1  0
  5  6  1  0
  6  7  2  0
  7  8  1  0
  7 12  1  0
  8  9  1  0
  9 10  1  0
 10 11  1  0
 11 12  1  0
M  END
