
     RDKit          3D

 27 30  0  0  0  0  0  0  0  0999 V2000
   -1.6850   -3.7630    1.1670 C   0  0  0  0  0  0  0  0  0  0  0  0
   -2.6210   -2.5760    1.3460 C   0  0  0  0  0  0  0  0  0  0  0  0
   -2.0450   -1.4610    0.7390 O   0  0  0  0  0  0  0  0  0  0  0  0
   -2.5710   -0.2010    0.6800 C   0  0  0  0  0  0  0  0  0  0  0  0
   -3.7860    0.1760    1.2240 C   0  0  0  0  0  0  0  0  0  0  0  0
   -4.2580    1.4580    1.1300 C   0  0  0  0  0  0  0  0  0  0  0  0
   -5.4810    1.8190    1.6820 O   0  0  0  0  0  0  0  0  0  0  0  0
   -5.9990    3.1130    1.6090 C   0  0  0  0  0  0  0  0  0  0  0  0
   -3.5390    2.4420    0.4830 C   0  0  0  0  0  0  0  0  0  0  0  0
   -2.3090    2.0880   -0.0750 C   0  0  0  0  0  0  0  0  0  0  0  0
   -1.8600    0.7890    0.0360 C   0  0  0  0  0  0  0  0  0  0  0  0
   -0.5550    0.4860   -0.5760 C   0  0  0  0  0  0  0  0  0  0  0  0
   -0.2400    0.9430   -1.8460 C   0  0  0  0  0  0  0  0  0  0  0  0
    0.9710    0.6760   -2.4450 C   0  0  0  0  0  0  0  0  0  0  0  0
    1.9240   -0.0680   -1.7840 C   0  0  0  0  0  0  0  0  0  0  0  0
    1.6110   -0.5320   -0.5000 C   0  0  0  0  0  0  0  0  0  0  0  0
    2.6750   -1.3320    0.1800 C   0  0  2  0  0  0  0  0  0  0  0  0
    2.2360   -1.8710    1.5100 C   0  0  0  0  0  0  0  0  0  0  0  0
    2.3380   -0.9180    2.5770 N   0  0  0  0  0  0  0  0  0  0  0  0
    3.6830   -0.8880    3.1540 C   0  0  0  0  0  0  0  0  0  0  0  0
    4.8330   -1.1220    1.7690 S   0  0  0  0  0  0  0  0  0  0  0  0
    3.9440   -0.5190    0.2810 C   0  0  0  0  0  0  0  0  0  0  0  0
    0.3970   -0.2560    0.0830 C   0  0  0  0  0  0  0  0  0  0  0  0
    3.1240   -0.3180   -2.4080 O   0  0  0  0  0  0  0  0  0  0  0  0
    3.6800    0.4930   -3.4270 C   0  0  0  0  0  0  0  0  0  0  0  0
    2.7700    1.6850   -3.6790 C   0  0  0  0  0  0  0  0  0  0  0  0
    1.3360    1.1530   -3.8040 C   0  0  0  0  0  0  0  0  0  0  0  0
  1  2  1  0
  2  3  1  0
  3  4  1  0
  4  5  2  0
  4 11  1  0
  5  6  1  0
  6  7  1  0
  6  9  2  0
  7  8  1  0
  9 10  1  0
 10 11  2  0
 11 12  1  0
 12 13  2  0
 12 23  1  0
 13 14  1  0
 14 15  2  0
 14 27  1  0
 15 16  1  0
 15 24  1  0
 17 16  1  1
 16 23  2  0
 17 18  1  0
 17 22  1  0
 18 19  1  0
 19 20  1  0
 20 21  1  0
 21 22  1  0
 24 25  1  0
 25 26  1  0
 26 27  1  0
M  END
