
     RDKit          3D

 45 51  0  0  0  0  0  0  0  0999 V2000
    7.2700   -3.3490    1.7170 C   0  0  0  0  0  0  0  0  0  0  0  0
    7.4360   -2.7590    0.3670 C   0  0  2  0  0  0  0  0  0  0  0  0
    8.0410   -1.3760    0.3830 C   0  0  0  0  0  0  0  0  0  0  0  0
    7.4610   -0.6220   -0.6000 O   0  0  0  0  0  0  0  0  0  0  0  0
    6.5360   -1.3950   -1.2810 C   0  0  0  0  0  0  0  0  0  0  0  0
    6.1200   -2.5010   -0.3450 C   0  0  2  0  0  0  0  0  0  0  0  0
    5.0960   -2.0690    0.5380 N   0  0  0  0  0  0  0  0  0  0  0  0
    4.0490   -1.2700    0.0050 C   0  0  1  0  0  0  0  0  0  0  0  0
    2.7010   -1.5580    0.6440 C   0  0  0  0  0  0  0  0  0  0  0  0
    1.9170   -0.2870    0.2660 C   0  0  0  0  0  0  0  0  0  0  0  0
    2.8970    0.7060   -0.0490 N   0  0  0  0  0  0  0  0  0  0  0  0
    2.7140    1.9820   -0.6700 C   0  0  0  0  0  0  0  0  0  0  0  0
    3.7190    2.6870   -0.8780 O   0  0  0  0  0  0  0  0  0  0  0  0
    1.4310    2.4820   -1.0590 N   0  0  0  0  0  0  0  0  0  0  0  0
    1.1550    3.7070   -1.6790 C   0  0  0  0  0  0  0  0  0  0  0  0
    2.1770    4.4540   -2.2220 C   0  0  0  0  0  0  0  0  0  0  0  0
    1.9880    5.6800   -2.8670 C   0  0  0  0  0  0  0  0  0  0  0  0
    0.7150    6.1400   -2.9520 C   0  0  0  0  0  0  0  0  0  0  0  0
   -0.3400    5.4410   -2.4330 C   0  0  0  0  0  0  0  0  0  0  0  0
   -0.1170    4.2010   -1.7840 C   0  0  0  0  0  0  0  0  0  0  0  0
   -1.2660    3.5510   -1.2080 C   0  0  0  0  0  0  0  0  0  0  0  0
   -1.4220    2.2950   -0.8280 N   0  0  0  0  0  0  0  0  0  0  0  0
   -2.5120    1.8000   -0.2460 C   0  0  0  0  0  0  0  0  0  0  0  0
   -2.6460    0.3990    0.1010 C   0  0  0  0  0  0  0  0  0  0  0  0
   -3.6520   -0.1370    0.8640 C   0  0  0  0  0  0  0  0  0  0  0  0
   -3.7580   -1.4790    1.1300 C   0  0  0  0  0  0  0  0  0  0  0  0
   -4.8220   -2.0620    1.9820 C   0  0  2  0  0  0  0  0  0  0  0  0
   -5.0220   -3.5030    2.0860 C   0  0  0  0  0  0  0  0  0  0  0  0
   -6.0370   -2.6880    1.3860 C   0  0  2  0  0  0  0  0  0  0  0  0
   -6.2560   -2.7170   -0.0830 C   0  0  0  0  0  0  0  0  0  0  0  0
   -7.5240   -1.9140   -0.3010 C   0  0  0  0  0  0  0  0  0  0  0  0
   -8.0100   -1.4730    1.0630 C   0  0  0  0  0  0  0  0  0  0  0  0
   -7.3710   -2.4150    2.0520 C   0  0  0  0  0  0  0  0  0  0  0  0
   -2.8270   -2.2920    0.6110 N   0  0  0  0  0  0  0  0  0  0  0  0
   -1.8020   -1.8360   -0.1530 C   0  0  0  0  0  0  0  0  0  0  0  0
   -0.9420   -2.6230   -0.6260 O   0  0  0  0  0  0  0  0  0  0  0  0
   -1.7170   -0.4870   -0.4050 C   0  0  0  0  0  0  0  0  0  0  0  0
   -3.5360    2.6350   -0.0260 N   0  0  0  0  0  0  0  0  0  0  0  0
   -3.4790    3.9430   -0.3800 C   0  0  0  0  0  0  0  0  0  0  0  0
   -4.6350    4.8660   -0.1290 C   0  0  2  0  0  0  0  0  0  0  0  0
   -4.2530    6.1240   -0.5620 F   0  0  0  0  0  0  0  0  0  0  0  0
   -5.0680    4.8530    1.1590 F   0  0  0  0  0  0  0  0  0  0  0  0
   -5.6670    4.4840   -0.9820 F   0  0  0  0  0  0  0  0  0  0  0  0
   -2.3550    4.3590   -0.9570 N   0  0  0  0  0  0  0  0  0  0  0  0
    4.1820    0.2030    0.3860 C   0  0  0  0  0  0  0  0  0  0  0  0
  2  1  1  1
  2  3  1  0
  2  6  1  0
  3  4  1  0
  4  5  1  0
  5  6  1  0
  6  7  1  1
  8  7  1  1
  8  9  1  0
  8 45  1  0
  9 10  1  0
 10 11  1  0
 11 12  1  0
 11 45  1  0
 12 13  2  0
 12 14  1  0
 14 15  1  0
 15 16  2  0
 15 20  1  0
 16 17  1  0
 17 18  2  0
 18 19  1  0
 19 20  2  0
 20 21  1  0
 21 22  2  0
 21 44  1  0
 22 23  1  0
 23 24  1  0
 23 38  2  0
 24 25  1  0
 24 37  2  0
 25 26  2  0
 27 26  1  6
 26 34  1  0
 27 28  1  0
 27 29  1  0
 29 28  1  1
 29 30  1  0
 29 33  1  0
 30 31  1  0
 31 32  1  0
 32 33  1  0
 34 35  1  0
 35 36  2  0
 35 37  1  0
 38 39  1  0
 39 40  1  0
 39 44  2  0
 40 41  1  6
 40 42  1  0
 40 43  1  0
M  CHG  1   7   1
M  END
