
     RDKit          3D

 45 50  0  0  0  0  0  0  0  0999 V2000
   -7.8910    2.9420    1.9190 C   0  0  0  0  0  0  0  0  0  0  0  0
   -6.8460    2.9080    0.9470 N   0  0  0  0  0  0  0  0  0  0  0  0
   -7.2820    2.9390   -0.4130 C   0  0  0  0  0  0  0  0  0  0  0  0
   -7.8410    1.7620   -0.8140 O   0  0  0  0  0  0  0  0  0  0  0  0
   -7.0880    0.6310   -0.6930 C   0  0  1  0  0  0  0  0  0  0  0  0
   -6.2180    0.4470   -1.9490 C   0  0  2  0  0  0  0  0  0  0  0  0
   -5.3610    1.4980   -2.1450 F   0  0  0  0  0  0  0  0  0  0  0  0
   -7.1000    0.4580   -3.0180 F   0  0  0  0  0  0  0  0  0  0  0  0
   -5.5860   -0.7740   -1.9530 F   0  0  0  0  0  0  0  0  0  0  0  0
   -6.1670    0.5700    0.4930 C   0  0  2  0  0  0  0  0  0  0  0  0
   -6.8330   -0.2830    1.5630 C   0  0  0  0  0  0  0  0  0  0  0  0
   -7.0850   -1.6350    1.1060 N   0  0  0  0  0  0  0  0  0  0  0  0
   -6.0410   -2.4990    0.6930 C   0  0  0  0  0  0  0  0  0  0  0  0
   -4.7470   -2.1420    0.6900 N   0  0  0  0  0  0  0  0  0  0  0  0
   -3.7720   -2.9760    0.2920 C   0  0  0  0  0  0  0  0  0  0  0  0
   -2.4510   -2.5770    0.2980 C   0  0  0  0  0  0  0  0  0  0  0  0
   -1.4340   -3.3930   -0.1020 C   0  0  0  0  0  0  0  0  0  0  0  0
   -0.1030   -2.9480   -0.1110 N   0  0  0  0  0  0  0  0  0  0  0  0
    0.2260   -1.6740   -0.6300 C   0  0  0  0  0  0  0  0  0  0  0  0
   -0.6560   -0.8640   -1.2830 C   0  0  0  0  0  0  0  0  0  0  0  0
   -0.2550    0.4070   -1.7210 C   0  0  0  0  0  0  0  0  0  0  0  0
    1.0410    0.8130   -1.4780 C   0  0  0  0  0  0  0  0  0  0  0  0
    1.9220   -0.0050   -0.8240 C   0  0  0  0  0  0  0  0  0  0  0  0
    3.2960    0.3690   -0.5270 C   0  0  0  0  0  0  0  0  0  0  0  0
    4.1030   -0.5230    0.1490 C   0  0  0  0  0  0  0  0  0  0  0  0
    5.3960   -0.2080    0.4620 C   0  0  0  0  0  0  0  0  0  0  0  0
    5.9750    0.9880    0.1360 C   0  0  0  0  0  0  0  0  0  0  0  0
    7.3350    1.3060    0.5130 C   0  0  0  0  0  0  0  0  0  0  0  0
    7.8880    1.9590   -0.3660 O   0  0  0  0  0  0  0  0  0  0  0  0
    8.3680    1.2640    1.3640 N   0  0  1  0  0  0  0  0  0  0  0  0
    9.3720    0.3060    1.0980 C   0  0  0  0  0  0  0  0  0  0  0  0
    9.8500    0.3320   -0.3070 C   0  0  0  0  0  0  0  0  0  0  0  0
   10.6100    1.6220   -0.4990 C   0  0  0  0  0  0  0  0  0  0  0  0
   10.0420    2.7710    0.2530 C   0  0  0  0  0  0  0  0  0  0  0  0
    9.2320    2.5090    1.4380 C   0  0  0  0  0  0  0  0  0  0  0  0
    5.1730    1.8740   -0.5380 C   0  0  0  0  0  0  0  0  0  0  0  0
    3.8790    1.5690   -0.8560 C   0  0  0  0  0  0  0  0  0  0  0  0
    1.4720   -1.2090   -0.4310 N   0  0  0  0  0  0  0  0  0  0  0  0
   -1.7480   -4.6560   -0.5240 C   0  0  0  0  0  0  0  0  0  0  0  0
   -3.0640   -5.1230   -0.5540 C   0  0  0  0  0  0  0  0  0  0  0  0
   -4.0690   -4.2510   -0.1360 C   0  0  0  0  0  0  0  0  0  0  0  0
   -5.3570   -4.6240   -0.1390 N   0  0  0  0  0  0  0  0  0  0  0  0
   -6.3300   -3.7690    0.2660 C   0  0  0  0  0  0  0  0  0  0  0  0
   -7.5250   -4.1710    0.2440 O   0  0  0  0  0  0  0  0  0  0  0  0
   -5.8600    1.9000    1.1280 C   0  0  0  0  0  0  0  0  0  0  0  0
  1  2  1  0
  2  3  1  0
  2 45  1  0
  3  4  1  0
  5  4  1  6
  5  6  1  0
  5 10  1  0
  6  7  1  6
  6  8  1  0
  6  9  1  0
 10 11  1  1
 10 45  1  0
 11 12  1  0
 12 13  1  0
 13 14  2  0
 13 43  1  0
 14 15  1  0
 15 16  2  0
 15 41  1  0
 16 17  1  0
 17 18  1  0
 17 39  2  0
 18 19  1  0
 19 20  2  0
 19 38  1  0
 20 21  1  0
 21 22  2  0
 22 23  1  0
 23 24  1  0
 23 38  2  0
 24 25  2  0
 24 37  1  0
 25 26  1  0
 26 27  2  0
 27 28  1  0
 27 36  1  0
 28 29  2  0
 30 28  1  6
 30 31  1  0
 30 35  1  0
 31 32  1  0
 32 33  1  0
 33 34  1  0
 34 35  1  0
 36 37  2  0
 39 40  1  0
 40 41  2  0
 41 42  1  0
 42 43  1  0
 43 44  2  0
M  CHG  1  30   1
M  END
