
     RDKit          3D

 49 56  0  0  0  0  0  0  0  0999 V2000
    1.1180    1.5090   -2.8290 C   0  0  0  0  0  0  0  0  0  0  0  0
    0.1160    1.6430   -1.6800 C   0  0  0  0  0  0  0  0  0  0  0  0
   -0.2320    0.2840   -1.2170 N   0  0  1  0  0  0  0  0  0  0  0  0
    0.8480   -0.1670   -0.3870 C   0  0  0  0  0  0  0  0  0  0  0  0
    0.5240   -1.0300    0.7460 C   0  0  2  0  0  0  0  0  0  0  0  0
    1.4480   -0.8990    1.9350 C   0  0  0  0  0  0  0  0  0  0  0  0
    2.7610   -1.2300    1.7980 O   0  0  0  0  0  0  0  0  0  0  0  0
    3.8410   -0.8200    1.1340 C   0  0  0  0  0  0  0  0  0  0  0  0
    3.7600    0.1590    0.3820 O   0  0  0  0  0  0  0  0  0  0  0  0
    5.1430   -1.5200    1.2810 C   0  0  0  0  0  0  0  0  0  0  0  0
    5.2540   -2.6000    2.1070 C   0  0  0  0  0  0  0  0  0  0  0  0
    6.4830   -3.2410    2.2310 C   0  0  0  0  0  0  0  0  0  0  0  0
    7.5740   -2.7820    1.5240 C   0  0  0  0  0  0  0  0  0  0  0  0
    7.4590   -1.6890    0.6900 C   0  0  0  0  0  0  0  0  0  0  0  0
    6.2170   -1.0510    0.5710 C   0  0  0  0  0  0  0  0  0  0  0  0
    6.0380    0.0780   -0.2720 N   0  0  0  0  0  0  0  0  0  0  0  0
    5.6690    0.1470   -1.6330 C   0  0  0  0  0  0  0  0  0  0  0  0
    5.5280   -0.8440   -2.3960 O   0  0  0  0  0  0  0  0  0  0  0  0
    5.4830    1.5800   -1.9820 C   0  0  0  0  0  0  0  0  0  0  0  0
    6.4430    2.2560   -1.0180 C   0  0  2  0  0  0  0  0  0  0  0  0
    7.8350    2.0360   -1.5130 C   0  0  0  0  0  0  0  0  0  0  0  0
    6.2320    1.4190    0.2120 C   0  0  0  0  0  0  0  0  0  0  0  0
    6.2270    1.8150    1.4050 O   0  0  0  0  0  0  0  0  0  0  0  0
    0.6020   -2.5270    0.4220 C   0  0  0  0  0  0  0  0  0  0  0  0
   -0.1380   -2.7820   -0.8120 C   0  0  0  0  0  0  0  0  0  0  0  0
   -1.5500   -2.2210   -0.8320 C   0  0  2  0  0  0  0  0  0  0  0  0
   -1.7600   -1.9680   -2.1940 O   0  0  0  0  0  0  0  0  0  0  0  0
   -2.4770   -2.9030   -2.8700 C   0  0  0  0  0  0  0  0  0  0  0  0
   -1.8000   -1.0570    0.0090 C   0  0  2  0  0  0  0  0  0  0  0  0
   -1.5400    0.2770   -0.6990 C   0  0  1  0  0  0  0  0  0  0  0  0
   -1.8070    1.2610    0.3760 C   0  0  2  0  0  0  0  0  0  0  0  0
   -1.3950    2.5500    0.1240 O   0  0  0  0  0  0  0  0  0  0  0  0
   -0.9930    0.6530    1.5380 C   0  0  1  0  0  0  0  0  0  0  0  0
   -1.5390    0.9560    2.7470 O   0  0  0  0  0  0  0  0  0  0  0  0
   -0.8690    1.8190    3.5600 C   0  0  0  0  0  0  0  0  0  0  0  0
   -0.9060   -0.8220    1.2080 C   0  0  2  0  0  0  0  0  0  0  0  0
   -3.2250    1.3150    0.8790 C   0  0  1  0  0  0  0  0  0  0  0  0
   -3.1650    2.1660    2.0210 O   0  0  0  0  0  0  0  0  0  0  0  0
   -4.1640    1.9850   -0.0600 C   0  0  0  0  0  0  0  0  0  0  0  0
   -5.1360    1.1400   -0.7710 C   0  0  2  0  0  0  0  0  0  0  0  0
   -6.4000    1.7180   -0.9150 O   0  0  0  0  0  0  0  0  0  0  0  0
   -6.7960    1.8390   -2.2290 C   0  0  0  0  0  0  0  0  0  0  0  0
   -5.3660   -0.2150   -0.1460 C   0  0  1  0  0  0  0  0  0  0  0  0
   -4.2550   -1.1700   -0.5980 C   0  0  0  0  0  0  0  0  0  0  0  0
   -3.2520   -1.1270    0.4930 C   0  0  2  0  0  0  0  0  0  0  0  0
   -3.6460   -0.0130    1.4070 C   0  0  2  0  0  0  0  0  0  0  0  0
   -5.1820   -0.0820    1.3300 C   0  0  1  0  0  0  0  0  0  0  0  0
   -5.7510    1.0840    1.8120 O   0  0  0  0  0  0  0  0  0  0  0  0
   -6.5500    0.8080    2.8950 C   0  0  0  0  0  0  0  0  0  0  0  0
  1  2  1  0
  3  2  1  1
  3  4  1  0
 30  3  1  1
  4  5  1  0
  5  6  1  1
  5 24  1  0
 36  5  1  6
  6  7  1  0
  7  8  1  0
  8  9  2  0
  8 10  1  0
 10 11  2  0
 10 15  1  0
 11 12  1  0
 12 13  2  0
 13 14  1  0
 14 15  2  0
 15 16  1  0
 16 17  1  0
 16 22  1  0
 17 18  2  0
 17 19  1  0
 19 20  1  0
 20 21  1  6
 20 22  1  0
 22 23  2  0
 24 25  1  0
 25 26  1  0
 26 27  1  6
 29 26  1  6
 27 28  1  0
 29 30  1  0
 29 36  1  0
 29 45  1  0
 30 31  1  0
 31 32  1  6
 31 33  1  0
 31 37  1  0
 33 34  1  1
 33 36  1  0
 34 35  1  0
 37 38  1  1
 37 39  1  0
 37 46  1  0
 39 40  1  0
 40 41  1  1
 40 43  1  0
 41 42  1  0
 43 44  1  6
 43 47  1  0
 45 44  1  6
 46 45  1  6
 46 47  1  0
 47 48  1  6
 48 49  1  0
M  CHG  1   3   1
M  END
