
     RDKit          3D

 45 50  0  0  0  0  0  0  0  0999 V2000
   -8.4530    0.1380    1.6370 C   0  0  0  0  0  0  0  0  0  0  0  0
   -7.3060   -0.3990    0.8010 C   0  0  0  0  0  0  0  0  0  0  0  0
   -7.7130   -1.2150   -0.1230 C   0  0  0  0  0  0  0  0  0  0  0  0
   -7.2830   -2.0430   -1.2060 C   0  0  2  0  0  0  0  0  0  0  0  0
   -6.9190   -1.3590   -2.3670 F   0  0  0  0  0  0  0  0  0  0  0  0
   -8.4280   -2.7910   -1.7030 F   0  0  0  0  0  0  0  0  0  0  0  0
   -5.8940   -0.0010    1.1470 C   0  0  0  0  0  0  0  0  0  0  0  0
   -4.9930   -0.4480    0.1420 N   0  0  0  0  0  0  0  0  0  0  0  0
   -3.6960   -0.1080   -0.2170 C   0  0  0  0  0  0  0  0  0  0  0  0
   -3.1110    0.8050    0.3570 O   0  0  0  0  0  0  0  0  0  0  0  0
   -2.9110   -0.7920   -1.2890 C   0  0  0  0  0  0  0  0  0  0  0  0
   -3.4680   -1.8300   -1.9600 C   0  0  0  0  0  0  0  0  0  0  0  0
   -2.7160   -2.4680   -2.9560 C   0  0  0  0  0  0  0  0  0  0  0  0
   -1.4520   -2.0210   -3.2140 C   0  0  0  0  0  0  0  0  0  0  0  0
   -0.5150   -2.4190   -4.0840 O   0  0  0  0  0  0  0  0  0  0  0  0
    0.5570   -1.6790   -3.9640 C   0  0  0  0  0  0  0  0  0  0  0  0
    1.6420   -1.7440   -4.6030 O   0  0  0  0  0  0  0  0  0  0  0  0
    0.3120   -0.7790   -2.9960 N   0  0  0  0  0  0  0  0  0  0  0  0
    1.2500    0.2310   -2.5330 C   0  0  0  0  0  0  0  0  0  0  0  0
    2.0720   -0.3050   -1.3870 C   0  0  0  0  0  0  0  0  0  0  0  0
    3.0180    0.5890   -0.8680 N   0  0  0  0  0  0  0  0  0  0  0  0
    4.1590    0.9020   -1.7400 C   0  0  2  0  0  0  0  0  0  0  0  0
    4.6800   -0.2370   -2.5020 C   0  0  0  0  0  0  0  0  0  0  0  0
    5.5140   -1.1910   -1.8030 N   0  0  0  0  0  0  0  0  0  0  0  0
    6.7360   -0.8530   -1.1420 C   0  0  0  0  0  0  0  0  0  0  0  0
    7.6170   -1.7730   -1.1140 N   0  0  0  0  0  0  0  0  0  0  0  0
    7.0580    0.4170   -0.4960 C   0  0  0  0  0  0  0  0  0  0  0  0
    7.8080    0.4390    0.5640 C   0  0  0  0  0  0  0  0  0  0  0  0
    8.3190   -0.6460    1.1300 F   0  0  0  0  0  0  0  0  0  0  0  0
    6.4810    1.7150   -1.0170 C   0  0  0  0  0  0  0  0  0  0  0  0
    4.9930    1.6890   -0.8420 C   0  0  2  0  0  0  0  0  0  0  0  0
    4.6730    1.2210    0.5200 N   0  0  0  0  0  0  0  0  0  0  0  0
    4.0790    2.2730    1.3250 C   0  0  0  0  0  0  0  0  0  0  0  0
    3.0180    1.6470    2.1490 C   0  0  0  0  0  0  0  0  0  0  0  0
    2.3730    2.0880    3.2680 C   0  0  0  0  0  0  0  0  0  0  0  0
    1.4000    1.3010    3.8640 C   0  0  0  0  0  0  0  0  0  0  0  0
    1.1000    0.0840    3.3140 C   0  0  0  0  0  0  0  0  0  0  0  0
    1.7680   -0.3520    2.1690 C   0  0  0  0  0  0  0  0  0  0  0  0
    2.7380    0.4120    1.5610 C   0  0  0  0  0  0  0  0  0  0  0  0
    3.6030    0.2510    0.3770 C   0  0  1  0  0  0  0  0  0  0  0  0
   -0.9390   -0.9600   -2.4990 C   0  0  0  0  0  0  0  0  0  0  0  0
   -1.6510   -0.3410   -1.5420 N   0  0  0  0  0  0  0  0  0  0  0  0
   -5.6770    0.8530    2.1010 C   0  0  0  0  0  0  0  0  0  0  0  0
   -6.6260    1.5850    2.9570 C   0  0  0  0  0  0  0  0  0  0  0  0
   -4.2410    0.9810    2.6330 C   0  0  0  0  0  0  0  0  0  0  0  0
  1  2  1  0
  2  3  2  3
  2  7  1  0
  3  4  1  0
  4  5  1  6
  4  6  1  0
  7  8  1  0
  7 43  2  3
  8  9  1  0
  9 10  2  0
  9 11  1  0
 11 12  2  0
 11 42  1  0
 12 13  1  0
 13 14  2  0
 14 15  1  0
 14 41  1  0
 15 16  1  0
 16 17  2  0
 16 18  1  0
 18 19  1  0
 18 41  1  0
 19 20  1  0
 20 21  1  0
 21 22  1  0
 40 21  1  6
 22 23  1  1
 22 31  1  0
 23 24  1  0
 24 25  1  0
 25 26  2  0
 25 27  1  0
 27 28  2  3
 27 30  1  0
 28 29  1  0
 31 30  1  6
 31 32  1  0
 32 33  1  0
 32 40  1  0
 33 34  1  0
 34 35  2  0
 34 39  1  0
 35 36  1  0
 36 37  2  0
 37 38  1  0
 38 39  2  0
 39 40  1  0
 41 42  2  0
 43 44  1  0
 43 45  1  0
M  CHG  1  26   1
M  END
