
     RDKit          3D

 45 50  0  0  0  0  0  0  0  0999 V2000
    3.7950    1.3870   -1.6960 C   0  0  0  0  0  0  0  0  0  0  0  0
    4.7280    0.3710   -1.1030 C   0  0  0  0  0  0  0  0  0  0  0  0
    6.0810    0.5730   -1.0940 C   0  0  0  0  0  0  0  0  0  0  0  0
    6.9360   -0.3640   -0.5130 C   0  0  0  0  0  0  0  0  0  0  0  0
    8.2990   -0.1750   -0.5330 C   0  0  0  0  0  0  0  0  0  0  0  0
    9.1830   -1.1080    0.0070 C   0  0  0  0  0  0  0  0  0  0  0  0
   10.5230   -0.9010   -0.0130 F   0  0  0  0  0  0  0  0  0  0  0  0
    8.7070   -2.2580    0.5830 C   0  0  0  0  0  0  0  0  0  0  0  0
    7.3220   -2.4540    0.6100 C   0  0  0  0  0  0  0  0  0  0  0  0
    6.8100   -3.7030    1.2350 C   0  0  0  0  0  0  0  0  0  0  0  0
    6.4550   -1.5210    0.0740 C   0  0  0  0  0  0  0  0  0  0  0  0
    5.0980   -1.6820    0.0470 N   0  0  0  0  0  0  0  0  0  0  0  0
    4.2640   -0.8020   -0.5050 C   0  0  0  0  0  0  0  0  0  0  0  0
    2.8070   -1.1040   -0.6190 C   0  0  0  0  0  0  0  0  0  0  0  0
    2.0150   -0.1670   -0.0450 O   0  0  0  0  0  0  0  0  0  0  0  0
    1.7880    0.4010    1.1320 C   0  0  0  0  0  0  0  0  0  0  0  0
    2.5170   -0.0180    2.1040 O   0  0  0  0  0  0  0  0  0  0  0  0
    0.8100    1.4540    1.4450 C   0  0  0  0  0  0  0  0  0  0  0  0
    0.6190    2.0480    2.6660 C   0  0  0  0  0  0  0  0  0  0  0  0
   -0.2760    3.0330    2.5930 N   0  0  0  0  0  0  0  0  0  0  0  0
   -0.6810    3.0860    1.2930 C   0  0  0  0  0  0  0  0  0  0  0  0
   -1.5420    3.9470    0.9620 O   0  0  0  0  0  0  0  0  0  0  0  0
   -0.0340    2.1370    0.5910 N   0  0  0  0  0  0  0  0  0  0  0  0
   -0.0770    1.8670   -0.8110 C   0  0  0  0  0  0  0  0  0  0  0  0
   -1.2750    1.1780   -1.3680 C   0  0  2  0  0  0  0  0  0  0  0  0
   -2.4570    2.1450   -1.2290 C   0  0  0  0  0  0  0  0  0  0  0  0
   -3.3110    1.9760   -2.4170 N   0  0  0  0  0  0  0  0  0  0  0  0
   -4.4710    1.1770   -2.0310 C   0  0  0  0  0  0  0  0  0  0  0  0
   -4.1510    0.3730   -0.8330 C   0  0  0  0  0  0  0  0  0  0  0  0
   -5.0690    0.3310    0.0960 C   0  0  0  0  0  0  0  0  0  0  0  0
   -6.3440    1.0160    0.0050 C   0  0  0  0  0  0  0  0  0  0  0  0
   -6.9580    1.7790    0.9980 C   0  0  0  0  0  0  0  0  0  0  0  0
   -8.1380    2.2330    0.5470 N   0  0  0  0  0  0  0  0  0  0  0  0
   -8.2960    1.7930   -0.6790 N   0  0  0  0  0  0  0  0  0  0  0  0
   -7.2190    1.0430   -1.0390 C   0  0  0  0  0  0  0  0  0  0  0  0
   -2.9720   -0.4000   -0.4800 N   0  0  0  0  0  0  0  0  0  0  0  0
   -3.3770   -1.6210    0.1720 C   0  0  0  0  0  0  0  0  0  0  0  0
   -4.2050   -2.4880   -0.5410 C   0  0  0  0  0  0  0  0  0  0  0  0
   -4.6720   -3.6540    0.0530 C   0  0  0  0  0  0  0  0  0  0  0  0
   -5.4840   -4.5200   -0.6080 F   0  0  0  0  0  0  0  0  0  0  0  0
   -4.3260   -3.9730    1.3580 C   0  0  0  0  0  0  0  0  0  0  0  0
   -3.4960   -3.1190    2.0880 C   0  0  0  0  0  0  0  0  0  0  0  0
   -3.1160   -3.3610    3.3360 F   0  0  0  0  0  0  0  0  0  0  0  0
   -3.0370   -1.9400    1.4510 C   0  0  0  0  0  0  0  0  0  0  0  0
   -1.5930   -0.1090   -0.6720 C   0  0  0  0  0  0  0  0  0  0  0  0
  1  2  1  0
  2  3  2  0
  2 13  1  0
  3  4  1  0
  4  5  2  0
  4 11  1  0
  5  6  1  0
  6  7  1  0
  6  8  2  0
  8  9  1  0
  9 10  1  0
  9 11  2  0
 11 12  1  0
 12 13  2  0
 13 14  1  0
 14 15  1  0
 15 16  1  0
 16 17  2  0
 16 18  1  0
 18 19  2  0
 18 23  1  0
 19 20  1  0
 20 21  1  0
 21 22  2  0
 21 23  1  0
 23 24  1  0
 25 24  1  1
 25 26  1  0
 25 45  1  0
 26 27  1  0
 27 28  1  0
 28 29  1  0
 29 30  2  3
 29 36  1  0
 30 31  1  0
 31 32  1  0
 31 35  2  0
 32 33  2  0
 33 34  1  0
 34 35  1  0
 36 37  1  0
 36 45  1  0
 37 38  2  0
 37 44  1  0
 38 39  1  0
 39 40  1  0
 39 41  2  0
 41 42  1  0
 42 43  1  0
 42 44  2  0
M  CHG  1  27   1
M  END
