
     RDKit          3D

 44 49  0  0  0  0  0  0  0  0999 V2000
   -8.9970    1.0690   -1.4610 C   0  0  0  0  0  0  0  0  0  0  0  0
   -8.5930    0.4350   -0.1380 C   0  0  2  0  0  0  0  0  0  0  0  0
   -9.6280    0.8170    0.8900 C   0  0  0  0  0  0  0  0  0  0  0  0
   -7.2710    1.0130    0.2560 C   0  0  0  0  0  0  0  0  0  0  0  0
   -6.0920    0.2960    0.3520 C   0  0  0  0  0  0  0  0  0  0  0  0
   -5.0800    1.1440    0.7390 C   0  0  0  0  0  0  0  0  0  0  0  0
   -3.7110    0.8490    0.9580 N   0  0  0  0  0  0  0  0  0  0  0  0
   -3.1410   -0.4640    0.7910 C   0  0  2  0  0  0  0  0  0  0  0  0
   -2.0850   -0.7220    1.8510 C   0  0  0  0  0  0  0  0  0  0  0  0
   -0.7650   -0.0190    1.5390 C   0  0  0  0  0  0  0  0  0  0  0  0
   -0.2280   -0.5970    0.3190 N   0  0  0  0  0  0  0  0  0  0  0  0
    1.0600   -1.1430    0.2060 C   0  0  0  0  0  0  0  0  0  0  0  0
    1.1230   -2.1820   -0.5510 O   0  0  0  0  0  0  0  0  0  0  0  0
    2.3000   -0.6770    0.8280 C   0  0  0  0  0  0  0  0  0  0  0  0
    2.4300    0.4020    1.5660 C   0  0  0  0  0  0  0  0  0  0  0  0
    3.5030    1.0350    2.2630 C   0  0  0  0  0  0  0  0  0  0  0  0
    3.0850    1.4840    3.4490 O   0  0  0  0  0  0  0  0  0  0  0  0
    4.8430    1.3330    2.0890 N   0  0  0  0  0  0  0  0  0  0  0  0
    6.0620    0.5590    2.1050 C   0  0  0  0  0  0  0  0  0  0  0  0
    6.8840    0.8760    0.8820 C   0  0  0  0  0  0  0  0  0  0  0  0
    7.9800    0.2720    0.7700 O   0  0  0  0  0  0  0  0  0  0  0  0
    6.4560    1.8000   -0.0910 N   0  0  0  0  0  0  0  0  0  0  0  0
    5.1750    1.9150   -0.6940 C   0  0  0  0  0  0  0  0  0  0  0  0
    4.6140    3.1890   -0.8190 C   0  0  0  0  0  0  0  0  0  0  0  0
    3.3890    3.4390   -1.3740 C   0  0  0  0  0  0  0  0  0  0  0  0
    2.8700    4.6810   -1.4850 F   0  0  0  0  0  0  0  0  0  0  0  0
    2.6610    2.3670   -1.8390 C   0  0  0  0  0  0  0  0  0  0  0  0
    3.1880    1.0950   -1.7300 C   0  0  0  0  0  0  0  0  0  0  0  0
    4.4320    0.8370   -1.1680 C   0  0  0  0  0  0  0  0  0  0  0  0
    4.8750   -0.5590   -1.1350 C   0  0  0  0  0  0  0  0  0  0  0  0
    3.9040   -1.5550   -0.8180 N   0  0  1  0  0  0  0  0  0  0  0  0
    4.5290   -2.8320   -1.2220 C   0  0  1  0  0  0  0  0  0  0  0  0
    5.0860   -3.7560   -0.2280 C   0  0  0  0  0  0  0  0  0  0  0  0
    3.8550   -4.1200   -1.0180 C   0  0  0  0  0  0  0  0  0  0  0  0
    3.4620   -1.6040    0.5430 C   0  0  0  0  0  0  0  0  0  0  0  0
   -1.1780   -0.7010   -0.7500 C   0  0  0  0  0  0  0  0  0  0  0  0
   -0.6150   -0.8550   -2.0170 C   0  0  0  0  0  0  0  0  0  0  0  0
   -1.4320   -0.9720   -3.1210 C   0  0  0  0  0  0  0  0  0  0  0  0
   -2.7900   -0.9340   -2.9290 C   0  0  0  0  0  0  0  0  0  0  0  0
   -3.6280   -1.0470   -3.9860 F   0  0  0  0  0  0  0  0  0  0  0  0
   -3.3690   -0.7790   -1.6600 C   0  0  0  0  0  0  0  0  0  0  0  0
   -2.5420   -0.6620   -0.5700 C   0  0  0  0  0  0  0  0  0  0  0  0
   -5.6750    2.3600    0.8700 N   0  0  0  0  0  0  0  0  0  0  0  0
   -6.9450    2.2620    0.5850 N   0  0  0  0  0  0  0  0  0  0  0  0
  2  1  1  6
  2  3  1  0
  2  4  1  0
  4  5  1  0
  4 44  2  0
  5  6  2  0
  6  7  1  0
  6 43  1  0
  8  7  1  6
  8  9  1  0
  8 42  1  0
  9 10  1  0
 10 11  1  0
 11 12  1  0
 11 36  1  0
 12 13  2  0
 12 14  1  0
 14 15  2  0
 14 35  1  0
 15 16  1  0
 16 17  2  0
 16 18  1  0
 18 19  1  0
 19 20  1  0
 20 21  2  0
 20 22  1  0
 22 23  1  0
 23 24  2  0
 23 29  1  0
 24 25  1  0
 25 26  1  0
 25 27  2  0
 27 28  1  0
 28 29  2  0
 29 30  1  0
 31 30  1  1
 31 32  1  0
 31 35  1  0
 32 33  1  1
 32 34  1  0
 33 34  1  0
 36 37  2  0
 36 42  1  0
 37 38  1  0
 38 39  2  0
 39 40  1  0
 39 41  1  0
 41 42  2  0
 43 44  1  0
M  CHG  1  31   1
M  END
