
     RDKit          3D

 31 34  0  0  0  0  0  0  0  0999 V2000
   -0.1210    0.2440    3.6560 C   0  0  0  0  0  0  0  0  0  0  0  0
   -0.3840    0.3420    2.1600 C   0  0  0  0  0  0  0  0  0  0  0  0
   -0.1510    1.5220    1.5950 F   0  0  0  0  0  0  0  0  0  0  0  0
   -0.8070   -0.6920    1.5200 C   0  0  0  0  0  0  0  0  0  0  0  0
   -1.1000   -0.7610    0.1140 C   0  0  0  0  0  0  0  0  0  0  0  0
   -1.5340   -1.9830   -0.2980 C   0  0  0  0  0  0  0  0  0  0  0  0
   -1.8850   -2.2750   -1.6750 C   0  0  2  0  0  0  0  0  0  0  0  0
   -2.3260   -3.6080   -1.7290 F   0  0  0  0  0  0  0  0  0  0  0  0
   -0.7720   -2.2140   -2.4950 F   0  0  0  0  0  0  0  0  0  0  0  0
   -1.0070    0.2590   -0.9060 C   0  0  2  0  0  0  0  0  0  0  0  0
    0.3350    0.6540   -1.3510 C   0  0  0  0  0  0  0  0  0  0  0  0
    1.4580   -0.1690   -1.6370 N   0  0  0  0  0  0  0  0  0  0  0  0
    2.5790   -0.2500   -0.7280 C   0  0  0  0  0  0  0  0  0  0  0  0
    2.7360    0.6660    0.1520 N   0  0  0  0  0  0  0  0  0  0  0  0
    4.1280    0.3470    1.1040 S   0  0  2  0  0  0  0  0  0  0  0  0
    3.8320    0.1440    2.5410 O   0  0  0  0  0  0  0  0  0  0  0  0
    5.1280    1.4330    0.8480 O   0  0  0  0  0  0  0  0  0  0  0  0
    4.5930   -1.1460    0.2960 C   0  0  0  0  0  0  0  0  0  0  0  0
    5.4760   -2.1270    0.2680 C   0  0  0  0  0  0  0  0  0  0  0  0
    5.1020   -3.0550   -0.8120 C   0  0  0  0  0  0  0  0  0  0  0  0
    3.8770   -2.4350   -1.3740 C   0  0  0  0  0  0  0  0  0  0  0  0
    3.5710   -1.3010   -0.7190 C   0  0  0  0  0  0  0  0  0  0  0  0
    0.3310    1.9730   -1.4490 C   0  0  0  0  0  0  0  0  0  0  0  0
   -0.9360    2.4750   -1.0870 N   0  0  0  0  0  0  0  0  0  0  0  0
   -1.7550    1.5060   -0.7570 C   0  0  0  0  0  0  0  0  0  0  0  0
   -3.1210    1.7630   -0.3400 C   0  0  0  0  0  0  0  0  0  0  0  0
   -3.5950    3.0520   -0.2650 C   0  0  0  0  0  0  0  0  0  0  0  0
   -4.9090    3.3510    0.1290 C   0  0  0  0  0  0  0  0  0  0  0  0
   -5.7670    2.3270    0.4560 C   0  0  0  0  0  0  0  0  0  0  0  0
   -5.3010    1.0820    0.3810 N   0  0  0  0  0  0  0  0  0  0  0  0
   -4.0240    0.7750   -0.0020 C   0  0  0  0  0  0  0  0  0  0  0  0
  1  2  1  0
  2  3  1  0
  2  4  2  3
  4  5  1  0
  5  6  2  3
 10  5  1  1
  6  7  1  0
  7  8  1  1
  7  9  1  0
 10 11  1  0
 10 25  1  0
 11 12  1  0
 11 23  2  0
 12 13  1  0
 13 14  2  0
 13 22  1  0
 15 14  1  6
 15 16  2  0
 15 17  2  0
 15 18  1  0
 18 19  2  0
 18 22  1  0
 19 20  1  0
 20 21  1  0
 21 22  2  0
 23 24  1  0
 24 25  2  0
 25 26  1  0
 26 27  2  0
 26 31  1  0
 27 28  1  0
 28 29  2  0
 29 30  1  0
 30 31  2  0
M  CHG  1  24   1
M  END
