
     RDKit          3D

 31 34  0  0  0  0  0  0  0  0999 V2000
   -2.5260   -4.7780    0.7340 C   0  0  0  0  0  0  0  0  0  0  0  0
   -2.3230   -3.6610   -0.2060 N   0  0  0  0  0  0  0  0  0  0  0  0
   -2.8660   -2.3860    0.0670 C   0  0  0  0  0  0  0  0  0  0  0  0
   -3.9650   -2.1400    0.7090 N   0  0  0  0  0  0  0  0  0  0  0  0
   -4.1890   -0.6700    0.7740 C   0  0  0  0  0  0  0  0  0  0  0  0
   -3.4360   -0.2490   -0.4750 C   0  0  1  0  0  0  0  0  0  0  0  0
   -2.9200    1.0900   -0.5610 C   0  0  0  0  0  0  0  0  0  0  0  0
   -3.6570    2.2870   -0.5260 C   0  0  0  0  0  0  0  0  0  0  0  0
   -2.9810    3.4580   -0.7050 C   0  0  0  0  0  0  0  0  0  0  0  0
   -1.6240    3.4320   -0.9090 C   0  0  0  0  0  0  0  0  0  0  0  0
   -0.9070    2.2390   -0.9390 C   0  0  0  0  0  0  0  0  0  0  0  0
   -1.5600    1.0460   -0.7610 C   0  0  0  0  0  0  0  0  0  0  0  0
   -1.1300   -0.3540   -0.6240 C   0  0  0  0  0  0  0  0  0  0  0  0
    0.0900   -0.8260   -0.8790 C   0  0  0  0  0  0  0  0  0  0  0  0
    1.1330    0.0410   -1.3660 C   0  0  0  0  0  0  0  0  0  0  0  0
    2.3590   -0.0060   -0.8510 C   0  0  0  0  0  0  0  0  0  0  0  0
    3.6850    0.9820   -1.3440 S   0  0  1  0  0  0  0  0  0  0  0  0
    4.9460    0.1600   -1.1920 O   0  0  0  0  0  0  0  0  0  0  0  0
    3.5880    1.3770   -2.7980 O   0  0  0  0  0  0  0  0  0  0  0  0
    3.8720    2.4100   -0.4050 N   0  0  0  0  0  0  0  0  0  0  0  0
    4.1430    2.3160    0.9640 C   0  0  0  0  0  0  0  0  0  0  0  0
    3.1310    2.5470    1.9790 C   0  0  0  0  0  0  0  0  0  0  0  0
    1.8890    2.8590    1.7160 C   0  0  0  0  0  0  0  0  0  0  0  0
    0.9780    3.0670    2.6850 F   0  0  0  0  0  0  0  0  0  0  0  0
    5.3860    1.9980    1.3180 C   0  0  0  0  0  0  0  0  0  0  0  0
    6.3380    1.7760    0.4190 F   0  0  0  0  0  0  0  0  0  0  0  0
    5.7170    1.8970    2.6450 F   0  0  0  0  0  0  0  0  0  0  0  0
    2.5650   -1.0580    0.2020 C   0  0  0  0  0  0  0  0  0  0  0  0
    1.9370   -2.3380   -0.2110 C   0  0  0  0  0  0  0  0  0  0  0  0
    0.5090   -2.2300   -0.5760 C   0  0  0  0  0  0  0  0  0  0  0  0
   -2.2610   -1.1240   -0.3260 N   0  0  0  0  0  0  0  0  0  0  0  0
  1  2  1  0
  2  3  1  0
  3  4  2  0
  3 31  1  0
  4  5  1  0
  6  5  1  1
  6  7  1  0
  6 31  1  0
  7  8  2  0
  7 12  1  0
  8  9  1  0
  9 10  2  0
 10 11  1  0
 11 12  2  0
 12 13  1  0
 13 14  2  3
 13 31  1  0
 14 15  1  0
 14 30  1  0
 15 16  2  0
 16 17  1  0
 16 28  1  0
 17 18  2  0
 17 19  2  0
 17 20  1  1
 20 21  1  0
 21 22  1  0
 21 25  2  3
 22 23  2  3
 23 24  1  0
 25 26  1  0
 25 27  1  0
 28 29  1  0
 29 30  1  0
M  CHG  1   4   1
M  END
