
     RDKit          3D

 31 33  0  0  0  0  0  0  0  0999 V2000
    4.4000   -2.2530   -0.2980 C   0  0  0  0  0  0  0  0  0  0  0  0
    5.6500   -1.7820    0.3390 C   0  0  0  0  0  0  0  0  0  0  0  0
    5.9770   -0.5280    0.5130 C   0  0  0  0  0  0  0  0  0  0  0  0
    7.2450   -0.0330    1.1590 C   0  0  0  0  0  0  0  0  0  0  0  0
    7.5060    1.2060    0.3360 C   0  0  0  0  0  0  0  0  0  0  0  0
    6.1490    1.7730    0.0470 C   0  0  0  0  0  0  0  0  0  0  0  0
    5.2440    0.6290    0.1490 N   0  0  0  0  0  0  0  0  0  0  0  0
    3.8290    0.6970   -0.0900 C   0  0  0  0  0  0  0  0  0  0  0  0
    3.2950    1.1360   -1.1750 N   0  0  0  0  0  0  0  0  0  0  0  0
    1.8580    1.0830   -1.1200 C   0  0  0  0  0  0  0  0  0  0  0  0
    1.5690    0.5250    0.2150 C   0  0  0  0  0  0  0  0  0  0  0  0
    0.3710    0.2810    0.7490 C   0  0  0  0  0  0  0  0  0  0  0  0
   -0.8280    0.5770   -0.0220 C   0  0  0  0  0  0  0  0  0  0  0  0
   -2.0360    0.3550    0.4540 C   0  0  0  0  0  0  0  0  0  0  0  0
   -2.1590   -0.1870    1.7560 N   0  0  0  0  0  0  0  0  0  0  0  0
   -2.1650   -1.8490    2.1140 S   0  0  1  0  0  0  0  0  0  0  0  0
   -3.5360   -2.7150    1.3400 C   0  0  0  0  0  0  0  0  0  0  0  0
   -0.9270   -2.5630    1.6530 O   0  0  0  0  0  0  0  0  0  0  0  0
   -2.3530   -2.0340    3.5920 O   0  0  0  0  0  0  0  0  0  0  0  0
   -3.2460    0.6440   -0.2970 C   0  0  0  0  0  0  0  0  0  0  0  0
   -4.4310    0.4030    0.2320 C   0  0  0  0  0  0  0  0  0  0  0  0
   -5.6670    0.6800   -0.4930 C   0  0  0  0  0  0  0  0  0  0  0  0
   -6.8170    0.1250   -0.1540 C   0  0  0  0  0  0  0  0  0  0  0  0
   -6.9480   -0.8190    0.9830 C   0  0  0  0  0  0  0  0  0  0  0  0
   -7.9320    0.4180   -0.8620 F   0  0  0  0  0  0  0  0  0  0  0  0
   -5.5740    1.6230   -1.6390 C   0  0  1  0  0  0  0  0  0  0  0  0
   -6.6900    1.4910   -2.4250 F   0  0  0  0  0  0  0  0  0  0  0  0
   -5.4610    2.9320   -1.2130 F   0  0  0  0  0  0  0  0  0  0  0  0
   -4.3610    1.2430   -2.4400 C   0  0  0  0  0  0  0  0  0  0  0  0
   -3.0950    1.2080   -1.6560 C   0  0  0  0  0  0  0  0  0  0  0  0
    2.8260    0.2960    0.8290 N   0  0  0  0  0  0  0  0  0  0  0  0
  1  2  1  0
  2  3  2  3
  3  4  1  0
  3  7  1  0
  4  5  1  0
  5  6  1  0
  6  7  1  0
  7  8  1  0
  8  9  2  0
  8 31  1  0
  9 10  1  0
 10 11  1  0
 11 12  2  3
 11 31  1  0
 12 13  1  0
 13 14  2  3
 14 15  1  0
 14 20  1  0
 15 16  1  0
 16 17  1  6
 16 18  2  0
 16 19  2  0
 20 21  2  0
 20 30  1  0
 21 22  1  0
 22 23  2  3
 22 26  1  0
 23 24  1  0
 23 25  1  0
 26 27  1  6
 26 28  1  0
 26 29  1  0
 29 30  1  0
M  CHG  1   9   1
M  END
