
     RDKit          3D

 31 32  0  0  0  0  0  0  0  0999 V2000
   -3.2270    2.4600    2.6400 C   0  0  0  0  0  0  0  0  0  0  0  0
   -3.4800    0.9980    2.8160 C   0  0  0  0  0  0  0  0  0  0  0  0
   -4.2450    0.2500    1.8410 C   0  0  0  0  0  0  0  0  0  0  0  0
   -3.9300    0.1060    0.3910 C   0  0  1  0  0  0  0  0  0  0  0  0
   -4.9550   -0.8310   -0.1840 C   0  0  1  0  0  0  0  0  0  0  0  0
   -6.4030   -0.4910   -0.1490 C   0  0  0  0  0  0  0  0  0  0  0  0
   -7.1590   -0.3160    1.0880 C   0  0  0  0  0  0  0  0  0  0  0  0
   -4.7110   -1.5180   -1.4780 C   0  0  0  0  0  0  0  0  0  0  0  0
   -3.6050   -2.5030   -1.6190 C   0  0  0  0  0  0  0  0  0  0  0  0
   -4.1390    1.4700   -0.3240 C   0  0  0  0  0  0  0  0  0  0  0  0
   -3.0650    1.6110   -1.3530 C   0  0  0  0  0  0  0  0  0  0  0  0
   -1.9080    0.9760   -0.6620 C   0  0  2  0  0  0  0  0  0  0  0  0
   -0.8460    0.4940   -1.6340 C   0  0  0  0  0  0  0  0  0  0  0  0
    0.2590   -0.1270   -0.9530 C   0  0  0  0  0  0  0  0  0  0  0  0
    1.5570    0.2420   -0.9030 C   0  0  0  0  0  0  0  0  0  0  0  0
    2.4110   -0.6000   -0.1320 C   0  0  0  0  0  0  0  0  0  0  0  0
    3.6460   -0.6620    0.2290 C   0  0  0  0  0  0  0  0  0  0  0  0
    4.6930    0.2280   -0.0700 C   0  0  0  0  0  0  0  0  0  0  0  0
    5.9540    0.2430    0.2460 C   0  0  0  0  0  0  0  0  0  0  0  0
    6.8290   -0.5800    1.0090 C   0  0  0  0  0  0  0  0  0  0  0  0
    6.4490   -1.5800    1.8610 C   0  0  0  0  0  0  0  0  0  0  0  0
    7.3650   -2.4040    2.5390 C   0  0  0  0  0  0  0  0  0  0  0  0
    8.7050   -2.1990    2.3430 C   0  0  0  0  0  0  0  0  0  0  0  0
    9.1420   -1.1950    1.4890 C   0  0  0  0  0  0  0  0  0  0  0  0
    8.2180   -0.4170    0.8490 C   0  0  0  0  0  0  0  0  0  0  0  0
    8.6990    0.6290   -0.0490 C   0  0  0  0  0  0  0  0  0  0  0  0
    1.9310    1.4410   -1.6280 C   0  0  0  0  0  0  0  0  0  0  0  0
    2.8970    1.2100   -2.7840 C   0  0  0  0  0  0  0  0  0  0  0  0
   -2.5100   -0.1580    0.1640 C   0  0  1  0  0  0  0  0  0  0  0  0
   -1.6150   -0.2640    1.3710 C   0  0  0  0  0  0  0  0  0  0  0  0
   -0.7670    0.5740    1.6320 O   0  0  0  0  0  0  0  0  0  0  0  0
  1  2  1  0
  2  3  1  0
  4  3  1  1
  4  5  1  0
  4 10  1  0
  4 29  1  0
  5  6  1  6
  5  8  1  0
  6  7  1  0
  8  9  1  0
 10 11  1  0
 11 12  1  0
 12 13  1  6
 12 29  1  0
 13 14  1  0
 14 15  2  3
 15 16  1  0
 15 27  1  0
 16 17  2  3
 17 18  1  0
 18 19  2  3
 19 20  1  0
 20 21  2  0
 20 25  1  0
 21 22  1  0
 22 23  2  0
 23 24  1  0
 24 25  2  0
 25 26  1  0
 27 28  1  0
 29 30  1  1
 30 31  2  0
M  END
