
     RDKit          3D

 31 34  0  0  0  0  0  0  0  0999 V2000
    7.1150    1.3880   -1.6670 C   0  0  0  0  0  0  0  0  0  0  0  0
    6.7790    1.5670   -0.2030 C   0  0  2  0  0  0  0  0  0  0  0  0
    7.6920    0.8400    0.6830 C   0  0  0  0  0  0  0  0  0  0  0  0
    7.6800   -0.3020    1.2900 N   0  0  0  0  0  0  0  0  0  0  0  0
    6.6230   -1.2550    1.2290 C   0  0  0  0  0  0  0  0  0  0  0  0
    5.3160   -1.1130    0.9220 C   0  0  0  0  0  0  0  0  0  0  0  0
    4.5460   -2.3010    0.9640 C   0  0  1  0  0  0  0  0  0  0  0  0
    5.3370   -3.3220    1.5570 F   0  0  0  0  0  0  0  0  0  0  0  0
    3.3520   -2.4060    1.5090 F   0  0  0  0  0  0  0  0  0  0  0  0
    4.4570   -2.7790   -0.3680 F   0  0  0  0  0  0  0  0  0  0  0  0
    4.7010    0.0980    0.5690 N   0  0  0  0  0  0  0  0  0  0  0  0
    3.3250    0.2150    0.8470 C   0  0  0  0  0  0  0  0  0  0  0  0
    2.3560   -0.1050   -0.1920 C   0  0  0  0  0  0  0  0  0  0  0  0
    0.9320    0.0290    0.1440 C   0  0  0  0  0  0  0  0  0  0  0  0
    0.6760    0.4110    1.3050 O   0  0  0  0  0  0  0  0  0  0  0  0
   -0.1330   -0.2310   -0.7180 N   0  0  0  0  0  0  0  0  0  0  0  0
   -1.4990   -0.1440   -0.5260 C   0  0  0  0  0  0  0  0  0  0  0  0
   -2.0920    0.2460    0.6410 C   0  0  0  0  0  0  0  0  0  0  0  0
   -3.4570    0.3300    0.8260 C   0  0  0  0  0  0  0  0  0  0  0  0
   -4.3410    0.0040   -0.2240 C   0  0  0  0  0  0  0  0  0  0  0  0
   -5.7080    0.0300   -0.2200 C   0  0  0  0  0  0  0  0  0  0  0  0
   -6.3650   -0.3160   -1.3190 C   0  0  0  0  0  0  0  0  0  0  0  0
   -5.0440   -0.7150   -2.4730 S   0  0  0  0  0  0  0  0  0  0  0  0
   -3.7300   -0.3760   -1.3580 C   0  0  0  0  0  0  0  0  0  0  0  0
   -2.3680   -0.4630   -1.5520 C   0  0  0  0  0  0  0  0  0  0  0  0
   -7.8430   -0.3650   -1.5650 C   0  0  0  0  0  0  0  0  0  0  0  0
   -8.4740   -0.4900   -0.2750 N   0  0  0  0  0  0  0  0  0  0  0  0
   -7.9620    0.6720    0.4790 C   0  0  0  0  0  0  0  0  0  0  0  0
   -6.5900    0.4310    0.9720 C   0  0  0  0  0  0  0  0  0  0  0  0
    5.3660    1.2450   -0.0160 C   0  0  0  0  0  0  0  0  0  0  0  0
    4.5550    2.1000   -0.4270 O   0  0  0  0  0  0  0  0  0  0  0  0
  2  1  1  6
  2  3  1  0
  2 30  1  0
  3  4  2  0
  4  5  1  0
  5  6  2  0
  6  7  1  0
  6 11  1  0
  7  8  1  1
  7  9  1  0
  7 10  1  0
 11 12  1  0
 11 30  1  0
 12 13  1  0
 13 14  1  0
 14 15  2  0
 14 16  1  0
 16 17  1  0
 17 18  2  0
 17 25  1  0
 18 19  1  0
 19 20  2  0
 20 21  1  0
 20 24  1  0
 21 22  2  0
 21 29  1  0
 22 23  1  0
 22 26  1  0
 23 24  1  0
 24 25  2  0
 26 27  1  0
 27 28  1  0
 28 29  1  0
 30 31  2  0
M  CHG  1  27   1
M  END
