
     RDKit          3D

 31 34  0  0  0  0  0  0  0  0999 V2000
    3.9730   -1.2460    3.5340 C   0  0  0  0  0  0  0  0  0  0  0  0
    3.8270   -0.4300    2.2550 C   0  0  0  0  0  0  0  0  0  0  0  0
    4.7360    0.4080    1.9180 N   0  0  0  0  0  0  0  0  0  0  0  0
    4.2040    1.1130    0.4400 S   0  0  1  0  0  0  0  0  0  0  0  0
    3.9660    2.5810    0.5680 O   0  0  0  0  0  0  0  0  0  0  0  0
    5.1830    0.7660   -0.6190 O   0  0  0  0  0  0  0  0  0  0  0  0
    2.7080    0.2150    0.3170 C   0  0  0  0  0  0  0  0  0  0  0  0
    1.7330    0.3830   -0.7820 C   0  0  1  0  0  0  0  0  0  0  0  0
    2.3510    0.2970   -2.0690 N   0  0  0  0  0  0  0  0  0  0  0  0
    0.6320   -0.6240   -0.7230 C   0  0  0  0  0  0  0  0  0  0  0  0
   -0.6150   -0.2080   -0.6220 C   0  0  0  0  0  0  0  0  0  0  0  0
   -0.7730    1.2290   -0.5880 N   0  0  0  0  0  0  0  0  0  0  0  0
   -0.9350    2.0510   -1.7340 C   0  0  2  0  0  0  0  0  0  0  0  0
   -1.1240    3.5180   -1.3420 C   0  0  0  0  0  0  0  0  0  0  0  0
   -2.5730    3.3860   -1.7290 C   0  0  0  0  0  0  0  0  0  0  0  0
   -2.2410    2.1130   -2.4440 C   0  0  0  0  0  0  0  0  0  0  0  0
   -1.7270   -1.1460   -0.5390 C   0  0  2  0  0  0  0  0  0  0  0  0
   -2.6420   -0.9010    0.5970 C   0  0  0  0  0  0  0  0  0  0  0  0
   -3.1810    0.3340    0.7800 C   0  0  0  0  0  0  0  0  0  0  0  0
   -4.0840    0.5930    1.8320 C   0  0  0  0  0  0  0  0  0  0  0  0
   -4.6220    1.8230    2.0160 F   0  0  0  0  0  0  0  0  0  0  0  0
   -4.4290   -0.4050    2.6860 C   0  0  0  0  0  0  0  0  0  0  0  0
   -3.8920   -1.6600    2.5130 C   0  0  0  0  0  0  0  0  0  0  0  0
   -4.2630   -2.6260    3.3860 F   0  0  0  0  0  0  0  0  0  0  0  0
   -2.9940   -1.9040    1.4610 C   0  0  0  0  0  0  0  0  0  0  0  0
   -2.5350   -3.1750    1.4270 F   0  0  0  0  0  0  0  0  0  0  0  0
   -1.3300   -2.5290   -0.6720 C   0  0  0  0  0  0  0  0  0  0  0  0
   -0.0900   -2.9020   -0.7920 C   0  0  0  0  0  0  0  0  0  0  0  0
    1.0120   -1.9990   -0.8200 N   0  0  0  0  0  0  0  0  0  0  0  0
    2.3260   -2.5210   -0.9360 C   0  0  0  0  0  0  0  0  0  0  0  0
    2.7060   -0.5520    1.3910 C   0  0  0  0  0  0  0  0  0  0  0  0
  1  2  1  0
  2  3  2  0
  2 31  1  0
  4  3  1  1
  4  5  2  0
  4  6  2  0
  4  7  1  0
  7  8  1  0
  7 31  2  0
  8  9  1  6
  8 10  1  0
 10 11  2  0
 10 29  1  0
 11 12  1  0
 11 17  1  0
 13 12  1  1
 13 14  1  0
 13 16  1  0
 14 15  1  0
 15 16  1  0
 17 18  1  1
 17 27  1  0
 18 19  2  0
 18 25  1  0
 19 20  1  0
 20 21  1  0
 20 22  2  0
 22 23  1  0
 23 24  1  0
 23 25  2  0
 25 26  1  0
 27 28  2  0
 28 29  1  0
 29 30  1  0
M  CHG  1   9   1
M  END
