
     RDKit          3D

 30 30  0  0  0  0  0  0  0  0999 V2000
   -6.4410    0.2810   -1.4710 C   0  0  0  0  0  0  0  0  0  0  0  0
   -6.0590   -1.4910   -1.2810 S   0  0  0  0  0  0  0  0  0  0  0  0
   -6.4110   -2.0570    0.3940 C   0  0  0  0  0  0  0  0  0  0  0  0
   -5.5460   -1.4690    1.4450 C   0  0  0  0  0  0  0  0  0  0  0  0
   -4.0870   -1.7280    1.3440 C   0  0  2  0  0  0  0  0  0  0  0  0
   -3.4410   -1.2640    0.1590 N   0  0  0  0  0  0  0  0  0  0  0  0
   -2.4730   -0.1960    0.1870 C   0  0  0  0  0  0  0  0  0  0  0  0
   -2.2270    0.3080    1.3070 O   0  0  0  0  0  0  0  0  0  0  0  0
   -1.8390    0.2510   -1.0020 N   0  0  0  0  0  0  0  0  0  0  0  0
   -0.8600    1.3360   -0.9650 C   0  0  1  0  0  0  0  0  0  0  0  0
    0.4640    0.7280   -1.3460 C   0  0  0  0  0  0  0  0  0  0  0  0
    1.6100    1.6820   -1.3680 C   0  0  0  0  0  0  0  0  0  0  0  0
    1.8620    2.3460   -0.0410 C   0  0  0  0  0  0  0  0  0  0  0  0
    2.1690    1.3770    1.0520 C   0  0  0  0  0  0  0  0  0  0  0  0
    3.3290    0.5600    0.8350 N   0  0  0  0  0  0  0  0  0  0  0  0
    4.6360    1.0830    0.6630 C   0  0  0  0  0  0  0  0  0  0  0  0
    4.7380    2.3450    0.7120 O   0  0  0  0  0  0  0  0  0  0  0  0
    5.8310    0.3030    0.4420 C   0  0  0  0  0  0  0  0  0  0  0  0
    7.0560    0.9400    0.3190 C   0  0  0  0  0  0  0  0  0  0  0  0
    8.2260    0.2510    0.1090 C   0  0  0  0  0  0  0  0  0  0  0  0
    8.2190   -1.1220    0.0110 C   0  0  0  0  0  0  0  0  0  0  0  0
   10.0030   -2.2080   -0.3120 I   0  0  0  0  0  0  0  0  0  0  0  0
    7.0040   -1.7520    0.1320 C   0  0  0  0  0  0  0  0  0  0  0  0
    5.8260   -1.0740    0.3430 C   0  0  0  0  0  0  0  0  0  0  0  0
   -1.2820    2.3790   -1.8980 C   0  0  0  0  0  0  0  0  0  0  0  0
   -2.3270    2.2440   -2.5760 O   0  0  0  0  0  0  0  0  0  0  0  0
   -0.5410    3.5340   -2.0530 O   0  0  0  0  0  0  0  0  0  0  0  0
   -3.7290   -3.1530    1.5770 C   0  0  0  0  0  0  0  0  0  0  0  0
   -2.9720   -3.8230    0.8310 O   0  0  0  0  0  0  0  0  0  0  0  0
   -4.2560   -3.8030    2.6850 O   0  0  0  0  0  0  0  0  0  0  0  0
  1  2  1  0
  2  3  1  0
  3  4  1  0
  5  4  1  6
  5  6  1  0
  5 28  1  0
  6  7  1  0
  7  8  2  0
  7  9  1  0
  9 10  1  0
 10 11  1  6
 10 25  1  0
 11 12  1  0
 12 13  1  0
 13 14  1  0
 14 15  1  0
 15 16  1  0
 16 17  2  0
 16 18  1  0
 18 19  2  0
 18 24  1  0
 19 20  1  0
 20 21  2  0
 21 22  1  0
 21 23  1  0
 23 24  2  0
 25 26  2  0
 25 27  1  0
 28 29  2  0
 28 30  1  0
M  END
