
     RDKit          3D

 21 22  0  0  0  0  0  0  0  0999 V2000
    0.6750   -2.2230   -1.0300 C   0  0  0  0  0  0  0  0  0  0  0  0
    0.2610   -0.8820   -1.6070 C   0  0  0  0  0  0  0  0  0  0  0  0
    0.7800    0.2530   -0.8090 C   0  0  0  0  0  0  0  0  0  0  0  0
    0.2920    0.7420    0.4070 C   0  0  0  0  0  0  0  0  0  0  0  0
   -0.8380    0.2340    1.1410 C   0  0  0  0  0  0  0  0  0  0  0  0
   -1.1500    0.7850    2.2260 O   0  0  0  0  0  0  0  0  0  0  0  0
   -1.5950   -0.8370    0.7000 O   0  0  0  0  0  0  0  0  0  0  0  0
   -2.6680   -1.2430    1.5000 C   0  0  0  0  0  0  0  0  0  0  0  0
   -2.6620   -2.1260    2.4720 C   0  0  0  0  0  0  0  0  0  0  0  0
   -4.0080   -2.2080    3.0030 C   0  0  0  0  0  0  0  0  0  0  0  0
   -4.7830   -1.3960    2.3610 N   0  0  0  0  0  0  0  0  0  0  0  0
   -4.0310   -0.7180    1.3660 C   0  0  0  0  0  0  0  0  0  0  0  0
   -4.4620    0.2020    0.4920 C   0  0  0  0  0  0  0  0  0  0  0  0
   -3.5960    0.7720   -0.4200 O   0  0  0  0  0  0  0  0  0  0  0  0
    1.0980    1.7670    0.7260 N   0  0  0  0  0  0  0  0  0  0  0  0
    2.0480    1.9500   -0.2000 C   0  0  0  0  0  0  0  0  0  0  0  0
    3.0890    3.0000   -0.1420 C   0  0  0  0  0  0  0  0  0  0  0  0
    1.8830    1.0120   -1.1910 C   0  0  0  0  0  0  0  0  0  0  0  0
    2.6850    0.8390   -2.3830 C   0  0  0  0  0  0  0  0  0  0  0  0
    3.8860   -0.0690   -2.3380 C   0  0  0  0  0  0  0  0  0  0  0  0
    2.4690    1.3920   -3.4910 O   0  0  0  0  0  0  0  0  0  0  0  0
  1  2  1  0
  2  3  1  0
  3  4  2  0
  3 18  1  0
  4  5  1  0
  4 15  1  0
  5  6  2  0
  5  7  1  0
  7  8  1  0
  8  9  2  0
  8 12  1  0
  9 10  1  0
 10 11  2  0
 11 12  1  0
 12 13  2  3
 13 14  1  0
 15 16  1  0
 16 17  1  0
 16 18  2  0
 18 19  1  0
 19 20  1  0
 19 21  2  0
M  END
