
     RDKit          3D

 21 23  0  0  0  0  0  0  0  0999 V2000
   -4.7240    1.7400   -1.2770 C   0  0  0  0  0  0  0  0  0  0  0  0
   -3.7690    0.6520   -0.9420 C   0  0  0  0  0  0  0  0  0  0  0  0
   -3.7720   -0.4560   -1.7670 C   0  0  0  0  0  0  0  0  0  0  0  0
   -2.8850   -1.4570   -1.4430 C   0  0  0  0  0  0  0  0  0  0  0  0
   -2.0500   -1.3190   -0.3360 C   0  0  0  0  0  0  0  0  0  0  0  0
   -1.1850   -2.3600   -0.0620 O   0  0  0  0  0  0  0  0  0  0  0  0
   -2.0710   -0.2080    0.4620 C   0  0  0  0  0  0  0  0  0  0  0  0
   -1.2020   -0.0110    1.6380 C   0  0  0  0  0  0  0  0  0  0  0  0
    0.0870   -0.1960    1.7910 C   0  0  0  0  0  0  0  0  0  0  0  0
    1.0100   -0.6590    0.7820 N   0  0  0  0  0  0  0  0  0  0  0  0
    1.6100    0.3890   -0.0290 C   0  0  0  0  0  0  0  0  0  0  0  0
    2.5320   -0.1750   -1.0820 C   0  0  2  0  0  0  0  0  0  0  0  0
    3.6880   -0.9490   -0.5080 C   0  0  0  0  0  0  0  0  0  0  0  0
    4.7110    0.1410   -0.2750 C   0  0  0  0  0  0  0  0  0  0  0  0
    4.2560    1.2350   -1.1910 C   0  0  0  0  0  0  0  0  0  0  0  0
    3.1030    0.8140   -1.8440 O   0  0  0  0  0  0  0  0  0  0  0  0
    0.4740    0.1270    3.1140 O   0  0  0  0  0  0  0  0  0  0  0  0
   -0.6900    0.0820    3.9320 C   0  0  0  0  0  0  0  0  0  0  0  0
   -1.7220    0.4850    2.9450 C   0  0  0  0  0  0  0  0  0  0  0  0
   -2.8060    1.1020    3.1050 O   0  0  0  0  0  0  0  0  0  0  0  0
   -2.9570    0.7730    0.1220 N   0  0  0  0  0  0  0  0  0  0  0  0
  1  2  1  0
  2  3  2  0
  2 21  1  0
  3  4  1  0
  4  5  2  0
  5  6  1  0
  5  7  1  0
  7  8  1  0
  7 21  2  0
  8  9  2  0
  8 19  1  0
  9 10  1  0
  9 17  1  0
 10 11  1  0
 12 11  1  1
 12 13  1  0
 12 16  1  0
 13 14  1  0
 14 15  1  0
 15 16  1  0
 17 18  1  0
 18 19  1  0
 19 20  2  0
M  END
