
     RDKit          3D

 21 23  0  0  0  0  0  0  0  0999 V2000
    4.8610    0.2680    0.4930 C   0  0  0  0  0  0  0  0  0  0  0  0
    4.2650    0.9010   -0.7450 C   0  0  0  0  0  0  0  0  0  0  0  0
    2.7830    1.1440   -0.5810 C   0  0  0  0  0  0  0  0  0  0  0  0
    2.1200   -0.1500   -0.3350 C   0  0  0  0  0  0  0  0  0  0  0  0
    2.8260   -1.1790   -0.3020 O   0  0  0  0  0  0  0  0  0  0  0  0
    0.6700   -0.2220   -0.1370 C   0  0  0  0  0  0  0  0  0  0  0  0
   -0.0730    0.9360   -0.1800 C   0  0  0  0  0  0  0  0  0  0  0  0
   -1.4320    0.9150    0.0010 C   0  0  0  0  0  0  0  0  0  0  0  0
   -2.0310   -0.3350    0.2330 C   0  0  0  0  0  0  0  0  0  0  0  0
   -1.3270   -1.5110    0.2830 C   0  0  0  0  0  0  0  0  0  0  0  0
   -1.6960   -2.8160    0.4820 C   0  0  0  0  0  0  0  0  0  0  0  0
   -0.5320   -3.5500    0.4140 C   0  0  0  0  0  0  0  0  0  0  0  0
    0.5060   -2.7060    0.1800 N   0  0  0  0  0  0  0  0  0  0  0  0
    0.0530   -1.4330    0.0920 C   0  0  0  0  0  0  0  0  0  0  0  0
   -3.4460   -0.5670    0.4670 C   0  0  0  0  0  0  0  0  0  0  0  0
   -3.7430   -1.5490    1.1420 O   0  0  0  0  0  0  0  0  0  0  0  0
   -4.4960    0.2810   -0.0400 N   0  0  0  0  0  0  0  0  0  0  0  0
   -4.3980    1.6680   -0.3720 C   0  0  0  0  0  0  0  0  0  0  0  0
   -5.3180    2.1230   -1.1360 O   0  0  0  0  0  0  0  0  0  0  0  0
   -3.3460    2.6030    0.0840 C   0  0  0  0  0  0  0  0  0  0  0  0
   -2.0350    2.1420   -0.0710 O   0  0  0  0  0  0  0  0  0  0  0  0
  1  2  1  0
  2  3  1  0
  3  4  1  0
  4  5  2  0
  4  6  1  0
  6  7  2  0
  6 14  1  0
  7  8  1  0
  8  9  2  0
  8 21  1  0
  9 10  1  0
  9 15  1  0
 10 11  1  0
 10 14  2  0
 11 12  2  0
 12 13  1  0
 13 14  1  0
 15 16  2  0
 15 17  1  0
 17 18  1  0
 18 19  2  0
 18 20  1  0
 20 21  1  0
M  END
