
     RDKit          3D

 34 37  0  0  0  0  0  0  0  0999 V2000
    7.6760    1.5070    0.1410 C   0  0  0  0  0  0  0  0  0  0  0  0
    6.7940    0.3810    0.6060 C   0  0  0  0  0  0  0  0  0  0  0  0
    6.4380    0.0700    1.8900 C   0  0  0  0  0  0  0  0  0  0  0  0
    5.6270   -1.0300    1.8350 C   0  0  0  0  0  0  0  0  0  0  0  0
    5.5110   -1.3650    0.4810 C   0  0  0  0  0  0  0  0  0  0  0  0
    4.7170   -2.5060   -0.0570 C   0  0  2  0  0  0  0  0  0  0  0  0
    5.6170   -3.3770   -0.8400 C   0  0  0  0  0  0  0  0  0  0  0  0
    5.7620   -4.5290   -0.5130 O   0  0  0  0  0  0  0  0  0  0  0  0
    3.5190   -1.7870   -1.2320 S   0  0  0  0  0  0  0  0  0  0  0  0
    2.3700   -0.7630   -0.2940 C   0  0  0  0  0  0  0  0  0  0  0  0
    2.4770   -0.6320    1.0390 N   0  0  0  0  0  0  0  0  0  0  0  0
    1.6220    0.1320    1.7530 C   0  0  0  0  0  0  0  0  0  0  0  0
    1.7190    0.2560    3.0010 O   0  0  0  0  0  0  0  0  0  0  0  0
    0.6080    0.8000    1.1010 C   0  0  0  0  0  0  0  0  0  0  0  0
    0.4830    0.6750   -0.2820 C   0  0  0  0  0  0  0  0  0  0  0  0
   -0.5570    1.3600   -0.9590 N   0  0  0  0  0  0  0  0  0  0  0  0
   -1.7220    0.7650   -1.1440 C   0  0  0  0  0  0  0  0  0  0  0  0
   -2.7140    1.5880   -1.8620 C   0  0  0  0  0  0  0  0  0  0  0  0
   -3.7690    1.9690   -1.1380 O   0  0  0  0  0  0  0  0  0  0  0  0
   -4.8150    1.4160   -0.5320 C   0  0  0  0  0  0  0  0  0  0  0  0
   -5.0730    0.0600   -0.5750 C   0  0  0  0  0  0  0  0  0  0  0  0
   -6.1900   -0.4580    0.0790 C   0  0  0  0  0  0  0  0  0  0  0  0
   -7.0510    0.3530    0.7720 C   0  0  0  0  0  0  0  0  0  0  0  0
   -8.4600   -0.2570    1.6030 Cl  0  0  0  0  0  0  0  0  0  0  0  0
   -6.7670    1.7050    0.7960 C   0  0  0  0  0  0  0  0  0  0  0  0
   -5.6880    2.2600    0.1740 C   0  0  0  0  0  0  0  0  0  0  0  0
   -5.3900    3.7000    0.2030 C   0  0  0  0  0  0  0  0  0  0  0  0
   -1.8600   -0.5370   -0.6440 N   0  0  0  0  0  0  0  0  0  0  0  0
   -1.7830   -1.6790   -1.3840 C   0  0  0  0  0  0  0  0  0  0  0  0
   -1.9550   -2.7830   -0.6010 C   0  0  0  0  0  0  0  0  0  0  0  0
   -2.1470   -2.3260    0.6740 C   0  0  0  0  0  0  0  0  0  0  0  0
   -2.0850   -0.9660    0.6150 C   0  0  0  0  0  0  0  0  0  0  0  0
    1.3760   -0.1040   -0.9120 N   0  0  0  0  0  0  0  0  0  0  0  0
    6.2150   -0.5030   -0.1740 O   0  0  0  0  0  0  0  0  0  0  0  0
  1  2  1  0
  2  3  2  0
  2 34  1  0
  3  4  1  0
  4  5  2  0
  5  6  1  0
  5 34  1  0
  6  7  1  0
  6  9  1  6
  7  8  2  0
  9 10  1  0
 10 11  2  0
 10 33  1  0
 11 12  1  0
 12 13  2  0
 12 14  1  0
 14 15  2  0
 15 16  1  0
 15 33  1  0
 16 17  2  3
 17 18  1  0
 17 28  1  0
 18 19  1  0
 19 20  1  0
 20 21  2  0
 20 26  1  0
 21 22  1  0
 22 23  2  0
 23 24  1  0
 23 25  1  0
 25 26  2  0
 26 27  1  0
 28 29  1  0
 28 32  1  0
 29 30  2  0
 30 31  1  0
 31 32  2  0
M  END
