
     RDKit          3D

 34 37  0  0  0  0  0  0  0  0999 V2000
   -6.2880    1.7700    0.5480 C   0  0  0  0  0  0  0  0  0  0  0  0
   -7.2130    0.8420    0.5410 C   0  0  0  0  0  0  0  0  0  0  0  0
   -8.4890    1.1070    1.2690 C   0  0  0  0  0  0  0  0  0  0  0  0
   -9.5230    0.2640    0.8300 O   0  0  0  0  0  0  0  0  0  0  0  0
   -9.3110   -0.9280    0.1560 C   0  0  0  0  0  0  0  0  0  0  0  0
  -10.2580   -1.7140   -0.0100 O   0  0  0  0  0  0  0  0  0  0  0  0
   -7.9690   -1.2350   -0.3460 C   0  0  0  0  0  0  0  0  0  0  0  0
   -6.9720   -0.4020   -0.1670 C   0  0  0  0  0  0  0  0  0  0  0  0
   -5.6090   -0.7500   -0.6960 C   0  0  0  0  0  0  0  0  0  0  0  0
   -4.4910   -0.8020    0.7080 S   0  0  0  0  0  0  0  0  0  0  0  0
   -2.8310   -1.2000    0.2600 C   0  0  0  0  0  0  0  0  0  0  0  0
   -1.9120   -0.2240   -0.0700 C   0  0  0  0  0  0  0  0  0  0  0  0
   -0.6340   -0.5330   -0.4150 C   0  0  0  0  0  0  0  0  0  0  0  0
    0.3910    0.4530   -0.7760 C   0  0  0  0  0  0  0  0  0  0  0  0
    0.0710    1.7820   -0.7750 C   0  0  0  0  0  0  0  0  0  0  0  0
    1.0600    2.7210   -1.1220 C   0  0  0  0  0  0  0  0  0  0  0  0
    2.3080    2.2370   -1.4470 C   0  0  0  0  0  0  0  0  0  0  0  0
    3.2370    3.0410   -1.7670 O   0  0  0  0  0  0  0  0  0  0  0  0
    2.5930    0.9420   -1.4400 N   0  0  0  0  0  0  0  0  0  0  0  0
    3.9000    0.4250   -1.7790 C   0  0  0  0  0  0  0  0  0  0  0  0
    4.7770    0.3190   -0.5790 C   0  0  0  0  0  0  0  0  0  0  0  0
    4.3030    0.6700    0.5150 O   0  0  0  0  0  0  0  0  0  0  0  0
    6.1010   -0.1670   -0.7000 N   0  0  0  0  0  0  0  0  0  0  0  0
    7.0160   -0.3100    0.3620 C   0  0  0  0  0  0  0  0  0  0  0  0
    6.8100   -0.0200    1.6740 C   0  0  0  0  0  0  0  0  0  0  0  0
    7.7940   -0.2000    2.6560 C   0  0  0  0  0  0  0  0  0  0  0  0
    9.0160   -0.6830    2.3140 C   0  0  0  0  0  0  0  0  0  0  0  0
   10.3020   -0.9380    3.4760 Cl  0  0  0  0  0  0  0  0  0  0  0  0
    9.2640   -0.9880    0.9960 C   0  0  0  0  0  0  0  0  0  0  0  0
    8.2840   -0.8050    0.0440 C   0  0  0  0  0  0  0  0  0  0  0  0
    1.6370    0.0910   -1.1080 N   0  0  0  0  0  0  0  0  0  0  0  0
   -0.2950   -1.8760   -0.4200 C   0  0  0  0  0  0  0  0  0  0  0  0
   -1.1900   -2.8530   -0.0970 C   0  0  0  0  0  0  0  0  0  0  0  0
   -2.4560   -2.4880    0.2400 N   0  0  0  0  0  0  0  0  0  0  0  0
  1  2  2  0
  2  3  1  0
  2  8  1  0
  3  4  1  0
  4  5  1  0
  5  6  2  0
  5  7  1  0
  7  8  2  0
  8  9  1  0
  9 10  1  0
 10 11  1  0
 11 12  2  0
 11 34  1  0
 12 13  1  0
 13 14  1  0
 13 32  2  0
 14 15  1  0
 14 31  2  0
 15 16  2  0
 16 17  1  0
 17 18  2  0
 17 19  1  0
 19 20  1  0
 19 31  1  0
 20 21  1  0
 21 22  2  0
 21 23  1  0
 23 24  1  0
 24 25  2  0
 24 30  1  0
 25 26  1  0
 26 27  2  0
 27 28  1  0
 27 29  1  0
 29 30  2  0
 32 33  1  0
 33 34  2  0
M  END
