
     RDKit          3D

 34 38  0  0  0  0  0  0  0  0999 V2000
   -6.6410    4.5490   -1.0260 C   0  0  0  0  0  0  0  0  0  0  0  0
   -6.6490    4.5830    0.3810 O   0  0  0  0  0  0  0  0  0  0  0  0
   -7.3920    3.4660    0.8460 C   0  0  0  0  0  0  0  0  0  0  0  0
   -6.4800    2.2820    0.7050 C   0  0  0  0  0  0  0  0  0  0  0  0
   -5.5860    1.8130    0.0800 N   0  0  0  0  0  0  0  0  0  0  0  0
   -4.7880    1.0940   -0.2600 C   0  0  0  0  0  0  0  0  0  0  0  0
   -3.7190    0.1220   -0.7110 C   0  0  0  0  0  0  0  0  0  0  0  0
   -3.0060    0.8430   -1.6580 O   0  0  0  0  0  0  0  0  0  0  0  0
   -3.3240   -1.0960   -0.4760 N   0  0  0  0  0  0  0  0  0  0  0  0
   -2.1550   -1.6760   -0.2890 C   0  0  0  0  0  0  0  0  0  0  0  0
   -0.9360   -1.1240   -0.2730 N   0  0  0  0  0  0  0  0  0  0  0  0
   -0.5030    0.1570   -0.7440 C   0  0  0  0  0  0  0  0  0  0  0  0
    0.9060    0.2810   -0.2040 C   0  0  0  0  0  0  0  0  0  0  0  0
    1.7450    1.2150   -0.7070 C   0  0  0  0  0  0  0  0  0  0  0  0
    2.9360    1.0720    0.0070 C   0  0  0  0  0  0  0  0  0  0  0  0
    4.0950    1.7900   -0.0870 C   0  0  0  0  0  0  0  0  0  0  0  0
    5.1860    1.5030    0.7610 C   0  0  0  0  0  0  0  0  0  0  0  0
    6.4640    2.2390    0.5490 C   0  0  0  0  0  0  0  0  0  0  0  0
    7.1720    1.4290   -0.5360 C   0  0  1  0  0  0  0  0  0  0  0  0
    8.5060    2.0630   -0.7390 C   0  0  0  0  0  0  0  0  0  0  0  0
    7.2930   -0.0380   -0.2720 C   0  0  0  0  0  0  0  0  0  0  0  0
    5.0170    0.4790    1.6730 C   0  0  0  0  0  0  0  0  0  0  0  0
    6.2850    0.1550    2.8500 Cl  0  0  0  0  0  0  0  0  0  0  0  0
    3.8180   -0.2210    1.7310 C   0  0  0  0  0  0  0  0  0  0  0  0
    2.7510    0.0630    0.8970 C   0  0  0  0  0  0  0  0  0  0  0  0
    1.5020   -0.3760    0.7170 O   0  0  0  0  0  0  0  0  0  0  0  0
   -2.3290   -3.0930   -0.0830 N   0  0  0  0  0  0  0  0  0  0  0  0
   -2.1770   -3.9040   -1.2460 C   0  0  0  0  0  0  0  0  0  0  0  0
   -2.3500   -5.3940   -0.9670 C   0  0  0  0  0  0  0  0  0  0  0  0
   -2.2150   -5.7070    0.3700 O   0  0  0  0  0  0  0  0  0  0  0  0
   -3.0970   -5.0230    1.1610 C   0  0  0  0  0  0  0  0  0  0  0  0
   -2.6430   -3.5580    1.2220 C   0  0  0  0  0  0  0  0  0  0  0  0
   -5.2260   -0.0060    1.0360 C   0  0  0  0  0  0  0  0  0  0  0  0
   -6.5320    0.8880    1.7740 S   0  0  0  0  0  0  0  0  0  0  0  0
  1  2  1  0
  2  3  1  0
  3  4  1  0
  4  5  2  0
  4 34  1  0
  5  6  1  0
  6  7  1  0
  6 33  2  0
  7  8  2  0
  7  9  1  0
  9 10  2  3
 10 11  1  0
 10 27  1  0
 11 12  1  0
 12 13  1  0
 13 14  2  0
 13 26  1  0
 14 15  1  0
 15 16  2  0
 15 25  1  0
 16 17  1  0
 17 18  1  0
 17 22  2  0
 18 19  1  0
 19 20  1  1
 19 21  1  0
 22 23  1  0
 22 24  1  0
 24 25  2  0
 25 26  1  0
 27 28  1  0
 27 32  1  0
 28 29  1  0
 29 30  1  0
 30 31  1  0
 31 32  1  0
 33 34  1  0
 34  5  1  0
M  CHG  1   5   1
M  END
