
     RDKit          3D

 34 37  0  0  0  0  0  0  0  0999 V2000
   -1.5850   -0.2650   -0.9240 C   0  0  0  0  0  0  0  0  0  0  0  0
   -1.3620    0.8390    0.0450 C   0  0  1  0  0  0  0  0  0  0  0  0
   -0.7180    2.0750   -0.5090 C   0  0  0  0  0  0  0  0  0  0  0  0
   -2.6450    1.2630    0.6990 C   0  0  0  0  0  0  0  0  0  0  0  0
   -3.6450    1.6960   -0.2920 C   0  0  0  0  0  0  0  0  0  0  0  0
   -3.6180    2.9600   -0.7190 O   0  0  0  0  0  0  0  0  0  0  0  0
   -4.4290    3.4730   -1.5910 C   0  0  0  0  0  0  0  0  0  0  0  0
   -5.4190    2.7250   -2.1630 C   0  0  0  0  0  0  0  0  0  0  0  0
   -5.5150    1.4160   -1.7770 C   0  0  0  0  0  0  0  0  0  0  0  0
   -6.4090    0.6860   -2.2740 O   0  0  0  0  0  0  0  0  0  0  0  0
   -4.6270    0.8910   -0.8350 C   0  0  0  0  0  0  0  0  0  0  0  0
   -4.8210   -0.4850   -0.4200 C   0  0  0  0  0  0  0  0  0  0  0  0
   -4.6080   -1.5860   -1.1980 C   0  0  0  0  0  0  0  0  0  0  0  0
   -4.8170   -2.8770   -0.7130 C   0  0  0  0  0  0  0  0  0  0  0  0
   -5.2470   -3.0930    0.5690 C   0  0  0  0  0  0  0  0  0  0  0  0
   -5.4660   -1.9880    1.3630 C   0  0  0  0  0  0  0  0  0  0  0  0
   -6.0220   -2.2610    3.0130 Cl  0  0  0  0  0  0  0  0  0  0  0  0
   -5.2600   -0.7190    0.8860 C   0  0  0  0  0  0  0  0  0  0  0  0
   -0.4560    0.3610    1.1900 C   0  0  0  0  0  0  0  0  0  0  0  0
    1.1050   -0.2130    0.6980 S   0  0  1  0  0  0  0  0  0  0  0  0
    1.8480   -0.6250    1.9670 O   0  0  0  0  0  0  0  0  0  0  0  0
    1.0200   -1.5100   -0.1010 O   0  0  0  0  0  0  0  0  0  0  0  0
    2.1400    0.9160   -0.1400 C   0  0  0  0  0  0  0  0  0  0  0  0
    3.4330    0.2100   -0.4540 C   0  0  0  0  0  0  0  0  0  0  0  0
    4.5590    0.1540    0.3390 C   0  0  0  0  0  0  0  0  0  0  0  0
    5.5290   -0.5850   -0.3070 C   0  0  0  0  0  0  0  0  0  0  0  0
    6.8630   -0.8770    0.1920 C   0  0  0  0  0  0  0  0  0  0  0  0
    7.3150   -0.4500    1.3760 N   0  0  0  0  0  0  0  0  0  0  0  0
    8.5530   -0.7250    1.8330 C   0  0  0  0  0  0  0  0  0  0  0  0
    9.4110   -1.4820    1.0570 C   0  0  0  0  0  0  0  0  0  0  0  0
    8.9370   -1.9190   -0.1650 C   0  0  0  0  0  0  0  0  0  0  0  0
    7.6890   -1.6160   -0.5750 N   0  0  0  0  0  0  0  0  0  0  0  0
    4.9810   -0.9630   -1.4730 N   0  0  0  0  0  0  0  0  0  0  0  0
    3.7280   -0.4870   -1.5580 N   0  0  0  0  0  0  0  0  0  0  0  0
  2  1  1  6
  2  3  1  0
  2  4  1  0
  2 19  1  0
  4  5  1  0
  5  6  1  0
  5 11  2  0
  6  7  1  0
  7  8  2  0
  8  9  1  0
  9 10  2  0
  9 11  1  0
 11 12  1  0
 12 13  2  0
 12 18  1  0
 13 14  1  0
 14 15  2  0
 15 16  1  0
 16 17  1  0
 16 18  2  0
 20 19  1  1
 20 21  2  0
 20 22  2  0
 20 23  1  0
 23 24  1  0
 24 25  1  0
 24 34  2  0
 25 26  2  0
 26 27  1  0
 26 33  1  0
 27 28  2  0
 27 32  1  0
 28 29  1  0
 29 30  2  0
 30 31  1  0
 31 32  2  0
 33 34  1  0
M  END
