
     RDKit          3D

 34 36  0  0  0  0  0  0  0  0999 V2000
    2.2210    2.9010    0.7270 C   0  0  0  0  0  0  0  0  0  0  0  0
    0.8630    2.7760    1.1090 O   0  0  0  0  0  0  0  0  0  0  0  0
   -0.0730    2.2360    0.2250 C   0  0  0  0  0  0  0  0  0  0  0  0
   -0.7820    3.0070   -0.6620 C   0  0  0  0  0  0  0  0  0  0  0  0
   -0.5920    4.4510   -0.6920 C   0  0  0  0  0  0  0  0  0  0  0  0
   -1.2990    5.2610    0.3240 C   0  0  2  0  0  0  0  0  0  0  0  0
   -2.8060    5.1190    0.2600 C   0  0  0  0  0  0  0  0  0  0  0  0
   -1.0300    6.7340   -0.0510 C   0  0  0  0  0  0  0  0  0  0  0  0
   -0.8280    5.1060    1.7440 C   0  0  0  0  0  0  0  0  0  0  0  0
   -1.6600    2.3980   -1.4800 N   0  0  0  0  0  0  0  0  0  0  0  0
   -1.8280    1.0720   -1.4160 C   0  0  0  0  0  0  0  0  0  0  0  0
   -2.6550    0.5400   -2.1930 O   0  0  0  0  0  0  0  0  0  0  0  0
   -1.1330    0.2640   -0.5360 C   0  0  0  0  0  0  0  0  0  0  0  0
   -1.3450   -1.1770   -0.4950 C   0  0  0  0  0  0  0  0  0  0  0  0
   -2.2050   -1.6840   -1.3070 N   0  0  0  0  0  0  0  0  0  0  0  0
   -2.4750   -3.0970   -1.3310 C   0  0  0  0  0  0  0  0  0  0  0  0
   -3.6370   -3.7180   -1.2190 C   0  0  0  0  0  0  0  0  0  0  0  0
   -3.4730   -5.1910   -1.2960 C   0  0  0  0  0  0  0  0  0  0  0  0
   -2.0060   -5.3320   -1.4740 C   0  0  0  0  0  0  0  0  0  0  0  0
   -1.2110   -6.9000   -1.6300 Cl  0  0  0  0  0  0  0  0  0  0  0  0
   -1.4700   -4.1400   -1.4900 C   0  0  0  0  0  0  0  0  0  0  0  0
    0.0050   -3.8870   -1.6540 C   0  0  0  0  0  0  0  0  0  0  0  0
   -0.2340    0.8640    0.3040 C   0  0  0  0  0  0  0  0  0  0  0  0
    0.5220    0.0300    1.2540 C   0  0  0  0  0  0  0  0  0  0  0  0
   -0.0030   -0.1580    2.4000 O   0  0  0  0  0  0  0  0  0  0  0  0
    1.7520   -0.5360    0.9350 N   0  0  0  0  0  0  0  0  0  0  0  0
    2.1620   -1.7120    1.0830 C   0  0  0  0  0  0  0  0  0  0  0  0
    1.6220   -2.8220    1.5730 N   0  0  0  0  0  0  0  0  0  0  0  0
    2.2860   -3.9350    1.6080 C   0  0  0  0  0  0  0  0  0  0  0  0
    3.5620   -4.0010    1.1430 C   0  0  0  0  0  0  0  0  0  0  0  0
    4.5240   -5.0470    1.0490 C   0  0  0  0  0  0  0  0  0  0  0  0
    5.8620   -4.7580    0.4690 C   0  0  0  0  0  0  0  0  0  0  0  0
    4.2980   -6.2170    1.4350 O   0  0  0  0  0  0  0  0  0  0  0  0
    3.8210   -2.2880    0.6050 S   0  0  0  0  0  0  0  0  0  0  0  0
  1  2  1  0
  2  3  1  0
  3  4  2  0
  3 23  1  0
  4  5  1  0
  4 10  1  0
  5  6  1  0
  6  7  1  1
  6  8  1  0
  6  9  1  0
 10 11  1  0
 11 12  2  0
 11 13  1  0
 13 14  1  0
 13 23  2  0
 14 15  2  3
 15 16  1  0
 16 17  2  0
 16 21  1  0
 17 18  1  0
 18 19  1  0
 19 20  1  0
 19 21  2  0
 21 22  1  0
 23 24  1  0
 24 25  2  0
 24 26  1  0
 26 27  2  3
 27 28  1  0
 27 34  1  0
 28 29  1  0
 29 30  2  0
 30 31  1  0
 30 34  1  0
 31 32  1  0
 31 33  2  0
M  END
