
     RDKit          3D

 34 37  0  0  0  0  0  0  0  0999 V2000
   -8.4810    0.5140   -0.2020 C   0  0  0  0  0  0  0  0  0  0  0  0
   -7.0790    0.0960    0.0260 C   0  0  0  0  0  0  0  0  0  0  0  0
   -6.0420    0.8260   -0.3320 C   0  0  0  0  0  0  0  0  0  0  0  0
   -4.6770    0.3920   -0.0960 C   0  0  0  0  0  0  0  0  0  0  0  0
   -3.6810    1.1390   -0.4620 C   0  0  0  0  0  0  0  0  0  0  0  0
   -4.1310    2.6850   -1.2440 Cl  0  0  0  0  0  0  0  0  0  0  0  0
   -2.2580    0.8380   -0.3470 C   0  0  0  0  0  0  0  0  0  0  0  0
   -1.2760    1.7760   -0.5280 N   0  0  0  0  0  0  0  0  0  0  0  0
   -0.0960    1.2780   -0.3540 N   0  0  0  0  0  0  0  0  0  0  0  0
    1.1310    2.0290   -0.4800 C   0  0  0  0  0  0  0  0  0  0  0  0
    2.1720    1.6180   -1.2540 C   0  0  0  0  0  0  0  0  0  0  0  0
    3.3320    2.3500   -1.3590 C   0  0  0  0  0  0  0  0  0  0  0  0
    3.4800    3.5510   -0.6680 C   0  0  0  0  0  0  0  0  0  0  0  0
    4.7070    4.3330   -0.7750 C   0  0  0  0  0  0  0  0  0  0  0  0
    5.6260    3.9060   -1.5000 O   0  0  0  0  0  0  0  0  0  0  0  0
    4.9060    5.5220   -0.1150 O   0  0  0  0  0  0  0  0  0  0  0  0
    6.1240    6.2710   -0.2390 C   0  0  0  0  0  0  0  0  0  0  0  0
    2.4040    3.9340    0.1050 C   0  0  0  0  0  0  0  0  0  0  0  0
    1.2910    3.1900    0.1810 N   0  0  0  0  0  0  0  0  0  0  0  0
   -0.2350   -0.0440   -0.0470 C   0  0  0  0  0  0  0  0  0  0  0  0
    0.8940   -0.8120    0.2210 N   0  0  0  0  0  0  0  0  0  0  0  0
    1.0480   -2.1890    0.1700 C   0  0  0  0  0  0  0  0  0  0  0  0
    0.1740   -2.9500   -0.2560 O   0  0  0  0  0  0  0  0  0  0  0  0
    2.3350   -2.7910    0.6550 C   0  0  2  0  0  0  0  0  0  0  0  0
    3.4820   -2.3860   -0.2420 C   0  0  0  0  0  0  0  0  0  0  0  0
    4.4680   -3.5110   -0.0060 C   0  0  0  0  0  0  0  0  0  0  0  0
    3.6660   -4.4740    0.8670 C   0  0  0  0  0  0  0  0  0  0  0  0
    2.3400   -4.1620    0.5450 O   0  0  0  0  0  0  0  0  0  0  0  0
   -1.5910   -0.3340   -0.0370 C   0  0  0  0  0  0  0  0  0  0  0  0
   -2.2360   -1.6460    0.1590 C   0  0  0  0  0  0  0  0  0  0  0  0
   -2.1330   -2.3510    1.2380 C   0  0  0  0  0  0  0  0  0  0  0  0
   -2.8310   -3.6410    1.2980 C   0  0  0  0  0  0  0  0  0  0  0  0
   -3.9870   -3.5220   -0.1290 S   0  0  0  0  0  0  0  0  0  0  0  0
   -2.9440   -2.2790   -0.9650 C   0  0  0  0  0  0  0  0  0  0  0  0
  1  2  1  0
  2  3  2  3
  3  4  1  0
  4  5  2  3
  5  6  1  0
  5  7  1  0
  7  8  2  0
  7 29  1  0
  8  9  1  0
  9 10  1  0
  9 20  1  0
 10 11  2  0
 10 19  1  0
 11 12  1  0
 12 13  2  0
 13 14  1  0
 13 18  1  0
 14 15  2  0
 14 16  1  0
 16 17  1  0
 18 19  2  0
 20 21  1  0
 20 29  2  0
 21 22  1  0
 22 23  2  0
 24 22  1  6
 24 25  1  0
 24 28  1  0
 25 26  1  0
 26 27  1  0
 27 28  1  0
 29 30  1  0
 30 31  2  0
 30 34  1  0
 31 32  1  0
 32 33  1  0
 33 34  1  0
M  END
