
     RDKit          3D

 37 40  0  0  0  0  0  0  0  0999 V2000
    7.6930    1.6160   -0.7380 C   0  0  0  0  0  0  0  0  0  0  0  0
    6.8780    0.5190   -1.2190 N   0  0  2  0  0  0  0  0  0  0  0  0
    5.4840    0.9330   -1.2490 C   0  0  0  0  0  0  0  0  0  0  0  0
    4.5990   -0.2330   -0.9460 C   0  0  0  0  0  0  0  0  0  0  0  0
    4.7130   -0.5850    0.4330 N   0  0  2  0  0  0  0  0  0  0  0  0
    3.8910    0.1570    1.3350 C   0  0  0  0  0  0  0  0  0  0  0  0
    2.4220    0.1760    0.9710 C   0  0  0  0  0  0  0  0  0  0  0  0
    1.9200   -1.2350    0.9590 C   0  0  0  0  0  0  0  0  0  0  0  0
    0.5050   -1.2120    0.6040 N   0  0  0  0  0  0  0  0  0  0  0  0
   -0.4730   -0.5700    1.3790 C   0  0  0  0  0  0  0  0  0  0  0  0
   -0.1310    0.0000    2.4410 O   0  0  0  0  0  0  0  0  0  0  0  0
   -1.8610   -0.5590    0.9800 C   0  0  0  0  0  0  0  0  0  0  0  0
   -2.3840   -0.8340   -0.2640 C   0  0  0  0  0  0  0  0  0  0  0  0
   -1.7330   -1.1350   -1.5380 C   0  0  0  0  0  0  0  0  0  0  0  0
   -1.0040   -0.1500   -2.2150 C   0  0  0  0  0  0  0  0  0  0  0  0
   -0.3990   -0.4350   -3.4160 C   0  0  0  0  0  0  0  0  0  0  0  0
   -0.4690   -1.6740   -4.0160 C   0  0  0  0  0  0  0  0  0  0  0  0
   -1.1880   -2.6530   -3.3540 C   0  0  0  0  0  0  0  0  0  0  0  0
   -1.7940   -2.3690   -2.1500 C   0  0  0  0  0  0  0  0  0  0  0  0
   -3.7740   -0.7500   -0.1040 C   0  0  0  0  0  0  0  0  0  0  0  0
   -4.7220   -0.9730   -1.2090 C   0  0  0  0  0  0  0  0  0  0  0  0
   -4.7420   -0.1620   -2.3250 C   0  0  0  0  0  0  0  0  0  0  0  0
   -5.6360   -0.3750   -3.3600 C   0  0  0  0  0  0  0  0  0  0  0  0
   -6.5520   -1.4170   -3.3150 C   0  0  0  0  0  0  0  0  0  0  0  0
   -7.6760   -1.6680   -4.6380 Cl  0  0  0  0  0  0  0  0  0  0  0  0
   -6.5330   -2.2260   -2.2020 C   0  0  0  0  0  0  0  0  0  0  0  0
   -5.6300   -2.0060   -1.1640 C   0  0  0  0  0  0  0  0  0  0  0  0
   -4.0700   -0.4310    1.2000 C   0  0  0  0  0  0  0  0  0  0  0  0
   -2.8900   -0.3160    1.8500 N   0  0  0  0  0  0  0  0  0  0  0  0
   -2.8460    0.0180    3.2540 C   0  0  0  0  0  0  0  0  0  0  0  0
   -2.8020    1.4860    3.5110 C   0  0  0  0  0  0  0  0  0  0  0  0
   -3.9550    2.2780    3.0090 C   0  0  2  0  0  0  0  0  0  0  0  0
   -4.1870    2.2560    1.6640 O   0  0  0  0  0  0  0  0  0  0  0  0
   -3.7150    3.7440    3.3930 C   0  0  0  0  0  0  0  0  0  0  0  0
   -4.8950    4.4250    3.0390 O   0  0  0  0  0  0  0  0  0  0  0  0
    6.0900   -0.4510    0.8770 C   0  0  0  0  0  0  0  0  0  0  0  0
    7.0590   -0.5870   -0.2780 C   0  0  0  0  0  0  0  0  0  0  0  0
  2  1  1  1
  2  3  1  0
  2 37  1  0
  3  4  1  0
  4  5  1  0
  5  6  1  1
  5 36  1  0
  6  7  1  0
  7  8  1  0
  8  9  1  0
  9 10  1  0
 10 11  2  0
 10 12  1  0
 12 13  2  0
 12 29  1  0
 13 14  1  0
 13 20  1  0
 14 15  2  0
 14 19  1  0
 15 16  1  0
 16 17  2  0
 17 18  1  0
 18 19  2  0
 20 21  1  0
 20 28  2  0
 21 22  2  0
 21 27  1  0
 22 23  1  0
 23 24  2  0
 24 25  1  0
 24 26  1  0
 26 27  2  0
 28 29  1  0
 29 30  1  0
 30 31  1  0
 31 32  1  0
 32 33  1  6
 32 34  1  0
 34 35  1  0
 36 37  1  0
M  CHG  2   2   1   5   1
M  END
