
     RDKit          3D

 33 37  0  0  0  0  0  0  0  0999 V2000
   -4.2200   -2.4160   -2.5020 C   0  0  0  0  0  0  0  0  0  0  0  0
   -3.6890   -3.0730   -1.2880 C   0  0  0  0  0  0  0  0  0  0  0  0
   -2.7620   -2.4690   -0.5800 C   0  0  0  0  0  0  0  0  0  0  0  0
   -2.2470   -1.2480   -0.8990 N   0  0  0  0  0  0  0  0  0  0  0  0
   -1.3230   -0.8660   -0.0160 C   0  0  0  0  0  0  0  0  0  0  0  0
   -0.5500    0.4060   -0.0440 C   0  0  1  0  0  0  0  0  0  0  0  0
   -0.0530    0.7010   -1.3750 N   0  0  0  0  0  0  0  0  0  0  0  0
    1.3950    0.6920   -1.4300 C   0  0  0  0  0  0  0  0  0  0  0  0
    1.8940   -0.7420   -1.2550 C   0  0  0  0  0  0  0  0  0  0  0  0
    3.3360   -0.7770   -1.3050 N   0  0  0  0  0  0  0  0  0  0  0  0
    4.0760   -0.9360   -2.3710 N   0  0  0  0  0  0  0  0  0  0  0  0
    5.3720   -0.9140   -2.0230 C   0  0  0  0  0  0  0  0  0  0  0  0
    5.4130   -0.7280   -0.6500 C   0  0  0  0  0  0  0  0  0  0  0  0
    6.4350   -0.6230    0.2600 C   0  0  0  0  0  0  0  0  0  0  0  0
    6.1060   -0.4360    1.5880 C   0  0  0  0  0  0  0  0  0  0  0  0
    4.7890   -0.3560    1.9890 C   0  0  0  0  0  0  0  0  0  0  0  0
    3.8140   -0.4600    1.0870 N   0  0  0  0  0  0  0  0  0  0  0  0
    4.1210   -0.6420   -0.2040 C   0  0  0  0  0  0  0  0  0  0  0  0
   -1.3360    1.5350    0.5120 C   0  0  0  0  0  0  0  0  0  0  0  0
   -2.2620    2.1690   -0.2530 C   0  0  0  0  0  0  0  0  0  0  0  0
   -2.9930    3.2100    0.2460 C   0  0  0  0  0  0  0  0  0  0  0  0
   -2.8240    3.6800    1.5770 C   0  0  0  0  0  0  0  0  0  0  0  0
   -3.5500    4.7210    2.0840 C   0  0  0  0  0  0  0  0  0  0  0  0
   -4.5250    5.5460    1.5990 F   0  0  0  0  0  0  0  0  0  0  0  0
   -2.8980    4.8460    3.7850 S   0  0  0  0  0  0  0  0  0  0  0  0
   -1.7740    3.5490    3.6410 C   0  0  0  0  0  0  0  0  0  0  0  0
   -1.9250    3.0670    2.3240 C   0  0  0  0  0  0  0  0  0  0  0  0
   -1.1750    1.9970    1.8090 C   0  0  0  0  0  0  0  0  0  0  0  0
   -1.2500   -1.8600    0.8790 N   0  0  0  0  0  0  0  0  0  0  0  0
   -2.1170   -2.8560    0.5630 C   0  0  0  0  0  0  0  0  0  0  0  0
   -2.3180   -3.9830    1.2130 C   0  0  0  0  0  0  0  0  0  0  0  0
   -3.2000   -4.9120    0.8250 F   0  0  0  0  0  0  0  0  0  0  0  0
   -1.5990   -4.2160    2.3280 F   0  0  0  0  0  0  0  0  0  0  0  0
  1  2  1  0
  2  3  2  3
  3  4  1  0
  3 30  1  0
  4  5  1  0
  5  6  1  0
  5 29  2  0
  6  7  1  6
  6 19  1  0
  7  8  1  0
  8  9  1  0
  9 10  1  0
 10 11  1  0
 10 18  1  0
 11 12  2  0
 12 13  1  0
 13 14  2  0
 13 18  1  0
 14 15  1  0
 15 16  2  0
 16 17  1  0
 17 18  2  0
 19 20  1  0
 19 28  2  0
 20 21  2  0
 21 22  1  0
 22 23  2  0
 22 27  1  0
 23 24  1  0
 23 25  1  0
 25 26  1  0
 26 27  2  0
 27 28  1  0
 29 30  1  0
 30 31  2  3
 31 32  1  0
 31 33  1  0
M  CHG  1   7   1
M  END
