
     RDKit          3D

 33 36  0  0  0  0  0  0  0  0999 V2000
    1.6690    7.1070   -2.0550 C   0  0  0  0  0  0  0  0  0  0  0  0
    1.3270    5.8430   -1.7890 C   0  0  0  0  0  0  0  0  0  0  0  0
   -0.0200    5.4100   -1.9590 C   0  0  0  0  0  0  0  0  0  0  0  0
   -0.5110    4.2070   -1.7400 C   0  0  0  0  0  0  0  0  0  0  0  0
    0.1950    3.0440   -1.2780 C   0  0  0  0  0  0  0  0  0  0  0  0
    1.5430    3.2180   -1.0410 F   0  0  0  0  0  0  0  0  0  0  0  0
   -0.2880    1.8510   -1.0510 C   0  0  0  0  0  0  0  0  0  0  0  0
   -1.7050    1.5460   -1.2510 C   0  0  0  0  0  0  0  0  0  0  0  0
   -2.5630    2.5410   -0.9840 F   0  0  0  0  0  0  0  0  0  0  0  0
   -2.1980    0.3630   -1.6460 C   0  0  0  0  0  0  0  0  0  0  0  0
   -1.3660   -0.8580   -1.9490 C   0  0  0  0  0  0  0  0  0  0  0  0
   -0.7560   -1.2680   -0.6470 C   0  0  2  0  0  0  0  0  0  0  0  0
   -1.6300   -0.9300    0.4310 N   0  0  0  0  0  0  0  0  0  0  0  0
   -2.9650   -1.4500    0.5650 C   0  0  0  0  0  0  0  0  0  0  0  0
   -3.1440   -2.5580   -0.0430 N   0  0  0  0  0  0  0  0  0  0  0  0
   -4.3880   -3.3440   -0.0990 C   0  0  0  0  0  0  0  0  0  0  0  0
   -5.1170   -3.1210    1.2190 C   0  0  0  0  0  0  0  0  0  0  0  0
   -6.0200   -1.9280    1.1660 C   0  0  0  0  0  0  0  0  0  0  0  0
   -5.3220   -0.6140    1.2640 C   0  0  0  0  0  0  0  0  0  0  0  0
   -3.8830   -0.6950    1.3270 N   0  0  0  0  0  0  0  0  0  0  0  0
    0.4950   -0.4480   -0.4620 C   0  0  0  0  0  0  0  0  0  0  0  0
    1.6880   -0.9380   -0.0680 N   0  0  0  0  0  0  0  0  0  0  0  0
    2.6060    0.0410    0.0160 C   0  0  0  0  0  0  0  0  0  0  0  0
    4.0360   -0.0990    0.4160 C   0  0  0  0  0  0  0  0  0  0  0  0
    4.2980   -1.5800    0.7250 C   0  0  0  0  0  0  0  0  0  0  0  0
    5.6640   -1.8080    1.1220 C   0  0  0  0  0  0  0  0  0  0  0  0
    6.3680   -2.9140    1.4860 C   0  0  0  0  0  0  0  0  0  0  0  0
    7.6510   -2.8230    1.8100 C   0  0  0  0  0  0  0  0  0  0  0  0
    8.4310   -3.9360    2.1960 F   0  0  0  0  0  0  0  0  0  0  0  0
    8.2850   -1.6110    1.7810 C   0  0  0  0  0  0  0  0  0  0  0  0
    6.9130   -0.5030    1.2400 S   0  0  0  0  0  0  0  0  0  0  0  0
    1.9530    1.1620   -0.3370 N   0  0  0  0  0  0  0  0  0  0  0  0
    0.6950    0.8700   -0.6220 N   0  0  0  0  0  0  0  0  0  0  0  0
  1  2  2  0
  2  3  1  0
  3  4  2  3
  4  5  1  0
  5  6  1  0
  5  7  2  3
  7  8  1  0
  7 33  1  0
  8  9  1  0
  8 10  2  0
 10 11  1  0
 11 12  1  0
 12 13  1  1
 12 21  1  0
 13 14  1  0
 14 15  2  0
 14 20  1  0
 15 16  1  0
 16 17  1  0
 17 18  1  0
 18 19  1  0
 19 20  1  0
 21 22  2  0
 21 33  1  0
 22 23  1  0
 23 24  1  0
 23 32  2  0
 24 25  1  0
 25 26  1  0
 26 27  2  0
 26 31  1  0
 27 28  1  0
 28 29  1  0
 28 30  2  0
 30 31  1  0
 32 33  1  0
M  CHG  1  15   1
M  END
