
     RDKit          3D

 33 37  0  0  0  0  0  0  0  0999 V2000
   -8.4600    0.9810    0.8910 C   0  0  0  0  0  0  0  0  0  0  0  0
   -7.9310    0.1540   -0.2730 C   0  0  0  0  0  0  0  0  0  0  0  0
   -6.5770    0.6070   -0.6280 N   0  0  0  0  0  0  0  0  0  0  0  0
   -5.4440   -0.2030   -0.4600 C   0  0  0  0  0  0  0  0  0  0  0  0
   -5.5880   -1.5720   -0.3540 C   0  0  0  0  0  0  0  0  0  0  0  0
   -4.4870   -2.3900   -0.1460 C   0  0  0  0  0  0  0  0  0  0  0  0
   -3.2010   -1.8490   -0.0400 C   0  0  0  0  0  0  0  0  0  0  0  0
   -3.0610   -0.4850   -0.1470 C   0  0  0  0  0  0  0  0  0  0  0  0
   -1.7170    0.1090   -0.0380 C   0  0  0  0  0  0  0  0  0  0  0  0
   -1.6790    1.4590   -0.1340 N   0  0  0  0  0  0  0  0  0  0  0  0
   -0.4770    2.0430   -0.0400 C   0  0  0  0  0  0  0  0  0  0  0  0
   -0.3200    3.5420   -0.1320 C   0  0  0  0  0  0  0  0  0  0  0  0
    0.6110    1.2440    0.1430 C   0  0  0  0  0  0  0  0  0  0  0  0
    2.3530    1.6930    0.3080 S   0  0  0  0  0  0  0  0  0  0  0  0
    2.9320   -0.0200    0.5000 C   0  0  0  0  0  0  0  0  0  0  0  0
    1.7900   -0.7590    0.4240 C   0  0  0  0  0  0  0  0  0  0  0  0
    0.6220   -0.1180    0.2440 C   0  0  0  0  0  0  0  0  0  0  0  0
   -0.6520   -0.6720    0.1410 N   0  0  0  0  0  0  0  0  0  0  0  0
    1.8570   -2.2940    0.5380 C   0  0  0  0  0  0  0  0  0  0  0  0
    2.9550   -2.7660   -0.2650 N   0  0  0  0  0  0  0  0  0  0  0  0
    4.2050   -2.8680    0.4440 C   0  0  0  0  0  0  0  0  0  0  0  0
    4.8500   -1.5530    0.6600 C   0  0  0  0  0  0  0  0  0  0  0  0
    6.2440   -1.5520    0.8860 N   0  0  0  0  0  0  0  0  0  0  0  0
    6.9540   -0.3940    1.3970 C   0  0  0  0  0  0  0  0  0  0  0  0
    7.0200    0.7560    0.4480 C   0  0  1  0  0  0  0  0  0  0  0  0
    7.7510    1.9690    0.9550 C   0  0  0  0  0  0  0  0  0  0  0  0
    8.3620    1.1370   -0.1380 C   0  0  0  0  0  0  0  0  0  0  0  0
    4.3140   -0.3520    0.6840 N   0  0  0  0  0  0  0  0  0  0  0  0
   -4.1690    0.3020   -0.3520 C   0  0  0  0  0  0  0  0  0  0  0  0
   -6.5470    1.9370   -1.1900 C   0  0  2  0  0  0  0  0  0  0  0  0
   -5.3670    2.3750   -1.6640 F   0  0  0  0  0  0  0  0  0  0  0  0
   -6.8830    2.7980   -0.1290 F   0  0  0  0  0  0  0  0  0  0  0  0
   -7.4900    2.0760   -2.1960 F   0  0  0  0  0  0  0  0  0  0  0  0
  1  2  1  0
  2  3  1  0
  3  4  1  0
  3 30  1  0
  4  5  2  0
  4 29  1  0
  5  6  1  0
  6  7  2  0
  7  8  1  0
  8  9  1  0
  8 29  2  0
  9 10  2  0
  9 18  1  0
 10 11  1  0
 11 12  1  0
 11 13  2  0
 13 14  1  0
 13 17  1  0
 14 15  1  0
 15 16  2  0
 15 28  1  0
 16 17  1  0
 16 19  1  0
 17 18  2  0
 19 20  1  0
 20 21  1  0
 21 22  1  0
 22 23  1  0
 22 28  2  0
 23 24  1  0
 25 24  1  1
 25 26  1  0
 25 27  1  0
 26 27  1  0
 30 31  1  6
 30 32  1  0
 30 33  1  0
M  CHG  1  20   1
M  END
