
     RDKit          3D

 33 37  0  0  0  0  0  0  0  0999 V2000
    7.5590    4.0570    0.2940 F   0  0  0  0  0  0  0  0  0  0  0  0
    7.2530    2.7370    0.1720 C   0  0  0  0  0  0  0  0  0  0  0  0
    6.0590    2.4110   -0.2350 C   0  0  0  0  0  0  0  0  0  0  0  0
    5.7250    1.0080   -0.3670 C   0  0  0  0  0  0  0  0  0  0  0  0
    4.3480    0.6930   -0.8360 C   0  0  0  0  0  0  0  0  0  0  0  0
    4.1170   -0.7980   -0.9350 C   0  0  0  0  0  0  0  0  0  0  0  0
    2.7570   -0.9980   -1.3970 N   0  0  0  0  0  0  0  0  0  0  0  0
    2.3880   -1.0900   -2.7020 C   0  0  0  0  0  0  0  0  0  0  0  0
    1.0240   -1.2750   -2.6790 C   0  0  0  0  0  0  0  0  0  0  0  0
    0.5460   -1.2990   -1.3860 C   0  0  0  0  0  0  0  0  0  0  0  0
   -0.7000   -1.4510   -0.8140 C   0  0  0  0  0  0  0  0  0  0  0  0
   -0.8920   -1.4320    0.5710 C   0  0  0  0  0  0  0  0  0  0  0  0
   -2.3860   -1.6140    1.2550 S   0  0  2  0  0  0  0  0  0  0  0  0
   -3.5630   -1.3210    0.1160 N   0  0  0  0  0  0  0  0  0  0  0  0
   -3.5530   -0.0420   -0.3180 N   0  0  0  0  0  0  0  0  0  0  0  0
   -4.5650    0.7770   -0.3350 C   0  0  0  0  0  0  0  0  0  0  0  0
   -4.2930    2.1390   -0.8630 C   0  0  0  0  0  0  0  0  0  0  0  0
   -5.5060    2.8120   -1.4150 C   0  0  0  0  0  0  0  0  0  0  0  0
   -6.7400    2.5600   -0.5660 C   0  0  0  0  0  0  0  0  0  0  0  0
   -7.0180    1.0780   -0.6160 C   0  0  0  0  0  0  0  0  0  0  0  0
   -5.9110    0.3790    0.1430 C   0  0  0  0  0  0  0  0  0  0  0  0
   -2.9040   -1.1740    2.4460 N   0  0  0  0  0  0  0  0  0  0  0  0
   -3.4630   -2.2570    3.2590 N   0  0  0  0  0  0  0  0  0  0  0  0
   -3.7020   -3.3660    2.3730 C   0  0  0  0  0  0  0  0  0  0  0  0
   -2.5500   -3.4910    1.4970 N   0  0  0  0  0  0  0  0  0  0  0  0
    0.2470   -1.2530    1.3280 C   0  0  0  0  0  0  0  0  0  0  0  0
    1.4980   -1.1000    0.7700 C   0  0  0  0  0  0  0  0  0  0  0  0
    1.6660   -1.1210   -0.5990 C   0  0  0  0  0  0  0  0  0  0  0  0
    6.5700    0.0480   -0.0960 C   0  0  0  0  0  0  0  0  0  0  0  0
    7.9370    0.3380    0.3690 C   0  0  2  0  0  0  0  0  0  0  0  0
    8.8320   -0.2910   -0.4910 F   0  0  0  0  0  0  0  0  0  0  0  0
    8.0700   -0.3060    1.6010 F   0  0  0  0  0  0  0  0  0  0  0  0
    8.3000    1.7630    0.5120 C   0  0  0  0  0  0  0  0  0  0  0  0
  1  2  1  0
  2  3  2  0
  2 33  1  0
  3  4  1  0
  4  5  1  0
  4 29  2  0
  5  6  1  0
  6  7  1  0
  7  8  1  0
  7 28  1  0
  8  9  2  0
  9 10  1  0
 10 11  2  0
 10 28  1  0
 11 12  1  0
 13 12  1  6
 12 26  2  0
 13 14  2  0
 13 22  2  0
 13 25  1  0
 14 15  1  0
 15 16  2  3
 16 17  1  0
 16 21  1  0
 17 18  1  0
 18 19  1  0
 19 20  1  0
 20 21  1  0
 22 23  1  0
 23 24  1  0
 24 25  1  0
 26 27  1  0
 27 28  2  0
 29 30  1  0
 30 31  1  6
 30 32  1  0
 30 33  1  0
M  CHG  1  14   1
M  END
