
     RDKit          3D

 33 36  0  0  0  0  0  0  0  0999 V2000
   -2.4220    2.9130    0.1770 C   0  0  0  0  0  0  0  0  0  0  0  0
   -2.8420    1.8500   -0.4890 C   0  0  0  0  0  0  0  0  0  0  0  0
   -1.8850    1.2940   -1.4970 C   0  0  0  0  0  0  0  0  0  0  0  0
   -2.4380    0.2660   -2.3830 C   0  0  0  0  0  0  0  0  0  0  0  0
   -2.2080   -1.0090   -2.4940 C   0  0  0  0  0  0  0  0  0  0  0  0
   -1.3430   -1.9580   -1.8280 C   0  0  0  0  0  0  0  0  0  0  0  0
   -0.2610   -1.6000   -0.9380 C   0  0  0  0  0  0  0  0  0  0  0  0
   -0.4140   -1.4220    0.4990 C   0  0  1  0  0  0  0  0  0  0  0  0
    0.6240   -0.5100    1.0070 N   0  0  0  0  0  0  0  0  0  0  0  0
    1.5480   -1.2330    1.8510 C   0  0  0  0  0  0  0  0  0  0  0  0
    2.8360   -1.3440    1.0620 C   0  0  0  0  0  0  0  0  0  0  0  0
    3.0680   -2.4450    0.3330 N   0  0  0  0  0  0  0  0  0  0  0  0
    4.2130   -2.4980   -0.3480 N   0  0  0  0  0  0  0  0  0  0  0  0
    5.0840   -1.4600   -0.2800 C   0  0  0  0  0  0  0  0  0  0  0  0
    6.6820   -1.1340   -1.0140 S   0  0  0  0  0  0  0  0  0  0  0  0
    6.8310    0.5690   -0.1760 C   0  0  0  0  0  0  0  0  0  0  0  0
    8.0860    1.3540   -0.4650 C   0  0  2  0  0  0  0  0  0  0  0  0
    8.5620    2.1700    0.6750 C   0  0  0  0  0  0  0  0  0  0  0  0
    7.9330    2.8270   -0.5620 C   0  0  0  0  0  0  0  0  0  0  0  0
    5.8220    0.5750    0.4020 N   0  0  0  0  0  0  0  0  0  0  0  0
    4.8680   -0.3250    0.4580 C   0  0  0  0  0  0  0  0  0  0  0  0
    3.6790   -0.3230    1.1350 N   0  0  0  0  0  0  0  0  0  0  0  0
   -1.6910   -1.0090    1.1130 C   0  0  0  0  0  0  0  0  0  0  0  0
   -2.8960   -1.6300    0.7620 N   0  0  0  0  0  0  0  0  0  0  0  0
   -4.1270   -1.1890    0.2340 C   0  0  0  0  0  0  0  0  0  0  0  0
   -5.0900   -2.3890    0.0750 C   0  0  1  0  0  0  0  0  0  0  0  0
   -4.5640   -3.2810   -0.8040 F   0  0  0  0  0  0  0  0  0  0  0  0
   -5.2830   -2.9860    1.3020 F   0  0  0  0  0  0  0  0  0  0  0  0
   -6.3240   -1.9930   -0.3620 F   0  0  0  0  0  0  0  0  0  0  0  0
   -4.5990   -0.0470   -0.1190 C   0  0  0  0  0  0  0  0  0  0  0  0
   -4.1490    1.3380   -0.1640 C   0  0  0  0  0  0  0  0  0  0  0  0
   -5.0290    2.3010    0.1130 C   0  0  0  0  0  0  0  0  0  0  0  0
   -6.4250    1.9670    0.4700 C   0  0  0  0  0  0  0  0  0  0  0  0
  1  2  2  0
  2  3  1  0
  2 31  1  0
  3  4  1  0
  4  5  2  0
  5  6  1  0
  6  7  1  0
  7  8  1  0
  8  9  1  6
  8 23  1  0
  9 10  1  0
 10 11  1  0
 11 12  2  0
 11 22  1  0
 12 13  1  0
 13 14  2  0
 14 15  1  0
 14 21  1  0
 15 16  1  0
 17 16  1  1
 16 20  2  0
 17 18  1  0
 17 19  1  0
 18 19  1  0
 20 21  1  0
 21 22  2  0
 23 24  1  0
 24 25  1  0
 25 26  1  0
 25 30  2  0
 26 27  1  6
 26 28  1  0
 26 29  1  0
 30 31  1  0
 31 32  2  3
 32 33  1  0
M  CHG  1   9   1
M  END
