
     RDKit          3D

 33 36  0  0  0  0  0  0  0  0999 V2000
    8.5170   -2.1900   -0.4300 N   0  0  0  0  0  0  0  0  0  0  0  0
    8.2720   -2.5160   -1.6680 C   0  0  0  0  0  0  0  0  0  0  0  0
    9.2540   -2.4460   -2.6890 N   0  0  0  0  0  0  0  0  0  0  0  0
   10.5530   -2.5280   -2.3470 F   0  0  0  0  0  0  0  0  0  0  0  0
    6.9770   -2.9940   -1.9940 N   0  0  0  0  0  0  0  0  0  0  0  0
    6.1380   -3.7110   -1.1080 C   0  0  0  0  0  0  0  0  0  0  0  0
    4.9020   -3.4830   -0.8250 C   0  0  0  0  0  0  0  0  0  0  0  0
    4.0420   -2.4300   -1.3310 C   0  0  0  0  0  0  0  0  0  0  0  0
    4.4810   -1.3160   -2.0060 C   0  0  0  0  0  0  0  0  0  0  0  0
    3.5780   -0.4100   -2.5250 C   0  0  0  0  0  0  0  0  0  0  0  0
    2.2320   -0.6110   -2.3760 C   0  0  0  0  0  0  0  0  0  0  0  0
    1.0820    0.5150   -3.0740 S   0  0  0  0  0  0  0  0  0  0  0  0
    0.5310    1.8600   -2.0320 C   0  0  0  0  0  0  0  0  0  0  0  0
   -0.2510    1.4210   -0.8380 C   0  0  0  0  0  0  0  0  0  0  0  0
   -1.5430    1.7890   -0.8000 C   0  0  0  0  0  0  0  0  0  0  0  0
   -2.3380    1.4070    0.3110 N   0  0  0  0  0  0  0  0  0  0  0  0
   -3.7520    1.7750    0.3890 C   0  0  0  0  0  0  0  0  0  0  0  0
   -4.2600    2.4770   -0.5580 C   0  0  0  0  0  0  0  0  0  0  0  0
   -5.5820    3.0300   -0.8370 C   0  0  1  0  0  0  0  0  0  0  0  0
   -6.0680    3.9390    0.0570 F   0  0  0  0  0  0  0  0  0  0  0  0
   -5.4840    3.8000   -2.0620 F   0  0  0  0  0  0  0  0  0  0  0  0
   -4.4640    1.3130    1.5840 C   0  0  0  0  0  0  0  0  0  0  0  0
   -3.7920    0.6070    2.5000 C   0  0  0  0  0  0  0  0  0  0  0  0
   -4.4210    0.0860    3.7680 C   0  0  0  0  0  0  0  0  0  0  0  0
   -5.7380    0.8100    4.0320 C   0  0  0  0  0  0  0  0  0  0  0  0
   -6.5240    0.6120    2.7510 C   0  0  0  0  0  0  0  0  0  0  0  0
   -5.8990    1.6100    1.7320 C   0  0  0  0  0  0  0  0  0  0  0  0
   -2.4200    0.2790    2.3710 N   0  0  0  0  0  0  0  0  0  0  0  0
   -1.7300    0.6440    1.3560 C   0  0  0  0  0  0  0  0  0  0  0  0
   -0.3210    0.2830    1.2480 C   0  0  0  0  0  0  0  0  0  0  0  0
    0.3810    0.6500    0.2090 C   0  0  0  0  0  0  0  0  0  0  0  0
    1.8110   -1.7580   -1.6790 C   0  0  0  0  0  0  0  0  0  0  0  0
    2.6840   -2.5910   -1.1970 N   0  0  0  0  0  0  0  0  0  0  0  0
  1  2  2  0
  2  3  1  0
  2  5  1  0
  3  4  1  0
  5  6  1  0
  6  7  2  3
  7  8  1  0
  8  9  2  0
  8 33  1  0
  9 10  1  0
 10 11  2  0
 11 12  1  0
 11 32  1  0
 12 13  1  0
 13 14  1  0
 14 15  2  0
 14 31  1  0
 15 16  1  0
 16 17  1  0
 16 29  1  0
 17 18  2  3
 17 22  1  0
 18 19  1  0
 19 20  1  1
 19 21  1  0
 22 23  2  0
 22 27  1  0
 23 24  1  0
 23 28  1  0
 24 25  1  0
 25 26  1  0
 26 27  1  0
 28 29  2  0
 29 30  1  0
 30 31  2  0
 32 33  2  0
M  CHG  1  28   1
M  END
