
     RDKit          3D

 27 28  0  0  0  0  0  0  0  0999 V2000
    7.4930   -0.3540   -0.2560 N   0  0  0  0  0  0  0  0  0  0  0  0
    6.2110    0.2480    0.0350 C   0  0  0  0  0  0  0  0  0  0  0  0
    5.2170    0.1070   -0.8230 C   0  0  0  0  0  0  0  0  0  0  0  0
    3.8830    0.6460   -0.6750 C   0  0  0  0  0  0  0  0  0  0  0  0
    2.9720    0.4540   -1.5770 C   0  0  0  0  0  0  0  0  0  0  0  0
    3.1440   -0.3010   -2.8230 C   0  0  0  0  0  0  0  0  0  0  0  0
    2.3530   -1.5280   -2.6500 N   0  0  0  0  0  0  0  0  0  0  0  0
    1.0230   -1.1980   -2.2780 C   0  0  0  0  0  0  0  0  0  0  0  0
    0.6950    0.2630   -2.2070 C   0  0  1  0  0  0  0  0  0  0  0  0
   -0.6600    0.3720   -1.6030 C   0  0  0  0  0  0  0  0  0  0  0  0
   -0.7660    1.0460   -0.5480 O   0  0  0  0  0  0  0  0  0  0  0  0
   -1.7820   -0.2060   -2.1140 O   0  0  0  0  0  0  0  0  0  0  0  0
   -3.0750   -0.1120   -1.5520 C   0  0  0  0  0  0  0  0  0  0  0  0
   -3.1620   -0.6490   -0.1930 C   0  0  0  0  0  0  0  0  0  0  0  0
   -2.1610   -1.1340    0.3820 O   0  0  0  0  0  0  0  0  0  0  0  0
   -4.3930   -0.6260    0.4990 N   0  0  0  0  0  0  0  0  0  0  0  0
   -4.4470   -1.1620    1.8400 C   0  0  0  0  0  0  0  0  0  0  0  0
   -5.7380   -0.9440    2.5490 C   0  0  0  0  0  0  0  0  0  0  0  0
   -6.8240   -0.6830    1.7550 O   0  0  0  0  0  0  0  0  0  0  0  0
   -6.6010    0.3510    0.8810 C   0  0  1  0  0  0  0  0  0  0  0  0
   -6.1710    1.6250    1.5770 C   0  0  0  0  0  0  0  0  0  0  0  0
   -5.9510    2.6560    0.6730 O   0  0  0  0  0  0  0  0  0  0  0  0
   -5.5800   -0.0610   -0.1570 C   0  0  0  0  0  0  0  0  0  0  0  0
    1.6580    0.9840   -1.4310 O   0  0  0  0  0  0  0  0  0  0  0  0
    6.1150    0.9840    1.2970 C   0  0  0  0  0  0  0  0  0  0  0  0
    6.4210    0.0460    2.4640 C   0  0  0  0  0  0  0  0  0  0  0  0
    6.3400    0.7040    3.6660 O   0  0  0  0  0  0  0  0  0  0  0  0
  1  2  1  0
  2  3  2  3
  2 25  1  0
  3  4  1  0
  4  5  2  3
  5  6  1  0
  5 24  1  0
  6  7  1  0
  7  8  1  0
  8  9  1  0
  9 10  1  1
  9 24  1  0
 10 11  2  0
 10 12  1  0
 12 13  1  0
 13 14  1  0
 14 15  2  0
 14 16  1  0
 16 17  1  0
 16 23  1  0
 17 18  1  0
 18 19  1  0
 19 20  1  0
 20 21  1  1
 20 23  1  0
 21 22  1  0
 25 26  1  0
 26 27  1  0
M  END
