
     RDKit          3D

  9  8  0  0  0  0  0  0  0  0999 V2000
   -3.1720    0.5960   -0.5810 C   0  0  0  0  0  0  0  0  0  0  0  0
   -1.8620    0.7620   -0.1320 O   0  0  0  0  0  0  0  0  0  0  0  0
   -1.4830   -0.2080    0.7750 C   0  0  2  0  0  0  0  0  0  0  0  0
   -1.1930    0.3880    1.9990 O   0  0  0  0  0  0  0  0  0  0  0  0
   -0.2960   -0.9420    0.2150 C   0  0  0  0  0  0  0  0  0  0  0  0
    0.8490    0.0390   -0.0090 C   0  0  0  0  0  0  0  0  0  0  0  0
    1.9350   -0.6340   -0.5220 O   0  0  0  0  0  0  0  0  0  0  0  0
    2.9970    0.2090   -0.7430 C   0  0  0  0  0  0  0  0  0  0  0  0
    4.0440   -0.5690   -1.2620 O   0  0  0  0  0  0  0  0  0  0  0  0
  1  2  1  0
  2  3  1  0
  3  4  1  1
  3  5  1  0
  5  6  1  0
  6  7  1  0
  7  8  1  0
  8  9  1  0
M  END
