
     RDKit          3D

  9  8  0  0  0  0  0  0  0  0999 V2000
    2.4360    0.3760   -0.7990 C   0  0  0  0  0  0  0  0  0  0  0  0
    1.7610   -0.5200   -0.0150 O   0  0  0  0  0  0  0  0  0  0  0  0
    0.5010   -0.1230    0.3950 C   0  0  1  0  0  0  0  0  0  0  0  0
   -0.0070   -1.2310    1.3200 C   0  0  0  0  0  0  0  0  0  0  0  0
    0.6570    1.0490    1.1310 O   0  0  0  0  0  0  0  0  0  0  0  0
   -0.4670    0.1080   -0.7190 C   0  0  1  0  0  0  0  0  0  0  0  0
   -0.6440   -1.0640   -1.4690 O   0  0  0  0  0  0  0  0  0  0  0  0
   -1.8040    0.6180   -0.2490 C   0  0  0  0  0  0  0  0  0  0  0  0
   -2.4890   -0.2700    0.5430 O   0  0  0  0  0  0  0  0  0  0  0  0
  1  2  1  0
  2  3  1  0
  3  4  1  1
  3  5  1  0
  3  6  1  0
  6  7  1  1
  6  8  1  0
  8  9  1  0
M  END
