
     RDKit          3D

  9  8  0  0  0  0  0  0  0  0999 V2000
   -3.6870   -0.2410   -0.2280 C   0  0  0  0  0  0  0  0  0  0  0  0
   -2.7600    0.4450    0.5740 O   0  0  0  0  0  0  0  0  0  0  0  0
   -1.5110    0.3090   -0.0860 C   0  0  0  0  0  0  0  0  0  0  0  0
   -0.5830    0.9660    0.6700 O   0  0  0  0  0  0  0  0  0  0  0  0
    0.7100    0.9630    0.2010 C   0  0  0  0  0  0  0  0  0  0  0  0
    1.2180   -0.4380    0.0970 C   0  0  2  0  0  0  0  0  0  0  0  0
    1.1490   -0.9990    1.3850 O   0  0  0  0  0  0  0  0  0  0  0  0
    2.6820   -0.4730   -0.3280 C   0  0  0  0  0  0  0  0  0  0  0  0
    3.4320    0.2740    0.5850 O   0  0  0  0  0  0  0  0  0  0  0  0
  1  2  1  0
  2  3  1  0
  3  4  1  0
  4  5  1  0
  5  6  1  0
  6  7  1  1
  6  8  1  0
  8  9  1  0
M  END
