
     RDKit          3D

 27 29  0  0  0  0  0  0  0  0999 V2000
    0.3250   -4.6120    1.7860 C   0  0  0  0  0  0  0  0  0  0  0  0
   -0.5420   -4.1660    0.8090 O   0  0  0  0  0  0  0  0  0  0  0  0
   -0.2120   -2.9600    0.2540 C   0  0  0  0  0  0  0  0  0  0  0  0
   -0.1520   -1.8240    1.2060 C   0  0  0  0  0  0  0  0  0  0  0  0
    0.2150   -0.5400    0.5180 N   0  0  0  0  0  0  0  0  0  0  0  0
    1.5620   -0.2720    0.4310 C   0  0  0  0  0  0  0  0  0  0  0  0
    2.2420   -1.0660    1.2710 O   0  0  0  0  0  0  0  0  0  0  0  0
    2.4480    0.5960   -0.2880 C   0  0  0  0  0  0  0  0  0  0  0  0
    2.1430    1.4020   -1.2820 C   0  0  0  0  0  0  0  0  0  0  0  0
    0.8480    1.4930   -1.7770 O   0  0  0  0  0  0  0  0  0  0  0  0
    3.0990    2.3000   -1.9970 C   0  0  0  0  0  0  0  0  0  0  0  0
    4.4030    2.2610   -1.5430 O   0  0  0  0  0  0  0  0  0  0  0  0
    4.7670    1.4370   -0.5100 C   0  0  0  0  0  0  0  0  0  0  0  0
    3.8970    0.6620    0.0870 C   0  0  0  0  0  0  0  0  0  0  0  0
    4.5580   -0.0380    1.0740 O   0  0  0  0  0  0  0  0  0  0  0  0
    5.8540    0.5300    1.2840 C   0  0  0  0  0  0  0  0  0  0  0  0
    6.0330    1.2650    0.0730 O   0  0  0  0  0  0  0  0  0  0  0  0
   -0.8610    0.3310    0.2120 C   0  0  2  0  0  0  0  0  0  0  0  0
   -1.8170    0.3780    1.4150 C   0  0  0  0  0  0  0  0  0  0  0  0
   -2.6320    1.6190    1.2350 C   0  0  0  0  0  0  0  0  0  0  0  0
   -2.5870    2.1190   -0.1660 C   0  0  0  0  0  0  0  0  0  0  0  0
   -2.7350    1.0220   -1.1820 C   0  0  2  0  0  0  0  0  0  0  0  0
   -2.4030    1.6080   -2.5050 N   0  0  0  0  0  0  0  0  0  0  0  0
   -4.1500    0.5720   -1.2040 C   0  0  0  0  0  0  0  0  0  0  0  0
   -4.8100   -0.0530   -0.1230 N   0  0  0  0  0  0  0  0  0  0  0  0
   -4.8130    0.7560   -2.2530 O   0  0  0  0  0  0  0  0  0  0  0  0
   -1.7620   -0.1100   -0.9300 C   0  0  0  0  0  0  0  0  0  0  0  0
  1  2  1  0
  2  3  1  0
  3  4  1  0
  4  5  1  0
  5  6  1  0
 18  5  1  1
  6  7  2  0
  6  8  1  0
  8  9  2  0
  8 14  1  0
  9 10  1  0
  9 11  1  0
 11 12  1  0
 12 13  1  0
 13 14  2  0
 13 17  1  0
 14 15  1  0
 15 16  1  0
 16 17  1  0
 18 19  1  0
 18 27  1  0
 19 20  1  0
 20 21  1  0
 21 22  1  0
 22 23  1  6
 22 24  1  0
 22 27  1  0
 24 25  1  0
 24 26  2  0
M  END
