
     RDKit          3D

  9  8  0  0  0  0  0  0  0  0999 V2000
    2.2990   -0.9950   -0.6230 C   0  0  0  0  0  0  0  0  0  0  0  0
    1.5560   -0.7360    0.5110 O   0  0  0  0  0  0  0  0  0  0  0  0
    0.7660    0.3940    0.4240 C   0  0  2  0  0  0  0  0  0  0  0  0
    1.2140    1.4140    1.2640 O   0  0  0  0  0  0  0  0  0  0  0  0
   -0.6770    0.0860    0.5990 C   0  0  2  0  0  0  0  0  0  0  0  0
   -1.2150   -0.8780   -0.4300 C   0  0  0  0  0  0  0  0  0  0  0  0
   -0.6080   -2.1080   -0.4380 O   0  0  0  0  0  0  0  0  0  0  0  0
   -1.5540    1.3140    0.6000 C   0  0  0  0  0  0  0  0  0  0  0  0
   -1.4580    2.0320   -0.5860 O   0  0  0  0  0  0  0  0  0  0  0  0
  1  2  1  0
  2  3  1  0
  3  4  1  1
  3  5  1  0
  5  6  1  6
  5  8  1  0
  6  7  1  0
  8  9  1  0
M  END
