
     RDKit          3D

 27 29  0  0  0  0  0  0  0  0999 V2000
    8.2810   -1.4690   -0.6330 C   0  0  0  0  0  0  0  0  0  0  0  0
    6.8560   -1.6620   -0.7420 N   0  0  0  0  0  0  0  0  0  0  0  0
    5.9000   -0.8320   -0.1060 C   0  0  0  0  0  0  0  0  0  0  0  0
    6.3500    0.1920    0.6400 N   0  0  0  0  0  0  0  0  0  0  0  0
    5.5170    1.0320    1.2780 C   0  0  0  0  0  0  0  0  0  0  0  0
    4.1970    0.8230    1.1540 N   0  0  0  0  0  0  0  0  0  0  0  0
    3.6640   -0.1790    0.4260 C   0  0  0  0  0  0  0  0  0  0  0  0
    4.5480   -1.0270   -0.2190 C   0  0  0  0  0  0  0  0  0  0  0  0
    3.7850   -1.9220   -0.8630 N   0  0  0  0  0  0  0  0  0  0  0  0
    2.4770   -1.6450   -0.6290 C   0  0  0  0  0  0  0  0  0  0  0  0
    2.4040   -0.5700    0.1660 N   0  0  0  0  0  0  0  0  0  0  0  0
    1.2300    0.1020    0.6860 C   0  0  2  0  0  0  0  0  0  0  0  0
    0.0680   -0.4240    0.2050 O   0  0  0  0  0  0  0  0  0  0  0  0
   -0.7610    0.6280   -0.1630 C   0  0  2  0  0  0  0  0  0  0  0  0
   -1.8220    0.1790   -1.1470 C   0  0  0  0  0  0  0  0  0  0  0  0
   -2.8060   -1.1050   -0.3450 S   0  0  0  0  0  0  0  0  0  0  0  0
   -3.7650   -0.4520    1.0340 C   0  0  0  0  0  0  0  0  0  0  0  0
   -4.8400    0.5060    0.5720 C   0  0  0  0  0  0  0  0  0  0  0  0
   -5.8230   -0.1510   -0.3750 C   0  0  2  0  0  0  0  0  0  0  0  0
   -6.7930    0.8510   -0.7490 N   0  0  0  0  0  0  0  0  0  0  0  0
   -6.5380   -1.2860    0.2420 C   0  0  0  0  0  0  0  0  0  0  0  0
   -7.7850   -1.2270    0.3480 O   0  0  0  0  0  0  0  0  0  0  0  0
   -5.9230   -2.4340    0.7210 O   0  0  0  0  0  0  0  0  0  0  0  0
    0.2140    1.5920   -0.8030 C   0  0  1  0  0  0  0  0  0  0  0  0
   -0.3260    2.8710   -0.9210 O   0  0  0  0  0  0  0  0  0  0  0  0
    1.3110    1.5660    0.2710 C   0  0  1  0  0  0  0  0  0  0  0  0
    0.9330    2.3310    1.3610 O   0  0  0  0  0  0  0  0  0  0  0  0
  1  2  1  0
  2  3  1  0
  3  4  2  0
  3  8  1  0
  4  5  1  0
  5  6  2  0
  6  7  1  0
  7  8  2  0
  7 11  1  0
  8  9  1  0
  9 10  2  0
 10 11  1  0
 12 11  1  6
 12 13  1  0
 12 26  1  0
 13 14  1  0
 14 15  1  6
 14 24  1  0
 15 16  1  0
 16 17  1  0
 17 18  1  0
 18 19  1  0
 19 20  1  1
 19 21  1  0
 21 22  2  0
 21 23  1  0
 24 25  1  1
 24 26  1  0
 26 27  1  1
M  CHG  1  20   1
M  END
