
     RDKit          3D

 27 28  0  0  0  0  0  0  0  0999 V2000
    3.7340   -2.1650   -2.1120 C   0  0  0  0  0  0  0  0  0  0  0  0
    4.2000   -0.8450   -1.5490 C   0  0  0  0  0  0  0  0  0  0  0  0
    3.4620   -0.5430   -0.3680 O   0  0  0  0  0  0  0  0  0  0  0  0
    3.4900   -1.3830    0.7300 C   0  0  0  0  0  0  0  0  0  0  0  0
    4.1840   -2.4420    0.6880 O   0  0  0  0  0  0  0  0  0  0  0  0
    2.7290   -1.0770    1.9570 C   0  0  0  0  0  0  0  0  0  0  0  0
    1.9870    0.1400    1.8120 N   0  0  0  0  0  0  0  0  0  0  0  0
    2.6270    1.3790    2.1930 C   0  0  0  0  0  0  0  0  0  0  0  0
    3.7000    1.3530    2.8050 O   0  0  0  0  0  0  0  0  0  0  0  0
    1.8900    2.6110    1.7870 C   0  0  0  0  0  0  0  0  0  0  0  0
    1.4100    2.3840    0.5230 O   0  0  0  0  0  0  0  0  0  0  0  0
    0.3990    1.4440    0.4380 C   0  0  2  0  0  0  0  0  0  0  0  0
   -0.8930    2.1350    0.8110 C   0  0  0  0  0  0  0  0  0  0  0  0
   -1.1680    3.2350   -0.0730 N   0  0  0  0  0  0  0  0  0  0  0  0
   -1.3530    3.1450   -1.4700 C   0  0  0  0  0  0  0  0  0  0  0  0
   -1.2810    2.0300   -2.0290 O   0  0  0  0  0  0  0  0  0  0  0  0
   -1.6160    4.2470   -2.2750 O   0  0  0  0  0  0  0  0  0  0  0  0
    0.6420    0.2360    1.3180 C   0  0  1  0  0  0  0  0  0  0  0  0
    0.3110   -0.9330    0.5690 N   0  0  0  0  0  0  0  0  0  0  0  0
   -0.9980   -1.2020    0.0580 C   0  0  0  0  0  0  0  0  0  0  0  0
   -1.3020   -1.2530   -1.2230 C   0  0  0  0  0  0  0  0  0  0  0  0
   -2.7430   -1.5540   -1.4170 C   0  0  2  0  0  0  0  0  0  0  0  0
   -3.4330   -0.3980   -2.0930 C   0  0  0  0  0  0  0  0  0  0  0  0
   -3.2310   -1.6710   -0.0270 C   0  0  0  0  0  0  0  0  0  0  0  0
   -4.6560   -1.9730    0.2930 C   0  0  0  0  0  0  0  0  0  0  0  0
   -2.2190   -1.4660    0.7750 C   0  0  0  0  0  0  0  0  0  0  0  0
   -2.3200   -1.5020    2.1620 O   0  0  0  0  0  0  0  0  0  0  0  0
  1  2  1  0
  2  3  1  0
  3  4  1  0
  4  5  2  0
  4  6  1  0
  6  7  1  0
  7  8  1  0
  7 18  1  0
  8  9  2  0
  8 10  1  0
 10 11  1  0
 11 12  1  0
 12 13  1  1
 12 18  1  0
 13 14  1  0
 14 15  1  0
 15 16  2  0
 15 17  1  0
 18 19  1  6
 19 20  1  0
 20 21  2  0
 20 26  1  0
 21 22  1  0
 22 23  1  1
 22 24  1  0
 24 25  1  0
 24 26  2  0
 26 27  1  0
M  END
