
     RDKit          3D

 40 43  0  0  0  0  0  0  0  0999 V2000
   -9.2010    0.0860    3.0270 C   0  0  0  0  0  0  0  0  0  0  0  0
   -8.2470   -0.9430    2.9440 O   0  0  0  0  0  0  0  0  0  0  0  0
   -7.1630   -0.8260    2.0460 C   0  0  0  0  0  0  0  0  0  0  0  0
   -7.0730    0.3150    1.2830 C   0  0  0  0  0  0  0  0  0  0  0  0
   -6.0230    0.4420    0.4060 C   0  0  0  0  0  0  0  0  0  0  0  0
   -5.0860   -0.5890    0.3090 C   0  0  0  0  0  0  0  0  0  0  0  0
   -3.7600   -0.3720   -0.8320 S   0  0  1  0  0  0  0  0  0  0  0  0
   -3.5620   -1.6830   -1.5290 O   0  0  0  0  0  0  0  0  0  0  0  0
   -4.2390    0.5830   -1.8960 O   0  0  0  0  0  0  0  0  0  0  0  0
   -2.3480    0.1800   -0.0660 N   0  0  0  0  0  0  0  0  0  0  0  0
   -2.5310    1.4220    0.5650 C   0  0  0  0  0  0  0  0  0  0  0  0
   -2.4610    2.6620   -0.2820 C   0  0  1  0  0  0  0  0  0  0  0  0
   -2.6960    3.8340    0.6380 C   0  0  0  0  0  0  0  0  0  0  0  0
   -1.1560    2.8500   -0.9980 C   0  0  0  0  0  0  0  0  0  0  0  0
   -1.7240   -0.7960    0.7350 C   0  0  0  0  0  0  0  0  0  0  0  0
   -0.2480   -0.9710    0.5840 C   0  0  1  0  0  0  0  0  0  0  0  0
    0.1990   -1.9760    1.4090 O   0  0  0  0  0  0  0  0  0  0  0  0
    0.3280   -0.8820   -0.7780 C   0  0  2  0  0  0  0  0  0  0  0  0
   -0.0230   -2.0580   -1.6520 C   0  0  0  0  0  0  0  0  0  0  0  0
    0.4020   -3.3660   -1.1360 C   0  0  0  0  0  0  0  0  0  0  0  0
    1.6350   -3.9100   -1.3860 C   0  0  0  0  0  0  0  0  0  0  0  0
    2.0240   -5.1500   -0.8790 C   0  0  0  0  0  0  0  0  0  0  0  0
    1.1720   -5.8890   -0.0980 C   0  0  0  0  0  0  0  0  0  0  0  0
   -0.0900   -5.3560    0.1650 C   0  0  0  0  0  0  0  0  0  0  0  0
   -0.4460   -4.1100   -0.3550 C   0  0  0  0  0  0  0  0  0  0  0  0
    1.7430   -0.6130   -0.8340 N   0  0  0  0  0  0  0  0  0  0  0  0
    2.4270    0.4720   -0.2710 C   0  0  0  0  0  0  0  0  0  0  0  0
    1.8200    1.3480    0.4040 O   0  0  0  0  0  0  0  0  0  0  0  0
    3.7880    0.5930   -0.4540 O   0  0  0  0  0  0  0  0  0  0  0  0
    4.6300    1.5830    0.0500 C   0  0  1  0  0  0  0  0  0  0  0  0
    5.7840    0.9380    0.7940 C   0  0  0  0  0  0  0  0  0  0  0  0
    7.0540    1.3440    0.1080 C   0  0  1  0  0  0  0  0  0  0  0  0
    7.3770    0.4240   -0.8760 O   0  0  0  0  0  0  0  0  0  0  0  0
    7.9360    1.0660   -1.9450 C   0  0  0  0  0  0  0  0  0  0  0  0
    7.6560    2.5440   -1.8340 C   0  0  2  0  0  0  0  0  0  0  0  0
    8.8520    3.1770   -1.4950 O   0  0  0  0  0  0  0  0  0  0  0  0
    6.6860    2.6040   -0.6890 C   0  0  1  0  0  0  0  0  0  0  0  0
    5.2500    2.4020   -1.0820 C   0  0  0  0  0  0  0  0  0  0  0  0
   -5.1980   -1.7000    1.0720 C   0  0  0  0  0  0  0  0  0  0  0  0
   -6.2590   -1.8400    1.9750 C   0  0  0  0  0  0  0  0  0  0  0  0
  1  2  1  0
  2  3  1  0
  3  4  2  0
  3 40  1  0
  4  5  1  0
  5  6  2  0
  6  7  1  0
  6 39  1  0
  7  8  2  0
  7  9  2  0
  7 10  1  1
 10 11  1  0
 10 15  1  0
 11 12  1  0
 12 13  1  1
 12 14  1  0
 15 16  1  0
 16 17  1  6
 16 18  1  0
 18 19  1  1
 18 26  1  0
 19 20  1  0
 20 21  2  0
 20 25  1  0
 21 22  1  0
 22 23  2  0
 23 24  1  0
 24 25  2  0
 26 27  1  0
 27 28  2  0
 27 29  1  0
 30 29  1  6
 30 31  1  0
 30 38  1  0
 32 31  1  6
 32 33  1  0
 32 37  1  0
 33 34  1  0
 34 35  1  0
 35 36  1  1
 35 37  1  0
 37 38  1  6
 39 40  2  0
M  END
