
     RDKit          3D

 40 44  0  0  0  0  0  0  0  0999 V2000
  -10.7620   -0.5910   -0.8370 C   0  0  0  0  0  0  0  0  0  0  0  0
   -9.9180    0.1790   -0.1930 C   0  0  0  0  0  0  0  0  0  0  0  0
   -8.4620    0.0500   -0.1970 C   0  0  0  0  0  0  0  0  0  0  0  0
   -7.5820   -0.6390   -1.0350 C   0  0  0  0  0  0  0  0  0  0  0  0
   -6.2300   -0.6080   -0.8310 C   0  0  0  0  0  0  0  0  0  0  0  0
   -5.3770   -1.3000   -1.6710 O   0  0  0  0  0  0  0  0  0  0  0  0
   -5.8140   -2.0860   -2.7280 C   0  0  0  0  0  0  0  0  0  0  0  0
   -6.7520   -2.9480   -2.4650 N   0  0  0  0  0  0  0  0  0  0  0  0
   -5.6610    0.1220    0.2340 C   0  0  0  0  0  0  0  0  0  0  0  0
   -4.2570    0.0880    0.3540 N   0  0  0  0  0  0  0  0  0  0  0  0
   -3.4980    0.7420    1.3360 C   0  0  0  0  0  0  0  0  0  0  0  0
   -4.1150    1.4370    2.2130 O   0  0  0  0  0  0  0  0  0  0  0  0
   -2.0310    0.6690    1.4100 C   0  0  0  0  0  0  0  0  0  0  0  0
   -1.2920   -0.0500    0.5210 C   0  0  0  0  0  0  0  0  0  0  0  0
    0.1180   -0.0980    0.6190 C   0  0  0  0  0  0  0  0  0  0  0  0
    0.7520   -0.8600   -0.3380 O   0  0  0  0  0  0  0  0  0  0  0  0
    2.1420   -1.0050   -0.4060 C   0  0  0  0  0  0  0  0  0  0  0  0
    2.7660    0.3030   -0.6560 C   0  0  0  0  0  0  0  0  0  0  0  0
    2.0650    1.3120   -0.8350 O   0  0  0  0  0  0  0  0  0  0  0  0
    4.1730    0.4140   -0.6940 N   0  0  0  0  0  0  0  0  0  0  0  0
    4.8030    1.7150   -0.9430 C   0  0  0  0  0  0  0  0  0  0  0  0
    5.7820    2.0610    0.1740 C   0  0  0  0  0  0  0  0  0  0  0  0
    6.7980    0.9580    0.1630 C   0  0  0  0  0  0  0  0  0  0  0  0
    8.1050    1.2710    0.4720 C   0  0  0  0  0  0  0  0  0  0  0  0
    9.0860    0.2970    0.4780 C   0  0  0  0  0  0  0  0  0  0  0  0
   10.5070    0.6220    0.8110 C   0  0  0  0  0  0  0  0  0  0  0  0
    8.7090   -0.9900    0.1650 C   0  0  0  0  0  0  0  0  0  0  0  0
    7.4000   -1.2950   -0.1430 C   0  0  0  0  0  0  0  0  0  0  0  0
    7.0770   -2.6940   -0.4660 C   0  0  0  0  0  0  0  0  0  0  0  0
    6.4080   -0.3270   -0.1520 C   0  0  0  0  0  0  0  0  0  0  0  0
    5.0480   -0.7440   -0.4900 C   0  0  0  0  0  0  0  0  0  0  0  0
    0.7520    0.5790    1.6130 C   0  0  0  0  0  0  0  0  0  0  0  0
   -0.0340    1.3050    2.5070 C   0  0  0  0  0  0  0  0  0  0  0  0
   -1.3680    1.3380    2.3950 N   0  0  0  0  0  0  0  0  0  0  0  0
   -6.5470    0.7780    1.0240 C   0  0  0  0  0  0  0  0  0  0  0  0
   -7.9300    0.7610    0.8370 C   0  0  0  0  0  0  0  0  0  0  0  0
   -9.0360    1.3880    1.5640 C   0  0  0  0  0  0  0  0  0  0  0  0
   -8.9580    1.8690    2.7350 O   0  0  0  0  0  0  0  0  0  0  0  0
  -10.2340    1.3540    0.6860 C   0  0  1  0  0  0  0  0  0  0  0  0
  -10.2560    2.5130   -0.0510 F   0  0  0  0  0  0  0  0  0  0  0  0
  1  2  2  0
  2  3  1  0
  2 39  1  0
  3  4  2  0
  3 36  1  0
  4  5  1  0
  5  6  1  0
  5  9  2  0
  6  7  1  0
  7  8  2  0
  9 10  1  0
  9 35  1  0
 10 11  1  0
 11 12  2  0
 11 13  1  0
 13 14  2  0
 13 34  1  0
 14 15  1  0
 15 16  1  0
 15 32  2  0
 16 17  1  0
 17 18  1  0
 18 19  2  0
 18 20  1  0
 20 21  1  0
 20 31  1  0
 21 22  1  0
 22 23  1  0
 23 24  2  0
 23 30  1  0
 24 25  1  0
 25 26  1  0
 25 27  2  0
 27 28  1  0
 28 29  1  0
 28 30  2  0
 30 31  1  0
 32 33  1  0
 33 34  2  0
 35 36  2  0
 36 37  1  0
 37 38  2  0
 37 39  1  0
 39 40  1  6
M  END
