
     RDKit          3D

 40 43  0  0  0  0  0  0  0  0999 V2000
    1.4390   -1.9970   -1.4450 C   0  0  0  0  0  0  0  0  0  0  0  0
    2.3150   -1.9160   -0.2140 N   0  0  0  0  0  0  0  0  0  0  0  0
    1.8100   -2.6620    0.8810 C   0  0  0  0  0  0  0  0  0  0  0  0
    0.9950   -1.7820    1.8170 C   0  0  0  0  0  0  0  0  0  0  0  0
   -0.0820   -1.1740    1.2620 O   0  0  0  0  0  0  0  0  0  0  0  0
   -1.2490   -1.4900    0.6980 C   0  0  0  0  0  0  0  0  0  0  0  0
   -1.6640   -2.7910    0.5830 C   0  0  0  0  0  0  0  0  0  0  0  0
   -2.8840   -3.0790   -0.0100 C   0  0  0  0  0  0  0  0  0  0  0  0
   -3.7050   -2.0920   -0.4930 C   0  0  0  0  0  0  0  0  0  0  0  0
   -5.2520   -2.4270   -1.2460 S   0  0  2  0  0  0  0  0  0  0  0  0
   -5.2380   -3.8220   -1.7980 O   0  0  0  0  0  0  0  0  0  0  0  0
   -5.4620   -1.4480   -2.3890 O   0  0  0  0  0  0  0  0  0  0  0  0
   -6.4990   -2.2370   -0.0220 C   0  0  0  0  0  0  0  0  0  0  0  0
   -7.9000   -2.5020   -0.5260 C   0  0  0  0  0  0  0  0  0  0  0  0
   -8.2880   -1.5920   -1.6450 C   0  0  0  0  0  0  0  0  0  0  0  0
   -8.1990   -0.2920   -1.1430 F   0  0  0  0  0  0  0  0  0  0  0  0
   -3.2510   -0.7740   -0.3580 C   0  0  0  0  0  0  0  0  0  0  0  0
   -2.0630   -0.4310    0.2150 C   0  0  0  0  0  0  0  0  0  0  0  0
   -1.6170    0.9060    0.3470 N   0  0  0  0  0  0  0  0  0  0  0  0
   -2.2130    2.1030   -0.1000 C   0  0  1  0  0  0  0  0  0  0  0  0
   -2.3790    2.2250   -1.6050 C   0  0  0  0  0  0  0  0  0  0  0  0
   -2.4900    4.0360   -1.9070 S   0  0  0  0  0  0  0  0  0  0  0  0
   -3.5760    4.6730   -0.6040 C   0  0  0  0  0  0  0  0  0  0  0  0
   -4.3210    3.4970   -0.0190 C   0  0  1  0  0  0  0  0  0  0  0  0
   -4.9970    2.8780   -1.0670 O   0  0  0  0  0  0  0  0  0  0  0  0
   -3.4330    2.4850    0.6620 C   0  0  0  0  0  0  0  0  0  0  0  0
    3.4560   -1.1480   -0.3880 C   0  0  0  0  0  0  0  0  0  0  0  0
    3.6140   -0.6380   -1.5970 O   0  0  0  0  0  0  0  0  0  0  0  0
    4.4920   -0.8190    0.5480 C   0  0  0  0  0  0  0  0  0  0  0  0
    4.6030   -1.2930    1.8260 C   0  0  0  0  0  0  0  0  0  0  0  0
    5.6360   -0.9230    2.6970 C   0  0  0  0  0  0  0  0  0  0  0  0
    6.5680   -0.0400    2.2210 C   0  0  0  0  0  0  0  0  0  0  0  0
    6.4920    0.4620    0.9420 C   0  0  0  0  0  0  0  0  0  0  0  0
    7.5030    1.4260    0.4530 C   0  0  0  0  0  0  0  0  0  0  0  0
    7.8510    1.4810   -0.8800 C   0  0  0  0  0  0  0  0  0  0  0  0
    8.7960    2.3800   -1.3440 C   0  0  0  0  0  0  0  0  0  0  0  0
    9.4240    3.2560   -0.4720 C   0  0  0  0  0  0  0  0  0  0  0  0
    9.0660    3.1890    0.8630 C   0  0  0  0  0  0  0  0  0  0  0  0
    8.1170    2.2880    1.3360 C   0  0  0  0  0  0  0  0  0  0  0  0
    5.4890    0.0970    0.1050 C   0  0  0  0  0  0  0  0  0  0  0  0
  1  2  1  0
  2  3  1  0
  2 27  1  0
  3  4  1  0
  4  5  1  0
  5  6  1  0
  6  7  2  0
  6 18  1  0
  7  8  1  0
  8  9  2  0
  9 10  1  0
  9 17  1  0
 10 11  2  0
 10 12  2  0
 10 13  1  1
 13 14  1  0
 14 15  1  0
 15 16  1  0
 17 18  2  0
 18 19  1  0
 20 19  1  6
 20 21  1  0
 20 26  1  0
 21 22  1  0
 22 23  1  0
 23 24  1  0
 24 25  1  6
 24 26  1  0
 27 28  2  0
 27 29  1  0
 29 30  2  0
 29 40  1  0
 30 31  1  0
 31 32  2  0
 32 33  1  0
 33 34  1  0
 33 40  2  0
 34 35  2  0
 34 39  1  0
 35 36  1  0
 36 37  2  0
 37 38  1  0
 38 39  2  0
M  END
