
     RDKit          3D

 40 43  0  0  0  0  0  0  0  0999 V2000
   -8.1740    2.3880   -1.6030 C   0  0  0  0  0  0  0  0  0  0  0  0
   -7.1230    1.3110   -1.8650 C   0  0  0  0  0  0  0  0  0  0  0  0
   -6.4430    0.9700   -0.6080 N   0  0  0  0  0  0  0  0  0  0  0  0
   -5.2640    1.6160   -0.1110 C   0  0  0  0  0  0  0  0  0  0  0  0
   -4.7050    2.5470   -0.7700 O   0  0  0  0  0  0  0  0  0  0  0  0
   -4.9440    0.9880    1.1710 C   0  0  2  0  0  0  0  0  0  0  0  0
   -3.2830    0.3870    1.3830 S   0  0  0  0  0  0  0  0  0  0  0  0
   -2.0660    1.6700    1.6240 C   0  0  2  0  0  0  0  0  0  0  0  0
   -1.8170    2.5610    0.4590 C   0  0  0  0  0  0  0  0  0  0  0  0
   -1.5920    1.6560   -0.7310 C   0  0  0  0  0  0  0  0  0  0  0  0
   -0.4000    0.8190   -0.3960 C   0  0  0  0  0  0  0  0  0  0  0  0
    0.0040    0.4950    0.8200 C   0  0  0  0  0  0  0  0  0  0  0  0
    1.4280   -0.5130    1.1870 S   0  0  0  0  0  0  0  0  0  0  0  0
    1.9380   -1.6330   -0.0540 C   0  0  0  0  0  0  0  0  0  0  0  0
    1.1320   -2.0280   -1.0950 C   0  0  0  0  0  0  0  0  0  0  0  0
    1.5580   -2.8690   -2.1020 C   0  0  0  0  0  0  0  0  0  0  0  0
    0.6420   -3.2670   -3.2130 C   0  0  0  0  0  0  0  0  0  0  0  0
    2.8500   -3.3070   -2.0220 C   0  0  0  0  0  0  0  0  0  0  0  0
    3.3490   -4.1550   -2.9990 O   0  0  0  0  0  0  0  0  0  0  0  0
    3.9620   -3.5100   -4.1170 C   0  0  0  0  0  0  0  0  0  0  0  0
    3.7080   -2.9230   -0.9630 C   0  0  0  0  0  0  0  0  0  0  0  0
    4.9960   -3.4250   -0.9760 O   0  0  0  0  0  0  0  0  0  0  0  0
    3.2760   -2.0870    0.0340 C   0  0  0  0  0  0  0  0  0  0  0  0
    4.1120   -1.6550    1.1410 C   0  0  0  0  0  0  0  0  0  0  0  0
    3.5710   -0.8700    2.0030 O   0  0  0  0  0  0  0  0  0  0  0  0
    5.4040   -1.9720    1.3920 O   0  0  0  0  0  0  0  0  0  0  0  0
    6.2090   -1.5530    2.4670 C   0  0  0  0  0  0  0  0  0  0  0  0
    6.3060   -0.0440    2.4660 C   0  0  0  0  0  0  0  0  0  0  0  0
    6.8790    0.4680    1.2510 N   0  0  0  0  0  0  0  0  0  0  0  0
    6.9490    1.9070    1.2260 C   0  0  0  0  0  0  0  0  0  0  0  0
    5.5890    2.5750    1.1400 C   0  0  0  0  0  0  0  0  0  0  0  0
    5.8390    4.0800    1.1180 C   0  0  0  0  0  0  0  0  0  0  0  0
    6.4960    4.4360    2.2790 F   0  0  0  0  0  0  0  0  0  0  0  0
   -0.7150    1.0910    2.0210 C   0  0  0  0  0  0  0  0  0  0  0  0
   -5.9660   -0.0660    1.3630 C   0  0  0  0  0  0  0  0  0  0  0  0
   -6.1760   -0.9990    2.3720 C   0  0  0  0  0  0  0  0  0  0  0  0
   -7.2200   -1.8910    2.3520 C   0  0  0  0  0  0  0  0  0  0  0  0
   -8.0900   -1.8440    1.2710 C   0  0  0  0  0  0  0  0  0  0  0  0
   -7.9080   -0.9360    0.2640 C   0  0  0  0  0  0  0  0  0  0  0  0
   -6.8330   -0.0380    0.3120 C   0  0  0  0  0  0  0  0  0  0  0  0
  1  2  1  0
  2  3  1  0
  3  4  1  0
  3 40  1  0
  4  5  2  0
  4  6  1  0
  6  7  1  6
  6 35  1  0
  8  7  1  6
  8  9  1  0
  8 34  1  0
  9 10  1  0
 10 11  1  0
 11 12  2  0
 12 13  1  0
 12 34  1  0
 13 14  1  0
 14 15  2  0
 14 23  1  0
 15 16  1  0
 16 17  1  0
 16 18  2  0
 18 19  1  0
 18 21  1  0
 19 20  1  0
 21 22  1  0
 21 23  2  0
 23 24  1  0
 24 25  2  0
 24 26  1  0
 26 27  1  0
 27 28  1  0
 28 29  1  0
 29 30  1  0
 30 31  1  0
 31 32  1  0
 32 33  1  0
 35 36  2  0
 35 40  1  0
 36 37  1  0
 37 38  2  0
 38 39  1  0
 39 40  2  0
M  END
