
     RDKit          3D

 40 44  0  0  0  0  0  0  0  0999 V2000
   -9.4640    3.0590   -1.9800 C   0  0  0  0  0  0  0  0  0  0  0  0
   -8.4980    2.2050   -1.2360 C   0  0  0  0  0  0  0  0  0  0  0  0
   -7.5200    2.7270   -0.4290 C   0  0  0  0  0  0  0  0  0  0  0  0
   -6.6180    1.9010    0.2690 C   0  0  0  0  0  0  0  0  0  0  0  0
   -6.6700    0.5320    0.1790 C   0  0  0  0  0  0  0  0  0  0  0  0
   -5.8240   -0.3840    0.8420 N   0  0  0  0  0  0  0  0  0  0  0  0
   -4.8230   -0.1360    1.7720 C   0  0  0  0  0  0  0  0  0  0  0  0
   -4.6290    1.0840    2.1150 O   0  0  0  0  0  0  0  0  0  0  0  0
   -3.9450   -1.0780    2.4390 C   0  0  0  0  0  0  0  0  0  0  0  0
   -3.8990   -0.9510    3.8520 C   0  0  0  0  0  0  0  0  0  0  0  0
   -3.1820   -1.8350    4.6190 C   0  0  0  0  0  0  0  0  0  0  0  0
   -2.4920   -2.8640    4.0230 C   0  0  0  0  0  0  0  0  0  0  0  0
   -2.5450   -2.9710    2.6590 C   0  0  0  0  0  0  0  0  0  0  0  0
   -3.2670   -2.0850    1.8440 C   0  0  0  0  0  0  0  0  0  0  0  0
   -3.1830   -2.2170    0.3790 C   0  0  0  0  0  0  0  0  0  0  0  0
   -2.1450   -1.1930   -0.0460 C   0  0  0  0  0  0  0  0  0  0  0  0
   -0.7880   -1.4300   -0.1470 C   0  0  0  0  0  0  0  0  0  0  0  0
   -0.1740   -0.2660   -0.5590 C   0  0  0  0  0  0  0  0  0  0  0  0
    1.2510   -0.0530   -0.7950 C   0  0  0  0  0  0  0  0  0  0  0  0
    1.6980    1.0400   -1.1590 O   0  0  0  0  0  0  0  0  0  0  0  0
    2.1430   -1.1010   -0.6080 O   0  0  0  0  0  0  0  0  0  0  0  0
    3.5110   -0.9690   -0.8070 C   0  0  0  0  0  0  0  0  0  0  0  0
    4.3380   -0.6210    0.1540 C   0  0  0  0  0  0  0  0  0  0  0  0
    5.7590   -0.5570   -0.3420 C   0  0  2  0  0  0  0  0  0  0  0  0
    6.2630    0.7840   -0.1490 N   0  0  0  0  0  0  0  0  0  0  0  0
    7.6390    1.0720   -0.2360 C   0  0  0  0  0  0  0  0  0  0  0  0
    8.6060    0.0780   -0.3400 C   0  0  0  0  0  0  0  0  0  0  0  0
    9.9340    0.4450   -0.3940 C   0  0  0  0  0  0  0  0  0  0  0  0
   10.3120    1.7900   -0.3470 C   0  0  0  0  0  0  0  0  0  0  0  0
    9.3450    2.7560   -0.2440 C   0  0  0  0  0  0  0  0  0  0  0  0
    8.0240    2.4130   -0.1890 C   0  0  0  0  0  0  0  0  0  0  0  0
    7.0480    3.3750   -0.0860 F   0  0  0  0  0  0  0  0  0  0  0  0
    5.6830   -0.9080   -1.7390 N   0  0  0  0  0  0  0  0  0  0  0  0
    6.7700   -0.9910   -2.7050 C   0  0  0  0  0  0  0  0  0  0  0  0
    4.2950   -1.1620   -2.0120 C   0  0  0  0  0  0  0  0  0  0  0  0
    3.8670   -1.4990   -3.1380 O   0  0  0  0  0  0  0  0  0  0  0  0
   -1.1780    0.6160   -0.6870 N   0  0  0  0  0  0  0  0  0  0  0  0
   -2.3230    0.0540   -0.3830 O   0  0  0  0  0  0  0  0  0  0  0  0
   -7.6770    0.0310   -0.6500 C   0  0  0  0  0  0  0  0  0  0  0  0
   -8.5620    0.8350   -1.3360 C   0  0  0  0  0  0  0  0  0  0  0  0
  1  2  1  0
  2  3  2  0
  2 40  1  0
  3  4  1  0
  4  5  2  0
  5  6  1  0
  5 39  1  0
  6  7  1  0
  7  8  2  0
  7  9  1  0
  9 10  2  0
  9 14  1  0
 10 11  1  0
 11 12  2  0
 12 13  1  0
 13 14  2  0
 14 15  1  0
 15 16  1  0
 16 17  2  0
 16 38  1  0
 17 18  1  0
 18 19  1  0
 18 37  2  0
 19 20  2  0
 19 21  1  0
 21 22  1  0
 22 23  2  0
 22 35  1  0
 23 24  1  0
 24 25  1  6
 24 33  1  0
 25 26  1  0
 26 27  2  0
 26 31  1  0
 27 28  1  0
 28 29  2  0
 29 30  1  0
 30 31  2  0
 31 32  1  0
 33 34  1  0
 33 35  1  0
 35 36  2  0
 37 38  1  0
 39 40  2  0
M  END
