
     RDKit          3D

 40 43  0  0  0  0  0  0  0  0999 V2000
   -4.3580    1.8220    4.3390 C   0  0  0  0  0  0  0  0  0  0  0  0
   -3.5860    1.7410    3.1720 O   0  0  0  0  0  0  0  0  0  0  0  0
   -2.8190    0.6290    2.8280 C   0  0  0  0  0  0  0  0  0  0  0  0
   -2.8120   -0.3470    3.5900 O   0  0  0  0  0  0  0  0  0  0  0  0
   -2.0350    0.6230    1.5800 C   0  0  0  0  0  0  0  0  0  0  0  0
   -2.3920    0.2560    0.3210 C   0  0  0  0  0  0  0  0  0  0  0  0
   -3.6480   -0.3020   -0.2120 C   0  0  0  0  0  0  0  0  0  0  0  0
   -3.8440   -1.7580   -0.1940 C   0  0  2  0  0  0  0  0  0  0  0  0
   -2.7860   -2.5090   -0.9880 C   0  0  0  0  0  0  0  0  0  0  0  0
   -3.3120   -2.4400   -2.3860 C   0  0  0  0  0  0  0  0  0  0  0  0
   -4.7880   -2.5060   -2.1730 C   0  0  0  0  0  0  0  0  0  0  0  0
   -5.1160   -2.1290   -0.9530 C   0  0  0  0  0  0  0  0  0  0  0  0
   -6.2260   -1.9070   -0.0110 C   0  0  0  0  0  0  0  0  0  0  0  0
   -5.6350   -2.1290    1.3460 C   0  0  0  0  0  0  0  0  0  0  0  0
   -4.1500   -2.4310    1.1000 C   0  0  0  0  0  0  0  0  0  0  0  0
   -1.2670    0.4980   -0.4380 N   0  0  0  0  0  0  0  0  0  0  0  0
   -0.2610    0.9830    0.2810 C   0  0  0  0  0  0  0  0  0  0  0  0
    1.0900    1.3700   -0.0680 C   0  0  0  0  0  0  0  0  0  0  0  0
    1.8100    1.8410    0.9090 O   0  0  0  0  0  0  0  0  0  0  0  0
    1.7540    1.3190   -1.3060 N   0  0  0  0  0  0  0  0  0  0  0  0
    1.1640    0.8140   -2.4940 C   0  0  0  0  0  0  0  0  0  0  0  0
    0.3270    1.8360   -3.2590 C   0  0  0  0  0  0  0  0  0  0  0  0
    1.0300    2.9440   -3.6670 O   0  0  0  0  0  0  0  0  0  0  0  0
    3.1410    1.7630   -1.2980 C   0  0  0  0  0  0  0  0  0  0  0  0
    3.5840    2.2680   -0.2390 O   0  0  0  0  0  0  0  0  0  0  0  0
    4.0470    1.6560   -2.4260 C   0  0  1  0  0  0  0  0  0  0  0  0
    5.3020    2.4490   -2.4180 C   0  0  0  0  0  0  0  0  0  0  0  0
    6.5010    2.2540   -1.1580 S   0  0  0  0  0  0  0  0  0  0  0  0
    6.1380    3.0020    0.4260 C   0  0  0  0  0  0  0  0  0  0  0  0
    4.3670   -0.0830   -2.9180 S   0  0  0  0  0  0  0  0  0  0  0  0
    5.2070   -1.0670   -1.7270 C   0  0  0  0  0  0  0  0  0  0  0  0
    4.4360   -1.4170   -0.4990 C   0  0  0  0  0  0  0  0  0  0  0  0
    4.4600   -0.6950    0.6650 C   0  0  0  0  0  0  0  0  0  0  0  0
    3.7560   -1.0180    1.7880 C   0  0  0  0  0  0  0  0  0  0  0  0
    2.9450   -2.1570    1.7900 C   0  0  0  0  0  0  0  0  0  0  0  0
    2.9010   -2.9050    0.6320 C   0  0  0  0  0  0  0  0  0  0  0  0
    2.1080   -4.0060    0.6560 F   0  0  0  0  0  0  0  0  0  0  0  0
    3.6200   -2.5550   -0.4840 C   0  0  0  0  0  0  0  0  0  0  0  0
   -0.7220    1.0780    1.5960 C   0  0  0  0  0  0  0  0  0  0  0  0
    0.0140    1.5580    2.7840 C   0  0  0  0  0  0  0  0  0  0  0  0
  1  2  1  0
  2  3  1  0
  3  4  2  0
  3  5  1  0
  5  6  2  0
  5 39  1  0
  6  7  1  0
  6 16  1  0
  8  7  1  1
  8  9  1  0
  8 12  1  0
  8 15  1  0
  9 10  1  0
 10 11  1  0
 11 12  2  0
 12 13  1  0
 13 14  1  0
 14 15  1  0
 16 17  1  0
 17 18  1  0
 17 39  2  0
 18 19  2  0
 18 20  1  0
 20 21  1  0
 20 24  1  0
 21 22  1  0
 22 23  1  0
 24 25  2  0
 24 26  1  0
 26 27  1  1
 26 30  1  0
 27 28  1  0
 28 29  1  0
 30 31  1  0
 31 32  1  0
 32 33  2  0
 32 38  1  0
 33 34  1  0
 34 35  2  0
 35 36  1  0
 36 37  1  0
 36 38  2  0
 39 40  1  0
M  END
