
     RDKit          3D

 40 42  0  0  0  0  0  0  0  0999 V2000
   -4.9160    2.3220   -2.3290 C   0  0  0  0  0  0  0  0  0  0  0  0
   -5.1710    1.0960   -1.5590 C   0  0  0  0  0  0  0  0  0  0  0  0
   -5.5700   -0.0000   -2.1950 C   0  0  0  0  0  0  0  0  0  0  0  0
   -5.7540    0.0190   -3.6390 C   0  0  0  0  0  0  0  0  0  0  0  0
   -6.8410   -0.4470   -4.2710 C   0  0  0  0  0  0  0  0  0  0  0  0
   -8.0190   -1.0480   -3.6260 C   0  0  0  0  0  0  0  0  0  0  0  0
   -8.1400   -1.6550   -2.4310 C   0  0  0  0  0  0  0  0  0  0  0  0
   -7.0520   -1.8460   -1.4930 C   0  0  0  0  0  0  0  0  0  0  0  0
   -5.8850   -1.1600   -1.3320 C   0  0  0  0  0  0  0  0  0  0  0  0
   -5.0810   -1.4910   -0.2160 C   0  0  0  0  0  0  0  0  0  0  0  0
   -3.9080   -1.2500    0.2810 C   0  0  0  0  0  0  0  0  0  0  0  0
   -3.6650   -2.1020    1.8990 S   0  0  0  0  0  0  0  0  0  0  0  0
   -2.4840   -1.3560    2.9570 C   0  0  2  0  0  0  0  0  0  0  0  0
   -2.4560   -2.1870    4.2060 N   0  0  0  0  0  0  0  0  0  0  0  0
   -3.0430    0.0190    3.3920 C   0  0  0  0  0  0  0  0  0  0  0  0
   -4.3450   -0.2440    4.1170 C   0  0  0  0  0  0  0  0  0  0  0  0
   -2.8250   -0.6070   -0.3510 C   0  0  0  0  0  0  0  0  0  0  0  0
   -2.9240   -0.2250   -1.5750 O   0  0  0  0  0  0  0  0  0  0  0  0
   -1.5280   -0.2780    0.1630 N   0  0  0  0  0  0  0  0  0  0  0  0
   -1.0100    0.9550    0.6900 C   0  0  0  0  0  0  0  0  0  0  0  0
    0.3900    0.9560    0.0530 C   0  0  0  0  0  0  0  0  0  0  0  0
    0.7510   -0.4780    0.1590 C   0  0  0  0  0  0  0  0  0  0  0  0
    1.9690   -1.1220    0.2030 C   0  0  0  0  0  0  0  0  0  0  0  0
    3.1090   -0.3320    0.1440 O   0  0  0  0  0  0  0  0  0  0  0  0
    3.8110   -0.1670   -1.0470 C   0  0  0  0  0  0  0  0  0  0  0  0
    3.3670   -0.7710   -2.0570 O   0  0  0  0  0  0  0  0  0  0  0  0
    5.0330    0.6730   -1.1580 C   0  0  0  0  0  0  0  0  0  0  0  0
    6.2780   -0.0720   -0.8300 C   0  0  0  0  0  0  0  0  0  0  0  0
    7.8000    0.8380   -0.9540 S   0  0  0  0  0  0  0  0  0  0  0  0
    7.9060    2.1440    0.2640 C   0  0  2  0  0  0  0  0  0  0  0  0
    6.9340    3.2490    0.0100 C   0  0  0  0  0  0  0  0  0  0  0  0
    9.2970    2.7000    0.3720 C   0  0  0  0  0  0  0  0  0  0  0  0
    9.5500    3.9130    0.1190 O   0  0  0  0  0  0  0  0  0  0  0  0
   10.3660    1.9070    0.7560 O   0  0  0  0  0  0  0  0  0  0  0  0
   11.6870    2.4570    0.8540 C   0  0  0  0  0  0  0  0  0  0  0  0
    1.9890   -2.4970    0.3000 C   0  0  0  0  0  0  0  0  0  0  0  0
    0.8120   -3.2510    0.3550 C   0  0  0  0  0  0  0  0  0  0  0  0
    0.8190   -4.5880    0.4490 F   0  0  0  0  0  0  0  0  0  0  0  0
   -0.4060   -2.5960    0.3110 C   0  0  0  0  0  0  0  0  0  0  0  0
   -0.4360   -1.2250    0.2140 C   0  0  0  0  0  0  0  0  0  0  0  0
  1  2  1  0
  2  3  2  3
  3  4  1  0
  3  9  1  0
  4  5  2  0
  5  6  1  0
  6  7  2  0
  7  8  1  0
  8  9  2  0
  9 10  1  0
 10 11  2  3
 11 12  1  0
 11 17  1  0
 12 13  1  0
 13 14  1  1
 13 15  1  0
 15 16  1  0
 17 18  2  0
 17 19  1  0
 19 20  1  0
 19 40  1  0
 20 21  1  0
 21 22  1  0
 22 23  2  0
 22 40  1  0
 23 24  1  0
 23 36  1  0
 24 25  1  0
 25 26  2  0
 25 27  1  0
 27 28  1  0
 28 29  1  0
 29 30  1  0
 30 31  1  6
 30 32  1  0
 32 33  2  0
 32 34  1  0
 34 35  1  0
 36 37  2  0
 37 38  1  0
 37 39  1  0
 39 40  2  0
M  END
