
     RDKit          3D

 40 43  0  0  0  0  0  0  0  0999 V2000
   -8.3200   -3.2170   -0.2600 C   0  0  0  0  0  0  0  0  0  0  0  0
   -6.8470   -3.5660   -0.4110 C   0  0  2  0  0  0  0  0  0  0  0  0
   -6.0620   -2.7460    0.5280 C   0  0  0  0  0  0  0  0  0  0  0  0
   -5.3370   -1.5590    0.0480 C   0  0  0  0  0  0  0  0  0  0  0  0
   -6.0830   -0.9360   -1.1430 C   0  0  0  0  0  0  0  0  0  0  0  0
   -6.5760   -1.8780   -2.0570 C   0  0  0  0  0  0  0  0  0  0  0  0
   -7.3320   -0.8910   -3.2540 S   0  0  0  0  0  0  0  0  0  0  0  0
   -6.9680    0.6780   -2.5040 C   0  0  0  0  0  0  0  0  0  0  0  0
   -7.2830    1.8170   -2.9400 O   0  0  0  0  0  0  0  0  0  0  0  0
   -6.2910    0.3170   -1.3890 N   0  0  0  0  0  0  0  0  0  0  0  0
   -5.8270    1.4290   -0.4980 C   0  0  0  0  0  0  0  0  0  0  0  0
   -4.4700    1.9030   -0.8900 C   0  0  0  0  0  0  0  0  0  0  0  0
   -4.0540    2.9940    0.0170 C   0  0  0  0  0  0  0  0  0  0  0  0
   -4.8100    3.3110    0.9650 O   0  0  0  0  0  0  0  0  0  0  0  0
   -2.8330    3.6910   -0.1500 N   0  0  0  0  0  0  0  0  0  0  0  0
   -2.4190    4.7630    0.7400 C   0  0  0  0  0  0  0  0  0  0  0  0
   -1.0890    5.3170    0.3030 C   0  0  2  0  0  0  0  0  0  0  0  0
   -1.2190    5.8240   -0.9980 O   0  0  0  0  0  0  0  0  0  0  0  0
    0.0090    4.3280    0.3380 C   0  0  0  0  0  0  0  0  0  0  0  0
    1.2370    4.5840   -0.2150 C   0  0  0  0  0  0  0  0  0  0  0  0
    2.2650    3.6390   -0.1790 C   0  0  0  0  0  0  0  0  0  0  0  0
    2.1100    2.4000    0.4090 C   0  0  0  0  0  0  0  0  0  0  0  0
    3.1460    1.3930    0.4990 C   0  0  0  0  0  0  0  0  0  0  0  0
    4.3700    1.6190    0.0800 C   0  0  0  0  0  0  0  0  0  0  0  0
    5.3980    0.5550    0.1920 C   0  0  0  0  0  0  0  0  0  0  0  0
    6.5710    0.7810   -0.1900 O   0  0  0  0  0  0  0  0  0  0  0  0
    5.1080   -0.6950    0.7070 O   0  0  0  0  0  0  0  0  0  0  0  0
    6.1230   -1.6400    0.7870 C   0  0  0  0  0  0  0  0  0  0  0  0
    6.6770   -2.1670   -0.3500 C   0  0  0  0  0  0  0  0  0  0  0  0
    7.6740   -3.0980   -0.2760 C   0  0  0  0  0  0  0  0  0  0  0  0
    8.1440   -3.5250    0.9450 C   0  0  0  0  0  0  0  0  0  0  0  0
    9.2310   -4.5350    0.9820 C   0  0  0  0  0  0  0  0  0  0  0  0
   10.5550   -3.8010    1.0460 C   0  0  0  0  0  0  0  0  0  0  0  0
   10.7990   -2.7280   -0.3760 S   0  0  0  0  0  0  0  0  0  0  0  0
    7.5930   -2.9990    2.0960 C   0  0  0  0  0  0  0  0  0  0  0  0
    6.5920   -2.0650    2.0350 C   0  0  0  0  0  0  0  0  0  0  0  0
    6.0340   -1.5330    3.1570 F   0  0  0  0  0  0  0  0  0  0  0  0
    0.8490    2.1510    0.9710 C   0  0  0  0  0  0  0  0  0  0  0  0
   -0.1490    3.0900    0.9270 C   0  0  0  0  0  0  0  0  0  0  0  0
   -6.3750   -3.3220   -1.8240 C   0  0  0  0  0  0  0  0  0  0  0  0
  2  1  1  6
  2  3  1  0
  2 40  1  0
  3  4  1  0
  4  5  1  0
  5  6  2  0
  5 10  1  0
  6  7  1  0
  6 40  1  0
  7  8  1  0
  8  9  2  0
  8 10  1  0
 10 11  1  0
 11 12  1  0
 12 13  1  0
 13 14  2  0
 13 15  1  0
 15 16  1  0
 16 17  1  0
 17 18  1  6
 17 19  1  0
 19 20  2  0
 19 39  1  0
 20 21  1  0
 21 22  2  0
 22 23  1  0
 22 38  1  0
 23 24  2  3
 24 25  1  0
 25 26  2  0
 25 27  1  0
 27 28  1  0
 28 29  2  0
 28 36  1  0
 29 30  1  0
 30 31  2  0
 31 32  1  0
 31 35  1  0
 32 33  1  0
 33 34  1  0
 35 36  2  0
 36 37  1  0
 38 39  2  0
M  END
