
     RDKit          3D

 40 44  0  0  0  0  0  0  0  0999 V2000
    9.0850   -1.6700   -0.7800 C   0  0  0  0  0  0  0  0  0  0  0  0
    8.0290   -0.6770   -1.1190 C   0  0  0  0  0  0  0  0  0  0  0  0
    7.8570   -0.2840   -2.2900 O   0  0  0  0  0  0  0  0  0  0  0  0
    7.1840   -0.1560   -0.0660 C   0  0  0  0  0  0  0  0  0  0  0  0
    6.2080    0.7590   -0.3530 C   0  0  0  0  0  0  0  0  0  0  0  0
    5.4230    1.2320    0.6670 C   0  0  0  0  0  0  0  0  0  0  0  0
    5.5710    0.8280    1.9720 C   0  0  0  0  0  0  0  0  0  0  0  0
    4.7990    1.2810    3.0340 O   0  0  0  0  0  0  0  0  0  0  0  0
    3.7640    2.2000    2.9130 C   0  0  0  0  0  0  0  0  0  0  0  0
    2.6890    1.6630    2.0510 C   0  0  0  0  0  0  0  0  0  0  0  0
    1.7160    2.4080    1.6710 O   0  0  0  0  0  0  0  0  0  0  0  0
    2.6500    0.3240    1.5940 N   0  0  0  0  0  0  0  0  0  0  0  0
    1.6060   -0.1160    0.7740 N   0  0  0  0  0  0  0  0  0  0  0  0
    1.7120   -1.0380   -0.3070 C   0  0  0  0  0  0  0  0  0  0  0  0
    2.7840   -1.6070   -0.6910 O   0  0  0  0  0  0  0  0  0  0  0  0
    0.4050   -1.2080   -0.8810 N   0  0  0  0  0  0  0  0  0  0  0  0
   -0.3980   -0.0550   -0.4850 C   0  0  1  0  0  0  0  0  0  0  0  0
   -0.1010    1.1670   -1.3510 C   0  0  0  0  0  0  0  0  0  0  0  0
   -1.8170   -0.3980   -0.4470 C   0  0  0  0  0  0  0  0  0  0  0  0
   -2.5720   -0.4280    0.6980 C   0  0  0  0  0  0  0  0  0  0  0  0
   -3.9070   -0.8390    0.6990 C   0  0  0  0  0  0  0  0  0  0  0  0
   -4.5730   -1.2390   -0.4140 C   0  0  0  0  0  0  0  0  0  0  0  0
   -5.9690   -1.5590   -0.4820 C   0  0  0  0  0  0  0  0  0  0  0  0
   -6.9930   -1.1120    0.1410 C   0  0  0  0  0  0  0  0  0  0  0  0
   -7.0890   -0.0820    1.1550 C   0  0  0  0  0  0  0  0  0  0  0  0
   -8.2630    0.2560    1.7420 C   0  0  0  0  0  0  0  0  0  0  0  0
   -8.0000    1.3320    2.7100 C   0  0  0  0  0  0  0  0  0  0  0  0
   -6.5630    1.5800    2.5830 C   0  0  0  0  0  0  0  0  0  0  0  0
   -5.8020    2.4990    3.2500 F   0  0  0  0  0  0  0  0  0  0  0  0
   -6.1030    0.7720    1.7150 N   0  0  0  0  0  0  0  0  0  0  0  0
   -3.8210   -1.2190   -1.6030 C   0  0  0  0  0  0  0  0  0  0  0  0
   -2.4970   -0.8070   -1.6030 C   0  0  0  0  0  0  0  0  0  0  0  0
   -1.8230   -0.6040   -2.9050 C   0  0  0  0  0  0  0  0  0  0  0  0
   -2.3310   -1.5360   -3.9620 C   0  0  0  0  0  0  0  0  0  0  0  0
   -3.7280   -1.9120   -3.8900 C   0  0  0  0  0  0  0  0  0  0  0  0
   -4.4430   -1.7780   -2.7980 C   0  0  0  0  0  0  0  0  0  0  0  0
    0.2040    0.2480    0.8140 C   0  0  0  0  0  0  0  0  0  0  0  0
   -0.2920    0.7290    1.8270 O   0  0  0  0  0  0  0  0  0  0  0  0
    6.5540   -0.0930    2.2590 C   0  0  0  0  0  0  0  0  0  0  0  0
    7.3600   -0.5880    1.2560 C   0  0  0  0  0  0  0  0  0  0  0  0
  1  2  1  0
  2  3  2  0
  2  4  1  0
  4  5  2  0
  4 40  1  0
  5  6  1  0
  6  7  2  0
  7  8  1  0
  7 39  1  0
  8  9  1  0
  9 10  1  0
 10 11  2  0
 10 12  1  0
 12 13  1  0
 13 14  1  0
 13 37  1  0
 14 15  2  0
 14 16  1  0
 16 17  1  0
 17 18  1  6
 17 19  1  0
 17 37  1  0
 19 20  2  0
 19 32  1  0
 20 21  1  0
 21 22  2  0
 22 23  1  0
 22 31  1  0
 23 24  2  3
 24 25  1  0
 25 26  2  0
 25 30  1  0
 26 27  1  0
 27 28  1  0
 28 29  1  0
 28 30  2  0
 31 32  2  0
 31 36  1  0
 32 33  1  0
 33 34  1  0
 34 35  1  0
 35 36  2  0
 37 38  2  0
 39 40  2  0
M  END
