
     RDKit          3D

 44 48  0  0  0  0  0  0  0  0999 V2000
   -0.1260    5.7980    2.9030 C   0  0  0  0  0  0  0  0  0  0  0  0
   -1.1570    5.7280    1.8640 N   0  0  0  0  0  0  0  0  0  0  0  0
   -0.9230    4.9110    0.7300 C   0  0  0  0  0  0  0  0  0  0  0  0
    0.1660    4.2850    0.6740 O   0  0  0  0  0  0  0  0  0  0  0  0
   -1.9320    4.8300   -0.3080 C   0  0  0  0  0  0  0  0  0  0  0  0
   -3.1350    5.4920   -0.2970 C   0  0  0  0  0  0  0  0  0  0  0  0
   -4.0590    5.3630   -1.3400 C   0  0  0  0  0  0  0  0  0  0  0  0
   -3.7370    4.5540   -2.3800 C   0  0  0  0  0  0  0  0  0  0  0  0
   -2.5450    3.8590   -2.4540 C   0  0  0  0  0  0  0  0  0  0  0  0
   -2.2440    2.9800   -3.6290 C   0  0  0  0  0  0  0  0  0  0  0  0
   -1.6690    4.0140   -1.4130 C   0  0  0  0  0  0  0  0  0  0  0  0
   -0.4210    3.3120   -1.4420 N   0  0  0  0  0  0  0  0  0  0  0  0
   -0.3040    2.0150   -0.8830 C   0  0  0  0  0  0  0  0  0  0  0  0
    0.8750    1.3700   -0.9160 N   0  0  0  0  0  0  0  0  0  0  0  0
    1.0330    0.1420   -0.3990 C   0  0  0  0  0  0  0  0  0  0  0  0
    2.2970   -0.4930   -0.4530 N   0  0  0  0  0  0  0  0  0  0  0  0
    2.4160   -1.8060    0.1220 C   0  0  0  0  0  0  0  0  0  0  0  0
    3.7960   -2.1920    0.5580 C   0  0  0  0  0  0  0  0  0  0  0  0
    4.8400   -1.3420    0.0030 N   0  0  0  0  0  0  0  0  0  0  0  0
    6.0580   -1.9730   -0.3390 C   0  0  0  0  0  0  0  0  0  0  0  0
    6.4460   -3.1330    0.3630 C   0  0  0  0  0  0  0  0  0  0  0  0
    7.6130   -3.7910    0.1340 C   0  0  0  0  0  0  0  0  0  0  0  0
    8.4830   -3.3310   -0.8220 C   0  0  0  0  0  0  0  0  0  0  0  0
    8.1190   -2.2050   -1.5120 C   0  0  0  0  0  0  0  0  0  0  0  0
    6.9250   -1.5140   -1.2930 C   0  0  0  0  0  0  0  0  0  0  0  0
    6.5860   -0.1100   -2.2890 Cl  0  0  0  0  0  0  0  0  0  0  0  0
    4.6020    0.0440   -0.1210 C   0  0  0  0  0  0  0  0  0  0  0  0
    3.4150    0.1990   -1.0780 C   0  0  0  0  0  0  0  0  0  0  0  0
   -0.0390   -0.4340    0.1620 N   0  0  0  0  0  0  0  0  0  0  0  0
   -1.2430    0.1620    0.2230 C   0  0  0  0  0  0  0  0  0  0  0  0
   -2.3010   -0.5590    0.8460 N   0  0  0  0  0  0  0  0  0  0  0  0
   -3.6480   -0.0050    0.9720 C   0  0  0  0  0  0  0  0  0  0  0  0
   -4.0530   -0.5630    2.6760 S   0  0  0  0  0  0  0  0  0  0  0  0
   -2.7110   -1.8050    2.8480 C   0  0  0  0  0  0  0  0  0  0  0  0
   -2.2290   -1.8650    1.4160 C   0  0  1  0  0  0  0  0  0  0  0  0
   -2.9410   -2.8910    0.6160 C   0  0  0  0  0  0  0  0  0  0  0  0
   -3.5300   -2.5190   -0.4220 O   0  0  0  0  0  0  0  0  0  0  0  0
   -2.9700   -4.2510    0.9880 N   0  0  0  0  0  0  0  0  0  0  0  0
   -3.6520   -5.2880    0.2540 C   0  0  0  0  0  0  0  0  0  0  0  0
   -5.1040   -5.1260    0.1670 C   0  0  0  0  0  0  0  0  0  0  0  0
   -5.7530   -5.9770   -0.4920 O   0  0  0  0  0  0  0  0  0  0  0  0
   -5.8440   -4.0860    0.7680 N   0  0  0  0  0  0  0  0  0  0  0  0
   -7.2060   -4.0020    0.6350 O   0  0  0  0  0  0  0  0  0  0  0  0
   -1.3410    1.3740   -0.3030 N   0  0  0  0  0  0  0  0  0  0  0  0
  1  2  1  0
  2  3  1  0
  3  4  2  0
  3  5  1  0
  5  6  2  0
  5 11  1  0
  6  7  1  0
  7  8  2  0
  8  9  1  0
  9 10  1  0
  9 11  2  0
 11 12  1  0
 12 13  1  0
 13 14  2  0
 13 44  1  0
 14 15  1  0
 15 16  1  0
 15 29  2  0
 16 17  1  0
 16 28  1  0
 17 18  1  0
 18 19  1  0
 19 20  1  0
 19 27  1  0
 20 21  2  0
 20 25  1  0
 21 22  1  0
 22 23  2  0
 23 24  1  0
 24 25  2  0
 25 26  1  0
 27 28  1  0
 29 30  1  0
 30 31  1  0
 30 44  2  0
 31 32  1  0
 31 35  1  0
 32 33  1  0
 33 34  1  0
 34 35  1  0
 35 36  1  6
 36 37  2  0
 36 38  1  0
 38 39  1  0
 39 40  1  0
 40 41  2  0
 40 42  1  0
 42 43  1  0
M  END
