
     RDKit          3D

 44 47  0  0  0  0  0  0  0  0999 V2000
   -1.5690    5.7110   -0.2430 C   0  0  0  0  0  0  0  0  0  0  0  0
   -1.7500    4.7990    0.7690 C   0  0  0  0  0  0  0  0  0  0  0  0
   -1.5570    3.4870    0.5910 C   0  0  0  0  0  0  0  0  0  0  0  0
   -1.7430    2.6110    1.5950 C   0  0  0  0  0  0  0  0  0  0  0  0
   -1.6180    1.1760    1.6870 C   0  0  0  0  0  0  0  0  0  0  0  0
   -1.8790    0.6260    2.8090 O   0  0  0  0  0  0  0  0  0  0  0  0
   -1.2280    0.4110    0.5910 N   0  0  0  0  0  0  0  0  0  0  0  0
   -1.1210   -1.0570    0.7230 C   0  0  2  0  0  0  0  0  0  0  0  0
    0.2790   -1.4610    0.5800 C   0  0  0  0  0  0  0  0  0  0  0  0
    1.1230   -0.5500    0.2490 O   0  0  0  0  0  0  0  0  0  0  0  0
    0.8360   -2.7420    0.7650 N   0  0  0  0  0  0  0  0  0  0  0  0
    2.2550   -2.9550    0.6030 C   0  0  0  0  0  0  0  0  0  0  0  0
    3.0870   -1.9460    0.2980 N   0  0  0  0  0  0  0  0  0  0  0  0
    4.4070   -2.1150    0.1590 N   0  0  0  0  0  0  0  0  0  0  0  0
    5.2460   -0.9950   -0.1610 C   0  0  0  0  0  0  0  0  0  0  0  0
    6.2620   -0.6200    0.6830 C   0  0  0  0  0  0  0  0  0  0  0  0
    7.0410    0.4640    0.3530 C   0  0  0  0  0  0  0  0  0  0  0  0
    6.8790    1.2150   -0.7780 C   0  0  0  0  0  0  0  0  0  0  0  0
    7.6470    2.3380   -1.1430 N   0  0  0  0  0  0  0  0  0  0  0  0
    8.6360    2.9660   -0.3810 C   0  0  0  0  0  0  0  0  0  0  0  0
    9.3830    4.1790   -0.9230 C   0  0  0  0  0  0  0  0  0  0  0  0
    8.9190    2.5380    0.7550 O   0  0  0  0  0  0  0  0  0  0  0  0
    5.8320    0.8120   -1.6320 C   0  0  0  0  0  0  0  0  0  0  0  0
    5.0500   -0.2670   -1.3100 C   0  0  0  0  0  0  0  0  0  0  0  0
    4.8990   -3.3520    0.3340 C   0  0  0  0  0  0  0  0  0  0  0  0
    6.3690   -3.5990    0.1910 C   0  0  0  0  0  0  0  0  0  0  0  0
    4.1170   -4.4500    0.6500 C   0  0  0  0  0  0  0  0  0  0  0  0
    2.7430   -4.2270    0.7860 C   0  0  0  0  0  0  0  0  0  0  0  0
    1.9350   -5.1450    1.0700 O   0  0  0  0  0  0  0  0  0  0  0  0
   -2.0700   -1.6530   -0.3090 C   0  0  1  0  0  0  0  0  0  0  0  0
   -2.0530   -3.1220   -0.2370 C   0  0  0  0  0  0  0  0  0  0  0  0
   -3.2880   -3.6240   -0.9920 C   0  0  0  0  0  0  0  0  0  0  0  0
   -4.3670   -3.2030   -0.2420 O   0  0  0  0  0  0  0  0  0  0  0  0
   -4.6110   -1.8400   -0.3420 C   0  0  2  0  0  0  0  0  0  0  0  0
   -5.5390   -1.4830    0.8230 C   0  0  0  0  0  0  0  0  0  0  0  0
   -5.2590   -1.4390   -1.6090 C   0  0  0  0  0  0  0  0  0  0  0  0
   -6.5610   -1.9780   -1.9890 C   0  0  1  0  0  0  0  0  0  0  0  0
   -7.7430   -1.7630   -1.1450 C   0  0  0  0  0  0  0  0  0  0  0  0
   -6.8470   -1.4800   -3.4200 C   0  0  0  0  0  0  0  0  0  0  0  0
   -3.3870   -0.9820   -0.1550 C   0  0  0  0  0  0  0  0  0  0  0  0
   -2.2370    3.6910    2.9500 S   0  0  0  0  0  0  0  0  0  0  0  0
   -2.1380    5.2690    1.9780 C   0  0  0  0  0  0  0  0  0  0  0  0
   -2.4110    6.4360    2.4930 C   0  0  0  0  0  0  0  0  0  0  0  0
   -2.8190    6.5310    3.9260 C   0  0  0  0  0  0  0  0  0  0  0  0
  1  2  2  0
  2  3  1  0
  2 42  1  0
  3  4  2  0
  4  5  1  0
  4 41  1  0
  5  6  2  0
  5  7  1  0
  8  7  1  6
  8  9  1  0
  8 30  1  0
  9 10  2  0
  9 11  1  0
 11 12  1  0
 12 13  2  0
 12 28  1  0
 13 14  1  0
 14 15  1  0
 14 25  1  0
 15 16  2  0
 15 24  1  0
 16 17  1  0
 17 18  2  0
 18 19  1  0
 18 23  1  0
 19 20  1  0
 20 21  1  0
 20 22  2  0
 23 24  2  0
 25 26  1  0
 25 27  2  0
 27 28  1  0
 28 29  2  0
 30 31  1  1
 30 40  1  0
 31 32  1  0
 32 33  1  0
 33 34  1  0
 34 35  1  1
 34 36  1  0
 34 40  1  0
 36 37  1  0
 37 38  1  1
 37 39  1  0
 41 42  1  0
 42 43  2  3
 43 44  1  0
M  END
