
     RDKit          3D

 44 47  0  0  0  0  0  0  0  0999 V2000
   -7.1900    4.9000    1.7000 C   0  0  0  0  0  0  0  0  0  0  0  0
   -6.2120    5.2450    0.8790 C   0  0  0  0  0  0  0  0  0  0  0  0
   -5.3170    4.2460    0.3060 C   0  0  0  0  0  0  0  0  0  0  0  0
   -4.3560    4.6650   -0.5080 C   0  0  0  0  0  0  0  0  0  0  0  0
   -4.1800    6.1010   -0.8410 C   0  0  0  0  0  0  0  0  0  0  0  0
   -5.4760    2.8570    0.6130 N   0  0  0  0  0  0  0  0  0  0  0  0
   -4.3250    2.0800    0.8400 C   0  0  0  0  0  0  0  0  0  0  0  0
   -4.0770    1.0950   -0.0520 C   0  0  0  0  0  0  0  0  0  0  0  0
   -4.9850    0.8870   -1.1780 C   0  0  0  0  0  0  0  0  0  0  0  0
   -5.5080    1.8710   -1.7530 O   0  0  0  0  0  0  0  0  0  0  0  0
   -5.2300   -0.4880   -1.5630 N   0  0  0  0  0  0  0  0  0  0  0  0
   -4.5300   -1.4670   -0.8170 C   0  0  0  0  0  0  0  0  0  0  0  0
   -3.6410   -1.2070    0.1560 C   0  0  0  0  0  0  0  0  0  0  0  0
   -2.9340   -2.1420    0.9830 C   0  0  0  0  0  0  0  0  0  0  0  0
   -2.6250   -1.7870    2.1650 O   0  0  0  0  0  0  0  0  0  0  0  0
   -2.5010   -3.4600    0.7020 O   0  0  0  0  0  0  0  0  0  0  0  0
   -3.0690   -4.2750   -0.3050 C   0  0  0  0  0  0  0  0  0  0  0  0
   -2.3880   -5.3270   -0.6640 C   0  0  0  0  0  0  0  0  0  0  0  0
   -4.3360   -4.0730   -0.9930 C   0  0  0  0  0  0  0  0  0  0  0  0
   -5.0100   -5.1440   -1.3860 C   0  0  0  0  0  0  0  0  0  0  0  0
   -6.3050   -5.0020   -2.0920 C   0  0  0  0  0  0  0  0  0  0  0  0
   -4.9100   -2.7930   -1.2650 N   0  0  0  0  0  0  0  0  0  0  0  0
   -3.0090    0.1500    0.1480 C   0  0  2  0  0  0  0  0  0  0  0  0
   -1.9860    0.4550    1.1520 C   0  0  0  0  0  0  0  0  0  0  0  0
   -0.7110   -0.1960    1.0860 C   0  0  0  0  0  0  0  0  0  0  0  0
   -0.6730   -1.1090    0.1240 O   0  0  0  0  0  0  0  0  0  0  0  0
    0.5530   -0.1410    1.7670 C   0  0  2  0  0  0  0  0  0  0  0  0
    1.2210    1.1910    1.5540 C   0  0  0  0  0  0  0  0  0  0  0  0
    2.5630    0.9550    0.9640 C   0  0  0  0  0  0  0  0  0  0  0  0
    3.2470    1.8610    0.4540 O   0  0  0  0  0  0  0  0  0  0  0  0
    2.8410   -0.4260    1.1160 N   0  0  0  0  0  0  0  0  0  0  0  0
    4.1520   -1.0220    1.2700 C   0  0  0  0  0  0  0  0  0  0  0  0
    4.8150   -1.4480    0.0150 C   0  0  0  0  0  0  0  0  0  0  0  0
    5.0670   -0.3650   -0.9930 C   0  0  0  0  0  0  0  0  0  0  0  0
    5.8910   -1.0050   -2.4730 S   0  0  0  0  0  0  0  0  0  0  0  0
    7.5440   -1.6060   -2.2000 C   0  0  0  0  0  0  0  0  0  0  0  0
    8.5670   -0.5770   -1.8580 C   0  0  2  0  0  0  0  0  0  0  0  0
    9.8970   -1.3330   -1.6800 C   0  0  0  0  0  0  0  0  0  0  0  0
    8.3040    0.1760   -0.5800 C   0  0  0  0  0  0  0  0  0  0  0  0
    8.7160    0.4470   -2.9710 C   0  0  0  0  0  0  0  0  0  0  0  0
    1.5770   -1.0880    1.0700 C   0  0  0  0  0  0  0  0  0  0  0  0
   -2.2660    1.4160    2.0090 C   0  0  0  0  0  0  0  0  0  0  0  0
   -1.3340    1.7940    3.0640 C   0  0  0  0  0  0  0  0  0  0  0  0
   -3.4430    2.2670    1.8880 N   0  0  0  0  0  0  0  0  0  0  0  0
  1  2  2  0
  2  3  1  0
  3  4  2  3
  3  6  1  0
  4  5  1  0
  6  7  1  0
  7  8  2  0
  7 44  1  0
  8  9  1  0
  8 23  1  0
  9 10  2  0
  9 11  1  0
 11 12  1  0
 12 13  2  0
 12 22  1  0
 13 14  1  0
 13 23  1  0
 14 15  2  0
 14 16  1  0
 16 17  1  0
 17 18  2  0
 17 19  1  0
 19 20  2  3
 19 22  1  0
 20 21  1  0
 23 24  1  1
 24 25  1  0
 24 42  2  0
 25 26  2  0
 27 25  1  6
 27 28  1  0
 27 41  1  0
 28 29  1  0
 29 30  2  0
 29 31  1  0
 31 32  1  0
 31 41  1  0
 32 33  1  0
 33 34  1  0
 34 35  1  0
 35 36  1  0
 36 37  1  0
 37 38  1  1
 37 39  1  0
 37 40  1  0
 42 43  1  0
 42 44  1  0
M  END
