
     RDKit          3D

 44 47  0  0  0  0  0  0  0  0999 V2000
    9.2910   -4.5230    1.0320 C   0  0  0  0  0  0  0  0  0  0  0  0
    8.8240   -3.0920    1.0990 C   0  0  0  0  0  0  0  0  0  0  0  0
    9.5510   -2.1200    1.7390 C   0  0  0  0  0  0  0  0  0  0  0  0
    9.1280   -0.8110    1.7950 C   0  0  0  0  0  0  0  0  0  0  0  0
    7.9540   -0.4170    1.2120 C   0  0  0  0  0  0  0  0  0  0  0  0
    7.4880    0.8670    1.2320 O   0  0  0  0  0  0  0  0  0  0  0  0
    6.7680    1.4850    2.2380 C   0  0  0  0  0  0  0  0  0  0  0  0
    6.5000    0.8290    3.2480 O   0  0  0  0  0  0  0  0  0  0  0  0
    6.3360    2.8580    2.1280 C   0  0  0  0  0  0  0  0  0  0  0  0
    5.6650    3.7200    2.9190 C   0  0  0  0  0  0  0  0  0  0  0  0
    5.4040    4.9620    2.5310 C   0  0  0  0  0  0  0  0  0  0  0  0
    5.8070    5.4360    1.2980 C   0  0  0  0  0  0  0  0  0  0  0  0
    6.6520    3.9120    0.6410 S   0  0  0  0  0  0  0  0  0  0  0  0
    7.1910   -1.3930    0.5500 C   0  0  0  0  0  0  0  0  0  0  0  0
    5.9760   -0.9560   -0.0200 N   0  0  0  0  0  0  0  0  0  0  0  0
    5.1760   -1.7530   -0.8480 C   0  0  0  0  0  0  0  0  0  0  0  0
    5.4440   -2.9260   -1.1820 O   0  0  0  0  0  0  0  0  0  0  0  0
    3.9010   -1.1090   -1.3570 C   0  0  0  0  0  0  0  0  0  0  0  0
    3.2540   -2.0230   -2.3480 C   0  0  0  0  0  0  0  0  0  0  0  0
    2.0940   -1.4760   -2.8460 O   0  0  0  0  0  0  0  0  0  0  0  0
    1.1690   -1.2960   -1.8640 C   0  0  0  0  0  0  0  0  0  0  0  0
   -0.1110   -0.7240   -2.4140 C   0  0  0  0  0  0  0  0  0  0  0  0
   -0.1230   -0.4490   -3.6390 O   0  0  0  0  0  0  0  0  0  0  0  0
   -1.2110   -0.5280   -1.5570 N   0  0  0  0  0  0  0  0  0  0  0  0
   -2.4430    0.0240   -2.0570 C   0  0  0  0  0  0  0  0  0  0  0  0
   -3.4870   -1.0590   -1.8890 C   0  0  2  0  0  0  0  0  0  0  0  0
   -4.7190   -0.5920   -1.2880 N   0  0  0  0  0  0  0  0  0  0  0  0
   -5.9710   -0.6620   -1.9840 C   0  0  0  0  0  0  0  0  0  0  0  0
   -5.9780   -1.1310   -3.1140 O   0  0  0  0  0  0  0  0  0  0  0  0
   -7.2350   -0.1850   -1.3750 C   0  0  0  0  0  0  0  0  0  0  0  0
   -8.3780   -0.2560   -2.0220 C   0  0  0  0  0  0  0  0  0  0  0  0
   -9.4660    0.2860   -1.1850 C   0  0  0  0  0  0  0  0  0  0  0  0
   -8.6960    0.8430    0.0140 C   0  0  2  0  0  0  0  0  0  0  0  0
   -8.7210    2.3310    0.0060 C   0  0  0  0  0  0  0  0  0  0  0  0
   -8.0540    3.0470    1.1130 C   0  0  2  0  0  0  0  0  0  0  0  0
   -8.2550    4.4430    0.8330 O   0  0  0  0  0  0  0  0  0  0  0  0
   -6.5870    2.8940    1.2750 C   0  0  0  0  0  0  0  0  0  0  0  0
   -6.1300    1.6400    1.6140 O   0  0  0  0  0  0  0  0  0  0  0  0
   -7.3910    0.3630   -0.1340 O   0  0  0  0  0  0  0  0  0  0  0  0
   -2.9440   -2.2890   -1.1990 C   0  0  0  0  0  0  0  0  0  0  0  0
   -2.1950   -1.9690    0.0690 C   0  0  0  0  0  0  0  0  0  0  0  0
   -1.1540   -0.8840   -0.1550 C   0  0  2  0  0  0  0  0  0  0  0  0
   -1.5200    0.2860    0.7520 C   0  0  0  0  0  0  0  0  0  0  0  0
    7.6260   -2.7000    0.5000 C   0  0  0  0  0  0  0  0  0  0  0  0
  1  2  1  0
  2  3  2  0
  2 44  1  0
  3  4  1  0
  4  5  2  0
  5  6  1  0
  5 14  1  0
  6  7  1  0
  7  8  2  0
  7  9  1  0
  9 10  2  0
  9 13  1  0
 10 11  1  0
 11 12  2  0
 12 13  1  0
 14 15  1  0
 14 44  2  0
 15 16  1  0
 16 17  2  0
 16 18  1  0
 18 19  1  0
 19 20  1  0
 20 21  1  0
 21 22  1  0
 22 23  2  0
 22 24  1  0
 24 25  1  0
 24 42  1  0
 25 26  1  0
 26 27  1  1
 26 40  1  0
 27 28  1  0
 28 29  2  0
 28 30  1  0
 30 31  2  0
 30 39  1  0
 31 32  1  0
 32 33  1  0
 33 34  1  6
 33 39  1  0
 34 35  1  0
 35 36  1  6
 35 37  1  0
 37 38  1  0
 40 41  1  0
 41 42  1  0
 42 43  1  1
M  END
