
     RDKit          3D

 44 47  0  0  0  0  0  0  0  0999 V2000
   10.0780    3.0780   -1.7340 C   0  0  0  0  0  0  0  0  0  0  0  0
    9.2430    2.3940   -0.8150 O   0  0  0  0  0  0  0  0  0  0  0  0
    9.6320    1.2950   -0.0440 C   0  0  0  0  0  0  0  0  0  0  0  0
   10.9370    0.8180   -0.0970 C   0  0  0  0  0  0  0  0  0  0  0  0
   11.3290   -0.2570    0.6430 C   0  0  0  0  0  0  0  0  0  0  0  0
   12.7240   -0.7460    0.5510 C   0  0  0  0  0  0  0  0  0  0  0  0
   12.8890   -1.4760   -0.6890 N   0  0  0  0  0  0  0  0  0  0  0  0
   10.4200   -0.9070    1.4740 C   0  0  0  0  0  0  0  0  0  0  0  0
    9.1160   -0.4330    1.5280 C   0  0  0  0  0  0  0  0  0  0  0  0
    8.7340    0.6740    0.7620 C   0  0  0  0  0  0  0  0  0  0  0  0
    7.3420    1.2400    1.0470 C   0  0  0  0  0  0  0  0  0  0  0  0
    6.4040    0.4840    0.2990 N   0  0  0  0  0  0  0  0  0  0  0  0
    5.0470    0.1300    0.4920 C   0  0  0  0  0  0  0  0  0  0  0  0
    4.5090    0.4850    1.5740 O   0  0  0  0  0  0  0  0  0  0  0  0
    4.3740   -0.5920   -0.5440 C   0  0  0  0  0  0  0  0  0  0  0  0
    4.9910   -0.6120   -1.7300 O   0  0  0  0  0  0  0  0  0  0  0  0
    3.1990   -1.3000   -0.5870 N   0  0  0  0  0  0  0  0  0  0  0  0
    2.7760   -1.7870   -1.9980 C   0  0  0  0  0  0  0  0  0  0  0  0
    2.3260   -1.6950    0.4260 C   0  0  0  0  0  0  0  0  0  0  0  0
    1.2020   -0.8600    0.7790 C   0  0  0  0  0  0  0  0  0  0  0  0
    0.1360   -1.1920    1.6040 C   0  0  0  0  0  0  0  0  0  0  0  0
   -0.8620   -0.3040    1.7220 C   0  0  0  0  0  0  0  0  0  0  0  0
   -0.8420    0.8580    1.0870 C   0  0  0  0  0  0  0  0  0  0  0  0
   -1.7780    1.9760    0.9490 C   0  0  2  0  0  0  0  0  0  0  0  0
   -2.1670    2.4800    2.3230 C   0  0  0  0  0  0  0  0  0  0  0  0
   -2.9770    1.3750    0.3230 N   0  0  0  0  0  0  0  0  0  0  0  0
   -3.5710    1.8270   -0.8640 C   0  0  0  0  0  0  0  0  0  0  0  0
   -3.0830    2.8590   -1.4340 O   0  0  0  0  0  0  0  0  0  0  0  0
   -4.7480    1.1530   -1.5010 C   0  0  1  0  0  0  0  0  0  0  0  0
   -4.2750   -0.2750   -1.7250 C   0  0  0  0  0  0  0  0  0  0  0  0
   -5.2620   -1.1980   -2.3090 C   0  0  0  0  0  0  0  0  0  0  0  0
   -6.6720   -0.6880   -2.0750 C   0  0  1  0  0  0  0  0  0  0  0  0
   -7.5740   -1.8930   -2.2260 C   0  0  0  0  0  0  0  0  0  0  0  0
   -6.6750   -0.0850   -0.7040 C   0  0  2  0  0  0  0  0  0  0  0  0
   -7.9750   -0.0980   -0.0400 C   0  0  0  0  0  0  0  0  0  0  0  0
   -8.0960   -0.8690    1.0130 C   0  0  0  0  0  0  0  0  0  0  0  0
   -9.2410   -1.1290    1.9190 C   0  0  0  0  0  0  0  0  0  0  0  0
   -9.9660    0.1610    2.2520 C   0  0  0  0  0  0  0  0  0  0  0  0
  -10.9330    0.5550    1.1830 C   0  0  0  0  0  0  0  0  0  0  0  0
  -10.3250    1.0250   -0.0430 N   0  0  0  0  0  0  0  0  0  0  0  0
   -9.0560    0.7210   -0.5910 C   0  0  0  0  0  0  0  0  0  0  0  0
   -8.8310    1.2440   -1.7470 O   0  0  0  0  0  0  0  0  0  0  0  0
   -6.0250    1.2800   -0.7400 C   0  0  0  0  0  0  0  0  0  0  0  0
    0.7840    0.7380    0.1770 S   0  0  0  0  0  0  0  0  0  0  0  0
  1  2  1  0
  2  3  1  0
  3  4  2  0
  3 10  1  0
  4  5  1  0
  5  6  1  0
  5  8  2  0
  6  7  1  0
  8  9  1  0
  9 10  2  0
 10 11  1  0
 11 12  1  0
 12 13  1  0
 13 14  2  0
 13 15  1  0
 15 16  2  0
 15 17  1  0
 17 18  1  0
 17 19  1  0
 19 20  1  0
 20 21  2  0
 20 44  1  0
 21 22  1  0
 22 23  2  0
 23 24  1  0
 23 44  1  0
 24 25  1  1
 24 26  1  0
 26 27  1  0
 27 28  2  0
 29 27  1  1
 29 30  1  0
 29 43  1  0
 30 31  1  0
 31 32  1  0
 32 33  1  1
 32 34  1  0
 34 35  1  6
 34 43  1  0
 35 36  2  0
 35 41  1  0
 36 37  1  0
 37 38  1  0
 38 39  1  0
 39 40  1  0
 40 41  1  0
 41 42  2  0
M  END
