
     RDKit          3D

 44 47  0  0  0  0  0  0  0  0999 V2000
   -5.8590   -3.1310    2.5800 C   0  0  0  0  0  0  0  0  0  0  0  0
   -5.5700   -1.8780    2.2350 C   0  0  0  0  0  0  0  0  0  0  0  0
   -5.6310   -0.8340    3.2930 C   0  0  0  0  0  0  0  0  0  0  0  0
   -4.6100    0.1390    2.9780 N   0  0  0  0  0  0  0  0  0  0  0  0
   -4.3180    0.6080    1.6590 C   0  0  0  0  0  0  0  0  0  0  0  0
   -3.8690    2.0010    1.5020 C   0  0  0  0  0  0  0  0  0  0  0  0
   -4.5420   -0.1990    0.5820 C   0  0  0  0  0  0  0  0  0  0  0  0
   -4.2420    0.2510   -0.8090 C   0  0  2  0  0  0  0  0  0  0  0  0
   -5.3760    0.7990   -1.4710 C   0  0  0  0  0  0  0  0  0  0  0  0
   -6.7060    0.1580   -1.6670 C   0  0  0  0  0  0  0  0  0  0  0  0
   -7.5500   -0.0360   -0.4450 C   0  0  0  0  0  0  0  0  0  0  0  0
   -3.2280   -0.4860   -1.4760 N   0  0  0  0  0  0  0  0  0  0  0  0
   -1.9030    0.1210   -1.3520 C   0  0  0  0  0  0  0  0  0  0  0  0
   -1.7080    1.1670   -0.6450 O   0  0  0  0  0  0  0  0  0  0  0  0
   -0.7140   -0.3020   -1.9300 N   0  0  0  0  0  0  0  0  0  0  0  0
    0.5660    0.4060   -1.6390 C   0  0  2  0  0  0  0  0  0  0  0  0
    0.6980    1.5860   -2.6030 C   0  0  0  0  0  0  0  0  0  0  0  0
    1.6600   -0.5700   -1.8990 C   0  0  0  0  0  0  0  0  0  0  0  0
    2.9890   -0.1190   -1.6400 N   0  0  0  0  0  0  0  0  0  0  0  0
    3.4660    0.2200   -0.3500 C   0  0  0  0  0  0  0  0  0  0  0  0
    2.5950    0.0710    0.5850 O   0  0  0  0  0  0  0  0  0  0  0  0
    4.7900    0.6910   -0.0260 C   0  0  0  0  0  0  0  0  0  0  0  0
    5.2180    0.4520    1.2960 C   0  0  0  0  0  0  0  0  0  0  0  0
    6.4630    0.8190    1.7100 C   0  0  0  0  0  0  0  0  0  0  0  0
    6.9350    0.6120    2.9910 C   0  0  0  0  0  0  0  0  0  0  0  0
    6.0270   -0.0980    3.9590 C   0  0  0  0  0  0  0  0  0  0  0  0
    8.1700    0.9820    3.4120 C   0  0  0  0  0  0  0  0  0  0  0  0
    8.6190    0.7310    4.7850 C   0  0  0  0  0  0  0  0  0  0  0  0
    9.0210    1.6110    2.4950 C   0  0  0  0  0  0  0  0  0  0  0  0
   10.2880    1.9970    2.9220 O   0  0  0  0  0  0  0  0  0  0  0  0
   11.2070    2.6460    2.0570 C   0  0  0  0  0  0  0  0  0  0  0  0
    8.5830    1.8260    1.2190 C   0  0  0  0  0  0  0  0  0  0  0  0
    7.3350    1.4490    0.7970 C   0  0  0  0  0  0  0  0  0  0  0  0
    6.8840    1.6520   -0.4350 N   0  0  0  0  0  0  0  0  0  0  0  0
    5.6660    1.3030   -0.8760 C   0  0  0  0  0  0  0  0  0  0  0  0
    5.2960    1.5250   -2.0600 O   0  0  0  0  0  0  0  0  0  0  0  0
   -3.2100   -1.6430   -2.3220 C   0  0  1  0  0  0  0  0  0  0  0  0
   -3.3120   -3.0190   -1.8850 C   0  0  0  0  0  0  0  0  0  0  0  0
   -4.6720   -3.7490   -2.8960 S   0  0  0  0  0  0  0  0  0  0  0  0
   -4.4510   -2.5740   -4.2710 C   0  0  1  0  0  0  0  0  0  0  0  0
   -5.7150   -2.3610   -5.0470 C   0  0  0  0  0  0  0  0  0  0  0  0
   -3.9340   -1.3700   -3.5810 C   0  0  0  0  0  0  0  0  0  0  0  0
   -5.1920   -1.4750    0.8900 C   0  0  0  0  0  0  0  0  0  0  0  0
   -5.4620   -2.2940   -0.0290 O   0  0  0  0  0  0  0  0  0  0  0  0
  1  2  2  0
  2  3  1  0
  2 43  1  0
  3  4  1  0
  4  5  1  0
  5  6  1  0
  5  7  2  0
  7  8  1  0
  7 43  1  0
  8  9  1  6
  8 12  1  0
  9 10  1  0
 10 11  1  0
 12 13  1  0
 37 12  1  1
 13 14  2  0
 13 15  1  0
 15 16  1  0
 16 17  1  6
 16 18  1  0
 18 19  1  0
 19 20  1  0
 20 21  2  0
 20 22  1  0
 22 23  2  0
 22 35  1  0
 23 24  1  0
 24 25  2  0
 24 33  1  0
 25 26  1  0
 25 27  1  0
 27 28  1  0
 27 29  2  0
 29 30  1  0
 29 32  1  0
 30 31  1  0
 32 33  2  0
 33 34  1  0
 34 35  1  0
 35 36  2  0
 37 38  1  0
 37 42  1  0
 38 39  1  0
 39 40  1  0
 40 41  1  1
 40 42  1  0
 43 44  2  0
M  END
