
     RDKit          3D

 44 47  0  0  0  0  0  0  0  0999 V2000
    9.8190   -2.7790   -1.7540 C   0  0  0  0  0  0  0  0  0  0  0  0
   10.1740   -1.2990   -1.7630 C   0  0  0  0  0  0  0  0  0  0  0  0
    9.2880   -0.5580   -0.9420 O   0  0  0  0  0  0  0  0  0  0  0  0
    7.9430   -0.5670   -1.2270 C   0  0  0  0  0  0  0  0  0  0  0  0
    7.4770   -1.2110   -2.1960 O   0  0  0  0  0  0  0  0  0  0  0  0
    7.0460    0.2060   -0.3600 C   0  0  0  0  0  0  0  0  0  0  0  0
    7.5530    0.9230    0.7060 C   0  0  0  0  0  0  0  0  0  0  0  0
    6.6950    1.6340    1.5030 C   0  0  0  0  0  0  0  0  0  0  0  0
    7.2340    2.4080    2.6540 C   0  0  0  0  0  0  0  0  0  0  0  0
    5.3300    1.6550    1.2690 C   0  0  0  0  0  0  0  0  0  0  0  0
    4.8010    0.9530    0.2190 C   0  0  0  0  0  0  0  0  0  0  0  0
    3.4240    0.8800   -0.1120 N   0  0  0  0  0  0  0  0  0  0  0  0
    2.3380    1.2840    0.6650 C   0  0  0  0  0  0  0  0  0  0  0  0
    2.5810    1.7690    1.7980 O   0  0  0  0  0  0  0  0  0  0  0  0
    0.9160    1.1680    0.2150 C   0  0  0  0  0  0  0  0  0  0  0  0
   -0.0420    1.5900    1.0380 C   0  0  0  0  0  0  0  0  0  0  0  0
   -1.4670    1.6150    0.8860 C   0  0  0  0  0  0  0  0  0  0  0  0
   -2.5440    0.9380    0.6760 C   0  0  0  0  0  0  0  0  0  0  0  0
   -3.8140    1.7330    0.6410 N   0  0  0  0  0  0  0  0  0  0  0  0
   -3.9810    2.8720   -0.1980 C   0  0  1  0  0  0  0  0  0  0  0  0
   -3.6720    2.7040   -1.6130 C   0  0  0  0  0  0  0  0  0  0  0  0
   -3.3300    1.6890   -2.1860 O   0  0  0  0  0  0  0  0  0  0  0  0
   -5.3290    3.4520    0.1250 C   0  0  2  0  0  0  0  0  0  0  0  0
   -6.5650    2.6450   -0.0270 C   0  0  0  0  0  0  0  0  0  0  0  0
   -6.3220    3.9420   -0.8250 C   0  0  2  0  0  0  0  0  0  0  0  0
   -6.2880    3.8070   -2.3160 C   0  0  0  0  0  0  0  0  0  0  0  0
   -7.2270    5.1140   -0.3720 C   0  0  0  0  0  0  0  0  0  0  0  0
   -2.8750   -0.4690    0.4570 C   0  0  0  0  0  0  0  0  0  0  0  0
   -4.1490   -0.7860   -0.3700 C   0  0  0  0  0  0  0  0  0  0  0  0
   -2.3030   -1.5630    0.8840 C   0  0  0  0  0  0  0  0  0  0  0  0
   -2.8540   -2.8650    0.5010 N   0  0  0  0  0  0  0  0  0  0  0  0
   -3.3050   -3.7230    1.6070 C   0  0  0  0  0  0  0  0  0  0  0  0
   -4.5620   -4.5030    1.1840 C   0  0  0  0  0  0  0  0  0  0  0  0
   -4.0680   -5.6740   -0.1550 S   0  0  0  0  0  0  0  0  0  0  0  0
   -2.6060   -4.8200   -0.9090 C   0  0  0  0  0  0  0  0  0  0  0  0
   -2.9900   -3.3430   -0.8320 C   0  0  0  0  0  0  0  0  0  0  0  0
   -1.1600   -1.7330    1.8020 C   0  0  0  0  0  0  0  0  0  0  0  0
   -0.1390   -2.7000    1.3190 C   0  0  0  0  0  0  0  0  0  0  0  0
    0.8560   -2.1670    0.3350 C   0  0  0  0  0  0  0  0  0  0  0  0
    0.2200   -1.8800   -0.9110 N   0  0  0  0  0  0  0  0  0  0  0  0
   -0.0340   -0.5650   -1.4050 C   0  0  0  0  0  0  0  0  0  0  0  0
   -1.0020   -0.4410   -2.1950 O   0  0  0  0  0  0  0  0  0  0  0  0
    0.7250    0.6130   -1.0760 N   0  0  0  0  0  0  0  0  0  0  0  0
    5.7030    0.2350   -0.5790 C   0  0  0  0  0  0  0  0  0  0  0  0
  1  2  1  0
  2  3  1  0
  3  4  1  0
  4  5  2  0
  4  6  1  0
  6  7  2  0
  6 44  1  0
  7  8  1  0
  8  9  1  0
  8 10  2  0
 10 11  1  0
 11 12  1  0
 11 44  2  0
 12 13  1  0
 13 14  2  0
 13 15  1  0
 15 16  2  0
 15 43  1  0
 16 17  1  0
 17 18  2  0
 18 19  1  0
 18 28  1  0
 20 19  1  1
 20 21  1  0
 20 23  1  0
 21 22  2  0
 23 24  1  6
 23 25  1  0
 24 25  1  0
 25 26  1  6
 25 27  1  0
 28 29  1  0
 28 30  2  0
 30 31  1  0
 30 37  1  0
 31 32  1  0
 31 36  1  0
 32 33  1  0
 33 34  1  0
 34 35  1  0
 35 36  1  0
 37 38  1  0
 38 39  1  0
 39 40  1  0
 40 41  1  0
 41 42  2  0
 41 43  1  0
M  END
