
     RDKit          3D

 25 27  0  0  0  0  0  0  0  0999 V2000
   -4.6000   -0.3290    2.8070 C   0  0  0  0  0  0  0  0  0  0  0  0
   -4.0110   -0.0830    1.4660 C   0  0  0  0  0  0  0  0  0  0  0  0
   -4.7820    0.1890    0.3610 C   0  0  0  0  0  0  0  0  0  0  0  0
   -4.1500    0.4050   -0.8470 C   0  0  0  0  0  0  0  0  0  0  0  0
   -4.9780    0.6960   -2.0320 C   0  0  0  0  0  0  0  0  0  0  0  0
   -2.7920    0.3520   -0.9510 C   0  0  0  0  0  0  0  0  0  0  0  0
   -2.1810    0.5930   -2.2670 C   0  0  0  0  0  0  0  0  0  0  0  0
   -1.9770    0.0770    0.1560 C   0  0  0  0  0  0  0  0  0  0  0  0
   -0.5900    0.0500   -0.0850 N   0  0  0  0  0  0  0  0  0  0  0  0
    0.3890   -0.2030    0.8880 C   0  0  0  0  0  0  0  0  0  0  0  0
    0.0790   -0.4300    2.0830 O   0  0  0  0  0  0  0  0  0  0  0  0
    1.8340   -0.2280    0.6140 C   0  0  0  0  0  0  0  0  0  0  0  0
    2.3910   -0.0070   -0.6170 C   0  0  0  0  0  0  0  0  0  0  0  0
    3.7420   -0.0280   -0.8800 C   0  0  0  0  0  0  0  0  0  0  0  0
    4.1330    0.2300   -2.2480 C   0  0  0  0  0  0  0  0  0  0  0  0
    5.3190    0.2370   -2.6050 O   0  0  0  0  0  0  0  0  0  0  0  0
    3.1820    0.4870   -3.2500 O   0  0  0  0  0  0  0  0  0  0  0  0
    4.6640   -0.2920    0.1620 C   0  0  0  0  0  0  0  0  0  0  0  0
    5.9970   -0.3500    0.0830 C   0  0  0  0  0  0  0  0  0  0  0  0
    6.7150   -0.6300    1.2580 C   0  0  0  0  0  0  0  0  0  0  0  0
    5.4200   -0.8110    2.4940 S   0  0  0  0  0  0  0  0  0  0  0  0
    4.0590   -0.5070    1.3770 C   0  0  0  0  0  0  0  0  0  0  0  0
    2.7210   -0.4850    1.6330 C   0  0  0  0  0  0  0  0  0  0  0  0
    2.2810   -0.7310    2.9550 N   0  0  0  0  0  0  0  0  0  0  0  0
   -2.6080   -0.1370    1.3570 C   0  0  0  0  0  0  0  0  0  0  0  0
  1  2  1  0
  2  3  2  0
  2 25  1  0
  3  4  1  0
  4  5  1  0
  4  6  2  0
  6  7  1  0
  6  8  1  0
  8  9  1  0
  8 25  2  0
  9 10  1  0
 10 11  2  0
 10 12  1  0
 12 13  2  0
 12 23  1  0
 13 14  1  0
 14 15  1  0
 14 18  2  0
 15 16  2  0
 15 17  1  0
 18 19  1  0
 18 22  1  0
 19 20  2  0
 20 21  1  0
 21 22  1  0
 22 23  2  0
 23 24  1  0
M  END
