
     RDKit          3D

 14 15  0  0  0  0  0  0  0  0999 V2000
   -4.3090   -0.7160    0.4420 C   0  0  0  0  0  0  0  0  0  0  0  0
   -2.8520   -0.5910    0.3660 C   0  0  0  0  0  0  0  0  0  0  0  0
   -2.1520    0.4140    0.5490 N   0  0  0  0  0  0  0  0  0  0  0  0
   -0.7710    0.3370    0.4310 C   0  0  1  0  0  0  0  0  0  0  0  0
   -0.2540   -1.0440    0.6200 C   0  0  2  0  0  0  0  0  0  0  0  0
    0.8760   -1.3990    0.0500 O   0  0  0  0  0  0  0  0  0  0  0  0
    1.7460   -0.5220   -0.4590 C   0  0  2  0  0  0  0  0  0  0  0  0
    2.9570   -0.4400    0.4850 C   0  0  0  0  0  0  0  0  0  0  0  0
    3.5170   -1.6910    0.5650 O   0  0  0  0  0  0  0  0  0  0  0  0
    1.2960    0.8710   -0.6880 C   0  0  1  0  0  0  0  0  0  0  0  0
    1.8850    1.3470   -1.8590 O   0  0  0  0  0  0  0  0  0  0  0  0
   -0.2220    1.0010   -0.8220 C   0  0  2  0  0  0  0  0  0  0  0  0
   -0.5450    2.3430   -0.8040 O   0  0  0  0  0  0  0  0  0  0  0  0
   -1.7390   -1.9420   -0.0110 S   0  0  0  0  0  0  0  0  0  0  0  0
  1  2  1  0
  2  3  2  0
  2 14  1  0
  4  3  1  6
  4  5  1  0
  4 12  1  0
  5  6  1  6
  5 14  1  0
  6  7  1  0
  7  8  1  1
  7 10  1  0
  8  9  1  0
 10 11  1  6
 10 12  1  0
 12 13  1  1
M  END
