
     RDKit          3D

 25 27  0  0  0  0  0  0  0  0999 V2000
   -0.1030   -4.7780   -1.8210 C   0  0  0  0  0  0  0  0  0  0  0  0
    0.8480   -3.9610   -1.0320 C   0  0  0  0  0  0  0  0  0  0  0  0
    1.2650   -2.7020   -1.2900 C   0  0  0  0  0  0  0  0  0  0  0  0
    0.6860   -1.8480   -2.6680 S   0  0  1  0  0  0  0  0  0  0  0  0
    1.5940   -0.7560   -3.1380 O   0  0  0  0  0  0  0  0  0  0  0  0
    0.5870   -2.8100   -3.8600 O   0  0  0  0  0  0  0  0  0  0  0  0
   -0.8650   -1.1340   -2.4550 N   0  0  0  0  0  0  0  0  0  0  0  0
   -1.2180   -0.1460   -1.5300 C   0  0  0  0  0  0  0  0  0  0  0  0
   -2.3270   -0.3650   -0.7030 C   0  0  0  0  0  0  0  0  0  0  0  0
   -2.7230    0.5530    0.2360 C   0  0  0  0  0  0  0  0  0  0  0  0
   -2.0450    1.7400    0.4080 C   0  0  0  0  0  0  0  0  0  0  0  0
   -0.9530    1.9650   -0.4020 C   0  0  0  0  0  0  0  0  0  0  0  0
   -0.5650    1.0330   -1.3410 C   0  0  0  0  0  0  0  0  0  0  0  0
   -0.0050    3.0840   -0.5070 C   0  0  0  0  0  0  0  0  0  0  0  0
    0.3640    4.0340    0.3380 C   0  0  0  0  0  0  0  0  0  0  0  0
   -0.0490    4.3430    1.7550 C   0  0  0  0  0  0  0  0  0  0  0  0
   -0.4580    3.0260    2.4260 C   0  0  0  0  0  0  0  0  0  0  0  0
   -1.9270    2.9040    2.6300 C   0  0  0  0  0  0  0  0  0  0  0  0
   -2.7330    2.4650    1.4720 C   0  0  0  0  0  0  0  0  0  0  0  0
    2.1590   -2.3050   -0.2570 C   0  0  0  0  0  0  0  0  0  0  0  0
    2.8360   -1.2210   -0.0890 C   0  0  0  0  0  0  0  0  0  0  0  0
    2.9030   -0.0640   -0.8970 N   0  0  0  0  0  0  0  0  0  0  0  0
    2.2420   -3.4680    0.6680 C   0  0  0  0  0  0  0  0  0  0  0  0
    3.0000   -3.5340    1.8230 O   0  0  0  0  0  0  0  0  0  0  0  0
    1.4690   -4.4260    0.1970 C   0  0  0  0  0  0  0  0  0  0  0  0
  1  2  1  0
  2  3  2  0
  2 25  1  0
  3  4  1  0
  3 20  1  0
  4  5  2  0
  4  6  2  0
  4  7  1  1
  7  8  1  0
  8  9  2  0
  8 13  1  0
  9 10  1  0
 10 11  2  0
 11 12  1  0
 11 19  1  0
 12 13  2  0
 12 14  1  0
 14 15  2  0
 15 16  1  0
 16 17  1  0
 17 18  1  0
 18 19  1  0
 20 21  2  3
 20 23  1  0
 21 22  1  0
 23 24  1  0
 23 25  2  0
M  END
