
     RDKit          3D

 25 27  0  0  0  0  0  0  0  0999 V2000
    4.9010   -2.2940   -0.3390 C   0  0  0  0  0  0  0  0  0  0  0  0
    4.5630   -1.0440   -0.5090 C   0  0  0  0  0  0  0  0  0  0  0  0
    5.4310   -0.1220   -1.3170 C   0  0  0  0  0  0  0  0  0  0  0  0
    4.7580    1.2190   -1.4020 C   0  0  0  0  0  0  0  0  0  0  0  0
    4.3640    1.6510    0.0180 C   0  0  0  0  0  0  0  0  0  0  0  0
    3.2060    0.7940    0.3710 C   0  0  0  0  0  0  0  0  0  0  0  0
    2.0600    1.2510    0.9330 C   0  0  0  0  0  0  0  0  0  0  0  0
    0.9560    0.4430    1.2670 C   0  0  0  0  0  0  0  0  0  0  0  0
   -0.4420    1.2220    1.8930 S   0  0  1  0  0  0  0  0  0  0  0  0
   -0.7520    0.5040    3.2180 O   0  0  0  0  0  0  0  0  0  0  0  0
    0.0410    2.6020    2.4410 O   0  0  0  0  0  0  0  0  0  0  0  0
   -1.7450    1.5140    0.9650 N   0  0  0  0  0  0  0  0  0  0  0  0
   -2.6190    0.7180    0.2880 C   0  0  2  0  0  0  0  0  0  0  0  0
   -1.9670   -0.1700   -0.7310 C   0  0  0  0  0  0  0  0  0  0  0  0
   -3.4860    1.7170   -0.5670 C   0  0  0  0  0  0  0  0  0  0  0  0
   -4.5270    1.0260   -1.3540 C   0  0  0  0  0  0  0  0  0  0  0  0
   -5.4110    0.0970   -0.5900 C   0  0  0  0  0  0  0  0  0  0  0  0
   -4.5520   -0.8120    0.2640 C   0  0  0  0  0  0  0  0  0  0  0  0
   -3.6660    0.0280    1.1330 C   0  0  0  0  0  0  0  0  0  0  0  0
    1.0890   -0.8920    0.9910 C   0  0  0  0  0  0  0  0  0  0  0  0
    0.0600   -1.8500    1.3430 C   0  0  0  0  0  0  0  0  0  0  0  0
    0.2500   -3.2140    0.9050 N   0  0  0  0  0  0  0  0  0  0  0  0
   -0.9710   -1.6600    1.9720 O   0  0  0  0  0  0  0  0  0  0  0  0
    2.2760   -1.3620    0.4080 C   0  0  0  0  0  0  0  0  0  0  0  0
    3.3260   -0.5440    0.0970 C   0  0  0  0  0  0  0  0  0  0  0  0
  1  2  2  0
  2  3  1  0
  2 25  1  0
  3  4  1  0
  4  5  1  0
  5  6  1  0
  6  7  2  0
  6 25  1  0
  7  8  1  0
  8  9  1  0
  8 20  2  0
  9 10  2  0
  9 11  2  0
  9 12  1  6
 12 13  1  0
 13 14  1  6
 13 15  1  0
 13 19  1  0
 15 16  1  0
 16 17  1  0
 17 18  1  0
 18 19  1  0
 20 21  1  0
 20 24  1  0
 21 22  1  0
 21 23  2  0
 24 25  2  0
M  END
