
     RDKit          3D

 25 28  0  0  0  0  0  0  0  0999 V2000
   -1.4840   -1.4690    1.4850 N   0  0  0  0  0  0  0  0  0  0  0  0
   -0.3540   -0.7810    0.9960 C   0  0  0  0  0  0  0  0  0  0  0  0
    0.7820   -1.4700    0.5720 C   0  0  0  0  0  0  0  0  0  0  0  0
    1.9120   -0.8720    0.1110 C   0  0  0  0  0  0  0  0  0  0  0  0
    3.0360   -1.5610   -0.3070 C   0  0  0  0  0  0  0  0  0  0  0  0
    3.0170   -2.8240   -0.2610 O   0  0  0  0  0  0  0  0  0  0  0  0
    4.1660   -0.9180   -0.7670 C   0  0  0  0  0  0  0  0  0  0  0  0
    5.2900   -1.5790   -1.1850 C   0  0  0  0  0  0  0  0  0  0  0  0
    6.4190   -0.9360   -1.6450 C   0  0  0  0  0  0  0  0  0  0  0  0
    6.3780    0.4420   -1.6700 C   0  0  0  0  0  0  0  0  0  0  0  0
    5.2620    1.1350   -1.2560 C   0  0  0  0  0  0  0  0  0  0  0  0
    4.1230    0.4650   -0.7920 C   0  0  0  0  0  0  0  0  0  0  0  0
    3.0400    1.1530   -0.3910 N   0  0  0  0  0  0  0  0  0  0  0  0
    1.9320    0.5090    0.0620 C   0  0  0  0  0  0  0  0  0  0  0  0
    0.8460    1.2340    0.4650 C   0  0  0  0  0  0  0  0  0  0  0  0
   -0.3300    0.5870    0.9450 C   0  0  0  0  0  0  0  0  0  0  0  0
   -1.5970    1.6650    1.4380 S   0  0  0  0  0  0  0  0  0  0  0  0
   -3.1810    1.0990    1.8770 C   0  0  0  0  0  0  0  0  0  0  0  0
   -4.0490    0.5660    0.8040 C   0  0  0  0  0  0  0  0  0  0  0  0
   -4.5160   -0.6460    0.8720 C   0  0  0  0  0  0  0  0  0  0  0  0
   -5.3960   -1.2620   -0.1640 C   0  0  0  0  0  0  0  0  0  0  0  0
   -5.6770   -0.4010   -1.2280 O   0  0  0  0  0  0  0  0  0  0  0  0
   -5.1880    0.8810   -1.3090 C   0  0  0  0  0  0  0  0  0  0  0  0
   -4.4120    1.3800   -0.3670 C   0  0  0  0  0  0  0  0  0  0  0  0
   -3.9030    2.6810   -0.4290 O   0  0  0  0  0  0  0  0  0  0  0  0
  1  2  1  0
  2  3  2  0
  2 16  1  0
  3  4  1  0
  4  5  1  0
  4 14  2  0
  5  6  2  0
  5  7  1  0
  7  8  2  0
  7 12  1  0
  8  9  1  0
  9 10  2  0
 10 11  1  0
 11 12  2  0
 12 13  1  0
 13 14  1  0
 14 15  1  0
 15 16  2  0
 16 17  1  0
 17 18  1  0
 18 19  1  0
 19 20  2  0
 19 24  1  0
 20 21  1  0
 21 22  1  0
 22 23  1  0
 23 24  2  0
 24 25  1  0
M  END
