
     RDKit          3D

 25 27  0  0  0  0  0  0  0  0999 V2000
    3.1780   -3.5840   -2.9520 C   0  0  0  0  0  0  0  0  0  0  0  0
    2.7600   -2.1900   -2.6570 C   0  0  0  0  0  0  0  0  0  0  0  0
    1.6270   -1.9180   -1.8820 C   0  0  0  0  0  0  0  0  0  0  0  0
    1.2630   -0.6170   -1.6250 C   0  0  0  0  0  0  0  0  0  0  0  0
    1.9850    0.4470   -2.1100 C   0  0  0  0  0  0  0  0  0  0  0  0
    1.5860    1.8400   -1.8300 C   0  0  0  0  0  0  0  0  0  0  0  0
    2.1960    2.4030   -0.5870 C   0  0  0  0  0  0  0  0  0  0  0  0
    1.8830    1.7130    0.5930 O   0  0  0  0  0  0  0  0  0  0  0  0
    0.5270    1.5740    1.0520 C   0  0  0  0  0  0  0  0  0  0  0  0
   -0.2720    2.1340    0.2750 O   0  0  0  0  0  0  0  0  0  0  0  0
    0.2570    0.8580    2.2640 C   0  0  0  0  0  0  0  0  0  0  0  0
   -0.7360    0.5460    2.9760 C   0  0  0  0  0  0  0  0  0  0  0  0
   -2.1680    0.7480    2.9590 C   0  0  0  0  0  0  0  0  0  0  0  0
   -2.7360    1.6880    2.1470 C   0  0  0  0  0  0  0  0  0  0  0  0
   -4.1310    1.7740    2.1210 C   0  0  0  0  0  0  0  0  0  0  0  0
   -4.8550    0.9330    2.8920 C   0  0  0  0  0  0  0  0  0  0  0  0
   -6.6330    0.7300    3.1280 S   0  0  0  0  0  0  0  0  0  0  0  0
   -6.4820   -0.6410    4.3370 C   0  0  0  0  0  0  0  0  0  0  0  0
   -7.4480   -1.2190    4.8780 O   0  0  0  0  0  0  0  0  0  0  0  0
   -5.1610   -0.7820    4.4200 N   0  0  0  0  0  0  0  0  0  0  0  0
   -4.3600   -0.0260    3.7250 C   0  0  0  0  0  0  0  0  0  0  0  0
   -2.9530   -0.0950    3.7360 C   0  0  0  0  0  0  0  0  0  0  0  0
    3.1030    0.1450   -2.8750 C   0  0  0  0  0  0  0  0  0  0  0  0
    3.4930   -1.1330   -3.1500 C   0  0  0  0  0  0  0  0  0  0  0  0
    4.6440   -1.4290   -3.9380 N   0  0  0  0  0  0  0  0  0  0  0  0
  1  2  1  0
  2  3  2  0
  2 24  1  0
  3  4  1  0
  4  5  2  0
  5  6  1  0
  5 23  1  0
  6  7  1  0
  7  8  1  0
  8  9  1  0
  9 10  2  0
  9 11  1  0
 11 12  2  3
 12 13  1  0
 13 14  2  0
 13 22  1  0
 14 15  1  0
 15 16  2  0
 16 17  1  0
 16 21  1  0
 17 18  1  0
 18 19  2  0
 18 20  1  0
 20 21  1  0
 21 22  2  0
 23 24  2  0
 24 25  1  0
M  END
