
     RDKit          3D

 14 14  0  0  0  0  0  0  0  0999 V2000
   -3.5110    2.6150   -0.6490 C   0  0  0  0  0  0  0  0  0  0  0  0
   -1.9250    1.6940   -0.6970 S   0  0  0  0  0  0  0  0  0  0  0  0
   -2.1820    0.1450    0.1670 C   0  0  0  0  0  0  0  0  0  0  0  0
   -0.9580   -0.7230    0.2090 C   0  0  1  0  0  0  0  0  0  0  0  0
   -1.3350   -1.9920    0.9710 C   0  0  0  0  0  0  0  0  0  0  0  0
   -0.2780   -2.8840    1.0050 O   0  0  0  0  0  0  0  0  0  0  0  0
   -0.4610   -1.1360   -1.1330 C   0  0  0  0  0  0  0  0  0  0  0  0
    0.9340   -1.2180   -0.9090 O   0  0  0  0  0  0  0  0  0  0  0  0
    1.1690   -0.0390   -0.2430 C   0  0  2  0  0  0  0  0  0  0  0  0
    2.5040    0.0410    0.4270 C   0  0  2  0  0  0  0  0  0  0  0  0
    2.5180    1.2420    1.1700 O   0  0  0  0  0  0  0  0  0  0  0  0
    3.6430    0.1470   -0.5630 C   0  0  0  0  0  0  0  0  0  0  0  0
    4.8270    0.2960    0.1670 O   0  0  0  0  0  0  0  0  0  0  0  0
    0.1530   -0.0410    0.8050 N   0  0  0  0  0  0  0  0  0  0  0  0
  1  2  1  0
  2  3  1  0
  4  3  1  6
  4  5  1  0
  4  7  1  0
  4 14  1  0
  5  6  1  0
  7  8  1  0
  8  9  1  0
  9 10  1  0
  9 14  1  1
 10 11  1  1
 10 12  1  0
 12 13  1  0
M  END
