
     RDKit          3D

 25 27  0  0  0  0  0  0  0  0999 V2000
   -4.1250    1.5410    0.9470 C   0  0  0  0  0  0  0  0  0  0  0  0
   -3.7670    0.4530   -0.0620 C   0  0  2  0  0  0  0  0  0  0  0  0
   -4.2070    0.9250   -1.4410 C   0  0  0  0  0  0  0  0  0  0  0  0
   -4.6770   -0.7190    0.2590 C   0  0  0  0  0  0  0  0  0  0  0  0
   -4.4190   -1.3100    1.6100 C   0  0  0  0  0  0  0  0  0  0  0  0
   -3.6510   -2.5970    1.3960 C   0  0  0  0  0  0  0  0  0  0  0  0
   -2.2540   -2.2210    1.0880 C   0  0  0  0  0  0  0  0  0  0  0  0
   -1.4220   -3.1390    1.3880 O   0  0  0  0  0  0  0  0  0  0  0  0
   -1.6910   -1.0100    0.5150 C   0  0  0  0  0  0  0  0  0  0  0  0
   -0.3260   -1.1130    0.5050 C   0  0  0  0  0  0  0  0  0  0  0  0
    0.4770   -0.0810    0.0030 C   0  0  0  0  0  0  0  0  0  0  0  0
    1.8820   -0.2500    0.0110 N   0  0  0  0  0  0  0  0  0  0  0  0
    2.8500    0.7250   -0.2940 C   0  0  0  0  0  0  0  0  0  0  0  0
    2.5190    1.8740   -0.6080 O   0  0  0  0  0  0  0  0  0  0  0  0
    4.2680    0.4270   -0.2550 C   0  0  0  0  0  0  0  0  0  0  0  0
    4.9580   -0.7210    0.0470 C   0  0  0  0  0  0  0  0  0  0  0  0
    6.2820   -0.7200    0.0060 C   0  0  0  0  0  0  0  0  0  0  0  0
    6.9450    0.4510   -0.3450 C   0  0  0  0  0  0  0  0  0  0  0  0
    8.3990    0.7390   -0.4710 C   0  0  0  0  0  0  0  0  0  0  0  0
    9.0730   -0.4180   -0.1660 O   0  0  0  0  0  0  0  0  0  0  0  0
    5.5830    1.5800   -0.6200 S   0  0  0  0  0  0  0  0  0  0  0  0
   -0.1570    1.0110   -0.4660 C   0  0  0  0  0  0  0  0  0  0  0  0
   -1.5560    1.1130   -0.4540 C   0  0  0  0  0  0  0  0  0  0  0  0
   -2.1060    2.3030   -0.9720 N   0  0  0  0  0  0  0  0  0  0  0  0
   -2.3530    0.1140    0.0320 C   0  0  0  0  0  0  0  0  0  0  0  0
  2  1  1  1
  2  3  1  0
  2  4  1  0
  2 25  1  0
  4  5  1  0
  5  6  1  0
  6  7  1  0
  7  8  2  0
  7  9  1  0
  9 10  2  0
  9 25  1  0
 10 11  1  0
 11 12  1  0
 11 22  2  0
 12 13  1  0
 13 14  2  0
 13 15  1  0
 15 16  2  0
 15 21  1  0
 16 17  1  0
 17 18  2  0
 18 19  1  0
 18 21  1  0
 19 20  1  0
 22 23  1  0
 23 24  1  0
 23 25  2  0
M  END
