
     RDKit          3D

 25 27  0  0  0  0  0  0  0  0999 V2000
    7.6140   -0.5050   -0.1100 C   0  0  0  0  0  0  0  0  0  0  0  0
    6.1410   -0.8610   -0.2400 C   0  0  0  0  0  0  0  0  0  0  0  0
    5.3770    0.1540    0.5810 C   0  0  0  0  0  0  0  0  0  0  0  0
    3.9350   -0.0430    0.5650 C   0  0  0  0  0  0  0  0  0  0  0  0
    3.1070    0.8690    0.1200 C   0  0  0  0  0  0  0  0  0  0  0  0
    3.5770    2.1640   -0.3930 C   0  0  0  0  0  0  0  0  0  0  0  0
    1.6370    0.5980    0.0810 C   0  0  0  0  0  0  0  0  0  0  0  0
    0.3160    1.6660   -0.4000 S   0  0  0  0  0  0  0  0  0  0  0  0
   -0.9950    0.4900   -0.0430 C   0  0  0  0  0  0  0  0  0  0  0  0
   -2.4440    0.7510   -0.2290 C   0  0  0  0  0  0  0  0  0  0  0  0
   -2.8190    1.8540   -0.6610 O   0  0  0  0  0  0  0  0  0  0  0  0
   -3.3650   -0.2510    0.0880 N   0  0  0  0  0  0  0  0  0  0  0  0
   -4.7660   -0.1560   -0.0330 C   0  0  0  0  0  0  0  0  0  0  0  0
   -5.4150    0.9640   -0.4890 C   0  0  0  0  0  0  0  0  0  0  0  0
   -6.7970    1.0300   -0.5980 C   0  0  0  0  0  0  0  0  0  0  0  0
   -7.4570    2.1910   -1.0700 N   0  0  0  0  0  0  0  0  0  0  0  0
   -7.5370   -0.0510   -0.2410 C   0  0  0  0  0  0  0  0  0  0  0  0
   -6.9180   -1.1690    0.2120 C   0  0  0  0  0  0  0  0  0  0  0  0
   -5.5550   -1.2550    0.3270 C   0  0  0  0  0  0  0  0  0  0  0  0
   -4.9810   -2.4190    0.7950 O   0  0  0  0  0  0  0  0  0  0  0  0
   -0.3190   -0.5950    0.4040 C   0  0  0  0  0  0  0  0  0  0  0  0
    1.0300   -0.5210    0.4600 C   0  0  0  0  0  0  0  0  0  0  0  0
    1.9250   -1.6670    0.8990 C   0  0  0  0  0  0  0  0  0  0  0  0
    3.2920   -1.2480    1.0760 C   0  0  0  0  0  0  0  0  0  0  0  0
    4.0640   -2.0170    1.7700 O   0  0  0  0  0  0  0  0  0  0  0  0
  1  2  1  0
  2  3  1  0
  3  4  1  0
  4  5  2  0
  4 24  1  0
  5  6  1  0
  5  7  1  0
  7  8  1  0
  7 22  2  0
  8  9  1  0
  9 10  1  0
  9 21  2  0
 10 11  2  0
 10 12  1  0
 12 13  1  0
 13 14  2  0
 13 19  1  0
 14 15  1  0
 15 16  1  0
 15 17  2  0
 17 18  1  0
 18 19  2  0
 19 20  1  0
 21 22  1  0
 22 23  1  0
 23 24  1  0
 24 25  2  0
M  END
