
     RDKit          3D

 14 15  0  0  0  0  0  0  0  0999 V2000
   -3.5350   -0.4990   -1.5880 C   0  0  0  0  0  0  0  0  0  0  0  0
   -2.3460    0.1000   -0.8270 C   0  0  1  0  0  0  0  0  0  0  0  0
   -2.0550   -0.6330    0.3570 N   0  0  0  0  0  0  0  0  0  0  0  0
   -0.6520   -0.5590    0.6360 C   0  0  1  0  0  0  0  0  0  0  0  0
   -0.0060   -1.2420   -0.5640 C   0  0  2  0  0  0  0  0  0  0  0  0
    1.3430   -1.1280   -0.6110 O   0  0  0  0  0  0  0  0  0  0  0  0
    1.8600    0.1340   -0.5790 C   0  0  2  0  0  0  0  0  0  0  0  0
    3.3650    0.0690   -0.4330 C   0  0  0  0  0  0  0  0  0  0  0  0
    3.7430   -0.5830    0.7360 O   0  0  0  0  0  0  0  0  0  0  0  0
    1.3330    0.9730    0.5630 C   0  0  2  0  0  0  0  0  0  0  0  0
    2.0140    0.7250    1.7380 O   0  0  0  0  0  0  0  0  0  0  0  0
   -0.1660    0.8570    0.7050 C   0  0  2  0  0  0  0  0  0  0  0  0
   -0.5500    1.4650    1.8890 O   0  0  0  0  0  0  0  0  0  0  0  0
   -0.8500   -0.2250   -1.8460 S   0  0  0  0  0  0  0  0  0  0  0  0
  2  1  1  6
  2  3  1  0
  2 14  1  0
  4  3  1  6
  4  5  1  0
  4 12  1  0
  5  6  1  1
  5 14  1  0
  6  7  1  0
  7  8  1  1
  7 10  1  0
  8  9  1  0
 10 11  1  1
 10 12  1  0
 12 13  1  1
M  CHG  1   3   1
M  END
