
     RDKit          3D

 27 29  0  0  0  0  0  0  0  0999 V2000
    6.9250    1.1430    0.7300 C   0  0  0  0  0  0  0  0  0  0  0  0
    5.6280    0.4480    0.9960 C   0  0  0  0  0  0  0  0  0  0  0  0
    4.6650    0.6830   -0.0780 N   0  0  0  0  0  0  0  0  0  0  0  0
    3.3620    0.1320   -0.0600 C   0  0  0  0  0  0  0  0  0  0  0  0
    3.0350   -0.5820    0.9180 O   0  0  0  0  0  0  0  0  0  0  0  0
    2.4180    0.3780   -1.1380 C   0  0  0  0  0  0  0  0  0  0  0  0
    1.1270   -0.2630   -0.9600 N   0  0  0  0  0  0  0  0  0  0  0  0
    0.8690   -1.4570   -1.4740 C   0  0  0  0  0  0  0  0  0  0  0  0
    1.7800   -2.0220   -2.1300 O   0  0  0  0  0  0  0  0  0  0  0  0
   -0.3400   -2.0740   -1.3110 C   0  0  0  0  0  0  0  0  0  0  0  0
   -0.5360   -3.3460   -1.8270 C   0  0  0  0  0  0  0  0  0  0  0  0
   -1.7260   -3.9790   -1.6140 C   0  0  0  0  0  0  0  0  0  0  0  0
   -2.7310   -3.3860   -0.8990 C   0  0  0  0  0  0  0  0  0  0  0  0
   -2.5510   -2.0950   -0.3700 C   0  0  0  0  0  0  0  0  0  0  0  0
   -1.3590   -1.4630   -0.5920 C   0  0  0  0  0  0  0  0  0  0  0  0
   -1.0980   -0.1980   -0.0510 C   0  0  0  0  0  0  0  0  0  0  0  0
   -2.0260    0.4580    0.6710 C   0  0  0  0  0  0  0  0  0  0  0  0
   -3.3140    0.0380    0.9020 O   0  0  0  0  0  0  0  0  0  0  0  0
   -4.3790    0.5530    0.0530 C   0  0  0  0  0  0  0  0  0  0  0  0
   -5.6480   -0.0480    0.5540 C   0  0  0  0  0  0  0  0  0  0  0  0
   -1.7210    1.7070    1.2430 C   0  0  0  0  0  0  0  0  0  0  0  0
   -2.6430    2.4230    2.1050 C   0  0  0  0  0  0  0  0  0  0  0  0
   -3.7430    1.9440    2.4200 O   0  0  0  0  0  0  0  0  0  0  0  0
   -2.3060    3.6660    2.5950 O   0  0  0  0  0  0  0  0  0  0  0  0
   -0.4710    2.2350    1.0350 C   0  0  0  0  0  0  0  0  0  0  0  0
    0.4790    1.5920    0.2960 C   0  0  0  0  0  0  0  0  0  0  0  0
    0.1840    0.3590   -0.2670 C   0  0  0  0  0  0  0  0  0  0  0  0
  1  2  1  0
  2  3  1  0
  3  4  1  0
  4  5  2  0
  4  6  1  0
  6  7  1  0
  7  8  1  0
  7 27  1  0
  8  9  2  0
  8 10  1  0
 10 11  2  0
 10 15  1  0
 11 12  1  0
 12 13  2  0
 13 14  1  0
 14 15  2  0
 15 16  1  0
 16 17  2  0
 16 27  1  0
 17 18  1  0
 17 21  1  0
 18 19  1  0
 19 20  1  0
 21 22  1  0
 21 25  2  0
 22 23  2  0
 22 24  1  0
 25 26  1  0
 26 27  2  0
M  END
