
     RDKit          3D

 26 28  0  0  0  0  0  0  0  0999 V2000
    0.8110   -1.8450   -2.3540 C   0  0  0  0  0  0  0  0  0  0  0  0
    1.4730   -0.8180   -1.5770 N   0  0  0  0  0  0  0  0  0  0  0  0
    0.9240   -0.2360   -0.4030 C   0  0  0  0  0  0  0  0  0  0  0  0
    1.6610    0.3700    0.5050 C   0  0  0  0  0  0  0  0  0  0  0  0
    3.0960    0.5290    0.4310 C   0  0  0  0  0  0  0  0  0  0  0  0
    3.8650    0.0760    1.5040 C   0  0  0  0  0  0  0  0  0  0  0  0
    5.2150    0.2170    1.5220 C   0  0  0  0  0  0  0  0  0  0  0  0
    5.8780    0.8120    0.4780 C   0  0  0  0  0  0  0  0  0  0  0  0
    7.3750    0.9590    0.5100 C   0  0  0  0  0  0  0  0  0  0  0  0
    5.1680    1.2670   -0.5860 C   0  0  0  0  0  0  0  0  0  0  0  0
    3.7810    1.1230   -0.6020 C   0  0  0  0  0  0  0  0  0  0  0  0
   -0.5360   -0.3370   -0.2700 C   0  0  0  0  0  0  0  0  0  0  0  0
   -1.2110   -0.9100   -1.1720 O   0  0  0  0  0  0  0  0  0  0  0  0
   -1.2820    0.1690    0.8190 N   0  0  0  0  0  0  0  0  0  0  0  0
   -2.7150    0.0210    0.8640 C   0  0  0  0  0  0  0  0  0  0  0  0
   -3.4080    1.1560    0.8950 C   0  0  0  0  0  0  0  0  0  0  0  0
   -4.8680    1.3060    0.9430 C   0  0  0  0  0  0  0  0  0  0  0  0
   -5.3970    2.5660    0.6200 O   0  0  0  0  0  0  0  0  0  0  0  0
   -5.3370    2.9370   -0.7680 C   0  0  0  0  0  0  0  0  0  0  0  0
   -5.7180    0.3510    1.2640 C   0  0  0  0  0  0  0  0  0  0  0  0
   -5.4570   -0.9840    1.6220 O   0  0  0  0  0  0  0  0  0  0  0  0
   -4.3660   -1.7810    1.2200 C   0  0  0  0  0  0  0  0  0  0  0  0
   -3.1340   -1.3780    0.8750 C   0  0  0  0  0  0  0  0  0  0  0  0
   -2.3700   -2.4920    0.5450 O   0  0  0  0  0  0  0  0  0  0  0  0
   -3.2250   -3.6090    0.4010 C   0  0  0  0  0  0  0  0  0  0  0  0
   -4.3880   -3.1600    1.1100 O   0  0  0  0  0  0  0  0  0  0  0  0
  1  2  1  0
  2  3  1  0
  3  4  2  3
  3 12  1  0
  4  5  1  0
  5  6  2  0
  5 11  1  0
  6  7  1  0
  7  8  2  0
  8  9  1  0
  8 10  1  0
 10 11  2  0
 12 13  2  0
 12 14  1  0
 14 15  1  0
 15 16  2  0
 15 23  1  0
 16 17  1  0
 17 18  1  0
 17 20  2  0
 18 19  1  0
 20 21  1  0
 21 22  1  0
 22 23  2  0
 22 26  1  0
 23 24  1  0
 24 25  1  0
 25 26  1  0
M  END
