
     RDKit          3D

 27 29  0  0  0  0  0  0  0  0999 V2000
   -6.0150    4.1160    0.9000 C   0  0  0  0  0  0  0  0  0  0  0  0
   -5.5850    2.7330    0.4960 C   0  0  0  0  0  0  0  0  0  0  0  0
   -4.0850    2.6530    0.5790 C   0  0  0  0  0  0  0  0  0  0  0  0
   -3.4810    3.6660    0.9420 O   0  0  0  0  0  0  0  0  0  0  0  0
   -3.4100    1.4540    0.2510 N   0  0  0  0  0  0  0  0  0  0  0  0
   -2.0120    1.2700    0.2940 C   0  0  0  0  0  0  0  0  0  0  0  0
   -1.1740    2.2150    0.6520 C   0  0  0  0  0  0  0  0  0  0  0  0
    0.2930    2.0540    0.7080 C   0  0  0  0  0  0  0  0  0  0  0  0
    1.0300    3.0120    1.0620 O   0  0  0  0  0  0  0  0  0  0  0  0
    0.8430    0.7600    0.3400 C   0  0  0  0  0  0  0  0  0  0  0  0
    2.3080    0.6060    0.3970 C   0  0  0  0  0  0  0  0  0  0  0  0
    2.9950    1.6160    0.7650 O   0  0  0  0  0  0  0  0  0  0  0  0
    3.0170   -0.5550    0.0830 N   0  0  0  0  0  0  0  0  0  0  0  0
    4.4110   -0.7770    0.1090 C   0  0  0  0  0  0  0  0  0  0  0  0
    5.3740    0.1750    0.2540 C   0  0  0  0  0  0  0  0  0  0  0  0
    6.7450   -0.0960    0.2900 C   0  0  0  0  0  0  0  0  0  0  0  0
    7.1670   -1.3950    0.1720 C   0  0  0  0  0  0  0  0  0  0  0  0
    6.2290   -2.3880    0.0230 C   0  0  0  0  0  0  0  0  0  0  0  0
    4.8850   -2.0960   -0.0090 C   0  0  0  0  0  0  0  0  0  0  0  0
    0.0170   -0.2150   -0.0270 C   0  0  0  0  0  0  0  0  0  0  0  0
   -1.4330   -0.0590   -0.0820 C   0  0  0  0  0  0  0  0  0  0  0  0
   -2.2210   -1.0310   -0.4450 C   0  0  0  0  0  0  0  0  0  0  0  0
   -1.7490   -2.3500   -0.8260 C   0  0  0  0  0  0  0  0  0  0  0  0
   -2.5880   -3.3490   -1.2020 C   0  0  0  0  0  0  0  0  0  0  0  0
   -1.8630   -4.4880   -1.5080 O   0  0  0  0  0  0  0  0  0  0  0  0
   -0.5590   -4.2750   -0.9670 C   0  0  0  0  0  0  0  0  0  0  0  0
   -0.4670   -2.8860   -0.9030 O   0  0  0  0  0  0  0  0  0  0  0  0
  1  2  1  0
  2  3  1  0
  3  4  2  0
  3  5  1  0
  5  6  1  0
  6  7  2  0
  6 21  1  0
  7  8  1  0
  8  9  2  0
  8 10  1  0
 10 11  1  0
 10 20  2  0
 11 12  2  0
 11 13  1  0
 13 14  1  0
 14 15  2  0
 14 19  1  0
 15 16  1  0
 16 17  2  0
 17 18  1  0
 18 19  2  0
 20 21  1  0
 21 22  2  3
 22 23  1  0
 23 24  2  0
 23 27  1  0
 24 25  1  0
 25 26  1  0
 26 27  1  0
M  END
