
     RDKit          3D

 27 29  0  0  0  0  0  0  0  0999 V2000
   -4.6360   -0.8770   -1.5060 C   0  0  0  0  0  0  0  0  0  0  0  0
   -3.8770    0.1430   -0.7190 C   0  0  0  0  0  0  0  0  0  0  0  0
   -4.5330    1.1830   -0.0930 C   0  0  0  0  0  0  0  0  0  0  0  0
   -3.7960    2.1000    0.6200 C   0  0  0  0  0  0  0  0  0  0  0  0
   -4.5000    3.2230    1.2970 C   0  0  0  0  0  0  0  0  0  0  0  0
   -2.4070    1.9460    0.6860 C   0  0  0  0  0  0  0  0  0  0  0  0
   -1.7650    2.9280    1.4280 O   0  0  0  0  0  0  0  0  0  0  0  0
   -1.7660    0.9050    0.0590 C   0  0  0  0  0  0  0  0  0  0  0  0
   -0.4250    0.7660    0.1360 O   0  0  0  0  0  0  0  0  0  0  0  0
    0.3620   -0.0090    0.9210 C   0  0  0  0  0  0  0  0  0  0  0  0
    1.2120   -0.8980    0.2410 C   0  0  0  0  0  0  0  0  0  0  0  0
    2.0430   -1.7230    0.8980 N   0  0  0  0  0  0  0  0  0  0  0  0
    2.9330   -2.6690    0.2240 C   0  0  0  0  0  0  0  0  0  0  0  0
    4.2550   -1.9840    0.0170 C   0  0  0  0  0  0  0  0  0  0  0  0
    4.1320   -0.7790   -0.8310 C   0  0  0  0  0  0  0  0  0  0  0  0
    4.4310    0.4850   -0.4840 C   0  0  0  0  0  0  0  0  0  0  0  0
    4.1570    1.3370   -1.6240 C   0  0  0  0  0  0  0  0  0  0  0  0
    4.2860    2.7060   -1.7650 O   0  0  0  0  0  0  0  0  0  0  0  0
    3.7330    0.5180   -2.5740 C   0  0  0  0  0  0  0  0  0  0  0  0
    3.6810   -0.7300   -2.2140 C   0  0  0  0  0  0  0  0  0  0  0  0
    2.0950   -1.7300    2.2560 C   0  0  0  0  0  0  0  0  0  0  0  0
    2.8860   -2.5170    2.8240 O   0  0  0  0  0  0  0  0  0  0  0  0
    1.2910   -0.8870    2.9280 N   0  0  0  0  0  0  0  0  0  0  0  0
    0.4460   -0.0480    2.2850 C   0  0  0  0  0  0  0  0  0  0  0  0
   -0.2860    0.7190    2.9530 O   0  0  0  0  0  0  0  0  0  0  0  0
   -2.5060   -0.0120   -0.6550 C   0  0  0  0  0  0  0  0  0  0  0  0
   -1.8490   -1.1680   -1.3610 C   0  0  0  0  0  0  0  0  0  0  0  0
  1  2  1  0
  2  3  2  0
  2 26  1  0
  3  4  1  0
  4  5  1  0
  4  6  2  0
  6  7  1  0
  6  8  1  0
  8  9  1  0
  8 26  2  0
  9 10  1  0
 10 11  2  0
 10 24  1  0
 11 12  1  0
 12 13  1  0
 12 21  1  0
 13 14  1  0
 14 15  1  0
 15 16  2  0
 15 20  1  0
 16 17  1  0
 17 18  1  0
 17 19  2  0
 19 20  2  0
 21 22  2  0
 21 23  1  0
 23 24  1  0
 24 25  2  0
 26 27  1  0
M  END
