
     RDKit          3D

 27 29  0  0  0  0  0  0  0  0999 V2000
    7.1300   -2.5160    1.4520 C   0  0  0  0  0  0  0  0  0  0  0  0
    7.0170   -1.0380    1.3430 C   0  0  0  0  0  0  0  0  0  0  0  0
    5.9520   -0.5420    0.6070 O   0  0  0  0  0  0  0  0  0  0  0  0
    4.6110   -0.7730    0.8980 C   0  0  0  0  0  0  0  0  0  0  0  0
    4.4040   -1.4940    1.9130 O   0  0  0  0  0  0  0  0  0  0  0  0
    3.5280   -0.2270    0.0960 C   0  0  0  0  0  0  0  0  0  0  0  0
    2.2080   -0.4930    0.4430 C   0  0  0  0  0  0  0  0  0  0  0  0
    1.1740    0.0240   -0.3090 C   0  0  0  0  0  0  0  0  0  0  0  0
   -0.1530   -0.2430    0.0460 C   0  0  0  0  0  0  0  0  0  0  0  0
   -1.1790    0.2810   -0.7070 C   0  0  0  0  0  0  0  0  0  0  0  0
   -2.5920    0.0020   -0.3160 C   0  0  0  0  0  0  0  0  0  0  0  0
   -3.2060    1.2020    0.3790 C   0  0  0  0  0  0  0  0  0  0  0  0
   -4.5530    0.8870    0.7450 N   0  0  0  0  0  0  0  0  0  0  0  0
   -5.5580    0.5470   -0.1740 C   0  0  0  0  0  0  0  0  0  0  0  0
   -5.2720    0.5140   -1.4030 O   0  0  0  0  0  0  0  0  0  0  0  0
   -6.9220    0.2280    0.2250 C   0  0  0  0  0  0  0  0  0  0  0  0
   -7.9470   -0.1110   -0.6160 C   0  0  0  0  0  0  0  0  0  0  0  0
   -9.0550   -0.3250    0.2130 C   0  0  0  0  0  0  0  0  0  0  0  0
   -8.6280   -0.1030    1.4980 C   0  0  0  0  0  0  0  0  0  0  0  0
   -7.3570    0.2230    1.4580 O   0  0  0  0  0  0  0  0  0  0  0  0
   -0.8390    1.0560   -1.7930 C   0  0  0  0  0  0  0  0  0  0  0  0
   -1.7410    1.5530   -2.5070 O   0  0  0  0  0  0  0  0  0  0  0  0
    0.4510    1.3050   -2.1240 N   0  0  0  0  0  0  0  0  0  0  0  0
    1.4710    0.8060   -1.4060 C   0  0  0  0  0  0  0  0  0  0  0  0
    2.7730    1.0800   -1.7650 C   0  0  0  0  0  0  0  0  0  0  0  0
    3.8100    0.5520   -0.9970 C   0  0  0  0  0  0  0  0  0  0  0  0
    5.2100    0.8570   -1.3900 C   0  0  0  0  0  0  0  0  0  0  0  0
  1  2  1  0
  2  3  1  0
  3  4  1  0
  4  5  2  0
  4  6  1  0
  6  7  2  0
  6 26  1  0
  7  8  1  0
  8  9  1  0
  8 24  2  0
  9 10  2  0
 10 11  1  0
 10 21  1  0
 11 12  1  0
 12 13  1  0
 13 14  1  0
 14 15  2  0
 14 16  1  0
 16 17  2  0
 16 20  1  0
 17 18  1  0
 18 19  2  0
 19 20  1  0
 21 22  2  0
 21 23  1  0
 23 24  1  0
 24 25  1  0
 25 26  2  0
 26 27  1  0
M  END
