
     RDKit          3D

 20 22  0  0  0  0  0  0  0  0999 V2000
    6.1030   -1.4060    1.4670 C   0  0  0  0  0  0  0  0  0  0  0  0
    5.0010   -0.3890    1.4260 C   0  0  0  0  0  0  0  0  0  0  0  0
    3.8250   -0.8570    0.7620 N   0  0  0  0  0  0  0  0  0  0  0  0
    2.6700   -0.0670    0.6120 C   0  0  0  0  0  0  0  0  0  0  0  0
    2.6790    1.2130    1.1260 C   0  0  0  0  0  0  0  0  0  0  0  0
    1.5420    1.9620    0.9680 C   0  0  0  0  0  0  0  0  0  0  0  0
    1.4960    3.5990    1.6030 Cl  0  0  0  0  0  0  0  0  0  0  0  0
    0.4260    1.4320    0.3080 C   0  0  0  0  0  0  0  0  0  0  0  0
    0.3990    0.1720   -0.2060 C   0  0  0  0  0  0  0  0  0  0  0  0
   -0.7210   -0.4650   -0.8840 C   0  0  0  0  0  0  0  0  0  0  0  0
   -0.6700   -1.7060   -1.4630 N   0  0  0  0  0  0  0  0  0  0  0  0
   -1.8130   -2.0370   -1.9860 N   0  0  0  0  0  0  0  0  0  0  0  0
   -2.6580   -1.0300   -1.7720 C   0  0  0  0  0  0  0  0  0  0  0  0
   -1.9770   -0.0640   -1.0910 N   0  0  0  0  0  0  0  0  0  0  0  0
   -2.5490    1.1710   -0.6650 C   0  0  0  0  0  0  0  0  0  0  0  0
   -4.0820    1.1450   -0.9030 C   0  0  0  0  0  0  0  0  0  0  0  0
   -4.7540    0.1480   -0.0020 C   0  0  0  0  0  0  0  0  0  0  0  0
   -5.3920   -0.9750   -0.8310 C   0  0  0  0  0  0  0  0  0  0  0  0
   -4.3500   -1.0850   -2.3370 S   0  0  0  0  0  0  0  0  0  0  0  0
    1.5640   -0.5760   -0.0360 C   0  0  0  0  0  0  0  0  0  0  0  0
  1  2  1  0
  2  3  1  0
  3  4  1  0
  4  5  2  0
  4 20  1  0
  5  6  1  0
  6  7  1  0
  6  8  2  0
  8  9  1  0
  9 10  1  0
  9 20  2  0
 10 11  2  0
 10 14  1  0
 11 12  1  0
 12 13  2  0
 13 14  1  0
 13 19  1  0
 14 15  1  0
 15 16  1  0
 16 17  1  0
 17 18  1  0
 18 19  1  0
M  END
