
     RDKit          3D

 27 30  0  0  0  0  0  0  0  0999 V2000
   -3.7010   -1.9000   -1.1910 C   0  0  0  0  0  0  0  0  0  0  0  0
   -3.8060   -0.7650   -0.2740 C   0  0  0  0  0  0  0  0  0  0  0  0
   -2.7830   -0.2730    0.3910 C   0  0  0  0  0  0  0  0  0  0  0  0
   -1.4670   -0.9180    0.1870 C   0  0  0  0  0  0  0  0  0  0  0  0
   -1.1490   -2.2550    0.1220 C   0  0  0  0  0  0  0  0  0  0  0  0
    0.1910   -2.3770   -0.0930 C   0  0  0  0  0  0  0  0  0  0  0  0
    0.9540   -3.4340   -0.2270 O   0  0  0  0  0  0  0  0  0  0  0  0
    2.2500   -3.3390   -0.4340 C   0  0  0  0  0  0  0  0  0  0  0  0
    3.0020   -4.3520   -0.5650 O   0  0  0  0  0  0  0  0  0  0  0  0
    2.8530   -2.0980   -0.5170 C   0  0  0  0  0  0  0  0  0  0  0  0
    4.2110   -1.9320   -0.7370 C   0  0  0  0  0  0  0  0  0  0  0  0
    4.9250   -2.9560   -0.8640 O   0  0  0  0  0  0  0  0  0  0  0  0
    4.7600   -0.6920   -0.8140 N   0  0  0  0  0  0  0  0  0  0  0  0
    4.0180    0.4220   -0.6820 C   0  0  0  0  0  0  0  0  0  0  0  0
    4.6420    1.7650   -0.7710 C   0  0  0  0  0  0  0  0  0  0  0  0
    5.1010    2.2300    0.5950 C   0  0  0  0  0  0  0  0  0  0  0  0
    4.0570    2.3150    1.4900 O   0  0  0  0  0  0  0  0  0  0  0  0
    2.6620    0.2690   -0.4620 C   0  0  0  0  0  0  0  0  0  0  0  0
    2.0620   -0.9650   -0.3770 C   0  0  0  0  0  0  0  0  0  0  0  0
    0.7090   -1.1040   -0.1600 C   0  0  0  0  0  0  0  0  0  0  0  0
   -0.3090   -0.2550    0.0110 N   0  0  0  0  0  0  0  0  0  0  0  0
   -2.8700    0.8160    1.2710 O   0  0  0  0  0  0  0  0  0  0  0  0
   -4.0000    1.6200    1.3160 C   0  0  1  0  0  0  0  0  0  0  0  0
   -3.6640    3.0970    1.3190 C   0  0  0  0  0  0  0  0  0  0  0  0
   -4.9180    1.2750    0.2160 C   0  0  0  0  0  0  0  0  0  0  0  0
   -5.4600    2.1380   -0.4270 O   0  0  0  0  0  0  0  0  0  0  0  0
   -5.1720   -0.1440   -0.0970 C   0  0  0  0  0  0  0  0  0  0  0  0
  1  2  1  0
  2  3  2  0
  2 27  1  0
  3  4  1  0
  3 22  1  0
  4  5  2  0
  4 21  1  0
  5  6  1  0
  6  7  1  0
  6 20  2  0
  7  8  1  0
  8  9  2  0
  8 10  1  0
 10 11  1  0
 10 19  2  0
 11 12  2  0
 11 13  1  0
 13 14  1  0
 14 15  1  0
 14 18  2  0
 15 16  1  0
 16 17  1  0
 18 19  1  0
 19 20  1  0
 20 21  1  0
 22 23  1  0
 23 24  1  6
 23 25  1  0
 25 26  2  0
 25 27  1  0
M  END
