
     RDKit          3D

 20 21  0  0  0  0  0  0  0  0999 V2000
   -3.7210    2.3470   -1.5620 C   0  0  0  0  0  0  0  0  0  0  0  0
   -4.2680    1.1640   -1.3200 C   0  0  0  0  0  0  0  0  0  0  0  0
   -5.9340    0.9740   -1.7710 Cl  0  0  0  0  0  0  0  0  0  0  0  0
   -3.4810    0.1080   -0.7110 C   0  0  0  0  0  0  0  0  0  0  0  0
   -3.9710   -1.0790   -0.4480 C   0  0  0  0  0  0  0  0  0  0  0  0
   -5.3670   -1.4830   -0.7390 C   0  0  0  0  0  0  0  0  0  0  0  0
   -2.0410    0.3640   -0.3840 C   0  0  0  0  0  0  0  0  0  0  0  0
   -1.3440   -0.7280    0.1270 N   0  0  0  0  0  0  0  0  0  0  0  0
   -1.0150   -1.8230   -0.6950 C   0  0  0  0  0  0  0  0  0  0  0  0
    0.4220   -1.8480   -1.1810 C   0  0  0  0  0  0  0  0  0  0  0  0
    1.2850   -0.8120   -0.5390 C   0  0  0  0  0  0  0  0  0  0  0  0
    0.9910   -0.6330    0.9310 C   0  0  1  0  0  0  0  0  0  0  0  0
    1.7430    0.9310    1.4540 S   0  0  0  0  0  0  0  0  0  0  0  0
    3.5170    0.7750    1.3370 C   0  0  0  0  0  0  0  0  0  0  0  0
    4.2470   -0.2750    0.9410 N   0  0  0  0  0  0  0  0  0  0  0  0
    5.5460    0.0260    1.0030 N   0  0  0  0  0  0  0  0  0  0  0  0
    5.6490    1.3010    1.4490 C   0  0  0  0  0  0  0  0  0  0  0  0
    6.9230    2.0630    1.6740 C   0  0  0  0  0  0  0  0  0  0  0  0
    4.3940    1.7420    1.6480 N   0  0  0  0  0  0  0  0  0  0  0  0
   -0.4820   -0.5840    1.2270 C   0  0  0  0  0  0  0  0  0  0  0  0
  1  2  2  0
  2  3  1  0
  2  4  1  0
  4  5  2  3
  4  7  1  0
  5  6  1  0
  7  8  1  0
  8  9  1  0
  8 20  1  0
  9 10  1  0
 10 11  1  0
 11 12  1  0
 12 13  1  6
 12 20  1  0
 13 14  1  0
 14 15  2  0
 14 19  1  0
 15 16  1  0
 16 17  2  0
 17 18  1  0
 17 19  1  0
M  END
