
     RDKit          3D

 20 21  0  0  0  0  0  0  0  0999 V2000
   -2.0970    2.1540   -2.1050 C   0  0  0  0  0  0  0  0  0  0  0  0
   -2.0280    1.4720   -0.9760 C   0  0  0  0  0  0  0  0  0  0  0  0
   -2.1060    2.1580    0.2630 N   0  0  0  0  0  0  0  0  0  0  0  0
   -2.5900    1.4940    1.4200 C   0  0  0  0  0  0  0  0  0  0  0  0
   -2.9680    0.2100    1.3040 C   0  0  0  0  0  0  0  0  0  0  0  0
   -3.5740   -0.6590    2.7130 Cl  0  0  0  0  0  0  0  0  0  0  0  0
   -2.8940   -0.4840    0.0450 C   0  0  0  0  0  0  0  0  0  0  0  0
   -3.6610   -1.4860   -0.2980 C   0  0  0  0  0  0  0  0  0  0  0  0
   -4.7250   -2.0550    0.5630 C   0  0  0  0  0  0  0  0  0  0  0  0
   -1.8700   -0.0070   -0.9400 C   0  0  2  0  0  0  0  0  0  0  0  0
   -0.1930   -0.3900   -0.3640 S   0  0  0  0  0  0  0  0  0  0  0  0
    0.9540    0.1840   -1.6030 C   0  0  0  0  0  0  0  0  0  0  0  0
    0.6960    0.7940   -2.7690 N   0  0  0  0  0  0  0  0  0  0  0  0
    1.8190    1.0630   -3.4110 N   0  0  0  0  0  0  0  0  0  0  0  0
    2.8270    0.6140   -2.6390 C   0  0  0  0  0  0  0  0  0  0  0  0
    2.2960    0.0680   -1.5180 N   0  0  0  0  0  0  0  0  0  0  0  0
    3.0200   -0.5290   -0.4300 C   0  0  0  0  0  0  0  0  0  0  0  0
    3.3730    0.4800    0.6420 C   0  0  0  0  0  0  0  0  0  0  0  0
    4.1340   -0.2270    1.7520 C   0  0  0  0  0  0  0  0  0  0  0  0
    3.3110   -1.3270    2.3730 C   0  0  0  0  0  0  0  0  0  0  0  0
  1  2  2  0
  2  3  1  0
  2 10  1  0
  3  4  1  0
  4  5  2  0
  5  6  1  0
  5  7  1  0
  7  8  2  3
  7 10  1  0
  8  9  1  0
 10 11  1  1
 11 12  1  0
 12 13  2  0
 12 16  1  0
 13 14  1  0
 14 15  2  0
 15 16  1  0
 16 17  1  0
 17 18  1  0
 18 19  1  0
 19 20  1  0
M  END
