
     RDKit          3D

 27 30  0  0  0  0  0  0  0  0999 V2000
    6.0310   -2.5220   -0.0150 N   0  0  0  0  0  0  0  0  0  0  0  0
    5.1080   -1.5490   -0.4320 C   0  0  0  0  0  0  0  0  0  0  0  0
    5.3490   -0.7910   -1.4070 O   0  0  0  0  0  0  0  0  0  0  0  0
    3.8210   -1.3690    0.2450 C   0  0  0  0  0  0  0  0  0  0  0  0
    2.9070   -0.4230   -0.1480 C   0  0  0  0  0  0  0  0  0  0  0  0
    1.6830   -0.2120    0.4550 C   0  0  0  0  0  0  0  0  0  0  0  0
    0.7570    0.8210   -0.0220 C   0  0  0  0  0  0  0  0  0  0  0  0
    1.2260    2.0000   -0.5880 C   0  0  0  0  0  0  0  0  0  0  0  0
    0.4010    3.0020   -1.0520 C   0  0  0  0  0  0  0  0  0  0  0  0
   -0.9780    2.8150   -0.9450 C   0  0  0  0  0  0  0  0  0  0  0  0
   -1.4860    1.6590   -0.3900 C   0  0  0  0  0  0  0  0  0  0  0  0
   -2.8770    1.5250   -0.3080 O   0  0  0  0  0  0  0  0  0  0  0  0
   -3.4710    0.3930    0.2360 C   0  0  0  0  0  0  0  0  0  0  0  0
   -3.4370    0.1310    1.5330 C   0  0  0  0  0  0  0  0  0  0  0  0
   -4.0550   -1.0580    2.1520 C   0  0  0  0  0  0  0  0  0  0  0  0
   -4.6880   -1.8920    1.2180 O   0  0  0  0  0  0  0  0  0  0  0  0
   -4.7480   -1.6610   -0.1300 C   0  0  0  0  0  0  0  0  0  0  0  0
   -4.1690   -0.5680   -0.6190 C   0  0  0  0  0  0  0  0  0  0  0  0
   -4.2240   -0.3200   -2.0010 N   0  0  0  0  0  0  0  0  0  0  0  0
   -0.6140    0.6870    0.0600 C   0  0  0  0  0  0  0  0  0  0  0  0
   -1.6280    3.9240   -1.4630 O   0  0  0  0  0  0  0  0  0  0  0  0
   -0.6690    4.6520   -2.2170 C   0  0  0  0  0  0  0  0  0  0  0  0
    0.5780    4.2430   -1.6440 O   0  0  0  0  0  0  0  0  0  0  0  0
    1.3860   -1.0330    1.5350 C   0  0  0  0  0  0  0  0  0  0  0  0
    2.2880   -1.9970    1.9560 C   0  0  0  0  0  0  0  0  0  0  0  0
    3.4990   -2.1710    1.3220 C   0  0  0  0  0  0  0  0  0  0  0  0
    4.4200   -3.1370    1.7320 O   0  0  0  0  0  0  0  0  0  0  0  0
  1  2  1  0
  2  3  2  0
  2  4  1  0
  4  5  2  0
  4 26  1  0
  5  6  1  0
  6  7  1  0
  6 24  2  0
  7  8  2  0
  7 20  1  0
  8  9  1  0
  9 10  2  0
  9 23  1  0
 10 11  1  0
 10 21  1  0
 11 12  1  0
 11 20  2  0
 12 13  1  0
 13 14  2  0
 13 18  1  0
 14 15  1  0
 15 16  1  0
 16 17  1  0
 17 18  2  0
 18 19  1  0
 21 22  1  0
 22 23  1  0
 24 25  1  0
 25 26  2  0
 26 27  1  0
M  END
