
     RDKit          3D

 20 22  0  0  0  0  0  0  0  0999 V2000
   -4.5060   -1.5380    1.7670 C   0  0  0  0  0  0  0  0  0  0  0  0
   -4.2950   -1.0730    0.5650 C   0  0  0  0  0  0  0  0  0  0  0  0
   -5.2930   -0.9590   -0.5470 C   0  0  0  0  0  0  0  0  0  0  0  0
   -4.8140    0.2240   -1.2310 N   0  0  0  0  0  0  0  0  0  0  0  0
   -3.3810    0.2180   -1.0600 C   0  0  0  0  0  0  0  0  0  0  0  0
   -2.3910    0.8120   -1.7440 N   0  0  0  0  0  0  0  0  0  0  0  0
   -1.0910    0.6650   -1.4010 C   0  0  0  0  0  0  0  0  0  0  0  0
   -0.1210    1.2760   -2.1040 N   0  0  0  0  0  0  0  0  0  0  0  0
    1.1450    1.1570   -1.7940 N   0  0  0  0  0  0  0  0  0  0  0  0
    1.5640    0.4020   -0.7360 C   0  0  0  0  0  0  0  0  0  0  0  0
    2.9930    0.3080   -0.3860 C   0  0  0  0  0  0  0  0  0  0  0  0
    3.4070    1.2040    0.7550 C   0  0  0  0  0  0  0  0  0  0  0  0
    5.1740    1.0050    1.1180 S   0  0  0  0  0  0  0  0  0  0  0  0
    6.2260    1.5840   -0.2160 C   0  0  0  0  0  0  0  0  0  0  0  0
    0.6420   -0.2710    0.0510 C   0  0  0  0  0  0  0  0  0  0  0  0
    1.0420   -1.1270    1.1860 C   0  0  0  0  0  0  0  0  0  0  0  0
   -0.7020   -0.1130   -0.3160 C   0  0  0  0  0  0  0  0  0  0  0  0
   -1.7160   -0.7200    0.3840 C   0  0  0  0  0  0  0  0  0  0  0  0
   -1.3110   -1.7000    1.7670 Cl  0  0  0  0  0  0  0  0  0  0  0  0
   -3.0520   -0.5580    0.0170 C   0  0  0  0  0  0  0  0  0  0  0  0
  1  2  2  0
  2  3  1  0
  2 20  1  0
  3  4  1  0
  4  5  1  0
  5  6  2  0
  5 20  1  0
  6  7  1  0
  7  8  2  0
  7 17  1  0
  8  9  1  0
  9 10  2  0
 10 11  1  0
 10 15  1  0
 11 12  1  0
 12 13  1  0
 13 14  1  0
 15 16  1  0
 15 17  2  0
 17 18  1  0
 18 19  1  0
 18 20  2  0
M  END
