
     RDKit          3D

 22 22  0  0  0  0  0  0  0  0999 V2000
   -2.8140   -3.0160   -0.2850 C   0  0  0  0  0  0  0  0  0  0  0  0
   -3.7320   -2.3500   -0.9710 C   0  0  0  0  0  0  0  0  0  0  0  0
   -4.8000   -3.0400   -1.5820 O   0  0  0  0  0  0  0  0  0  0  0  0
   -5.7690   -2.3580   -2.3000 C   0  0  0  0  0  0  0  0  0  0  0  0
   -5.6620   -1.0440   -2.3930 C   0  0  0  0  0  0  0  0  0  0  0  0
   -4.5780   -0.2880   -1.7810 C   0  0  0  0  0  0  0  0  0  0  0  0
   -3.6350   -0.9080   -1.0890 C   0  0  0  0  0  0  0  0  0  0  0  0
   -2.6060   -0.1570   -0.5050 N   0  0  0  0  0  0  0  0  0  0  0  0
   -1.2360   -0.2380   -0.8400 C   0  0  0  0  0  0  0  0  0  0  0  0
   -0.8620   -1.0270   -1.7300 O   0  0  0  0  0  0  0  0  0  0  0  0
   -0.2660    0.6430   -0.0990 C   0  0  2  0  0  0  0  0  0  0  0  0
   -0.6820    2.0890   -0.2000 C   0  0  0  0  0  0  0  0  0  0  0  0
    0.3190    2.9280    0.5570 C   0  0  2  0  0  0  0  0  0  0  0  0
    0.3770    2.5430    2.0140 C   0  0  0  0  0  0  0  0  0  0  0  0
   -0.0610    4.4090    0.4380 C   0  0  0  0  0  0  0  0  0  0  0  0
    1.0830    0.4180   -0.5850 N   0  0  0  0  0  0  0  0  0  0  0  0
    2.0100   -0.2100    0.3000 C   0  0  0  0  0  0  0  0  0  0  0  0
    1.6300   -0.5410    1.4490 O   0  0  0  0  0  0  0  0  0  0  0  0
    3.4120   -0.4870   -0.0870 C   0  0  0  0  0  0  0  0  0  0  0  0
    4.1130   -1.1490    1.0580 C   0  0  2  0  0  0  0  0  0  0  0  0
    5.5560   -1.4180    0.6140 C   0  0  0  0  0  0  0  0  0  0  0  0
    3.5060   -2.4500    1.4600 C   0  0  0  0  0  0  0  0  0  0  0  0
  1  2  2  0
  2  3  1  0
  2  7  1  0
  3  4  1  0
  4  5  2  0
  5  6  1  0
  6  7  2  0
  7  8  1  0
  8  9  1  0
  9 10  2  0
  9 11  1  0
 11 12  1  6
 11 16  1  0
 12 13  1  0
 13 14  1  1
 13 15  1  0
 16 17  1  0
 17 18  2  0
 17 19  1  0
 19 20  1  0
 20 21  1  6
 20 22  1  0
M  END
