
     RDKit          3D

 22 22  0  0  0  0  0  0  0  0999 V2000
   -6.0150   -1.7730    1.4430 C   0  0  0  0  0  0  0  0  0  0  0  0
   -4.8220   -1.3540    1.1120 C   0  0  0  0  0  0  0  0  0  0  0  0
   -4.2510   -1.7340   -0.1650 C   0  0  0  0  0  0  0  0  0  0  0  0
   -3.0350   -1.2940   -0.4760 C   0  0  0  0  0  0  0  0  0  0  0  0
   -2.3160   -0.4520    0.4630 C   0  0  0  0  0  0  0  0  0  0  0  0
   -0.8870   -0.1570    0.1080 C   0  0  0  0  0  0  0  0  0  0  0  0
   -0.1990    0.7240    1.1280 C   0  0  0  0  0  0  0  0  0  0  0  0
   -1.2960    1.6630    1.6740 C   0  0  0  0  0  0  0  0  0  0  0  0
   -0.6040    2.5760    2.6980 C   0  0  0  0  0  0  0  0  0  0  0  0
   -0.3120   -0.4750   -1.0270 C   0  0  0  0  0  0  0  0  0  0  0  0
    1.0620   -0.2200   -1.3950 C   0  0  0  0  0  0  0  0  0  0  0  0
    1.4030   -0.4820   -2.6260 O   0  0  0  0  0  0  0  0  0  0  0  0
    2.1230    0.2670   -0.6110 N   0  0  0  0  0  0  0  0  0  0  0  0
    3.4370    0.4470   -1.2870 C   0  0  0  0  0  0  0  0  0  0  0  0
    4.4500    0.9710   -0.3090 C   0  0  2  0  0  0  0  0  0  0  0  0
    5.7350    1.1960   -1.0870 C   0  0  0  0  0  0  0  0  0  0  0  0
    4.7230    0.0250    0.8220 C   0  0  0  0  0  0  0  0  0  0  0  0
    4.0870    2.1930    0.2320 O   0  0  0  0  0  0  0  0  0  0  0  0
   -1.0950   -1.2520   -2.0180 C   0  0  0  0  0  0  0  0  0  0  0  0
   -0.5570   -1.5660   -3.1320 O   0  0  0  0  0  0  0  0  0  0  0  0
   -2.4060   -1.6210   -1.7040 N   0  0  0  0  0  0  0  0  0  0  0  0
   -3.1760   -2.3740   -2.6590 C   0  0  0  0  0  0  0  0  0  0  0  0
  1  2  2  0
  2  3  1  0
  3  4  2  3
  4  5  1  0
  4 21  1  0
  5  6  1  0
  6  7  1  0
  6 10  2  0
  7  8  1  0
  8  9  1  0
 10 11  1  0
 10 19  1  0
 11 12  2  0
 11 13  1  0
 13 14  1  0
 14 15  1  0
 15 16  1  6
 15 17  1  0
 15 18  1  0
 19 20  2  0
 19 21  1  0
 21 22  1  0
M  END
