
     RDKit          3D

 22 22  0  0  0  0  0  0  0  0999 V2000
    6.4100   -1.4300    2.0560 C   0  0  0  0  0  0  0  0  0  0  0  0
    6.0410   -0.0900    2.5120 C   0  0  0  0  0  0  0  0  0  0  0  0
    5.1330    0.6750    2.0180 C   0  0  0  0  0  0  0  0  0  0  0  0
    4.2720    0.3930    0.8990 C   0  0  0  0  0  0  0  0  0  0  0  0
    3.3750    1.3030    0.5480 C   0  0  0  0  0  0  0  0  0  0  0  0
    2.4240    1.1910   -0.5430 C   0  0  0  0  0  0  0  0  0  0  0  0
    1.5870    2.2190   -0.7710 C   0  0  0  0  0  0  0  0  0  0  0  0
    0.5870    2.1920   -1.8580 C   0  0  0  0  0  0  0  0  0  0  0  0
    0.1930    0.7550   -2.2210 C   0  0  2  0  0  0  0  0  0  0  0  0
   -0.4690    0.2050   -1.0820 N   0  0  0  0  0  0  0  0  0  0  0  0
   -1.8130   -0.2950   -1.0970 C   0  0  0  0  0  0  0  0  0  0  0  0
   -2.3820   -0.2180   -2.1950 O   0  0  0  0  0  0  0  0  0  0  0  0
   -2.3820   -0.8190    0.0770 N   0  0  0  0  0  0  0  0  0  0  0  0
   -3.7160   -1.3070    0.1580 C   0  0  0  0  0  0  0  0  0  0  0  0
   -4.8480   -0.3910   -0.0330 C   0  0  1  0  0  0  0  0  0  0  0  0
   -5.0270    0.3350   -1.3050 C   0  0  0  0  0  0  0  0  0  0  0  0
   -6.1150   -1.1490    0.3780 C   0  0  0  0  0  0  0  0  0  0  0  0
   -7.3370   -0.3040    0.2230 C   0  0  0  0  0  0  0  0  0  0  0  0
    1.4920    0.0640   -2.5530 C   0  0  0  0  0  0  0  0  0  0  0  0
    2.2830    0.1220   -1.3850 O   0  0  0  0  0  0  0  0  0  0  0  0
    4.2940   -0.7670    0.1290 O   0  0  0  0  0  0  0  0  0  0  0  0
    5.1110   -0.9390   -1.0170 C   0  0  0  0  0  0  0  0  0  0  0  0
  1  2  1  0
  2  3  2  3
  3  4  1  0
  4  5  2  3
  4 21  1  0
  5  6  1  0
  6  7  2  0
  6 20  1  0
  7  8  1  0
  8  9  1  0
  9 10  1  1
  9 19  1  0
 10 11  1  0
 11 12  2  0
 11 13  1  0
 13 14  1  0
 14 15  1  0
 15 16  1  6
 15 17  1  0
 17 18  1  0
 19 20  1  0
 21 22  1  0
M  END
