
     RDKit          3D

 22 22  0  0  0  0  0  0  0  0999 V2000
   -3.5210    2.3170    0.5420 C   0  0  0  0  0  0  0  0  0  0  0  0
   -4.7440    1.8090    0.4700 C   0  0  0  0  0  0  0  0  0  0  0  0
   -5.0120    0.4740   -0.0280 C   0  0  0  0  0  0  0  0  0  0  0  0
   -6.2530    0.0370   -0.0770 C   0  0  0  0  0  0  0  0  0  0  0  0
   -4.0040   -0.3750   -0.4580 O   0  0  0  0  0  0  0  0  0  0  0  0
   -3.4170   -1.2960    0.4420 C   0  0  0  0  0  0  0  0  0  0  0  0
   -3.8860   -1.2600    1.6030 O   0  0  0  0  0  0  0  0  0  0  0  0
   -2.3510   -2.2000   -0.0010 C   0  0  0  0  0  0  0  0  0  0  0  0
   -1.0080   -1.6150   -0.0270 C   0  0  2  0  0  0  0  0  0  0  0  0
    0.0070   -2.6850   -0.5570 C   0  0  0  0  0  0  0  0  0  0  0  0
    1.4020   -2.3060   -0.3060 C   0  0  0  0  0  0  0  0  0  0  0  0
    1.6390   -0.9060   -0.0470 N   0  0  0  0  0  0  0  0  0  0  0  0
    2.8290   -0.3370   -0.5160 C   0  0  0  0  0  0  0  0  0  0  0  0
    3.6260   -1.1050   -1.1450 O   0  0  0  0  0  0  0  0  0  0  0  0
    3.2130    1.0490   -0.3390 C   0  0  0  0  0  0  0  0  0  0  0  0
    2.3980    1.9950    0.3490 N   0  0  0  0  0  0  0  0  0  0  0  0
    4.3770    1.5070   -0.8240 C   0  0  0  0  0  0  0  0  0  0  0  0
    5.3060    0.6150   -1.5570 C   0  0  0  0  0  0  0  0  0  0  0  0
    4.7570    2.9320   -0.6340 C   0  0  0  0  0  0  0  0  0  0  0  0
    0.7010   -0.0800    0.6730 C   0  0  0  0  0  0  0  0  0  0  0  0
   -0.3690   -1.0970    1.1830 C   0  0  1  0  0  0  0  0  0  0  0  0
   -1.1590   -0.4500    2.2470 C   0  0  0  0  0  0  0  0  0  0  0  0
  1  2  2  0
  2  3  1  0
  3  4  2  0
  3  5  1  0
  5  6  1  0
  6  7  2  0
  6  8  1  0
  9  8  1  1
  9 10  1  0
  9 21  1  0
 10 11  1  0
 11 12  1  0
 12 13  1  0
 12 20  1  0
 13 14  2  0
 13 15  1  0
 15 16  1  0
 15 17  2  3
 17 18  1  0
 17 19  1  0
 20 21  1  0
 21 22  1  1
M  END
