
     RDKit          3D

 22 22  0  0  0  0  0  0  0  0999 V2000
    6.0540    1.5730   -1.3820 C   0  0  0  0  0  0  0  0  0  0  0  0
    5.4960    1.1220   -0.1680 O   0  0  0  0  0  0  0  0  0  0  0  0
    5.6930   -0.2380   -0.0180 C   0  0  1  0  0  0  0  0  0  0  0  0
    6.4480   -0.5060    1.2680 C   0  0  0  0  0  0  0  0  0  0  0  0
    4.3720   -0.9410    0.0950 C   0  0  0  0  0  0  0  0  0  0  0  0
    4.3640   -2.1740    0.2360 O   0  0  0  0  0  0  0  0  0  0  0  0
    3.1580   -0.2020    0.0400 N   0  0  0  0  0  0  0  0  0  0  0  0
    1.9250   -0.9490    0.1560 C   0  0  0  0  0  0  0  0  0  0  0  0
    0.7060   -0.0800    0.0860 C   0  0  2  0  0  0  0  0  0  0  0  0
    0.7100    0.6330   -1.2510 C   0  0  0  0  0  0  0  0  0  0  0  0
    0.6540    0.9250    1.2140 C   0  0  0  0  0  0  0  0  0  0  0  0
   -0.5050   -0.9880    0.1480 C   0  0  0  0  0  0  0  0  0  0  0  0
   -1.7510   -0.2050    0.0850 N   0  0  0  0  0  0  0  0  0  0  0  0
   -2.9630   -0.8890    0.1300 C   0  0  0  0  0  0  0  0  0  0  0  0
   -2.8890   -2.1670    0.2250 O   0  0  0  0  0  0  0  0  0  0  0  0
   -4.2770   -0.2800    0.0790 C   0  0  0  0  0  0  0  0  0  0  0  0
   -4.6060    0.9870   -0.0160 C   0  0  0  0  0  0  0  0  0  0  0  0
   -3.7490    2.1880   -0.1020 C   0  0  0  0  0  0  0  0  0  0  0  0
   -6.1030    1.0600   -0.0280 C   0  0  0  0  0  0  0  0  0  0  0  0
   -6.5470   -0.3200    0.0730 C   0  0  0  0  0  0  0  0  0  0  0  0
   -5.5040   -1.0930    0.1350 C   0  0  0  0  0  0  0  0  0  0  0  0
   -5.5730   -2.5810    0.2450 C   0  0  0  0  0  0  0  0  0  0  0  0
  1  2  1  0
  2  3  1  0
  3  4  1  1
  3  5  1  0
  5  6  2  0
  5  7  1  0
  7  8  1  0
  8  9  1  0
  9 10  1  6
  9 11  1  0
  9 12  1  0
 12 13  1  0
 13 14  1  0
 14 15  2  0
 14 16  1  0
 16 17  2  0
 16 21  1  0
 17 18  1  0
 17 19  1  0
 19 20  1  0
 20 21  2  0
 21 22  1  0
M  END
