
     RDKit          3D

 22 22  0  0  0  0  0  0  0  0999 V2000
   -4.7770    2.4180    0.7820 C   0  0  0  0  0  0  0  0  0  0  0  0
   -5.2850    1.2420    0.8840 C   0  0  0  0  0  0  0  0  0  0  0  0
   -4.6800    0.0200    0.4540 C   0  0  0  0  0  0  0  0  0  0  0  0
   -5.4010   -1.1280    0.6350 C   0  0  0  0  0  0  0  0  0  0  0  0
   -4.8050   -2.4020    0.1990 C   0  0  0  0  0  0  0  0  0  0  0  0
   -3.3660   -0.0910   -0.1470 C   0  0  2  0  0  0  0  0  0  0  0  0
   -2.1980    0.2750    0.7450 C   0  0  0  0  0  0  0  0  0  0  0  0
   -0.9930    0.0150   -0.0220 C   0  0  0  0  0  0  0  0  0  0  0  0
   -0.7290   -0.3770   -1.0860 O   0  0  0  0  0  0  0  0  0  0  0  0
    0.3960    0.3880    0.9500 N   0  0  0  0  0  0  0  0  0  0  0  0
    1.3390   -0.0980    0.0750 C   0  0  0  0  0  0  0  0  0  0  0  0
    1.3920   -0.5990   -1.0220 O   0  0  0  0  0  0  0  0  0  0  0  0
    2.6830    0.0890    0.7810 N   0  0  0  0  0  0  0  0  0  0  0  0
    3.8230   -0.3590    0.0830 C   0  0  2  0  0  0  0  0  0  0  0  0
    4.7550   -1.0050    1.0580 C   0  0  0  0  0  0  0  0  0  0  0  0
    6.1290   -0.3530    0.8700 C   0  0  0  0  0  0  0  0  0  0  0  0
    6.4730   -0.5240   -0.5920 C   0  0  0  0  0  0  0  0  0  0  0  0
    5.6710    0.5070   -1.3650 C   0  0  0  0  0  0  0  0  0  0  0  0
    4.4600    0.8750   -0.5620 C   0  0  0  0  0  0  0  0  0  0  0  0
   -3.2540    0.7150   -1.4120 C   0  0  0  0  0  0  0  0  0  0  0  0
   -4.1710    0.5190   -2.5560 C   0  0  0  0  0  0  0  0  0  0  0  0
   -2.3970    1.5760   -1.5600 O   0  0  0  0  0  0  0  0  0  0  0  0
  1  2  2  0
  2  3  1  0
  3  4  2  3
  3  6  1  0
  4  5  1  0
  6  7  1  1
  6 20  1  0
  7  8  1  0
  8  9  2  0
  8 10  1  0
 10 11  1  0
 11 12  2  0
 11 13  1  0
 14 13  1  1
 14 15  1  0
 14 19  1  0
 15 16  1  0
 16 17  1  0
 17 18  1  0
 18 19  1  0
 20 21  1  0
 20 22  2  0
M  END
