
     RDKit          3D

 20 22  0  0  0  0  0  0  0  0999 V2000
   -4.4940   -1.7120    0.9530 C   0  0  0  0  0  0  0  0  0  0  0  0
   -3.4880   -1.4220    0.1770 C   0  0  0  0  0  0  0  0  0  0  0  0
   -2.9050   -2.4880   -0.6100 N   0  0  0  0  0  0  0  0  0  0  0  0
   -1.5520   -2.5690   -1.0400 C   0  0  0  0  0  0  0  0  0  0  0  0
   -1.2480   -3.5060   -1.8070 O   0  0  0  0  0  0  0  0  0  0  0  0
   -0.4670   -1.6470   -0.6630 C   0  0  0  0  0  0  0  0  0  0  0  0
    0.8740   -2.0100   -0.6370 C   0  0  0  0  0  0  0  0  0  0  0  0
    1.6220   -0.9220   -0.2310 C   0  0  0  0  0  0  0  0  0  0  0  0
    2.9560   -0.7330   -0.0370 N   0  0  0  0  0  0  0  0  0  0  0  0
    3.4310    0.4510    0.3700 C   0  0  0  0  0  0  0  0  0  0  0  0
    4.8970    0.6190    0.5710 C   0  0  0  0  0  0  0  0  0  0  0  0
    5.4760    1.0910   -0.7580 C   0  0  0  0  0  0  0  0  0  0  0  0
    2.5560    1.4850    0.5950 C   0  0  0  0  0  0  0  0  0  0  0  0
    1.2020    1.3100    0.4040 C   0  0  0  0  0  0  0  0  0  0  0  0
    0.7180    0.0890   -0.0160 C   0  0  0  0  0  0  0  0  0  0  0  0
   -0.5550   -0.3660   -0.2840 N   0  0  0  0  0  0  0  0  0  0  0  0
   -1.6410    0.5220   -0.1380 C   0  0  0  0  0  0  0  0  0  0  0  0
   -2.9780   -0.0410    0.1230 C   0  0  0  0  0  0  0  0  0  0  0  0
   -3.9350    0.8710    0.3460 C   0  0  0  0  0  0  0  0  0  0  0  0
   -3.6260    2.3140    0.3360 C   0  0  0  0  0  0  0  0  0  0  0  0
  1  2  2  0
  2  3  1  0
  2 18  1  0
  3  4  1  0
  4  5  2  0
  4  6  1  0
  6  7  2  0
  6 16  1  0
  7  8  1  0
  8  9  2  0
  8 15  1  0
  9 10  1  0
 10 11  1  0
 10 13  2  0
 11 12  1  0
 13 14  1  0
 14 15  2  0
 15 16  1  0
 16 17  1  0
 17 18  1  0
 18 19  2  3
 19 20  1  0
M  CHG  1   9   1
M  END
