
     RDKit          3D

 20 22  0  0  0  0  0  0  0  0999 V2000
    3.1860   -2.1650   -0.2880 C   0  0  0  0  0  0  0  0  0  0  0  0
    2.5870   -1.4830    0.7890 O   0  0  0  0  0  0  0  0  0  0  0  0
    1.8120   -0.3470    0.5800 C   0  0  0  0  0  0  0  0  0  0  0  0
    2.4570    0.8560    0.5970 C   0  0  0  0  0  0  0  0  0  0  0  0
    3.8190    1.0220    0.8050 O   0  0  0  0  0  0  0  0  0  0  0  0
    1.6610    1.9610    0.3890 C   0  0  0  0  0  0  0  0  0  0  0  0
    1.9780    3.2420    0.3580 O   0  0  0  0  0  0  0  0  0  0  0  0
    0.9290    3.9570    0.1470 C   0  0  0  0  0  0  0  0  0  0  0  0
   -0.1810    3.1540    0.0220 N   0  0  0  0  0  0  0  0  0  0  0  0
   -1.3960    3.7120   -0.1450 O   0  0  0  0  0  0  0  0  0  0  0  0
    0.2740    1.9110    0.1660 C   0  0  0  0  0  0  0  0  0  0  0  0
   -0.3510    0.6680    0.1510 C   0  0  0  0  0  0  0  0  0  0  0  0
   -1.6990    0.5570   -0.0630 C   0  0  0  0  0  0  0  0  0  0  0  0
   -2.5740    1.6500   -0.4150 C   0  0  0  0  0  0  0  0  0  0  0  0
   -2.2350   -0.7450   -0.0430 C   0  0  0  0  0  0  0  0  0  0  0  0
   -3.5630   -1.0010   -0.2300 O   0  0  0  0  0  0  0  0  0  0  0  0
   -1.4180   -1.8530    0.1790 C   0  0  0  0  0  0  0  0  0  0  0  0
   -1.9950   -3.2080    0.1980 C   0  0  0  0  0  0  0  0  0  0  0  0
   -0.0910   -1.6990    0.3780 C   0  0  0  0  0  0  0  0  0  0  0  0
    0.4540   -0.4420    0.3650 C   0  0  0  0  0  0  0  0  0  0  0  0
  1  2  1  0
  2  3  1  0
  3  4  2  0
  3 20  1  0
  4  5  1  0
  4  6  1  0
  6  7  1  0
  6 11  2  0
  7  8  1  0
  8  9  2  0
  9 10  1  0
  9 11  1  0
 11 12  1  0
 12 13  2  0
 12 20  1  0
 13 14  1  0
 13 15  1  0
 15 16  1  0
 15 17  2  0
 17 18  1  0
 17 19  1  0
 19 20  2  0
M  CHG  2   9   1  10  -1
M  END
