
     RDKit          3D

 20 22  0  0  0  0  0  0  0  0999 V2000
   -2.4870    1.3030    1.6300 C   0  0  0  0  0  0  0  0  0  0  0  0
   -2.5760   -0.1960    1.4750 C   0  0  2  0  0  0  0  0  0  0  0  0
   -2.9090   -0.7570    2.8730 C   0  0  0  0  0  0  0  0  0  0  0  0
   -1.2530   -0.7430    1.0020 C   0  0  0  0  0  0  0  0  0  0  0  0
   -1.1430   -1.0410   -0.3690 N   0  0  0  0  0  0  0  0  0  0  0  0
   -0.2210   -0.1840   -1.0350 C   0  0  0  0  0  0  0  0  0  0  0  0
    1.1870   -0.2940   -0.6430 C   0  0  0  0  0  0  0  0  0  0  0  0
    1.7000   -1.1690    0.2880 C   0  0  0  0  0  0  0  0  0  0  0  0
    3.0450   -1.2070    0.5820 C   0  0  0  0  0  0  0  0  0  0  0  0
    3.5860   -2.1360    1.5710 C   0  0  0  0  0  0  0  0  0  0  0  0
    3.9960   -2.8770    2.3440 N   0  0  0  0  0  0  0  0  0  0  0  0
    3.9210   -0.3620   -0.0540 C   0  0  0  0  0  0  0  0  0  0  0  0
    3.4510    0.5350   -0.9980 C   0  0  0  0  0  0  0  0  0  0  0  0
    2.1080    0.5610   -1.2800 C   0  0  0  0  0  0  0  0  0  0  0  0
    1.9430    1.4850   -2.2110 C   0  0  0  0  0  0  0  0  0  0  0  0
    3.1820    2.0900   -2.5360 N   0  0  0  0  0  0  0  0  0  0  0  0
    4.0990    1.4210   -1.7310 C   0  0  0  0  0  0  0  0  0  0  0  0
   -2.3530   -1.0790   -1.1330 C   0  0  0  0  0  0  0  0  0  0  0  0
   -3.3890   -0.1010   -0.6100 C   0  0  0  0  0  0  0  0  0  0  0  0
   -3.6590   -0.4990    0.6960 O   0  0  0  0  0  0  0  0  0  0  0  0
  2  1  1  1
  2  3  1  0
  2  4  1  0
  2 20  1  0
  4  5  1  0
  5  6  1  0
  5 18  1  0
  6  7  1  0
  7  8  2  0
  7 14  1  0
  8  9  1  0
  9 10  1  0
  9 12  2  0
 10 11  3  0
 12 13  1  0
 13 14  1  0
 13 17  2  0
 14 15  2  0
 15 16  1  0
 16 17  1  0
 18 19  1  0
 19 20  1  0
M  CHG  1  16   1
M  END
