
     RDKit          3D

 20 23  0  0  0  0  0  0  0  0999 V2000
   -6.1280   -0.5140    0.0080 C   0  0  0  0  0  0  0  0  0  0  0  0
   -5.4050    0.7910   -0.2610 C   0  0  0  0  0  0  0  0  0  0  0  0
   -3.9610    0.5940    0.0950 C   0  0  0  0  0  0  0  0  0  0  0  0
   -3.4740    0.8410    1.3460 C   0  0  0  0  0  0  0  0  0  0  0  0
   -2.1310    0.6380    1.6050 C   0  0  0  0  0  0  0  0  0  0  0  0
   -1.2940    0.1910    0.6060 C   0  0  0  0  0  0  0  0  0  0  0  0
    0.1430   -0.0280    0.8760 C   0  0  2  0  0  0  0  0  0  0  0  0
    0.9990    0.7370   -0.0910 C   0  0  0  0  0  0  0  0  0  0  0  0
    2.2240    0.3060   -0.4020 C   0  0  0  0  0  0  0  0  0  0  0  0
    3.2070    0.8680   -1.2890 N   0  0  0  0  0  0  0  0  0  0  0  0
    4.4440    0.2530   -0.8960 C   0  0  2  0  0  0  0  0  0  0  0  0
    5.4370    1.0660   -0.1960 C   0  0  0  0  0  0  0  0  0  0  0  0
    5.7170    0.4970   -1.5790 C   0  0  0  0  0  0  0  0  0  0  0  0
    4.0510   -1.0500   -0.3640 C   0  0  0  0  0  0  0  0  0  0  0  0
    4.7480   -2.1210   -0.3820 O   0  0  0  0  0  0  0  0  0  0  0  0
    2.7460   -0.8840    0.1740 N   0  0  0  0  0  0  0  0  0  0  0  0
    1.9550   -1.6450    1.1050 C   0  0  0  0  0  0  0  0  0  0  0  0
    0.5040   -1.5040    0.6740 C   0  0  0  0  0  0  0  0  0  0  0  0
   -1.8100   -0.0390   -0.6030 N   0  0  0  0  0  0  0  0  0  0  0  0
   -3.1130    0.1500   -0.8820 C   0  0  0  0  0  0  0  0  0  0  0  0
  1  2  1  0
  2  3  1  0
  3  4  2  0
  3 20  1  0
  4  5  1  0
  5  6  2  0
  7  6  1  6
  6 19  1  0
  7  8  1  0
  7 18  1  0
  8  9  2  0
  9 10  1  0
  9 16  1  0
 10 11  1  0
 11 12  1  1
 11 13  1  0
 11 14  1  0
 12 13  1  0
 14 15  2  0
 14 16  1  0
 16 17  1  0
 17 18  1  0
 19 20  2  0
M  CHG  1  19   1
M  END
