
     RDKit          3D

 14 14  0  0  0  0  0  0  0  0999 V2000
    4.4420    1.0800   -0.1990 C   0  0  0  0  0  0  0  0  0  0  0  0
    3.3430    0.0730   -0.1380 C   0  0  0  0  0  0  0  0  0  0  0  0
    3.5840   -1.1610   -0.1570 O   0  0  0  0  0  0  0  0  0  0  0  0
    1.9800    0.4630   -0.0560 N   0  0  0  0  0  0  0  0  0  0  0  0
    0.8950   -0.5000    0.0040 C   0  0  1  0  0  0  0  0  0  0  0  0
    0.1250   -0.4190    1.2740 C   0  0  0  0  0  0  0  0  0  0  0  0
   -1.0460    0.3850    1.2440 N   0  0  0  0  0  0  0  0  0  0  0  0
   -1.8440    0.2840    0.0730 C   0  0  2  0  0  0  0  0  0  0  0  0
   -3.3280    0.2180    0.3340 C   0  0  0  0  0  0  0  0  0  0  0  0
   -3.7530    1.3570    0.9990 O   0  0  0  0  0  0  0  0  0  0  0  0
   -1.3550   -0.8460   -0.7850 C   0  0  1  0  0  0  0  0  0  0  0  0
   -2.1900   -1.1650   -1.8230 O   0  0  0  0  0  0  0  0  0  0  0  0
    0.0320   -0.4220   -1.2370 C   0  0  2  0  0  0  0  0  0  0  0  0
    0.5100   -1.1510   -2.2880 O   0  0  0  0  0  0  0  0  0  0  0  0
  1  2  1  0
  2  3  2  0
  2  4  1  0
  5  4  1  6
  5  6  1  0
  5 13  1  0
  6  7  1  0
  7  8  1  0
  8  9  1  1
  8 11  1  0
  9 10  1  0
 11 12  1  6
 11 13  1  0
 13 14  1  6
M  CHG  1   7   1
M  END
