
     RDKit          3D

 20 22  0  0  0  0  0  0  0  0999 V2000
   -3.0970   -2.8710    1.6830 C   0  0  0  0  0  0  0  0  0  0  0  0
   -3.1610   -1.3680    1.7040 C   0  0  2  0  0  0  0  0  0  0  0  0
   -4.4940   -0.9060    1.1320 C   0  0  0  0  0  0  0  0  0  0  0  0
   -2.0810   -0.7480    0.9870 N   0  0  0  0  0  0  0  0  0  0  0  0
   -0.8020   -1.1340    0.8500 C   0  0  0  0  0  0  0  0  0  0  0  0
   -0.1080   -0.2090    0.0570 C   0  0  0  0  0  0  0  0  0  0  0  0
    1.3290   -0.3590   -0.2210 C   0  0  2  0  0  0  0  0  0  0  0  0
    1.7380   -1.7730    0.1330 C   0  0  0  0  0  0  0  0  0  0  0  0
    2.9730   -2.1650   -0.1720 O   0  0  0  0  0  0  0  0  0  0  0  0
    3.7470   -1.3420   -0.9120 C   0  0  0  0  0  0  0  0  0  0  0  0
    4.3520   -0.2430   -0.0470 C   0  0  0  0  0  0  0  0  0  0  0  0
    3.3530    0.0880    1.0240 C   0  0  0  0  0  0  0  0  0  0  0  0
    2.1150    0.6130    0.4870 N   0  0  0  0  0  0  0  0  0  0  0  0
   -1.0220    0.7390   -0.2740 C   0  0  0  0  0  0  0  0  0  0  0  0
   -0.8560    1.8890   -1.1050 C   0  0  0  0  0  0  0  0  0  0  0  0
    0.1360    2.3120   -1.8180 C   0  0  0  0  0  0  0  0  0  0  0  0
   -0.1890    3.6020   -2.5240 C   0  0  0  0  0  0  0  0  0  0  0  0
   -1.5720    3.8540   -2.0820 C   0  0  0  0  0  0  0  0  0  0  0  0
   -1.9400    2.8800   -1.2800 C   0  0  0  0  0  0  0  0  0  0  0  0
   -2.1950    0.3690    0.3120 N   0  0  0  0  0  0  0  0  0  0  0  0
  2  1  1  6
  2  3  1  0
  2  4  1  0
  4  5  1  0
  4 20  1  0
  5  6  2  0
  7  6  1  1
  6 14  1  0
  7  8  1  0
  7 13  1  0
  8  9  1  0
  9 10  1  0
 10 11  1  0
 11 12  1  0
 12 13  1  0
 14 15  1  0
 14 20  2  0
 15 16  2  0
 15 19  1  0
 16 17  1  0
 17 18  1  0
 18 19  2  0
M  CHG  1  13   1
M  END
