
     RDKit          3D

 16 17  0  0  0  0  0  0  0  0999 V2000
   -0.6540    1.5450   -0.3520 O   0  0  0  0  0  0  0  0  0  0  0  0
   -0.3870    0.4180    0.1440 C   0  0  0  0  0  0  0  0  0  0  0  0
    0.9180    0.1650    0.4610 O   0  0  0  0  0  0  0  0  0  0  0  0
    1.9880    1.0740    0.2730 C   0  0  0  0  0  0  0  0  0  0  0  0
    3.2340    0.3430    0.7710 C   0  0  1  0  0  0  0  0  0  0  0  0
    3.4250   -0.9430    0.0360 C   0  0  0  0  0  0  0  0  0  0  0  0
    4.7660   -0.8220   -0.4980 N   0  0  0  0  0  0  0  0  0  0  0  0
    4.9730    0.6150   -0.4950 C   0  0  0  0  0  0  0  0  0  0  0  0
    4.3720    1.0960    0.6570 O   0  0  0  0  0  0  0  0  0  0  0  0
   -1.5040   -0.5490    0.3480 C   0  0  1  0  0  0  0  0  0  0  0  0
   -0.9600   -1.7280    0.9100 O   0  0  0  0  0  0  0  0  0  0  0  0
   -2.4190    0.0370    1.3830 C   0  0  0  0  0  0  0  0  0  0  0  0
   -3.8460    0.1630    0.9070 C   0  0  0  0  0  0  0  0  0  0  0  0
   -3.8200    0.7420   -0.4850 C   0  0  0  0  0  0  0  0  0  0  0  0
   -3.1570   -0.0880   -1.4310 N   0  0  0  0  0  0  0  0  0  0  0  0
   -2.1690   -0.9610   -0.9130 C   0  0  0  0  0  0  0  0  0  0  0  0
  1  2  2  0
  2  3  1  0
  2 10  1  0
  3  4  1  0
  5  4  1  6
  5  6  1  0
  5  9  1  0
  6  7  1  0
  7  8  1  0
  8  9  1  0
 10 11  1  1
 10 12  1  0
 10 16  1  0
 12 13  1  0
 13 14  1  0
 14 15  1  0
 15 16  1  0
M  CHG  1  15   1
M  END
