
     RDKit          3D

 16 17  0  0  0  0  0  0  0  0999 V2000
    4.7850    0.9410    0.6080 C   0  0  0  0  0  0  0  0  0  0  0  0
    3.6380    0.0240    0.3360 C   0  0  0  0  0  0  0  0  0  0  0  0
    3.9370   -1.2140    0.2300 O   0  0  0  0  0  0  0  0  0  0  0  0
    2.3120    0.4590    0.2010 N   0  0  0  0  0  0  0  0  0  0  0  0
    1.2360   -0.4710   -0.0620 C   0  0  1  0  0  0  0  0  0  0  0  0
    0.2720   -0.5370    1.1240 C   0  0  0  0  0  0  0  0  0  0  0  0
   -1.0130   -0.8040    0.5840 N   0  0  1  0  0  0  0  0  0  0  0  0
   -2.0580   -1.0240    1.5350 C   0  0  0  0  0  0  0  0  0  0  0  0
   -3.2860   -0.8690    0.6240 C   0  0  0  0  0  0  0  0  0  0  0  0
   -2.9220    0.4040   -0.1160 C   0  0  2  0  0  0  0  0  0  0  0  0
   -3.4300    0.4420   -1.3980 O   0  0  0  0  0  0  0  0  0  0  0  0
   -1.4500    0.4670   -0.0240 C   0  0  2  0  0  0  0  0  0  0  0  0
   -0.7120    0.5550   -1.3100 C   0  0  1  0  0  0  0  0  0  0  0  0
   -0.5020    1.9170   -1.6290 O   0  0  0  0  0  0  0  0  0  0  0  0
    0.5490   -0.2240   -1.3620 C   0  0  2  0  0  0  0  0  0  0  0  0
    0.3080   -1.4270   -2.0490 O   0  0  0  0  0  0  0  0  0  0  0  0
  1  2  1  0
  2  3  2  0
  2  4  1  0
  5  4  1  1
  5  6  1  0
  5 15  1  0
  7  6  1  1
  7  8  1  0
  7 12  1  0
  8  9  1  0
  9 10  1  0
 10 11  1  6
 12 10  1  6
 12 13  1  0
 13 14  1  1
 13 15  1  0
 15 16  1  1
M  CHG  1   7   1
M  END
