
     RDKit          3D

 16 17  0  0  0  0  0  0  0  0999 V2000
    0.9390    0.2530   -2.2120 O   0  0  0  0  0  0  0  0  0  0  0  0
    1.3280   -0.0220   -1.0430 C   0  0  0  0  0  0  0  0  0  0  0  0
    0.3480   -0.2630   -0.0490 N   0  0  0  0  0  0  0  0  0  0  0  0
   -1.0320   -0.1880   -0.4030 C   0  0  1  0  0  0  0  0  0  0  0  0
   -1.7800   -1.4800   -0.1750 C   0  0  0  0  0  0  0  0  0  0  0  0
   -3.2040   -0.9560    0.0470 C   0  0  0  0  0  0  0  0  0  0  0  0
   -2.9360    0.1720    1.0240 C   0  0  2  0  0  0  0  0  0  0  0  0
   -4.0920    1.0300    1.1810 N   0  0  0  0  0  0  0  0  0  0  0  0
   -4.8290    1.0850    0.0390 O   0  0  0  0  0  0  0  0  0  0  0  0
   -1.7700    0.8750    0.4110 C   0  0  0  0  0  0  0  0  0  0  0  0
    2.7770   -0.0700   -0.8050 C   0  0  1  0  0  0  0  0  0  0  0  0
    3.4970    0.2030   -1.9390 O   0  0  0  0  0  0  0  0  0  0  0  0
    3.2400    0.8300    0.3070 C   0  0  0  0  0  0  0  0  0  0  0  0
    4.5270    0.1250    0.7120 C   0  0  0  0  0  0  0  0  0  0  0  0
    4.4910   -1.1360    0.1950 O   0  0  0  0  0  0  0  0  0  0  0  0
    3.2350   -1.4210   -0.2620 C   0  0  0  0  0  0  0  0  0  0  0  0
  1  2  2  0
  2  3  1  0
  2 11  1  0
  4  3  1  1
  4  5  1  0
  4 10  1  0
  5  6  1  0
  6  7  1  0
  7  8  1  6
  7 10  1  0
  8  9  1  0
 11 12  1  6
 11 13  1  0
 11 16  1  0
 13 14  1  0
 14 15  1  0
 15 16  1  0
M  CHG  1   8   1
M  END
