
     RDKit          3D

 15 16  0  0  0  0  0  0  0  0999 V2000
    4.7280   -1.4950   -0.0840 O   0  0  0  0  0  0  0  0  0  0  0  0
    3.4070   -1.9670   -0.1550 C   0  0  0  0  0  0  0  0  0  0  0  0
    2.5160   -0.7520   -0.1160 C   0  0  1  0  0  0  0  0  0  0  0  0
    1.0590   -1.0870   -0.1900 C   0  0  0  0  0  0  0  0  0  0  0  0
    0.3240    0.1340    0.1710 N   0  0  2  0  0  0  0  0  0  0  0  0
   -0.8720    0.2900   -0.6130 C   0  0  0  0  0  0  0  0  0  0  0  0
   -2.1030   -0.1800    0.1420 C   0  0  2  0  0  0  0  0  0  0  0  0
   -1.9430   -1.5280    0.4540 O   0  0  0  0  0  0  0  0  0  0  0  0
   -3.3540    0.0760   -0.6620 C   0  0  0  0  0  0  0  0  0  0  0  0
   -4.1100    1.0280    0.2420 C   0  0  0  0  0  0  0  0  0  0  0  0
   -3.6970    0.6500    1.5270 O   0  0  0  0  0  0  0  0  0  0  0  0
   -2.3190    0.6030    1.4010 C   0  0  0  0  0  0  0  0  0  0  0  0
    1.1630    1.3080   -0.0770 C   0  0  0  0  0  0  0  0  0  0  0  0
    2.4050    1.2920    0.7810 C   0  0  0  0  0  0  0  0  0  0  0  0
    2.7310   -0.0510    1.0730 O   0  0  0  0  0  0  0  0  0  0  0  0
  1  2  1  0
  3  2  1  1
  3  4  1  0
  3 15  1  0
  4  5  1  0
  5  6  1  6
  5 13  1  0
  6  7  1  0
  7  8  1  1
  7  9  1  0
  7 12  1  0
  9 10  1  0
 10 11  1  0
 11 12  1  0
 13 14  1  0
 14 15  1  0
M  CHG  1   5   1
M  END
