
     RDKit          3D

 16 17  0  0  0  0  0  0  0  0999 V2000
    0.9060   -2.1890   -0.3000 N   0  0  0  0  0  0  0  0  0  0  0  0
    0.0120   -1.1730    0.1640 C   0  0  2  0  0  0  0  0  0  0  0  0
   -1.3170   -1.1720   -0.5840 C   0  0  0  0  0  0  0  0  0  0  0  0
   -2.3200   -0.5110    0.3710 C   0  0  2  0  0  0  0  0  0  0  0  0
   -3.4720    0.0500   -0.3930 C   0  0  0  0  0  0  0  0  0  0  0  0
   -4.6300   -0.3630   -0.1580 O   0  0  0  0  0  0  0  0  0  0  0  0
   -3.3120    1.0230   -1.3660 O   0  0  0  0  0  0  0  0  0  0  0  0
   -1.6240    0.6410    1.0530 C   0  0  0  0  0  0  0  0  0  0  0  0
   -0.5950    1.1960    0.1230 C   0  0  0  0  0  0  0  0  0  0  0  0
    0.5690    0.2200    0.0660 C   0  0  1  0  0  0  0  0  0  0  0  0
    1.4910    0.5350    1.1950 C   0  0  0  0  0  0  0  0  0  0  0  0
    2.6200    1.4520    0.7290 C   0  0  0  0  0  0  0  0  0  0  0  0
    3.3600    0.7020   -0.2710 N   0  0  0  0  0  0  0  0  0  0  0  0
    2.5730    0.1760   -1.3450 C   0  0  0  0  0  0  0  0  0  0  0  0
    3.0930   -0.3850   -2.3150 O   0  0  0  0  0  0  0  0  0  0  0  0
    1.1860    0.3490   -1.2090 O   0  0  0  0  0  0  0  0  0  0  0  0
  2  1  1  6
  2  3  1  0
  2 10  1  0
  3  4  1  0
  4  5  1  6
  4  8  1  0
  5  6  2  0
  5  7  1  0
  8  9  1  0
 10  9  1  6
 10 11  1  0
 10 16  1  0
 11 12  1  0
 12 13  1  0
 13 14  1  0
 14 15  2  0
 14 16  1  0
M  CHG  1   1   1
M  END
