
     RDKit          3D

 16 17  0  0  0  0  0  0  0  0999 V2000
    2.3110   -0.4640   -1.6830 N   0  0  0  0  0  0  0  0  0  0  0  0
    2.1130   -0.4400   -0.2680 C   0  0  2  0  0  0  0  0  0  0  0  0
    0.6320   -0.5800    0.0770 C   0  0  0  0  0  0  0  0  0  0  0  0
   -0.1200    0.4110   -0.4450 O   0  0  0  0  0  0  0  0  0  0  0  0
   -1.4300    0.4350   -0.1610 C   0  0  2  0  0  0  0  0  0  0  0  0
   -2.3040   -0.6990   -0.5340 C   0  0  0  0  0  0  0  0  0  0  0  0
   -2.0490   -1.9720    0.0390 N   0  0  0  0  0  0  0  0  0  0  0  0
   -2.1120    1.6830   -0.7870 C   0  0  0  0  0  0  0  0  0  0  0  0
   -3.2970    1.8250    0.1170 C   0  0  0  0  0  0  0  0  0  0  0  0
   -3.0490    1.0920    1.2610 O   0  0  0  0  0  0  0  0  0  0  0  0
   -1.6900    0.8440    1.3150 C   0  0  0  0  0  0  0  0  0  0  0  0
    2.7370    0.7540    0.4160 C   0  0  0  0  0  0  0  0  0  0  0  0
    4.1630    0.2780    0.5940 C   0  0  0  0  0  0  0  0  0  0  0  0
    3.9670   -1.0540    1.0410 O   0  0  0  0  0  0  0  0  0  0  0  0
    2.8860   -1.5570    0.3330 C   0  0  0  0  0  0  0  0  0  0  0  0
    2.6240   -2.7770    0.2320 O   0  0  0  0  0  0  0  0  0  0  0  0
  2  1  1  6
  2  3  1  0
  2 12  1  0
  2 15  1  0
  3  4  1  0
  4  5  1  0
  5  6  1  6
  5  8  1  0
  5 11  1  0
  6  7  1  0
  8  9  1  0
  9 10  1  0
 10 11  1  0
 12 13  1  0
 13 14  1  0
 14 15  1  0
 15 16  2  0
M  CHG  1   7   1
M  END
