
     RDKit          3D

 15 16  0  0  0  0  0  0  0  0999 V2000
    2.7920    0.4480    0.9060 C   0  0  0  0  0  0  0  0  0  0  0  0
    1.3530    0.0160    0.9650 C   0  0  1  0  0  0  0  0  0  0  0  0
    0.6050    0.8250    1.8500 O   0  0  0  0  0  0  0  0  0  0  0  0
   -0.7470    0.6600    1.8810 C   0  0  0  0  0  0  0  0  0  0  0  0
   -1.3900    0.8590    2.9250 O   0  0  0  0  0  0  0  0  0  0  0  0
   -1.4480    0.2420    0.6600 C   0  0  1  0  0  0  0  0  0  0  0  0
   -2.7120   -0.2390    0.9850 O   0  0  0  0  0  0  0  0  0  0  0  0
   -1.6540    1.5030   -0.1670 C   0  0  0  0  0  0  0  0  0  0  0  0
   -0.4150    2.0290   -0.6640 N   0  0  0  0  0  0  0  0  0  0  0  0
    0.5070    1.0750   -1.1520 C   0  0  0  0  0  0  0  0  0  0  0  0
    0.7120   -0.1600   -0.3670 C   0  0  1  0  0  0  0  0  0  0  0  0
    1.5700   -1.0440   -1.1450 N   0  0  0  0  0  0  0  0  0  0  0  0
   -0.6560   -0.7910   -0.1320 C   0  0  1  0  0  0  0  0  0  0  0  0
   -0.5850   -2.0500    0.6620 C   0  0  0  0  0  0  0  0  0  0  0  0
   -1.3940   -1.0450   -1.4060 C   0  0  0  0  0  0  0  0  0  0  0  0
  2  1  1  6
  2  3  1  0
  2 11  1  0
  3  4  1  0
  4  5  2  0
  4  6  1  0
  6  7  1  1
  6  8  1  0
  6 13  1  0
  8  9  1  0
  9 10  1  0
 10 11  1  0
 11 12  1  6
 11 13  1  0
 13 14  1  1
 13 15  1  0
M  CHG  2   9   1  12   1
M  END
