
     RDKit          3D

 22 25  0  0  0  0  0  0  0  0999 V2000
   -4.0670   -2.6500   -0.2520 C   0  0  0  0  0  0  0  0  0  0  0  0
   -3.6680   -1.8360   -1.2920 C   0  0  0  0  0  0  0  0  0  0  0  0
   -2.5080   -1.0640   -1.2060 C   0  0  0  0  0  0  0  0  0  0  0  0
   -1.7130   -1.0810   -0.0820 C   0  0  0  0  0  0  0  0  0  0  0  0
   -0.4940   -0.2960    0.0710 C   0  0  0  0  0  0  0  0  0  0  0  0
    0.7650   -0.8990    0.1530 C   0  0  0  0  0  0  0  0  0  0  0  0
    1.6310    0.1130    0.2860 N   0  0  0  0  0  0  0  0  0  0  0  0
    3.0460   -0.0180    0.4070 C   0  0  0  0  0  0  0  0  0  0  0  0
    3.8640    1.1010    0.3950 C   0  0  0  0  0  0  0  0  0  0  0  0
    5.2170    0.9820    0.5100 C   0  0  0  0  0  0  0  0  0  0  0  0
    5.7720   -0.2720    0.6410 C   0  0  0  0  0  0  0  0  0  0  0  0
    4.9860   -1.3930    0.6560 C   0  0  0  0  0  0  0  0  0  0  0  0
    3.6260   -1.2670    0.5400 C   0  0  0  0  0  0  0  0  0  0  0  0
    0.9850    1.2720    0.2880 N   0  0  0  0  0  0  0  0  0  0  0  0
   -0.3390    1.0700    0.1570 C   0  0  0  0  0  0  0  0  0  0  0  0
   -1.4070    2.0800    0.1140 C   0  0  0  0  0  0  0  0  0  0  0  0
   -2.2180    2.3690   -0.9660 C   0  0  0  0  0  0  0  0  0  0  0  0
   -3.0780    3.3700   -0.5870 C   0  0  0  0  0  0  0  0  0  0  0  0
   -2.7460    3.6490    0.7270 C   0  0  0  0  0  0  0  0  0  0  0  0
   -1.7610    2.8720    1.1050 O   0  0  0  0  0  0  0  0  0  0  0  0
   -2.1330   -1.9100    0.9580 C   0  0  0  0  0  0  0  0  0  0  0  0
   -3.2780   -2.6730    0.8760 C   0  0  0  0  0  0  0  0  0  0  0  0
  1  2  2  0
  1 22  1  0
  2  3  1  0
  3  4  2  0
  4  5  1  0
  4 21  1  0
  5  6  2  0
  5 15  1  0
  6  7  1  0
  7  8  1  0
  7 14  1  0
  8  9  2  0
  8 13  1  0
  9 10  1  0
 10 11  2  0
 11 12  1  0
 12 13  2  0
 14 15  2  0
 15 16  1  0
 16 17  2  0
 16 20  1  0
 17 18  1  0
 18 19  2  0
 19 20  1  0
 21 22  2  0
M  END
