
     RDKit          3D

 22 25  0  0  0  0  0  0  0  0999 V2000
   -3.4460   -2.6200    1.0880 C   0  0  0  0  0  0  0  0  0  0  0  0
   -4.2650   -1.8650    0.4690 C   0  0  0  0  0  0  0  0  0  0  0  0
   -3.9260   -0.5740   -0.2080 C   0  0  0  0  0  0  0  0  0  0  0  0
   -4.9660   -0.0020   -0.7560 C   0  0  0  0  0  0  0  0  0  0  0  0
   -5.0750    1.2290   -1.4980 C   0  0  0  0  0  0  0  0  0  0  0  0
   -2.5680   -0.0640   -0.1530 C   0  0  0  0  0  0  0  0  0  0  0  0
   -2.2550    1.2270   -0.4680 C   0  0  0  0  0  0  0  0  0  0  0  0
   -0.9070    1.6430   -0.4680 C   0  0  0  0  0  0  0  0  0  0  0  0
    0.0630    0.7250   -0.1450 C   0  0  0  0  0  0  0  0  0  0  0  0
    1.3890    1.1000   -0.1360 C   0  0  0  0  0  0  0  0  0  0  0  0
    2.3550    0.1710    0.1890 C   0  0  0  0  0  0  0  0  0  0  0  0
    2.0220   -1.1160    0.5030 C   0  0  0  0  0  0  0  0  0  0  0  0
    0.7250   -1.4650    0.4890 N   0  0  0  0  0  0  0  0  0  0  0  0
   -0.2540   -0.5770    0.1730 C   0  0  0  0  0  0  0  0  0  0  0  0
   -1.5370   -0.9190    0.1580 N   0  0  0  0  0  0  0  0  0  0  0  0
    3.1460   -1.7680    0.7670 O   0  0  0  0  0  0  0  0  0  0  0  0
    4.1710   -0.9900    0.6450 C   0  0  0  0  0  0  0  0  0  0  0  0
    5.5440   -1.1690    0.8050 C   0  0  0  0  0  0  0  0  0  0  0  0
    6.4500   -0.1470    0.6090 C   0  0  0  0  0  0  0  0  0  0  0  0
    5.9490    1.1040    0.2370 C   0  0  0  0  0  0  0  0  0  0  0  0
    4.5970    1.3240    0.0680 C   0  0  0  0  0  0  0  0  0  0  0  0
    3.7480    0.2580    0.2800 C   0  0  0  0  0  0  0  0  0  0  0  0
  1  2  2  0
  2  3  1  0
  3  4  2  3
  3  6  1  0
  4  5  1  0
  6  7  2  0
  6 15  1  0
  7  8  1  0
  8  9  2  0
  9 10  1  0
  9 14  1  0
 10 11  2  0
 11 12  1  0
 11 22  1  0
 12 13  2  0
 12 16  1  0
 13 14  1  0
 14 15  2  0
 16 17  1  0
 17 18  2  0
 17 22  1  0
 18 19  1  0
 19 20  2  0
 20 21  1  0
 21 22  2  0
M  END
