
     RDKit          3D

 22 25  0  0  0  0  0  0  0  0999 V2000
    7.4690    0.7780    0.3210 C   0  0  0  0  0  0  0  0  0  0  0  0
    6.4780    0.1320   -0.5410 C   0  0  0  0  0  0  0  0  0  0  0  0
    6.6700   -0.5610   -1.6070 N   0  0  0  0  0  0  0  0  0  0  0  0
    5.4840   -1.0150   -2.1570 N   0  0  0  0  0  0  0  0  0  0  0  0
    4.4830   -0.6200   -1.4470 C   0  0  0  0  0  0  0  0  0  0  0  0
    5.0260    0.1630   -0.3290 C   0  0  0  0  0  0  0  0  0  0  0  0
    4.0210    0.5850    0.4210 C   0  0  0  0  0  0  0  0  0  0  0  0
    2.7410    0.1350   -0.1130 C   0  0  0  0  0  0  0  0  0  0  0  0
    1.4230    0.3180    0.3130 C   0  0  0  0  0  0  0  0  0  0  0  0
    0.3800   -0.2330   -0.4000 C   0  0  0  0  0  0  0  0  0  0  0  0
   -0.9500   -0.0640    0.0060 O   0  0  0  0  0  0  0  0  0  0  0  0
   -2.0250   -0.6090   -0.6940 C   0  0  0  0  0  0  0  0  0  0  0  0
   -3.2800   -0.2370    0.0090 C   0  0  0  0  0  0  0  0  0  0  0  0
   -3.2980    0.5240    1.1580 C   0  0  0  0  0  0  0  0  0  0  0  0
   -4.4790    0.8420    1.7710 C   0  0  0  0  0  0  0  0  0  0  0  0
   -5.6680    0.4040    1.2460 C   0  0  0  0  0  0  0  0  0  0  0  0
   -6.9540    0.7390    1.8970 C   0  0  0  0  0  0  0  0  0  0  0  0
   -5.6430   -0.3550    0.1000 C   0  0  0  0  0  0  0  0  0  0  0  0
   -4.4760   -0.6890   -0.5370 C   0  0  0  0  0  0  0  0  0  0  0  0
    0.6840   -0.9600   -1.5310 C   0  0  0  0  0  0  0  0  0  0  0  0
    1.9930   -1.1450   -1.9570 C   0  0  0  0  0  0  0  0  0  0  0  0
    3.0370   -0.5940   -1.2450 C   0  0  0  0  0  0  0  0  0  0  0  0
  1  2  1  0
  2  3  2  0
  2  6  1  0
  3  4  1  0
  4  5  2  0
  5  6  1  0
  5 22  1  0
  6  7  2  0
  7  8  1  0
  8  9  2  0
  8 22  1  0
  9 10  1  0
 10 11  1  0
 10 20  2  0
 11 12  1  0
 12 13  1  0
 13 14  2  0
 13 19  1  0
 14 15  1  0
 15 16  2  0
 16 17  1  0
 16 18  1  0
 18 19  2  0
 20 21  1  0
 21 22  2  0
M  END
