
     RDKit          3D

 22 25  0  0  0  0  0  0  0  0999 V2000
   -3.7290   -3.1060   -1.5670 C   0  0  0  0  0  0  0  0  0  0  0  0
   -2.6160   -3.3650   -0.7420 O   0  0  0  0  0  0  0  0  0  0  0  0
   -1.8460   -2.2820   -0.3350 C   0  0  0  0  0  0  0  0  0  0  0  0
   -0.7580   -2.5220    0.4700 C   0  0  0  0  0  0  0  0  0  0  0  0
    0.0240   -1.4440    0.8860 C   0  0  0  0  0  0  0  0  0  0  0  0
   -0.2500   -0.1450    0.5220 C   0  0  0  0  0  0  0  0  0  0  0  0
    0.5520    0.8870    0.9590 C   0  0  0  0  0  0  0  0  0  0  0  0
    1.7120    0.6630    1.8140 C   0  0  0  0  0  0  0  0  0  0  0  0
    2.8260    0.1110    0.9950 C   0  0  0  0  0  0  0  0  0  0  0  0
    2.7960   -0.1410   -0.3040 C   0  0  0  0  0  0  0  0  0  0  0  0
    4.1220   -0.6910   -0.7540 C   0  0  0  0  0  0  0  0  0  0  0  0
    4.8920   -0.7060    0.4890 C   0  0  0  0  0  0  0  0  0  0  0  0
    4.1640   -0.2510    1.4930 C   0  0  0  0  0  0  0  0  0  0  0  0
    0.2270    2.1300    0.5660 N   0  0  0  0  0  0  0  0  0  0  0  0
   -0.8340    2.3890   -0.2220 C   0  0  0  0  0  0  0  0  0  0  0  0
   -1.1570    3.6710   -0.6190 C   0  0  0  0  0  0  0  0  0  0  0  0
   -2.2640    3.9140   -1.4380 C   0  0  0  0  0  0  0  0  0  0  0  0
   -3.0340    2.8460   -1.8470 C   0  0  0  0  0  0  0  0  0  0  0  0
   -2.6900    1.6180   -1.4420 N   0  0  0  0  0  0  0  0  0  0  0  0
   -1.6350    1.3640   -0.6590 C   0  0  0  0  0  0  0  0  0  0  0  0
   -1.3520    0.0670   -0.2880 C   0  0  0  0  0  0  0  0  0  0  0  0
   -2.1220   -0.9900   -0.6990 C   0  0  0  0  0  0  0  0  0  0  0  0
  1  2  1  0
  2  3  1  0
  3  4  2  0
  3 22  1  0
  4  5  1  0
  5  6  2  0
  6  7  1  0
  6 21  1  0
  7  8  1  0
  7 14  2  0
  8  9  1  0
  9 10  2  0
  9 13  1  0
 10 11  1  0
 11 12  1  0
 12 13  2  0
 14 15  1  0
 15 16  2  0
 15 20  1  0
 16 17  1  0
 17 18  2  0
 18 19  1  0
 19 20  2  0
 20 21  1  0
 21 22  2  0
M  END
