
     RDKit          3D

 26 28  0  0  0  0  0  0  0  0999 V2000
   -2.8070   -1.8070    0.2640 N   0  0  0  0  0  0  0  0  0  0  0  0
   -2.1300   -0.6450    0.6680 C   0  0  2  0  0  0  0  0  0  0  0  0
   -3.0430    0.5500    0.3110 C   0  0  0  0  0  0  0  0  0  0  0  0
   -4.3390    0.4710    1.0130 C   0  0  0  0  0  0  0  0  0  0  0  0
   -4.4090    1.0510    2.2650 C   0  0  0  0  0  0  0  0  0  0  0  0
   -5.6000    1.0040    2.9430 C   0  0  0  0  0  0  0  0  0  0  0  0
   -6.7050    0.3860    2.3800 C   0  0  0  0  0  0  0  0  0  0  0  0
   -6.6150   -0.1850    1.1330 C   0  0  0  0  0  0  0  0  0  0  0  0
   -5.4090   -0.1380    0.4450 C   0  0  0  0  0  0  0  0  0  0  0  0
   -0.7900   -0.3450    0.1420 C   0  0  0  0  0  0  0  0  0  0  0  0
   -0.3150    0.7240    0.7630 O   0  0  0  0  0  0  0  0  0  0  0  0
   -0.0230   -0.9650   -0.8230 N   0  0  0  0  0  0  0  0  0  0  0  0
   -0.3750   -2.0990   -1.6580 C   0  0  0  0  0  0  0  0  0  0  0  0
   -0.0370   -1.5030   -3.0540 C   0  0  0  0  0  0  0  0  0  0  0  0
    0.9310   -0.3400   -2.7560 C   0  0  0  0  0  0  0  0  0  0  0  0
    1.3030   -0.6950   -1.2930 C   0  0  1  0  0  0  0  0  0  0  0  0
    2.1550    0.2390   -0.6380 C   0  0  0  0  0  0  0  0  0  0  0  0
    2.0460    0.6830    0.5220 O   0  0  0  0  0  0  0  0  0  0  0  0
    3.2900    0.7470   -1.4000 N   0  0  0  0  0  0  0  0  0  0  0  0
    4.2120    1.6920   -0.8280 C   0  0  0  0  0  0  0  0  0  0  0  0
    5.1770    1.0790    0.1070 C   0  0  0  0  0  0  0  0  0  0  0  0
    6.1680    1.8450    0.6780 C   0  0  0  0  0  0  0  0  0  0  0  0
    7.1020    1.3000    1.5640 C   0  0  0  0  0  0  0  0  0  0  0  0
    6.9980   -0.0080    1.8410 N   0  0  0  0  0  0  0  0  0  0  0  0
    6.0500   -0.7930    1.3100 C   0  0  0  0  0  0  0  0  0  0  0  0
    5.1150   -0.2570    0.4260 C   0  0  0  0  0  0  0  0  0  0  0  0
  2  1  1  6
  2  3  1  0
  2 10  1  0
  3  4  1  0
  4  5  2  0
  4  9  1  0
  5  6  1  0
  6  7  2  0
  7  8  1  0
  8  9  2  0
 10 11  2  0
 10 12  1  0
 12 13  1  0
 12 16  1  0
 13 14  1  0
 14 15  1  0
 15 16  1  0
 16 17  1  1
 17 18  2  0
 17 19  1  0
 19 20  1  0
 20 21  1  0
 21 22  2  0
 21 26  1  0
 22 23  1  0
 23 24  2  0
 24 25  1  0
 25 26  2  0
M  CHG  1   1   1
M  END
