
     RDKit          3D

 22 25  0  0  0  0  0  0  0  0999 V2000
   -2.3540   -3.0060    0.0490 C   0  0  0  0  0  0  0  0  0  0  0  0
   -2.1400   -1.9410    1.0990 C   0  0  0  0  0  0  0  0  0  0  0  0
   -1.4910   -0.7870    0.5180 N   0  0  0  0  0  0  0  0  0  0  0  0
   -2.0860    0.2790   -0.0200 C   0  0  0  0  0  0  0  0  0  0  0  0
   -3.5000    0.6070   -0.1970 C   0  0  0  0  0  0  0  0  0  0  0  0
   -3.9300    1.7600   -0.7290 C   0  0  0  0  0  0  0  0  0  0  0  0
   -5.3970    1.6980   -0.7270 C   0  0  0  0  0  0  0  0  0  0  0  0
   -5.6780    0.3440   -0.7760 O   0  0  0  0  0  0  0  0  0  0  0  0
   -4.7090   -0.1830    0.1190 C   0  0  0  0  0  0  0  0  0  0  0  0
   -1.0460    1.1160   -0.4380 C   0  0  0  0  0  0  0  0  0  0  0  0
    0.1640    0.5310   -0.1400 C   0  0  0  0  0  0  0  0  0  0  0  0
    1.4490    0.8650   -0.3040 N   0  0  0  0  0  0  0  0  0  0  0  0
    2.4970    0.1080    0.0800 C   0  0  0  0  0  0  0  0  0  0  0  0
    3.8610    0.5590   -0.1420 C   0  0  0  0  0  0  0  0  0  0  0  0
    4.9530   -0.1800    0.2330 C   0  0  0  0  0  0  0  0  0  0  0  0
    6.2530    0.2870    0.0020 C   0  0  0  0  0  0  0  0  0  0  0  0
    6.4710    1.4960   -0.6050 C   0  0  0  0  0  0  0  0  0  0  0  0
    5.3900    2.2560   -0.9910 C   0  0  0  0  0  0  0  0  0  0  0  0
    4.1230    1.7810   -0.7560 C   0  0  0  0  0  0  0  0  0  0  0  0
    2.1900   -1.0910    0.6820 C   0  0  0  0  0  0  0  0  0  0  0  0
    0.8740   -1.4940    0.8800 C   0  0  0  0  0  0  0  0  0  0  0  0
   -0.1480   -0.6610    0.4590 C   0  0  0  0  0  0  0  0  0  0  0  0
  1  2  1  0
  2  3  1  0
  3  4  1  0
  3 22  1  0
  4  5  1  0
  4 10  2  0
  5  6  2  0
  5  9  1  0
  6  7  1  0
  7  8  1  0
  8  9  1  0
 10 11  1  0
 11 12  2  0
 11 22  1  0
 12 13  1  0
 13 14  1  0
 13 20  2  0
 14 15  2  0
 14 19  1  0
 15 16  1  0
 16 17  2  0
 17 18  1  0
 18 19  2  0
 20 21  1  0
 21 22  2  0
M  END
