
     RDKit          3D

 22 25  0  0  0  0  0  0  0  0999 V2000
    2.1390   -0.7950    0.3270 C   0  0  0  0  0  0  0  0  0  0  0  0
    1.2710    0.1470   -0.0390 C   0  0  0  0  0  0  0  0  0  0  0  0
   -0.1460   -0.1740   -0.0610 C   0  0  0  0  0  0  0  0  0  0  0  0
   -0.4860   -1.4900    0.1500 N   0  0  0  0  0  0  0  0  0  0  0  0
   -1.7510   -1.9340    0.0860 C   0  0  0  0  0  0  0  0  0  0  0  0
   -2.0700   -3.2680    0.3020 C   0  0  0  0  0  0  0  0  0  0  0  0
   -3.3750   -3.6950    0.2290 C   0  0  0  0  0  0  0  0  0  0  0  0
   -4.4250   -2.8470   -0.0570 C   0  0  0  0  0  0  0  0  0  0  0  0
   -4.1010   -1.5280   -0.2690 C   0  0  0  0  0  0  0  0  0  0  0  0
   -2.7940   -1.0770   -0.2000 C   0  0  0  0  0  0  0  0  0  0  0  0
   -2.4550    0.2330   -0.4070 C   0  0  0  0  0  0  0  0  0  0  0  0
   -1.1290    0.7180   -0.3410 C   0  0  0  0  0  0  0  0  0  0  0  0
   -0.9320    2.1470   -0.4230 C   0  0  0  0  0  0  0  0  0  0  0  0
    0.0050    2.9210    0.0080 C   0  0  0  0  0  0  0  0  0  0  0  0
   -0.2990    4.3380   -0.3710 C   0  0  0  0  0  0  0  0  0  0  0  0
   -1.5230    4.2510   -1.0710 N   0  0  0  0  0  0  0  0  0  0  0  0
   -1.8980    3.0280   -1.1120 C   0  0  0  0  0  0  0  0  0  0  0  0
    3.5680   -0.5090    0.3610 C   0  0  0  0  0  0  0  0  0  0  0  0
    4.5670   -1.3760    0.7170 C   0  0  0  0  0  0  0  0  0  0  0  0
    5.7580   -0.6940    0.6060 C   0  0  0  0  0  0  0  0  0  0  0  0
    5.4360    0.5720    0.1840 C   0  0  0  0  0  0  0  0  0  0  0  0
    4.1360    0.6470    0.0490 O   0  0  0  0  0  0  0  0  0  0  0  0
  1  2  2  3
  1 18  1  0
  2  3  1  0
  3  4  2  0
  3 12  1  0
  4  5  1  0
  5  6  2  0
  5 10  1  0
  6  7  1  0
  7  8  2  0
  8  9  1  0
  9 10  2  0
 10 11  1  0
 11 12  2  0
 12 13  1  0
 13 14  2  0
 13 17  1  0
 14 15  1  0
 15 16  1  0
 16 17  2  0
 18 19  2  0
 18 22  1  0
 19 20  1  0
 20 21  2  0
 21 22  1  0
M  END
