
     RDKit          3D

 22 25  0  0  0  0  0  0  0  0999 V2000
   -4.0510   -2.7010   -0.1080 C   0  0  0  0  0  0  0  0  0  0  0  0
   -3.2410   -1.4860   -0.0980 N   0  0  0  0  0  0  0  0  0  0  0  0
   -1.9230   -1.3700   -0.2880 C   0  0  0  0  0  0  0  0  0  0  0  0
   -1.5590   -0.0490   -0.1970 C   0  0  0  0  0  0  0  0  0  0  0  0
   -0.2240    0.4940   -0.3420 C   0  0  0  0  0  0  0  0  0  0  0  0
    0.8070   -0.2400   -0.5840 N   0  0  0  0  0  0  0  0  0  0  0  0
    2.0740    0.3850   -0.7100 C   0  0  0  0  0  0  0  0  0  0  0  0
    2.2490    1.4540   -1.5340 C   0  0  0  0  0  0  0  0  0  0  0  0
    3.5140    2.0150   -1.6080 C   0  0  0  0  0  0  0  0  0  0  0  0
    4.5680    1.5010   -0.8650 C   0  0  0  0  0  0  0  0  0  0  0  0
    4.3660    0.4190   -0.0380 C   0  0  0  0  0  0  0  0  0  0  0  0
    5.4150   -0.1120    0.7190 C   0  0  0  0  0  0  0  0  0  0  0  0
    5.2140   -1.1930    1.5440 C   0  0  0  0  0  0  0  0  0  0  0  0
    3.9690   -1.7670    1.6350 C   0  0  0  0  0  0  0  0  0  0  0  0
    2.9400   -1.2280    0.8790 C   0  0  0  0  0  0  0  0  0  0  0  0
    3.1160   -0.1490    0.0470 C   0  0  0  0  0  0  0  0  0  0  0  0
   -2.7100    0.6600    0.0600 C   0  0  0  0  0  0  0  0  0  0  0  0
   -3.7360   -0.2560    0.1160 C   0  0  0  0  0  0  0  0  0  0  0  0
   -5.1390    0.2230    0.3870 C   0  0  0  0  0  0  0  0  0  0  0  0
   -5.2250    1.6040    0.5550 O   0  0  0  0  0  0  0  0  0  0  0  0
   -4.1930    2.4980    0.4950 C   0  0  0  0  0  0  0  0  0  0  0  0
   -2.9720    2.0860    0.2600 C   0  0  0  0  0  0  0  0  0  0  0  0
  1  2  1  0
  2  3  1  0
  2 18  1  0
  3  4  2  0
  4  5  1  0
  4 17  1  0
  5  6  2  3
  6  7  1  0
  7  8  2  0
  7 16  1  0
  8  9  1  0
  9 10  2  0
 10 11  1  0
 11 12  2  0
 11 16  1  0
 12 13  1  0
 13 14  2  0
 14 15  1  0
 15 16  2  0
 17 18  2  0
 17 22  1  0
 18 19  1  0
 19 20  1  0
 20 21  1  0
 21 22  2  0
M  END
