
     RDKit          3D

 17 17  0  0  0  0  0  0  0  0999 V2000
    5.7410    0.6980   -0.6960 C   0  0  0  0  0  0  0  0  0  0  0  0
    4.7680    0.5560    0.1560 C   0  0  0  0  0  0  0  0  0  0  0  0
    3.5410    0.1280   -0.3900 N   0  0  0  0  0  0  0  0  0  0  0  0
    2.4890   -0.0350    0.4640 C   0  0  0  0  0  0  0  0  0  0  0  0
    2.6780    0.2170    1.7620 O   0  0  0  0  0  0  0  0  0  0  0  0
    1.2330   -0.4130    0.3000 N   0  0  0  0  0  0  0  0  0  0  0  0
    0.0470   -0.8140   -0.1480 C   0  0  0  0  0  0  0  0  0  0  0  0
   -0.7220   -0.8640    0.9310 O   0  0  0  0  0  0  0  0  0  0  0  0
   -0.5630   -1.1760   -1.3900 C   0  0  0  0  0  0  0  0  0  0  0  0
   -1.9010   -1.5250   -1.2090 O   0  0  0  0  0  0  0  0  0  0  0  0
   -2.7910   -0.5900   -0.6760 C   0  0  0  0  0  0  0  0  0  0  0  0
   -2.7040    0.7190   -0.7630 C   0  0  0  0  0  0  0  0  0  0  0  0
   -3.8500    1.3130   -0.0630 C   0  0  0  0  0  0  0  0  0  0  0  0
   -4.6180    0.1670    0.4440 C   0  0  0  0  0  0  0  0  0  0  0  0
   -6.1000    0.3240    1.3640 Cl  0  0  0  0  0  0  0  0  0  0  0  0
   -3.9840   -0.9290    0.0750 C   0  0  0  0  0  0  0  0  0  0  0  0
   -4.5870   -2.5320    0.4900 Cl  0  0  0  0  0  0  0  0  0  0  0  0
  1  2  2  0
  2  3  1  0
  3  4  1  0
  4  5  2  0
  4  6  1  0
  6  7  1  0
  7  8  2  0
  7  9  1  0
  9 10  1  0
 10 11  1  0
 11 12  2  0
 11 16  1  0
 12 13  1  0
 13 14  1  0
 14 15  1  0
 14 16  2  0
 16 17  1  0
M  END
