
     RDKit          3D

 17 17  0  0  0  0  0  0  0  0999 V2000
   -2.2800   -0.7420   -2.0270 C   0  0  0  0  0  0  0  0  0  0  0  0
   -3.0090    0.0570   -1.2640 C   0  0  0  0  0  0  0  0  0  0  0  0
   -4.3720    0.8950   -1.9680 Cl  0  0  0  0  0  0  0  0  0  0  0  0
   -2.7230    0.2720    0.1430 C   0  0  0  0  0  0  0  0  0  0  0  0
   -3.4640    1.0630    0.8650 C   0  0  0  0  0  0  0  0  0  0  0  0
   -3.1510    1.3480    2.5630 Cl  0  0  0  0  0  0  0  0  0  0  0  0
   -1.5670   -0.4240    0.7670 C   0  0  0  0  0  0  0  0  0  0  0  0
   -0.3340   -0.0380    0.1130 N   0  0  0  0  0  0  0  0  0  0  0  0
    0.9040   -0.5840    0.5400 C   0  0  0  0  0  0  0  0  0  0  0  0
    0.8940   -1.4010    1.4920 O   0  0  0  0  0  0  0  0  0  0  0  0
    2.1590   -0.2090   -0.1060 C   0  0  0  0  0  0  0  0  0  0  0  0
    3.3490   -0.6870    0.2510 C   0  0  0  0  0  0  0  0  0  0  0  0
    4.4170   -0.1430   -0.5600 C   0  0  0  0  0  0  0  0  0  0  0  0
    5.6540   -0.3990   -0.4690 O   0  0  0  0  0  0  0  0  0  0  0  0
    3.7810    0.7370   -1.4760 N   0  0  0  0  0  0  0  0  0  0  0  0
    2.3820    0.7030   -1.2030 C   0  0  0  0  0  0  0  0  0  0  0  0
    1.4910    1.3660   -1.8250 O   0  0  0  0  0  0  0  0  0  0  0  0
  1  2  2  0
  2  3  1  0
  2  4  1  0
  4  5  2  3
  4  7  1  0
  5  6  1  0
  7  8  1  0
  8  9  1  0
  9 10  2  0
  9 11  1  0
 11 12  2  0
 11 16  1  0
 12 13  1  0
 13 14  2  0
 13 15  1  0
 15 16  1  0
 16 17  2  0
M  END
