
     RDKit          3D

 17 17  0  0  0  0  0  0  0  0999 V2000
   -3.5910    1.6810   -1.0160 C   0  0  0  0  0  0  0  0  0  0  0  0
   -3.4200    0.3340   -0.3570 C   0  0  0  0  0  0  0  0  0  0  0  0
   -2.2820   -0.2540   -0.0520 C   0  0  0  0  0  0  0  0  0  0  0  0
   -1.0000    0.3140   -0.3080 N   0  0  0  0  0  0  0  0  0  0  0  0
    0.2230   -0.3120    0.0160 C   0  0  0  0  0  0  0  0  0  0  0  0
    0.2360   -1.4220    0.5580 O   0  0  0  0  0  0  0  0  0  0  0  0
    1.5030    0.3690   -0.2950 C   0  0  0  0  0  0  0  0  0  0  0  0
    2.6520   -0.3910    0.0940 N   0  0  0  0  0  0  0  0  0  0  0  0
    3.9340    0.1680   -0.1570 C   0  0  0  0  0  0  0  0  0  0  0  0
    4.0310    1.3110   -0.7130 O   0  0  0  0  0  0  0  0  0  0  0  0
    5.1180   -0.4570    0.1660 O   0  0  0  0  0  0  0  0  0  0  0  0
    6.3740    0.1770   -0.1220 C   0  0  0  0  0  0  0  0  0  0  0  0
    7.7110   -0.8370    0.3930 Cl  0  0  0  0  0  0  0  0  0  0  0  0
   -2.5910   -1.5340    0.5670 C   0  0  0  0  0  0  0  0  0  0  0  0
   -3.8920   -1.7150    0.6340 C   0  0  0  0  0  0  0  0  0  0  0  0
   -4.7440   -3.1170    1.3040 Cl  0  0  0  0  0  0  0  0  0  0  0  0
   -4.5410   -0.5330    0.0480 C   0  0  0  0  0  0  0  0  0  0  0  0
  1  2  1  0
  2  3  2  0
  2 17  1  0
  3  4  1  0
  3 14  1  0
  4  5  1  0
  5  6  2  0
  5  7  1  0
  7  8  1  0
  8  9  1  0
  9 10  2  0
  9 11  1  0
 11 12  1  0
 12 13  1  0
 14 15  2  0
 15 16  1  0
 15 17  1  0
M  END
