
     RDKit          3D

 17 17  0  0  0  0  0  0  0  0999 V2000
   -5.8490    1.0950   -0.0910 O   0  0  0  0  0  0  0  0  0  0  0  0
   -4.6930    0.7640    0.2980 C   0  0  0  0  0  0  0  0  0  0  0  0
   -4.0060   -0.3420   -0.2670 N   0  0  0  0  0  0  0  0  0  0  0  0
   -4.5270   -1.1050   -1.2410 O   0  0  0  0  0  0  0  0  0  0  0  0
   -2.6910   -0.6600    0.2270 C   0  0  0  0  0  0  0  0  0  0  0  0
   -1.6880    0.0910   -0.5870 C   0  0  0  0  0  0  0  0  0  0  0  0
   -0.3190   -0.1750   -0.1500 N   0  0  0  0  0  0  0  0  0  0  0  0
    0.7790    0.4470   -0.8010 C   0  0  0  0  0  0  0  0  0  0  0  0
    0.5080    1.2290   -1.7630 O   0  0  0  0  0  0  0  0  0  0  0  0
    2.1680    0.2240   -0.4130 C   0  0  0  0  0  0  0  0  0  0  0  0
    2.9040   -0.7950   -0.9850 C   0  0  0  0  0  0  0  0  0  0  0  0
    4.2150   -1.0420   -0.6500 C   0  0  0  0  0  0  0  0  0  0  0  0
    4.8220   -0.2420    0.2940 C   0  0  0  0  0  0  0  0  0  0  0  0
    4.1300    0.7890    0.8960 C   0  0  0  0  0  0  0  0  0  0  0  0
    4.9550    1.7590    2.0780 Cl  0  0  0  0  0  0  0  0  0  0  0  0
    2.8150    1.0000    0.5270 C   0  0  0  0  0  0  0  0  0  0  0  0
    1.9290    2.3060    1.2850 Cl  0  0  0  0  0  0  0  0  0  0  0  0
  1  2  2  0
  2  3  1  0
  3  4  1  0
  3  5  1  0
  5  6  1  0
  6  7  1  0
  7  8  1  0
  8  9  2  0
  8 10  1  0
 10 11  2  0
 10 16  1  0
 11 12  1  0
 12 13  2  0
 13 14  1  0
 14 15  1  0
 14 16  2  0
 16 17  1  0
M  END
