
     RDKit          3D

 17 17  0  0  0  0  0  0  0  0999 V2000
   -1.2050   -2.1130   -0.6940 O   0  0  0  0  0  0  0  0  0  0  0  0
   -1.8390   -1.4200    0.0990 C   0  0  0  0  0  0  0  0  0  0  0  0
   -1.4750   -0.2130    0.6660 C   0  0  0  0  0  0  0  0  0  0  0  0
   -0.4100    0.6220    0.6120 C   0  0  0  0  0  0  0  0  0  0  0  0
   -0.5880    1.7870    1.4480 C   0  0  0  0  0  0  0  0  0  0  0  0
   -0.0660    2.8520    1.8550 C   0  0  0  0  0  0  0  0  0  0  0  0
   -1.0710    3.8530    3.0110 Cl  0  0  0  0  0  0  0  0  0  0  0  0
    1.4620    3.5740    1.5690 Cl  0  0  0  0  0  0  0  0  0  0  0  0
    0.7100    0.2860   -0.1720 C   0  0  0  0  0  0  0  0  0  0  0  0
    0.7330   -0.8410   -0.7820 N   0  0  0  0  0  0  0  0  0  0  0  0
    1.6740   -1.4010   -1.5840 N   0  0  0  0  0  0  0  0  0  0  0  0
    2.8600   -0.6330   -1.8140 C   0  0  0  0  0  0  0  0  0  0  0  0
    3.9160   -1.1840   -2.2330 O   0  0  0  0  0  0  0  0  0  0  0  0
    2.7760    0.7910   -1.5410 C   0  0  0  0  0  0  0  0  0  0  0  0
    1.8550    1.1810   -0.3950 C   0  0  0  0  0  0  0  0  0  0  0  0
   -3.2000   -2.0070    0.4800 C   0  0  0  0  0  0  0  0  0  0  0  0
   -3.3710   -3.2050   -0.1890 O   0  0  0  0  0  0  0  0  0  0  0  0
  1  2  2  0
  2  3  1  0
  2 16  1  0
  3  4  2  3
  4  5  1  0
  4  9  1  0
  5  6  2  3
  6  7  1  0
  6  8  1  0
  9 10  2  0
  9 15  1  0
 10 11  1  0
 11 12  1  0
 12 13  2  0
 12 14  1  0
 14 15  1  0
 16 17  1  0
M  END
