
     RDKit          3D

 28 31  0  0  0  0  0  0  0  0999 V2000
    4.7380    1.5820    0.1660 C   0  0  0  0  0  0  0  0  0  0  0  0
    4.0750    0.4250    0.9250 C   0  0  2  0  0  0  0  0  0  0  0  0
    5.1770   -0.2050    1.7520 C   0  0  0  0  0  0  0  0  0  0  0  0
    5.6860   -1.3030    0.8740 C   0  0  0  0  0  0  0  0  0  0  0  0
    4.4510   -1.8310    0.1780 C   0  0  0  0  0  0  0  0  0  0  0  0
    3.5500   -0.6130   -0.0170 C   0  0  1  0  0  0  0  0  0  0  0  0
    2.1160   -0.9710    0.1620 C   0  0  0  0  0  0  0  0  0  0  0  0
    1.1530    0.1810   -0.0140 C   0  0  1  0  0  0  0  0  0  0  0  0
    1.3240    0.7130   -1.4190 C   0  0  0  0  0  0  0  0  0  0  0  0
    0.4120    1.9230   -1.4690 C   0  0  0  0  0  0  0  0  0  0  0  0
   -0.9770    1.4170   -1.4880 C   0  0  0  0  0  0  0  0  0  0  0  0
   -1.3500    0.4400   -0.3810 C   0  0  1  0  0  0  0  0  0  0  0  0
   -2.2390    1.2700    0.5300 C   0  0  0  0  0  0  0  0  0  0  0  0
   -1.6060    2.4650    1.1010 C   0  0  0  0  0  0  0  0  0  0  0  0
   -2.0550    3.7040    0.8590 C   0  0  0  0  0  0  0  0  0  0  0  0
   -1.2440    4.7120    1.5530 C   0  0  0  0  0  0  0  0  0  0  0  0
   -0.2390    3.9100    2.2640 C   0  0  0  0  0  0  0  0  0  0  0  0
   -0.4780    2.6480    1.9820 C   0  0  0  0  0  0  0  0  0  0  0  0
   -2.2750   -0.5420   -1.0810 C   0  0  1  0  0  0  0  0  0  0  0  0
   -3.4940    0.1660   -1.6160 C   0  0  0  0  0  0  0  0  0  0  0  0
   -1.5390   -0.8740   -2.2750 O   0  0  0  0  0  0  0  0  0  0  0  0
   -2.5520   -1.8370   -0.4790 C   0  0  1  0  0  0  0  0  0  0  0  0
   -3.1610   -1.9710    0.8490 C   0  0  0  0  0  0  0  0  0  0  0  0
   -3.3470   -3.4070    1.1730 C   0  0  0  0  0  0  0  0  0  0  0  0
   -3.6210   -4.2850    0.2460 C   0  0  0  0  0  0  0  0  0  0  0  0
   -3.7640   -3.9160   -1.1700 C   0  0  0  0  0  0  0  0  0  0  0  0
   -3.5960   -2.4690   -1.4460 C   0  0  0  0  0  0  0  0  0  0  0  0
   -0.2430   -0.2410    0.2890 C   0  0  0  0  0  0  0  0  0  0  0  0
  2  1  1  6
  2  3  1  0
  2  6  1  0
  3  4  1  0
  4  5  1  0
  5  6  1  0
  6  7  1  1
  8  7  1  6
  8  9  1  0
  8 28  1  0
  9 10  1  0
 10 11  1  0
 11 12  1  0
 12 13  1  1
 12 19  1  0
 12 28  1  0
 13 14  1  0
 14 15  2  0
 14 18  1  0
 15 16  1  0
 16 17  1  0
 17 18  2  0
 19 20  1  6
 19 21  1  0
 19 22  1  0
 22 23  1  1
 22 27  1  0
 23 24  1  0
 24 25  2  0
 25 26  1  0
 26 27  1  0
M  END
