
     RDKit          3D

 28 31  0  0  0  0  0  0  0  0999 V2000
   -4.1410    2.1130    2.4540 C   0  0  0  0  0  0  0  0  0  0  0  0
   -4.3880    0.7180    1.9980 C   0  0  0  0  0  0  0  0  0  0  0  0
   -3.6140    0.4200    0.7590 C   0  0  1  0  0  0  0  0  0  0  0  0
   -3.9460    1.3060   -0.4020 C   0  0  0  0  0  0  0  0  0  0  0  0
   -2.0910    0.5950    0.9730 C   0  0  0  0  0  0  0  0  0  0  0  0
   -1.5760   -0.1590   -0.1970 C   0  0  0  0  0  0  0  0  0  0  0  0
   -0.3000    0.1220   -0.8920 C   0  0  0  0  0  0  0  0  0  0  0  0
    0.9200   -0.0370   -0.0220 C   0  0  2  0  0  0  0  0  0  0  0  0
    0.9510    0.8850    1.1670 C   0  0  0  0  0  0  0  0  0  0  0  0
    2.4350    1.1360    1.4410 C   0  0  0  0  0  0  0  0  0  0  0  0
    2.9750    1.2580    0.0320 C   0  0  2  0  0  0  0  0  0  0  0  0
    2.2110    0.2270   -0.7390 C   0  0  1  0  0  0  0  0  0  0  0  0
    2.9830   -1.0140   -1.0480 C   0  0  1  0  0  0  0  0  0  0  0  0
    3.1100   -2.0080    0.0520 C   0  0  0  0  0  0  0  0  0  0  0  0
    2.2070   -1.7200   -2.1780 C   0  0  0  0  0  0  0  0  0  0  0  0
    4.2180   -0.7640   -1.5800 O   0  0  0  0  0  0  0  0  0  0  0  0
    4.9420    0.2810   -1.1790 C   0  0  2  0  0  0  0  0  0  0  0  0
    6.3400   -0.2260   -0.7850 C   0  0  0  0  0  0  0  0  0  0  0  0
    4.4540    1.1150   -0.0570 C   0  0  2  0  0  0  0  0  0  0  0  0
    5.0760    0.7240    1.2920 C   0  0  0  0  0  0  0  0  0  0  0  0
    5.0150    2.5340   -0.2910 C   0  0  0  0  0  0  0  0  0  0  0  0
   -2.4690   -1.1250   -0.5190 C   0  0  0  0  0  0  0  0  0  0  0  0
   -3.6240   -1.0570    0.4260 C   0  0  2  0  0  0  0  0  0  0  0  0
   -4.8870   -1.5420   -0.1440 C   0  0  0  0  0  0  0  0  0  0  0  0
   -5.6050   -2.4970    0.4680 C   0  0  0  0  0  0  0  0  0  0  0  0
   -6.8020   -2.7800   -0.3170 C   0  0  0  0  0  0  0  0  0  0  0  0
   -6.6910   -1.8710   -1.4650 C   0  0  0  0  0  0  0  0  0  0  0  0
   -5.5800   -1.1620   -1.3520 C   0  0  0  0  0  0  0  0  0  0  0  0
  1  2  1  0
  2  3  1  0
  3  4  1  6
  3  5  1  0
  3 23  1  0
  5  6  1  0
  6  7  1  0
  6 22  2  0
  8  7  1  6
  8  9  1  0
 12  8  1  1
  9 10  1  0
 11 10  1  1
 11 12  1  0
 11 19  1  0
 12 13  1  0
 13 14  1  1
 13 15  1  0
 13 16  1  0
 16 17  1  0
 17 18  1  1
 17 19  1  0
 19 20  1  1
 19 21  1  0
 22 23  1  0
 23 24  1  6
 24 25  2  0
 24 28  1  0
 25 26  1  0
 26 27  1  0
 27 28  2  0
M  END
