
     RDKit          3D

 25 27  0  0  0  0  0  0  0  0999 V2000
    6.4710    0.4920    0.2410 C   0  0  0  0  0  0  0  0  0  0  0  0
    5.4990    1.4340    0.4480 O   0  0  0  0  0  0  0  0  0  0  0  0
    4.2150    0.9720    0.4240 C   0  0  0  0  0  0  0  0  0  0  0  0
    3.8100    0.4090   -0.9330 C   0  0  0  0  0  0  0  0  0  0  0  0
    2.4380   -0.0800   -0.9190 N   0  0  0  0  0  0  0  0  0  0  0  0
    1.1880    0.6340   -0.9000 C   0  0  0  0  0  0  0  0  0  0  0  0
    0.1420   -0.3760   -0.5010 C   0  0  0  0  0  0  0  0  0  0  0  0
    0.7630   -1.6380   -0.4810 C   0  0  0  0  0  0  0  0  0  0  0  0
    0.0350   -2.7180   -0.1160 N   0  0  0  0  0  0  0  0  0  0  0  0
   -1.2260   -2.6630    0.2270 C   0  0  0  0  0  0  0  0  0  0  0  0
   -2.1400   -3.8460    0.4540 C   0  0  0  0  0  0  0  0  0  0  0  0
   -1.8680   -1.3700    0.2150 C   0  0  0  0  0  0  0  0  0  0  0  0
   -3.2120   -1.4340    0.8580 C   0  0  0  0  0  0  0  0  0  0  0  0
   -4.3650   -0.9790    0.1870 N   0  0  0  0  0  0  0  0  0  0  0  0
   -1.1370   -0.3050   -0.1470 C   0  0  0  0  0  0  0  0  0  0  0  0
   -1.7990    1.0360   -0.0870 C   0  0  0  0  0  0  0  0  0  0  0  0
   -1.5080    1.8900    0.9540 C   0  0  0  0  0  0  0  0  0  0  0  0
   -2.0170    3.1610    1.0420 C   0  0  0  0  0  0  0  0  0  0  0  0
   -2.8620    3.5800    0.0320 C   0  0  0  0  0  0  0  0  0  0  0  0
   -3.5210    5.2140    0.2600 Cl  0  0  0  0  0  0  0  0  0  0  0  0
   -3.1670    2.7620   -1.0110 C   0  0  0  0  0  0  0  0  0  0  0  0
   -2.6220    1.4770   -1.0710 C   0  0  0  0  0  0  0  0  0  0  0  0
   -2.9980    0.5000   -2.4960 Cl  0  0  0  0  0  0  0  0  0  0  0  0
    2.1700   -1.4550   -0.7490 C   0  0  0  0  0  0  0  0  0  0  0  0
    2.9730   -2.4320   -0.8010 O   0  0  0  0  0  0  0  0  0  0  0  0
  1  2  1  0
  2  3  1  0
  3  4  1  0
  4  5  1  0
  5  6  1  0
  5 24  1  0
  6  7  1  0
  7  8  2  0
  7 15  1  0
  8  9  1  0
  8 24  1  0
  9 10  2  0
 10 11  1  0
 10 12  1  0
 12 13  1  0
 12 15  2  0
 13 14  1  0
 15 16  1  0
 16 17  2  0
 16 22  1  0
 17 18  1  0
 18 19  2  0
 19 20  1  0
 19 21  1  0
 21 22  2  0
 22 23  1  0
 24 25  2  0
M  CHG  1  14   1
M  END
