
     RDKit          3D

 28 30  0  0  0  0  0  0  0  0999 V2000
    1.2110   -2.3020    1.6040 C   0  0  0  0  0  0  0  0  0  0  0  0
    2.3210   -1.3750    1.1650 C   0  0  0  0  0  0  0  0  0  0  0  0
    2.0050   -0.6140   -0.1100 C   0  0  1  0  0  0  0  0  0  0  0  0
    1.7590   -1.5680   -1.2440 C   0  0  0  0  0  0  0  0  0  0  0  0
    0.8900    0.3500    0.0510 C   0  0  0  0  0  0  0  0  0  0  0  0
   -0.4530    0.0510    0.4440 C   0  0  0  0  0  0  0  0  0  0  0  0
   -1.4700   -0.6690   -0.3060 C   0  0  0  0  0  0  0  0  0  0  0  0
   -1.5070   -1.1740   -1.5140 C   0  0  0  0  0  0  0  0  0  0  0  0
   -2.8330   -1.8430   -1.8090 C   0  0  0  0  0  0  0  0  0  0  0  0
   -3.3140   -2.0600   -0.4220 C   0  0  2  0  0  0  0  0  0  0  0  0
   -4.7390   -2.4630   -0.2900 C   0  0  0  0  0  0  0  0  0  0  0  0
   -2.8390   -0.9350    0.3530 C   0  0  1  0  0  0  0  0  0  0  0  0
   -2.5460   -1.4980    1.7710 C   0  0  0  0  0  0  0  0  0  0  0  0
   -3.5050    0.3290    0.5000 C   0  0  2  0  0  0  0  0  0  0  0  0
   -4.8800    0.3770    1.0810 C   0  0  0  0  0  0  0  0  0  0  0  0
   -5.1390    1.8750    1.0720 C   0  0  0  0  0  0  0  0  0  0  0  0
   -4.6610    2.2950   -0.2750 C   0  0  2  0  0  0  0  0  0  0  0  0
   -5.7740    2.4090   -1.2940 C   0  0  0  0  0  0  0  0  0  0  0  0
   -3.6390    1.2460   -0.6830 C   0  0  0  0  0  0  0  0  0  0  0  0
    3.2120    0.2010   -0.5770 C   0  0  2  0  0  0  0  0  0  0  0  0
    2.6830    0.8650   -1.7460 O   0  0  0  0  0  0  0  0  0  0  0  0
    4.3610   -0.5450   -1.0940 C   0  0  2  0  0  0  0  0  0  0  0  0
    5.1470   -1.4700   -0.2690 C   0  0  0  0  0  0  0  0  0  0  0  0
    5.3380    0.6340   -1.3630 C   0  0  0  0  0  0  0  0  0  0  0  0
    5.2070    1.3090    0.0170 C   0  0  1  0  0  0  0  0  0  0  0  0
    5.8150    2.6540   -0.1140 C   0  0  0  0  0  0  0  0  0  0  0  0
    3.7200    1.2570    0.3040 C   0  0  1  0  0  0  0  0  0  0  0  0
    3.1300    2.6180    0.1280 C   0  0  0  0  0  0  0  0  0  0  0  0
  1  2  1  0
  2  3  1  0
  3  4  1  6
  3  5  1  0
  3 20  1  0
  5  6  1  0
  6  7  1  0
  7  8  2  0
  7 12  1  0
  8  9  1  0
  9 10  1  0
 10 11  1  6
 10 12  1  0
 12 13  1  1
 12 14  1  0
 14 15  1  6
 14 19  1  0
 15 16  1  0
 16 17  1  0
 17 18  1  6
 17 19  1  0
 20 21  1  6
 20 22  1  0
 20 27  1  0
 22 23  1  1
 22 24  1  0
 24 25  1  0
 25 26  1  6
 25 27  1  0
 27 28  1  6
M  END
