
     RDKit          3D

 28 31  0  0  0  0  0  0  0  0999 V2000
    4.3460    0.1570   -1.3900 C   0  0  0  0  0  0  0  0  0  0  0  0
    4.1280   -0.5630   -0.1400 C   0  0  0  0  0  0  0  0  0  0  0  0
    2.7210   -0.8370    0.3640 C   0  0  2  0  0  0  0  0  0  0  0  0
    3.0710   -1.6690    1.6520 C   0  0  0  0  0  0  0  0  0  0  0  0
    2.2930   -1.9840   -0.5160 C   0  0  0  0  0  0  0  0  0  0  0  0
    1.8380    0.2660    0.6560 C   0  0  1  0  0  0  0  0  0  0  0  0
    2.3720    1.2200    1.7620 C   0  0  0  0  0  0  0  0  0  0  0  0
    3.2080    2.2570    1.0570 C   0  0  0  0  0  0  0  0  0  0  0  0
    2.4940    2.4840   -0.2640 C   0  0  0  0  0  0  0  0  0  0  0  0
    1.5450    1.3850   -0.2960 C   0  0  1  0  0  0  0  0  0  0  0  0
    0.6910    1.1040   -1.4720 C   0  0  0  0  0  0  0  0  0  0  0  0
   -0.6960    0.6510   -0.9520 C   0  0  2  0  0  0  0  0  0  0  0  0
   -1.6090    1.7500   -0.9220 C   0  0  2  0  0  0  0  0  0  0  0  0
   -1.3920    3.0150   -0.1800 C   0  0  0  0  0  0  0  0  0  0  0  0
   -2.6300    3.8190   -0.5970 C   0  0  0  0  0  0  0  0  0  0  0  0
   -3.5960    2.8400   -1.2500 C   0  0  0  0  0  0  0  0  0  0  0  0
   -3.0550    1.5260   -0.6180 C   0  0  2  0  0  0  0  0  0  0  0  0
   -3.4500    1.6750    0.8230 C   0  0  0  0  0  0  0  0  0  0  0  0
   -0.5220   -0.3770    0.1210 C   0  0  2  0  0  0  0  0  0  0  0  0
   -1.7180   -1.1470    0.4600 C   0  0  0  0  0  0  0  0  0  0  0  0
   -2.2970   -1.2130    1.5250 O   0  0  0  0  0  0  0  0  0  0  0  0
   -2.3450   -1.9800   -0.6130 C   0  0  1  0  0  0  0  0  0  0  0  0
   -1.2500   -2.9920   -1.0020 C   0  0  0  0  0  0  0  0  0  0  0  0
   -2.0310   -4.2160   -1.4670 C   0  0  0  0  0  0  0  0  0  0  0  0
   -3.3440   -4.1420   -0.7500 C   0  0  0  0  0  0  0  0  0  0  0  0
   -3.5100   -2.7820   -0.1650 C   0  0  0  0  0  0  0  0  0  0  0  0
    0.4300   -0.0770    1.2070 C   0  0  1  0  0  0  0  0  0  0  0  0
    0.3430   -0.7070    2.4990 C   0  0  0  0  0  0  0  0  0  0  0  0
  1  2  1  0
  2  3  1  0
  3  4  1  1
  3  5  1  0
  3  6  1  0
  6  7  1  1
  6 10  1  0
  6 27  1  0
  7  8  1  0
  8  9  1  0
 10  9  1  6
 10 11  1  0
 12 11  1  1
 12 13  1  0
 12 19  1  0
 13 14  1  1
 13 17  1  0
 14 15  1  0
 15 16  1  0
 16 17  1  0
 17 18  1  1
 19 20  1  1
 19 27  1  0
 20 21  2  0
 22 20  1  1
 22 23  1  0
 22 26  1  0
 23 24  1  0
 24 25  1  0
 25 26  1  0
 27 28  1  1
M  END
