
     RDKit          3D

 28 31  0  0  0  0  0  0  0  0999 V2000
   -2.5290   -3.6610   -0.3470 C   0  0  0  0  0  0  0  0  0  0  0  0
   -3.2330   -2.4020    0.0460 C   0  0  1  0  0  0  0  0  0  0  0  0
   -4.3690   -2.6020    0.9930 C   0  0  0  0  0  0  0  0  0  0  0  0
   -2.2250   -1.3540    0.5910 C   0  0  2  0  0  0  0  0  0  0  0  0
   -1.6010   -2.0610    1.8000 C   0  0  0  0  0  0  0  0  0  0  0  0
   -3.0770   -0.1980    0.9680 C   0  0  0  0  0  0  0  0  0  0  0  0
   -2.4870    1.1550    0.7160 C   0  0  0  0  0  0  0  0  0  0  0  0
   -0.9750    0.9620    0.7140 C   0  0  2  0  0  0  0  0  0  0  0  0
   -0.3600    2.3300    0.8800 C   0  0  0  0  0  0  0  0  0  0  0  0
   -0.6820    3.1260   -0.3140 C   0  0  0  0  0  0  0  0  0  0  0  0
   -0.6750    4.4380   -0.4780 C   0  0  0  0  0  0  0  0  0  0  0  0
   -1.0780    4.6750   -1.8650 C   0  0  0  0  0  0  0  0  0  0  0  0
   -1.3010    3.3430   -2.4300 C   0  0  0  0  0  0  0  0  0  0  0  0
   -1.0690    2.4200   -1.5160 C   0  0  0  0  0  0  0  0  0  0  0  0
   -1.1760    0.9640   -1.6320 C   0  0  0  0  0  0  0  0  0  0  0  0
   -0.5080    0.2050   -0.4810 C   0  0  1  0  0  0  0  0  0  0  0  0
    0.9290    0.2120   -0.7900 C   0  0  2  0  0  0  0  0  0  0  0  0
    0.9730   -0.6310   -2.1070 C   0  0  0  0  0  0  0  0  0  0  0  0
    2.0150   -0.3760   -0.0410 C   0  0  1  0  0  0  0  0  0  0  0  0
    1.7010   -1.7800   -0.0560 O   0  0  0  0  0  0  0  0  0  0  0  0
    3.3030   -0.2540   -0.8640 C   0  0  1  0  0  0  0  0  0  0  0  0
    3.3230    0.5100   -2.1150 C   0  0  0  0  0  0  0  0  0  0  0  0
    4.3360    0.4100    0.0680 C   0  0  0  0  0  0  0  0  0  0  0  0
    3.5480    0.9570    1.2090 C   0  0  0  0  0  0  0  0  0  0  0  0
    2.5210   -0.1880    1.2720 C   0  0  2  0  0  0  0  0  0  0  0  0
    3.4400   -1.4110    1.5910 C   0  0  0  0  0  0  0  0  0  0  0  0
    1.8050   -0.0720    2.5190 C   0  0  0  0  0  0  0  0  0  0  0  0
   -1.2150   -1.1290   -0.4890 C   0  0  0  0  0  0  0  0  0  0  0  0
  2  1  1  1
  2  3  1  0
  2  4  1  0
  4  5  1  1
  4  6  1  0
  4 28  1  0
  6  7  1  0
  8  7  1  6
  8  9  1  0
  8 16  1  0
  9 10  1  0
 10 11  2  0
 10 14  1  0
 11 12  1  0
 12 13  1  0
 13 14  2  0
 14 15  1  0
 16 15  1  6
 16 17  1  0
 16 28  1  0
 17 18  1  6
 17 19  1  0
 19 20  1  1
 19 21  1  0
 19 25  1  0
 21 22  1  6
 21 23  1  0
 23 24  1  0
 24 25  1  0
 25 26  1  1
 25 27  1  0
M  END
