
     RDKit          3D

 31 34  0  0  0  0  0  0  0  0999 V2000
   -6.2950   -2.0870    1.2200 C   0  0  0  0  0  0  0  0  0  0  0  0
   -5.7820   -0.8420    0.5120 C   0  0  0  0  0  0  0  0  0  0  0  0
   -4.4570   -0.8380    0.1470 C   0  0  0  0  0  0  0  0  0  0  0  0
   -3.7790    0.1680   -0.4960 C   0  0  0  0  0  0  0  0  0  0  0  0
   -2.3440    0.0920   -0.8550 C   0  0  0  0  0  0  0  0  0  0  0  0
   -1.6550   -1.0940   -0.5040 N   0  0  0  0  0  0  0  0  0  0  0  0
   -0.2520   -1.1400   -0.8680 C   0  0  0  0  0  0  0  0  0  0  0  0
    0.2640   -0.1390   -1.4640 O   0  0  0  0  0  0  0  0  0  0  0  0
    0.5270   -2.3570   -0.5270 C   0  0  0  0  0  0  0  0  0  0  0  0
    1.8790   -2.2250   -0.8700 O   0  0  0  0  0  0  0  0  0  0  0  0
    2.6500   -1.2530   -0.2610 C   0  0  0  0  0  0  0  0  0  0  0  0
    2.1450   -0.4090    0.6990 C   0  0  0  0  0  0  0  0  0  0  0  0
    2.9110    0.5810    1.3220 C   0  0  0  0  0  0  0  0  0  0  0  0
    4.2280    0.7400    0.9810 C   0  0  0  0  0  0  0  0  0  0  0  0
    5.2060    1.5360    1.3480 O   0  0  0  0  0  0  0  0  0  0  0  0
    6.3110    1.2780    0.7030 C   0  0  0  0  0  0  0  0  0  0  0  0
    6.0590    0.2410   -0.1530 C   0  0  0  0  0  0  0  0  0  0  0  0
    4.7370   -0.1050    0.0190 C   0  0  0  0  0  0  0  0  0  0  0  0
    3.9980   -1.0840   -0.6040 C   0  0  0  0  0  0  0  0  0  0  0  0
    7.1500   -0.2310   -0.9880 C   0  0  0  0  0  0  0  0  0  0  0  0
    6.9920   -1.2780   -1.6600 O   0  0  0  0  0  0  0  0  0  0  0  0
    8.4080    0.5590   -1.0040 C   0  0  0  0  0  0  0  0  0  0  0  0
    8.6430    0.9970    0.2930 O   0  0  0  0  0  0  0  0  0  0  0  0
    7.6740    1.8830    0.7530 C   0  0  0  0  0  0  0  0  0  0  0  0
   -4.3990    1.3710   -0.8740 C   0  0  0  0  0  0  0  0  0  0  0  0
   -3.6800    2.2550   -1.4730 N   0  0  0  0  0  0  0  0  0  0  0  0
   -4.2710    3.4740   -1.8660 C   0  0  0  0  0  0  0  0  0  0  0  0
   -4.4550    3.7590   -3.0690 O   0  0  0  0  0  0  0  0  0  0  0  0
   -6.0520    1.5350   -0.4950 S   0  0  0  0  0  0  0  0  0  0  0  0
   -6.6850    0.1710    0.2990 C   0  0  0  0  0  0  0  0  0  0  0  0
   -8.1160    0.0500    0.7460 C   0  0  0  0  0  0  0  0  0  0  0  0
  1  2  1  0
  2  3  1  0
  2 30  2  0
  3  4  2  0
  4  5  1  0
  4 25  1  0
  5  6  1  0
  6  7  1  0
  7  8  2  0
  7  9  1  0
  9 10  1  0
 10 11  1  0
 11 12  2  0
 11 19  1  0
 12 13  1  0
 13 14  2  0
 14 15  1  0
 14 18  1  0
 15 16  1  0
 16 17  2  0
 16 24  1  0
 17 18  1  0
 17 20  1  0
 18 19  2  0
 20 21  2  0
 20 22  1  0
 22 23  1  0
 23 24  1  0
 25 26  2  3
 25 29  1  0
 26 27  1  0
 27 28  2  0
 29 30  1  0
 30 31  1  0
M  END
