
     RDKit          3D

 28 30  0  0  0  0  0  0  0  0999 V2000
   -5.9110    0.6220    1.8160 C   0  0  0  0  0  0  0  0  0  0  0  0
   -4.4590    0.9930    1.7090 C   0  0  0  0  0  0  0  0  0  0  0  0
   -3.8180    0.3830    0.5010 C   0  0  0  0  0  0  0  0  0  0  0  0
   -3.0110   -0.6800    0.5880 N   0  0  0  0  0  0  0  0  0  0  0  0
   -2.4160   -1.2520   -0.4950 C   0  0  0  0  0  0  0  0  0  0  0  0
   -1.5820   -2.3880   -0.3540 N   0  0  0  0  0  0  0  0  0  0  0  0
   -0.3800   -2.2850    0.3190 N   0  0  0  0  0  0  0  0  0  0  0  0
    0.6530   -1.3810   -0.1170 C   0  0  0  0  0  0  0  0  0  0  0  0
    0.5070   -0.6610   -1.1090 O   0  0  0  0  0  0  0  0  0  0  0  0
    1.8780   -1.3120    0.6110 N   0  0  0  0  0  0  0  0  0  0  0  0
    2.9790   -0.4970    0.3370 C   0  0  0  0  0  0  0  0  0  0  0  0
    2.9880    0.4430   -0.6960 C   0  0  0  0  0  0  0  0  0  0  0  0
    4.1070    1.2100   -0.9030 C   0  0  0  0  0  0  0  0  0  0  0  0
    4.4760    2.5100   -2.1280 S   0  0  0  0  0  0  0  0  0  0  0  0
    6.2030    2.8420   -1.5060 C   0  0  0  0  0  0  0  0  0  0  0  0
    6.9490    3.6550   -1.9780 O   0  0  0  0  0  0  0  0  0  0  0  0
    6.2570    1.9540   -0.4940 N   0  0  0  0  0  0  0  0  0  0  0  0
    5.2650    1.1750   -0.2020 C   0  0  0  0  0  0  0  0  0  0  0  0
    5.2520    0.2160    0.8510 C   0  0  0  0  0  0  0  0  0  0  0  0
    4.1580   -0.5660    1.0880 C   0  0  0  0  0  0  0  0  0  0  0  0
    4.1570   -1.5140    2.1630 N   0  0  0  0  0  0  0  0  0  0  0  0
    5.2800   -1.8360    2.9700 C   0  0  0  0  0  0  0  0  0  0  0  0
    6.3930   -1.3320    2.8300 O   0  0  0  0  0  0  0  0  0  0  0  0
   -2.6850   -0.6790   -1.7220 C   0  0  0  0  0  0  0  0  0  0  0  0
   -2.0540   -1.2970   -2.9290 C   0  0  0  0  0  0  0  0  0  0  0  0
   -3.5170    0.4220   -1.8330 C   0  0  0  0  0  0  0  0  0  0  0  0
   -4.0920    0.9630   -0.7180 C   0  0  0  0  0  0  0  0  0  0  0  0
   -4.9800    2.1460   -0.8790 C   0  0  0  0  0  0  0  0  0  0  0  0
  1  2  1  0
  2  3  1  0
  3  4  2  0
  3 27  1  0
  4  5  1  0
  5  6  1  0
  5 24  2  0
  6  7  1  0
  7  8  1  0
  8  9  2  0
  8 10  1  0
 10 11  1  0
 11 12  2  0
 11 20  1  0
 12 13  1  0
 13 14  1  0
 13 18  2  0
 14 15  1  0
 15 16  2  0
 15 17  1  0
 17 18  1  0
 18 19  1  0
 19 20  2  0
 20 21  1  0
 21 22  1  0
 22 23  2  0
 24 25  1  0
 24 26  1  0
 26 27  2  0
 27 28  1  0
M  END
