
     RDKit          3D

 31 34  0  0  0  0  0  0  0  0999 V2000
    7.2500    0.8820   -0.3120 C   0  0  0  0  0  0  0  0  0  0  0  0
    6.0590    1.0510   -1.0960 O   0  0  0  0  0  0  0  0  0  0  0  0
    5.1030    0.0330   -1.0800 C   0  0  0  0  0  0  0  0  0  0  0  0
    5.2760   -1.0920   -1.7340 C   0  0  0  0  0  0  0  0  0  0  0  0
    4.3190   -2.2160   -1.7700 C   0  0  0  0  0  0  0  0  0  0  0  0
    3.1030   -1.9570   -0.9750 C   0  0  0  0  0  0  0  0  0  0  0  0
    2.2280   -2.8560   -0.9440 O   0  0  0  0  0  0  0  0  0  0  0  0
    2.9170   -0.7030   -0.2490 C   0  0  0  0  0  0  0  0  0  0  0  0
    3.8930    0.2570   -0.3050 C   0  0  0  0  0  0  0  0  0  0  0  0
    3.6720    1.3960    0.3830 N   0  0  0  0  0  0  0  0  0  0  0  0
    2.5540    1.6050    1.0980 C   0  0  0  0  0  0  0  0  0  0  0  0
    2.4330    2.7150    1.7170 O   0  0  0  0  0  0  0  0  0  0  0  0
    1.5670    0.6810    1.1770 N   0  0  0  0  0  0  0  0  0  0  0  0
    0.4240    0.8400    1.9730 C   0  0  0  0  0  0  0  0  0  0  0  0
   -0.7180    1.6560    1.5660 C   0  0  0  0  0  0  0  0  0  0  0  0
   -1.4760    1.5350    0.4830 O   0  0  0  0  0  0  0  0  0  0  0  0
   -2.2690    0.6650   -0.1680 C   0  0  0  0  0  0  0  0  0  0  0  0
   -1.8070   -0.0900   -1.2280 C   0  0  0  0  0  0  0  0  0  0  0  0
   -0.4890    0.0880   -1.6230 O   0  0  0  0  0  0  0  0  0  0  0  0
   -2.6350   -0.9790   -1.8660 C   0  0  0  0  0  0  0  0  0  0  0  0
   -3.9440   -1.1810   -1.5180 C   0  0  0  0  0  0  0  0  0  0  0  0
   -4.8100   -2.1330   -2.2110 C   0  0  0  0  0  0  0  0  0  0  0  0
   -4.4270   -0.4300   -0.4610 C   0  0  0  0  0  0  0  0  0  0  0  0
   -5.7510   -0.5750   -0.0610 C   0  0  0  0  0  0  0  0  0  0  0  0
   -6.3000    0.1440    0.9710 C   0  0  0  0  0  0  0  0  0  0  0  0
   -5.4900    1.0400    1.6260 C   0  0  0  0  0  0  0  0  0  0  0  0
   -6.1900    1.9830    2.9700 S   0  0  0  0  0  0  0  0  0  0  0  0
   -4.1530    1.1980    1.2350 C   0  0  0  0  0  0  0  0  0  0  0  0
   -3.6120    0.4660    0.1940 C   0  0  0  0  0  0  0  0  0  0  0  0
    1.7740   -0.4570    0.4990 C   0  0  0  0  0  0  0  0  0  0  0  0
    0.9320   -1.4200    0.4880 O   0  0  0  0  0  0  0  0  0  0  0  0
  1  2  1  0
  2  3  1  0
  3  4  2  0
  3  9  1  0
  4  5  1  0
  5  6  1  0
  6  7  2  0
  6  8  1  0
  8  9  2  0
  8 30  1  0
  9 10  1  0
 10 11  1  0
 11 12  2  0
 11 13  1  0
 13 14  1  0
 13 30  1  0
 14 15  1  0
 15 16  1  0
 16 17  1  0
 17 18  2  0
 17 29  1  0
 18 19  1  0
 18 20  1  0
 20 21  2  0
 21 22  1  0
 21 23  1  0
 23 24  2  0
 23 29  1  0
 24 25  1  0
 25 26  2  0
 26 27  1  0
 26 28  1  0
 28 29  2  0
 30 31  2  0
M  END
