
     RDKit          3D

 31 34  0  0  0  0  0  0  0  0999 V2000
    0.9510    1.6180   -0.2150 O   0  0  0  0  0  0  0  0  0  0  0  0
    1.0690    0.6360   -0.9600 C   0  0  0  0  0  0  0  0  0  0  0  0
   -0.1590    0.1580   -1.7080 C   0  0  0  0  0  0  0  0  0  0  0  0
   -0.3110   -1.6530   -1.4160 S   0  0  0  0  0  0  0  0  0  0  0  0
   -0.6880   -1.9240    0.3370 C   0  0  0  0  0  0  0  0  0  0  0  0
   -2.0920   -1.4680    0.5730 C   0  0  0  0  0  0  0  0  0  0  0  0
   -2.4970   -1.4320    1.7600 O   0  0  0  0  0  0  0  0  0  0  0  0
   -2.8800   -1.1120   -0.5260 N   0  0  0  0  0  0  0  0  0  0  0  0
   -4.2150   -0.6740   -0.3760 C   0  0  0  0  0  0  0  0  0  0  0  0
   -5.0680   -0.7770   -1.4910 C   0  0  0  0  0  0  0  0  0  0  0  0
   -6.3760   -0.3820   -1.4810 C   0  0  0  0  0  0  0  0  0  0  0  0
   -6.9010    0.1480   -0.3150 C   0  0  0  0  0  0  0  0  0  0  0  0
   -6.1060    0.2660    0.7930 C   0  0  0  0  0  0  0  0  0  0  0  0
   -4.7690   -0.1450    0.7550 C   0  0  0  0  0  0  0  0  0  0  0  0
   -6.8980    0.8420    1.8670 C   0  0  0  0  0  0  0  0  0  0  0  0
   -6.5590    1.1190    3.0510 O   0  0  0  0  0  0  0  0  0  0  0  0
   -8.1610    1.0530    1.3600 O   0  0  0  0  0  0  0  0  0  0  0  0
   -8.2420    0.6570    0.0200 C   0  0  0  0  0  0  0  0  0  0  0  0
    2.2930   -0.0450   -1.1290 N   0  0  0  0  0  0  0  0  0  0  0  0
    3.4900    0.2940   -0.4780 C   0  0  0  0  0  0  0  0  0  0  0  0
    3.7280    1.4250    0.2450 C   0  0  0  0  0  0  0  0  0  0  0  0
    4.9470    1.6490    0.8940 C   0  0  0  0  0  0  0  0  0  0  0  0
    5.9290    0.6970    0.7930 C   0  0  0  0  0  0  0  0  0  0  0  0
    5.6970   -0.4410    0.0660 C   0  0  0  0  0  0  0  0  0  0  0  0
    4.5100   -0.6680   -0.5700 C   0  0  0  0  0  0  0  0  0  0  0  0
    6.7460   -1.4800   -0.0440 C   0  0  0  0  0  0  0  0  0  0  0  0
    7.9060   -1.3090    0.5590 C   0  0  0  0  0  0  0  0  0  0  0  0
    8.2240   -0.1290    1.3480 C   0  0  0  0  0  0  0  0  0  0  0  0
    9.3120    0.0340    1.9150 O   0  0  0  0  0  0  0  0  0  0  0  0
    7.1990    0.9060    1.4660 C   0  0  0  0  0  0  0  0  0  0  0  0
    7.3940    1.9390    2.1200 O   0  0  0  0  0  0  0  0  0  0  0  0
  1  2  2  0
  2  3  1  0
  2 19  1  0
  3  4  1  0
  4  5  1  0
  5  6  1  0
  6  7  2  0
  6  8  1  0
  8  9  1  0
  9 10  2  0
  9 14  1  0
 10 11  1  0
 11 12  2  0
 12 13  1  0
 12 18  1  0
 13 14  2  0
 13 15  1  0
 15 16  2  0
 15 17  1  0
 17 18  1  0
 19 20  1  0
 20 21  2  0
 20 25  1  0
 21 22  1  0
 22 23  2  0
 23 24  1  0
 23 30  1  0
 24 25  2  0
 24 26  1  0
 26 27  2  0
 27 28  1  0
 28 29  2  0
 28 30  1  0
 30 31  2  0
M  END
