
     RDKit          3D

 31 34  0  0  0  0  0  0  0  0999 V2000
   -5.4780   -3.4510    1.2450 C   0  0  0  0  0  0  0  0  0  0  0  0
   -5.3310   -2.1050    0.9130 O   0  0  0  0  0  0  0  0  0  0  0  0
   -4.1510   -1.4400    0.6980 C   0  0  0  0  0  0  0  0  0  0  0  0
   -2.9620   -2.1070    0.8030 C   0  0  0  0  0  0  0  0  0  0  0  0
   -1.7400   -1.4730    0.5940 C   0  0  0  0  0  0  0  0  0  0  0  0
   -1.6910   -0.1470    0.2730 C   0  0  0  0  0  0  0  0  0  0  0  0
   -0.5240    0.6360    0.0570 N   0  0  0  0  0  0  0  0  0  0  0  0
    0.8110    0.1840    0.0180 C   0  0  0  0  0  0  0  0  0  0  0  0
    0.9640   -1.0780    0.1930 O   0  0  0  0  0  0  0  0  0  0  0  0
    2.0100    0.9670   -0.1960 C   0  0  0  0  0  0  0  0  0  0  0  0
    3.1870    0.3250   -0.1770 C   0  0  0  0  0  0  0  0  0  0  0  0
    3.4360   -1.0650    0.0380 C   0  0  0  0  0  0  0  0  0  0  0  0
    4.1800   -1.9020   -0.8080 C   0  0  0  0  0  0  0  0  0  0  0  0
    4.1980   -3.1630   -0.2550 C   0  0  0  0  0  0  0  0  0  0  0  0
    4.8680   -4.3760   -0.8180 C   0  0  0  0  0  0  0  0  0  0  0  0
    3.4680   -3.0560    0.9040 C   0  0  0  0  0  0  0  0  0  0  0  0
    3.2020   -4.1610    1.8550 C   0  0  0  0  0  0  0  0  0  0  0  0
    3.0590   -1.8240    1.0150 O   0  0  0  0  0  0  0  0  0  0  0  0
    2.0240    2.4140   -0.4140 C   0  0  0  0  0  0  0  0  0  0  0  0
    3.0830    3.2550   -0.5570 C   0  0  0  0  0  0  0  0  0  0  0  0
    2.7820    4.5240   -0.7590 N   0  0  0  0  0  0  0  0  0  0  0  0
    1.7490    5.0350   -0.8330 C   0  0  0  0  0  0  0  0  0  0  0  0
    1.0600    6.3730   -1.0340 C   0  0  0  0  0  0  0  0  0  0  0  0
    2.0350    7.3780   -0.9400 O   0  0  0  0  0  0  0  0  0  0  0  0
    0.6300    3.5320   -0.5830 S   0  0  0  0  0  0  0  0  0  0  0  0
   -2.9140    0.5370    0.1660 C   0  0  0  0  0  0  0  0  0  0  0  0
   -4.1160   -0.1050    0.3760 C   0  0  0  0  0  0  0  0  0  0  0  0
   -5.2830    0.6390    0.2520 O   0  0  0  0  0  0  0  0  0  0  0  0
   -5.3760    1.8070   -0.5040 C   0  0  0  0  0  0  0  0  0  0  0  0
   -4.0520    2.3520   -0.9630 C   0  0  0  0  0  0  0  0  0  0  0  0
   -2.9560    1.8840   -0.1570 O   0  0  0  0  0  0  0  0  0  0  0  0
  1  2  1  0
  2  3  1  0
  3  4  2  0
  3 27  1  0
  4  5  1  0
  5  6  2  0
  6  7  1  0
  6 26  1  0
  7  8  1  0
  8  9  2  0
  8 10  1  0
 10 11  2  3
 10 19  1  0
 11 12  1  0
 12 13  2  0
 12 18  1  0
 13 14  1  0
 14 15  1  0
 14 16  2  0
 16 17  1  0
 16 18  1  0
 19 20  2  0
 19 25  1  0
 20 21  1  0
 21 22  2  0
 22 23  1  0
 22 25  1  0
 23 24  1  0
 26 27  2  0
 26 31  1  0
 27 28  1  0
 28 29  1  0
 29 30  1  0
 30 31  1  0
M  END
