
     RDKit          3D

 29 31  0  0  0  0  0  0  0  0999 V2000
    3.7440    0.7140   -1.8350 C   0  0  0  0  0  0  0  0  0  0  0  0
    2.7440    1.5390   -1.1580 C   0  0  0  0  0  0  0  0  0  0  0  0
    2.3950    2.7790   -1.5350 N   0  0  0  0  0  0  0  0  0  0  0  0
    1.4740    3.2250   -0.7150 N   0  0  0  0  0  0  0  0  0  0  0  0
    1.2340    2.2630    0.1900 N   0  0  0  0  0  0  0  0  0  0  0  0
    2.0030    1.2110   -0.0590 C   0  0  0  0  0  0  0  0  0  0  0  0
    2.0380   -0.0190    0.6850 C   0  0  0  0  0  0  0  0  0  0  0  0
    3.2410   -0.4040    1.3110 C   0  0  0  0  0  0  0  0  0  0  0  0
    3.3780   -1.5370    2.0460 C   0  0  0  0  0  0  0  0  0  0  0  0
    2.2750   -2.3390    2.1760 C   0  0  0  0  0  0  0  0  0  0  0  0
    1.0640   -2.0150    1.5850 C   0  0  0  0  0  0  0  0  0  0  0  0
    0.9410   -0.8400    0.8290 C   0  0  0  0  0  0  0  0  0  0  0  0
   -0.3320   -0.5190    0.1780 C   0  0  1  0  0  0  0  0  0  0  0  0
   -0.7060   -1.7720   -0.6300 C   0  0  0  0  0  0  0  0  0  0  0  0
    0.3420   -2.0560   -1.6780 C   0  0  0  0  0  0  0  0  0  0  0  0
   -0.0210   -3.2250   -2.4430 N   0  0  0  0  0  0  0  0  0  0  0  0
   -0.2020   -3.1750   -3.6790 O   0  0  0  0  0  0  0  0  0  0  0  0
   -0.1850   -4.4480   -1.8460 O   0  0  0  0  0  0  0  0  0  0  0  0
   -1.4900   -0.1780    1.0060 C   0  0  0  0  0  0  0  0  0  0  0  0
   -1.5480   -0.5500    2.3170 C   0  0  0  0  0  0  0  0  0  0  0  0
   -2.6650   -0.2930    3.0790 C   0  0  0  0  0  0  0  0  0  0  0  0
   -3.7530    0.3440    2.5460 C   0  0  0  0  0  0  0  0  0  0  0  0
   -3.6780    0.7150    1.2260 C   0  0  0  0  0  0  0  0  0  0  0  0
   -2.5650    0.4750    0.4190 C   0  0  0  0  0  0  0  0  0  0  0  0
   -2.5930    1.1480   -1.1800 S   0  0  1  0  0  0  0  0  0  0  0  0
   -2.3020    0.2320   -2.2980 O   0  0  0  0  0  0  0  0  0  0  0  0
   -4.0110    1.6510   -1.4490 O   0  0  0  0  0  0  0  0  0  0  0  0
   -1.5880    2.5780   -1.2670 N   0  0  0  0  0  0  0  0  0  0  0  0
   -2.4020    3.7100   -1.5150 N   0  0  0  0  0  0  0  0  0  0  0  0
  1  2  1  0
  2  3  2  0
  2  6  1  0
  3  4  1  0
  4  5  1  0
  5  6  2  0
  6  7  1  0
  7  8  2  0
  7 12  1  0
  8  9  1  0
  9 10  2  0
 10 11  1  0
 11 12  2  0
 12 13  1  0
 13 14  1  1
 13 19  1  0
 14 15  1  0
 15 16  1  0
 16 17  2  0
 16 18  1  0
 19 20  2  0
 19 24  1  0
 20 21  1  0
 21 22  2  0
 22 23  1  0
 23 24  2  0
 24 25  1  0
 25 26  2  0
 25 27  2  0
 25 28  1  1
 28 29  1  0
M  CHG  2  16   1  18  -1
M  END
