
     RDKit          3D

 20 21  0  0  0  0  0  0  0  0999 V2000
   -4.6050    1.6570    0.0490 O   0  0  0  0  0  0  0  0  0  0  0  0
   -4.1040    0.6730    0.6450 C   0  0  0  0  0  0  0  0  0  0  0  0
   -4.7330   -0.5130    1.0810 O   0  0  0  0  0  0  0  0  0  0  0  0
   -3.7670   -1.5140    1.1450 C   0  0  0  0  0  0  0  0  0  0  0  0
   -3.8680   -2.7270    1.4810 O   0  0  0  0  0  0  0  0  0  0  0  0
   -2.5290   -0.9340    0.7420 N   0  0  0  0  0  0  0  0  0  0  0  0
   -1.2240   -1.0610    0.1890 C   0  0  0  0  0  0  0  0  0  0  0  0
   -0.5320   -2.1020    0.3610 O   0  0  0  0  0  0  0  0  0  0  0  0
   -0.9470    0.1850   -0.5360 C   0  0  2  0  0  0  0  0  0  0  0  0
    0.4580    0.4690   -0.6810 N   0  0  0  0  0  0  0  0  0  0  0  0
    0.9730    0.5840   -2.0410 C   0  0  0  0  0  0  0  0  0  0  0  0
    0.8480    1.9190   -2.3920 F   0  0  0  0  0  0  0  0  0  0  0  0
    1.3480    0.6390    0.3860 C   0  0  0  0  0  0  0  0  0  0  0  0
    0.9740    0.5520    1.5860 O   0  0  0  0  0  0  0  0  0  0  0  0
    2.7740    0.9290    0.1320 C   0  0  0  0  0  0  0  0  0  0  0  0
    3.8080   -0.5920   -0.0080 P   0  0  0  0  0  0  0  0  0  0  0  0
    4.8350   -0.5860   -1.3860 O   0  0  0  0  0  0  0  0  0  0  0  0
    4.6760   -0.9240    1.4530 O   0  0  0  0  0  0  0  0  0  0  0  0
   -1.6910    1.2220    0.2320 C   0  0  0  0  0  0  0  0  0  0  0  0
   -2.6920    0.4980    1.0530 C   0  0  1  0  0  0  0  0  0  0  0  0
  1  2  2  0
  2  3  1  0
  2 20  1  0
  3  4  1  0
  4  5  2  0
  4  6  1  0
  6  7  1  0
  6 20  1  0
  7  8  2  0
  7  9  1  0
  9 10  1  1
  9 19  1  0
 10 11  1  0
 10 13  1  0
 11 12  1  0
 13 14  2  0
 13 15  1  0
 15 16  1  0
 16 17  1  0
 16 18  1  0
 20 19  1  6
M  END
