
     RDKit          3D

 20 21  0  0  0  0  0  0  0  0999 V2000
   -5.0310    2.2290   -1.2690 O   0  0  0  0  0  0  0  0  0  0  0  0
   -3.8890    1.6090   -1.2500 O   0  0  0  0  0  0  0  0  0  0  0  0
   -3.9690    0.4260   -0.5430 C   0  0  1  0  0  0  0  0  0  0  0  0
   -3.7020   -0.6670   -1.3410 F   0  0  0  0  0  0  0  0  0  0  0  0
   -3.0670    0.4520    0.6680 C   0  0  1  0  0  0  0  0  0  0  0  0
   -3.4780    1.5240    1.4980 O   0  0  0  0  0  0  0  0  0  0  0  0
   -3.1940   -0.7840    1.5010 C   0  0  0  0  0  0  0  0  0  0  0  0
   -2.2890   -1.9050    1.0400 C   0  0  0  0  0  0  0  0  0  0  0  0
   -0.9560   -1.4390    1.2000 O   0  0  0  0  0  0  0  0  0  0  0  0
   -0.6400   -0.2310    0.5720 C   0  0  0  0  0  0  0  0  0  0  0  0
    0.5630    0.2710    0.1260 C   0  0  0  0  0  0  0  0  0  0  0  0
    1.8310   -0.3800    0.2160 N   0  0  0  0  0  0  0  0  0  0  0  0
    3.0470    0.1870   -0.2640 C   0  0  0  0  0  0  0  0  0  0  0  0
    4.1810   -0.7810   -0.0010 C   0  0  0  0  0  0  0  0  0  0  0  0
    5.8040   -0.1040   -0.6040 P   0  0  0  0  0  0  0  0  0  0  0  0
    6.9690   -1.4140   -0.5270 O   0  0  0  0  0  0  0  0  0  0  0  0
    6.3610    1.1710    0.4290 O   0  0  0  0  0  0  0  0  0  0  0  0
    0.2650    1.4730   -0.3930 N   0  0  0  0  0  0  0  0  0  0  0  0
   -1.0150    1.7010   -0.2800 O   0  0  0  0  0  0  0  0  0  0  0  0
   -1.6380    0.6940    0.3060 C   0  0  0  0  0  0  0  0  0  0  0  0
  1  2  1  0
  2  3  1  0
  3  4  1  6
  3  5  1  0
  5  6  1  1
  5  7  1  0
  5 20  1  0
  7  8  1  0
  8  9  1  0
  9 10  1  0
 10 11  1  0
 10 20  2  0
 11 12  1  0
 11 18  2  0
 12 13  1  0
 13 14  1  0
 14 15  1  0
 15 16  1  0
 15 17  1  0
 18 19  1  0
 19 20  1  0
M  END
