
     RDKit          3D

 21 21  0  0  0  0  0  0  0  0999 V2000
   -0.2750    1.1160   -2.2140 O   0  0  0  0  0  0  0  0  0  0  0  0
   -0.0580    2.1980   -1.6320 C   0  0  0  0  0  0  0  0  0  0  0  0
   -0.3120    3.3730   -2.3150 O   0  0  0  0  0  0  0  0  0  0  0  0
    0.4510    2.2280   -0.2670 C   0  0  0  0  0  0  0  0  0  0  0  0
    0.7530    0.8970    0.3520 C   0  0  2  0  0  0  0  0  0  0  0  0
    1.8190    0.1930   -0.4680 C   0  0  0  0  0  0  0  0  0  0  0  0
    2.1070   -0.9960    0.2440 O   0  0  0  0  0  0  0  0  0  0  0  0
    3.3110   -1.9390   -0.5450 P   0  0  0  0  0  0  0  0  0  0  0  0
    4.6900   -2.1600    0.5140 O   0  0  0  0  0  0  0  0  0  0  0  0
    3.8310   -1.0440   -1.9590 O   0  0  0  0  0  0  0  0  0  0  0  0
   -0.4320    0.0680    0.4760 N   0  0  0  0  0  0  0  0  0  0  0  0
   -1.2030   -0.0030    1.4780 C   0  0  0  0  0  0  0  0  0  0  0  0
   -2.3330   -0.8870    1.4110 N   0  0  0  0  0  0  0  0  0  0  0  0
   -3.0450   -1.0860    0.2120 C   0  0  0  0  0  0  0  0  0  0  0  0
   -2.3230   -1.7950   -0.8930 C   0  0  0  0  0  0  0  0  0  0  0  0
   -3.2340   -1.8730   -1.9750 O   0  0  0  0  0  0  0  0  0  0  0  0
   -0.9700    0.7920    2.7110 C   0  0  2  0  0  0  0  0  0  0  0  0
   -1.8880    1.8390    2.7730 F   0  0  0  0  0  0  0  0  0  0  0  0
    0.3540    1.2570    2.7530 O   0  0  0  0  0  0  0  0  0  0  0  0
    1.2400    1.1690    1.7170 C   0  0  0  0  0  0  0  0  0  0  0  0
    2.4600    1.3160    1.9160 O   0  0  0  0  0  0  0  0  0  0  0  0
  1  2  2  0
  2  3  1  0
  2  4  1  0
  5  4  1  6
  5  6  1  0
  5 11  1  0
  5 20  1  0
  6  7  1  0
  7  8  1  0
  8  9  1  0
  8 10  1  0
 11 12  2  0
 12 13  1  0
 12 17  1  0
 13 14  1  0
 14 15  1  0
 15 16  1  0
 17 18  1  6
 17 19  1  0
 19 20  1  0
 20 21  2  0
M  END
