
     RDKit          3D

  7  6  0  0  0  0  0  0  0  0999 V2000
    1.6980    0.9730    0.3060 O   0  0  0  0  0  0  0  0  0  0  0  0
    0.9100    0.0400   -0.0260 C   0  0  0  0  0  0  0  0  0  0  0  0
    1.6610   -1.1210   -0.3500 O   0  0  0  0  0  0  0  0  0  0  0  0
   -0.7050    0.1680   -0.0670 P   0  0  0  0  0  0  0  0  0  0  0  0
   -0.7430   -0.8310    1.3270 O   0  0  0  0  0  0  0  0  0  0  0  0
   -0.9060   -0.5260   -1.5400 O   0  0  0  0  0  0  0  0  0  0  0  0
   -0.9220    1.7640    0.1180 O   0  0  0  0  0  0  0  0  0  0  0  0
  1  2  2  0
  2  3  1  0
  2  4  1  0
  4  5  1  0
  4  6  1  0
  4  7  1  0
M  END
