
     RDKit          3D

 21 22  0  0  0  0  0  0  0  0999 V2000
   -5.8250   -2.1920    1.8810 O   0  0  0  0  0  0  0  0  0  0  0  0
   -5.5960   -1.0640    1.3300 C   0  0  0  0  0  0  0  0  0  0  0  0
   -4.3050   -0.7150    0.8620 N   0  0  0  0  0  0  0  0  0  0  0  0
   -4.0020    0.3880    0.3040 C   0  0  0  0  0  0  0  0  0  0  0  0
   -2.6950    0.6620   -0.1340 O   0  0  0  0  0  0  0  0  0  0  0  0
   -1.7210   -0.3080    0.0560 C   0  0  0  0  0  0  0  0  0  0  0  0
   -2.0290   -1.3890    0.6070 O   0  0  0  0  0  0  0  0  0  0  0  0
   -0.3900   -0.0700   -0.3710 N   0  0  0  0  0  0  0  0  0  0  0  0
    0.6620   -1.0610   -0.1900 C   0  0  0  0  0  0  0  0  0  0  0  0
    1.9800   -0.5750   -0.7240 C   0  0  0  0  0  0  0  0  0  0  0  0
    2.4250    0.5720   -0.1160 O   0  0  0  0  0  0  0  0  0  0  0  0
    3.9370    1.0190   -0.8170 P   0  0  0  0  0  0  0  0  0  0  0  0
    5.0920    1.5000    0.4190 O   0  0  0  0  0  0  0  0  0  0  0  0
    5.8150    0.2910    0.5450 C   0  0  0  0  0  0  0  0  0  0  0  0
    6.0420   -0.1950   -0.8760 C   0  0  0  0  0  0  0  0  0  0  0  0
    4.7520   -0.4230   -1.4080 O   0  0  0  0  0  0  0  0  0  0  0  0
   -4.9990    1.4390    0.0830 C   0  0  1  0  0  0  0  0  0  0  0  0
   -5.0640    1.8180   -1.2560 F   0  0  0  0  0  0  0  0  0  0  0  0
   -6.3270    1.0740    0.5660 C   0  0  0  0  0  0  0  0  0  0  0  0
   -7.2720    1.9440    0.4130 O   0  0  0  0  0  0  0  0  0  0  0  0
   -6.5990   -0.1330    1.1630 O   0  0  0  0  0  0  0  0  0  0  0  0
  1  2  2  0
  2  3  1  0
  2 21  1  0
  3  4  2  0
  4  5  1  0
  4 17  1  0
  5  6  1  0
  6  7  2  0
  6  8  1  0
  8  9  1  0
  9 10  1  0
 10 11  1  0
 11 12  1  0
 12 13  1  0
 12 16  1  0
 13 14  1  0
 14 15  1  0
 15 16  1  0
 17 18  1  6
 17 19  1  0
 19 20  2  0
 19 21  1  0
M  END
