
     RDKit          3D

 20 20  0  0  0  0  0  0  0  0999 V2000
    7.2620   -0.3810    1.4720 O   0  0  0  0  0  0  0  0  0  0  0  0
    6.1010    0.5380    0.9830 P   0  0  0  0  0  0  0  0  0  0  0  0
    4.3560   -0.0430    1.1690 C   0  0  0  0  0  0  0  0  0  0  0  0
    3.5720    0.3790    0.0300 N   0  0  0  0  0  0  0  0  0  0  0  0
    2.2020    0.0580   -0.0650 C   0  0  0  0  0  0  0  0  0  0  0  0
    1.6530   -0.6040    0.8520 O   0  0  0  0  0  0  0  0  0  0  0  0
    1.3840    0.4770   -1.2140 C   0  0  0  0  0  0  0  0  0  0  0  0
    0.0240    0.0340   -1.0870 N   0  0  0  0  0  0  0  0  0  0  0  0
   -0.9900    0.7990   -0.4560 C   0  0  0  0  0  0  0  0  0  0  0  0
   -0.8460    2.0150   -0.1700 O   0  0  0  0  0  0  0  0  0  0  0  0
   -2.2550    0.0740   -0.1440 C   0  0  1  0  0  0  0  0  0  0  0  0
   -3.1910    0.8760    0.4500 O   0  0  0  0  0  0  0  0  0  0  0  0
   -3.4530    0.4320    1.6740 O   0  0  0  0  0  0  0  0  0  0  0  0
   -3.4620    1.2060    2.8130 C   0  0  0  0  0  0  0  0  0  0  0  0
   -3.2080    2.4270    2.7180 O   0  0  0  0  0  0  0  0  0  0  0  0
   -3.7430    0.6970    4.0780 O   0  0  0  0  0  0  0  0  0  0  0  0
   -2.7520   -0.5730   -1.4070 C   0  0  0  0  0  0  0  0  0  0  0  0
   -1.6740   -0.9920   -2.3380 C   0  0  0  0  0  0  0  0  0  0  0  0
   -0.3650   -1.2480   -1.6190 C   0  0  1  0  0  0  0  0  0  0  0  0
    0.5910   -1.7380   -2.4680 F   0  0  0  0  0  0  0  0  0  0  0  0
  1  2  2  0
  2  3  1  0
  3  4  1  0
  4  5  1  0
  5  6  2  0
  5  7  1  0
  7  8  1  0
  8  9  1  0
  8 19  1  0
  9 10  2  0
  9 11  1  0
 11 12  1  6
 11 17  1  0
 12 13  1  0
 13 14  1  0
 14 15  2  0
 14 16  1  0
 17 18  1  0
 18 19  1  0
 19 20  1  6
M  END
