
     RDKit          3D

 20 20  0  0  0  0  0  0  0  0999 V2000
   -5.1780    1.4890    0.5640 O   0  0  0  0  0  0  0  0  0  0  0  0
   -4.8910    0.2780    0.5850 C   0  0  0  0  0  0  0  0  0  0  0  0
   -5.9020   -0.6540    0.6840 O   0  0  0  0  0  0  0  0  0  0  0  0
   -3.4930   -0.1650    0.5050 C   0  0  1  0  0  0  0  0  0  0  0  0
   -3.2690   -1.0040   -0.7530 C   0  0  0  0  0  0  0  0  0  0  0  0
   -1.8380   -1.3400   -1.0090 C   0  0  0  0  0  0  0  0  0  0  0  0
   -0.8850   -0.3240   -0.5380 N   0  0  0  0  0  0  0  0  0  0  0  0
    0.4580   -0.6760   -0.3930 C   0  0  0  0  0  0  0  0  0  0  0  0
    0.7610   -1.8840   -0.7240 O   0  0  0  0  0  0  0  0  0  0  0  0
    1.5940    0.1020    0.0780 C   0  0  1  0  0  0  0  0  0  0  0  0
    1.3760    1.3620    0.5320 O   0  0  0  0  0  0  0  0  0  0  0  0
    2.1300   -0.6140    1.1670 F   0  0  0  0  0  0  0  0  0  0  0  0
    2.6460    0.0300   -1.0170 C   0  0  0  0  0  0  0  0  0  0  0  0
    3.8880    0.8060   -0.6460 C   0  0  0  0  0  0  0  0  0  0  0  0
    4.5750    0.0750    0.9040 P   0  0  0  0  0  0  0  0  0  0  0  0
    5.5410   -1.3230    0.5670 O   0  0  0  0  0  0  0  0  0  0  0  0
    5.4420    1.2400    1.8520 O   0  0  0  0  0  0  0  0  0  0  0  0
   -1.4140    0.9880   -0.2760 C   0  0  0  0  0  0  0  0  0  0  0  0
   -0.7540    1.9770   -0.6660 O   0  0  0  0  0  0  0  0  0  0  0  0
   -2.6520    1.0380    0.4090 N   0  0  0  0  0  0  0  0  0  0  0  0
  1  2  2  0
  2  3  1  0
  4  2  1  6
  4  5  1  0
  4 20  1  0
  5  6  1  0
  6  7  1  0
  7  8  1  0
  7 18  1  0
  8  9  2  0
  8 10  1  0
 10 11  1  1
 10 12  1  0
 10 13  1  0
 13 14  1  0
 14 15  1  0
 15 16  1  0
 15 17  1  0
 18 19  2  0
 18 20  1  0
M  END
