
     RDKit          3D

 21 21  0  0  0  0  0  0  0  0999 V2000
    1.3410    0.9420   -1.4640 C   0  0  0  0  0  0  0  0  0  0  0  0
    1.3170    0.6880    0.0380 C   0  0  1  0  0  0  0  0  0  0  0  0
    1.5010    1.9050    0.7150 F   0  0  0  0  0  0  0  0  0  0  0  0
    0.0020    0.1700    0.3550 N   0  0  0  0  0  0  0  0  0  0  0  0
   -1.1940    0.8960    0.1070 C   0  0  0  0  0  0  0  0  0  0  0  0
   -1.1080    2.0280   -0.4070 O   0  0  0  0  0  0  0  0  0  0  0  0
   -2.5360    0.3080    0.4570 C   0  0  1  0  0  0  0  0  0  0  0  0
   -3.1220    1.1810    1.5680 C   0  0  0  0  0  0  0  0  0  0  0  0
   -3.4010    0.2970   -0.7600 C   0  0  0  0  0  0  0  0  0  0  0  0
   -3.3840   -1.0600   -1.4650 C   0  0  0  0  0  0  0  0  0  0  0  0
   -3.8420   -2.0440   -0.5030 N   0  0  0  0  0  0  0  0  0  0  0  0
   -3.2600   -1.9700    0.7980 C   0  0  0  0  0  0  0  0  0  0  0  0
   -3.6160   -2.7980    1.6770 O   0  0  0  0  0  0  0  0  0  0  0  0
   -2.3190   -0.9730    1.0190 O   0  0  0  0  0  0  0  0  0  0  0  0
    2.2680   -0.2440    0.4550 O   0  0  0  0  0  0  0  0  0  0  0  0
    3.6210   -0.0340    0.2600 C   0  0  0  0  0  0  0  0  0  0  0  0
    3.9710    1.0280   -0.3070 O   0  0  0  0  0  0  0  0  0  0  0  0
    4.5620   -0.9860    0.6850 O   0  0  0  0  0  0  0  0  0  0  0  0
    6.2590   -0.7020    0.4290 P   0  0  0  0  0  0  0  0  0  0  0  0
    6.6170    0.9800    0.4310 O   0  0  0  0  0  0  0  0  0  0  0  0
    7.1400   -1.5160    1.6900 O   0  0  0  0  0  0  0  0  0  0  0  0
  2  1  1  6
  2  3  1  0
  2  4  1  0
  2 15  1  0
  4  5  1  0
  5  6  2  0
  5  7  1  0
  7  8  1  1
  7  9  1  0
  7 14  1  0
  9 10  1  0
 10 11  1  0
 11 12  1  0
 12 13  2  0
 12 14  1  0
 15 16  1  0
 16 17  2  0
 16 18  1  0
 18 19  1  0
 19 20  1  0
 19 21  1  0
M  END
