
     RDKit          3D

 24 26  0  0  0  0  0  0  0  0999 V2000
    0.9470   -1.9940    2.0750 C   0  0  0  0  0  0  0  0  0  0  0  0
    1.4840   -1.0380    1.2630 O   0  0  0  0  0  0  0  0  0  0  0  0
    1.1850   -0.5320    0.0700 C   0  0  0  0  0  0  0  0  0  0  0  0
    0.0410   -0.6520   -0.5430 C   0  0  0  0  0  0  0  0  0  0  0  0
   -1.1370   -1.3530   -0.0750 C   0  0  0  0  0  0  0  0  0  0  0  0
   -1.3240   -2.5720    0.3540 O   0  0  0  0  0  0  0  0  0  0  0  0
   -2.5550   -2.8170    0.6880 C   0  0  0  0  0  0  0  0  0  0  0  0
   -3.1180   -4.0980    1.2140 C   0  0  0  0  0  0  0  0  0  0  0  0
   -3.2860   -1.6680    0.4730 C   0  0  0  0  0  0  0  0  0  0  0  0
   -2.4010   -0.7550   -0.0020 C   0  0  0  0  0  0  0  0  0  0  0  0
   -2.6750    0.6200   -0.3620 C   0  0  0  0  0  0  0  0  0  0  0  0
   -3.7570    0.9750   -1.1320 C   0  0  0  0  0  0  0  0  0  0  0  0
   -3.9700    2.3110   -1.4360 C   0  0  0  0  0  0  0  0  0  0  0  0
   -3.0770    3.2330   -0.9470 C   0  0  0  0  0  0  0  0  0  0  0  0
   -3.3780    5.0680   -1.3680 Br  0  0  0  0  0  0  0  0  0  0  0  0
   -1.9870    2.9160   -0.1760 C   0  0  0  0  0  0  0  0  0  0  0  0
   -1.7950    1.5840    0.1130 C   0  0  0  0  0  0  0  0  0  0  0  0
    2.2270    0.2490   -0.6710 C   0  0  0  0  0  0  0  0  0  0  0  0
    1.9420    0.7120   -1.8300 O   0  0  0  0  0  0  0  0  0  0  0  0
    3.5150    0.5080   -0.1630 N   0  0  0  0  0  0  0  0  0  0  0  0
    4.5550    1.2420   -0.8980 C   0  0  0  0  0  0  0  0  0  0  0  0
    4.7950    2.5310   -0.1310 C   0  0  0  0  0  0  0  0  0  0  0  0
    4.7350    1.8470    1.5790 S   0  0  0  0  0  0  0  0  0  0  0  0
    4.1040    0.1690    1.1160 C   0  0  0  0  0  0  0  0  0  0  0  0
  1  2  1  0
  2  3  1  0
  3  4  2  3
  3 18  1  0
  4  5  1  0
  5  6  1  0
  5 10  2  0
  6  7  1  0
  7  8  1  0
  7  9  2  0
  9 10  1  0
 10 11  1  0
 11 12  2  0
 11 17  1  0
 12 13  1  0
 13 14  2  0
 14 15  1  0
 14 16  1  0
 16 17  2  0
 18 19  2  0
 18 20  1  0
 20 21  1  0
 20 24  1  0
 21 22  1  0
 22 23  1  0
 23 24  1  0
M  END
