
     RDKit          3D

 25 27  0  0  0  0  0  0  0  0999 V2000
   -5.4820   -1.3910   -0.0150 C   0  0  0  0  0  0  0  0  0  0  0  0
   -4.3300   -1.0870   -0.9200 C   0  0  0  0  0  0  0  0  0  0  0  0
   -3.3270   -0.1970   -0.2530 C   0  0  0  0  0  0  0  0  0  0  0  0
   -3.5320    1.1630   -0.1040 C   0  0  0  0  0  0  0  0  0  0  0  0
   -4.8030    1.7440   -0.6420 C   0  0  0  0  0  0  0  0  0  0  0  0
   -2.6020    1.9630    0.5140 C   0  0  0  0  0  0  0  0  0  0  0  0
   -2.8490    3.4030    0.6590 C   0  0  0  0  0  0  0  0  0  0  0  0
   -1.4520    1.3740    0.9850 C   0  0  0  0  0  0  0  0  0  0  0  0
   -1.2230    0.0130    0.8470 C   0  0  0  0  0  0  0  0  0  0  0  0
   -0.0400   -0.4970    1.3490 O   0  0  0  0  0  0  0  0  0  0  0  0
    1.1300   -0.6130    0.6150 C   0  0  0  0  0  0  0  0  0  0  0  0
    1.1110   -0.2320   -0.5770 O   0  0  0  0  0  0  0  0  0  0  0  0
    2.3830   -1.1690    1.2020 C   0  0  0  0  0  0  0  0  0  0  0  0
    3.4530   -1.1950    0.2350 N   0  0  0  0  0  0  0  0  0  0  0  0
    3.5970   -2.3510   -0.5550 C   0  0  0  0  0  0  0  0  0  0  0  0
    3.2720   -3.5020   -0.1770 O   0  0  0  0  0  0  0  0  0  0  0  0
    4.1700   -2.2030   -1.9250 C   0  0  0  0  0  0  0  0  0  0  0  0
    5.4810   -1.4770   -1.7210 C   0  0  0  0  0  0  0  0  0  0  0  0
    5.3390   -0.2720   -0.9080 C   0  0  0  0  0  0  0  0  0  0  0  0
    6.2730    1.2500   -0.8670 S   0  0  0  0  0  0  0  0  0  0  0  0
    5.3340    2.0600    0.4280 C   0  0  0  0  0  0  0  0  0  0  0  0
    4.3620    1.0920    0.7370 C   0  0  0  0  0  0  0  0  0  0  0  0
    4.3650   -0.0580    0.0780 C   0  0  0  0  0  0  0  0  0  0  0  0
   -2.1580   -0.7490    0.2340 C   0  0  0  0  0  0  0  0  0  0  0  0
   -1.8980   -2.6410    0.0150 Br  0  0  0  0  0  0  0  0  0  0  0  0
  1  2  1  0
  2  3  1  0
  3  4  2  0
  3 24  1  0
  4  5  1  0
  4  6  1  0
  6  7  1  0
  6  8  2  0
  8  9  1  0
  9 10  1  0
  9 24  2  0
 10 11  1  0
 11 12  2  0
 11 13  1  0
 13 14  1  0
 14 15  1  0
 14 23  1  0
 15 16  2  0
 15 17  1  0
 17 18  1  0
 18 19  1  0
 19 20  1  0
 19 23  2  0
 20 21  1  0
 21 22  2  0
 22 23  1  0
 24 25  1  0
M  END
