
     RDKit          3D

 25 27  0  0  0  0  0  0  0  0999 V2000
    5.3420    1.3460   -0.3070 C   0  0  0  0  0  0  0  0  0  0  0  0
    4.3440    0.5710   -1.0400 C   0  0  0  0  0  0  0  0  0  0  0  0
    3.0850    0.3680   -0.9680 C   0  0  0  0  0  0  0  0  0  0  0  0
    2.0680    0.8650   -0.0800 C   0  0  0  0  0  0  0  0  0  0  0  0
    2.0520    2.0780    0.5520 C   0  0  0  0  0  0  0  0  0  0  0  0
    3.2720    3.4790    0.1170 Br  0  0  0  0  0  0  0  0  0  0  0  0
    1.0360    2.4180    1.4470 C   0  0  0  0  0  0  0  0  0  0  0  0
    1.0630    3.7570    2.1240 C   0  0  0  0  0  0  0  0  0  0  0  0
    0.0300    1.5550    1.7110 C   0  0  0  0  0  0  0  0  0  0  0  0
    0.0380    0.2900    1.0520 C   0  0  0  0  0  0  0  0  0  0  0  0
   -1.3660   -0.6990    1.4190 S   0  0  2  0  0  0  0  0  0  0  0  0
   -1.8490   -0.3250    2.8060 O   0  0  0  0  0  0  0  0  0  0  0  0
   -0.9260   -2.1500    1.5500 O   0  0  0  0  0  0  0  0  0  0  0  0
   -2.5910   -0.4770    0.3130 N   0  0  0  0  0  0  0  0  0  0  0  0
   -3.1080   -1.5100   -0.4760 C   0  0  0  0  0  0  0  0  0  0  0  0
   -4.6470   -1.3750   -0.4290 C   0  0  0  0  0  0  0  0  0  0  0  0
   -4.9530    0.0240   -0.8770 C   0  0  0  0  0  0  0  0  0  0  0  0
   -3.7500    0.7630   -1.4070 C   0  0  0  0  0  0  0  0  0  0  0  0
   -2.6000    0.7630   -0.4100 C   0  0  0  0  0  0  0  0  0  0  0  0
    0.9990   -0.0780    0.1890 C   0  0  0  0  0  0  0  0  0  0  0  0
    1.1490   -1.4400   -0.3170 C   0  0  0  0  0  0  0  0  0  0  0  0
    0.3290   -2.2900   -0.8810 C   0  0  0  0  0  0  0  0  0  0  0  0
    1.1130   -3.5380   -1.1650 C   0  0  0  0  0  0  0  0  0  0  0  0
    2.4280   -3.0000   -1.2420 O   0  0  0  0  0  0  0  0  0  0  0  0
    2.4180   -2.2410   -0.0630 C   0  0  0  0  0  0  0  0  0  0  0  0
  1  2  1  0
  2  3  2  3
  3  4  1  0
  4  5  2  0
  4 20  1  0
  5  6  1  0
  5  7  1  0
  7  8  1  0
  7  9  2  0
  9 10  1  0
 10 11  1  0
 10 20  2  0
 11 12  2  0
 11 13  2  0
 11 14  1  6
 14 15  1  0
 14 19  1  0
 15 16  1  0
 16 17  1  0
 17 18  1  0
 18 19  1  0
 20 21  1  0
 21 22  2  0
 21 25  1  0
 22 23  1  0
 23 24  1  0
 24 25  1  0
M  END
