
     RDKit          3D

 25 27  0  0  0  0  0  0  0  0999 V2000
    6.6750   -1.2240   -1.7340 C   0  0  0  0  0  0  0  0  0  0  0  0
    6.7890   -0.5670   -0.6450 C   0  0  0  0  0  0  0  0  0  0  0  0
    5.8550    0.0040    0.3030 C   0  0  0  0  0  0  0  0  0  0  0  0
    4.4250   -0.0320    0.2610 C   0  0  0  0  0  0  0  0  0  0  0  0
    3.6640   -0.5840   -0.6490 C   0  0  0  0  0  0  0  0  0  0  0  0
    2.1800   -0.4890   -0.4710 C   0  0  0  0  0  0  0  0  0  0  0  0
    1.2780   -0.9370   -1.2050 N   0  0  0  0  0  0  0  0  0  0  0  0
   -0.0560   -0.7530   -0.8740 C   0  0  0  0  0  0  0  0  0  0  0  0
   -1.0110   -1.2020   -1.6210 O   0  0  0  0  0  0  0  0  0  0  0  0
   -0.2930   -0.0340    0.3390 C   0  0  0  0  0  0  0  0  0  0  0  0
   -1.3830    0.2700    0.9620 C   0  0  0  0  0  0  0  0  0  0  0  0
   -2.7450   -0.0600    0.5770 C   0  0  0  0  0  0  0  0  0  0  0  0
   -3.1350   -1.3280    0.2710 C   0  0  0  0  0  0  0  0  0  0  0  0
   -4.4460   -1.5610   -0.1140 C   0  0  0  0  0  0  0  0  0  0  0  0
   -5.3910   -0.5760   -0.2070 C   0  0  0  0  0  0  0  0  0  0  0  0
   -4.9790    0.7140    0.1100 C   0  0  0  0  0  0  0  0  0  0  0  0
   -3.6860    0.9730    0.4940 C   0  0  0  0  0  0  0  0  0  0  0  0
   -5.9470    1.7170    0.0140 O   0  0  0  0  0  0  0  0  0  0  0  0
   -7.3230    1.3420    0.1340 C   0  0  0  0  0  0  0  0  0  0  0  0
   -7.5820    0.2530   -0.8740 C   0  0  0  0  0  0  0  0  0  0  0  0
   -6.7010   -0.8190   -0.5940 O   0  0  0  0  0  0  0  0  0  0  0  0
    1.3710    0.3600    0.8820 S   0  0  0  0  0  0  0  0  0  0  0  0
    6.3960    0.6530    1.3760 C   0  0  0  0  0  0  0  0  0  0  0  0
    5.7070    1.3020    2.4530 C   0  0  0  0  0  0  0  0  0  0  0  0
    6.1660    0.4820    4.1890 Br  0  0  0  0  0  0  0  0  0  0  0  0
  1  2  2  0
  2  3  1  0
  3  4  1  0
  3 23  2  3
  4  5  2  3
  5  6  1  0
  6  7  2  0
  6 22  1  0
  7  8  1  0
  8  9  2  0
  8 10  1  0
 10 11  2  3
 10 22  1  0
 11 12  1  0
 12 13  2  0
 12 17  1  0
 13 14  1  0
 14 15  2  0
 15 16  1  0
 15 21  1  0
 16 17  2  0
 16 18  1  0
 18 19  1  0
 19 20  1  0
 20 21  1  0
 23 24  1  0
 24 25  1  0
M  END
