
     RDKit          3D

 25 26  0  0  0  0  0  0  0  0999 V2000
   -6.1670   -0.0990   -3.0050 C   0  0  0  0  0  0  0  0  0  0  0  0
   -6.3430   -0.4860   -1.7980 C   0  0  0  0  0  0  0  0  0  0  0  0
   -8.1600   -0.9250   -1.2860 Br  0  0  0  0  0  0  0  0  0  0  0  0
   -5.3150   -0.6380   -0.7450 C   0  0  0  0  0  0  0  0  0  0  0  0
   -5.7680   -1.0500    0.4000 C   0  0  0  0  0  0  0  0  0  0  0  0
   -5.1360   -1.3310    1.6760 C   0  0  0  0  0  0  0  0  0  0  0  0
   -3.9260   -0.3160   -1.0860 C   0  0  0  0  0  0  0  0  0  0  0  0
   -2.8600   -0.4010   -0.2250 C   0  0  0  0  0  0  0  0  0  0  0  0
   -1.5880   -0.0740   -0.6500 C   0  0  0  0  0  0  0  0  0  0  0  0
   -0.4510   -0.1700    0.2880 C   0  0  0  0  0  0  0  0  0  0  0  0
   -0.3970   -0.5380    1.5600 C   0  0  0  0  0  0  0  0  0  0  0  0
    0.7790   -0.5450    2.2150 C   0  0  0  0  0  0  0  0  0  0  0  0
    1.8950   -0.1610    1.5170 C   0  0  0  0  0  0  0  0  0  0  0  0
    3.2970   -0.0520    1.9020 C   0  0  0  0  0  0  0  0  0  0  0  0
    4.1950    0.3490    1.0270 C   0  0  0  0  0  0  0  0  0  0  0  0
    5.5830    0.4700    1.3630 C   0  0  0  0  0  0  0  0  0  0  0  0
    5.9370    0.1740    2.5530 O   0  0  0  0  0  0  0  0  0  0  0  0
    6.5450    0.9000    0.4250 N   0  0  0  0  0  0  0  0  0  0  0  0
    6.1680    1.2380   -0.9220 C   0  0  0  0  0  0  0  0  0  0  0  0
    7.9240    1.0030    0.8180 C   0  0  0  0  0  0  0  0  0  0  0  0
    1.2090    0.2090   -0.1060 S   0  0  0  0  0  0  0  0  0  0  0  0
   -1.3710    0.3400   -1.9350 C   0  0  0  0  0  0  0  0  0  0  0  0
   -2.4850    0.4130   -2.7780 C   0  0  0  0  0  0  0  0  0  0  0  0
   -2.2930    0.7910   -3.9550 O   0  0  0  0  0  0  0  0  0  0  0  0
   -3.6310    0.0890   -2.2980 O   0  0  0  0  0  0  0  0  0  0  0  0
  1  2  2  0
  2  3  1  0
  2  4  1  0
  4  5  2  3
  4  7  1  0
  5  6  1  0
  7  8  2  0
  7 25  1  0
  8  9  1  0
  9 10  1  0
  9 22  2  0
 10 11  2  0
 10 21  1  0
 11 12  1  0
 12 13  2  0
 13 14  1  0
 13 21  1  0
 14 15  2  3
 15 16  1  0
 16 17  2  0
 16 18  1  0
 18 19  1  0
 18 20  1  0
 22 23  1  0
 23 24  2  0
 23 25  1  0
M  END
