
     RDKit          3D

 24 26  0  0  0  0  0  0  0  0999 V2000
    1.5580   -2.2790    2.2820 C   0  0  0  0  0  0  0  0  0  0  0  0
    1.6870   -1.4990    1.1240 O   0  0  0  0  0  0  0  0  0  0  0  0
    2.8680   -0.8520    0.8280 C   0  0  0  0  0  0  0  0  0  0  0  0
    3.9360   -0.9890    1.7100 C   0  0  0  0  0  0  0  0  0  0  0  0
    5.1330   -0.3490    1.4350 C   0  0  0  0  0  0  0  0  0  0  0  0
    5.2570    0.4080    0.3090 C   0  0  0  0  0  0  0  0  0  0  0  0
    6.8770    1.3050   -0.1100 Br  0  0  0  0  0  0  0  0  0  0  0  0
    4.1740    0.5340   -0.5630 C   0  0  0  0  0  0  0  0  0  0  0  0
    2.9770   -0.0920   -0.3120 C   0  0  0  0  0  0  0  0  0  0  0  0
    1.9190    0.0270   -1.1580 O   0  0  0  0  0  0  0  0  0  0  0  0
    0.6820    0.5440   -0.8490 C   0  0  0  0  0  0  0  0  0  0  0  0
   -0.4350   -0.2510   -0.9850 C   0  0  0  0  0  0  0  0  0  0  0  0
   -1.6920    0.2320   -0.6850 C   0  0  0  0  0  0  0  0  0  0  0  0
   -2.8830   -0.5330   -0.7860 N   0  0  0  0  0  0  0  0  0  0  0  0
   -4.1480    0.1460   -0.8000 C   0  0  0  0  0  0  0  0  0  0  0  0
   -5.2140   -0.5350   -1.6360 C   0  0  0  0  0  0  0  0  0  0  0  0
   -5.4640   -2.2130   -0.9670 S   0  0  0  0  0  0  0  0  0  0  0  0
   -3.8700   -2.7570   -0.2910 C   0  0  0  0  0  0  0  0  0  0  0  0
   -2.7310   -1.9470   -0.8550 C   0  0  0  0  0  0  0  0  0  0  0  0
   -1.7910    1.5320   -0.2460 C   0  0  0  0  0  0  0  0  0  0  0  0
   -0.6680    2.3330   -0.1080 C   0  0  0  0  0  0  0  0  0  0  0  0
    0.5760    1.8400   -0.4110 C   0  0  0  0  0  0  0  0  0  0  0  0
    1.6870    2.6690   -0.2630 O   0  0  0  0  0  0  0  0  0  0  0  0
    1.6120    3.9890    0.1800 C   0  0  0  0  0  0  0  0  0  0  0  0
  1  2  1  0
  2  3  1  0
  3  4  2  0
  3  9  1  0
  4  5  1  0
  5  6  2  0
  6  7  1  0
  6  8  1  0
  8  9  2  0
  9 10  1  0
 10 11  1  0
 11 12  2  0
 11 22  1  0
 12 13  1  0
 13 14  1  0
 13 20  2  0
 14 15  1  0
 14 19  1  0
 15 16  1  0
 16 17  1  0
 17 18  1  0
 18 19  1  0
 20 21  1  0
 21 22  2  0
 22 23  1  0
 23 24  1  0
M  END
