
     RDKit          3D

 25 27  0  0  0  0  0  0  0  0999 V2000
   -5.5840    1.3880   -0.3800 C   0  0  0  0  0  0  0  0  0  0  0  0
   -5.6470    0.9170    1.0370 C   0  0  0  0  0  0  0  0  0  0  0  0
   -5.0010   -0.2910    1.2760 O   0  0  0  0  0  0  0  0  0  0  0  0
   -3.6700   -0.5620    1.0770 C   0  0  0  0  0  0  0  0  0  0  0  0
   -3.2550   -1.0410   -0.1350 C   0  0  0  0  0  0  0  0  0  0  0  0
   -4.1970   -1.2920   -1.2790 C   0  0  0  0  0  0  0  0  0  0  0  0
   -1.9060   -1.3010   -0.2950 C   0  0  0  0  0  0  0  0  0  0  0  0
   -0.9630   -1.1050    0.6910 C   0  0  0  0  0  0  0  0  0  0  0  0
    0.4750   -1.3980    0.4730 C   0  0  0  0  0  0  0  0  0  0  0  0
    1.2130   -0.2030   -0.0570 C   0  0  0  0  0  0  0  0  0  0  0  0
    0.5230    0.8220   -0.2280 O   0  0  0  0  0  0  0  0  0  0  0  0
    2.6150   -0.2940   -0.3300 N   0  0  0  0  0  0  0  0  0  0  0  0
    3.3500   -1.5220   -0.0200 C   0  0  0  0  0  0  0  0  0  0  0  0
    4.3710   -1.1340    1.0120 C   0  0  0  0  0  0  0  0  0  0  0  0
    5.2990   -0.0940    0.5130 C   0  0  0  0  0  0  0  0  0  0  0  0
    4.6790    0.8740   -0.4620 C   0  0  0  0  0  0  0  0  0  0  0  0
    5.5590    1.8680   -0.8930 C   0  0  0  0  0  0  0  0  0  0  0  0
    4.9310    2.9980   -1.9940 S   0  0  0  0  0  0  0  0  0  0  0  0
    3.2960    2.7070   -2.3850 C   0  0  0  0  0  0  0  0  0  0  0  0
    2.6300    3.4280   -3.1870 O   0  0  0  0  0  0  0  0  0  0  0  0
    2.7450    1.6210   -1.7610 C   0  0  0  0  0  0  0  0  0  0  0  0
    3.3690    0.7770   -0.8800 C   0  0  0  0  0  0  0  0  0  0  0  0
   -1.4100   -0.6160    1.9160 C   0  0  0  0  0  0  0  0  0  0  0  0
   -2.7730   -0.3500    2.0890 C   0  0  0  0  0  0  0  0  0  0  0  0
   -3.3500    0.3190    3.7790 Br  0  0  0  0  0  0  0  0  0  0  0  0
  1  2  1  0
  2  3  1  0
  3  4  1  0
  4  5  2  0
  4 24  1  0
  5  6  1  0
  5  7  1  0
  7  8  2  0
  8  9  1  0
  8 23  1  0
  9 10  1  0
 10 11  2  0
 10 12  1  0
 12 13  1  0
 12 22  1  0
 13 14  1  0
 14 15  1  0
 15 16  1  0
 16 17  2  0
 16 22  1  0
 17 18  1  0
 18 19  1  0
 19 20  2  0
 19 21  1  0
 21 22  2  0
 23 24  2  0
 24 25  1  0
M  END
