
     RDKit          3D

 25 27  0  0  0  0  0  0  0  0999 V2000
    7.5180    0.9140   -1.4770 C   0  0  0  0  0  0  0  0  0  0  0  0
    7.1000   -0.3000   -0.7220 C   0  0  0  0  0  0  0  0  0  0  0  0
    5.7340   -0.2990   -0.3600 O   0  0  0  0  0  0  0  0  0  0  0  0
    4.7020   -0.2420   -1.2520 C   0  0  0  0  0  0  0  0  0  0  0  0
    5.0010   -0.1850   -2.4830 O   0  0  0  0  0  0  0  0  0  0  0  0
    3.2820   -0.2420   -0.8580 C   0  0  0  0  0  0  0  0  0  0  0  0
    2.3080   -0.1780   -1.8150 C   0  0  0  0  0  0  0  0  0  0  0  0
    0.9570   -0.1800   -1.4410 C   0  0  0  0  0  0  0  0  0  0  0  0
    0.6360   -0.2480   -0.1130 C   0  0  0  0  0  0  0  0  0  0  0  0
    1.6080   -0.3120    0.8600 C   0  0  0  0  0  0  0  0  0  0  0  0
    2.9430   -0.3090    0.4730 C   0  0  0  0  0  0  0  0  0  0  0  0
    1.2490   -0.3590    2.3030 C   0  0  0  0  0  0  0  0  0  0  0  0
   -0.1650   -0.7940    2.4660 C   0  0  0  0  0  0  0  0  0  0  0  0
   -1.0670    0.1010    1.6000 C   0  0  0  0  0  0  0  0  0  0  0  0
   -0.7690   -0.2500    0.2300 N   0  0  0  0  0  0  0  0  0  0  0  0
   -1.7740   -0.6590   -0.6440 C   0  0  0  0  0  0  0  0  0  0  0  0
   -1.4170   -1.4460   -1.5940 O   0  0  0  0  0  0  0  0  0  0  0  0
   -3.1900   -0.3070   -0.6290 C   0  0  0  0  0  0  0  0  0  0  0  0
   -3.9480    0.5550    0.1100 C   0  0  0  0  0  0  0  0  0  0  0  0
   -5.2720    0.6100   -0.0990 C   0  0  0  0  0  0  0  0  0  0  0  0
   -6.2020    1.5460    0.6820 C   0  0  0  0  0  0  0  0  0  0  0  0
   -5.8210   -0.1970   -1.0440 C   0  0  0  0  0  0  0  0  0  0  0  0
   -7.2070   -0.3650   -1.4950 C   0  0  0  0  0  0  0  0  0  0  0  0
   -8.2570   -1.3870   -0.2400 Br  0  0  0  0  0  0  0  0  0  0  0  0
   -4.4050   -1.0820   -1.6770 S   0  0  0  0  0  0  0  0  0  0  0  0
  1  2  1  0
  2  3  1  0
  3  4  1  0
  4  5  2  0
  4  6  1  0
  6  7  2  0
  6 11  1  0
  7  8  1  0
  8  9  2  0
  9 10  1  0
  9 15  1  0
 10 11  2  0
 10 12  1  0
 12 13  1  0
 13 14  1  0
 14 15  1  0
 15 16  1  0
 16 17  2  0
 16 18  1  0
 18 19  2  0
 18 25  1  0
 19 20  1  0
 20 21  1  0
 20 22  2  0
 22 23  1  0
 22 25  1  0
 23 24  1  0
M  END
