
     RDKit          3D

 25 27  0  0  0  0  0  0  0  0999 V2000
   -5.7630   -2.7450   -0.1380 C   0  0  0  0  0  0  0  0  0  0  0  0
   -4.5650   -2.0180   -0.2470 O   0  0  0  0  0  0  0  0  0  0  0  0
   -4.5380   -0.6650   -0.5450 C   0  0  0  0  0  0  0  0  0  0  0  0
   -5.7310   -0.0200   -0.7400 C   0  0  0  0  0  0  0  0  0  0  0  0
   -5.7510    1.3290   -1.0400 C   0  0  0  0  0  0  0  0  0  0  0  0
   -4.5390    1.9760   -1.1300 C   0  0  0  0  0  0  0  0  0  0  0  0
   -4.5640    3.8400   -1.5460 Br  0  0  0  0  0  0  0  0  0  0  0  0
   -3.3240    1.3400   -0.9370 C   0  0  0  0  0  0  0  0  0  0  0  0
   -3.3160   -0.0030   -0.6390 C   0  0  0  0  0  0  0  0  0  0  0  0
   -2.1170   -0.7890   -0.4210 C   0  0  0  0  0  0  0  0  0  0  0  0
   -1.0740   -0.3010    0.2410 C   0  0  0  0  0  0  0  0  0  0  0  0
   -0.9270    1.3360    0.9680 S   0  0  0  0  0  0  0  0  0  0  0  0
    0.5730    1.0060    1.8710 C   0  0  0  0  0  0  0  0  0  0  0  0
    1.0480    1.7660    2.7330 O   0  0  0  0  0  0  0  0  0  0  0  0
    1.0430   -0.2280    1.4020 N   0  0  0  0  0  0  0  0  0  0  0  0
    2.3720   -0.7400    1.8080 C   0  0  0  0  0  0  0  0  0  0  0  0
    3.4370   -0.2670    0.9220 C   0  0  0  0  0  0  0  0  0  0  0  0
    4.1940    0.8330    1.3320 C   0  0  0  0  0  0  0  0  0  0  0  0
    5.1960    1.3140    0.5400 C   0  0  0  0  0  0  0  0  0  0  0  0
    5.4710    0.7270   -0.6660 C   0  0  0  0  0  0  0  0  0  0  0  0
    6.5860    1.2970   -1.5010 C   0  0  0  0  0  0  0  0  0  0  0  0
    4.7310   -0.3540   -1.0760 C   0  0  0  0  0  0  0  0  0  0  0  0
    3.7030   -0.8650   -0.2850 C   0  0  0  0  0  0  0  0  0  0  0  0
    0.1970   -0.9360    0.5430 C   0  0  0  0  0  0  0  0  0  0  0  0
    0.4830   -2.0890    0.0250 O   0  0  0  0  0  0  0  0  0  0  0  0
  1  2  1  0
  2  3  1  0
  3  4  2  0
  3  9  1  0
  4  5  1  0
  5  6  2  0
  6  7  1  0
  6  8  1  0
  8  9  2  0
  9 10  1  0
 10 11  2  3
 11 12  1  0
 11 24  1  0
 12 13  1  0
 13 14  2  0
 13 15  1  0
 15 16  1  0
 15 24  1  0
 16 17  1  0
 17 18  2  0
 17 23  1  0
 18 19  1  0
 19 20  2  0
 20 21  1  0
 20 22  1  0
 22 23  2  0
 24 25  2  0
M  END
