
     RDKit          3D

 15 15  0  0  0  0  0  0  0  0999 V2000
    2.8120    1.3010   -0.5590 C   0  0  0  0  0  0  0  0  0  0  0  0
    1.8920    0.3070   -0.5170 O   0  0  0  0  0  0  0  0  0  0  0  0
    0.6420    0.6310   -0.0400 C   0  0  1  0  0  0  0  0  0  0  0  0
    0.8500    1.1230    1.3800 C   0  0  0  0  0  0  0  0  0  0  0  0
    0.0990    1.7770   -0.8280 C   0  0  0  0  0  0  0  0  0  0  0  0
   -1.6270    2.1650   -0.4450 S   0  0  0  0  0  0  0  0  0  0  0  0
   -2.4370    0.5540   -0.1040 C   0  0  2  0  0  0  0  0  0  0  0  0
   -2.6210    0.4620    1.2470 O   0  0  0  0  0  0  0  0  0  0  0  0
   -1.5330   -0.4580   -0.7080 C   0  0  2  0  0  0  0  0  0  0  0  0
   -2.1130   -1.7240   -0.8050 O   0  0  0  0  0  0  0  0  0  0  0  0
   -0.1970   -0.6140   -0.0770 C   0  0  2  0  0  0  0  0  0  0  0  0
   -0.3460   -1.2590    1.2950 C   0  0  0  0  0  0  0  0  0  0  0  0
   -1.1370   -2.3920    1.1210 O   0  0  0  0  0  0  0  0  0  0  0  0
    0.5050   -1.7080   -0.9110 C   0  0  0  0  0  0  0  0  0  0  0  0
    1.7460   -2.0020   -0.3270 O   0  0  0  0  0  0  0  0  0  0  0  0
  1  2  1  0
  2  3  1  0
  3  4  1  1
  3  5  1  0
  3 11  1  0
  5  6  1  0
  6  7  1  0
  7  8  1  1
  7  9  1  0
  9 10  1  1
  9 11  1  0
 11 12  1  1
 11 14  1  0
 12 13  1  0
 14 15  1  0
M  END
