
     RDKit          3D

 15 15  0  0  0  0  0  0  0  0999 V2000
    2.5290    0.1020   -2.1130 O   0  0  0  0  0  0  0  0  0  0  0  0
    3.1680   -1.0420   -1.6080 C   0  0  0  0  0  0  0  0  0  0  0  0
    3.1490   -0.9630   -0.0980 C   0  0  1  0  0  0  0  0  0  0  0  0
    3.8240    0.1850    0.2970 O   0  0  0  0  0  0  0  0  0  0  0  0
    1.7350   -0.9980    0.4430 C   0  0  0  0  0  0  0  0  0  0  0  0
    1.0440    0.1050   -0.0310 O   0  0  0  0  0  0  0  0  0  0  0  0
   -0.2730    0.1530    0.4190 C   0  0  2  0  0  0  0  0  0  0  0  0
   -1.2760    0.0160   -0.6960 C   0  0  0  0  0  0  0  0  0  0  0  0
   -2.5670   -0.5710   -0.1950 C   0  0  2  0  0  0  0  0  0  0  0  0
   -3.1150   -1.3420   -1.2430 O   0  0  0  0  0  0  0  0  0  0  0  0
   -3.6020    0.4880    0.1250 C   0  0  0  0  0  0  0  0  0  0  0  0
   -3.2120    1.4400    1.5860 S   0  0  0  0  0  0  0  0  0  0  0  0
   -1.5980    1.0450    2.2900 C   0  0  0  0  0  0  0  0  0  0  0  0
   -0.5100    1.3620    1.2840 C   0  0  2  0  0  0  0  0  0  0  0  0
   -0.8950    2.4800    0.6100 O   0  0  0  0  0  0  0  0  0  0  0  0
  1  2  1  0
  2  3  1  0
  3  4  1  6
  3  5  1  0
  5  6  1  0
  7  6  1  6
  7  8  1  0
  7 14  1  0
  8  9  1  0
  9 10  1  6
  9 11  1  0
 11 12  1  0
 12 13  1  0
 13 14  1  0
 14 15  1  6
M  END
