
     RDKit          3D

 15 15  0  0  0  0  0  0  0  0999 V2000
   -3.8260   -0.1010    1.1090 C   0  0  0  0  0  0  0  0  0  0  0  0
   -2.8870    0.5090    0.1120 C   0  0  2  0  0  0  0  0  0  0  0  0
   -3.0390    1.9100    0.2220 O   0  0  0  0  0  0  0  0  0  0  0  0
   -3.1370    0.1630   -1.1850 O   0  0  0  0  0  0  0  0  0  0  0  0
   -2.4880   -0.9650   -1.6310 C   0  0  0  0  0  0  0  0  0  0  0  0
   -0.9650   -0.7830   -1.7150 C   0  0  0  0  0  0  0  0  0  0  0  0
   -0.7070    0.4930   -0.9020 C   0  0  2  0  0  0  0  0  0  0  0  0
    0.9820    0.9310   -0.7370 S   0  0  0  0  0  0  0  0  0  0  0  0
    2.0040   -0.1710    0.2130 C   0  0  0  0  0  0  0  0  0  0  0  0
    3.4220    0.4210    0.2170 C   0  0  2  0  0  0  0  0  0  0  0  0
    3.8810    0.5150   -1.0980 O   0  0  0  0  0  0  0  0  0  0  0  0
    4.3610   -0.4150    1.0250 C   0  0  0  0  0  0  0  0  0  0  0  0
    5.6110    0.2400    0.9750 O   0  0  0  0  0  0  0  0  0  0  0  0
   -1.4310    0.2310    0.4250 C   0  0  1  0  0  0  0  0  0  0  0  0
   -0.9050    1.0540    1.3830 O   0  0  0  0  0  0  0  0  0  0  0  0
  2  1  1  1
  2  3  1  0
  2  4  1  0
  2 14  1  0
  4  5  1  0
  5  6  1  0
  6  7  1  0
  7  8  1  1
  7 14  1  0
  8  9  1  0
  9 10  1  0
 10 11  1  6
 10 12  1  0
 12 13  1  0
 14 15  1  1
M  END
