
     RDKit          3D

 15 16  0  0  0  0  0  0  0  0999 V2000
    4.2380    0.4580    1.3590 O   0  0  0  0  0  0  0  0  0  0  0  0
    3.5880   -0.2910    0.3830 C   0  0  0  0  0  0  0  0  0  0  0  0
    2.2570    0.0740    0.3020 O   0  0  0  0  0  0  0  0  0  0  0  0
    1.6030   -0.6660   -0.6670 C   0  0  2  0  0  0  0  0  0  0  0  0
    1.0300    0.2750   -1.6960 C   0  0  0  0  0  0  0  0  0  0  0  0
   -0.4620    0.1690   -1.6610 C   0  0  0  0  0  0  0  0  0  0  0  0
   -1.0710    0.6270   -0.3790 C   0  0  1  0  0  0  0  0  0  0  0  0
   -0.6390    1.8180    0.1410 O   0  0  0  0  0  0  0  0  0  0  0  0
   -2.5890    0.5300   -0.4550 C   0  0  2  0  0  0  0  0  0  0  0  0
   -3.2270    1.3450    0.4790 O   0  0  0  0  0  0  0  0  0  0  0  0
   -2.4370   -0.9190    0.0210 C   0  0  0  0  0  0  0  0  0  0  0  0
   -1.1020   -0.5450    0.5820 C   0  0  2  0  0  0  0  0  0  0  0  0
   -1.0640   -0.1810    2.0320 C   0  0  0  0  0  0  0  0  0  0  0  0
   -1.0980   -1.3530    2.7760 O   0  0  0  0  0  0  0  0  0  0  0  0
    0.2700   -1.6390    0.1360 S   0  0  0  0  0  0  0  0  0  0  0  0
  1  2  1  0
  2  3  1  0
  4  3  1  1
  4  5  1  0
  4 15  1  0
  5  6  1  0
  6  7  1  0
  7  8  1  1
  7  9  1  0
  7 12  1  0
  9 10  1  1
  9 11  1  0
 11 12  1  0
 12 13  1  1
 12 15  1  0
 13 14  1  0
M  END
