
     RDKit          3D

 15 15  0  0  0  0  0  0  0  0999 V2000
   -0.7140   -2.1920    0.8240 C   0  0  0  0  0  0  0  0  0  0  0  0
   -0.6510   -1.2960   -0.3950 C   0  0  1  0  0  0  0  0  0  0  0  0
    0.2430   -1.8940   -1.2960 O   0  0  0  0  0  0  0  0  0  0  0  0
   -1.8940   -1.3930   -1.0110 O   0  0  0  0  0  0  0  0  0  0  0  0
   -2.7730   -0.5210   -0.3850 C   0  0  0  0  0  0  0  0  0  0  0  0
   -2.4660    0.8450   -0.9640 C   0  0  0  0  0  0  0  0  0  0  0  0
   -1.0680    1.1980   -0.5630 C   0  0  1  0  0  0  0  0  0  0  0  0
   -0.4750    1.8380   -1.6790 O   0  0  0  0  0  0  0  0  0  0  0  0
   -1.1960    2.3050    0.4960 C   0  0  0  0  0  0  0  0  0  0  0  0
   -1.9870    3.3480    0.0520 O   0  0  0  0  0  0  0  0  0  0  0  0
   -0.2340    0.0920   -0.0570 C   0  0  2  0  0  0  0  0  0  0  0  0
    1.5040    0.3100   -0.5290 S   0  0  0  0  0  0  0  0  0  0  0  0
    2.6140   -0.6980    0.4760 C   0  0  0  0  0  0  0  0  0  0  0  0
    4.0320   -0.4830    0.0120 C   0  0  0  0  0  0  0  0  0  0  0  0
    4.3530    0.8630    0.1500 O   0  0  0  0  0  0  0  0  0  0  0  0
  2  1  1  1
  2  3  1  0
  2  4  1  0
  2 11  1  0
  4  5  1  0
  5  6  1  0
  6  7  1  0
  7  8  1  6
  7  9  1  0
  7 11  1  0
  9 10  1  0
 11 12  1  6
 12 13  1  0
 13 14  1  0
 14 15  1  0
M  END
