
     RDKit          3D

 12 12  0  0  0  0  0  0  0  0999 V2000
   -2.1830    0.9910   -0.5550 C   0  0  0  0  0  0  0  0  0  0  0  0
   -1.2740    0.1520    0.3130 C   0  0  2  0  0  0  0  0  0  0  0  0
   -1.7270    0.1180    1.6220 O   0  0  0  0  0  0  0  0  0  0  0  0
    0.1120    0.8080    0.3160 C   0  0  0  0  0  0  0  0  0  0  0  0
    0.9670   -0.2910   -0.2250 C   0  0  1  0  0  0  0  0  0  0  0  0
    0.9830   -0.3440   -1.6020 O   0  0  0  0  0  0  0  0  0  0  0  0
    2.3770   -0.1720    0.2920 C   0  0  2  0  0  0  0  0  0  0  0  0
    2.4480   -0.1130    1.6660 O   0  0  0  0  0  0  0  0  0  0  0  0
    2.8960    1.0240   -0.2160 O   0  0  0  0  0  0  0  0  0  0  0  0
    0.3230   -1.4350    0.2440 O   0  0  0  0  0  0  0  0  0  0  0  0
   -0.9780   -1.1930   -0.2550 C   0  0  1  0  0  0  0  0  0  0  0  0
   -1.8640   -2.1760    0.0630 O   0  0  0  0  0  0  0  0  0  0  0  0
  2  1  1  6
  2  3  1  0
  2  4  1  0
  2 11  1  0
  4  5  1  0
  5  6  1  6
  5  7  1  0
  5 10  1  0
  7  8  1  1
  7  9  1  0
 10 11  1  0
 11 12  1  1
M  END
