
     RDKit          3D

 12 12  0  0  0  0  0  0  0  0999 V2000
    2.8700   -1.2980    0.0340 O   0  0  0  0  0  0  0  0  0  0  0  0
    2.2710   -0.0420    0.1880 C   0  0  0  0  0  0  0  0  0  0  0  0
    0.8050   -0.2150   -0.0940 C   0  0  1  0  0  0  0  0  0  0  0  0
    0.6230   -0.6810   -1.3780 O   0  0  0  0  0  0  0  0  0  0  0  0
    0.2760   -1.1220    0.8290 O   0  0  0  0  0  0  0  0  0  0  0  0
   -0.9920   -1.5240    0.4010 C   0  0  2  0  0  0  0  0  0  0  0  0
   -0.9660   -2.0770   -0.8740 O   0  0  0  0  0  0  0  0  0  0  0  0
   -1.9200   -0.3250    0.3880 C   0  0  0  0  0  0  0  0  0  0  0  0
   -1.3670    0.7820   -0.4970 C   0  0  0  0  0  0  0  0  0  0  0  0
    0.0350    1.0810    0.0530 C   0  0  2  0  0  0  0  0  0  0  0  0
    0.6300    2.1090   -0.6490 O   0  0  0  0  0  0  0  0  0  0  0  0
   -0.1150    1.4120    1.4030 O   0  0  0  0  0  0  0  0  0  0  0  0
  1  2  1  0
  2  3  1  0
  3  4  1  6
  3  5  1  0
  3 10  1  0
  5  6  1  0
  6  7  1  6
  6  8  1  0
  8  9  1  0
  9 10  1  0
 10 11  1  6
 10 12  1  0
M  END
