
     RDKit          3D

 18 20  0  0  0  0  0  0  0  0999 V2000
    5.2140   -0.2520   -0.5780 N   0  0  0  0  0  0  0  0  0  0  0  0
    3.9230    0.2710   -0.2930 C   0  0  0  0  0  0  0  0  0  0  0  0
    3.7860    1.5520    0.0300 C   0  0  0  0  0  0  0  0  0  0  0  0
    2.3810    2.0080    0.3130 C   0  0  0  0  0  0  0  0  0  0  0  0
    1.8340    1.0470    1.2550 N   0  0  0  0  0  0  0  0  0  0  0  0
    1.7030   -0.2680    0.7110 C   0  0  1  0  0  0  0  0  0  0  0  0
    0.3490   -0.5290    0.1130 C   0  0  1  0  0  0  0  0  0  0  0  0
    0.3170   -1.9430   -0.4320 C   0  0  0  0  0  0  0  0  0  0  0  0
   -0.9500   -2.0060   -1.2970 C   0  0  0  0  0  0  0  0  0  0  0  0
   -2.1040   -1.8300   -0.3380 C   0  0  0  0  0  0  0  0  0  0  0  0
   -2.0700   -0.3940    0.2160 C   0  0  2  0  0  0  0  0  0  0  0  0
   -3.2790   -0.2220    1.0390 C   0  0  0  0  0  0  0  0  0  0  0  0
   -4.1190    0.9680    0.7720 C   0  0  0  0  0  0  0  0  0  0  0  0
   -3.3530    2.0120    0.0050 C   0  0  0  0  0  0  0  0  0  0  0  0
   -2.8460    1.2550   -1.2310 C   0  0  0  0  0  0  0  0  0  0  0  0
   -1.8610    0.4260   -0.8290 O   0  0  0  0  0  0  0  0  0  0  0  0
   -0.7850   -0.3480    1.0650 C   0  0  0  0  0  0  0  0  0  0  0  0
    2.7330   -0.5910   -0.3520 C   0  0  0  0  0  0  0  0  0  0  0  0
  1  2  1  0
  2  3  2  0
  2 18  1  0
  3  4  1  0
  4  5  1  0
  5  6  1  0
  6  7  1  0
  6 18  1  6
  7  8  1  1
  7 17  1  0
  8  9  1  0
  9 10  1  0
 11 10  1  6
 11 12  1  0
 11 16  1  0
 11 17  1  0
 12 13  1  0
 13 14  1  0
 14 15  1  0
 15 16  1  0
M  CHG  1   1   1
M  END
