
     RDKit          3D

 18 20  0  0  0  0  0  0  0  0999 V2000
    2.9240    1.5010    1.1050 N   0  0  0  0  0  0  0  0  0  0  0  0
    2.6700    1.1470   -0.2760 C   0  0  1  0  0  0  0  0  0  0  0  0
    3.9000    0.5730   -0.9450 C   0  0  0  0  0  0  0  0  0  0  0  0
    4.3010   -0.6630   -0.1690 C   0  0  0  0  0  0  0  0  0  0  0  0
    3.3310   -1.7570   -0.5140 C   0  0  0  0  0  0  0  0  0  0  0  0
    1.9470   -1.2500   -0.3960 C   0  0  0  0  0  0  0  0  0  0  0  0
    0.9260   -2.1220   -0.3960 N   0  0  0  0  0  0  0  0  0  0  0  0
   -0.3710   -1.7210   -0.2910 C   0  0  0  0  0  0  0  0  0  0  0  0
   -1.2440   -2.6460   -0.3050 O   0  0  0  0  0  0  0  0  0  0  0  0
   -0.7080   -0.3820   -0.1790 C   0  0  0  0  0  0  0  0  0  0  0  0
   -2.1150    0.0330   -0.0420 C   0  0  0  0  0  0  0  0  0  0  0  0
   -2.4520    1.2970   -0.0360 C   0  0  0  0  0  0  0  0  0  0  0  0
   -3.8420    1.8280    0.0950 C   0  0  0  0  0  0  0  0  0  0  0  0
   -4.8290    0.7260   -0.2660 C   0  0  0  0  0  0  0  0  0  0  0  0
   -4.4450   -0.4900    0.5290 C   0  0  0  0  0  0  0  0  0  0  0  0
   -3.1250   -1.0220    0.1150 C   0  0  0  0  0  0  0  0  0  0  0  0
    0.3010    0.5190   -0.1770 C   0  0  0  0  0  0  0  0  0  0  0  0
    1.6330    0.0850   -0.2860 C   0  0  0  0  0  0  0  0  0  0  0  0
  2  1  1  1
  2  3  1  0
  2 18  1  0
  3  4  1  0
  4  5  1  0
  5  6  1  0
  6  7  1  0
  6 18  2  0
  7  8  1  0
  8  9  2  0
  8 10  1  0
 10 11  1  0
 10 17  2  0
 11 12  2  0
 11 16  1  0
 12 13  1  0
 13 14  1  0
 14 15  1  0
 15 16  1  0
 17 18  1  0
M  CHG  1   1   1
M  END
