
     RDKit          3D

 12 12  0  0  0  0  0  0  0  0999 V2000
   -1.3460    2.8770    0.4130 O   0  0  0  0  0  0  0  0  0  0  0  0
   -0.9200    1.7120    0.2970 C   0  0  0  0  0  0  0  0  0  0  0  0
    0.4220    1.3600    0.3540 O   0  0  0  0  0  0  0  0  0  0  0  0
    0.8540    0.0510    0.6390 C   0  0  2  0  0  0  0  0  0  0  0  0
    2.3070   -0.1020    0.2310 C   0  0  0  0  0  0  0  0  0  0  0  0
    3.0820    0.8240    0.9540 O   0  0  0  0  0  0  0  0  0  0  0  0
    0.0240   -1.0050   -0.0090 C   0  0  2  0  0  0  0  0  0  0  0  0
    0.7440   -1.7360   -0.9650 O   0  0  0  0  0  0  0  0  0  0  0  0
   -1.1920   -0.4510   -0.7300 C   0  0  2  0  0  0  0  0  0  0  0  0
   -0.7430    0.0580   -1.9490 O   0  0  0  0  0  0  0  0  0  0  0  0
   -1.8950    0.6140    0.0850 C   0  0  1  0  0  0  0  0  0  0  0  0
   -2.2420    0.0630    1.2970 O   0  0  0  0  0  0  0  0  0  0  0  0
  1  2  2  0
  2  3  1  0
  2 11  1  0
  3  4  1  0
  4  5  1  6
  4  7  1  0
  5  6  1  0
  7  8  1  6
  7  9  1  0
  9 10  1  6
  9 11  1  0
 11 12  1  1
M  END
