
     RDKit          3D

 15 15  0  0  0  0  0  0  0  0999 V2000
    2.0430    1.6390    1.1580 O   0  0  0  0  0  0  0  0  0  0  0  0
    2.8900    1.3180    0.1330 C   0  0  0  0  0  0  0  0  0  0  0  0
    2.2750    0.4060   -0.9260 C   0  0  1  0  0  0  0  0  0  0  0  0
    3.3460    0.2370   -1.8590 O   0  0  0  0  0  0  0  0  0  0  0  0
    2.0100   -0.9810   -0.4160 C   0  0  0  0  0  0  0  0  0  0  0  0
    1.0020   -1.1500    0.4610 O   0  0  0  0  0  0  0  0  0  0  0  0
   -0.2660   -0.8500    0.1150 C   0  0  2  0  0  0  0  0  0  0  0  0
   -0.8670    0.1230    1.0900 C   0  0  0  0  0  0  0  0  0  0  0  0
   -1.2190    1.4470    0.4520 C   0  0  2  0  0  0  0  0  0  0  0  0
   -1.5300    2.3350    1.4810 O   0  0  0  0  0  0  0  0  0  0  0  0
   -2.4590    1.3410   -0.4090 C   0  0  0  0  0  0  0  0  0  0  0  0
   -3.3010   -0.2390   -0.1980 S   0  0  0  0  0  0  0  0  0  0  0  0
   -2.3670   -1.6160   -0.8590 C   0  0  0  0  0  0  0  0  0  0  0  0
   -1.2060   -2.0350    0.0550 C   0  0  2  0  0  0  0  0  0  0  0  0
   -1.7730   -2.2810    1.3050 O   0  0  0  0  0  0  0  0  0  0  0  0
  1  2  1  0
  2  3  1  0
  3  4  1  6
  3  5  1  0
  5  6  1  0
  7  6  1  1
  7  8  1  0
  7 14  1  0
  8  9  1  0
  9 10  1  1
  9 11  1  0
 11 12  1  0
 12 13  1  0
 13 14  1  0
 14 15  1  1
M  END
