
     RDKit          3D

 15 15  0  0  0  0  0  0  0  0999 V2000
    0.4520   -1.9560    0.5110 C   0  0  0  0  0  0  0  0  0  0  0  0
    0.1500   -0.4830    0.2440 C   0  0  1  0  0  0  0  0  0  0  0  0
   -1.2450   -0.4110   -0.3240 C   0  0  2  0  0  0  0  0  0  0  0  0
   -1.4120   -1.1800   -1.6150 C   0  0  0  0  0  0  0  0  0  0  0  0
   -1.0010   -2.4870   -1.5360 O   0  0  0  0  0  0  0  0  0  0  0  0
   -1.6810    0.9000   -0.4710 O   0  0  0  0  0  0  0  0  0  0  0  0
   -2.7920    1.1670    0.3290 C   0  0  0  0  0  0  0  0  0  0  0  0
   -3.2090    2.4830    0.1640 O   0  0  0  0  0  0  0  0  0  0  0  0
    0.0910    0.1860    1.6150 C   0  0  0  0  0  0  0  0  0  0  0  0
    1.7170   -0.1830    2.3860 S   0  0  0  0  0  0  0  0  0  0  0  0
    2.9240    0.4490    1.1680 C   0  0  0  0  0  0  0  0  0  0  0  0
    2.1260    1.0830    0.0630 C   0  0  1  0  0  0  0  0  0  0  0  0
    3.0310    1.5550   -0.8940 O   0  0  0  0  0  0  0  0  0  0  0  0
    1.1800    0.1570   -0.6150 C   0  0  2  0  0  0  0  0  0  0  0  0
    0.5730    0.8790   -1.6620 O   0  0  0  0  0  0  0  0  0  0  0  0
  2  1  1  1
  2  3  1  0
  2  9  1  0
  2 14  1  0
  3  4  1  6
  3  6  1  0
  4  5  1  0
  6  7  1  0
  7  8  1  0
  9 10  1  0
 10 11  1  0
 11 12  1  0
 12 13  1  6
 12 14  1  0
 14 15  1  6
M  END
