
     RDKit          3D

 15 15  0  0  0  0  0  0  0  0999 V2000
   -0.8390   -2.5280   -0.0030 C   0  0  0  0  0  0  0  0  0  0  0  0
   -0.8740   -1.2790   -0.8810 C   0  0  1  0  0  0  0  0  0  0  0  0
   -0.1500   -1.5870   -2.0450 O   0  0  0  0  0  0  0  0  0  0  0  0
   -2.1860   -1.1340   -1.2710 O   0  0  0  0  0  0  0  0  0  0  0  0
   -2.9220   -0.3780   -0.3750 C   0  0  0  0  0  0  0  0  0  0  0  0
   -2.4470    1.0520   -0.6070 C   0  0  0  0  0  0  0  0  0  0  0  0
   -1.0460    1.1210   -0.0790 C   0  0  1  0  0  0  0  0  0  0  0  0
   -0.4220    2.1850   -0.7530 O   0  0  0  0  0  0  0  0  0  0  0  0
   -1.1650    1.5970    1.3660 C   0  0  0  0  0  0  0  0  0  0  0  0
   -1.6680    2.8870    1.3670 O   0  0  0  0  0  0  0  0  0  0  0  0
   -0.2650   -0.1350   -0.1700 C   0  0  2  0  0  0  0  0  0  0  0  0
    1.3330    0.2640   -0.9610 S   0  0  0  0  0  0  0  0  0  0  0  0
    2.7100   -0.5130   -0.0910 C   0  0  0  0  0  0  0  0  0  0  0  0
    3.9780    0.3160   -0.2070 C   0  0  0  0  0  0  0  0  0  0  0  0
    4.8290   -0.0880    0.8090 O   0  0  0  0  0  0  0  0  0  0  0  0
  2  1  1  1
  2  3  1  0
  2  4  1  0
  2 11  1  0
  4  5  1  0
  5  6  1  0
  6  7  1  0
  7  8  1  6
  7  9  1  0
  7 11  1  0
  9 10  1  0
 11 12  1  6
 12 13  1  0
 13 14  1  0
 14 15  1  0
M  END
