
     RDKit          3D

 15 16  0  0  0  0  0  0  0  0999 V2000
    4.3950    1.2270   -0.8860 O   0  0  0  0  0  0  0  0  0  0  0  0
    3.6640    0.6320    0.1160 C   0  0  0  0  0  0  0  0  0  0  0  0
    2.3240    0.4070   -0.2550 O   0  0  0  0  0  0  0  0  0  0  0  0
    1.6830   -0.1880    0.8080 C   0  0  2  0  0  0  0  0  0  0  0  0
    1.0630   -1.5060    0.4840 C   0  0  0  0  0  0  0  0  0  0  0  0
    0.0190   -1.4880   -0.5620 C   0  0  0  0  0  0  0  0  0  0  0  0
   -1.1400   -0.6210   -0.3890 C   0  0  1  0  0  0  0  0  0  0  0  0
   -1.8430   -0.4720   -1.6100 O   0  0  0  0  0  0  0  0  0  0  0  0
   -2.0930   -1.1030    0.7130 C   0  0  2  0  0  0  0  0  0  0  0  0
   -3.2390   -1.7100    0.2210 O   0  0  0  0  0  0  0  0  0  0  0  0
   -2.3030    0.3520    1.0710 C   0  0  0  0  0  0  0  0  0  0  0  0
   -1.0190    0.6620    0.2890 C   0  0  2  0  0  0  0  0  0  0  0  0
   -1.2790    1.9080   -0.5520 C   0  0  0  0  0  0  0  0  0  0  0  0
   -1.1200    3.0210    0.2570 O   0  0  0  0  0  0  0  0  0  0  0  0
    0.3460    0.8920    1.3920 S   0  0  0  0  0  0  0  0  0  0  0  0
  1  2  1  0
  2  3  1  0
  4  3  1  6
  4  5  1  0
  4 15  1  0
  5  6  1  0
  6  7  1  0
  7  8  1  6
  7  9  1  0
  7 12  1  0
  9 10  1  6
  9 11  1  0
 11 12  1  0
 12 13  1  6
 12 15  1  0
 13 14  1  0
M  END
