
     RDKit          3D

 15 15  0  0  0  0  0  0  0  0999 V2000
   -0.2430   -1.0650   -1.8120 C   0  0  0  0  0  0  0  0  0  0  0  0
   -0.8900   -0.7460   -0.4680 C   0  0  2  0  0  0  0  0  0  0  0  0
   -1.5190   -2.0460    0.0150 C   0  0  0  0  0  0  0  0  0  0  0  0
   -2.0090    0.2070   -0.7430 C   0  0  2  0  0  0  0  0  0  0  0  0
   -1.4960    1.2330   -1.5510 O   0  0  0  0  0  0  0  0  0  0  0  0
   -2.3560    0.8600    0.5910 C   0  0  1  0  0  0  0  0  0  0  0  0
   -2.4490   -0.0950    1.6160 O   0  0  0  0  0  0  0  0  0  0  0  0
   -1.0950    1.6600    0.9100 C   0  0  0  0  0  0  0  0  0  0  0  0
   -0.1470    0.7580    1.2990 O   0  0  0  0  0  0  0  0  0  0  0  0
    0.1720   -0.2410    0.4370 C   0  0  1  0  0  0  0  0  0  0  0  0
    0.5660   -1.3340    1.2330 O   0  0  0  0  0  0  0  0  0  0  0  0
    1.4450    0.1690   -0.2980 C   0  0  0  0  0  0  0  0  0  0  0  0
    2.4090    1.1590    0.8950 S   0  0  0  0  0  0  0  0  0  0  0  0
    4.1640    1.1600    0.4580 C   0  0  0  0  0  0  0  0  0  0  0  0
    4.5510   -0.0650   -0.0930 O   0  0  0  0  0  0  0  0  0  0  0  0
  2  1  1  6
  2  3  1  0
  2  4  1  0
  2 10  1  0
  4  5  1  6
  4  6  1  0
  6  7  1  1
  6  8  1  0
  8  9  1  0
  9 10  1  0
 10 11  1  1
 10 12  1  0
 12 13  1  0
 13 14  1  0
 14 15  1  0
M  END
