
     RDKit          3D

 15 15  0  0  0  0  0  0  0  0999 V2000
    0.4950   -2.2500   -0.9980 O   0  0  0  0  0  0  0  0  0  0  0  0
    1.1060   -1.2180   -1.7120 C   0  0  0  0  0  0  0  0  0  0  0  0
    1.6680   -0.1900   -0.7430 C   0  0  0  0  0  0  0  0  0  0  0  0
    2.9420    0.0800   -0.7280 C   0  0  0  0  0  0  0  0  0  0  0  0
    3.6940    1.0180    0.1060 C   0  0  1  0  0  0  0  0  0  0  0  0
    4.3350    2.0060   -0.6720 O   0  0  0  0  0  0  0  0  0  0  0  0
    2.6210    1.8780    1.2480 S   0  0  0  0  0  0  0  0  0  0  0  0
    0.9640    1.3170    1.0080 C   0  0  0  0  0  0  0  0  0  0  0  0
    0.6710    0.4130    0.1110 C   0  0  0  0  0  0  0  0  0  0  0  0
   -0.6930    0.0470    0.0160 O   0  0  0  0  0  0  0  0  0  0  0  0
   -1.3400   -0.6440    1.0630 C   0  0  0  0  0  0  0  0  0  0  0  0
   -2.7790   -0.8610    0.6070 C   0  0  2  0  0  0  0  0  0  0  0  0
   -2.7240   -1.6150   -0.5680 O   0  0  0  0  0  0  0  0  0  0  0  0
   -3.3120    0.5300    0.2410 C   0  0  0  0  0  0  0  0  0  0  0  0
   -4.5690    0.4710   -0.3170 O   0  0  0  0  0  0  0  0  0  0  0  0
  1  2  1  0
  2  3  1  0
  3  4  2  0
  3  9  1  0
  4  5  1  0
  5  6  1  6
  5  7  1  0
  7  8  1  0
  8  9  2  0
  9 10  1  0
 10 11  1  0
 11 12  1  0
 12 13  1  6
 12 14  1  0
 14 15  1  0
M  END
