
     RDKit          3D

 15 15  0  0  0  0  0  0  0  0999 V2000
   -1.5480    0.8280    0.9640 C   0  0  0  0  0  0  0  0  0  0  0  0
   -1.4410   -0.4320    0.1450 C   0  0  1  0  0  0  0  0  0  0  0  0
   -1.9590   -1.4540    0.9640 O   0  0  0  0  0  0  0  0  0  0  0  0
   -2.2770   -0.4410   -1.0790 C   0  0  0  0  0  0  0  0  0  0  0  0
   -3.9110    0.2190   -0.5950 S   0  0  0  0  0  0  0  0  0  0  0  0
   -3.8580    1.9410   -0.4760 O   0  0  0  0  0  0  0  0  0  0  0  0
    0.0140   -0.8290   -0.0680 C   0  0  1  0  0  0  0  0  0  0  0  0
   -0.0490   -2.2830   -0.5420 C   0  0  0  0  0  0  0  0  0  0  0  0
    0.7090   -0.0520   -1.1160 C   0  0  0  0  0  0  0  0  0  0  0  0
    1.6740    0.9910   -0.6290 C   0  0  2  0  0  0  0  0  0  0  0  0
    2.5010    1.3090   -1.7180 O   0  0  0  0  0  0  0  0  0  0  0  0
    2.5310    0.3210    0.4110 C   0  0  1  0  0  0  0  0  0  0  0  0
    3.3860    1.2940    0.9400 O   0  0  0  0  0  0  0  0  0  0  0  0
    1.5980   -0.0930    1.5080 C   0  0  0  0  0  0  0  0  0  0  0  0
    0.5670   -0.8800    1.1690 O   0  0  0  0  0  0  0  0  0  0  0  0
  2  1  1  1
  2  3  1  0
  2  4  1  0
  2  7  1  0
  4  5  1  0
  5  6  1  0
  7  8  1  6
  7  9  1  0
  7 15  1  0
  9 10  1  0
 10 11  1  6
 10 12  1  0
 12 13  1  1
 12 14  1  0
 14 15  1  0
M  END
