
     RDKit          3D

 12 12  0  0  0  0  0  0  0  0999 V2000
   -2.3810   -0.5730    0.5790 C   0  0  0  0  0  0  0  0  0  0  0  0
   -1.3130   -0.1890   -0.4180 C   0  0  2  0  0  0  0  0  0  0  0  0
   -1.7300   -0.5730   -1.6750 O   0  0  0  0  0  0  0  0  0  0  0  0
   -0.0290   -0.8790   -0.0120 C   0  0  0  0  0  0  0  0  0  0  0  0
    0.8830    0.2950    0.2510 C   0  0  1  0  0  0  0  0  0  0  0  0
    0.7850    0.7990    1.5230 O   0  0  0  0  0  0  0  0  0  0  0  0
    2.2980   -0.1430   -0.0680 C   0  0  2  0  0  0  0  0  0  0  0  0
    2.7090   -1.1340    0.8180 O   0  0  0  0  0  0  0  0  0  0  0  0
    3.1270    0.9690    0.1790 O   0  0  0  0  0  0  0  0  0  0  0  0
    0.4140    1.2340   -0.6550 O   0  0  0  0  0  0  0  0  0  0  0  0
   -0.9490    1.2560   -0.3640 C   0  0  1  0  0  0  0  0  0  0  0  0
   -1.6490    2.0060   -1.3070 O   0  0  0  0  0  0  0  0  0  0  0  0
  2  1  1  1
  2  3  1  0
  2  4  1  0
  2 11  1  0
  4  5  1  0
  5  6  1  1
  5  7  1  0
  5 10  1  0
  7  8  1  1
  7  9  1  0
 10 11  1  0
 11 12  1  6
M  END
