
     RDKit          3D

 18 20  0  0  0  0  0  0  0  0999 V2000
   -2.4950   -1.6030   -1.2940 N   0  0  0  0  0  0  0  0  0  0  0  0
   -2.5480   -0.1440   -1.3160 C   0  0  1  0  0  0  0  0  0  0  0  0
   -3.9420    0.3450   -1.0830 C   0  0  0  0  0  0  0  0  0  0  0  0
   -4.2200    0.4070    0.4230 C   0  0  0  0  0  0  0  0  0  0  0  0
   -3.3680    1.5770    0.9320 C   0  0  0  0  0  0  0  0  0  0  0  0
   -1.9630    1.1750    0.7400 C   0  0  0  0  0  0  0  0  0  0  0  0
   -1.0300    1.5880    1.5880 N   0  0  0  0  0  0  0  0  0  0  0  0
    0.2850    1.2700    1.4920 C   0  0  0  0  0  0  0  0  0  0  0  0
    1.0890    1.7240    2.3650 O   0  0  0  0  0  0  0  0  0  0  0  0
    0.7050    0.4760    0.4670 C   0  0  0  0  0  0  0  0  0  0  0  0
    2.1100    0.0620    0.2690 C   0  0  0  0  0  0  0  0  0  0  0  0
    3.0890    0.3770    1.0360 C   0  0  0  0  0  0  0  0  0  0  0  0
    4.5140   -0.0490    0.8260 C   0  0  0  0  0  0  0  0  0  0  0  0
    4.6940   -1.1460   -0.1440 C   0  0  0  0  0  0  0  0  0  0  0  0
    3.7260   -1.0940   -1.2910 C   0  0  0  0  0  0  0  0  0  0  0  0
    2.3430   -0.7820   -0.9350 C   0  0  0  0  0  0  0  0  0  0  0  0
   -0.2760    0.0370   -0.4320 C   0  0  0  0  0  0  0  0  0  0  0  0
   -1.5990    0.3850   -0.2950 C   0  0  0  0  0  0  0  0  0  0  0  0
  2  1  1  1
  2  3  1  0
  2 18  1  0
  3  4  1  0
  4  5  1  0
  5  6  1  0
  6  7  1  0
  6 18  2  0
  7  8  1  0
  8  9  2  0
  8 10  1  0
 10 11  1  0
 10 17  2  0
 11 12  2  0
 11 16  1  0
 12 13  1  0
 13 14  1  0
 14 15  1  0
 15 16  1  0
 17 18  1  0
M  CHG  1   1   1
M  END
