
     RDKit          3D

 12 12  0  0  0  0  0  0  0  0999 V2000
   -0.7410    2.2770   -2.0720 O   0  0  0  0  0  0  0  0  0  0  0  0
   -0.4250    1.3320   -1.2980 C   0  0  0  0  0  0  0  0  0  0  0  0
    0.8940    1.1850   -0.8970 O   0  0  0  0  0  0  0  0  0  0  0  0
    1.2680    0.4090    0.1970 C   0  0  2  0  0  0  0  0  0  0  0  0
    1.9440   -0.8560   -0.3490 C   0  0  0  0  0  0  0  0  0  0  0  0
    3.0500   -0.3910   -1.0830 O   0  0  0  0  0  0  0  0  0  0  0  0
    0.2040    0.1110    1.1750 C   0  0  2  0  0  0  0  0  0  0  0  0
    0.4430   -1.1440    1.7830 O   0  0  0  0  0  0  0  0  0  0  0  0
   -1.1900    0.1420    0.7030 C   0  0  2  0  0  0  0  0  0  0  0  0
   -1.8830   -1.0470    1.0380 O   0  0  0  0  0  0  0  0  0  0  0  0
   -1.3770    0.3410   -0.7680 C   0  0  1  0  0  0  0  0  0  0  0  0
   -2.6770    0.8530   -0.9830 O   0  0  0  0  0  0  0  0  0  0  0  0
  1  2  2  0
  2  3  1  0
  2 11  1  0
  3  4  1  0
  4  5  1  6
  4  7  1  0
  5  6  1  0
  7  8  1  6
  7  9  1  0
  9 10  1  6
  9 11  1  0
 11 12  1  1
M  END
