
     RDKit          3D

 29 32  0  0  0  0  0  0  0  0999 V2000
    0.1220   -1.4570    2.1660 C   0  0  0  0  0  0  0  0  0  0  0  0
    1.2670   -0.7870    1.7690 O   0  0  0  0  0  0  0  0  0  0  0  0
    1.5560   -0.3090    0.5230 C   0  0  0  0  0  0  0  0  0  0  0  0
    0.6200   -0.1680   -0.3280 N   0  0  0  0  0  0  0  0  0  0  0  0
   -0.7130   -0.4220   -0.2290 N   0  0  0  0  0  0  0  0  0  0  0  0
   -1.6700    0.4330   -0.2760 C   0  0  0  0  0  0  0  0  0  0  0  0
   -3.0020   -0.0520   -0.1520 N   0  0  0  0  0  0  0  0  0  0  0  0
   -3.3830   -1.3120   -0.7400 C   0  0  1  0  0  0  0  0  0  0  0  0
   -2.5450   -2.4340   -0.1170 C   0  0  0  0  0  0  0  0  0  0  0  0
   -3.4840   -3.6220   -0.2370 C   0  0  0  0  0  0  0  0  0  0  0  0
   -4.7480   -3.0330    0.1800 N   0  0  0  0  0  0  0  0  0  0  0  0
   -4.7960   -1.7050   -0.3690 C   0  0  0  0  0  0  0  0  0  0  0  0
   -1.4740    1.8760   -0.4470 C   0  0  0  0  0  0  0  0  0  0  0  0
   -0.4420    2.3770   -1.1860 C   0  0  0  0  0  0  0  0  0  0  0  0
   -0.2990    3.7450   -1.3150 C   0  0  0  0  0  0  0  0  0  0  0  0
    0.7260    4.2510   -2.0500 F   0  0  0  0  0  0  0  0  0  0  0  0
   -1.1870    4.6100   -0.7050 C   0  0  0  0  0  0  0  0  0  0  0  0
   -2.2090    4.0540    0.0290 C   0  0  0  0  0  0  0  0  0  0  0  0
   -2.3360    2.7360    0.1450 N   0  0  0  0  0  0  0  0  0  0  0  0
    2.9180    0.0560    0.1160 C   0  0  0  0  0  0  0  0  0  0  0  0
    3.9910   -0.0610    0.9760 C   0  0  0  0  0  0  0  0  0  0  0  0
    5.2750    0.2840    0.5840 C   0  0  0  0  0  0  0  0  0  0  0  0
    6.5210    0.2830    1.1880 C   0  0  0  0  0  0  0  0  0  0  0  0
    7.4100    0.7220    0.3330 O   0  0  0  0  0  0  0  0  0  0  0  0
    6.8580    1.0240   -0.8170 C   0  0  0  0  0  0  0  0  0  0  0  0
    5.5070    0.7590   -0.6910 C   0  0  0  0  0  0  0  0  0  0  0  0
    4.4200    0.8640   -1.5240 C   0  0  0  0  0  0  0  0  0  0  0  0
    4.6330    1.2980   -2.6920 O   0  0  0  0  0  0  0  0  0  0  0  0
    3.1670    0.5190   -1.1200 N   0  0  0  0  0  0  0  0  0  0  0  0
  1  2  1  0
  2  3  1  0
  3  4  2  3
  3 20  1  0
  4  5  1  0
  5  6  2  3
  6  7  1  0
  6 13  1  0
  8  7  1  1
  8  9  1  0
  8 12  1  0
  9 10  1  0
 10 11  1  0
 11 12  1  0
 13 14  2  0
 13 19  1  0
 14 15  1  0
 15 16  1  0
 15 17  2  0
 17 18  1  0
 18 19  2  0
 20 21  2  0
 20 29  1  0
 21 22  1  0
 22 23  2  0
 22 26  1  0
 23 24  1  0
 24 25  1  0
 25 26  2  0
 26 27  1  0
 27 28  2  0
 27 29  1  0
M  CHG  1  11   1
M  END
