
     RDKit          3D

 29 32  0  0  0  0  0  0  0  0999 V2000
    0.1070    0.1470   -0.8310 O   0  0  0  0  0  0  0  0  0  0  0  0
   -0.1210    0.1840    0.4050 C   0  0  0  0  0  0  0  0  0  0  0  0
    0.8620    0.7690    1.3840 C   0  0  0  0  0  0  0  0  0  0  0  0
    2.0350    1.2520    0.7120 N   0  0  0  0  0  0  0  0  0  0  0  0
    2.1070    2.5340    0.2650 C   0  0  0  0  0  0  0  0  0  0  0  0
    1.1070    3.2720    0.4640 O   0  0  0  0  0  0  0  0  0  0  0  0
    3.2150    3.0340   -0.3840 C   0  0  0  0  0  0  0  0  0  0  0  0
    3.2390    4.2400   -0.7860 O   0  0  0  0  0  0  0  0  0  0  0  0
    4.2860    2.2540   -0.6010 N   0  0  0  0  0  0  0  0  0  0  0  0
    4.2400    0.9820   -0.1680 C   0  0  0  0  0  0  0  0  0  0  0  0
    5.3480    0.1890   -0.3980 C   0  0  0  0  0  0  0  0  0  0  0  0
    5.3400   -1.1130    0.0280 C   0  0  0  0  0  0  0  0  0  0  0  0
    4.2280   -1.6090    0.6770 C   0  0  0  0  0  0  0  0  0  0  0  0
    3.1210   -0.8120    0.9050 C   0  0  0  0  0  0  0  0  0  0  0  0
    3.1170    0.4850    0.4860 C   0  0  0  0  0  0  0  0  0  0  0  0
   -1.3650   -0.3560    0.8690 N   0  0  0  0  0  0  0  0  0  0  0  0
   -2.3090   -0.9120   -0.0190 C   0  0  0  0  0  0  0  0  0  0  0  0
   -3.3430   -0.2420   -0.6290 C   0  0  0  0  0  0  0  0  0  0  0  0
   -3.7440    1.1490   -0.5220 C   0  0  0  0  0  0  0  0  0  0  0  0
   -3.1520    2.0720    0.2420 C   0  0  0  0  0  0  0  0  0  0  0  0
   -3.9050    3.3070    0.0160 C   0  0  0  0  0  0  0  0  0  0  0  0
   -4.8480    3.0210   -0.8560 C   0  0  0  0  0  0  0  0  0  0  0  0
   -4.8610    1.7750   -1.2320 C   0  0  0  0  0  0  0  0  0  0  0  0
   -3.9910   -1.1580   -1.4030 N   0  0  0  0  0  0  0  0  0  0  0  0
   -3.4130   -2.3430   -1.3000 N   0  0  0  0  0  0  0  0  0  0  0  0
   -2.3790   -2.2150   -0.4550 C   0  0  0  0  0  0  0  0  0  0  0  0
   -1.5910   -3.2050   -0.1310 N   0  0  0  0  0  0  0  0  0  0  0  0
   -1.7730   -4.5320   -0.6620 C   0  0  0  0  0  0  0  0  0  0  0  0
   -1.2780   -5.4690    0.2510 F   0  0  0  0  0  0  0  0  0  0  0  0
  1  2  2  0
  2  3  1  0
  2 16  1  0
  3  4  1  0
  4  5  1  0
  4 15  1  0
  5  6  2  0
  5  7  1  0
  7  8  2  0
  7  9  1  0
  9 10  1  0
 10 11  2  0
 10 15  1  0
 11 12  1  0
 12 13  2  0
 13 14  1  0
 14 15  2  0
 16 17  1  0
 17 18  2  0
 17 26  1  0
 18 19  1  0
 18 24  1  0
 19 20  2  0
 19 23  1  0
 20 21  1  0
 21 22  2  0
 22 23  2  0
 24 25  1  0
 25 26  1  0
 26 27  2  3
 27 28  1  0
 28 29  1  0
M  END
