
     RDKit          3D

 29 32  0  0  0  0  0  0  0  0999 V2000
    6.1320    1.6900    0.6090 C   0  0  0  0  0  0  0  0  0  0  0  0
    5.1720    0.5960    0.2490 C   0  0  0  0  0  0  0  0  0  0  0  0
    3.9380    0.7050    0.6630 C   0  0  0  0  0  0  0  0  0  0  0  0
    3.4270    1.8480    1.4630 C   0  0  0  0  0  0  0  0  0  0  0  0
    1.9410    1.6520    1.5740 C   0  0  0  0  0  0  0  0  0  0  0  0
    1.6680    0.7910    0.3850 N   0  0  0  0  0  0  0  0  0  0  0  0
    0.6930    0.9920   -0.6090 C   0  0  0  0  0  0  0  0  0  0  0  0
    1.0610    1.9240   -1.5460 O   0  0  0  0  0  0  0  0  0  0  0  0
   -0.5800    0.5250   -0.9600 N   0  0  0  0  0  0  0  0  0  0  0  0
   -1.8930    0.8770   -0.4840 C   0  0  1  0  0  0  0  0  0  0  0  0
   -2.3160    2.1650   -1.2250 C   0  0  0  0  0  0  0  0  0  0  0  0
   -2.8780    3.2770   -0.7540 C   0  0  0  0  0  0  0  0  0  0  0  0
   -3.1690    4.2860   -1.5840 C   0  0  0  0  0  0  0  0  0  0  0  0
   -2.8840    4.1530   -2.8970 C   0  0  0  0  0  0  0  0  0  0  0  0
   -2.1490    2.4630   -2.9230 S   0  0  0  0  0  0  0  0  0  0  0  0
   -2.9480   -0.1470   -0.8000 C   0  0  0  0  0  0  0  0  0  0  0  0
   -3.0470   -1.3230    0.0770 C   0  0  1  0  0  0  0  0  0  0  0  0
   -3.5180   -1.0590    1.4670 C   0  0  0  0  0  0  0  0  0  0  0  0
   -4.1140   -2.2410   -0.5510 C   0  0  0  0  0  0  0  0  0  0  0  0
   -5.3400   -1.5950   -0.6340 O   0  0  0  0  0  0  0  0  0  0  0  0
   -1.7860   -2.1630    0.0940 C   0  0  0  0  0  0  0  0  0  0  0  0
   -0.7760   -1.6580    1.0620 C   0  0  0  0  0  0  0  0  0  0  0  0
    0.5020   -1.9360    0.7310 N   0  0  0  0  0  0  0  0  0  0  0  0
    1.6120   -2.3090    0.4500 C   0  0  0  0  0  0  0  0  0  0  0  0
    2.0640   -3.5970    0.3920 N   0  0  0  0  0  0  0  0  0  0  0  0
    3.3850   -3.6580    0.2700 C   0  0  0  0  0  0  0  0  0  0  0  0
    3.8100   -2.3720    0.2420 C   0  0  0  0  0  0  0  0  0  0  0  0
    2.7460   -1.4860    0.3450 C   0  0  0  0  0  0  0  0  0  0  0  0
    2.7320   -0.1820    0.5040 C   0  0  0  0  0  0  0  0  0  0  0  0
  1  2  1  0
  2  3  2  3
  3  4  1  0
  3 29  1  0
  4  5  1  0
  5  6  1  0
  6  7  1  0
  6 29  1  0
  7  8  2  0
  7  9  1  0
  9 10  1  0
 10 11  1  6
 10 16  1  0
 11 12  2  0
 11 15  1  0
 12 13  1  0
 13 14  2  0
 14 15  1  0
 16 17  1  0
 17 18  1  1
 17 19  1  0
 17 21  1  0
 19 20  1  0
 21 22  1  0
 22 23  1  0
 23 24  2  0
 24 25  1  0
 24 28  1  0
 25 26  1  0
 26 27  2  0
 27 28  1  0
 28 29  2  0
M  END
