
     RDKit          3D

 29 32  0  0  0  0  0  0  0  0999 V2000
    2.2260    0.1840    0.2910 O   0  0  0  0  0  0  0  0  0  0  0  0
    2.4410   -0.9540    0.6960 C   0  0  0  0  0  0  0  0  0  0  0  0
    1.3810   -1.7670    1.1720 N   0  0  0  0  0  0  0  0  0  0  0  0
    0.0370   -1.3710    1.2210 C   0  0  0  0  0  0  0  0  0  0  0  0
   -0.5200   -0.2750    0.6520 C   0  0  0  0  0  0  0  0  0  0  0  0
   -1.8840   -0.0050    0.8030 C   0  0  0  0  0  0  0  0  0  0  0  0
   -2.7380   -0.8070    1.5160 C   0  0  0  0  0  0  0  0  0  0  0  0
   -4.1630   -0.5640    1.6640 C   0  0  0  0  0  0  0  0  0  0  0  0
   -4.7040   -1.0570    2.7100 O   0  0  0  0  0  0  0  0  0  0  0  0
   -5.0050    0.1710    0.7540 C   0  0  0  0  0  0  0  0  0  0  0  0
   -4.7040    0.3120   -0.5780 C   0  0  0  0  0  0  0  0  0  0  0  0
   -5.5850    1.0580   -1.3610 C   0  0  0  0  0  0  0  0  0  0  0  0
   -5.2450    1.2010   -2.7990 C   0  0  0  0  0  0  0  0  0  0  0  0
   -4.4660    2.3150   -3.0450 F   0  0  0  0  0  0  0  0  0  0  0  0
   -6.6920    1.6310   -0.8750 N   0  0  0  0  0  0  0  0  0  0  0  0
   -7.0000    1.5020    0.4210 C   0  0  0  0  0  0  0  0  0  0  0  0
   -8.0400    2.0330    0.9050 O   0  0  0  0  0  0  0  0  0  0  0  0
   -6.1500    0.7680    1.2360 C   0  0  0  0  0  0  0  0  0  0  0  0
   -2.1650   -1.9390    2.1030 C   0  0  0  0  0  0  0  0  0  0  0  0
   -0.8370   -2.1960    1.9540 C   0  0  0  0  0  0  0  0  0  0  0  0
    3.7840   -1.4240    0.6700 N   0  0  0  0  0  0  0  0  0  0  0  0
    4.8960   -0.6670    0.2120 C   0  0  0  0  0  0  0  0  0  0  0  0
    6.2150   -1.1140    0.1800 C   0  0  0  0  0  0  0  0  0  0  0  0
    7.0160   -0.1490   -0.3070 N   0  0  0  0  0  0  0  0  0  0  0  0
    8.3030    0.1480   -0.6150 C   0  0  0  0  0  0  0  0  0  0  0  0
    8.2910    1.4290   -1.0980 C   0  0  0  0  0  0  0  0  0  0  0  0
    7.0200    1.8530   -1.0660 N   0  0  0  0  0  0  0  0  0  0  0  0
    6.2310    0.8960   -0.5830 C   0  0  0  0  0  0  0  0  0  0  0  0
    4.9380    0.5840   -0.2690 N   0  0  0  0  0  0  0  0  0  0  0  0
  1  2  2  0
  2  3  1  0
  2 21  1  0
  3  4  1  0
  4  5  2  0
  4 20  1  0
  5  6  1  0
  6  7  2  0
  7  8  1  0
  7 19  1  0
  8  9  2  0
  8 10  1  0
 10 11  1  0
 10 18  2  0
 11 12  2  0
 12 13  1  0
 12 15  1  0
 13 14  1  0
 15 16  1  0
 16 17  2  0
 16 18  1  0
 19 20  2  0
 21 22  1  0
 22 23  2  0
 22 29  1  0
 23 24  1  0
 24 25  1  0
 24 28  1  0
 25 26  2  0
 26 27  1  0
 27 28  2  0
 28 29  1  0
M  CHG  1  27   1
M  END
