
     RDKit          3D

 29 30  0  0  0  0  0  0  0  0999 V2000
    3.4780    1.4760    3.6200 C   0  0  0  0  0  0  0  0  0  0  0  0
    3.8730    0.8860    2.3300 C   0  0  0  0  0  0  0  0  0  0  0  0
    3.0280    0.8520    1.2860 C   0  0  0  0  0  0  0  0  0  0  0  0
    3.4410    0.2660    0.0250 C   0  0  0  0  0  0  0  0  0  0  0  0
    2.7380    0.1770   -1.0650 C   0  0  0  0  0  0  0  0  0  0  0  0
    3.2810   -0.4770   -2.3400 C   0  0  0  0  0  0  0  0  0  0  0  0
    2.0310   -1.1210   -2.6500 O   0  0  0  0  0  0  0  0  0  0  0  0
    0.9700   -0.1860   -2.3680 C   0  0  0  0  0  0  0  0  0  0  0  0
    1.3660    0.6250   -1.4200 C   0  0  0  0  0  0  0  0  0  0  0  0
    0.6970    1.7900   -0.8470 C   0  0  0  0  0  0  0  0  0  0  0  0
    1.6500    2.9980   -0.6240 C   0  0  0  0  0  0  0  0  0  0  0  0
   -0.5150    2.0420   -0.4950 C   0  0  0  0  0  0  0  0  0  0  0  0
   -1.8040    1.4600   -0.4330 C   0  0  0  0  0  0  0  0  0  0  0  0
   -2.3690    0.5550    0.3810 C   0  0  0  0  0  0  0  0  0  0  0  0
   -3.7670    0.2260    0.0940 C   0  0  0  0  0  0  0  0  0  0  0  0
   -4.4080   -0.6100    0.8160 N   0  0  0  0  0  0  0  0  0  0  0  0
   -4.5090    0.7930   -0.9820 N   0  0  0  0  0  0  0  0  0  0  0  0
   -1.7200   -0.0950    1.4880 C   0  0  0  0  0  0  0  0  0  0  0  0
   -0.7800   -1.0150    1.5430 C   0  0  0  0  0  0  0  0  0  0  0  0
   -0.3170   -1.4740    2.8920 C   0  0  0  0  0  0  0  0  0  0  0  0
   -0.1710   -1.7080    0.4350 C   0  0  0  0  0  0  0  0  0  0  0  0
   -0.5890   -1.9580   -0.6910 N   0  0  0  0  0  0  0  0  0  0  0  0
   -1.6320   -1.8460   -1.5950 C   0  0  0  0  0  0  0  0  0  0  0  0
   -2.7220   -2.5590   -1.6710 C   0  0  0  0  0  0  0  0  0  0  0  0
   -3.1170   -3.6690   -0.8090 C   0  0  0  0  0  0  0  0  0  0  0  0
   -2.0620   -4.0580    0.3900 S   0  0  0  0  0  0  0  0  0  0  0  0
   -1.5110   -0.7980   -2.6710 C   0  0  0  0  0  0  0  0  0  0  0  0
   -2.5820   -0.4420   -3.1920 O   0  0  0  0  0  0  0  0  0  0  0  0
   -0.2600   -0.2440   -3.0710 N   0  0  0  0  0  0  0  0  0  0  0  0
  1  2  1  0
  2  3  2  3
  3  4  1  0
  4  5  2  3
  5  6  1  0
  5  9  1  0
  6  7  1  0
  7  8  1  0
  8  9  2  0
  8 29  1  0
  9 10  1  0
 10 11  1  0
 10 12  2  0
 12 13  1  0
 13 14  2  0
 14 15  1  0
 14 18  1  0
 15 16  2  0
 15 17  1  0
 18 19  2  0
 19 20  1  0
 19 21  1  0
 21 22  2  0
 22 23  1  0
 23 24  2  3
 23 27  1  0
 24 25  1  0
 25 26  2  0
 27 28  2  0
 27 29  1  0
M  END
