
     RDKit          3D

 28 31  0  0  0  0  0  0  0  0999 V2000
   -3.7940    3.0360    0.8490 C   0  0  0  0  0  0  0  0  0  0  0  0
   -4.3050    1.7300    0.3780 C   0  0  0  0  0  0  0  0  0  0  0  0
   -5.6360    1.5910    0.1850 C   0  0  0  0  0  0  0  0  0  0  0  0
   -6.1540    0.3650   -0.2610 C   0  0  0  0  0  0  0  0  0  0  0  0
   -5.2670   -0.6470   -0.4820 C   0  0  0  0  0  0  0  0  0  0  0  0
   -3.8800   -0.4710   -0.2720 C   0  0  0  0  0  0  0  0  0  0  0  0
   -3.3690    0.7140    0.1610 C   0  0  0  0  0  0  0  0  0  0  0  0
   -1.9980    0.9720    0.3960 N   0  0  0  0  0  0  0  0  0  0  0  0
   -0.9250    0.0790    0.2320 C   0  0  0  0  0  0  0  0  0  0  0  0
   -1.1350   -1.0790   -0.1580 O   0  0  0  0  0  0  0  0  0  0  0  0
    0.4600    0.4540    0.5060 C   0  0  0  0  0  0  0  0  0  0  0  0
    1.4660   -0.3650    0.3590 C   0  0  0  0  0  0  0  0  0  0  0  0
    2.8200    0.1250    0.6660 C   0  0  0  0  0  0  0  0  0  0  0  0
    3.9400   -0.5890    0.5640 C   0  0  0  0  0  0  0  0  0  0  0  0
    5.0470    0.2700    0.9620 C   0  0  0  0  0  0  0  0  0  0  0  0
    6.2750    0.1240    0.6930 N   0  0  0  0  0  0  0  0  0  0  0  0
    6.6970   -0.9870   -0.0860 C   0  0  0  0  0  0  0  0  0  0  0  0
    7.4090   -0.8720   -1.2610 C   0  0  0  0  0  0  0  0  0  0  0  0
    7.6290   -2.1480   -1.7150 C   0  0  0  0  0  0  0  0  0  0  0  0
    8.2510   -2.4870   -2.7730 O   0  0  0  0  0  0  0  0  0  0  0  0
    7.0540   -2.9920   -0.8180 N   0  0  0  0  0  0  0  0  0  0  0  0
    6.4980   -2.2910    0.1560 N   0  0  0  0  0  0  0  0  0  0  0  0
    4.4200    1.3750    1.7660 C   0  0  0  0  0  0  0  0  0  0  0  0
    3.1300    1.4380    1.1090 N   0  0  0  0  0  0  0  0  0  0  0  0
   -5.9860   -1.7880   -0.9240 N   0  0  0  0  0  0  0  0  0  0  0  0
   -7.3680   -1.4840   -0.9820 C   0  0  0  0  0  0  0  0  0  0  0  0
   -8.2790   -2.3060   -1.3450 O   0  0  0  0  0  0  0  0  0  0  0  0
   -7.5290   -0.0850   -0.5570 C   0  0  0  0  0  0  0  0  0  0  0  0
  1  2  1  0
  2  3  2  0
  2  7  1  0
  3  4  1  0
  4  5  2  0
  4 28  1  0
  5  6  1  0
  5 25  1  0
  6  7  2  0
  7  8  1  0
  8  9  1  0
  9 10  2  0
  9 11  1  0
 11 12  2  3
 12 13  1  0
 13 14  2  0
 13 24  1  0
 14 15  1  0
 15 16  2  3
 15 23  1  0
 16 17  1  0
 17 18  2  0
 17 22  1  0
 18 19  1  0
 19 20  2  0
 19 21  1  0
 21 22  1  0
 23 24  1  0
 25 26  1  0
 26 27  2  0
 26 28  1  0
M  END
