
     RDKit          3D

 31 33  0  0  0  0  0  0  0  0999 V2000
   -4.9680   -4.3290    1.9590 C   0  0  0  0  0  0  0  0  0  0  0  0
   -4.2530   -3.3050    1.4900 C   0  0  0  0  0  0  0  0  0  0  0  0
   -2.9930   -3.5580    0.8110 C   0  0  0  0  0  0  0  0  0  0  0  0
   -2.1850   -2.6480    0.3000 C   0  0  0  0  0  0  0  0  0  0  0  0
   -2.4910   -1.2640    0.3710 C   0  0  0  0  0  0  0  0  0  0  0  0
   -1.8540   -0.2070   -0.0500 C   0  0  0  0  0  0  0  0  0  0  0  0
   -0.5810   -0.2220   -0.7390 C   0  0  0  0  0  0  0  0  0  0  0  0
    0.3660   -1.1540   -0.4680 O   0  0  0  0  0  0  0  0  0  0  0  0
    1.7460   -1.0520   -0.4720 C   0  0  0  0  0  0  0  0  0  0  0  0
    2.3030   -0.0300    0.4920 C   0  0  0  0  0  0  0  0  0  0  0  0
    3.7170   -0.0630    0.3530 O   0  0  0  0  0  0  0  0  0  0  0  0
    4.5720    0.7410    1.0860 C   0  0  0  0  0  0  0  0  0  0  0  0
    4.0570    1.5370    1.9140 O   0  0  0  0  0  0  0  0  0  0  0  0
    6.0060    0.6490    0.8860 C   0  0  0  0  0  0  0  0  0  0  0  0
    6.9680    1.3970    1.5610 C   0  0  0  0  0  0  0  0  0  0  0  0
    8.2130    1.0360    1.1090 C   0  0  0  0  0  0  0  0  0  0  0  0
    8.0070    0.0650    0.1560 C   0  0  0  0  0  0  0  0  0  0  0  0
    6.6750   -0.1380    0.0520 N   0  0  0  0  0  0  0  0  0  0  0  0
   -0.3460    0.7230   -1.6710 C   0  0  0  0  0  0  0  0  0  0  0  0
    0.8510    0.7330   -2.3380 O   0  0  0  0  0  0  0  0  0  0  0  0
    1.1340    1.6880   -3.3040 C   0  0  0  0  0  0  0  0  0  0  0  0
    0.2300    2.6200   -3.5960 C   0  0  0  0  0  0  0  0  0  0  0  0
   -1.0560    2.6290   -2.8950 C   0  0  0  0  0  0  0  0  0  0  0  0
   -1.3580    1.7240   -1.9630 C   0  0  0  0  0  0  0  0  0  0  0  0
   -2.6460    1.7050   -1.2500 C   0  0  0  0  0  0  0  0  0  0  0  0
   -2.4500    1.1630    0.1390 C   0  0  1  0  0  0  0  0  0  0  0  0
   -4.0090    1.0640    1.0550 S   0  0  0  0  0  0  0  0  0  0  0  0
   -4.6460    2.7530    1.2320 C   0  0  0  0  0  0  0  0  0  0  0  0
   -3.7820    3.6090    2.0960 C   0  0  0  0  0  0  0  0  0  0  0  0
   -1.0480   -3.1180   -0.2980 O   0  0  0  0  0  0  0  0  0  0  0  0
   -0.8960   -4.4380   -0.7890 C   0  0  0  0  0  0  0  0  0  0  0  0
  1  2  2  0
  2  3  1  0
  3  4  2  3
  4  5  1  0
  4 30  1  0
  5  6  2  3
  6  7  1  0
  6 26  1  0
  7  8  1  0
  7 19  2  0
  8  9  1  0
  9 10  1  0
 10 11  1  0
 11 12  1  0
 12 13  2  0
 12 14  1  0
 14 15  2  0
 14 18  1  0
 15 16  1  0
 16 17  2  0
 17 18  1  0
 19 20  1  0
 19 24  1  0
 20 21  1  0
 21 22  2  0
 22 23  1  0
 23 24  2  0
 24 25  1  0
 25 26  1  0
 26 27  1  6
 27 28  1  0
 28 29  1  0
 30 31  1  0
M  END
