
     RDKit          3D

 31 34  0  0  0  0  0  0  0  0999 V2000
    3.6370    1.8490   -3.3970 O   0  0  0  0  0  0  0  0  0  0  0  0
    4.1150    0.8820   -2.7580 C   0  0  0  0  0  0  0  0  0  0  0  0
    3.2620   -0.0770   -2.0680 C   0  0  0  0  0  0  0  0  0  0  0  0
    1.8740    0.0980   -2.1230 C   0  0  0  0  0  0  0  0  0  0  0  0
    0.9960   -0.7600   -1.4990 C   0  0  0  0  0  0  0  0  0  0  0  0
   -0.3710   -0.5550   -1.5770 O   0  0  0  0  0  0  0  0  0  0  0  0
   -1.0510    0.1910   -0.6210 C   0  0  0  0  0  0  0  0  0  0  0  0
   -1.5930   -0.3940    0.5000 C   0  0  0  0  0  0  0  0  0  0  0  0
   -2.2690    0.3030    1.4640 C   0  0  0  0  0  0  0  0  0  0  0  0
   -2.4080    1.6830    1.2890 C   0  0  0  0  0  0  0  0  0  0  0  0
   -3.0390    2.4850    2.1920 N   0  0  0  0  0  0  0  0  0  0  0  0
   -4.1990    2.8740    2.3540 C   0  0  0  0  0  0  0  0  0  0  0  0
   -4.3550    3.7380    3.4980 O   0  0  0  0  0  0  0  0  0  0  0  0
   -5.4100    2.6190    1.6120 C   0  0  0  0  0  0  0  0  0  0  0  0
   -5.4530    1.8600    0.5510 C   0  0  0  0  0  0  0  0  0  0  0  0
   -6.6710    1.5750   -0.2360 C   0  0  0  0  0  0  0  0  0  0  0  0
   -7.7960    2.2030    0.2640 O   0  0  0  0  0  0  0  0  0  0  0  0
   -7.8040    3.0050    1.3660 C   0  0  0  0  0  0  0  0  0  0  0  0
   -6.6950    3.2270    2.0330 C   0  0  0  0  0  0  0  0  0  0  0  0
   -1.8530    2.2720    0.1430 C   0  0  0  0  0  0  0  0  0  0  0  0
   -1.1820    1.5490   -0.8040 C   0  0  0  0  0  0  0  0  0  0  0  0
    1.5440   -1.8290   -0.7970 C   0  0  0  0  0  0  0  0  0  0  0  0
    2.9070   -2.0160   -0.7310 C   0  0  0  0  0  0  0  0  0  0  0  0
    3.7730   -1.1460   -1.3630 C   0  0  0  0  0  0  0  0  0  0  0  0
    5.1610   -1.3290   -1.3010 O   0  0  0  0  0  0  0  0  0  0  0  0
    5.6580   -2.4260   -0.5780 C   0  0  0  0  0  0  0  0  0  0  0  0
    5.8840   -3.5520   -1.1850 C   0  0  0  0  0  0  0  0  0  0  0  0
    6.3950   -4.8140   -0.6390 C   0  0  0  0  0  0  0  0  0  0  0  0
    6.7400   -4.7350    1.1220 S   0  0  0  0  0  0  0  0  0  0  0  0
    6.3410   -3.1030    1.6600 C   0  0  0  0  0  0  0  0  0  0  0  0
    5.8850   -2.1980    0.8410 C   0  0  0  0  0  0  0  0  0  0  0  0
  1  2  2  0
  2  3  1  0
  3  4  2  0
  3 24  1  0
  4  5  1  0
  5  6  1  0
  5 22  2  0
  6  7  1  0
  7  8  2  0
  7 21  1  0
  8  9  1  0
  9 10  2  0
 10 11  1  0
 10 20  1  0
 11 12  2  3
 12 13  1  0
 12 14  1  0
 14 15  2  0
 14 19  1  0
 15 16  1  0
 16 17  1  0
 17 18  1  0
 18 19  2  0
 20 21  2  0
 22 23  1  0
 23 24  2  0
 24 25  1  0
 25 26  1  0
 26 27  2  0
 26 31  1  0
 27 28  1  0
 28 29  1  0
 29 30  1  0
 30 31  2  0
M  END
