
     RDKit          3D

 29 30  0  0  0  0  0  0  0  0999 V2000
   -5.2510   -1.9990    1.1720 C   0  0  0  0  0  0  0  0  0  0  0  0
   -4.1830   -2.3170    0.4720 C   0  0  0  0  0  0  0  0  0  0  0  0
   -3.5890   -1.3390   -0.4710 C   0  0  0  0  0  0  0  0  0  0  0  0
   -2.1750   -1.0870   -0.0170 C   0  0  0  0  0  0  0  0  0  0  0  0
   -1.4070   -0.1250   -0.8650 C   0  0  1  0  0  0  0  0  0  0  0  0
   -2.0090    1.2060   -0.9320 C   0  0  0  0  0  0  0  0  0  0  0  0
   -3.3530    1.2850   -2.0820 Cl  0  0  0  0  0  0  0  0  0  0  0  0
   -1.7430    2.3340   -0.3240 C   0  0  0  0  0  0  0  0  0  0  0  0
   -2.8080    3.6420   -0.7920 Cl  0  0  0  0  0  0  0  0  0  0  0  0
   -0.7010    2.6100    0.6490 C   0  0  0  0  0  0  0  0  0  0  0  0
   -0.5240    3.8430    0.9550 N   0  0  0  0  0  0  0  0  0  0  0  0
   -1.2060    4.9610    0.4710 C   0  0  0  0  0  0  0  0  0  0  0  0
   -2.0830    5.5130    1.1840 O   0  0  0  0  0  0  0  0  0  0  0  0
    0.2260    1.6660    1.3710 C   0  0  1  0  0  0  0  0  0  0  0  0
   -0.5790    1.0110    2.8060 Cl  0  0  0  0  0  0  0  0  0  0  0  0
    0.7370    0.5960    0.4780 C   0  0  0  0  0  0  0  0  0  0  0  0
    2.0610    0.3610    0.6440 N   0  0  0  0  0  0  0  0  0  0  0  0
    2.7440   -0.5430   -0.0360 C   0  0  0  0  0  0  0  0  0  0  0  0
    4.1500   -0.8630    0.0750 C   0  0  2  0  0  0  0  0  0  0  0  0
    4.8160   -0.8050   -1.1600 F   0  0  0  0  0  0  0  0  0  0  0  0
    4.2380   -2.2220    0.4330 F   0  0  0  0  0  0  0  0  0  0  0  0
    4.9810   -0.1440    1.0280 C   0  0  0  0  0  0  0  0  0  0  0  0
    4.6840    0.8070    1.8660 C   0  0  0  0  0  0  0  0  0  0  0  0
    6.8520   -0.7080    1.0430 Br  0  0  0  0  0  0  0  0  0  0  0  0
    2.0140   -1.2840   -0.9790 C   0  0  0  0  0  0  0  0  0  0  0  0
    2.6660   -2.3360   -1.8160 C   0  0  0  0  0  0  0  0  0  0  0  0
    1.6810   -2.8990   -2.6530 O   0  0  0  0  0  0  0  0  0  0  0  0
    0.7070   -1.0450   -1.1350 N   0  0  0  0  0  0  0  0  0  0  0  0
    0.0190   -0.1260   -0.4430 C   0  0  0  0  0  0  0  0  0  0  0  0
  1  2  2  0
  2  3  1  0
  3  4  1  0
  5  4  1  1
  5  6  1  0
  5 29  1  0
  6  7  1  0
  6  8  2  0
  8  9  1  0
  8 10  1  0
 10 11  2  3
 10 14  1  0
 11 12  1  0
 12 13  2  0
 14 15  1  1
 14 16  1  0
 16 17  2  0
 16 29  1  0
 17 18  1  0
 18 19  1  0
 18 25  2  0
 19 20  1  6
 19 21  1  0
 19 22  1  0
 22 23  2  0
 22 24  1  0
 25 26  1  0
 25 28  1  0
 26 27  1  0
 28 29  2  0
M  END
