
     RDKit          3D

 31 34  0  0  0  0  0  0  0  0999 V2000
   -3.9130   -4.0140    2.2390 C   0  0  0  0  0  0  0  0  0  0  0  0
   -4.8110   -2.9340    2.2210 O   0  0  0  0  0  0  0  0  0  0  0  0
   -4.5400   -1.7700    1.5170 C   0  0  0  0  0  0  0  0  0  0  0  0
   -3.3780   -1.5860    0.7870 C   0  0  0  0  0  0  0  0  0  0  0  0
   -3.1250   -0.4210    0.0920 C   0  0  0  0  0  0  0  0  0  0  0  0
   -1.8870   -0.1960   -0.7000 C   0  0  0  0  0  0  0  0  0  0  0  0
   -1.0110    0.7310    0.1150 C   0  0  0  0  0  0  0  0  0  0  0  0
    0.2750    1.0340   -0.5850 C   0  0  0  0  0  0  0  0  0  0  0  0
    0.4870    2.0530   -1.4320 N   0  0  0  0  0  0  0  0  0  0  0  0
    1.7450    2.0020   -1.8540 C   0  0  0  0  0  0  0  0  0  0  0  0
    2.3410    0.9170   -1.2530 C   0  0  0  0  0  0  0  0  0  0  0  0
    3.7240    0.4890   -1.4350 C   0  0  0  0  0  0  0  0  0  0  0  0
    4.2060   -0.5680   -0.8130 C   0  0  0  0  0  0  0  0  0  0  0  0
    5.5930   -0.9600   -1.0250 C   0  0  0  0  0  0  0  0  0  0  0  0
    6.0790   -1.9690   -0.4410 O   0  0  0  0  0  0  0  0  0  0  0  0
    6.4370   -0.2490   -1.8710 O   0  0  0  0  0  0  0  0  0  0  0  0
    7.7840   -0.5970   -2.0990 C   0  0  0  0  0  0  0  0  0  0  0  0
    8.5580   -0.5490   -0.7620 C   0  0  0  0  0  0  0  0  0  0  0  0
    8.0970   -0.0330    0.3620 C   0  0  0  0  0  0  0  0  0  0  0  0
    8.8190   -0.0190    1.5170 C   0  0  0  0  0  0  0  0  0  0  0  0
   10.3680   -0.8440    0.9600 S   0  0  0  0  0  0  0  0  0  0  0  0
    9.8750   -1.1110   -0.7390 C   0  0  0  0  0  0  0  0  0  0  0  0
    1.4080    0.3810   -0.5060 O   0  0  0  0  0  0  0  0  0  0  0  0
   -4.0910    0.5710    0.1520 C   0  0  0  0  0  0  0  0  0  0  0  0
   -5.2670    0.4060    0.8810 C   0  0  0  0  0  0  0  0  0  0  0  0
   -5.4930   -0.7650    1.5640 C   0  0  0  0  0  0  0  0  0  0  0  0
   -6.7390   -0.9650    2.3480 C   0  0  0  0  0  0  0  0  0  0  0  0
   -6.0420    1.5730    0.7530 O   0  0  0  0  0  0  0  0  0  0  0  0
   -5.6510    2.1780   -0.4840 C   0  0  1  0  0  0  0  0  0  0  0  0
   -5.9400    3.6520   -0.5070 C   0  0  0  0  0  0  0  0  0  0  0  0
   -4.1470    1.9190   -0.4590 C   0  0  0  0  0  0  0  0  0  0  0  0
  1  2  1  0
  2  3  1  0
  3  4  2  0
  3 26  1  0
  4  5  1  0
  5  6  1  0
  5 24  2  0
  6  7  1  0
  7  8  1  0
  8  9  2  0
  8 23  1  0
  9 10  1  0
 10 11  2  0
 11 12  1  0
 11 23  1  0
 12 13  2  3
 13 14  1  0
 14 15  2  0
 14 16  1  0
 16 17  1  0
 17 18  1  0
 18 19  1  0
 18 22  2  0
 19 20  2  0
 20 21  1  0
 21 22  1  0
 24 25  1  0
 24 31  1  0
 25 26  2  0
 25 28  1  0
 26 27  1  0
 28 29  1  0
 29 30  1  1
 29 31  1  0
M  END
