
     RDKit          3D

 29 31  0  0  0  0  0  0  0  0999 V2000
    1.4840   -5.7750   -1.3420 C   0  0  0  0  0  0  0  0  0  0  0  0
    1.5350   -4.5370   -0.8180 C   0  0  0  0  0  0  0  0  0  0  0  0
    1.3820   -3.3690   -1.6610 C   0  0  0  0  0  0  0  0  0  0  0  0
    1.1800   -3.5470   -3.0150 O   0  0  0  0  0  0  0  0  0  0  0  0
    1.4340   -2.1450   -1.1440 C   0  0  0  0  0  0  0  0  0  0  0  0
    1.2720   -0.9990   -2.0340 C   0  0  0  0  0  0  0  0  0  0  0  0
    1.0750    0.2700   -1.2660 C   0  0  0  0  0  0  0  0  0  0  0  0
    0.3470    0.0970    0.0630 C   0  0  2  0  0  0  0  0  0  0  0  0
   -0.9660   -0.6120   -0.0710 C   0  0  0  0  0  0  0  0  0  0  0  0
   -1.1900   -1.7590   -0.5240 O   0  0  0  0  0  0  0  0  0  0  0  0
   -1.9940    0.2930    0.4400 N   0  0  0  0  0  0  0  0  0  0  0  0
   -3.1790   -0.0260    1.1750 C   0  0  0  0  0  0  0  0  0  0  0  0
   -1.5060    1.5410    0.0070 C   0  0  1  0  0  0  0  0  0  0  0  0
   -1.6300    1.7080   -1.4570 C   0  0  0  0  0  0  0  0  0  0  0  0
   -1.7850    2.7840    0.6500 C   0  0  0  0  0  0  0  0  0  0  0  0
   -2.8370    3.2390    1.2490 C   0  0  0  0  0  0  0  0  0  0  0  0
   -0.5340    3.5530    0.4640 C   0  0  0  0  0  0  0  0  0  0  0  0
   -0.3680    4.8650    0.6390 C   0  0  0  0  0  0  0  0  0  0  0  0
    0.4510    2.5980    0.0500 N   0  0  0  0  0  0  0  0  0  0  0  0
   -0.0540    1.3680    0.5380 C   0  0  2  0  0  0  0  0  0  0  0  0
   -0.2380    1.6440    2.4490 Br  0  0  0  0  0  0  0  0  0  0  0  0
    1.1590   -0.8520    0.8680 C   0  0  0  0  0  0  0  0  0  0  0  0
    1.5110   -0.8140    2.2800 C   0  0  1  0  0  0  0  0  0  0  0  0
    0.4670   -0.9280    3.1660 F   0  0  0  0  0  0  0  0  0  0  0  0
    2.5850   -2.1930    2.7550 Cl  0  0  0  0  0  0  0  0  0  0  0  0
    2.3490    0.3590    2.5240 N   0  0  0  0  0  0  0  0  0  0  0  0
    3.4410    0.2260    1.7340 F   0  0  0  0  0  0  0  0  0  0  0  0
    2.7910    0.4450    4.2040 Cl  0  0  0  0  0  0  0  0  0  0  0  0
    1.6470   -1.9040    0.2200 N   0  0  0  0  0  0  0  0  0  0  0  0
  1  2  2  0
  2  3  1  0
  3  4  1  0
  3  5  2  3
  5  6  1  0
  5 29  1  0
  6  7  1  0
  8  7  1  6
  8  9  1  0
  8 20  1  0
  8 22  1  0
  9 10  2  0
  9 11  1  0
 11 12  1  0
 11 13  1  0
 13 14  1  6
 13 15  1  0
 13 20  1  0
 15 16  2  0
 15 17  1  0
 17 18  2  0
 17 19  1  0
 19 20  1  0
 20 21  1  1
 22 23  1  0
 22 29  2  0
 23 24  1  1
 23 25  1  0
 23 26  1  0
 26 27  1  0
 26 28  1  0
M  END
