
     RDKit          3D

 31 34  0  0  0  0  0  0  0  0999 V2000
   -6.9360   -0.1880    1.4460 C   0  0  0  0  0  0  0  0  0  0  0  0
   -5.6710   -0.9090    1.8330 C   0  0  0  0  0  0  0  0  0  0  0  0
   -4.5730   -0.1900    1.3160 O   0  0  0  0  0  0  0  0  0  0  0  0
   -4.4800   -0.0020   -0.0510 C   0  0  0  0  0  0  0  0  0  0  0  0
   -3.8220   -0.9620   -0.7780 C   0  0  0  0  0  0  0  0  0  0  0  0
   -3.1300   -2.3790    0.0290 S   0  0  0  0  0  0  0  0  0  0  0  0
   -1.4650   -1.9990    0.5000 C   0  0  0  0  0  0  0  0  0  0  0  0
   -1.2050   -1.4470    1.7250 C   0  0  0  0  0  0  0  0  0  0  0  0
    0.1120   -1.1550    2.0760 C   0  0  0  0  0  0  0  0  0  0  0  0
    1.1860   -1.4090    1.2120 C   0  0  0  0  0  0  0  0  0  0  0  0
    2.4150   -1.0810    1.6680 O   0  0  0  0  0  0  0  0  0  0  0  0
    3.3610   -0.2270    1.2220 C   0  0  0  0  0  0  0  0  0  0  0  0
    3.3400    1.1450    1.4800 C   0  0  0  0  0  0  0  0  0  0  0  0
    4.3470    1.9420    0.9880 C   0  0  0  0  0  0  0  0  0  0  0  0
    5.3850    1.4510    0.2470 C   0  0  0  0  0  0  0  0  0  0  0  0
    6.4290    2.2980   -0.2610 N   0  0  0  0  0  0  0  0  0  0  0  0
    6.4170    3.7100   -0.0020 C   0  0  0  0  0  0  0  0  0  0  0  0
    5.4180    0.1150   -0.0130 C   0  0  0  0  0  0  0  0  0  0  0  0
    6.4420   -0.4460   -0.7580 O   0  0  0  0  0  0  0  0  0  0  0  0
    6.4790   -1.8310   -1.0280 C   0  0  0  0  0  0  0  0  0  0  0  0
    4.4150   -0.6990    0.4750 C   0  0  0  0  0  0  0  0  0  0  0  0
    0.8900   -1.9640   -0.0110 C   0  0  0  0  0  0  0  0  0  0  0  0
    1.9480   -2.2760   -0.9930 C   0  0  0  0  0  0  0  0  0  0  0  0
   -0.4320   -2.2490   -0.3450 C   0  0  0  0  0  0  0  0  0  0  0  0
   -3.6900   -0.8420   -2.1380 C   0  0  0  0  0  0  0  0  0  0  0  0
   -4.2310    0.2710   -2.7930 C   0  0  0  0  0  0  0  0  0  0  0  0
   -4.8910    1.2350   -2.0630 C   0  0  0  0  0  0  0  0  0  0  0  0
   -5.0260    1.1150   -0.6830 C   0  0  0  0  0  0  0  0  0  0  0  0
   -5.7240    2.2110   -0.2010 O   0  0  0  0  0  0  0  0  0  0  0  0
   -6.1520    2.9910   -1.2790 C   0  0  0  0  0  0  0  0  0  0  0  0
   -5.5270    2.4360   -2.4120 O   0  0  0  0  0  0  0  0  0  0  0  0
  1  2  1  0
  2  3  1  0
  3  4  1  0
  4  5  2  0
  4 28  1  0
  5  6  1  0
  5 25  1  0
  6  7  1  0
  7  8  2  0
  7 24  1  0
  8  9  1  0
  9 10  2  0
 10 11  1  0
 10 22  1  0
 11 12  1  0
 12 13  2  0
 12 21  1  0
 13 14  1  0
 14 15  2  0
 15 16  1  0
 15 18  1  0
 16 17  1  0
 18 19  1  0
 18 21  2  0
 19 20  1  0
 22 23  1  0
 22 24  2  0
 25 26  2  0
 26 27  1  0
 27 28  2  0
 27 31  1  0
 28 29  1  0
 29 30  1  0
 30 31  1  0
M  END
