
     RDKit          3D

 29 30  0  0  0  0  0  0  0  0999 V2000
   -4.0660   -3.1490   -0.2010 C   0  0  0  0  0  0  0  0  0  0  0  0
   -2.9240   -2.1590   -0.1850 C   0  0  0  0  0  0  0  0  0  0  0  0
   -3.1050   -1.0650   -0.9260 C   0  0  0  0  0  0  0  0  0  0  0  0
   -2.1570    0.0270   -1.0640 C   0  0  0  0  0  0  0  0  0  0  0  0
   -1.7000    0.6950   -0.0750 C   0  0  0  0  0  0  0  0  0  0  0  0
   -1.9970    1.8500    0.3570 C   0  0  0  0  0  0  0  0  0  0  0  0
   -3.7950    2.4450    0.1720 Br  0  0  0  0  0  0  0  0  0  0  0  0
   -0.9650    2.6700    0.9730 C   0  0  0  0  0  0  0  0  0  0  0  0
   -1.0950    3.7320    1.8500 C   0  0  0  0  0  0  0  0  0  0  0  0
    0.1650    4.2130    2.1800 C   0  0  0  0  0  0  0  0  0  0  0  0
    1.0220    3.4450    1.5050 N   0  0  0  0  0  0  0  0  0  0  0  0
    0.3790    2.5060    0.7670 C   0  0  0  0  0  0  0  0  0  0  0  0
    0.9520    1.4670   -0.1280 C   0  0  0  0  0  0  0  0  0  0  0  0
    0.9530    0.1410    0.4600 N   0  0  0  0  0  0  0  0  0  0  0  0
    1.9320    0.1070    1.8930 Cl  0  0  0  0  0  0  0  0  0  0  0  0
    1.3730   -0.8000   -0.5280 C   0  0  2  0  0  0  0  0  0  0  0  0
    2.4310   -1.5170    0.0510 F   0  0  0  0  0  0  0  0  0  0  0  0
    1.8150   -0.2290   -1.7540 N   0  0  0  0  0  0  0  0  0  0  0  0
    3.0620    0.0950   -1.9050 C   0  0  0  0  0  0  0  0  0  0  0  0
    4.2960    0.4400   -1.6470 C   0  0  0  0  0  0  0  0  0  0  0  0
    4.5510    1.7010   -1.2920 F   0  0  0  0  0  0  0  0  0  0  0  0
    5.3690   -0.5530   -1.7440 C   0  0  0  0  0  0  0  0  0  0  0  0
    6.2510   -0.8050   -0.2290 Cl  0  0  0  0  0  0  0  0  0  0  0  0
    0.3250   -1.8950   -0.7430 C   0  0  0  0  0  0  0  0  0  0  0  0
    0.4070   -2.3480   -1.9500 O   0  0  0  0  0  0  0  0  0  0  0  0
   -0.5220   -2.2850    0.2220 N   0  0  0  0  0  0  0  0  0  0  0  0
   -1.7140   -2.4450    0.5880 C   0  0  0  0  0  0  0  0  0  0  0  0
   -1.9660   -3.0030    1.9480 C   0  0  0  0  0  0  0  0  0  0  0  0
   -3.1420   -3.1720    2.3210 O   0  0  0  0  0  0  0  0  0  0  0  0
  1  2  1  0
  2  3  2  0
  2 27  1  0
  3  4  1  0
  4  5  2  0
  5  6  2  0
  6  7  1  0
  6  8  1  0
  8  9  1  0
  8 12  2  0
  9 10  2  0
 10 11  1  0
 11 12  1  0
 12 13  1  0
 13 14  1  0
 14 15  1  0
 14 16  1  0
 16 17  1  1
 16 18  1  0
 16 24  1  0
 18 19  2  0
 19 20  2  0
 20 21  1  0
 20 22  1  0
 22 23  1  0
 24 25  2  0
 24 26  1  0
 26 27  2  0
 27 28  1  0
 28 29  2  0
M  END
