
     RDKit          3D

 18 20  0  0  0  0  0  0  0  0999 V2000
    1.5080   -2.4960    0.2240 C   0  0  0  0  0  0  0  0  0  0  0  0
    1.3410   -1.0410    0.0820 C   0  0  0  0  0  0  0  0  0  0  0  0
    2.3610   -0.1930    0.1440 C   0  0  0  0  0  0  0  0  0  0  0  0
    3.7540   -0.6510    0.3650 C   0  0  0  0  0  0  0  0  0  0  0  0
    4.6270   -0.2850   -0.7300 N   0  0  0  0  0  0  0  0  0  0  0  0
    2.0940    1.2320   -0.0190 C   0  0  0  0  0  0  0  0  0  0  0  0
    3.0710    2.0350    0.0420 O   0  0  0  0  0  0  0  0  0  0  0  0
    0.8130    1.7650   -0.2400 N   0  0  0  0  0  0  0  0  0  0  0  0
    0.2100    3.0940   -0.1490 C   0  0  0  0  0  0  0  0  0  0  0  0
   -1.2910    2.8650   -0.1290 C   0  0  0  0  0  0  0  0  0  0  0  0
   -1.3960    1.4140    0.1690 C   0  0  1  0  0  0  0  0  0  0  0  0
   -2.6250    0.7270   -0.3000 C   0  0  0  0  0  0  0  0  0  0  0  0
   -2.4950   -0.7400   -0.0640 C   0  0  1  0  0  0  0  0  0  0  0  0
   -3.2940   -1.1270    1.1640 C   0  0  0  0  0  0  0  0  0  0  0  0
   -3.0670   -1.5360   -1.2440 C   0  0  0  0  0  0  0  0  0  0  0  0
   -1.1130   -1.2140    0.1320 C   0  0  0  0  0  0  0  0  0  0  0  0
   -0.0240   -0.5260   -0.1290 C   0  0  0  0  0  0  0  0  0  0  0  0
   -0.2290    0.8560   -0.6630 C   0  0  2  0  0  0  0  0  0  0  0  0
  1  2  1  0
  2  3  2  0
  2 17  1  0
  3  4  1  0
  3  6  1  0
  4  5  1  0
  6  7  2  0
  6  8  1  0
  8  9  1  0
 18  8  1  1
  9 10  1  0
 11 10  1  6
 11 12  1  0
 11 18  1  0
 12 13  1  0
 13 14  1  1
 13 15  1  0
 13 16  1  0
 16 17  2  0
 17 18  1  0
M  CHG  1   5   1
M  END
