
     RDKit          3D

 11 11  0  0  0  0  0  0  0  0999 V2000
   -3.0550    0.1400    0.2100 C   0  0  0  0  0  0  0  0  0  0  0  0
   -1.9490    0.1820   -0.6390 O   0  0  0  0  0  0  0  0  0  0  0  0
   -0.7560    0.0100    0.0700 C   0  0  1  0  0  0  0  0  0  0  0  0
   -0.0570   -1.1920   -0.3980 C   0  0  0  0  0  0  0  0  0  0  0  0
    1.2460   -1.1990   -0.4260 C   0  0  0  0  0  0  0  0  0  0  0  0
    1.9640   -2.3280   -0.8680 O   0  0  0  0  0  0  0  0  0  0  0  0
    2.0150   -0.0370   -0.0020 C   0  0  1  0  0  0  0  0  0  0  0  0
    3.1020    0.0980   -0.8990 O   0  0  0  0  0  0  0  0  0  0  0  0
    1.3870    1.1370    0.0800 O   0  0  0  0  0  0  0  0  0  0  0  0
    0.0630    1.2370   -0.0640 C   0  0  2  0  0  0  0  0  0  0  0  0
   -0.4310    2.1830    0.8640 O   0  0  0  0  0  0  0  0  0  0  0  0
  1  2  1  0
  3  2  1  6
  3  4  1  0
  3 10  1  0
  4  5  2  0
  5  6  1  0
  5  7  1  0
  7  8  1  6
  7  9  1  0
  9 10  1  0
 10 11  1  1
M  END
