
     RDKit          3D

 12 12  0  0  0  0  0  0  0  0999 V2000
    2.3900   -0.8720   -0.1170 C   0  0  0  0  0  0  0  0  0  0  0  0
    1.1290   -0.2410    0.3660 C   0  0  2  0  0  0  0  0  0  0  0  0
    0.9660   -0.2620    1.7280 O   0  0  0  0  0  0  0  0  0  0  0  0
   -0.1060   -0.8090   -0.3430 C   0  0  0  0  0  0  0  0  0  0  0  0
   -0.9950    0.3960   -0.3990 C   0  0  1  0  0  0  0  0  0  0  0  0
   -1.2080    0.8550   -1.7030 O   0  0  0  0  0  0  0  0  0  0  0  0
   -2.3280    0.0470    0.2320 C   0  0  1  0  0  0  0  0  0  0  0  0
   -2.9040   -0.9500   -0.5570 O   0  0  0  0  0  0  0  0  0  0  0  0
   -2.0880   -0.5260    1.4820 O   0  0  0  0  0  0  0  0  0  0  0  0
   -0.3510    1.4250    0.2820 O   0  0  0  0  0  0  0  0  0  0  0  0
    0.9950    1.2130   -0.1010 C   0  0  1  0  0  0  0  0  0  0  0  0
    1.8650    2.0530    0.5390 O   0  0  0  0  0  0  0  0  0  0  0  0
  2  1  1  1
  2  3  1  0
  2  4  1  0
  2 11  1  0
  4  5  1  0
  5  6  1  6
  5  7  1  0
  5 10  1  0
  7  8  1  6
  7  9  1  0
 10 11  1  0
 11 12  1  1
M  END
