
     RDKit          3D

 18 20  0  0  0  0  0  0  0  0999 V2000
    4.0560    2.1540    0.5030 N   0  0  0  0  0  0  0  0  0  0  0  0
    3.6410    0.8290    0.2530 C   0  0  0  0  0  0  0  0  0  0  0  0
    4.4500   -0.0790   -0.2880 C   0  0  0  0  0  0  0  0  0  0  0  0
    3.8740   -1.4360   -0.4920 C   0  0  0  0  0  0  0  0  0  0  0  0
    2.6050   -1.3610   -1.1340 N   0  0  0  0  0  0  0  0  0  0  0  0
    1.7440   -0.3170   -0.6930 C   0  0  1  0  0  0  0  0  0  0  0  0
    0.3380   -0.8320   -0.5700 C   0  0  1  0  0  0  0  0  0  0  0  0
    0.2860   -1.9600    0.4210 C   0  0  0  0  0  0  0  0  0  0  0  0
   -0.9550   -1.9140    1.2800 C   0  0  0  0  0  0  0  0  0  0  0  0
   -2.1170   -1.5490    0.3820 C   0  0  0  0  0  0  0  0  0  0  0  0
   -2.0110   -0.1150   -0.0760 C   0  0  2  0  0  0  0  0  0  0  0  0
   -2.6740    0.8470    0.8990 C   0  0  0  0  0  0  0  0  0  0  0  0
   -3.0320    2.0870    0.0770 C   0  0  0  0  0  0  0  0  0  0  0  0
   -4.2400    1.6830   -0.7680 C   0  0  0  0  0  0  0  0  0  0  0  0
   -4.0270    0.2120   -1.1120 C   0  0  0  0  0  0  0  0  0  0  0  0
   -2.6580    0.0120   -1.2830 O   0  0  0  0  0  0  0  0  0  0  0  0
   -0.5460    0.3190   -0.1540 C   0  0  0  0  0  0  0  0  0  0  0  0
    2.2560    0.3240    0.5740 C   0  0  0  0  0  0  0  0  0  0  0  0
  1  2  1  0
  2  3  2  0
  2 18  1  0
  3  4  1  0
  4  5  1  0
  5  6  1  0
  6  7  1  0
  6 18  1  1
  7  8  1  1
  7 17  1  0
  8  9  1  0
  9 10  1  0
 11 10  1  1
 11 12  1  0
 11 16  1  0
 11 17  1  0
 12 13  1  0
 13 14  1  0
 14 15  1  0
 15 16  1  0
M  CHG  1   1   1
M  END
