
     RDKit          3D

 18 20  0  0  0  0  0  0  0  0999 V2000
   -2.2940   -2.2580    0.4730 N   0  0  0  0  0  0  0  0  0  0  0  0
   -2.7320   -0.9900   -0.0180 C   0  0  1  0  0  0  0  0  0  0  0  0
   -3.6890   -0.2960    0.9620 C   0  0  0  0  0  0  0  0  0  0  0  0
   -4.3130    0.8610    0.2210 C   0  0  0  0  0  0  0  0  0  0  0  0
   -3.4030    1.5820   -0.7080 C   0  0  0  0  0  0  0  0  0  0  0  0
   -1.9660    1.2690   -0.5470 C   0  0  0  0  0  0  0  0  0  0  0  0
   -1.0410    2.2240   -0.7360 N   0  0  0  0  0  0  0  0  0  0  0  0
    0.3000    1.9220   -0.5880 C   0  0  0  0  0  0  0  0  0  0  0  0
    1.1270    2.8450   -0.7760 O   0  0  0  0  0  0  0  0  0  0  0  0
    0.7090    0.6620   -0.2500 C   0  0  0  0  0  0  0  0  0  0  0  0
    2.0970    0.2610   -0.0550 C   0  0  0  0  0  0  0  0  0  0  0  0
    3.1070    1.0790   -0.1180 C   0  0  0  0  0  0  0  0  0  0  0  0
    4.5470    0.7200    0.0740 C   0  0  0  0  0  0  0  0  0  0  0  0
    4.6160   -0.5670    0.8360 C   0  0  0  0  0  0  0  0  0  0  0  0
    3.7870   -1.5660    0.0240 C   0  0  0  0  0  0  0  0  0  0  0  0
    2.3480   -1.1950    0.2240 C   0  0  0  0  0  0  0  0  0  0  0  0
   -0.2990   -0.3080   -0.0620 C   0  0  0  0  0  0  0  0  0  0  0  0
   -1.6330   -0.0200   -0.2060 C   0  0  0  0  0  0  0  0  0  0  0  0
  2  1  1  1
  2  3  1  0
  2 18  1  0
  3  4  1  0
  4  5  1  0
  5  6  1  0
  6  7  1  0
  6 18  2  0
  7  8  1  0
  8  9  2  0
  8 10  1  0
 10 11  1  0
 10 17  2  0
 11 12  2  0
 11 16  1  0
 12 13  1  0
 13 14  1  0
 14 15  1  0
 15 16  1  0
 17 18  1  0
M  CHG  1   1   1
M  END
