
     RDKit          3D

 12 12  0  0  0  0  0  0  0  0999 V2000
    2.4270    1.9120    0.6380 O   0  0  0  0  0  0  0  0  0  0  0  0
    2.4020    0.5220    0.7190 C   0  0  0  0  0  0  0  0  0  0  0  0
    1.1620    0.0380    0.0390 C   0  0  2  0  0  0  0  0  0  0  0  0
    1.1510    0.4240   -1.2870 O   0  0  0  0  0  0  0  0  0  0  0  0
   -0.0410    0.5730    0.7960 C   0  0  0  0  0  0  0  0  0  0  0  0
   -1.1030   -0.4340    0.4160 C   0  0  1  0  0  0  0  0  0  0  0  0
   -1.7270   -0.9630    1.5250 O   0  0  0  0  0  0  0  0  0  0  0  0
   -2.1330    0.2640   -0.4250 C   0  0  0  0  0  0  0  0  0  0  0  0
   -1.6160    0.8370   -1.5730 O   0  0  0  0  0  0  0  0  0  0  0  0
   -0.3300   -1.4830   -0.3170 C   0  0  1  0  0  0  0  0  0  0  0  0
   -0.3190   -1.3190   -1.6880 O   0  0  0  0  0  0  0  0  0  0  0  0
    0.9910   -1.3410    0.1660 O   0  0  0  0  0  0  0  0  0  0  0  0
  1  2  1  0
  2  3  1  0
  3  4  1  6
  3  5  1  0
  3 12  1  0
  5  6  1  0
  6  7  1  1
  6  8  1  0
  6 10  1  0
  8  9  1  0
 10 11  1  6
 10 12  1  0
M  END
