
     RDKit          3D

 27 29  0  0  0  0  0  0  0  0999 V2000
    5.5970    2.4050    0.9610 C   0  0  0  0  0  0  0  0  0  0  0  0
    4.5370    2.1730    0.0170 N   0  0  0  0  0  0  0  0  0  0  0  0
    4.1470    0.8680   -0.4270 C   0  0  0  0  0  0  0  0  0  0  0  0
    4.7720   -0.0930    0.0430 O   0  0  0  0  0  0  0  0  0  0  0  0
    3.0380    0.7000   -1.4090 C   0  0  2  0  0  0  0  0  0  0  0  0
    2.5580    1.9280   -1.8350 O   0  0  0  0  0  0  0  0  0  0  0  0
    1.1990    2.0290   -1.6110 C   0  0  0  0  0  0  0  0  0  0  0  0
    0.6210    3.0910   -1.9350 O   0  0  0  0  0  0  0  0  0  0  0  0
    0.7310    0.8000   -1.0150 C   0  0  0  0  0  0  0  0  0  0  0  0
   -0.5680    0.3570   -0.5820 C   0  0  0  0  0  0  0  0  0  0  0  0
   -1.7250    0.9400   -0.6000 C   0  0  0  0  0  0  0  0  0  0  0  0
   -2.1790    2.2040   -1.0350 N   0  0  0  0  0  0  0  0  0  0  0  0
   -3.5790    2.2870   -0.8000 C   0  0  0  0  0  0  0  0  0  0  0  0
   -4.2910    3.2820   -1.0740 O   0  0  0  0  0  0  0  0  0  0  0  0
   -4.0150    1.0520   -0.2050 C   0  0  0  0  0  0  0  0  0  0  0  0
   -5.1080    0.3370    0.3010 C   0  0  0  0  0  0  0  0  0  0  0  0
   -6.4740    0.9040    0.3310 C   0  0  0  0  0  0  0  0  0  0  0  0
   -4.6650   -0.8600    0.7110 N   0  0  0  0  0  0  0  0  0  0  0  0
   -3.3470   -0.9720    0.5030 C   0  0  0  0  0  0  0  0  0  0  0  0
   -2.5170   -2.1310    0.8230 C   0  0  0  0  0  0  0  0  0  0  0  0
   -2.9440    0.2400   -0.0760 C   0  0  0  0  0  0  0  0  0  0  0  0
    1.8600    0.0120   -0.9070 C   0  0  0  0  0  0  0  0  0  0  0  0
    1.8200   -1.2430   -0.3920 O   0  0  0  0  0  0  0  0  0  0  0  0
    2.6840   -2.0990    0.1960 C   0  0  0  0  0  0  0  0  0  0  0  0
    1.9390   -3.3780    0.5330 C   0  0  0  0  0  0  0  0  0  0  0  0
    2.5860   -4.4660    1.1600 N   0  0  0  0  0  0  0  0  0  0  0  0
    0.7250   -3.4500    0.2410 O   0  0  0  0  0  0  0  0  0  0  0  0
  1  2  1  0
  2  3  1  0
  3  4  2  0
  5  3  1  1
  5  6  1  0
  5 22  1  0
  6  7  1  0
  7  8  2  0
  7  9  1  0
  9 10  1  0
  9 22  2  0
 10 11  2  3
 11 12  1  0
 11 21  1  0
 12 13  1  0
 13 14  2  0
 13 15  1  0
 15 16  2  0
 15 21  1  0
 16 17  1  0
 16 18  1  0
 18 19  1  0
 19 20  1  0
 19 21  2  0
 22 23  1  0
 23 24  1  0
 24 25  1  0
 25 26  1  0
 25 27  2  0
M  END
