
     RDKit          3D

 27 29  0  0  0  0  0  0  0  0999 V2000
   -8.4620   -0.9020    0.4330 C   0  0  0  0  0  0  0  0  0  0  0  0
   -7.1360   -0.3810    0.6900 O   0  0  0  0  0  0  0  0  0  0  0  0
   -6.1040   -1.1150    0.2220 C   0  0  0  0  0  0  0  0  0  0  0  0
   -6.4690   -2.2440   -0.3160 O   0  0  0  0  0  0  0  0  0  0  0  0
   -4.7140   -0.8540    0.2040 C   0  0  0  0  0  0  0  0  0  0  0  0
   -4.0200    0.1300    0.6550 C   0  0  0  0  0  0  0  0  0  0  0  0
   -4.4640    1.3090    1.3780 C   0  0  0  0  0  0  0  0  0  0  0  0
   -3.4020    1.9280    2.1060 O   0  0  0  0  0  0  0  0  0  0  0  0
   -2.1190    2.0900    1.6040 C   0  0  0  0  0  0  0  0  0  0  0  0
   -1.3050    2.9360    1.9740 O   0  0  0  0  0  0  0  0  0  0  0  0
   -1.7500    1.1430    0.5170 C   0  0  0  0  0  0  0  0  0  0  0  0
   -2.6330    0.2310    0.0820 C   0  0  0  0  0  0  0  0  0  0  0  0
   -2.0710   -0.4790   -0.9370 N   0  0  0  0  0  0  0  0  0  0  0  0
   -0.7990    0.0280   -1.1380 C   0  0  0  0  0  0  0  0  0  0  0  0
   -0.0490   -0.3850   -2.3620 C   0  0  0  0  0  0  0  0  0  0  0  0
   -0.5830    1.0220   -0.2540 C   0  0  0  0  0  0  0  0  0  0  0  0
    0.4490    2.0200   -0.1410 C   0  0  0  0  0  0  0  0  0  0  0  0
    1.8280    1.6200   -0.0060 N   0  0  0  0  0  0  0  0  0  0  0  0
    2.4300    0.3850   -0.1280 C   0  0  0  0  0  0  0  0  0  0  0  0
    1.8330   -0.6330   -0.4400 O   0  0  0  0  0  0  0  0  0  0  0  0
    3.8440    0.1540    0.1250 N   0  0  0  0  0  0  0  0  0  0  0  0
    4.3440   -1.2100   -0.0320 C   0  0  1  0  0  0  0  0  0  0  0  0
    4.8830   -1.1530   -1.5250 C   0  0  0  0  0  0  0  0  0  0  0  0
    5.8250   -0.1830   -1.3140 O   0  0  0  0  0  0  0  0  0  0  0  0
    6.6000   -0.7180   -0.2710 C   0  0  1  0  0  0  0  0  0  0  0  0
    7.3240    0.2480    0.4850 N   0  0  0  0  0  0  0  0  0  0  0  0
    5.6030   -1.4540    0.6680 C   0  0  0  0  0  0  0  0  0  0  0  0
  1  2  1  0
  2  3  1  0
  3  4  2  0
  3  5  1  0
  5  6  2  3
  6  7  1  0
  6 12  1  0
  7  8  1  0
  8  9  1  0
  9 10  2  0
  9 11  1  0
 11 12  2  0
 11 16  1  0
 12 13  1  0
 13 14  1  0
 14 15  1  0
 14 16  2  0
 16 17  1  0
 17 18  1  0
 18 19  1  0
 19 20  2  0
 19 21  1  0
 22 21  1  1
 22 23  1  0
 22 27  1  0
 23 24  1  0
 24 25  1  0
 25 26  1  1
 25 27  1  0
M  END
