
     RDKit          3D

 27 29  0  0  0  0  0  0  0  0999 V2000
   -7.2120   -1.3190    0.7970 C   0  0  0  0  0  0  0  0  0  0  0  0
   -6.2740   -0.3370    1.2040 O   0  0  0  0  0  0  0  0  0  0  0  0
   -4.9270   -0.5330    0.9860 C   0  0  0  0  0  0  0  0  0  0  0  0
   -4.4350   -1.7340    1.3810 C   0  0  0  0  0  0  0  0  0  0  0  0
   -3.0350   -2.0610    1.2060 C   0  0  0  0  0  0  0  0  0  0  0  0
   -2.2090   -1.2070    0.6630 C   0  0  0  0  0  0  0  0  0  0  0  0
   -0.8170   -1.6700    0.5460 C   0  0  0  0  0  0  0  0  0  0  0  0
   -0.3950   -2.7620    0.9110 O   0  0  0  0  0  0  0  0  0  0  0  0
    0.1210   -0.8510   -0.0070 N   0  0  0  0  0  0  0  0  0  0  0  0
    1.4400   -0.7800   -0.3310 C   0  0  0  0  0  0  0  0  0  0  0  0
    1.5760    0.3790   -0.8470 O   0  0  0  0  0  0  0  0  0  0  0  0
    2.6100   -1.4940   -0.2940 N   0  0  0  0  0  0  0  0  0  0  0  0
    3.8610   -0.9670   -0.7940 C   0  0  2  0  0  0  0  0  0  0  0  0
    4.8170   -1.8150   -1.4810 C   0  0  0  0  0  0  0  0  0  0  0  0
    5.1020   -1.2730   -0.0710 C   0  0  1  0  0  0  0  0  0  0  0  0
    6.1920   -0.2820    0.1340 C   0  0  1  0  0  0  0  0  0  0  0  0
    6.7860    0.2540   -1.1610 C   0  0  0  0  0  0  0  0  0  0  0  0
    7.3640    1.5820   -0.6480 C   0  0  0  0  0  0  0  0  0  0  0  0
    6.2910    2.0500    0.1030 O   0  0  0  0  0  0  0  0  0  0  0  0
    5.7520    0.9970    0.8000 C   0  0  0  0  0  0  0  0  0  0  0  0
   -2.6570   -0.0010    0.2560 O   0  0  0  0  0  0  0  0  0  0  0  0
   -4.0400    0.4170    0.3890 C   0  0  0  0  0  0  0  0  0  0  0  0
   -4.3450    1.5960   -0.0360 C   0  0  0  0  0  0  0  0  0  0  0  0
   -5.2920    2.5450   -0.2200 N   0  0  0  0  0  0  0  0  0  0  0  0
   -6.6420    2.7200    0.0130 C   0  0  0  0  0  0  0  0  0  0  0  0
   -7.2860    3.9660   -0.3670 N   0  0  0  0  0  0  0  0  0  0  0  0
   -7.3470    1.8780    0.5290 O   0  0  0  0  0  0  0  0  0  0  0  0
  1  2  1  0
  2  3  1  0
  3  4  2  0
  3 22  1  0
  4  5  1  0
  5  6  2  0
  6  7  1  0
  6 21  1  0
  7  8  2  0
  7  9  1  0
  9 10  1  0
 10 11  2  0
 10 12  1  0
 13 12  1  1
 13 14  1  0
 13 15  1  0
 15 14  1  6
 15 16  1  0
 16 17  1  6
 16 20  1  0
 17 18  1  0
 18 19  1  0
 19 20  1  0
 21 22  1  0
 22 23  2  3
 23 24  1  0
 24 25  1  0
 25 26  1  0
 25 27  2  0
M  END
