
     RDKit          3D

 27 29  0  0  0  0  0  0  0  0999 V2000
    3.8890    0.8520    0.2530 C   0  0  0  0  0  0  0  0  0  0  0  0
    2.9970    0.2240    1.2760 C   0  0  0  0  0  0  0  0  0  0  0  0
    2.7990   -1.2410    1.1570 C   0  0  0  0  0  0  0  0  0  0  0  0
    2.1650   -1.8020   -0.0370 C   0  0  2  0  0  0  0  0  0  0  0  0
    2.1590   -3.3370    0.1390 C   0  0  0  0  0  0  0  0  0  0  0  0
    2.6910   -1.4450   -1.3230 N   0  0  0  0  0  0  0  0  0  0  0  0
    1.9300   -0.3000   -1.7540 C   0  0  0  0  0  0  0  0  0  0  0  0
    2.4270    0.4670   -2.6120 O   0  0  0  0  0  0  0  0  0  0  0  0
    0.6590   -0.2520   -1.0620 N   0  0  0  0  0  0  0  0  0  0  0  0
   -0.3820    0.6720   -1.4110 C   0  0  0  0  0  0  0  0  0  0  0  0
   -1.3120    1.0310   -0.5660 C   0  0  0  0  0  0  0  0  0  0  0  0
   -1.1650    0.3990    0.7410 N   0  0  0  0  0  0  0  0  0  0  0  0
   -2.1830   -0.0780    1.6180 C   0  0  0  0  0  0  0  0  0  0  0  0
   -1.7760   -0.7340    2.8390 C   0  0  0  0  0  0  0  0  0  0  0  0
   -2.5930   -1.1900    3.6760 O   0  0  0  0  0  0  0  0  0  0  0  0
   -0.4250   -0.8910    3.1470 O   0  0  0  0  0  0  0  0  0  0  0  0
   -3.4840    0.0440    1.4030 C   0  0  0  0  0  0  0  0  0  0  0  0
   -4.1570    0.6910    0.2290 C   0  0  0  0  0  0  0  0  0  0  0  0
   -3.5460    2.0460   -0.0340 C   0  0  0  0  0  0  0  0  0  0  0  0
   -2.3250    2.0420   -0.8990 C   0  0  2  0  0  0  0  0  0  0  0  0
   -2.5910    2.1500   -2.3130 C   0  0  0  0  0  0  0  0  0  0  0  0
   -3.7080    2.5560   -2.7220 O   0  0  0  0  0  0  0  0  0  0  0  0
   -1.6100    1.8050   -3.2530 N   0  0  0  0  0  0  0  0  0  0  0  0
   -0.4810    1.0580   -2.8510 C   0  0  0  0  0  0  0  0  0  0  0  0
    0.3770    0.7480   -3.6920 O   0  0  0  0  0  0  0  0  0  0  0  0
    0.7100   -1.3920   -0.2320 C   0  0  0  0  0  0  0  0  0  0  0  0
   -0.2360   -2.0270    0.2890 O   0  0  0  0  0  0  0  0  0  0  0  0
  1  2  1  0
  2  3  1  0
  3  4  1  0
  4  5  1  1
  4  6  1  0
  4 26  1  0
  6  7  1  0
  7  8  2  0
  7  9  1  0
  9 10  1  0
  9 26  1  0
 10 11  2  0
 10 24  1  0
 11 12  1  0
 11 20  1  0
 12 13  1  0
 13 14  1  0
 13 17  2  0
 14 15  2  0
 14 16  1  0
 17 18  1  0
 18 19  1  0
 20 19  1  1
 20 21  1  0
 21 22  2  0
 21 23  1  0
 23 24  1  0
 24 25  2  0
 26 27  2  0
M  END
