
     RDKit          3D

 27 28  0  0  0  0  0  0  0  0999 V2000
    4.9610   -2.6760    0.9720 C   0  0  0  0  0  0  0  0  0  0  0  0
    4.0770   -1.5980    1.2180 O   0  0  0  0  0  0  0  0  0  0  0  0
    3.0320   -1.3140    0.3210 C   0  0  0  0  0  0  0  0  0  0  0  0
    1.9780   -2.0670    0.3690 C   0  0  0  0  0  0  0  0  0  0  0  0
    0.7190   -2.0980   -0.3750 C   0  0  0  0  0  0  0  0  0  0  0  0
   -0.5690   -1.9380    0.4060 C   0  0  1  0  0  0  0  0  0  0  0  0
   -0.2610   -2.0080    1.8110 N   0  0  0  0  0  0  0  0  0  0  0  0
   -1.3600   -0.8790    0.0580 O   0  0  0  0  0  0  0  0  0  0  0  0
   -2.2960    0.0130    0.0810 C   0  0  0  0  0  0  0  0  0  0  0  0
   -3.3220   -0.1290   -0.8220 C   0  0  0  0  0  0  0  0  0  0  0  0
   -3.4330   -1.1930   -1.7980 C   0  0  0  0  0  0  0  0  0  0  0  0
   -2.5940   -2.1190   -1.9320 O   0  0  0  0  0  0  0  0  0  0  0  0
   -4.4540    0.8520   -0.8140 C   0  0  0  0  0  0  0  0  0  0  0  0
   -3.9220    2.2350   -0.9980 C   0  0  0  0  0  0  0  0  0  0  0  0
   -2.6320    2.3320   -0.2390 C   0  0  0  0  0  0  0  0  0  0  0  0
   -2.5840    1.2300    0.8610 C   0  0  2  0  0  0  0  0  0  0  0  0
   -1.7960    1.7920    1.8610 N   0  0  0  0  0  0  0  0  0  0  0  0
   -0.3910    1.8180    2.0680 C   0  0  0  0  0  0  0  0  0  0  0  0
    0.0090    2.5800    3.0420 O   0  0  0  0  0  0  0  0  0  0  0  0
    0.7040    1.1210    1.3630 C   0  0  0  0  0  0  0  0  0  0  0  0
    1.3370    0.4430    2.3010 O   0  0  0  0  0  0  0  0  0  0  0  0
    1.1900    1.0060    0.0790 N   0  0  0  0  0  0  0  0  0  0  0  0
    2.4100    0.8780   -0.6570 C   0  0  0  0  0  0  0  0  0  0  0  0
    2.7220    1.9100   -1.6370 C   0  0  0  0  0  0  0  0  0  0  0  0
    3.9540    1.8010   -2.3770 N   0  0  0  0  0  0  0  0  0  0  0  0
    1.9730    2.9010   -1.8770 O   0  0  0  0  0  0  0  0  0  0  0  0
    3.2880   -0.1570   -0.5840 C   0  0  0  0  0  0  0  0  0  0  0  0
  1  2  1  0
  2  3  1  0
  3  4  2  0
  3 27  1  0
  4  5  1  0
  5  6  1  0
  6  7  1  1
  6  8  1  0
  8  9  1  0
  9 10  2  0
  9 16  1  0
 10 11  1  0
 10 13  1  0
 11 12  2  0
 13 14  1  0
 14 15  1  0
 16 15  1  6
 16 17  1  0
 17 18  1  0
 18 19  2  0
 18 20  1  0
 20 21  2  0
 20 22  1  0
 22 23  1  0
 23 24  1  0
 23 27  2  0
 24 25  1  0
 24 26  2  0
M  END
