
     RDKit          3D

 38 42  0  0  0  0  0  0  0  0999 V2000
    8.2430    2.3300   -2.0490 C   0  0  0  0  0  0  0  0  0  0  0  0
    7.0590    1.6960   -1.6140 O   0  0  0  0  0  0  0  0  0  0  0  0
    6.9610    0.3140   -1.4630 C   0  0  0  0  0  0  0  0  0  0  0  0
    8.0680   -0.4230   -1.7560 C   0  0  0  0  0  0  0  0  0  0  0  0
    8.0480   -1.7970   -1.6300 C   0  0  0  0  0  0  0  0  0  0  0  0
    6.8750   -2.3600   -1.2050 C   0  0  0  0  0  0  0  0  0  0  0  0
    5.7350   -1.6000   -0.9050 C   0  0  0  0  0  0  0  0  0  0  0  0
    5.7450   -0.2430   -1.0250 C   0  0  0  0  0  0  0  0  0  0  0  0
    4.6790    0.6320   -0.7580 N   0  0  0  0  0  0  0  0  0  0  0  0
    3.3950    0.2800   -0.3140 C   0  0  0  0  0  0  0  0  0  0  0  0
    3.1210   -0.9210   -0.1220 O   0  0  0  0  0  0  0  0  0  0  0  0
    2.3520    1.3510   -0.0710 C   0  0  0  0  0  0  0  0  0  0  0  0
    1.1580    0.8240    0.3640 O   0  0  0  0  0  0  0  0  0  0  0  0
    0.3840   -0.0810   -0.3210 C   0  0  0  0  0  0  0  0  0  0  0  0
    0.8060   -0.4770   -1.4490 O   0  0  0  0  0  0  0  0  0  0  0  0
   -0.8710   -0.6000    0.1600 C   0  0  0  0  0  0  0  0  0  0  0  0
   -0.7560   -1.8290    0.8410 C   0  0  0  0  0  0  0  0  0  0  0  0
    0.5650   -2.4980    0.9750 C   0  0  0  0  0  0  0  0  0  0  0  0
    0.3530   -4.0170    1.8640 Cl  0  0  0  0  0  0  0  0  0  0  0  0
   -1.8510   -2.3840    1.3640 N   0  0  0  0  0  0  0  0  0  0  0  0
   -3.0630   -1.8520    1.2860 C   0  0  0  0  0  0  0  0  0  0  0  0
   -4.1810   -2.5170    1.8740 N   0  0  0  0  0  0  0  0  0  0  0  0
   -4.6320   -2.3200    3.2270 C   0  0  0  0  0  0  0  0  0  0  0  0
   -5.7040   -3.3630    3.4640 C   0  0  0  0  0  0  0  0  0  0  0  0
   -6.2280   -3.6460    2.0880 C   0  0  0  0  0  0  0  0  0  0  0  0
   -5.0190   -3.4830    1.2000 C   0  0  0  0  0  0  0  0  0  0  0  0
   -3.1810   -0.6890    0.6450 N   0  0  0  0  0  0  0  0  0  0  0  0
   -2.1140   -0.0380    0.0750 C   0  0  0  0  0  0  0  0  0  0  0  0
   -2.3440    1.2930   -0.4880 C   0  0  0  0  0  0  0  0  0  0  0  0
   -1.5110    1.9120   -1.3570 C   0  0  0  0  0  0  0  0  0  0  0  0
   -1.7850    3.2180   -1.7790 C   0  0  0  0  0  0  0  0  0  0  0  0
   -2.8950    3.8740   -1.3180 C   0  0  0  0  0  0  0  0  0  0  0  0
   -3.7660    3.2740   -0.4340 C   0  0  0  0  0  0  0  0  0  0  0  0
   -3.4750    1.9900   -0.0320 C   0  0  0  0  0  0  0  0  0  0  0  0
   -4.8290    4.2330   -0.1470 C   0  0  0  0  0  0  0  0  0  0  0  0
   -5.6990    4.0990    0.7520 O   0  0  0  0  0  0  0  0  0  0  0  0
   -4.6940    5.3780   -1.1020 C   0  0  0  0  0  0  0  0  0  0  0  0
   -3.3530    5.2060   -1.6260 N   0  0  0  0  0  0  0  0  0  0  0  0
  1  2  1  0
  2  3  1  0
  3  4  2  0
  3  8  1  0
  4  5  1  0
  5  6  2  0
  6  7  1  0
  7  8  2  0
  8  9  1  0
  9 10  1  0
 10 11  2  0
 10 12  1  0
 12 13  1  0
 13 14  1  0
 14 15  2  0
 14 16  1  0
 16 17  2  0
 16 28  1  0
 17 18  1  0
 17 20  1  0
 18 19  1  0
 20 21  2  0
 21 22  1  0
 21 27  1  0
 22 23  1  0
 22 26  1  0
 23 24  1  0
 24 25  1  0
 25 26  1  0
 27 28  2  0
 28 29  1  0
 29 30  2  0
 29 34  1  0
 30 31  1  0
 31 32  2  0
 32 33  1  0
 32 38  1  0
 33 34  2  0
 33 35  1  0
 35 36  2  0
 35 37  1  0
 37 38  1  0
M  CHG  2  20   1  27   1
M  END
