
     RDKit          3D

 38 41  0  0  0  0  0  0  0  0999 V2000
   -3.3200    3.6980   -1.4950 C   0  0  0  0  0  0  0  0  0  0  0  0
   -4.1100    2.7050   -0.6600 C   0  0  1  0  0  0  0  0  0  0  0  0
   -5.3010    2.1490   -1.3680 C   0  0  0  0  0  0  0  0  0  0  0  0
   -3.2480    1.6970    0.0490 C   0  0  0  0  0  0  0  0  0  0  0  0
   -2.4270    0.8680   -0.7060 N   0  0  0  0  0  0  0  0  0  0  0  0
   -1.0450    1.1480   -0.7720 C   0  0  0  0  0  0  0  0  0  0  0  0
   -0.2750    0.9700    0.4860 C   0  0  1  0  0  0  0  0  0  0  0  0
   -0.3870   -0.3530    0.9020 O   0  0  0  0  0  0  0  0  0  0  0  0
    1.2000    1.2290    0.3400 C   0  0  2  0  0  0  0  0  0  0  0  0
    1.5820    2.6450    0.1090 C   0  0  0  0  0  0  0  0  0  0  0  0
    1.1590    3.5470    1.2130 C   0  0  0  0  0  0  0  0  0  0  0  0
   -0.0710    4.1790    1.2380 C   0  0  0  0  0  0  0  0  0  0  0  0
   -0.4210    5.0030    2.2730 C   0  0  0  0  0  0  0  0  0  0  0  0
    0.4440    5.2430    3.3460 C   0  0  0  0  0  0  0  0  0  0  0  0
    1.6580    4.6260    3.3310 C   0  0  0  0  0  0  0  0  0  0  0  0
    1.9980    3.8080    2.2990 C   0  0  0  0  0  0  0  0  0  0  0  0
    1.8130    0.3420   -0.6350 N   0  0  0  0  0  0  0  0  0  0  0  0
    2.7010   -0.6900   -0.3060 C   0  0  0  0  0  0  0  0  0  0  0  0
    2.9870   -0.8610    0.9210 O   0  0  0  0  0  0  0  0  0  0  0  0
    3.3050   -1.5570   -1.2110 O   0  0  0  0  0  0  0  0  0  0  0  0
    4.1810   -2.5660   -0.7820 C   0  0  1  0  0  0  0  0  0  0  0  0
    3.7510   -3.9410   -1.2300 C   0  0  0  0  0  0  0  0  0  0  0  0
    4.8640   -4.7050   -1.4280 O   0  0  0  0  0  0  0  0  0  0  0  0
    5.9910   -3.9510   -1.2310 C   0  0  1  0  0  0  0  0  0  0  0  0
    6.9660   -4.0850   -2.2090 O   0  0  0  0  0  0  0  0  0  0  0  0
    6.5020   -3.4290   -3.3380 C   0  0  0  0  0  0  0  0  0  0  0  0
    5.5530   -2.3530   -2.8880 C   0  0  0  0  0  0  0  0  0  0  0  0
    5.5610   -2.4850   -1.3940 C   0  0  1  0  0  0  0  0  0  0  0  0
   -2.9530   -0.6380   -1.2100 S   0  0  2  0  0  0  0  0  0  0  0  0
   -1.8540   -1.2150   -2.1230 O   0  0  0  0  0  0  0  0  0  0  0  0
   -4.1430   -0.4990   -2.1150 O   0  0  0  0  0  0  0  0  0  0  0  0
   -3.3660   -1.7760    0.0170 C   0  0  0  0  0  0  0  0  0  0  0  0
   -2.4630   -2.7260    0.4190 C   0  0  0  0  0  0  0  0  0  0  0  0
   -2.7970   -3.6450    1.4100 C   0  0  0  0  0  0  0  0  0  0  0  0
   -4.0350   -3.6400    2.0200 C   0  0  0  0  0  0  0  0  0  0  0  0
   -4.3310   -4.5930    3.0160 N   0  0  0  0  0  0  0  0  0  0  0  0
   -4.9400   -2.6680    1.6000 C   0  0  0  0  0  0  0  0  0  0  0  0
   -4.6050   -1.7550    0.6150 C   0  0  0  0  0  0  0  0  0  0  0  0
  2  1  1  6
  2  3  1  0
  2  4  1  0
  4  5  1  0
  5  6  1  0
 29  5  1  1
  6  7  1  0
  7  8  1  6
  7  9  1  0
  9 10  1  6
  9 17  1  0
 10 11  1  0
 11 12  2  0
 11 16  1  0
 12 13  1  0
 13 14  2  0
 14 15  1  0
 15 16  2  0
 17 18  1  0
 18 19  2  0
 18 20  1  0
 21 20  1  6
 21 22  1  0
 21 28  1  0
 22 23  1  0
 24 23  1  6
 24 25  1  0
 24 28  1  0
 25 26  1  0
 26 27  1  0
 28 27  1  6
 29 30  2  0
 29 31  2  0
 29 32  1  0
 32 33  2  0
 32 38  1  0
 33 34  1  0
 34 35  2  0
 35 36  1  0
 35 37  1  0
 37 38  2  0
M  END
