
     RDKit          3D

 38 42  0  0  0  0  0  0  0  0999 V2000
   -8.1770   -3.4300    2.3650 C   0  0  0  0  0  0  0  0  0  0  0  0
   -6.8530   -3.4860    2.0480 O   0  0  0  0  0  0  0  0  0  0  0  0
   -6.3180   -2.6450    1.1630 C   0  0  2  0  0  0  0  0  0  0  0  0
   -5.8470   -3.3790   -0.0920 C   0  0  0  0  0  0  0  0  0  0  0  0
   -5.1650   -1.7690    1.6860 C   0  0  0  0  0  0  0  0  0  0  0  0
   -4.6220   -1.1870    0.5460 O   0  0  0  0  0  0  0  0  0  0  0  0
   -3.5430   -0.3870    0.3830 C   0  0  0  0  0  0  0  0  0  0  0  0
   -2.8840   -0.0540    1.3760 O   0  0  0  0  0  0  0  0  0  0  0  0
   -3.1120    0.0950   -0.9720 C   0  0  0  0  0  0  0  0  0  0  0  0
   -1.7800    0.6820   -0.9370 N   0  0  0  0  0  0  0  0  0  0  0  0
   -0.7030   -0.1060   -0.9200 C   0  0  0  0  0  0  0  0  0  0  0  0
   -0.8490   -1.3510   -0.8820 O   0  0  0  0  0  0  0  0  0  0  0  0
    0.6110    0.4350   -0.9430 C   0  0  0  0  0  0  0  0  0  0  0  0
    1.6910   -0.5340   -0.9860 C   0  0  0  0  0  0  0  0  0  0  0  0
    2.4900   -0.8390    0.1490 N   0  0  2  0  0  0  0  0  0  0  0  0
    3.3720   -0.0490    0.7990 C   0  0  0  0  0  0  0  0  0  0  0  0
    4.8140   -0.5480    0.9920 C   0  0  0  0  0  0  0  0  0  0  0  0
    4.6860   -1.8400    1.6280 N   0  0  0  0  0  0  0  0  0  0  0  0
    6.0430   -2.3690    1.7490 C   0  0  0  0  0  0  0  0  0  0  0  0
    6.4520   -2.6370    0.3970 N   0  0  0  0  0  0  0  0  0  0  0  0
    5.2570   -2.7530   -0.4090 C   0  0  0  0  0  0  0  0  0  0  0  0
    4.1200   -2.6980    0.6210 C   0  0  1  0  0  0  0  0  0  0  0  0
    4.0550   -4.1020    1.1970 C   0  0  0  0  0  0  0  0  0  0  0  0
    2.8720   -2.2710    0.0320 C   0  0  0  0  0  0  0  0  0  0  0  0
    0.6710    1.7950   -0.9950 C   0  0  0  0  0  0  0  0  0  0  0  0
    1.9290    2.3950   -1.1470 C   0  0  0  0  0  0  0  0  0  0  0  0
    2.0770    3.7410   -1.3040 C   0  0  0  0  0  0  0  0  0  0  0  0
    0.9230    4.4860   -1.3100 C   0  0  0  0  0  0  0  0  0  0  0  0
    1.0730    5.8480   -1.4980 C   0  0  0  0  0  0  0  0  0  0  0  0
   -0.0390    6.6600   -1.5490 C   0  0  0  0  0  0  0  0  0  0  0  0
    0.1800    8.3840   -1.7900 Cl  0  0  0  0  0  0  0  0  0  0  0  0
   -1.2770    6.0950   -1.4110 C   0  0  0  0  0  0  0  0  0  0  0  0
   -2.4980    6.9340   -1.4920 C   0  0  0  0  0  0  0  0  0  0  0  0
   -1.4530    4.7190   -1.2160 C   0  0  0  0  0  0  0  0  0  0  0  0
   -0.3440    3.9180   -1.1660 C   0  0  0  0  0  0  0  0  0  0  0  0
   -0.4570    2.5800   -1.0110 N   0  0  0  0  0  0  0  0  0  0  0  0
   -1.6760    2.0190   -0.9780 C   0  0  0  0  0  0  0  0  0  0  0  0
   -2.7330    2.6490   -0.9780 O   0  0  0  0  0  0  0  0  0  0  0  0
  1  2  1  0
  2  3  1  0
  3  4  1  6
  3  5  1  0
  5  6  1  0
  6  7  1  0
  7  8  2  0
  7  9  1  0
  9 10  1  0
 10 11  1  0
 10 37  1  0
 11 12  2  0
 11 13  1  0
 13 14  1  0
 13 25  2  0
 15 14  1  6
 15 16  1  0
 15 24  1  0
 16 17  1  0
 17 18  1  0
 18 19  1  0
 18 22  1  0
 19 20  1  0
 20 21  1  0
 21 22  1  0
 22 23  1  1
 22 24  1  0
 25 26  1  0
 25 36  1  0
 26 27  2  0
 27 28  1  0
 28 29  2  0
 28 35  1  0
 29 30  1  0
 30 31  1  0
 30 32  2  0
 32 33  1  0
 32 34  1  0
 34 35  2  0
 35 36  1  0
 36 37  1  0
 37 38  2  0
M  CHG  2  15   1  20   1
M  END
