
     RDKit          3D

 38 42  0  0  0  0  0  0  0  0999 V2000
   -6.7300   -1.4150    2.1750 C   0  0  0  0  0  0  0  0  0  0  0  0
   -5.3850   -0.8790    1.8430 C   0  0  0  0  0  0  0  0  0  0  0  0
   -4.2960   -1.4310    2.4970 C   0  0  0  0  0  0  0  0  0  0  0  0
   -3.0150   -1.0050    2.2550 C   0  0  0  0  0  0  0  0  0  0  0  0
   -2.8260   -0.0030    1.3370 C   0  0  0  0  0  0  0  0  0  0  0  0
   -3.8750    0.5490    0.6870 C   0  0  0  0  0  0  0  0  0  0  0  0
   -3.7600    1.6360   -0.2940 C   0  0  0  0  0  0  0  0  0  0  0  0
   -2.5180    2.1080   -0.6280 O   0  0  0  0  0  0  0  0  0  0  0  0
   -1.4600    1.4510   -1.2160 C   0  0  0  0  0  0  0  0  0  0  0  0
   -1.6170    0.2320   -1.4950 O   0  0  0  0  0  0  0  0  0  0  0  0
   -0.1750    2.0890   -1.5350 C   0  0  0  0  0  0  0  0  0  0  0  0
    0.8130    1.2830   -2.0530 O   0  0  0  0  0  0  0  0  0  0  0  0
    1.4990    0.2500   -1.4620 C   0  0  0  0  0  0  0  0  0  0  0  0
    1.2110   -0.0160   -0.2690 O   0  0  0  0  0  0  0  0  0  0  0  0
    2.5530   -0.5250   -2.1980 C   0  0  0  0  0  0  0  0  0  0  0  0
    3.4180   -1.2620   -1.2560 N   0  0  1  0  0  0  0  0  0  0  0  0
    3.7160   -2.5900   -1.6780 C   0  0  0  0  0  0  0  0  0  0  0  0
    4.5710   -0.4630   -0.9830 C   0  0  0  0  0  0  0  0  0  0  0  0
    4.7570    0.7830   -1.5200 N   0  0  0  0  0  0  0  0  0  0  0  0
    5.8940    1.2630   -1.1010 N   0  0  0  0  0  0  0  0  0  0  0  0
    6.4880    0.3850   -0.2950 C   0  0  0  0  0  0  0  0  0  0  0  0
    5.6500   -0.6860   -0.2320 N   0  0  0  0  0  0  0  0  0  0  0  0
    6.2790   -1.6150    0.6170 C   0  0  0  0  0  0  0  0  0  0  0  0
    5.8140   -2.7410    0.9260 O   0  0  0  0  0  0  0  0  0  0  0  0
    7.5590   -1.1130    1.1050 C   0  0  0  0  0  0  0  0  0  0  0  0
    8.5570   -1.5840    1.9280 C   0  0  0  0  0  0  0  0  0  0  0  0
    9.6800   -0.8190    2.1850 C   0  0  0  0  0  0  0  0  0  0  0  0
    9.8090    0.4310    1.6160 C   0  0  0  0  0  0  0  0  0  0  0  0
    8.8000    0.8820    0.7980 C   0  0  0  0  0  0  0  0  0  0  0  0
    7.6670    0.1520    0.5150 C   0  0  0  0  0  0  0  0  0  0  0  0
   -5.1890    0.1140    0.9330 C   0  0  0  0  0  0  0  0  0  0  0  0
   -6.2950    0.7200    0.2310 C   0  0  0  0  0  0  0  0  0  0  0  0
   -7.0010    1.7960    0.7600 C   0  0  0  0  0  0  0  0  0  0  0  0
   -8.0550    2.3740    0.0980 C   0  0  0  0  0  0  0  0  0  0  0  0
   -8.4070    1.8690   -1.1090 N   0  0  0  0  0  0  0  0  0  0  0  0
   -7.7690    0.8350   -1.6720 C   0  0  0  0  0  0  0  0  0  0  0  0
   -8.2440    0.2020   -3.2280 Cl  0  0  0  0  0  0  0  0  0  0  0  0
   -6.7020    0.2490   -1.0040 C   0  0  0  0  0  0  0  0  0  0  0  0
  1  2  1  0
  2  3  2  0
  2 31  1  0
  3  4  1  0
  4  5  2  0
  5  6  1  0
  6  7  1  0
  6 31  2  0
  7  8  1  0
  8  9  1  0
  9 10  2  0
  9 11  1  0
 11 12  1  0
 12 13  1  0
 13 14  2  0
 13 15  1  0
 15 16  1  0
 16 17  1  6
 16 18  1  0
 18 19  2  0
 18 22  1  0
 19 20  1  0
 20 21  2  0
 21 22  1  0
 21 30  1  0
 22 23  1  0
 23 24  2  0
 23 25  1  0
 25 26  2  0
 25 30  1  0
 26 27  1  0
 27 28  2  0
 28 29  1  0
 29 30  2  0
 31 32  1  0
 32 33  2  0
 32 38  1  0
 33 34  1  0
 34 35  2  0
 35 36  1  0
 36 37  1  0
 36 38  2  0
M  CHG  2  16   1  35   1
M  END
