
     RDKit          3D

 38 42  0  0  0  0  0  0  0  0999 V2000
    9.3080   -1.1700    0.1450 C   0  0  0  0  0  0  0  0  0  0  0  0
    8.4210   -2.4050    0.1660 C   0  0  0  0  0  0  0  0  0  0  0  0
    7.0490   -2.0880   -0.3640 C   0  0  0  0  0  0  0  0  0  0  0  0
    6.0840   -1.6610    0.4700 N   0  0  0  0  0  0  0  0  0  0  0  0
    4.8250   -1.3640    0.0220 C   0  0  0  0  0  0  0  0  0  0  0  0
    4.5650   -1.5150   -1.3230 C   0  0  0  0  0  0  0  0  0  0  0  0
    5.5700   -1.9510   -2.1410 C   0  0  0  0  0  0  0  0  0  0  0  0
    5.3380   -2.0930   -3.3800 O   0  0  0  0  0  0  0  0  0  0  0  0
    6.7740   -2.2220   -1.6370 O   0  0  0  0  0  0  0  0  0  0  0  0
    3.1750   -1.1750   -1.8220 C   0  0  0  0  0  0  0  0  0  0  0  0
    2.7940    0.0190   -0.9240 C   0  0  0  0  0  0  0  0  0  0  0  0
    2.5770   -0.4530    0.4270 N   0  0  2  0  0  0  0  0  0  0  0  0
    2.0840    0.7000    1.1620 C   0  0  0  0  0  0  0  0  0  0  0  0
    0.6630    1.0040    0.9160 C   0  0  0  0  0  0  0  0  0  0  0  0
   -0.2350    0.3990    0.1400 N   0  0  0  0  0  0  0  0  0  0  0  0
   -1.4290    0.9900    0.1900 C   0  0  0  0  0  0  0  0  0  0  0  0
   -2.6660    0.5660   -0.5520 C   0  0  2  0  0  0  0  0  0  0  0  0
   -2.8990    1.5960   -1.6590 C   0  0  0  0  0  0  0  0  0  0  0  0
   -3.6950    2.7710   -1.1230 C   0  0  0  0  0  0  0  0  0  0  0  0
   -5.1350    2.2910   -0.9360 C   0  0  0  0  0  0  0  0  0  0  0  0
   -5.0140    0.8900   -0.4780 N   0  0  0  0  0  0  0  0  0  0  0  0
   -6.0060   -0.0010   -0.8760 C   0  0  0  0  0  0  0  0  0  0  0  0
   -6.9990    0.3900   -1.6010 O   0  0  0  0  0  0  0  0  0  0  0  0
   -5.9970   -1.3980   -0.5130 C   0  0  0  0  0  0  0  0  0  0  0  0
   -5.1030   -2.0550    0.1840 O   0  0  0  0  0  0  0  0  0  0  0  0
   -5.4060   -3.3090    0.3260 C   0  0  0  0  0  0  0  0  0  0  0  0
   -6.5950   -3.5520   -0.3130 C   0  0  0  0  0  0  0  0  0  0  0  0
   -6.9770   -2.3460   -0.8480 C   0  0  0  0  0  0  0  0  0  0  0  0
   -8.1900   -2.0310   -1.6390 C   0  0  0  0  0  0  0  0  0  0  0  0
   -3.8780    0.6230    0.3430 C   0  0  0  0  0  0  0  0  0  0  0  0
   -1.2790    2.0150    1.0370 N   0  0  0  0  0  0  0  0  0  0  0  0
   -0.0220    2.0780    1.5160 C   0  0  0  0  0  0  0  0  0  0  0  0
    0.5640    3.0180    2.4460 C   0  0  0  0  0  0  0  0  0  0  0  0
   -0.0070    4.0020    3.0340 C   0  0  0  0  0  0  0  0  0  0  0  0
   -1.3560    4.4320    2.9340 C   0  0  0  0  0  0  0  0  0  0  0  0
   -2.2740    3.9340    2.2420 O   0  0  0  0  0  0  0  0  0  0  0  0
   -1.8920    5.8550    3.8820 Cl  0  0  0  0  0  0  0  0  0  0  0  0
    3.8130   -0.9010    0.9930 C   0  0  0  0  0  0  0  0  0  0  0  0
  1  2  1  0
  2  3  1  0
  3  4  2  0
  3  9  1  0
  4  5  1  0
  5  6  2  0
  5 38  1  0
  6  7  1  0
  6 10  1  0
  7  8  2  0
  7  9  1  0
 10 11  1  0
 11 12  1  0
 12 13  1  1
 12 38  1  0
 13 14  1  0
 14 15  1  0
 14 32  2  0
 15 16  1  0
 17 16  1  1
 16 31  2  0
 17 18  1  0
 17 30  1  0
 18 19  1  0
 19 20  1  0
 20 21  1  0
 21 22  1  0
 21 30  1  0
 22 23  2  0
 22 24  1  0
 24 25  1  0
 24 28  2  0
 25 26  1  0
 26 27  2  0
 27 28  1  0
 28 29  1  0
 31 32  1  0
 32 33  1  0
 33 34  2  3
 34 35  1  0
 35 36  2  0
 35 37  1  0
M  CHG  2   4   1  12   1
M  END
