
     RDKit          3D

 37 42  0  0  0  0  0  0  0  0999 V2000
    7.5000   -1.2770   -0.6910 C   0  0  0  0  0  0  0  0  0  0  0  0
    7.3450   -0.9250   -2.0710 N   0  0  0  0  0  0  0  0  0  0  0  0
    7.6070    0.4520   -2.3620 C   0  0  0  0  0  0  0  0  0  0  0  0
    6.3960    1.3370   -2.1640 C   0  0  0  0  0  0  0  0  0  0  0  0
    5.8760    1.3150   -0.7790 C   0  0  0  0  0  0  0  0  0  0  0  0
    6.3680    2.2210    0.1360 C   0  0  0  0  0  0  0  0  0  0  0  0
    5.8930    2.2120    1.4220 C   0  0  0  0  0  0  0  0  0  0  0  0
    4.9340    1.3100    1.7980 C   0  0  0  0  0  0  0  0  0  0  0  0
    4.4470    0.4070    0.8750 C   0  0  0  0  0  0  0  0  0  0  0  0
    3.4800   -0.5100    1.2380 O   0  0  0  0  0  0  0  0  0  0  0  0
    2.1460   -0.1720    1.1010 C   0  0  0  0  0  0  0  0  0  0  0  0
    1.8010    1.0710    0.6070 C   0  0  0  0  0  0  0  0  0  0  0  0
    0.4560    1.3730    0.4840 C   0  0  0  0  0  0  0  0  0  0  0  0
   -0.5060    0.4560    0.8460 C   0  0  0  0  0  0  0  0  0  0  0  0
   -0.1700   -0.8090    1.3490 C   0  0  0  0  0  0  0  0  0  0  0  0
    1.1710   -1.0940    1.4650 C   0  0  0  0  0  0  0  0  0  0  0  0
    1.5270   -2.3400    1.9600 O   0  0  0  0  0  0  0  0  0  0  0  0
    1.6930   -3.3810    1.0000 C   0  0  0  0  0  0  0  0  0  0  0  0
    2.6920   -3.0590    0.0820 O   0  0  0  0  0  0  0  0  0  0  0  0
   -1.1700   -1.7310    1.7120 O   0  0  0  0  0  0  0  0  0  0  0  0
   -2.5370   -1.4030    1.5810 C   0  0  0  0  0  0  0  0  0  0  0  0
   -3.6640   -1.9510    1.7910 N   0  0  0  0  0  0  0  0  0  0  0  0
   -4.7450   -1.1050    1.4470 N   0  0  0  0  0  0  0  0  0  0  0  0
   -6.0940   -1.6500    1.6160 C   0  0  0  0  0  0  0  0  0  0  0  0
   -7.1220   -0.7060    1.0810 C   0  0  0  0  0  0  0  0  0  0  0  0
   -7.2710   -0.7580   -0.3410 N   0  0  1  0  0  0  0  0  0  0  0  0
   -8.6780   -0.8440   -0.6670 C   0  0  0  0  0  0  0  0  0  0  0  0
   -6.7730    0.4530   -0.9930 C   0  0  0  0  0  0  0  0  0  0  0  0
   -5.3190    0.2820   -1.4260 C   0  0  0  0  0  0  0  0  0  0  0  0
   -4.4780    0.5850   -0.3270 N   0  0  0  0  0  0  0  0  0  0  0  0
   -3.6200    1.6960   -0.7170 C   0  0  0  0  0  0  0  0  0  0  0  0
   -3.8460    2.3480   -1.7380 O   0  0  0  0  0  0  0  0  0  0  0  0
   -2.4240    2.0710    0.1340 C   0  0  0  0  0  0  0  0  0  0  0  0
   -1.8850    0.8050    0.7100 C   0  0  0  0  0  0  0  0  0  0  0  0
   -2.7790   -0.0960    1.0690 C   0  0  0  0  0  0  0  0  0  0  0  0
   -4.2470    0.1260    0.9990 C   0  0  2  0  0  0  0  0  0  0  0  0
    4.9150    0.4040   -0.4170 C   0  0  0  0  0  0  0  0  0  0  0  0
  1  2  1  0
  2  3  1  0
  3  4  1  0
  4  5  1  0
  5  6  2  0
  5 37  1  0
  6  7  1  0
  7  8  2  0
  8  9  1  0
  9 10  1  0
  9 37  2  0
 10 11  1  0
 11 12  2  0
 11 16  1  0
 12 13  1  0
 13 14  2  0
 14 15  1  0
 14 34  1  0
 15 16  2  0
 15 20  1  0
 16 17  1  0
 17 18  1  0
 18 19  1  0
 20 21  1  0
 21 22  2  0
 21 35  1  0
 22 23  1  0
 23 24  1  0
 36 23  1  6
 24 25  1  0
 25 26  1  0
 26 27  1  1
 26 28  1  0
 28 29  1  0
 29 30  1  0
 30 31  1  0
 30 36  1  0
 31 32  2  0
 31 33  1  0
 33 34  1  0
 34 35  2  0
 35 36  1  0
M  CHG  2   2   1  26   1
M  END
