
     RDKit          3D

 38 42  0  0  0  0  0  0  0  0999 V2000
    9.8880   -0.6750   -0.9510 C   0  0  0  0  0  0  0  0  0  0  0  0
   10.1430   -0.8560    0.4590 N   0  0  0  0  0  0  0  0  0  0  0  0
    9.1920   -0.1770    1.2970 C   0  0  0  0  0  0  0  0  0  0  0  0
    7.8950   -0.1160    0.6080 C   0  0  0  0  0  0  0  0  0  0  0  0
    7.5150    0.9830   -0.1330 C   0  0  0  0  0  0  0  0  0  0  0  0
    6.2750    0.9430   -0.7430 C   0  0  0  0  0  0  0  0  0  0  0  0
    5.4360   -0.1380   -0.6320 C   0  0  0  0  0  0  0  0  0  0  0  0
    4.2070   -0.1420   -1.2540 O   0  0  0  0  0  0  0  0  0  0  0  0
    3.1330    0.3550   -0.5450 C   0  0  0  0  0  0  0  0  0  0  0  0
    2.8300    1.6870   -0.6430 C   0  0  0  0  0  0  0  0  0  0  0  0
    1.7650    2.2330    0.0490 C   0  0  0  0  0  0  0  0  0  0  0  0
    0.9630    1.4340    0.8720 C   0  0  0  0  0  0  0  0  0  0  0  0
   -0.0790    2.0310    1.5340 O   0  0  0  0  0  0  0  0  0  0  0  0
   -1.3740    1.6230    1.2960 C   0  0  0  0  0  0  0  0  0  0  0  0
   -1.9520    0.7300    2.1100 N   0  0  0  0  0  0  0  0  0  0  0  0
   -3.1820    0.3280    1.9030 N   0  0  0  0  0  0  0  0  0  0  0  0
   -3.9410    0.7660    0.8870 C   0  0  0  0  0  0  0  0  0  0  0  0
   -5.2720    0.2560    0.7810 N   0  0  0  0  0  0  0  0  0  0  0  0
   -5.5900   -0.6640   -0.0620 C   0  0  0  0  0  0  0  0  0  0  0  0
   -4.3990   -1.0690   -0.8510 C   0  0  0  0  0  0  0  0  0  0  0  0
   -3.3030   -0.9350   -0.3050 O   0  0  0  0  0  0  0  0  0  0  0  0
   -4.4700   -1.5810   -2.1440 O   0  0  0  0  0  0  0  0  0  0  0  0
   -5.4510   -2.4280   -2.7050 C   0  0  0  0  0  0  0  0  0  0  0  0
   -6.8510   -1.9400   -2.4970 C   0  0  0  0  0  0  0  0  0  0  0  0
   -7.4120   -2.2720   -1.1400 C   0  0  0  0  0  0  0  0  0  0  0  0
   -6.9290   -1.2040   -0.1940 C   0  0  0  0  0  0  0  0  0  0  0  0
   -7.8940   -0.7510    0.5740 C   0  0  0  0  0  0  0  0  0  0  0  0
   -7.6390    0.2940    1.5640 C   0  0  0  0  0  0  0  0  0  0  0  0
   -6.2770    0.8310    1.6480 C   0  0  2  0  0  0  0  0  0  0  0  0
   -6.2170    2.3450    1.3900 C   0  0  0  0  0  0  0  0  0  0  0  0
   -3.3860    1.6580    0.0600 N   0  0  0  0  0  0  0  0  0  0  0  0
   -2.1190    2.1030    0.2340 C   0  0  0  0  0  0  0  0  0  0  0  0
   -1.6320    2.9380   -0.5590 O   0  0  0  0  0  0  0  0  0  0  0  0
    1.2900    0.1100    0.9500 C   0  0  0  0  0  0  0  0  0  0  0  0
    0.3240   -0.9390    1.9800 Cl  0  0  0  0  0  0  0  0  0  0  0  0
    2.3680   -0.4490    0.2520 C   0  0  0  0  0  0  0  0  0  0  0  0
    5.8310   -1.2250    0.1100 C   0  0  0  0  0  0  0  0  0  0  0  0
    7.0700   -1.2320    0.7430 C   0  0  0  0  0  0  0  0  0  0  0  0
  1  2  1  0
  2  3  1  0
  3  4  1  0
  4  5  2  0
  4 38  1  0
  5  6  1  0
  6  7  2  0
  7  8  1  0
  7 37  1  0
  8  9  1  0
  9 10  2  0
  9 36  1  0
 10 11  1  0
 11 12  2  0
 12 13  1  0
 12 34  1  0
 13 14  1  0
 14 15  2  0
 14 32  1  0
 15 16  1  0
 16 17  2  0
 17 18  1  0
 17 31  1  0
 18 19  2  0
 18 29  1  0
 19 20  1  0
 19 26  1  0
 20 21  2  0
 20 22  1  0
 22 23  1  0
 23 24  1  0
 24 25  1  0
 25 26  1  0
 26 27  2  0
 27 28  1  0
 28 29  1  0
 29 30  1  6
 31 32  1  0
 32 33  2  0
 34 35  1  0
 34 36  2  0
 37 38  2  0
M  CHG  2   2   1  18   1
M  END
