
     RDKit          3D

 31 34  0  0  0  0  0  0  0  0999 V2000
    6.7590    0.7300   -0.6510 C   0  0  0  0  0  0  0  0  0  0  0  0
    6.8310   -0.1290    0.5900 C   0  0  0  0  0  0  0  0  0  0  0  0
    5.9670   -1.3410    0.5110 C   0  0  0  0  0  0  0  0  0  0  0  0
    4.5980   -1.0950    0.3380 O   0  0  0  0  0  0  0  0  0  0  0  0
    3.9100   -0.3760    1.2720 C   0  0  0  0  0  0  0  0  0  0  0  0
    4.5600    0.0520    2.2850 O   0  0  0  0  0  0  0  0  0  0  0  0
    2.4900   -0.0640    1.1920 C   0  0  0  0  0  0  0  0  0  0  0  0
    1.8470    0.6660    2.1590 C   0  0  0  0  0  0  0  0  0  0  0  0
    0.5020    0.9470    2.0560 C   0  0  0  0  0  0  0  0  0  0  0  0
   -0.2860    0.5250    0.9960 C   0  0  0  0  0  0  0  0  0  0  0  0
    0.4250   -0.2310    0.0150 C   0  0  0  0  0  0  0  0  0  0  0  0
    1.7540   -0.5080    0.1180 C   0  0  0  0  0  0  0  0  0  0  0  0
   -0.3010   -0.7590   -1.1820 C   0  0  0  0  0  0  0  0  0  0  0  0
   -0.3250   -2.2270   -1.1520 N   0  0  0  0  0  0  0  0  0  0  0  0
    0.7530   -2.8970   -1.8880 C   0  0  0  0  0  0  0  0  0  0  0  0
   -1.3150   -2.9700   -0.4580 C   0  0  0  0  0  0  0  0  0  0  0  0
   -2.5610   -2.7780   -0.4540 N   0  0  0  0  0  0  0  0  0  0  0  0
   -3.3130   -1.8310   -1.0940 N   0  0  0  0  0  0  0  0  0  0  0  0
   -4.1330   -0.9920   -0.5710 C   0  0  0  0  0  0  0  0  0  0  0  0
   -4.3310   -1.0020    0.8950 C   0  0  0  0  0  0  0  0  0  0  0  0
   -3.6520    0.0820    1.6130 C   0  0  2  0  0  0  0  0  0  0  0  0
   -4.7470    1.4310    2.1800 S   0  0  0  0  0  0  0  0  0  0  0  0
   -4.7310    2.2700    0.5870 C   0  0  0  0  0  0  0  0  0  0  0  0
   -5.6700    3.1410    0.0910 C   0  0  0  0  0  0  0  0  0  0  0  0
   -5.5120    3.6270   -1.1840 C   0  0  0  0  0  0  0  0  0  0  0  0
   -4.4070    3.2060   -1.8970 C   0  0  0  0  0  0  0  0  0  0  0  0
   -4.1550    3.7950   -3.5370 Cl  0  0  0  0  0  0  0  0  0  0  0  0
   -3.4980    2.3470   -1.3820 C   0  0  0  0  0  0  0  0  0  0  0  0
   -3.6400    1.8410   -0.0830 C   0  0  0  0  0  0  0  0  0  0  0  0
   -2.7590    0.9430    0.7110 C   0  0  0  0  0  0  0  0  0  0  0  0
   -1.5850    0.7680    0.8250 N   0  0  0  0  0  0  0  0  0  0  0  0
  1  2  1  0
  2  3  1  0
  3  4  1  0
  4  5  1  0
  5  6  2  0
  5  7  1  0
  7  8  2  0
  7 12  1  0
  8  9  1  0
  9 10  2  0
 10 11  1  0
 10 31  1  0
 11 12  2  0
 11 13  1  0
 13 14  1  0
 14 15  1  0
 14 16  1  0
 16 17  2  0
 17 18  1  0
 18 19  2  0
 19 20  1  0
 21 20  1  6
 21 22  1  0
 21 30  1  0
 22 23  1  0
 23 24  2  0
 23 29  1  0
 24 25  1  0
 25 26  2  0
 26 27  1  0
 26 28  1  0
 28 29  2  0
 29 30  1  0
 30 31  2  0
M  END
