
     RDKit          3D

 31 34  0  0  0  0  0  0  0  0999 V2000
    6.9040   -0.5570    1.4130 C   0  0  0  0  0  0  0  0  0  0  0  0
    6.1540    0.2470    0.6540 C   0  0  0  0  0  0  0  0  0  0  0  0
    6.4110    1.6070    0.2920 C   0  0  0  0  0  0  0  0  0  0  0  0
    5.4310    2.0230   -0.4610 C   0  0  0  0  0  0  0  0  0  0  0  0
    5.3670    3.6380   -1.1140 Cl  0  0  0  0  0  0  0  0  0  0  0  0
    4.4530    0.9370   -0.6420 C   0  0  0  0  0  0  0  0  0  0  0  0
    3.2340    1.1140   -1.3710 C   0  0  0  0  0  0  0  0  0  0  0  0
    3.0550    2.3690   -1.7770 O   0  0  0  0  0  0  0  0  0  0  0  0
    2.2170    0.2390   -1.7290 N   0  0  0  0  0  0  0  0  0  0  0  0
    1.0210    0.9930   -2.3390 C   0  0  0  0  0  0  0  0  0  0  0  0
   -0.2320    0.2460   -1.9860 C   0  0  0  0  0  0  0  0  0  0  0  0
   -0.0420   -0.4150   -0.7140 N   0  0  0  0  0  0  0  0  0  0  0  0
   -0.8120   -0.1210    0.3960 C   0  0  0  0  0  0  0  0  0  0  0  0
   -0.6650   -0.5760    1.5150 O   0  0  0  0  0  0  0  0  0  0  0  0
   -1.9390    0.8490    0.2100 C   0  0  0  0  0  0  0  0  0  0  0  0
   -2.6690    1.0840    1.4230 N   0  0  0  0  0  0  0  0  0  0  0  0
   -2.3330    2.0630    2.3140 C   0  0  0  0  0  0  0  0  0  0  0  0
   -3.2080    2.0400    3.3840 C   0  0  0  0  0  0  0  0  0  0  0  0
   -4.0600    1.0390    3.1130 N   0  0  0  0  0  0  0  0  0  0  0  0
   -3.7290    0.4650    1.9270 C   0  0  0  0  0  0  0  0  0  0  0  0
   -4.5920   -0.8900    1.1780 S   0  0  0  0  0  0  0  0  0  0  0  0
   -5.9390   -0.3470    0.1100 C   0  0  2  0  0  0  0  0  0  0  0  0
   -5.4230    0.3900   -1.0820 C   0  0  0  0  0  0  0  0  0  0  0  0
   -6.8490    0.5810    0.8960 C   0  0  0  0  0  0  0  0  0  0  0  0
    0.9710   -1.4090   -0.6830 C   0  0  0  0  0  0  0  0  0  0  0  0
    1.2550   -2.4960   -0.0330 C   0  0  0  0  0  0  0  0  0  0  0  0
    0.3820   -3.0430    1.0440 C   0  0  0  0  0  0  0  0  0  0  0  0
    2.5190   -3.0050   -0.5580 C   0  0  0  0  0  0  0  0  0  0  0  0
    2.9700   -2.1910   -1.5480 C   0  0  0  0  0  0  0  0  0  0  0  0
    2.0450   -1.1440   -1.7290 C   0  0  2  0  0  0  0  0  0  0  0  0
    4.8840   -0.1250    0.0250 C   0  0  0  0  0  0  0  0  0  0  0  0
  1  2  2  0
  2  3  1  0
  2 31  1  0
  3  4  2  0
  4  5  1  0
  4  6  1  0
  6  7  1  0
  6 31  2  0
  7  8  2  0
  7  9  1  0
  9 10  1  0
 30  9  1  1
 10 11  1  0
 11 12  1  0
 12 13  1  0
 12 25  1  0
 13 14  2  0
 13 15  1  0
 15 16  1  0
 16 17  1  0
 16 20  1  0
 17 18  2  0
 18 19  1  0
 19 20  2  0
 20 21  1  0
 21 22  1  0
 22 23  1  6
 22 24  1  0
 25 26  2  0
 25 30  1  0
 26 27  1  0
 26 28  1  0
 28 29  2  0
 29 30  1  0
M  END
