
     RDKit          3D

 29 33  0  0  0  0  0  0  0  0999 V2000
    8.3920    1.9040   -0.3110 C   0  0  0  0  0  0  0  0  0  0  0  0
    7.4460    1.1270   -1.0170 O   0  0  0  0  0  0  0  0  0  0  0  0
    6.1620    0.9220   -0.5370 C   0  0  0  0  0  0  0  0  0  0  0  0
    5.7440    1.4660    0.6510 C   0  0  0  0  0  0  0  0  0  0  0  0
    4.4640    1.2620    1.1300 C   0  0  0  0  0  0  0  0  0  0  0  0
    3.5790    0.4860    0.3880 C   0  0  0  0  0  0  0  0  0  0  0  0
    2.3060    0.2700    0.8420 C   0  0  0  0  0  0  0  0  0  0  0  0
    1.4140   -0.5120    0.0940 C   0  0  0  0  0  0  0  0  0  0  0  0
    0.0500   -0.6850    0.6110 C   0  0  0  0  0  0  0  0  0  0  0  0
   -0.7940    0.3180    0.9810 N   0  0  0  0  0  0  0  0  0  0  0  0
   -1.9350   -0.1750    1.4180 N   0  0  0  0  0  0  0  0  0  0  0  0
   -3.0540    0.5760    1.8880 C   0  0  0  0  0  0  0  0  0  0  0  0
   -4.0370    0.9380    0.8140 C   0  0  1  0  0  0  0  0  0  0  0  0
   -3.4470    1.7700   -0.2790 C   0  0  0  0  0  0  0  0  0  0  0  0
   -4.4910    1.8630   -1.3890 C   0  0  0  0  0  0  0  0  0  0  0  0
   -5.8290    1.6470   -0.8670 N   0  0  0  0  0  0  0  0  0  0  0  0
   -6.0400    0.3010   -0.4040 C   0  0  0  0  0  0  0  0  0  0  0  0
   -4.7390   -0.2330    0.2080 C   0  0  0  0  0  0  0  0  0  0  0  0
   -1.8240   -1.5320    1.3280 C   0  0  0  0  0  0  0  0  0  0  0  0
   -2.6730   -2.5200    1.6410 N   0  0  0  0  0  0  0  0  0  0  0  0
   -2.3480   -3.8080    1.4790 C   0  0  0  0  0  0  0  0  0  0  0  0
   -1.1380   -4.1110    0.9900 N   0  0  0  0  0  0  0  0  0  0  0  0
   -0.2100   -3.1990    0.6430 C   0  0  0  0  0  0  0  0  0  0  0  0
    1.0700   -3.5720    0.1500 N   0  0  0  0  0  0  0  0  0  0  0  0
   -0.5800   -1.8630    0.8230 C   0  0  0  0  0  0  0  0  0  0  0  0
    1.8570   -1.0430   -1.0940 C   0  0  0  0  0  0  0  0  0  0  0  0
    3.1450   -0.8310   -1.5630 C   0  0  0  0  0  0  0  0  0  0  0  0
    3.9920   -0.0660   -0.8130 C   0  0  0  0  0  0  0  0  0  0  0  0
    5.2910    0.1530   -1.2790 C   0  0  0  0  0  0  0  0  0  0  0  0
  1  2  1  0
  2  3  1  0
  3  4  2  0
  3 29  1  0
  4  5  1  0
  5  6  2  0
  6  7  1  0
  6 28  1  0
  7  8  2  0
  8  9  1  0
  8 26  1  0
  9 10  2  0
  9 25  1  0
 10 11  1  0
 11 12  1  0
 11 19  1  0
 13 12  1  1
 13 14  1  0
 13 18  1  0
 14 15  1  0
 15 16  1  0
 16 17  1  0
 17 18  1  0
 19 20  2  0
 19 25  1  0
 20 21  1  0
 21 22  2  0
 22 23  1  0
 23 24  1  0
 23 25  2  0
 26 27  2  0
 27 28  1  0
 28 29  2  0
M  CHG  1  16   1
M  END
