
     RDKit          3D

 30 33  0  0  0  0  0  0  0  0999 V2000
   -6.8300    1.7380    0.1510 C   0  0  0  0  0  0  0  0  0  0  0  0
   -5.7690    1.8490   -0.9220 C   0  0  0  0  0  0  0  0  0  0  0  0
   -4.6610    0.9250   -0.5590 C   0  0  0  0  0  0  0  0  0  0  0  0
   -3.5800    0.8490   -1.3820 C   0  0  0  0  0  0  0  0  0  0  0  0
   -2.5180   -0.0090   -1.0730 C   0  0  0  0  0  0  0  0  0  0  0  0
   -1.3900   -0.0460   -1.9900 C   0  0  0  0  0  0  0  0  0  0  0  0
   -1.3250    0.6630   -3.1720 C   0  0  0  0  0  0  0  0  0  0  0  0
   -0.1730    0.3960   -3.7820 N   0  0  0  0  0  0  0  0  0  0  0  0
    0.4740   -0.4660   -2.9950 C   0  0  0  0  0  0  0  0  0  0  0  0
   -0.2240   -0.7630   -1.8950 N   0  0  0  0  0  0  0  0  0  0  0  0
    0.0460   -1.6540   -0.7890 C   0  0  0  0  0  0  0  0  0  0  0  0
    0.6060   -1.0320    0.3780 C   0  0  1  0  0  0  0  0  0  0  0  0
    0.7580   -2.0010    1.5520 C   0  0  0  0  0  0  0  0  0  0  0  0
    1.4730   -1.3070    2.4640 C   0  0  0  0  0  0  0  0  0  0  0  0
    1.7580    0.0530    1.8630 C   0  0  0  0  0  0  0  0  0  0  0  0
    1.9280   -0.4880    0.4710 N   0  0  0  0  0  0  0  0  0  0  0  0
    3.1120   -0.4350   -0.2350 C   0  0  0  0  0  0  0  0  0  0  0  0
    3.2040   -0.8350   -1.4510 O   0  0  0  0  0  0  0  0  0  0  0  0
    4.4200    0.0590    0.2390 C   0  0  0  0  0  0  0  0  0  0  0  0
    4.8210   -0.0550    1.5380 C   0  0  0  0  0  0  0  0  0  0  0  0
    6.1160    0.3600    1.8720 C   0  0  0  0  0  0  0  0  0  0  0  0
    6.9910    0.8710    0.9450 C   0  0  0  0  0  0  0  0  0  0  0  0
    6.5990    0.9890   -0.3710 C   0  0  0  0  0  0  0  0  0  0  0  0
    7.6920    1.6370   -1.5830 Cl  0  0  0  0  0  0  0  0  0  0  0  0
    5.3260    0.5800   -0.6870 C   0  0  0  0  0  0  0  0  0  0  0  0
    4.9030    0.6870   -2.0070 O   0  0  0  0  0  0  0  0  0  0  0  0
   -2.6490   -0.7130    0.0450 N   0  0  0  0  0  0  0  0  0  0  0  0
   -3.6900   -0.6580    0.8630 C   0  0  0  0  0  0  0  0  0  0  0  0
   -3.7550   -1.4700    2.0800 C   0  0  0  0  0  0  0  0  0  0  0  0
   -4.7010    0.1670    0.5590 N   0  0  0  0  0  0  0  0  0  0  0  0
  1  2  1  0
  2  3  1  0
  3  4  2  0
  3 30  1  0
  4  5  1  0
  5  6  1  0
  5 27  2  0
  6  7  2  0
  6 10  1  0
  7  8  1  0
  8  9  2  0
  9 10  1  0
 10 11  1  0
 12 11  1  6
 12 13  1  0
 12 16  1  0
 13 14  2  0
 14 15  1  0
 15 16  1  0
 16 17  1  0
 17 18  2  0
 17 19  1  0
 19 20  2  0
 19 25  1  0
 20 21  1  0
 21 22  2  0
 22 23  1  0
 23 24  1  0
 23 25  2  0
 25 26  1  0
 27 28  1  0
 28 29  1  0
 28 30  2  0
M  END
