
     RDKit          3D

 31 34  0  0  0  0  0  0  0  0999 V2000
   -5.3520    3.0370    1.6240 C   0  0  0  0  0  0  0  0  0  0  0  0
   -4.7760    1.8870    0.8270 C   0  0  2  0  0  0  0  0  0  0  0  0
   -4.9740    2.1620   -0.8970 Cl  0  0  0  0  0  0  0  0  0  0  0  0
   -5.3830    0.5720    1.1960 C   0  0  0  0  0  0  0  0  0  0  0  0
   -4.3130   -0.4210    0.7290 C   0  0  0  0  0  0  0  0  0  0  0  0
   -3.0980    0.3560    0.6200 N   0  0  0  0  0  0  0  0  0  0  0  0
   -1.8990   -0.0980    0.0260 C   0  0  0  0  0  0  0  0  0  0  0  0
   -1.0770   -1.0120    0.6940 N   0  0  0  0  0  0  0  0  0  0  0  0
   -1.2190   -2.2360    0.8010 N   0  0  0  0  0  0  0  0  0  0  0  0
   -2.2700   -3.0090    0.2580 C   0  0  0  0  0  0  0  0  0  0  0  0
   -2.7450   -2.9270   -1.0240 C   0  0  0  0  0  0  0  0  0  0  0  0
   -3.7730   -3.8650   -1.1200 C   0  0  0  0  0  0  0  0  0  0  0  0
   -3.8650   -4.4540    0.0810 N   0  0  0  0  0  0  0  0  0  0  0  0
   -2.9880   -3.9490    0.8710 O   0  0  0  0  0  0  0  0  0  0  0  0
   -1.5840    0.3450   -1.1260 N   0  0  0  0  0  0  0  0  0  0  0  0
   -0.4500    0.0260   -1.8830 C   0  0  0  0  0  0  0  0  0  0  0  0
   -0.5950   -0.6060   -2.9600 O   0  0  0  0  0  0  0  0  0  0  0  0
    0.8980    0.3930   -1.4810 C   0  0  0  0  0  0  0  0  0  0  0  0
    1.0880    1.0950   -0.3170 C   0  0  0  0  0  0  0  0  0  0  0  0
    2.3560    1.4680    0.1170 C   0  0  0  0  0  0  0  0  0  0  0  0
    3.4750    1.1200   -0.6500 C   0  0  0  0  0  0  0  0  0  0  0  0
    4.7620    1.5690   -0.1710 C   0  0  0  0  0  0  0  0  0  0  0  0
    5.7620    0.7550   -0.0100 C   0  0  0  0  0  0  0  0  0  0  0  0
    5.7330   -0.6510   -0.2670 C   0  0  0  0  0  0  0  0  0  0  0  0
    6.7550   -1.4400   -0.1460 C   0  0  0  0  0  0  0  0  0  0  0  0
    8.0700   -1.0470    0.2660 C   0  0  0  0  0  0  0  0  0  0  0  0
    8.4750    0.1490    0.5950 C   0  0  0  0  0  0  0  0  0  0  0  0
    7.3240    1.4940    0.5550 S   0  0  0  0  0  0  0  0  0  0  0  0
    3.3040    0.4300   -1.8000 C   0  0  0  0  0  0  0  0  0  0  0  0
    2.0150    0.0670   -2.2150 C   0  0  0  0  0  0  0  0  0  0  0  0
   -3.3050    1.6690    1.2100 C   0  0  0  0  0  0  0  0  0  0  0  0
  2  1  1  1
  2  3  1  0
  2  4  1  0
  2 31  1  0
  4  5  1  0
  5  6  1  0
  6  7  1  0
  6 31  1  0
  7  8  1  0
  7 15  2  3
  8  9  2  3
  9 10  1  0
 10 11  2  0
 10 14  1  0
 11 12  1  0
 12 13  2  0
 13 14  1  0
 15 16  1  0
 16 17  2  0
 16 18  1  0
 18 19  2  0
 18 30  1  0
 19 20  1  0
 20 21  2  0
 21 22  1  0
 21 29  1  0
 22 23  2  3
 23 24  1  0
 23 28  1  0
 24 25  2  0
 25 26  1  0
 26 27  2  0
 27 28  1  0
 29 30  2  0
M  END
