
     RDKit          3D

 31 34  0  0  0  0  0  0  0  0999 V2000
   -3.6510    0.1210    1.6610 C   0  0  0  0  0  0  0  0  0  0  0  0
   -4.2200   -1.2620    1.5130 C   0  0  0  0  0  0  0  0  0  0  0  0
   -3.2930   -2.2940    1.0100 C   0  0  0  0  0  0  0  0  0  0  0  0
   -2.6960   -2.1280   -0.3360 C   0  0  1  0  0  0  0  0  0  0  0  0
   -3.7050   -2.0610   -1.4500 C   0  0  0  0  0  0  0  0  0  0  0  0
   -4.0720   -0.6750   -1.8520 C   0  0  0  0  0  0  0  0  0  0  0  0
   -5.1890   -0.1680   -2.3720 C   0  0  0  0  0  0  0  0  0  0  0  0
   -5.0050    1.2800   -2.5770 C   0  0  0  0  0  0  0  0  0  0  0  0
   -3.6220    1.5100   -2.0980 C   0  0  0  0  0  0  0  0  0  0  0  0
   -2.8660    3.1000   -2.1150 Cl  0  0  0  0  0  0  0  0  0  0  0  0
   -3.0960    0.3720   -1.6810 C   0  0  0  0  0  0  0  0  0  0  0  0
   -1.7610    0.1250   -1.1190 C   0  0  0  0  0  0  0  0  0  0  0  0
   -1.6440   -1.1400   -0.4400 N   0  0  0  0  0  0  0  0  0  0  0  0
   -0.3960   -1.4380    0.1590 C   0  0  0  0  0  0  0  0  0  0  0  0
   -0.2150   -2.5340    0.7840 O   0  0  0  0  0  0  0  0  0  0  0  0
    0.7490   -0.5330    0.1050 C   0  0  0  0  0  0  0  0  0  0  0  0
    0.8060    0.6660   -0.4900 N   0  0  0  0  0  0  0  0  0  0  0  0
    2.0620    1.2010   -0.3140 C   0  0  0  0  0  0  0  0  0  0  0  0
    2.4660    2.5070   -0.8390 C   0  0  0  0  0  0  0  0  0  0  0  0
    1.7380    3.3910   -1.5530 C   0  0  0  0  0  0  0  0  0  0  0  0
    2.2550    4.5450   -1.9590 C   0  0  0  0  0  0  0  0  0  0  0  0
    3.5780    4.8120   -1.6220 C   0  0  0  0  0  0  0  0  0  0  0  0
    4.0180    3.3230   -0.7020 S   0  0  0  0  0  0  0  0  0  0  0  0
    2.7630    0.3400    0.3790 N   0  0  0  0  0  0  0  0  0  0  0  0
    4.0930    0.3660    0.8410 C   0  0  0  0  0  0  0  0  0  0  0  0
    4.8920    1.2960    0.6510 O   0  0  0  0  0  0  0  0  0  0  0  0
    4.6580   -0.7850    1.6340 C   0  0  2  0  0  0  0  0  0  0  0  0
    4.5490   -2.0110    0.7230 C   0  0  0  0  0  0  0  0  0  0  0  0
    3.9010   -1.0290    2.8990 C   0  0  0  0  0  0  0  0  0  0  0  0
    6.1180   -0.6100    1.9420 C   0  0  0  0  0  0  0  0  0  0  0  0
    1.9630   -0.7090    0.6300 N   0  0  0  0  0  0  0  0  0  0  0  0
  1  2  1  0
  2  3  1  0
  4  3  1  1
  4  5  1  0
  4 13  1  0
  5  6  1  0
  6  7  2  0
  6 11  1  0
  7  8  1  0
  8  9  1  0
  9 10  1  0
  9 11  2  0
 11 12  1  0
 12 13  1  0
 13 14  1  0
 14 15  2  0
 14 16  1  0
 16 17  1  0
 16 31  2  0
 17 18  2  0
 18 19  1  0
 18 24  1  0
 19 20  2  0
 19 23  1  0
 20 21  1  0
 21 22  2  0
 22 23  1  0
 24 25  1  0
 24 31  1  0
 25 26  2  0
 25 27  1  0
 27 28  1  6
 27 29  1  0
 27 30  1  0
M  END
