
     RDKit          3D

 31 34  0  0  0  0  0  0  0  0999 V2000
   -0.8540   -2.8700   -1.1950 C   0  0  0  0  0  0  0  0  0  0  0  0
   -0.7660   -3.3480    0.0830 O   0  0  0  0  0  0  0  0  0  0  0  0
   -0.1590   -2.4990    1.0010 C   0  0  0  0  0  0  0  0  0  0  0  0
   -0.8370   -1.2120    1.1340 C   0  0  0  0  0  0  0  0  0  0  0  0
   -0.3230   -0.1010    0.9160 N   0  0  0  0  0  0  0  0  0  0  0  0
    0.9060    0.3790    0.5160 C   0  0  0  0  0  0  0  0  0  0  0  0
    1.8190   -0.3870    0.1480 N   0  0  0  0  0  0  0  0  0  0  0  0
    3.1440   -0.1270   -0.2890 C   0  0  0  0  0  0  0  0  0  0  0  0
    3.9700   -1.2920   -0.6950 C   0  0  0  0  0  0  0  0  0  0  0  0
    3.3760   -2.6470   -0.5870 C   0  0  0  0  0  0  0  0  0  0  0  0
    5.0970   -1.1930   -1.1070 O   0  0  0  0  0  0  0  0  0  0  0  0
    3.5920    1.0750   -0.3410 C   0  0  0  0  0  0  0  0  0  0  0  0
    2.9070    2.3690    0.0180 C   0  0  1  0  0  0  0  0  0  0  0  0
    3.2550    3.2230   -1.1930 C   0  0  0  0  0  0  0  0  0  0  0  0
    4.6530    2.7600   -1.5890 C   0  0  0  0  0  0  0  0  0  0  0  0
    4.8930    1.5220   -0.7960 N   0  0  0  0  0  0  0  0  0  0  0  0
    6.1780    1.0220   -0.5910 C   0  0  0  0  0  0  0  0  0  0  0  0
    6.7620    0.8200    0.5840 C   0  0  0  0  0  0  0  0  0  0  0  0
    8.3700    0.1900    0.6410 Cl  0  0  0  0  0  0  0  0  0  0  0  0
    1.2180    2.1490    0.3880 S   0  0  0  0  0  0  0  0  0  0  0  0
   -2.2240   -1.1830    1.5560 N   0  0  0  0  0  0  0  0  0  0  0  0
   -2.6910   -1.8500    2.6130 C   0  0  0  0  0  0  0  0  0  0  0  0
   -4.0590   -1.6140    2.7470 C   0  0  0  0  0  0  0  0  0  0  0  0
   -4.4070   -0.7690    1.7180 C   0  0  0  0  0  0  0  0  0  0  0  0
   -5.5580   -0.1660    1.2830 C   0  0  0  0  0  0  0  0  0  0  0  0
   -5.5490    0.6520    0.1720 C   0  0  0  0  0  0  0  0  0  0  0  0
   -6.8220    1.3040   -0.2900 C   0  0  0  0  0  0  0  0  0  0  0  0
   -4.4040    0.9060   -0.5530 C   0  0  0  0  0  0  0  0  0  0  0  0
   -4.4190    1.7950   -1.7520 C   0  0  0  0  0  0  0  0  0  0  0  0
   -3.2510    0.2970   -0.1090 C   0  0  0  0  0  0  0  0  0  0  0  0
   -3.2410   -0.5240    0.9990 C   0  0  0  0  0  0  0  0  0  0  0  0
  1  2  1  0
  2  3  1  0
  3  4  1  0
  4  5  2  3
  4 21  1  0
  5  6  1  0
  6  7  2  0
  6 20  1  0
  7  8  1  0
  8  9  1  0
  8 12  2  0
  9 10  1  0
  9 11  2  0
 12 13  1  0
 12 16  1  0
 13 14  1  6
 13 20  1  0
 14 15  1  0
 15 16  1  0
 16 17  1  0
 17 18  2  3
 18 19  1  0
 21 22  1  0
 21 31  1  0
 22 23  2  0
 23 24  1  0
 24 25  2  0
 24 31  1  0
 25 26  1  0
 26 27  1  0
 26 28  2  0
 28 29  1  0
 28 30  1  0
 30 31  2  0
M  END
