
     RDKit          3D

 30 33  0  0  0  0  0  0  0  0999 V2000
   -5.2160    1.4210   -2.9470 C   0  0  0  0  0  0  0  0  0  0  0  0
   -5.8110    0.8630   -1.7000 C   0  0  0  0  0  0  0  0  0  0  0  0
   -4.8690    0.0300   -0.9080 C   0  0  0  0  0  0  0  0  0  0  0  0
   -4.2610    0.4690    0.2450 C   0  0  0  0  0  0  0  0  0  0  0  0
   -3.3870   -0.2870    0.9930 C   0  0  0  0  0  0  0  0  0  0  0  0
   -2.7560    0.1650    2.1840 N   0  0  0  0  0  0  0  0  0  0  0  0
   -3.2750    0.4520    3.3630 N   0  0  0  0  0  0  0  0  0  0  0  0
   -2.3500    0.8390    4.2090 N   0  0  0  0  0  0  0  0  0  0  0  0
   -1.1550    0.8230    3.6110 C   0  0  0  0  0  0  0  0  0  0  0  0
    0.1430    1.1100    3.9610 C   0  0  0  0  0  0  0  0  0  0  0  0
    1.1310    0.9570    3.0060 C   0  0  0  0  0  0  0  0  0  0  0  0
    0.9090    0.5350    1.7260 C   0  0  0  0  0  0  0  0  0  0  0  0
    1.8850    0.3540    0.7140 N   0  0  0  0  0  0  0  0  0  0  0  0
    3.2870    0.4690    0.8420 C   0  0  0  0  0  0  0  0  0  0  0  0
    3.7580    0.7610    1.9650 O   0  0  0  0  0  0  0  0  0  0  0  0
    4.2160    0.2640   -0.2710 C   0  0  0  0  0  0  0  0  0  0  0  0
    3.8250   -0.0440   -1.5530 C   0  0  0  0  0  0  0  0  0  0  0  0
    4.7990   -0.2130   -2.5160 C   0  0  0  0  0  0  0  0  0  0  0  0
    6.1180   -0.0830   -2.2280 N   0  0  0  0  0  0  0  0  0  0  0  0
    7.1300   -0.2610   -3.2400 C   0  0  0  0  0  0  0  0  0  0  0  0
    6.5010    0.2170   -0.9790 C   0  0  0  0  0  0  0  0  0  0  0  0
    7.7260    0.3310   -0.7400 O   0  0  0  0  0  0  0  0  0  0  0  0
    5.5650    0.3890   -0.0140 C   0  0  0  0  0  0  0  0  0  0  0  0
   -0.4160    0.2530    1.4060 C   0  0  0  0  0  0  0  0  0  0  0  0
   -1.4230    0.3880    2.3070 C   0  0  0  0  0  0  0  0  0  0  0  0
   -3.1250   -1.5720    0.5230 C   0  0  0  0  0  0  0  0  0  0  0  0
   -2.1810   -2.4130    1.3150 C   0  0  0  0  0  0  0  0  0  0  0  0
   -3.7220   -2.0340   -0.6300 C   0  0  0  0  0  0  0  0  0  0  0  0
   -4.5960   -1.2540   -1.3610 C   0  0  0  0  0  0  0  0  0  0  0  0
   -5.3330   -1.8790   -2.8190 Cl  0  0  0  0  0  0  0  0  0  0  0  0
  1  2  1  0
  2  3  1  0
  3  4  2  0
  3 29  1  0
  4  5  1  0
  5  6  1  0
  5 26  2  0
  6  7  1  0
  6 25  1  0
  7  8  2  0
  8  9  1  0
  9 10  2  0
  9 25  1  0
 10 11  1  0
 11 12  2  0
 12 13  1  0
 12 24  1  0
 13 14  1  0
 14 15  2  0
 14 16  1  0
 16 17  1  0
 16 23  2  0
 17 18  2  0
 18 19  1  0
 19 20  1  0
 19 21  1  0
 21 22  2  0
 21 23  1  0
 24 25  2  0
 26 27  1  0
 26 28  1  0
 28 29  2  0
 29 30  1  0
M  END
