
     RDKit          3D

 15 16  0  0  0  0  0  0  0  0999 V2000
    0.2820    2.2220    1.9210 O   0  0  0  0  0  0  0  0  0  0  0  0
    1.1600    1.5170    1.4140 C   0  0  0  0  0  0  0  0  0  0  0  0
    1.0060    0.3450    0.5850 C   0  0  0  0  0  0  0  0  0  0  0  0
   -0.0760   -0.2420    0.1770 C   0  0  0  0  0  0  0  0  0  0  0  0
   -1.4950   -0.0980    0.2900 C   0  0  2  0  0  0  0  0  0  0  0  0
   -2.0410    0.0450   -1.1640 C   0  0  0  0  0  0  0  0  0  0  0  0
   -3.4800   -0.4380   -1.1320 C   0  0  0  0  0  0  0  0  0  0  0  0
   -3.9800   -0.2480    0.2730 C   0  0  0  0  0  0  0  0  0  0  0  0
   -3.5360    0.8740    0.9020 O   0  0  0  0  0  0  0  0  0  0  0  0
   -2.1380    0.9770    1.0470 C   0  0  0  0  0  0  0  0  0  0  0  0
    2.3040   -0.2190    0.1760 N   0  0  0  0  0  0  0  0  0  0  0  0
    3.3850    0.4590   -0.4870 C   0  0  0  0  0  0  0  0  0  0  0  0
    4.4520   -0.6040   -0.6360 C   0  0  0  0  0  0  0  0  0  0  0  0
    3.8220   -1.7970   -0.0330 C   0  0  0  0  0  0  0  0  0  0  0  0
    2.6310   -1.5380    0.4050 N   0  0  0  0  0  0  0  0  0  0  0  0
  1  2  2  0
  2  3  1  0
  3  4  2  3
  3 11  1  0
  5  4  1  6
  5  6  1  0
  5 10  1  0
  6  7  1  0
  7  8  1  0
  8  9  1  0
  9 10  1  0
 11 12  1  0
 11 15  1  0
 12 13  1  0
 13 14  1  0
 14 15  2  0
M  END
