
     RDKit          3D

 15 16  0  0  0  0  0  0  0  0999 V2000
    3.6910    1.6950    0.1340 C   0  0  0  0  0  0  0  0  0  0  0  0
    2.8880    0.4430   -0.0650 C   0  0  1  0  0  0  0  0  0  0  0  0
    3.2050   -0.5110    1.0420 C   0  0  0  0  0  0  0  0  0  0  0  0
    2.3340   -1.6440    1.0190 N   0  0  0  0  0  0  0  0  0  0  0  0
    1.1480   -1.5750    0.5510 C   0  0  0  0  0  0  0  0  0  0  0  0
    0.5840   -0.3870    0.0150 N   0  0  0  0  0  0  0  0  0  0  0  0
   -0.7880   -0.4080   -0.3560 C   0  0  0  0  0  0  0  0  0  0  0  0
   -1.7030   -0.3580    0.6250 C   0  0  0  0  0  0  0  0  0  0  0  0
   -3.0920   -0.3830    0.1960 C   0  0  0  0  0  0  0  0  0  0  0  0
   -4.0070    0.2830    0.8680 C   0  0  0  0  0  0  0  0  0  0  0  0
   -3.6340    1.0060    1.9840 O   0  0  0  0  0  0  0  0  0  0  0  0
   -3.3890   -1.1930   -1.0060 C   0  0  0  0  0  0  0  0  0  0  0  0
   -2.4350   -1.1320   -1.9600 O   0  0  0  0  0  0  0  0  0  0  0  0
   -1.2790   -0.4740   -1.7240 C   0  0  0  0  0  0  0  0  0  0  0  0
    1.4110    0.7780   -0.1320 C   0  0  0  0  0  0  0  0  0  0  0  0
  2  1  1  1
  2  3  1  0
  2 15  1  0
  3  4  1  0
  4  5  2  0
  5  6  1  0
  6  7  1  0
  6 15  1  0
  7  8  2  0
  7 14  1  0
  8  9  1  0
  9 10  2  3
  9 12  1  0
 10 11  1  0
 12 13  1  0
 13 14  1  0
M  END
