
     RDKit          3D

 15 16  0  0  0  0  0  0  0  0999 V2000
    3.1120    1.2330    0.8140 C   0  0  0  0  0  0  0  0  0  0  0  0
    2.5860    1.1440   -0.4650 O   0  0  0  0  0  0  0  0  0  0  0  0
    1.9350    0.0230   -0.7890 C   0  0  0  0  0  0  0  0  0  0  0  0
    0.5260   -0.2150   -0.4840 C   0  0  0  0  0  0  0  0  0  0  0  0
   -0.2980    0.6000    0.0890 C   0  0  0  0  0  0  0  0  0  0  0  0
    0.0830    1.9800    0.5350 C   0  0  0  0  0  0  0  0  0  0  0  0
   -1.6760    0.2480    0.3540 N   0  0  0  0  0  0  0  0  0  0  0  0
   -2.7590    0.9820    0.9720 C   0  0  0  0  0  0  0  0  0  0  0  0
   -3.8820    0.0240    0.9170 C   0  0  0  0  0  0  0  0  0  0  0  0
   -5.0720    0.2250    1.3500 O   0  0  0  0  0  0  0  0  0  0  0  0
   -3.3920   -1.1540    0.2960 N   0  0  0  0  0  0  0  0  0  0  0  0
   -2.1470   -1.0300   -0.0220 C   0  0  0  0  0  0  0  0  0  0  0  0
   -1.2190   -1.9490   -0.6680 C   0  0  0  0  0  0  0  0  0  0  0  0
    0.0020   -1.5780   -0.8790 C   0  0  0  0  0  0  0  0  0  0  0  0
    0.9510   -2.5060   -1.5350 C   0  0  0  0  0  0  0  0  0  0  0  0
  1  2  1  0
  2  3  1  0
  3  4  1  0
  4  5  2  0
  4 14  1  0
  5  6  1  0
  5  7  1  0
  7  8  1  0
  7 12  1  0
  8  9  1  0
  9 10  2  0
  9 11  1  0
 11 12  2  0
 12 13  1  0
 13 14  2  0
 14 15  1  0
M  END
