
     RDKit          3D

 15 15  0  0  0  0  0  0  0  0999 V2000
    4.4200   -0.1540    1.3980 C   0  0  0  0  0  0  0  0  0  0  0  0
    4.6320    0.2270    0.1570 C   0  0  0  0  0  0  0  0  0  0  0  0
    3.7520    1.2050   -0.4490 C   0  0  0  0  0  0  0  0  0  0  0  0
    3.9860    1.5730   -1.6950 C   0  0  0  0  0  0  0  0  0  0  0  0
    2.6290    1.7690    0.3090 C   0  0  0  0  0  0  0  0  0  0  0  0
    1.6620    0.7980    0.7530 N   0  0  0  0  0  0  0  0  0  0  0  0
    0.8680    0.1750   -0.0280 C   0  0  0  0  0  0  0  0  0  0  0  0
   -0.0500   -0.7630    0.5000 N   0  0  0  0  0  0  0  0  0  0  0  0
   -1.3160   -0.6370    0.3460 C   0  0  0  0  0  0  0  0  0  0  0  0
   -1.8380    0.5240   -0.4070 C   0  0  0  0  0  0  0  0  0  0  0  0
   -2.9700    0.2670   -1.1260 O   0  0  0  0  0  0  0  0  0  0  0  0
   -3.8700   -0.6070   -0.5930 C   0  0  0  0  0  0  0  0  0  0  0  0
   -3.5960   -1.0970    0.7850 C   0  0  1  0  0  0  0  0  0  0  0  0
   -4.4710   -2.2550    1.1280 C   0  0  0  0  0  0  0  0  0  0  0  0
   -2.2330   -1.5380    0.8510 O   0  0  0  0  0  0  0  0  0  0  0  0
  1  2  2  0
  2  3  1  0
  3  4  2  0
  3  5  1  0
  5  6  1  0
  6  7  2  3
  7  8  1  0
  8  9  2  3
  9 10  1  0
  9 15  1  0
 10 11  1  0
 11 12  1  0
 12 13  1  0
 13 14  1  6
 13 15  1  0
M  END
