
     RDKit          3D

 15 16  0  0  0  0  0  0  0  0999 V2000
   -3.9800    0.8280   -0.1720 C   0  0  0  0  0  0  0  0  0  0  0  0
   -2.6900    0.0670   -0.3210 C   0  0  0  0  0  0  0  0  0  0  0  0
   -1.8260    0.0820    0.8670 C   0  0  2  0  0  0  0  0  0  0  0  0
   -1.3500    1.3720    1.3590 C   0  0  0  0  0  0  0  0  0  0  0  0
   -1.7520    2.5540    1.2110 O   0  0  0  0  0  0  0  0  0  0  0  0
   -0.2100    1.0940    2.1410 O   0  0  0  0  0  0  0  0  0  0  0  0
    0.0960   -0.3050    2.0350 C   0  0  0  0  0  0  0  0  0  0  0  0
   -0.4850   -0.6480    0.6850 C   0  0  2  0  0  0  0  0  0  0  0  0
    0.3160    0.0010   -0.4010 C   0  0  0  0  0  0  0  0  0  0  0  0
    1.6370   -0.6490   -0.6350 C   0  0  0  0  0  0  0  0  0  0  0  0
    1.8520   -1.7530   -1.4610 C   0  0  0  0  0  0  0  0  0  0  0  0
    3.1670   -2.0110   -1.4250 N   0  0  0  0  0  0  0  0  0  0  0  0
    3.7910   -1.1330   -0.6250 C   0  0  0  0  0  0  0  0  0  0  0  0
    2.8330   -0.3090   -0.1530 N   0  0  0  0  0  0  0  0  0  0  0  0
    3.1360    0.8110    0.7500 C   0  0  0  0  0  0  0  0  0  0  0  0
  1  2  1  0
  3  2  1  6
  3  4  1  0
  3  8  1  0
  4  5  2  0
  4  6  1  0
  6  7  1  0
  7  8  1  0
  8  9  1  6
  9 10  1  0
 10 11  2  0
 10 14  1  0
 11 12  1  0
 12 13  2  0
 13 14  1  0
 14 15  1  0
M  END
