
     RDKit          3D

 15 16  0  0  0  0  0  0  0  0999 V2000
   -3.6300   -0.3230   -1.1260 C   0  0  0  0  0  0  0  0  0  0  0  0
   -3.3800   -0.6360    0.3260 C   0  0  2  0  0  0  0  0  0  0  0  0
   -2.7830    0.5010    1.0830 C   0  0  0  0  0  0  0  0  0  0  0  0
   -1.2920    0.2060    0.7740 C   0  0  0  0  0  0  0  0  0  0  0  0
   -0.4530    1.1180    0.4340 C   0  0  0  0  0  0  0  0  0  0  0  0
    0.9530    1.0240    0.1110 C   0  0  0  0  0  0  0  0  0  0  0  0
    1.6350    2.1390   -0.2240 C   0  0  0  0  0  0  0  0  0  0  0  0
    2.9830    2.0770   -0.5440 N   0  0  0  0  0  0  0  0  0  0  0  0
    3.6840    1.0060   -0.5580 C   0  0  0  0  0  0  0  0  0  0  0  0
    3.0570   -0.2130   -0.2290 N   0  0  0  0  0  0  0  0  0  0  0  0
    3.7590   -1.4800   -0.2680 C   0  0  0  0  0  0  0  0  0  0  0  0
    1.6610   -0.2480    0.1670 C   0  0  0  0  0  0  0  0  0  0  0  0
   -1.2630   -1.2270    0.9990 C   0  0  0  0  0  0  0  0  0  0  0  0
   -0.3780   -1.9360    1.5070 O   0  0  0  0  0  0  0  0  0  0  0  0
   -2.4950   -1.7050    0.5110 O   0  0  0  0  0  0  0  0  0  0  0  0
  2  1  1  6
  2  3  1  0
  2 15  1  0
  3  4  1  0
  4  5  2  3
  4 13  1  0
  5  6  1  0
  6  7  2  0
  6 12  1  0
  7  8  1  0
  8  9  2  0
  9 10  1  0
 10 11  1  0
 10 12  1  0
 13 14  2  0
 13 15  1  0
M  END
