
     RDKit          3D

 18 19  0  0  0  0  0  0  0  0999 V2000
    2.7910   -1.2660   -0.3350 N   0  0  0  0  0  0  0  0  0  0  0  0
    2.4730   -1.0740    0.8870 C   0  0  0  0  0  0  0  0  0  0  0  0
    3.0830   -1.8440    1.9020 N   0  0  0  0  0  0  0  0  0  0  0  0
    1.4470   -0.0220    1.2280 C   0  0  1  0  0  0  0  0  0  0  0  0
    2.1960    0.8620    2.0770 O   0  0  0  0  0  0  0  0  0  0  0  0
    1.0040    0.6990    0.0320 C   0  0  0  0  0  0  0  0  0  0  0  0
   -0.1900    0.6310   -0.4960 C   0  0  0  0  0  0  0  0  0  0  0  0
   -1.2750   -0.1970    0.0500 C   0  0  0  0  0  0  0  0  0  0  0  0
   -2.4940   -0.2700   -0.4780 C   0  0  0  0  0  0  0  0  0  0  0  0
   -2.8950    0.4250   -1.6090 O   0  0  0  0  0  0  0  0  0  0  0  0
   -3.3860   -1.1730    0.2660 C   0  0  2  0  0  0  0  0  0  0  0  0
   -4.5200   -0.4620    0.6570 O   0  0  0  0  0  0  0  0  0  0  0  0
   -2.5530   -1.4960    1.4820 C   0  0  0  0  0  0  0  0  0  0  0  0
   -1.2850   -1.0270    1.1460 O   0  0  0  0  0  0  0  0  0  0  0  0
   -0.4150    1.4080   -1.6510 O   0  0  0  0  0  0  0  0  0  0  0  0
    0.6250    1.8930   -2.4670 C   0  0  0  0  0  0  0  0  0  0  0  0
    1.6130    2.5520   -1.4970 C   0  0  0  0  0  0  0  0  0  0  0  0
    1.9640    1.5280   -0.5870 O   0  0  0  0  0  0  0  0  0  0  0  0
  1  2  2  0
  2  3  1  0
  2  4  1  0
  4  5  1  1
  4  6  1  0
  6  7  2  0
  6 18  1  0
  7  8  1  0
  7 15  1  0
  8  9  2  0
  8 14  1  0
  9 10  1  0
  9 11  1  0
 11 12  1  1
 11 13  1  0
 13 14  1  0
 15 16  1  0
 16 17  1  0
 17 18  1  0
M  END
