
     RDKit          3D

 15 15  0  0  0  0  0  0  0  0999 V2000
   -1.2190   -3.1000    1.4500 C   0  0  0  0  0  0  0  0  0  0  0  0
   -1.0370   -1.9400    0.8890 C   0  0  0  0  0  0  0  0  0  0  0  0
    0.1140   -1.5350    0.2620 O   0  0  0  0  0  0  0  0  0  0  0  0
   -0.0330   -0.2120   -0.2380 C   0  0  0  0  0  0  0  0  0  0  0  0
    0.9350    0.3940   -0.8810 C   0  0  0  0  0  0  0  0  0  0  0  0
    0.8010    1.7120   -1.3880 C   0  0  0  0  0  0  0  0  0  0  0  0
    0.6990    2.7940   -1.8240 N   0  0  0  0  0  0  0  0  0  0  0  0
    2.2260   -0.2970   -1.1130 C   0  0  0  0  0  0  0  0  0  0  0  0
    3.3210    0.3280   -0.5670 O   0  0  0  0  0  0  0  0  0  0  0  0
    4.4200   -0.4770   -0.9050 C   0  0  0  0  0  0  0  0  0  0  0  0
   -1.3160    0.2560    0.0760 N   0  0  0  0  0  0  0  0  0  0  0  0
   -1.9220    1.5140   -0.1750 C   0  0  0  0  0  0  0  0  0  0  0  0
   -1.4020    2.6700    0.6270 C   0  0  0  0  0  0  0  0  0  0  0  0
   -1.9710   -0.8070    0.7830 C   0  0  0  0  0  0  0  0  0  0  0  0
   -3.1940   -0.8080    1.2690 C   0  0  0  0  0  0  0  0  0  0  0  0
  1  2  2  0
  2  3  1  0
  2 14  1  0
  3  4  1  0
  4  5  2  3
  4 11  1  0
  5  6  1  0
  5  8  1  0
  6  7  3  0
  8  9  1  0
  9 10  1  0
 11 12  1  0
 11 14  1  0
 12 13  1  0
 14 15  2  0
M  END
