
     RDKit          3D

 11 11  0  0  0  0  0  0  0  0999 V2000
   -2.0260   -1.8530    0.9860 O   0  0  0  0  0  0  0  0  0  0  0  0
   -1.7040   -0.9490   -0.1830 S   0  0  1  0  0  0  0  0  0  0  0  0
   -1.7560   -1.7030   -1.4630 O   0  0  0  0  0  0  0  0  0  0  0  0
   -2.7750    0.3810   -0.1190 N   0  0  0  0  0  0  0  0  0  0  0  0
   -2.9330    0.8920   -1.3510 O   0  0  0  0  0  0  0  0  0  0  0  0
   -0.0270   -0.4430    0.0490 C   0  0  0  0  0  0  0  0  0  0  0  0
    0.5390   -0.3850    1.3010 C   0  0  0  0  0  0  0  0  0  0  0  0
    1.8470    0.0080    1.4960 C   0  0  0  0  0  0  0  0  0  0  0  0
    2.6400    0.3620    0.4230 C   0  0  0  0  0  0  0  0  0  0  0  0
    2.0640    0.3010   -0.8280 C   0  0  0  0  0  0  0  0  0  0  0  0
    0.7580   -0.0910   -1.0260 C   0  0  0  0  0  0  0  0  0  0  0  0
  1  2  2  0
  2  3  2  0
  2  4  1  6
  2  6  1  0
  4  5  1  0
  6  7  2  0
  6 11  1  0
  7  8  1  0
  8  9  2  0
  9 10  1  0
 10 11  2  0
M  END
