
     RDKit          3D

 24 26  0  0  0  0  0  0  0  0999 V2000
   -6.2050    3.0130    1.0210 C   0  0  0  0  0  0  0  0  0  0  0  0
   -4.9560    2.1900    0.8840 C   0  0  0  0  0  0  0  0  0  0  0  0
   -3.8550    2.6750    0.2270 C   0  0  0  0  0  0  0  0  0  0  0  0
   -2.6820    1.9080    0.0960 C   0  0  0  0  0  0  0  0  0  0  0  0
   -2.5810    0.6430    0.6150 C   0  0  0  0  0  0  0  0  0  0  0  0
   -1.3460   -0.1760    0.5240 C   0  0  0  0  0  0  0  0  0  0  0  0
   -0.2590    0.3770    0.0390 C   0  0  0  0  0  0  0  0  0  0  0  0
    1.0450   -0.2150   -0.1490 C   0  0  0  0  0  0  0  0  0  0  0  0
    1.2370   -1.4080    0.1610 O   0  0  0  0  0  0  0  0  0  0  0  0
    2.0990    0.5720   -0.6860 N   0  0  0  0  0  0  0  0  0  0  0  0
    3.3980    0.0880   -0.9150 C   0  0  0  0  0  0  0  0  0  0  0  0
    3.6880   -1.2420   -1.0720 C   0  0  0  0  0  0  0  0  0  0  0  0
    5.0140   -1.6280   -1.2660 C   0  0  0  0  0  0  0  0  0  0  0  0
    6.0040   -0.6750   -1.2970 C   0  0  0  0  0  0  0  0  0  0  0  0
    5.7140    0.6730   -1.1390 C   0  0  0  0  0  0  0  0  0  0  0  0
    4.4190    1.0450   -0.9500 C   0  0  0  0  0  0  0  0  0  0  0  0
    6.9710    1.3500   -1.2280 N   0  0  0  0  0  0  0  0  0  0  0  0
    7.9070    0.4670   -1.7780 N   0  0  0  0  0  0  0  0  0  0  0  0
    7.3720   -0.7610   -1.4680 O   0  0  0  0  0  0  0  0  0  0  0  0
   -1.3910   -1.5690    1.0090 C   0  0  0  0  0  0  0  0  0  0  0  0
   -2.1650   -2.4910    0.0920 C   0  0  0  0  0  0  0  0  0  0  0  0
   -2.2230   -3.8330    0.5820 N   0  0  0  0  0  0  0  0  0  0  0  0
   -3.6950    0.1670    1.2730 C   0  0  0  0  0  0  0  0  0  0  0  0
   -4.8680    0.9250    1.4080 C   0  0  0  0  0  0  0  0  0  0  0  0
  1  2  1  0
  2  3  2  0
  2 24  1  0
  3  4  1  0
  4  5  2  0
  5  6  1  0
  5 23  1  0
  6  7  2  3
  6 20  1  0
  7  8  1  0
  8  9  2  0
  8 10  1  0
 10 11  1  0
 11 12  2  0
 11 16  1  0
 12 13  1  0
 13 14  2  0
 14 15  1  0
 14 19  1  0
 15 16  2  0
 15 17  1  0
 17 18  1  0
 18 19  1  0
 20 21  1  0
 21 22  1  0
 23 24  2  0
M  CHG  1  22   1
M  END
