
     RDKit          3D

 24 26  0  0  0  0  0  0  0  0999 V2000
   -5.1210    2.7330   -0.5420 C   0  0  0  0  0  0  0  0  0  0  0  0
   -4.6650    1.6520    0.0850 C   0  0  0  0  0  0  0  0  0  0  0  0
   -3.4730    0.9800   -0.3690 C   0  0  0  0  0  0  0  0  0  0  0  0
   -2.9960   -0.0800    0.2200 C   0  0  0  0  0  0  0  0  0  0  0  0
   -1.7880   -0.7750   -0.2270 C   0  0  0  0  0  0  0  0  0  0  0  0
   -1.1650   -0.1920   -1.3730 N   0  0  0  0  0  0  0  0  0  0  0  0
   -0.1770   -1.1550   -1.8760 C   0  0  0  0  0  0  0  0  0  0  0  0
    1.0400   -1.1170   -1.0270 C   0  0  0  0  0  0  0  0  0  0  0  0
    1.2140   -1.9140    0.0830 C   0  0  0  0  0  0  0  0  0  0  0  0
    2.3750   -1.8290    0.8330 C   0  0  0  0  0  0  0  0  0  0  0  0
    3.3990   -0.9480    0.4980 C   0  0  0  0  0  0  0  0  0  0  0  0
    4.5180   -0.8770    1.2330 N   0  0  0  0  0  0  0  0  0  0  0  0
    5.4940   -0.0270    0.9020 C   0  0  0  0  0  0  0  0  0  0  0  0
    6.5590    0.0370    1.6060 O   0  0  0  0  0  0  0  0  0  0  0  0
    5.3420    0.7580   -0.1790 N   0  0  0  0  0  0  0  0  0  0  0  0
    6.4260    1.6810   -0.5210 C   0  0  0  0  0  0  0  0  0  0  0  0
    4.2310    0.7090   -0.9350 C   0  0  0  0  0  0  0  0  0  0  0  0
    4.1510    1.4660   -1.9290 O   0  0  0  0  0  0  0  0  0  0  0  0
    3.2080   -0.1590   -0.6160 C   0  0  0  0  0  0  0  0  0  0  0  0
    2.0490   -0.2430   -1.3640 C   0  0  0  0  0  0  0  0  0  0  0  0
   -3.7230   -0.5840    1.3860 C   0  0  0  0  0  0  0  0  0  0  0  0
   -3.1940   -1.7370    2.0160 N   0  0  0  0  0  0  0  0  0  0  0  0
   -4.8030   -0.0210    1.8420 C   0  0  0  0  0  0  0  0  0  0  0  0
   -5.4170    1.1670    1.2560 C   0  0  0  0  0  0  0  0  0  0  0  0
  1  2  2  0
  2  3  1  0
  2 24  1  0
  3  4  2  0
  4  5  1  0
  4 21  1  0
  5  6  1  0
  6  7  1  0
  7  8  1  0
  8  9  2  0
  8 20  1  0
  9 10  1  0
 10 11  2  0
 11 12  1  0
 11 19  1  0
 12 13  1  0
 13 14  2  0
 13 15  1  0
 15 16  1  0
 15 17  1  0
 17 18  2  0
 17 19  1  0
 19 20  2  0
 21 22  1  0
 21 23  2  0
 23 24  1  0
M  CHG  1   6   1
M  END
