
     RDKit          3D

 24 26  0  0  0  0  0  0  0  0999 V2000
   -5.1940    2.0900   -0.8780 N   0  0  0  0  0  0  0  0  0  0  0  0
   -5.7390    0.7760   -1.0150 C   0  0  0  0  0  0  0  0  0  0  0  0
   -5.5380   -0.0790    0.2130 C   0  0  0  0  0  0  0  0  0  0  0  0
   -4.1650   -0.2850    0.5670 N   0  0  0  0  0  0  0  0  0  0  0  0
   -4.1060   -1.0930    1.7530 C   0  0  0  0  0  0  0  0  0  0  0  0
   -3.1930   -2.2920    1.6430 C   0  0  0  0  0  0  0  0  0  0  0  0
   -1.8840   -1.7580    1.1460 C   0  0  0  0  0  0  0  0  0  0  0  0
   -0.6820   -2.0110    1.7170 C   0  0  0  0  0  0  0  0  0  0  0  0
    0.4570   -1.4310    1.1300 C   0  0  0  0  0  0  0  0  0  0  0  0
    0.4090   -0.6310    0.0190 C   0  0  0  0  0  0  0  0  0  0  0  0
    1.5320   -0.0290   -0.5820 N   0  0  0  0  0  0  0  0  0  0  0  0
    2.8620    0.0170   -0.1190 C   0  0  0  0  0  0  0  0  0  0  0  0
    3.1130   -0.5360    0.9650 O   0  0  0  0  0  0  0  0  0  0  0  0
    3.8950    0.6650   -0.8450 N   0  0  0  0  0  0  0  0  0  0  0  0
    5.2430    0.7530   -0.4480 C   0  0  0  0  0  0  0  0  0  0  0  0
    5.7960    0.2360    0.6930 C   0  0  0  0  0  0  0  0  0  0  0  0
    7.1600    0.3750    1.0070 C   0  0  0  0  0  0  0  0  0  0  0  0
    8.0190    1.0440    0.1750 C   0  0  0  0  0  0  0  0  0  0  0  0
    7.4710    1.5650   -0.9730 C   0  0  0  0  0  0  0  0  0  0  0  0
    6.1430    1.4340   -1.2840 C   0  0  0  0  0  0  0  0  0  0  0  0
    5.6160    1.9790   -2.4650 O   0  0  0  0  0  0  0  0  0  0  0  0
   -0.8600   -0.4160   -0.5110 C   0  0  0  0  0  0  0  0  0  0  0  0
   -1.9670   -0.9520    0.0210 C   0  0  0  0  0  0  0  0  0  0  0  0
   -3.3490   -0.7500   -0.5150 C   0  0  0  0  0  0  0  0  0  0  0  0
  1  2  1  0
  2  3  1  0
  3  4  1  0
  4  5  1  0
  4 24  1  0
  5  6  1  0
  6  7  1  0
  7  8  2  0
  7 23  1  0
  8  9  1  0
  9 10  2  0
 10 11  1  0
 10 22  1  0
 11 12  1  0
 12 13  2  0
 12 14  1  0
 14 15  1  0
 15 16  2  0
 15 20  1  0
 16 17  1  0
 17 18  2  0
 18 19  1  0
 19 20  2  0
 20 21  1  0
 22 23  2  0
 23 24  1  0
M  CHG  1   1   1
M  END
