
     RDKit          3D

 23 25  0  0  0  0  0  0  0  0999 V2000
    0.0050    3.7160   -0.8810 C   0  0  0  0  0  0  0  0  0  0  0  0
   -0.9920    3.6240    0.1930 C   0  0  0  0  0  0  0  0  0  0  0  0
   -1.7640    2.7170    0.6280 C   0  0  0  0  0  0  0  0  0  0  0  0
   -2.1800    1.3600    0.4660 C   0  0  0  0  0  0  0  0  0  0  0  0
   -3.2520    0.9660    1.1860 C   0  0  0  0  0  0  0  0  0  0  0  0
   -3.7720   -0.3490    1.0900 N   0  0  0  0  0  0  0  0  0  0  0  0
   -3.2830   -1.2380    0.3320 C   0  0  0  0  0  0  0  0  0  0  0  0
   -3.8880   -2.5470    0.2980 N   0  0  0  0  0  0  0  0  0  0  0  0
   -4.5300   -3.0990    1.4350 C   0  0  0  0  0  0  0  0  0  0  0  0
   -3.7650   -3.1480   -0.9140 O   0  0  0  0  0  0  0  0  0  0  0  0
   -2.4410   -3.2750   -1.2470 C   0  0  0  0  0  0  0  0  0  0  0  0
   -1.6370   -2.0140   -1.2790 C   0  0  0  0  0  0  0  0  0  0  0  0
   -2.1570   -0.9810   -0.4690 N   0  0  0  0  0  0  0  0  0  0  0  0
   -1.5760    0.3850   -0.3850 C   0  0  0  0  0  0  0  0  0  0  0  0
   -0.2790    0.3560   -0.7080 C   0  0  0  0  0  0  0  0  0  0  0  0
    0.3360   -0.5490   -1.5810 N   0  0  0  0  0  0  0  0  0  0  0  0
    1.5650   -0.7810   -1.6750 N   0  0  0  0  0  0  0  0  0  0  0  0
    2.5110   -0.0900   -0.8380 C   0  0  0  0  0  0  0  0  0  0  0  0
    3.9650   -0.3700   -0.9550 C   0  0  0  0  0  0  0  0  0  0  0  0
    4.7390    0.4460    0.0240 C   0  0  0  0  0  0  0  0  0  0  0  0
    6.2360    0.1900   -0.0730 C   0  0  0  0  0  0  0  0  0  0  0  0
    2.1000    0.7920    0.0390 C   0  0  0  0  0  0  0  0  0  0  0  0
    0.6760    1.0430    0.1330 N   0  0  0  0  0  0  0  0  0  0  0  0
  1  2  1  0
  2  3  2  3
  3  4  1  0
  4  5  2  0
  4 14  1  0
  5  6  1  0
  6  7  2  0
  7  8  1  0
  7 13  1  0
  8  9  1  0
  8 10  1  0
 10 11  1  0
 11 12  1  0
 12 13  1  0
 13 14  1  0
 14 15  2  3
 15 16  1  0
 15 23  1  0
 16 17  2  0
 17 18  1  0
 18 19  1  0
 18 22  2  0
 19 20  1  0
 20 21  1  0
 22 23  1  0
M  END
