
     RDKit          3D

 24 26  0  0  0  0  0  0  0  0999 V2000
   -3.5030   -3.1400   -0.5060 C   0  0  0  0  0  0  0  0  0  0  0  0
   -3.3840   -1.7610    0.0300 C   0  0  0  0  0  0  0  0  0  0  0  0
   -2.5050   -1.4200    0.9840 N   0  0  0  0  0  0  0  0  0  0  0  0
   -2.3830   -0.1890    1.4780 C   0  0  0  0  0  0  0  0  0  0  0  0
   -1.4290    0.2270    2.5290 C   0  0  0  0  0  0  0  0  0  0  0  0
   -0.0620   -0.1210    2.2760 N   0  0  0  0  0  0  0  0  0  0  0  0
    0.7170    0.5600    1.3180 C   0  0  0  0  0  0  0  0  0  0  0  0
    0.1390    1.4930    0.6760 O   0  0  0  0  0  0  0  0  0  0  0  0
    2.0570    0.2940    1.0230 N   0  0  0  0  0  0  0  0  0  0  0  0
    2.8160    1.0030    0.0050 C   0  0  2  0  0  0  0  0  0  0  0  0
    2.8580    2.4910    0.2110 C   0  0  0  0  0  0  0  0  0  0  0  0
    2.2260    0.6000   -1.3270 C   0  0  0  0  0  0  0  0  0  0  0  0
    2.3990   -0.8590   -1.4080 N   0  0  0  0  0  0  0  0  0  0  0  0
    4.2430    0.5340    0.0050 C   0  0  0  0  0  0  0  0  0  0  0  0
    5.0130    0.5610   -1.1370 C   0  0  0  0  0  0  0  0  0  0  0  0
    6.2630    0.0660   -0.7980 C   0  0  0  0  0  0  0  0  0  0  0  0
    6.1810   -0.2350    0.5420 C   0  0  0  0  0  0  0  0  0  0  0  0
    4.9750    0.0590    0.9620 O   0  0  0  0  0  0  0  0  0  0  0  0
   -3.2430    0.7690    0.9410 C   0  0  0  0  0  0  0  0  0  0  0  0
   -4.1610    0.4600   -0.0400 C   0  0  0  0  0  0  0  0  0  0  0  0
   -4.2530   -0.8150   -0.5190 C   0  0  0  0  0  0  0  0  0  0  0  0
   -5.3200   -0.8920   -1.5690 C   0  0  0  0  0  0  0  0  0  0  0  0
   -5.8190    0.5050   -1.6250 C   0  0  0  0  0  0  0  0  0  0  0  0
   -5.1680    1.2500   -0.7690 C   0  0  0  0  0  0  0  0  0  0  0  0
  1  2  1  0
  2  3  2  0
  2 21  1  0
  3  4  1  0
  4  5  1  0
  4 19  2  0
  5  6  1  0
  6  7  1  0
  7  8  2  0
  7  9  1  0
  9 10  1  0
 10 11  1  1
 10 12  1  0
 10 14  1  0
 12 13  1  0
 14 15  2  0
 14 18  1  0
 15 16  1  0
 16 17  2  0
 17 18  1  0
 19 20  1  0
 20 21  2  0
 20 24  1  0
 21 22  1  0
 22 23  1  0
 23 24  2  0
M  CHG  1  13   1
M  END
