
     RDKit          3D

 24 26  0  0  0  0  0  0  0  0999 V2000
   -7.0160    1.3950    0.9890 N   0  0  0  0  0  0  0  0  0  0  0  0
   -6.4030    0.8140   -0.1530 C   0  0  0  0  0  0  0  0  0  0  0  0
   -7.1910    0.5030   -1.2390 C   0  0  0  0  0  0  0  0  0  0  0  0
   -6.6560   -0.0670   -2.3890 C   0  0  0  0  0  0  0  0  0  0  0  0
   -5.3100   -0.3280   -2.4450 C   0  0  0  0  0  0  0  0  0  0  0  0
   -4.5030   -0.0240   -1.3690 C   0  0  0  0  0  0  0  0  0  0  0  0
   -5.0520    0.5350   -0.2530 C   0  0  0  0  0  0  0  0  0  0  0  0
   -4.2600    0.8420    0.8240 O   0  0  0  0  0  0  0  0  0  0  0  0
   -2.9150    0.5920    0.7920 C   0  0  0  0  0  0  0  0  0  0  0  0
   -2.3530   -0.6080    1.2130 C   0  0  0  0  0  0  0  0  0  0  0  0
   -1.0150   -0.8490    1.1790 C   0  0  0  0  0  0  0  0  0  0  0  0
   -0.1440    0.1280    0.7050 C   0  0  0  0  0  0  0  0  0  0  0  0
    1.2400   -0.1780    0.6920 N   0  0  0  0  0  0  0  0  0  0  0  0
    2.2950    0.6440    0.2490 C   0  0  0  0  0  0  0  0  0  0  0  0
    2.0470    1.7810   -0.1950 O   0  0  0  0  0  0  0  0  0  0  0  0
    3.7060    0.1880    0.2950 C   0  0  0  0  0  0  0  0  0  0  0  0
    4.1260   -0.9710    0.7300 C   0  0  0  0  0  0  0  0  0  0  0  0
    5.5970   -1.0550    0.6180 C   0  0  0  0  0  0  0  0  0  0  0  0
    5.9890    0.2350    0.0470 C   0  0  0  0  0  0  0  0  0  0  0  0
    7.2280    0.6060   -0.2300 C   0  0  0  0  0  0  0  0  0  0  0  0
    8.3390   -0.2360    0.0050 N   0  0  0  0  0  0  0  0  0  0  0  0
    4.8040    0.9900   -0.1450 N   0  0  0  0  0  0  0  0  0  0  0  0
   -0.6970    1.3080    0.2910 C   0  0  0  0  0  0  0  0  0  0  0  0
   -2.0460    1.5560    0.3240 C   0  0  0  0  0  0  0  0  0  0  0  0
  1  2  1  0
  2  3  2  0
  2  7  1  0
  3  4  1  0
  4  5  2  0
  5  6  1  0
  6  7  2  0
  7  8  1  0
  8  9  1  0
  9 10  2  0
  9 24  1  0
 10 11  1  0
 11 12  2  0
 12 13  1  0
 12 23  1  0
 13 14  1  0
 14 15  2  0
 14 16  1  0
 16 17  2  0
 16 22  1  0
 17 18  1  0
 18 19  1  0
 19 20  2  3
 19 22  1  0
 20 21  1  0
 23 24  2  0
M  CHG  1  21   1
M  END
