
     RDKit          3D

 30 33  0  0  0  0  0  0  0  0999 V2000
    0.2240    2.9560    2.9820 C   0  0  0  0  0  0  0  0  0  0  0  0
   -0.1450    2.5590    1.5900 C   0  0  0  0  0  0  0  0  0  0  0  0
   -0.9400    1.2430    1.5350 C   0  0  1  0  0  0  0  0  0  0  0  0
   -2.2060    1.4320    2.3280 C   0  0  0  0  0  0  0  0  0  0  0  0
   -3.4620    1.5460    1.5390 C   0  0  1  0  0  0  0  0  0  0  0  0
   -3.4950    2.5450    0.4470 C   0  0  0  0  0  0  0  0  0  0  0  0
   -3.0810    1.8340   -0.8000 C   0  0  0  0  0  0  0  0  0  0  0  0
   -2.5060    0.5280   -0.2860 C   0  0  2  0  0  0  0  0  0  0  0  0
   -3.4990    0.1990    0.7970 C   0  0  0  0  0  0  0  0  0  0  0  0
   -1.0690    0.6660    0.1730 C   0  0  1  0  0  0  0  0  0  0  0  0
   -0.6170    1.7270   -0.6650 O   0  0  0  0  0  0  0  0  0  0  0  0
   -0.2130   -0.5100   -0.1910 C   0  0  2  0  0  0  0  0  0  0  0  0
    1.2240   -0.0620    0.1120 C   0  0  0  0  0  0  0  0  0  0  0  0
    2.3000   -1.0530   -0.1690 C   0  0  0  0  0  0  0  0  0  0  0  0
    3.5400   -0.3970    0.1910 O   0  0  0  0  0  0  0  0  0  0  0  0
    3.9710    0.7540   -0.3880 C   0  0  0  0  0  0  0  0  0  0  0  0
    3.7970    2.0020    0.0130 C   0  0  0  0  0  0  0  0  0  0  0  0
    4.4400    2.9570   -0.9260 C   0  0  0  0  0  0  0  0  0  0  0  0
    5.0170    2.0530   -1.9410 C   0  0  0  0  0  0  0  0  0  0  0  0
    4.7440    0.7980   -1.6240 C   0  0  0  0  0  0  0  0  0  0  0  0
    5.1920   -0.3740   -2.4590 C   0  0  0  0  0  0  0  0  0  0  0  0
   -0.2320   -0.6600   -1.7250 C   0  0  0  0  0  0  0  0  0  0  0  0
   -0.2510   -2.0560   -2.2160 C   0  0  0  0  0  0  0  0  0  0  0  0
   -1.3520   -2.9330   -1.7430 C   0  0  2  0  0  0  0  0  0  0  0  0
   -2.6420   -2.6910   -2.4920 C   0  0  0  0  0  0  0  0  0  0  0  0
   -1.5420   -2.6700   -0.2620 C   0  0  0  0  0  0  0  0  0  0  0  0
   -0.4390   -1.8340    0.3500 C   0  0  2  0  0  0  0  0  0  0  0  0
   -0.4080   -2.0300    1.8240 C   0  0  0  0  0  0  0  0  0  0  0  0
   -0.6510   -3.5030    2.1860 C   0  0  0  0  0  0  0  0  0  0  0  0
    0.2800   -4.3500    1.6370 O   0  0  0  0  0  0  0  0  0  0  0  0
  1  2  1  0
  3  2  1  6
  3  4  1  0
  3 10  1  0
  5  4  1  6
  5  6  1  0
  5  9  1  0
  6  7  1  0
  8  7  1  1
  8  9  1  0
  8 10  1  0
 10 11  1  6
 10 12  1  0
 12 13  1  1
 12 22  1  0
 12 27  1  0
 13 14  1  0
 14 15  1  0
 15 16  1  0
 16 17  2  0
 16 20  1  0
 17 18  1  0
 18 19  1  0
 19 20  2  0
 20 21  1  0
 22 23  1  0
 23 24  1  0
 24 25  1  6
 24 26  1  0
 26 27  1  0
 27 28  1  1
 28 29  1  0
 29 30  1  0
M  END
