
     RDKit          3D

 30 31  0  0  0  0  0  0  0  0999 V2000
    6.7320   -1.7030   -1.4510 C   0  0  0  0  0  0  0  0  0  0  0  0
    5.3600   -2.3610   -1.5460 C   0  0  0  0  0  0  0  0  0  0  0  0
    4.7760   -2.3540   -0.1960 C   0  0  0  0  0  0  0  0  0  0  0  0
    5.4070   -2.9180    0.6980 O   0  0  0  0  0  0  0  0  0  0  0  0
    3.5010   -1.7260    0.1690 C   0  0  0  0  0  0  0  0  0  0  0  0
    2.8690   -0.9890   -0.9860 C   0  0  0  0  0  0  0  0  0  0  0  0
    1.6020   -0.3180   -0.6160 C   0  0  0  0  0  0  0  0  0  0  0  0
    0.5990   -1.0580   -0.6170 O   0  0  0  0  0  0  0  0  0  0  0  0
    1.5200    1.0740   -0.2820 N   0  0  0  0  0  0  0  0  0  0  0  0
    0.3150    1.5920   -0.0990 C   0  0  0  0  0  0  0  0  0  0  0  0
   -0.9560    0.9710   -0.4370 C   0  0  0  0  0  0  0  0  0  0  0  0
   -1.1650    0.1170   -1.3260 O   0  0  0  0  0  0  0  0  0  0  0  0
   -2.1580    1.3290    0.2890 N   0  0  0  0  0  0  0  0  0  0  0  0
   -3.4690    0.8990    0.1770 C   0  0  0  0  0  0  0  0  0  0  0  0
   -4.0760   -0.3650    0.4890 C   0  0  1  0  0  0  0  0  0  0  0  0
   -5.5840   -0.2530    0.1050 C   0  0  0  0  0  0  0  0  0  0  0  0
   -5.7050    0.0520   -1.3660 C   0  0  0  0  0  0  0  0  0  0  0  0
   -3.5670   -1.6270   -0.0210 C   0  0  0  0  0  0  0  0  0  0  0  0
   -2.2710   -2.0570    0.3680 N   0  0  0  0  0  0  0  0  0  0  0  0
   -4.2160   -0.5110    2.0260 C   0  0  0  0  0  0  0  0  0  0  0  0
   -4.8640   -1.6830    2.4580 N   0  0  0  0  0  0  0  0  0  0  0  0
   -3.7930    0.3320    2.8060 O   0  0  0  0  0  0  0  0  0  0  0  0
    0.2930    2.9300    0.3570 C   0  0  0  0  0  0  0  0  0  0  0  0
    1.4440    3.6240    0.5840 C   0  0  0  0  0  0  0  0  0  0  0  0
    1.7510    5.2880    1.1520 S   0  0  0  0  0  0  0  0  0  0  0  0
    3.6040    5.1420    1.0870 C   0  0  0  0  0  0  0  0  0  0  0  0
    3.7460    3.8890    0.6570 C   0  0  0  0  0  0  0  0  0  0  0  0
    2.7180    3.0840    0.3890 C   0  0  0  0  0  0  0  0  0  0  0  0
    2.6720    1.7600   -0.0600 C   0  0  0  0  0  0  0  0  0  0  0  0
    3.7820    1.1910   -0.2630 O   0  0  0  0  0  0  0  0  0  0  0  0
  1  2  1  0
  2  3  1  0
  3  4  2  0
  3  5  1  0
  5  6  1  0
  6  7  1  0
  7  8  2  0
  7  9  1  0
  9 10  1  0
  9 29  1  0
 10 11  1  0
 10 23  2  0
 11 12  2  0
 11 13  1  0
 13 14  1  0
 15 14  1  1
 15 16  1  0
 15 18  1  0
 15 20  1  0
 16 17  1  0
 18 19  1  0
 20 21  1  0
 20 22  2  0
 23 24  1  0
 24 25  1  0
 24 28  2  0
 25 26  1  0
 26 27  2  0
 27 28  1  0
 28 29  1  0
 29 30  2  0
M  CHG  1  19   1
M  END
