
     RDKit          3D

 29 32  0  0  0  0  0  0  0  0999 V2000
    7.4310   -0.3660    2.5290 O   0  0  0  0  0  0  0  0  0  0  0  0
    6.3960    0.0370    1.9020 C   0  0  0  0  0  0  0  0  0  0  0  0
    5.2500   -0.7270    1.8850 C   0  0  0  0  0  0  0  0  0  0  0  0
    4.1180   -0.2860    1.2000 C   0  0  0  0  0  0  0  0  0  0  0  0
    4.1420    0.8860    0.5520 N   0  0  0  0  0  0  0  0  0  0  0  0
    2.9720    1.3530   -0.1630 C   0  0  1  0  0  0  0  0  0  0  0  0
    3.0710    0.8450   -1.5730 C   0  0  0  0  0  0  0  0  0  0  0  0
    1.8300   -0.0340   -1.6710 C   0  0  2  0  0  0  0  0  0  0  0  0
    1.3410    0.0720   -2.9590 O   0  0  0  0  0  0  0  0  0  0  0  0
    0.9300    0.6340   -0.6560 C   0  0  1  0  0  0  0  0  0  0  0  0
   -0.1920   -0.2870   -0.2250 C   0  0  0  0  0  0  0  0  0  0  0  0
   -1.0820   -0.5240   -1.3240 N   0  0  0  0  0  0  0  0  0  0  0  0
   -2.4740   -0.4690   -1.0440 C   0  0  1  0  0  0  0  0  0  0  0  0
   -3.0840   -1.6260   -0.4010 C   0  0  0  0  0  0  0  0  0  0  0  0
   -4.2580   -2.1350   -0.9360 C   0  0  0  0  0  0  0  0  0  0  0  0
   -4.9410   -3.2140   -0.4250 C   0  0  0  0  0  0  0  0  0  0  0  0
   -4.4430   -3.8470    0.6930 C   0  0  0  0  0  0  0  0  0  0  0  0
   -3.2800   -3.3670    1.2490 C   0  0  0  0  0  0  0  0  0  0  0  0
   -2.6100   -2.2740    0.7120 C   0  0  0  0  0  0  0  0  0  0  0  0
   -2.7790    0.7880   -0.2920 C   0  0  0  0  0  0  0  0  0  0  0  0
   -2.3210    2.0120   -0.7340 C   0  0  0  0  0  0  0  0  0  0  0  0
   -2.5770    3.1840   -0.0640 C   0  0  0  0  0  0  0  0  0  0  0  0
   -3.3190    3.1480    1.0940 C   0  0  0  0  0  0  0  0  0  0  0  0
   -3.8070    1.9400    1.5860 C   0  0  0  0  0  0  0  0  0  0  0  0
   -3.5200    0.7960    0.8750 C   0  0  0  0  0  0  0  0  0  0  0  0
    1.8110    0.8820    0.3900 O   0  0  0  0  0  0  0  0  0  0  0  0
    5.2630    1.6180    0.5770 C   0  0  0  0  0  0  0  0  0  0  0  0
    5.2980    2.7280   -0.0310 O   0  0  0  0  0  0  0  0  0  0  0  0
    6.3770    1.2060    1.2400 N   0  0  0  0  0  0  0  0  0  0  0  0
  1  2  2  0
  2  3  1  0
  2 29  1  0
  3  4  2  0
  4  5  1  0
  6  5  1  1
  5 27  1  0
  6  7  1  0
  6 26  1  0
  7  8  1  0
  8  9  1  6
  8 10  1  0
 10 11  1  1
 10 26  1  0
 11 12  1  0
 13 12  1  1
 13 14  1  0
 13 20  1  0
 14 15  2  0
 14 19  1  0
 15 16  1  0
 16 17  2  0
 17 18  1  0
 18 19  2  0
 20 21  2  0
 20 25  1  0
 21 22  1  0
 22 23  2  0
 23 24  1  0
 24 25  2  0
 27 28  2  0
 27 29  1  0
M  CHG  1  12   1
M  END
