
     RDKit          3D

 30 33  0  0  0  0  0  0  0  0999 V2000
   -2.9180   -0.2540    3.9560 C   0  0  0  0  0  0  0  0  0  0  0  0
   -2.9040   -0.2900    2.4510 C   0  0  0  0  0  0  0  0  0  0  0  0
   -1.5700   -0.8630    1.9290 C   0  0  0  0  0  0  0  0  0  0  0  0
   -1.7120   -0.8340    0.4470 C   0  0  0  0  0  0  0  0  0  0  0  0
   -1.0050   -0.2500   -0.4920 C   0  0  0  0  0  0  0  0  0  0  0  0
    0.2110    0.5910   -0.2200 C   0  0  2  0  0  0  0  0  0  0  0  0
   -0.0560    2.0010    0.0330 C   0  0  0  0  0  0  0  0  0  0  0  0
   -0.7090    2.9280   -0.8800 C   0  0  1  0  0  0  0  0  0  0  0  0
   -2.0970    2.6800   -1.3260 C   0  0  0  0  0  0  0  0  0  0  0  0
   -0.7680    4.2740   -0.0840 C   0  0  0  0  0  0  0  0  0  0  0  0
    0.1040    3.3060   -2.1110 C   0  0  0  0  0  0  0  0  0  0  0  0
    1.2370    0.3500   -1.3300 C   0  0  0  0  0  0  0  0  0  0  0  0
    2.4880    0.7520   -0.5850 C   0  0  0  0  0  0  0  0  0  0  0  0
    2.2320    0.1900    0.7360 C   0  0  2  0  0  0  0  0  0  0  0  0
    2.5940    1.2590    1.7880 C   0  0  0  0  0  0  0  0  0  0  0  0
    2.8830   -1.0460    1.1720 C   0  0  1  0  0  0  0  0  0  0  0  0
    2.3900   -1.4070    2.5860 C   0  0  0  0  0  0  0  0  0  0  0  0
    3.0110   -2.2570    0.3600 C   0  0  1  0  0  0  0  0  0  0  0  0
    3.5160   -2.1630   -0.9250 O   0  0  0  0  0  0  0  0  0  0  0  0
    4.2220   -2.5870    1.2660 C   0  0  0  0  0  0  0  0  0  0  0  0
    4.4170   -1.0560    1.2630 C   0  0  1  0  0  0  0  0  0  0  0  0
    5.0160   -0.6450    0.1010 O   0  0  0  0  0  0  0  0  0  0  0  0
    0.8580    0.0240    0.8500 O   0  0  0  0  0  0  0  0  0  0  0  0
   -1.6080   -0.5200   -1.7820 C   0  0  0  0  0  0  0  0  0  0  0  0
   -1.7060   -0.1730   -3.0300 C   0  0  0  0  0  0  0  0  0  0  0  0
   -2.6430   -1.0670   -3.7690 C   0  0  0  0  0  0  0  0  0  0  0  0
   -3.5100   -1.5990   -2.6110 C   0  0  0  0  0  0  0  0  0  0  0  0
   -2.4630   -1.7450   -1.5660 C   0  0  1  0  0  0  0  0  0  0  0  0
   -1.6540   -3.0080   -1.6980 C   0  0  0  0  0  0  0  0  0  0  0  0
   -2.8680   -1.5680   -0.1600 C   0  0  0  0  0  0  0  0  0  0  0  0
  1  2  1  0
  2  3  1  0
  3  4  1  0
  4  5  2  0
  4 30  1  0
  5  6  1  0
  5 24  1  0
  6  7  1  1
  6 12  1  0
  6 23  1  0
  7  8  1  0
  8  9  1  6
  8 10  1  0
  8 11  1  0
 12 13  1  0
 13 14  1  0
 14 15  1  1
 14 16  1  0
 14 23  1  0
 16 17  1  1
 16 18  1  0
 16 21  1  0
 18 19  1  6
 18 20  1  0
 20 21  1  0
 21 22  1  6
 24 25  2  0
 24 28  1  0
 25 26  1  0
 26 27  1  0
 27 28  1  0
 28 29  1  1
 28 30  1  0
M  END
