
     RDKit          3D

 30 32  0  0  0  0  0  0  0  0999 V2000
   -6.0190   -0.0430    0.4560 C   0  0  0  0  0  0  0  0  0  0  0  0
   -4.6790    0.1690    1.0580 C   0  0  2  0  0  0  0  0  0  0  0  0
   -4.8560   -0.4040    2.4960 C   0  0  0  0  0  0  0  0  0  0  0  0
   -4.4960    1.6480    1.3090 C   0  0  0  0  0  0  0  0  0  0  0  0
   -4.7410    2.4670    0.1030 C   0  0  0  0  0  0  0  0  0  0  0  0
   -3.5810    2.4960   -0.8270 C   0  0  0  0  0  0  0  0  0  0  0  0
   -2.4440    1.5860   -0.4410 C   0  0  0  0  0  0  0  0  0  0  0  0
   -2.6670    0.1360   -0.5400 C   0  0  2  0  0  0  0  0  0  0  0  0
   -1.4020   -0.5980   -0.8030 C   0  0  1  0  0  0  0  0  0  0  0  0
   -0.8040   -0.1710   -2.0190 O   0  0  0  0  0  0  0  0  0  0  0  0
   -0.3220   -0.8220    0.1790 C   0  0  2  0  0  0  0  0  0  0  0  0
    0.2370    0.4710    0.7050 C   0  0  0  0  0  0  0  0  0  0  0  0
    1.5870    0.3690    1.3770 C   0  0  0  0  0  0  0  0  0  0  0  0
    2.6350    0.7860    0.3820 C   0  0  0  0  0  0  0  0  0  0  0  0
    2.7830   -0.2120   -0.7040 C   0  0  1  0  0  0  0  0  0  0  0  0
    4.2460   -0.4860   -1.0840 C   0  0  0  0  0  0  0  0  0  0  0  0
    5.0410   -1.0140    0.0550 C   0  0  0  0  0  0  0  0  0  0  0  0
    6.4580   -1.2590   -0.4160 C   0  0  0  0  0  0  0  0  0  0  0  0
    7.1400   -0.0090   -0.9160 C   0  0  0  0  0  0  0  0  0  0  0  0
    7.2330    1.0550    0.1480 C   0  0  0  0  0  0  0  0  0  0  0  0
    8.0170    0.5840    1.3540 C   0  0  0  0  0  0  0  0  0  0  0  0
    8.0390    1.6380    2.2690 O   0  0  0  0  0  0  0  0  0  0  0  0
    2.1370   -1.4960   -0.2520 C   0  0  0  0  0  0  0  0  0  0  0  0
    0.7130   -1.6740   -0.5070 C   0  0  0  0  0  0  0  0  0  0  0  0
   -3.3900   -0.0010   -1.9150 C   0  0  0  0  0  0  0  0  0  0  0  0
   -3.6420   -1.3940   -2.3330 C   0  0  0  0  0  0  0  0  0  0  0  0
   -4.4880   -2.0660   -1.3080 C   0  0  0  0  0  0  0  0  0  0  0  0
   -3.9440   -1.9120    0.0440 C   0  0  0  0  0  0  0  0  0  0  0  0
   -3.5190   -0.5290    0.4790 C   0  0  2  0  0  0  0  0  0  0  0  0
   -2.6770   -0.7840    1.5780 O   0  0  0  0  0  0  0  0  0  0  0  0
  2  1  1  6
  2  3  1  0
  2  4  1  0
  2 29  1  0
  4  5  1  0
  5  6  1  0
  6  7  1  0
  8  7  1  1
  8  9  1  0
  8 25  1  0
  8 29  1  0
  9 10  1  6
  9 11  1  0
 11 12  1  6
 11 24  1  0
 12 13  1  0
 13 14  1  0
 14 15  1  0
 15 16  1  1
 15 23  1  0
 16 17  1  0
 17 18  1  0
 18 19  1  0
 19 20  1  0
 20 21  1  0
 21 22  1  0
 23 24  1  0
 25 26  1  0
 26 27  1  0
 27 28  1  0
 28 29  1  0
 29 30  1  1
M  END
