
     RDKit          3D

 30 31  0  0  0  0  0  0  0  0999 V2000
    7.3520   -2.6410   -0.4580 C   0  0  0  0  0  0  0  0  0  0  0  0
    6.9390   -1.3310    0.1780 C   0  0  0  0  0  0  0  0  0  0  0  0
    5.6350   -0.8700   -0.3520 C   0  0  0  0  0  0  0  0  0  0  0  0
    4.9610   -1.6080   -1.3180 C   0  0  0  0  0  0  0  0  0  0  0  0
    3.7470   -1.1490   -1.7880 C   0  0  0  0  0  0  0  0  0  0  0  0
    3.2060    0.0260   -1.3110 C   0  0  0  0  0  0  0  0  0  0  0  0
    1.9860    0.4570   -1.8050 O   0  0  0  0  0  0  0  0  0  0  0  0
    1.4640    1.6370   -1.3030 C   0  0  0  0  0  0  0  0  0  0  0  0
    0.3260    1.6440   -0.6080 C   0  0  0  0  0  0  0  0  0  0  0  0
   -0.1970    2.8090   -0.1070 C   0  0  0  0  0  0  0  0  0  0  0  0
    0.4000    3.9120   -0.3000 O   0  0  0  0  0  0  0  0  0  0  0  0
   -1.3540    2.8060    0.5990 N   0  0  0  0  0  0  0  0  0  0  0  0
   -2.0310    1.6350    0.8300 C   0  0  0  0  0  0  0  0  0  0  0  0
   -3.1310    1.5810    1.5160 C   0  0  0  0  0  0  0  0  0  0  0  0
   -3.8030    2.6850    2.1240 C   0  0  0  0  0  0  0  0  0  0  0  0
   -5.0970    2.4570    2.9040 C   0  0  0  0  0  0  0  0  0  0  0  0
   -3.4360    3.8800    2.0900 O   0  0  0  0  0  0  0  0  0  0  0  0
   -1.5360    0.4750    0.3460 N   0  0  0  0  0  0  0  0  0  0  0  0
   -2.1510   -0.7730    0.4670 C   0  0  0  0  0  0  0  0  0  0  0  0
   -3.0230   -1.2490   -0.6290 C   0  0  0  0  0  0  0  0  0  0  0  0
   -4.1280   -0.3540   -0.8420 N   0  0  0  0  0  0  0  0  0  0  0  0
   -4.8920   -0.7950   -2.0080 C   0  0  0  0  0  0  0  0  0  0  0  0
   -5.5990   -2.1050   -1.7460 C   0  0  0  0  0  0  0  0  0  0  0  0
   -6.7470   -1.9690   -0.3680 S   0  0  0  0  0  0  0  0  0  0  0  0
   -7.0590   -3.3670    0.1910 O   0  0  0  0  0  0  0  0  0  0  0  0
   -0.3790    0.5080   -0.3550 C   0  0  0  0  0  0  0  0  0  0  0  0
    0.1250   -0.5680   -0.8300 O   0  0  0  0  0  0  0  0  0  0  0  0
    3.9010    0.7350   -0.3530 C   0  0  0  0  0  0  0  0  0  0  0  0
    5.1130    0.3060    0.1380 C   0  0  0  0  0  0  0  0  0  0  0  0
    5.7620    1.0990    1.1230 N   0  0  0  0  0  0  0  0  0  0  0  0
  1  2  1  0
  2  3  1  0
  3  4  2  0
  3 29  1  0
  4  5  1  0
  5  6  2  0
  6  7  1  0
  6 28  1  0
  7  8  1  0
  8  9  2  3
  9 10  1  0
  9 26  1  0
 10 11  2  0
 10 12  1  0
 12 13  1  0
 13 14  2  3
 13 18  1  0
 14 15  1  0
 15 16  1  0
 15 17  2  0
 18 19  1  0
 18 26  1  0
 19 20  1  0
 20 21  1  0
 21 22  1  0
 22 23  1  0
 23 24  1  0
 24 25  2  0
 26 27  2  0
 28 29  2  0
 29 30  1  0
M  CHG  1  30   1
M  END
