
     RDKit          3D

 30 32  0  0  0  0  0  0  0  0999 V2000
   -6.6530    0.3680   -0.8750 C   0  0  0  0  0  0  0  0  0  0  0  0
   -5.3590    0.5890   -0.2120 C   0  0  0  0  0  0  0  0  0  0  0  0
   -5.2750    1.4800    0.7610 C   0  0  0  0  0  0  0  0  0  0  0  0
   -6.4020    2.2540    1.2130 C   0  0  0  0  0  0  0  0  0  0  0  0
   -6.2390    3.1110    2.1620 O   0  0  0  0  0  0  0  0  0  0  0  0
   -4.1430   -0.1250   -0.6250 C   0  0  0  0  0  0  0  0  0  0  0  0
   -2.8860    0.2630   -0.1600 C   0  0  0  0  0  0  0  0  0  0  0  0
   -1.7230   -0.4230   -0.5030 C   0  0  0  0  0  0  0  0  0  0  0  0
   -0.5000    0.0090   -0.0110 O   0  0  0  0  0  0  0  0  0  0  0  0
   -0.3910    1.1190    0.8260 C   0  0  0  0  0  0  0  0  0  0  0  0
    1.0580    1.2920    1.1590 C   0  0  0  0  0  0  0  0  0  0  0  0
    1.5170    2.3070    1.9750 C   0  0  0  0  0  0  0  0  0  0  0  0
    2.8710    2.1450    2.0470 C   0  0  0  0  0  0  0  0  0  0  0  0
    3.2040    1.0630    1.2930 C   0  0  0  0  0  0  0  0  0  0  0  0
    4.5310    0.4880    1.0550 C   0  0  0  0  0  0  0  0  0  0  0  0
    5.5460    1.0080    1.5840 O   0  0  0  0  0  0  0  0  0  0  0  0
    4.6980   -0.6460    0.2400 N   0  0  0  0  0  0  0  0  0  0  0  0
    5.9740   -1.2440   -0.0220 C   0  0  0  0  0  0  0  0  0  0  0  0
    6.6640   -0.7760   -1.1170 C   0  0  0  0  0  0  0  0  0  0  0  0
    5.8800    0.6250   -2.2010 Br  0  0  0  0  0  0  0  0  0  0  0  0
    7.8920   -1.2130   -1.5360 C   0  0  0  0  0  0  0  0  0  0  0  0
    8.6440   -2.1980   -0.9280 C   0  0  0  0  0  0  0  0  0  0  0  0
    7.9280   -2.8900    0.4560 S   0  0  0  0  0  0  0  0  0  0  0  0
    6.4070   -2.2300    0.8310 C   0  0  0  0  0  0  0  0  0  0  0  0
    5.6940   -2.5830    1.8050 O   0  0  0  0  0  0  0  0  0  0  0  0
    2.0830    0.5990    0.7910 O   0  0  0  0  0  0  0  0  0  0  0  0
   -1.7810   -1.5220   -1.3250 C   0  0  0  0  0  0  0  0  0  0  0  0
   -3.0140   -1.9120   -1.7870 C   0  0  0  0  0  0  0  0  0  0  0  0
   -4.2000   -1.2200   -1.4420 C   0  0  0  0  0  0  0  0  0  0  0  0
   -5.4180   -1.7360   -1.9550 N   0  0  0  0  0  0  0  0  0  0  0  0
  1  2  1  0
  2  3  2  3
  2  6  1  0
  3  4  1  0
  4  5  2  0
  6  7  2  0
  6 29  1  0
  7  8  1  0
  8  9  1  0
  8 27  2  0
  9 10  1  0
 10 11  1  0
 11 12  2  0
 11 26  1  0
 12 13  1  0
 13 14  2  0
 14 15  1  0
 14 26  1  0
 15 16  2  0
 15 17  1  0
 17 18  1  0
 18 19  2  0
 18 24  1  0
 19 20  1  0
 19 21  1  0
 21 22  2  0
 22 23  1  0
 23 24  1  0
 24 25  2  0
 27 28  1  0
 28 29  2  0
 29 30  1  0
M  END
