
     RDKit          3D

 30 32  0  0  0  0  0  0  0  0999 V2000
   -3.9200    0.1250   -3.4750 C   0  0  0  0  0  0  0  0  0  0  0  0
   -3.3020   -0.0040   -2.1460 C   0  0  0  0  0  0  0  0  0  0  0  0
   -4.0370   -0.1650   -1.0580 C   0  0  0  0  0  0  0  0  0  0  0  0
   -3.4560   -0.2910    0.2330 N   0  0  0  0  0  0  0  0  0  0  0  0
   -2.0980   -0.0830    0.5960 C   0  0  0  0  0  0  0  0  0  0  0  0
   -1.2730    0.2420   -0.2600 O   0  0  0  0  0  0  0  0  0  0  0  0
   -1.6900   -0.2530    2.0180 C   0  0  0  0  0  0  0  0  0  0  0  0
   -2.4180   -0.7210    3.0050 O   0  0  0  0  0  0  0  0  0  0  0  0
   -1.7660   -0.7290    4.1340 C   0  0  0  0  0  0  0  0  0  0  0  0
   -2.2820   -1.2000    5.4740 C   0  0  0  0  0  0  0  0  0  0  0  0
   -0.5190   -0.2280    3.8730 C   0  0  0  0  0  0  0  0  0  0  0  0
   -0.4690    0.0730    2.5280 C   0  0  0  0  0  0  0  0  0  0  0  0
    0.6900    0.5730    1.8120 C   0  0  0  0  0  0  0  0  0  0  0  0
    1.2000    1.6630    2.0730 O   0  0  0  0  0  0  0  0  0  0  0  0
    1.3030   -0.2110    0.7560 N   0  0  0  0  0  0  0  0  0  0  0  0
    2.4340    0.2380    0.0230 C   0  0  0  0  0  0  0  0  0  0  0  0
    2.6240    1.5540   -0.3040 C   0  0  0  0  0  0  0  0  0  0  0  0
    3.7470    2.0140   -0.9610 C   0  0  0  0  0  0  0  0  0  0  0  0
    4.7260    1.1210   -1.3090 C   0  0  0  0  0  0  0  0  0  0  0  0
    4.5830   -0.2110   -1.0040 C   0  0  0  0  0  0  0  0  0  0  0  0
    3.4350   -0.6600   -0.3370 C   0  0  0  0  0  0  0  0  0  0  0  0
    5.6020   -1.1880   -1.3320 C   0  0  0  0  0  0  0  0  0  0  0  0
    5.7230   -2.2090   -0.5840 O   0  0  0  0  0  0  0  0  0  0  0  0
    6.5200   -1.0920   -2.4750 C   0  0  0  0  0  0  0  0  0  0  0  0
    6.5570    0.5330   -3.2400 S   0  0  0  0  0  0  0  0  0  0  0  0
    5.9130    1.7030   -2.0050 C   0  0  0  0  0  0  0  0  0  0  0  0
   -5.4940   -0.1300   -1.1250 C   0  0  0  0  0  0  0  0  0  0  0  0
   -6.0410    0.1080   -2.4130 O   0  0  0  0  0  0  0  0  0  0  0  0
   -6.3640   -0.2830   -0.1880 C   0  0  0  0  0  0  0  0  0  0  0  0
   -6.2480   -0.6090    1.6520 Br  0  0  0  0  0  0  0  0  0  0  0  0
  1  2  1  0
  2  3  2  3
  3  4  1  0
  3 27  1  0
  4  5  1  0
  5  6  2  0
  5  7  1  0
  7  8  1  0
  7 12  2  0
  8  9  1  0
  9 10  1  0
  9 11  2  0
 11 12  1  0
 12 13  1  0
 13 14  2  0
 13 15  1  0
 15 16  1  0
 16 17  2  0
 16 21  1  0
 17 18  1  0
 18 19  2  0
 19 20  1  0
 19 26  1  0
 20 21  2  0
 20 22  1  0
 22 23  2  0
 22 24  1  0
 24 25  1  0
 25 26  1  0
 27 28  1  0
 27 29  2  3
 29 30  1  0
M  END
