
     RDKit          3D

 30 32  0  0  0  0  0  0  0  0999 V2000
    6.3860    1.6220    1.6960 C   0  0  0  0  0  0  0  0  0  0  0  0
    5.6400    1.0270    2.6880 O   0  0  0  0  0  0  0  0  0  0  0  0
    4.3330    0.9060    2.3370 C   0  0  0  0  0  0  0  0  0  0  0  0
    4.0730    0.0080    1.2120 C   0  0  0  0  0  0  0  0  0  0  0  0
    5.0250   -0.6780    0.6090 N   0  0  0  0  0  0  0  0  0  0  0  0
    4.8390   -1.5260   -0.4040 C   0  0  0  0  0  0  0  0  0  0  0  0
    5.9010   -2.2260   -1.0020 O   0  0  0  0  0  0  0  0  0  0  0  0
    3.5620   -1.7050   -0.8590 C   0  0  0  0  0  0  0  0  0  0  0  0
    3.2710   -2.9070   -2.3010 Br  0  0  0  0  0  0  0  0  0  0  0  0
    2.5190   -1.0010   -0.2520 C   0  0  0  0  0  0  0  0  0  0  0  0
    2.7560   -0.1410    0.7830 C   0  0  0  0  0  0  0  0  0  0  0  0
    1.6540    0.5640    1.4430 C   0  0  0  0  0  0  0  0  0  0  0  0
    0.4370    0.3240    0.7980 O   0  0  0  0  0  0  0  0  0  0  0  0
    0.1210    0.7030   -0.4870 C   0  0  0  0  0  0  0  0  0  0  0  0
    1.0040    1.3190   -1.1080 O   0  0  0  0  0  0  0  0  0  0  0  0
   -1.2200    0.3920   -1.1140 C   0  0  0  0  0  0  0  0  0  0  0  0
   -1.4780    0.8510   -2.3490 C   0  0  0  0  0  0  0  0  0  0  0  0
   -1.0840    1.8790   -3.2070 N   0  0  0  0  0  0  0  0  0  0  0  0
   -0.5410    3.0990   -2.8550 C   0  0  0  0  0  0  0  0  0  0  0  0
   -0.1170    4.0940   -3.9280 C   0  0  0  0  0  0  0  0  0  0  0  0
   -0.3550    3.4890   -1.6930 O   0  0  0  0  0  0  0  0  0  0  0  0
   -3.0190   -0.0870   -2.7750 S   0  0  0  0  0  0  0  0  0  0  0  0
   -3.1260   -0.9530   -1.2590 C   0  0  0  0  0  0  0  0  0  0  0  0
   -2.0260   -0.5130   -0.5240 C   0  0  0  0  0  0  0  0  0  0  0  0
   -2.0200   -1.1950    0.8450 C   0  0  0  0  0  0  0  0  0  0  0  0
   -3.4060   -0.8620    1.4310 C   0  0  0  0  0  0  0  0  0  0  0  0
   -4.4790   -1.6450    0.7080 C   0  0  2  0  0  0  0  0  0  0  0  0
   -5.7570   -0.8340    0.6580 C   0  0  0  0  0  0  0  0  0  0  0  0
   -4.7580   -2.9570    1.4110 C   0  0  0  0  0  0  0  0  0  0  0  0
   -4.0820   -1.9580   -0.7140 C   0  0  0  0  0  0  0  0  0  0  0  0
  1  2  1  0
  2  3  1  0
  3  4  1  0
  4  5  2  0
  4 11  1  0
  5  6  1  0
  6  7  1  0
  6  8  2  0
  8  9  1  0
  8 10  1  0
 10 11  2  0
 11 12  1  0
 12 13  1  0
 13 14  1  0
 14 15  2  0
 14 16  1  0
 16 17  2  0
 16 24  1  0
 17 18  1  0
 17 22  1  0
 18 19  1  0
 19 20  1  0
 19 21  2  0
 22 23  1  0
 23 24  2  0
 23 30  1  0
 24 25  1  0
 25 26  1  0
 26 27  1  0
 27 28  1  6
 27 29  1  0
 27 30  1  0
M  END
