
     RDKit          3D

 30 32  0  0  0  0  0  0  0  0999 V2000
   -7.5610   -0.0290   -1.3890 C   0  0  0  0  0  0  0  0  0  0  0  0
   -7.6530    0.2670    0.0370 C   0  0  0  0  0  0  0  0  0  0  0  0
   -9.2920    0.1480    0.9400 S   0  0  0  0  0  0  0  0  0  0  0  0
   -8.5510    0.5950    2.5000 C   0  0  0  0  0  0  0  0  0  0  0  0
   -9.2260    0.6880    3.5780 O   0  0  0  0  0  0  0  0  0  0  0  0
   -7.2630    0.7770    2.2320 N   0  0  0  0  0  0  0  0  0  0  0  0
   -6.8160    0.6140    0.9990 C   0  0  0  0  0  0  0  0  0  0  0  0
   -5.3200    0.8120    0.6510 C   0  0  0  0  0  0  0  0  0  0  0  0
   -4.6810   -0.5220    0.5540 C   0  0  0  0  0  0  0  0  0  0  0  0
   -3.1840   -0.2590    0.2770 C   0  0  0  0  0  0  0  0  0  0  0  0
   -2.8300    0.4810   -0.6710 O   0  0  0  0  0  0  0  0  0  0  0  0
   -2.2550   -0.8460    1.0740 O   0  0  0  0  0  0  0  0  0  0  0  0
   -0.9220   -0.7080    0.9790 C   0  0  0  0  0  0  0  0  0  0  0  0
   -0.1450    0.2360    1.6730 C   0  0  0  0  0  0  0  0  0  0  0  0
    1.1870    0.3430    1.5780 C   0  0  0  0  0  0  0  0  0  0  0  0
    1.9060   -0.5280    0.7310 C   0  0  0  0  0  0  0  0  0  0  0  0
    3.2440   -0.4550    0.6290 O   0  0  0  0  0  0  0  0  0  0  0  0
    3.9870   -0.1510   -0.4770 C   0  0  0  0  0  0  0  0  0  0  0  0
    3.4230    0.1480   -1.6750 C   0  0  0  0  0  0  0  0  0  0  0  0
    4.2300    0.4510   -2.7340 C   0  0  0  0  0  0  0  0  0  0  0  0
    5.5970    0.4610   -2.6090 C   0  0  0  0  0  0  0  0  0  0  0  0
    6.3940    0.7700   -3.6970 O   0  0  0  0  0  0  0  0  0  0  0  0
    6.2060    0.1590   -1.3810 C   0  0  0  0  0  0  0  0  0  0  0  0
    7.6700    0.1060   -1.3230 C   0  0  0  0  0  0  0  0  0  0  0  0
    5.3950   -0.1420   -0.3330 C   0  0  0  0  0  0  0  0  0  0  0  0
    5.9120   -0.6740    0.9340 C   0  0  0  0  0  0  0  0  0  0  0  0
    6.3320    0.4480    1.8210 N   0  0  0  0  0  0  0  0  0  0  0  0
    1.1860   -1.4530    0.0390 C   0  0  0  0  0  0  0  0  0  0  0  0
    2.1100   -2.6950   -1.1260 Br  0  0  0  0  0  0  0  0  0  0  0  0
   -0.2160   -1.5630    0.1450 C   0  0  0  0  0  0  0  0  0  0  0  0
  1  2  1  0
  2  3  1  0
  2  7  2  0
  3  4  1  0
  4  5  2  0
  4  6  1  0
  6  7  1  0
  7  8  1  0
  8  9  1  0
  9 10  1  0
 10 11  2  0
 10 12  1  0
 12 13  1  0
 13 14  2  0
 13 30  1  0
 14 15  1  0
 15 16  2  0
 16 17  1  0
 16 28  1  0
 17 18  1  0
 18 19  2  0
 18 25  1  0
 19 20  1  0
 20 21  2  0
 21 22  1  0
 21 23  1  0
 23 24  1  0
 23 25  2  0
 25 26  1  0
 26 27  1  0
 28 29  1  0
 28 30  2  0
M  END
