
     RDKit          3D

 14 14  0  0  0  0  0  0  0  0999 V2000
    3.8110   -0.5040    0.9690 C   0  0  0  0  0  0  0  0  0  0  0  0
    2.4680   -0.5030    0.5660 O   0  0  0  0  0  0  0  0  0  0  0  0
    1.6190    0.5640    0.6460 C   0  0  0  0  0  0  0  0  0  0  0  0
    2.1380    1.6280    1.1360 O   0  0  0  0  0  0  0  0  0  0  0  0
    0.2140    0.5990    0.2380 C   0  0  0  0  0  0  0  0  0  0  0  0
   -0.4420   -0.4130   -0.2870 C   0  0  0  0  0  0  0  0  0  0  0  0
    0.2460   -1.7030   -0.5190 C   0  0  0  0  0  0  0  0  0  0  0  0
   -1.8400   -0.3040   -0.5350 N   0  0  0  0  0  0  0  0  0  0  0  0
   -2.7070   -1.4160   -0.5430 C   0  0  0  0  0  0  0  0  0  0  0  0
   -2.2780   -2.5550   -0.2970 O   0  0  0  0  0  0  0  0  0  0  0  0
   -2.4650    0.9910   -0.7460 C   0  0  0  0  0  0  0  0  0  0  0  0
   -1.7130    2.0880   -0.1390 C   0  0  0  0  0  0  0  0  0  0  0  0
   -2.4880    3.6790   -0.0130 Cl  0  0  0  0  0  0  0  0  0  0  0  0
   -0.4950    1.8900    0.3000 C   0  0  0  0  0  0  0  0  0  0  0  0
  1  2  1  0
  2  3  1  0
  3  4  2  0
  3  5  1  0
  5  6  2  0
  5 14  1  0
  6  7  1  0
  6  8  1  0
  8  9  1  0
  8 11  1  0
  9 10  2  0
 11 12  1  0
 12 13  1  0
 12 14  2  0
M  END
