
     RDKit          3D

 21 21  0  0  0  0  0  0  0  0999 V2000
    4.4360    2.1250   -0.4230 C   0  0  0  0  0  0  0  0  0  0  0  0
    3.4770    1.9740    0.6260 O   0  0  0  0  0  0  0  0  0  0  0  0
    2.1190    1.8600    0.3180 C   0  0  0  0  0  0  0  0  0  0  0  0
    1.8330    1.9030   -0.8970 O   0  0  0  0  0  0  0  0  0  0  0  0
    1.0960    1.7000    1.3740 C   0  0  0  0  0  0  0  0  0  0  0  0
    1.1750    0.0690    2.0910 S   0  0  0  0  0  0  0  0  0  0  0  0
    0.6760   -1.1870    0.9210 C   0  0  1  0  0  0  0  0  0  0  0  0
   -0.7730   -1.0820    0.5670 C   0  0  0  0  0  0  0  0  0  0  0  0
   -1.6050   -1.0900    1.5090 O   0  0  0  0  0  0  0  0  0  0  0  0
   -1.2630   -0.9780   -0.7020 O   0  0  0  0  0  0  0  0  0  0  0  0
   -2.6280   -0.8910   -0.9400 C   0  0  0  0  0  0  0  0  0  0  0  0
   -3.3610    0.2350   -0.3260 C   0  0  2  0  0  0  0  0  0  0  0  0
   -4.7170    0.1080   -0.7080 O   0  0  0  0  0  0  0  0  0  0  0  0
   -2.8960    1.5940   -0.8010 C   0  0  0  0  0  0  0  0  0  0  0  0
   -3.6560    2.6160   -0.2230 O   0  0  0  0  0  0  0  0  0  0  0  0
    1.4480   -1.2320   -0.2800 N   0  0  0  0  0  0  0  0  0  0  0  0
    1.4140   -2.5820   -0.7050 C   0  0  0  0  0  0  0  0  0  0  0  0
    1.7540   -3.0590   -1.8190 O   0  0  0  0  0  0  0  0  0  0  0  0
    0.9290   -3.3660    0.3260 O   0  0  0  0  0  0  0  0  0  0  0  0
    0.8540   -2.5910    1.5060 C   0  0  1  0  0  0  0  0  0  0  0  0
    2.0300   -2.6780    2.2010 O   0  0  0  0  0  0  0  0  0  0  0  0
  1  2  1  0
  2  3  1  0
  3  4  2  0
  3  5  1  0
  5  6  1  0
  7  6  1  1
  7  8  1  0
  7 16  1  0
  7 20  1  0
  8  9  2  0
  8 10  1  0
 10 11  1  0
 11 12  1  0
 12 13  1  6
 12 14  1  0
 14 15  1  0
 16 17  1  0
 17 18  2  0
 17 19  1  0
 19 20  1  0
 20 21  1  6
M  CHG  1  16   1
M  END
