
     RDKit          3D

 14 14  0  0  0  0  0  0  0  0999 V2000
   -2.7690   -0.7800    0.1440 C   0  0  0  0  0  0  0  0  0  0  0  0
   -1.6330    0.1330    0.3290 N   0  0  0  0  0  0  0  0  0  0  0  0
   -0.3610   -0.5120    0.3160 C   0  0  0  0  0  0  0  0  0  0  0  0
    0.7390    0.2260   -0.3140 C   0  0  0  0  0  0  0  0  0  0  0  0
    2.0380   -0.4620   -0.4190 C   0  0  0  0  0  0  0  0  0  0  0  0
    2.3080   -1.6560   -0.0150 C   0  0  0  0  0  0  0  0  0  0  0  0
    1.2330   -2.7920    0.7620 Cl  0  0  0  0  0  0  0  0  0  0  0  0
    3.6920   -2.1680   -0.2100 C   0  0  0  0  0  0  0  0  0  0  0  0
    4.0230   -3.3190    0.1590 O   0  0  0  0  0  0  0  0  0  0  0  0
    0.7370    1.4590   -0.8060 C   0  0  0  0  0  0  0  0  0  0  0  0
   -0.2680    2.3880   -0.8680 O   0  0  0  0  0  0  0  0  0  0  0  0
   -1.2730    2.7220    0.0930 C   0  0  0  0  0  0  0  0  0  0  0  0
   -1.9940    1.4780    0.4990 C   0  0  0  0  0  0  0  0  0  0  0  0
   -3.0780    1.7010    1.0730 O   0  0  0  0  0  0  0  0  0  0  0  0
  1  2  1  0
  2  3  1  0
  2 13  1  0
  3  4  1  0
  4  5  1  0
  4 10  2  0
  5  6  2  3
  6  7  1  0
  6  8  1  0
  8  9  2  0
 10 11  1  0
 11 12  1  0
 12 13  1  0
 13 14  2  0
M  END
