
     RDKit          3D

 14 14  0  0  0  0  0  0  0  0999 V2000
    1.3880    0.0740   -1.6370 C   0  0  0  0  0  0  0  0  0  0  0  0
    0.8960   -0.0390   -0.2770 N   0  0  0  0  0  0  0  0  0  0  0  0
    1.9980    0.2980    0.5840 C   0  0  0  0  0  0  0  0  0  0  0  0
    3.0350   -0.8270    0.5810 C   0  0  0  0  0  0  0  0  0  0  0  0
    2.2060   -2.2670    1.2720 Cl  0  0  0  0  0  0  0  0  0  0  0  0
   -0.3150    0.6440   -0.0630 C   0  0  2  0  0  0  0  0  0  0  0  0
   -0.3520    1.5020    1.1660 C   0  0  0  0  0  0  0  0  0  0  0  0
   -1.6120    2.1450    1.2280 O   0  0  0  0  0  0  0  0  0  0  0  0
   -2.7200    1.6990    0.4970 C   0  0  0  0  0  0  0  0  0  0  0  0
   -3.6350    2.5140    0.1500 O   0  0  0  0  0  0  0  0  0  0  0  0
   -2.7300    0.3590    0.1970 O   0  0  0  0  0  0  0  0  0  0  0  0
   -1.4910   -0.2970   -0.0780 C   0  0  1  0  0  0  0  0  0  0  0  0
   -1.7040   -0.9050   -1.4740 C   0  0  0  0  0  0  0  0  0  0  0  0
   -1.3920   -1.4190    0.9160 C   0  0  0  0  0  0  0  0  0  0  0  0
  1  2  1  0
  2  3  1  0
  6  2  1  1
  3  4  1  0
  4  5  1  0
  6  7  1  0
  6 12  1  0
  7  8  1  0
  8  9  1  0
  9 10  2  0
  9 11  1  0
 11 12  1  0
 12 13  1  6
 12 14  1  0
M  END
