
     RDKit          3D

 14 14  0  0  0  0  0  0  0  0999 V2000
    4.5940    0.4400    0.0160 C   0  0  0  0  0  0  0  0  0  0  0  0
    3.5830    0.5460   -0.9600 O   0  0  0  0  0  0  0  0  0  0  0  0
    2.3580   -0.1080   -0.8680 C   0  0  0  0  0  0  0  0  0  0  0  0
    1.3200    0.5970   -0.4750 C   0  0  0  0  0  0  0  0  0  0  0  0
    1.5110    2.3000   -0.0870 Cl  0  0  0  0  0  0  0  0  0  0  0  0
   -0.0330   -0.0090   -0.3450 C   0  0  0  0  0  0  0  0  0  0  0  0
   -1.1310    0.8080    0.0880 C   0  0  0  0  0  0  0  0  0  0  0  0
   -0.8030    2.0480    0.3280 O   0  0  0  0  0  0  0  0  0  0  0  0
   -2.4720    0.5380    0.3020 N   0  0  0  0  0  0  0  0  0  0  0  0
   -3.1330   -0.7070    0.1330 C   0  0  0  0  0  0  0  0  0  0  0  0
   -3.3540    1.6530    0.7580 C   0  0  0  0  0  0  0  0  0  0  0  0
   -0.1650   -1.2810   -0.6360 C   0  0  0  0  0  0  0  0  0  0  0  0
    0.9810   -2.1090   -1.0830 C   0  0  0  0  0  0  0  0  0  0  0  0
    2.1920   -1.4330   -1.1660 O   0  0  0  0  0  0  0  0  0  0  0  0
  1  2  1  0
  2  3  1  0
  3  4  2  0
  3 14  1  0
  4  5  1  0
  4  6  1  0
  6  7  1  0
  6 12  2  0
  7  8  2  0
  7  9  1  0
  9 10  1  0
  9 11  1  0
 12 13  1  0
 13 14  1  0
M  END
