
     RDKit          3D

 14 14  0  0  0  0  0  0  0  0999 V2000
    1.3290    2.5230   -0.1100 C   0  0  0  0  0  0  0  0  0  0  0  0
    1.2160    1.2300   -0.1490 C   0  0  0  0  0  0  0  0  0  0  0  0
   -0.1280    0.7290   -0.0880 N   0  0  0  0  0  0  0  0  0  0  0  0
   -0.5450   -0.5060   -0.0560 C   0  0  0  0  0  0  0  0  0  0  0  0
   -1.9910   -0.6460    0.0040 C   0  0  0  0  0  0  0  0  0  0  0  0
   -2.5570   -1.7770    0.0410 O   0  0  0  0  0  0  0  0  0  0  0  0
   -2.8130    0.4560    0.0240 O   0  0  0  0  0  0  0  0  0  0  0  0
   -4.2220    0.3840    0.0820 C   0  0  0  0  0  0  0  0  0  0  0  0
    0.3250   -1.6830   -0.0710 C   0  0  1  0  0  0  0  0  0  0  0  0
   -0.6240   -3.1830   -0.2270 Cl  0  0  0  0  0  0  0  0  0  0  0  0
    1.3560   -1.6950   -1.1740 C   0  0  0  0  0  0  0  0  0  0  0  0
    2.4850   -0.8630   -0.8840 O   0  0  0  0  0  0  0  0  0  0  0  0
    2.4020    0.3970   -0.2490 C   0  0  0  0  0  0  0  0  0  0  0  0
    3.4720    0.8880    0.3110 C   0  0  0  0  0  0  0  0  0  0  0  0
  1  2  2  0
  2  3  1  0
  2 13  1  0
  3  4  2  0
  4  5  1  0
  4  9  1  0
  5  6  2  0
  5  7  1  0
  7  8  1  0
  9 10  1  6
  9 11  1  0
 11 12  1  0
 12 13  1  0
 13 14  2  0
M  END
