
     RDKit          3D

 14 14  0  0  0  0  0  0  0  0999 V2000
   -3.7090   -0.4300   -0.0180 C   0  0  0  0  0  0  0  0  0  0  0  0
   -2.2150   -0.8190   -0.0440 C   0  0  0  0  0  0  0  0  0  0  0  0
   -1.3600    0.2660    0.0260 O   0  0  0  0  0  0  0  0  0  0  0  0
   -0.0210    0.3670   -0.0040 C   0  0  0  0  0  0  0  0  0  0  0  0
    0.5130    1.5630    0.0670 C   0  0  0  0  0  0  0  0  0  0  0  0
   -0.3640    2.7430    0.1750 C   0  0  0  0  0  0  0  0  0  0  0  0
   -2.0700    2.4710    0.2060 Cl  0  0  0  0  0  0  0  0  0  0  0  0
    1.9600    1.9600    0.0470 C   0  0  0  0  0  0  0  0  0  0  0  0
    2.1910    3.1630    0.2550 O   0  0  0  0  0  0  0  0  0  0  0  0
    2.9920    1.0860   -0.1810 O   0  0  0  0  0  0  0  0  0  0  0  0
    3.1540   -0.2950   -0.2250 C   0  0  0  0  0  0  0  0  0  0  0  0
    1.9860   -1.0100   -0.8720 C   0  0  0  0  0  0  0  0  0  0  0  0
    0.7660   -0.8400   -0.1120 N   0  0  0  0  0  0  0  0  0  0  0  0
    0.2770   -2.0090    0.6360 C   0  0  0  0  0  0  0  0  0  0  0  0
  1  2  1  0
  2  3  1  0
  3  4  1  0
  4  5  2  0
  4 13  1  0
  5  6  1  0
  5  8  1  0
  6  7  1  0
  8  9  2  0
  8 10  1  0
 10 11  1  0
 11 12  1  0
 12 13  1  0
 13 14  1  0
M  END
