
     RDKit          3D

 28 28  0  0  0  0  0  0  0  0999 V2000
   -0.1500    5.8580   -0.9940 C   0  0  0  0  0  0  0  0  0  0  0  0
   -0.4450    4.6950   -1.7660 O   0  0  0  0  0  0  0  0  0  0  0  0
   -0.2120    3.4390   -1.2270 C   0  0  0  0  0  0  0  0  0  0  0  0
    0.2570    3.3210   -0.0610 O   0  0  0  0  0  0  0  0  0  0  0  0
   -0.5050    2.2890   -1.9980 N   0  0  0  0  0  0  0  0  0  0  0  0
   -0.2790    0.9680   -1.4670 C   0  0  1  0  0  0  0  0  0  0  0  0
   -0.7040   -0.0100   -2.5910 C   0  0  0  0  0  0  0  0  0  0  0  0
    1.1830    0.8290   -1.2300 C   0  0  0  0  0  0  0  0  0  0  0  0
    2.0250    1.5040   -1.8940 O   0  0  0  0  0  0  0  0  0  0  0  0
    1.7240   -0.0370   -0.2720 O   0  0  0  0  0  0  0  0  0  0  0  0
    3.0930   -0.1780   -0.0540 C   0  0  1  0  0  0  0  0  0  0  0  0
    3.5730    0.3150    1.2940 C   0  0  0  0  0  0  0  0  0  0  0  0
    3.4890   -1.5970   -0.2400 C   0  0  0  0  0  0  0  0  0  0  0  0
    4.6880   -1.9540   -0.1340 O   0  0  0  0  0  0  0  0  0  0  0  0
    2.5180   -2.5240   -0.5330 O   0  0  0  0  0  0  0  0  0  0  0  0
    2.7700   -3.8900   -0.7280 C   0  0  0  0  0  0  0  0  0  0  0  0
   -1.0750    0.7100   -0.2510 C   0  0  0  0  0  0  0  0  0  0  0  0
   -1.8190    1.5950    0.2170 O   0  0  0  0  0  0  0  0  0  0  0  0
   -1.0210   -0.5090    0.3950 O   0  0  0  0  0  0  0  0  0  0  0  0
   -1.7370   -0.8610    1.5560 C   0  0  2  0  0  0  0  0  0  0  0  0
   -0.7850   -1.3300    2.6420 C   0  0  0  0  0  0  0  0  0  0  0  0
   -2.6640   -1.9480    1.2070 C   0  0  0  0  0  0  0  0  0  0  0  0
   -3.9710   -2.0910    1.3310 C   0  0  0  0  0  0  0  0  0  0  0  0
   -4.8390   -1.0420    1.9230 C   0  0  0  0  0  0  0  0  0  0  0  0
   -6.0860   -1.2020    2.0240 O   0  0  0  0  0  0  0  0  0  0  0  0
   -4.4710   -3.2660    0.8760 O   0  0  0  0  0  0  0  0  0  0  0  0
   -3.6680   -4.3250    0.9100 O   0  0  0  0  0  0  0  0  0  0  0  0
   -2.1760   -3.5190    0.4710 S   0  0  0  0  0  0  0  0  0  0  0  0
  1  2  1  0
  2  3  1  0
  3  4  2  0
  3  5  1  0
  5  6  1  0
  6  7  1  6
  6  8  1  0
  6 17  1  0
  8  9  2  0
  8 10  1  0
 10 11  1  0
 11 12  1  1
 11 13  1  0
 13 14  2  0
 13 15  1  0
 15 16  1  0
 17 18  2  0
 17 19  1  0
 19 20  1  0
 20 21  1  1
 20 22  1  0
 22 23  2  0
 22 28  1  0
 23 24  1  0
 23 26  1  0
 24 25  2  0
 26 27  1  0
 27 28  1  0
M  END
