
     RDKit          3D

 28 28  0  0  0  0  0  0  0  0999 V2000
    8.1200    1.4500   -0.8610 C   0  0  0  0  0  0  0  0  0  0  0  0
    6.8910    1.4250   -1.7340 C   0  0  0  0  0  0  0  0  0  0  0  0
    5.7120    1.1390   -1.0100 O   0  0  0  0  0  0  0  0  0  0  0  0
    5.5230   -0.0410   -0.3100 C   0  0  0  0  0  0  0  0  0  0  0  0
    6.4500   -0.8760   -0.3390 O   0  0  0  0  0  0  0  0  0  0  0  0
    4.3570   -0.3700    0.4350 N   0  0  0  0  0  0  0  0  0  0  0  0
    4.1990   -1.5830    1.1380 C   0  0  0  0  0  0  0  0  0  0  0  0
    5.1350   -2.4210    1.0940 O   0  0  0  0  0  0  0  0  0  0  0  0
    3.0020   -1.9060    1.9110 C   0  0  2  0  0  0  0  0  0  0  0  0
    1.4680   -1.8850    0.9010 S   0  0  0  0  0  0  0  0  0  0  0  0
    0.4780   -0.9220    2.1190 C   0  0  2  0  0  0  0  0  0  0  0  0
   -0.4960   -0.0400    1.4760 C   0  0  0  0  0  0  0  0  0  0  0  0
   -0.3940    1.2240    1.4720 O   0  0  0  0  0  0  0  0  0  0  0  0
   -1.5870   -0.5780    0.8350 O   0  0  0  0  0  0  0  0  0  0  0  0
   -2.5610    0.3460    0.1930 C   0  0  1  0  0  0  0  0  0  0  0  0
   -2.5000   -0.0470   -1.2500 C   0  0  0  0  0  0  0  0  0  0  0  0
   -3.2910    0.7080   -2.1980 C   0  0  0  0  0  0  0  0  0  0  0  0
   -3.8710    1.7860   -1.9440 O   0  0  0  0  0  0  0  0  0  0  0  0
   -3.4700    0.2600   -3.5330 O   0  0  0  0  0  0  0  0  0  0  0  0
   -4.2500    1.0170   -4.4430 C   0  0  0  0  0  0  0  0  0  0  0  0
   -3.8280   -0.0580    0.9110 C   0  0  0  0  0  0  0  0  0  0  0  0
   -5.0770    0.6520    0.5760 C   0  0  2  0  0  0  0  0  0  0  0  0
   -4.9800    2.0320    0.8390 O   0  0  0  0  0  0  0  0  0  0  0  0
   -6.1170    0.1750    1.6350 C   0  0  0  0  0  0  0  0  0  0  0  0
   -6.3000   -1.2000    1.4720 O   0  0  0  0  0  0  0  0  0  0  0  0
    1.5350   -0.1970    2.7170 O   0  0  0  0  0  0  0  0  0  0  0  0
    2.6540   -0.9230    2.9560 C   0  0  0  0  0  0  0  0  0  0  0  0
    3.3840   -0.8010    3.9940 O   0  0  0  0  0  0  0  0  0  0  0  0
  1  2  1  0
  2  3  1  0
  3  4  1  0
  4  5  2  0
  4  6  1  0
  6  7  1  0
  7  8  2  0
  9  7  1  6
  9 10  1  0
  9 27  1  0
 10 11  1  0
 11 12  1  6
 11 26  1  0
 12 13  2  0
 12 14  1  0
 14 15  1  0
 15 16  1  6
 15 21  1  0
 16 17  1  0
 17 18  2  0
 17 19  1  0
 19 20  1  0
 21 22  1  0
 22 23  1  1
 22 24  1  0
 24 25  1  0
 26 27  1  0
 27 28  2  0
M  END
