
     RDKit          3D

 28 28  0  0  0  0  0  0  0  0999 V2000
    3.7990   -4.8490    0.0910 C   0  0  0  0  0  0  0  0  0  0  0  0
    4.1390   -3.8350   -0.8460 O   0  0  0  0  0  0  0  0  0  0  0  0
    4.4790   -2.5660   -0.3550 C   0  0  0  0  0  0  0  0  0  0  0  0
    4.4690   -2.3850    0.8750 O   0  0  0  0  0  0  0  0  0  0  0  0
    4.8200   -1.5330   -1.2000 O   0  0  0  0  0  0  0  0  0  0  0  0
    5.1600   -0.2670   -0.7210 C   0  0  0  0  0  0  0  0  0  0  0  0
    4.0590    0.3710    0.0630 C   0  0  0  0  0  0  0  0  0  0  0  0
    2.8780    0.5340   -0.7320 O   0  0  0  0  0  0  0  0  0  0  0  0
    1.7550    1.1070   -0.1750 C   0  0  0  0  0  0  0  0  0  0  0  0
    1.7900    1.4810    1.0370 O   0  0  0  0  0  0  0  0  0  0  0  0
    0.5410    1.3100   -0.8820 N   0  0  0  0  0  0  0  0  0  0  0  0
   -0.5860    1.9200   -0.2140 C   0  0  1  0  0  0  0  0  0  0  0  0
   -1.0450    1.1640    0.9530 C   0  0  0  0  0  0  0  0  0  0  0  0
   -0.5120    0.0990    1.3280 O   0  0  0  0  0  0  0  0  0  0  0  0
   -2.1210    1.6540    1.6730 O   0  0  0  0  0  0  0  0  0  0  0  0
   -2.6400    0.9980    2.8150 C   0  0  0  0  0  0  0  0  0  0  0  0
   -3.0820   -0.3530    2.3800 C   0  0  0  0  0  0  0  0  0  0  0  0
   -3.5840   -1.1350    3.2240 O   0  0  0  0  0  0  0  0  0  0  0  0
   -2.9750   -0.8080    1.0960 O   0  0  0  0  0  0  0  0  0  0  0  0
   -3.3650   -2.0510    0.6210 C   0  0  2  0  0  0  0  0  0  0  0  0
   -2.1480   -2.7870    0.1160 C   0  0  0  0  0  0  0  0  0  0  0  0
   -4.3830   -2.0280   -0.4790 C   0  0  0  0  0  0  0  0  0  0  0  0
   -3.9480   -1.3490   -1.6070 O   0  0  0  0  0  0  0  0  0  0  0  0
   -0.3440    3.3650    0.1480 C   0  0  0  0  0  0  0  0  0  0  0  0
   -0.5410    4.1860   -1.0890 C   0  0  1  0  0  0  0  0  0  0  0  0
    0.3120    3.7040   -2.0820 O   0  0  0  0  0  0  0  0  0  0  0  0
   -1.9910    3.9240   -1.5180 C   0  0  0  0  0  0  0  0  0  0  0  0
   -2.0020    2.0910   -1.3660 S   0  0  0  0  0  0  0  0  0  0  0  0
  1  2  1  0
  2  3  1  0
  3  4  2  0
  3  5  1  0
  5  6  1  0
  6  7  1  0
  7  8  1  0
  8  9  1  0
  9 10  2  0
  9 11  1  0
 12 11  1  6
 12 13  1  0
 12 24  1  0
 12 28  1  0
 13 14  2  0
 13 15  1  0
 15 16  1  0
 16 17  1  0
 17 18  2  0
 17 19  1  0
 19 20  1  0
 20 21  1  6
 20 22  1  0
 22 23  1  0
 24 25  1  0
 25 26  1  6
 25 27  1  0
 27 28  1  0
M  END
