
     RDKit          3D

 28 28  0  0  0  0  0  0  0  0999 V2000
   -4.8680    3.2270    1.3420 C   0  0  0  0  0  0  0  0  0  0  0  0
   -5.4530    2.1480    1.9420 O   0  0  0  0  0  0  0  0  0  0  0  0
   -4.8540    0.9550    1.7400 C   0  0  0  0  0  0  0  0  0  0  0  0
   -4.7410    0.4610    0.3460 C   0  0  1  0  0  0  0  0  0  0  0  0
   -3.9690    1.3090   -0.4220 O   0  0  0  0  0  0  0  0  0  0  0  0
   -4.1710   -0.9540    0.2960 C   0  0  2  0  0  0  0  0  0  0  0  0
   -4.9640   -1.8850    1.1800 C   0  0  0  0  0  0  0  0  0  0  0  0
   -2.8530   -0.8830    0.8060 O   0  0  0  0  0  0  0  0  0  0  0  0
   -1.7830   -1.2350   -0.0250 C   0  0  0  0  0  0  0  0  0  0  0  0
   -2.0640   -1.6010   -1.1990 O   0  0  0  0  0  0  0  0  0  0  0  0
   -0.3910   -1.1710    0.4780 C   0  0  0  0  0  0  0  0  0  0  0  0
    0.4970   -1.5800   -0.5360 O   0  0  0  0  0  0  0  0  0  0  0  0
    0.3940   -2.8560   -1.0600 C   0  0  0  0  0  0  0  0  0  0  0  0
   -0.4950   -3.6210   -0.6130 O   0  0  0  0  0  0  0  0  0  0  0  0
    1.3400   -3.2600   -2.1280 C   0  0  0  0  0  0  0  0  0  0  0  0
    2.2280   -2.2020   -2.4240 O   0  0  0  0  0  0  0  0  0  0  0  0
    3.0470   -1.7180   -1.4220 C   0  0  0  0  0  0  0  0  0  0  0  0
    3.0410   -2.1780   -0.2480 O   0  0  0  0  0  0  0  0  0  0  0  0
    3.9730   -0.6390   -1.6620 N   0  0  0  0  0  0  0  0  0  0  0  0
    4.8100   -0.1500   -0.6250 C   0  0  0  0  0  0  0  0  0  0  0  0
    4.7400   -0.6670    0.5160 O   0  0  0  0  0  0  0  0  0  0  0  0
    5.7480    0.9480   -0.8830 C   0  0  1  0  0  0  0  0  0  0  0  0
    5.1000    2.1850   -1.4570 C   0  0  0  0  0  0  0  0  0  0  0  0
    4.2100    3.0970   -0.1560 S   0  0  0  0  0  0  0  0  0  0  0  0
    4.5320    2.2540    1.4330 C   0  0  0  0  0  0  0  0  0  0  0  0
    5.8370    1.5760    1.4430 C   0  0  0  0  0  0  0  0  0  0  0  0
    6.3570    1.2490    2.5340 O   0  0  0  0  0  0  0  0  0  0  0  0
    6.4890    1.3010    0.2630 O   0  0  0  0  0  0  0  0  0  0  0  0
  1  2  1  0
  2  3  1  0
  3  4  1  0
  4  5  1  6
  4  6  1  0
  6  7  1  1
  6  8  1  0
  8  9  1  0
  9 10  2  0
  9 11  1  0
 11 12  1  0
 12 13  1  0
 13 14  2  0
 13 15  1  0
 15 16  1  0
 16 17  1  0
 17 18  2  0
 17 19  1  0
 19 20  1  0
 20 21  2  0
 22 20  1  1
 22 23  1  0
 22 28  1  0
 23 24  1  0
 24 25  1  0
 25 26  1  0
 26 27  2  0
 26 28  1  0
M  END
