
     RDKit          3D

 28 28  0  0  0  0  0  0  0  0999 V2000
    7.3610    2.5190   -1.5390 C   0  0  0  0  0  0  0  0  0  0  0  0
    7.9360    1.3990   -0.9150 O   0  0  0  0  0  0  0  0  0  0  0  0
    7.3850    0.1450   -1.0760 C   0  0  0  0  0  0  0  0  0  0  0  0
    6.3610    0.0350   -1.7930 O   0  0  0  0  0  0  0  0  0  0  0  0
    8.0430   -0.9920   -0.3890 C   0  0  0  0  0  0  0  0  0  0  0  0
    7.2160   -2.5530   -0.6890 S   0  0  0  0  0  0  0  0  0  0  0  0
    5.5900   -2.5380    0.0570 C   0  0  0  0  0  0  0  0  0  0  0  0
    4.8270   -3.5490   -0.0370 O   0  0  0  0  0  0  0  0  0  0  0  0
    5.1380   -1.3910    0.7630 N   0  0  0  0  0  0  0  0  0  0  0  0
    3.8480   -1.3750    1.3590 C   0  0  0  0  0  0  0  0  0  0  0  0
    3.0680   -2.3630    1.2840 O   0  0  0  0  0  0  0  0  0  0  0  0
    3.3880   -0.2560    2.0560 O   0  0  0  0  0  0  0  0  0  0  0  0
    2.1140   -0.2010    2.6620 C   0  0  0  0  0  0  0  0  0  0  0  0
    1.0110   -0.3800    1.6480 C   0  0  0  0  0  0  0  0  0  0  0  0
    1.3620   -0.5370    0.4670 O   0  0  0  0  0  0  0  0  0  0  0  0
   -0.3040   -0.3710    1.9980 O   0  0  0  0  0  0  0  0  0  0  0  0
   -1.3170   -0.5380    1.0250 C   0  0  0  0  0  0  0  0  0  0  0  0
   -1.3310    0.5280   -0.0160 C   0  0  0  0  0  0  0  0  0  0  0  0
   -2.2890    0.3900   -0.9660 O   0  0  0  0  0  0  0  0  0  0  0  0
   -3.5560    0.4400   -0.4560 C   0  0  1  0  0  0  0  0  0  0  0  0
   -4.2230    1.5570   -1.0310 O   0  0  0  0  0  0  0  0  0  0  0  0
   -5.2290    1.8970   -0.1390 C   0  0  0  0  0  0  0  0  0  0  0  0
   -6.1790    0.7640    0.0390 C   0  0  1  0  0  0  0  0  0  0  0  0
   -7.5860    1.2300   -0.2860 C   0  0  0  0  0  0  0  0  0  0  0  0
   -5.8670   -0.4600   -0.7820 C   0  0  2  0  0  0  0  0  0  0  0  0
   -6.5700   -1.5460   -0.2450 O   0  0  0  0  0  0  0  0  0  0  0  0
   -4.3910   -0.7710   -0.8110 C   0  0  2  0  0  0  0  0  0  0  0  0
   -4.0460   -1.8680   -0.0400 O   0  0  0  0  0  0  0  0  0  0  0  0
  1  2  1  0
  2  3  1  0
  3  4  2  0
  3  5  1  0
  5  6  1  0
  6  7  1  0
  7  8  2  0
  7  9  1  0
  9 10  1  0
 10 11  2  0
 10 12  1  0
 12 13  1  0
 13 14  1  0
 14 15  2  0
 14 16  1  0
 16 17  1  0
 17 18  1  0
 18 19  1  0
 20 19  1  6
 20 21  1  0
 20 27  1  0
 21 22  1  0
 22 23  1  0
 23 24  1  6
 23 25  1  0
 25 26  1  1
 25 27  1  0
 27 28  1  1
M  END
