
     RDKit          3D

 28 28  0  0  0  0  0  0  0  0999 V2000
   -4.3650    1.7190    1.3510 C   0  0  0  0  0  0  0  0  0  0  0  0
   -5.4080    0.7450    0.8400 C   0  0  1  0  0  0  0  0  0  0  0  0
   -5.0650    0.4710   -0.6190 C   0  0  0  0  0  0  0  0  0  0  0  0
   -4.1670   -0.6640   -0.6760 N   0  0  0  0  0  0  0  0  0  0  0  0
   -2.8850   -0.5520   -1.2700 C   0  0  0  0  0  0  0  0  0  0  0  0
   -2.5340    0.5430   -1.7470 O   0  0  0  0  0  0  0  0  0  0  0  0
   -1.9920   -1.6020   -1.3500 O   0  0  0  0  0  0  0  0  0  0  0  0
   -0.7250   -1.5280   -1.9260 C   0  0  0  0  0  0  0  0  0  0  0  0
    0.1480   -0.5230   -1.2560 C   0  0  0  0  0  0  0  0  0  0  0  0
   -0.2880    0.1430   -0.2850 O   0  0  0  0  0  0  0  0  0  0  0  0
    1.4460   -0.2780   -1.6560 O   0  0  0  0  0  0  0  0  0  0  0  0
    2.2100    0.6670   -0.9970 C   0  0  2  0  0  0  0  0  0  0  0  0
    2.6710    1.8070   -1.8800 C   0  0  0  0  0  0  0  0  0  0  0  0
    3.4590    0.0870   -0.4020 C   0  0  0  0  0  0  0  0  0  0  0  0
    3.6460   -1.1430   -0.5720 O   0  0  0  0  0  0  0  0  0  0  0  0
    4.3870    0.7950    0.2990 O   0  0  0  0  0  0  0  0  0  0  0  0
    5.5600    0.2890    0.8670 C   0  0  1  0  0  0  0  0  0  0  0  0
    6.7330    0.9950    0.1760 C   0  0  0  0  0  0  0  0  0  0  0  0
    6.7120    0.6740   -1.5860 S   0  0  0  0  0  0  0  0  0  0  0  0
    6.9070   -0.8190   -1.8280 O   0  0  0  0  0  0  0  0  0  0  0  0
    8.0280    1.4810   -2.2810 O   0  0  0  0  0  0  0  0  0  0  0  0
    5.5910    0.5440    2.3300 C   0  0  0  0  0  0  0  0  0  0  0  0
    4.6310    1.1450    2.8800 O   0  0  0  0  0  0  0  0  0  0  0  0
    6.6370    0.1480    3.1380 O   0  0  0  0  0  0  0  0  0  0  0  0
   -4.6460   -1.9080   -0.0990 C   0  0  0  0  0  0  0  0  0  0  0  0
   -5.7740   -1.5120    0.8620 C   0  0  1  0  0  0  0  0  0  0  0  0
   -6.0430   -2.6970    1.7510 C   0  0  0  0  0  0  0  0  0  0  0  0
   -5.3910   -0.4190    1.6030 O   0  0  0  0  0  0  0  0  0  0  0  0
  2  1  1  1
  2  3  1  0
  2 28  1  0
  3  4  1  0
  4  5  1  0
  4 25  1  0
  5  6  2  0
  5  7  1  0
  7  8  1  0
  8  9  1  0
  9 10  2  0
  9 11  1  0
 11 12  1  0
 12 13  1  6
 12 14  1  0
 14 15  2  0
 14 16  1  0
 16 17  1  0
 17 18  1  6
 17 22  1  0
 18 19  1  0
 19 20  2  0
 19 21  1  6
 22 23  2  0
 22 24  1  0
 25 26  1  0
 26 27  1  1
 26 28  1  0
M  END
