
     RDKit          3D

 14 15  0  0  0  0  0  0  0  0999 V2000
   -2.0850   -2.5000   -1.0070 C   0  0  0  0  0  0  0  0  0  0  0  0
   -2.1830   -1.3560   -0.3680 C   0  0  0  0  0  0  0  0  0  0  0  0
   -3.3620   -0.8060    0.3510 C   0  0  0  0  0  0  0  0  0  0  0  0
   -3.0930    0.6080    0.3570 N   0  0  0  0  0  0  0  0  0  0  0  0
   -1.6920    0.8040    0.2160 C   0  0  0  0  0  0  0  0  0  0  0  0
   -1.1390   -0.3220   -0.2040 C   0  0  0  0  0  0  0  0  0  0  0  0
    0.3080   -0.4920   -0.4630 C   0  0  0  0  0  0  0  0  0  0  0  0
    1.0630    0.6940   -0.1500 N   0  0  0  0  0  0  0  0  0  0  0  0
    2.4480    0.5320    0.1070 C   0  0  0  0  0  0  0  0  0  0  0  0
    3.1260    1.5500    0.3820 O   0  0  0  0  0  0  0  0  0  0  0  0
    3.1090   -0.6840    0.0740 O   0  0  0  0  0  0  0  0  0  0  0  0
    4.5170   -0.7820    0.3440 C   0  0  0  0  0  0  0  0  0  0  0  0
    0.4660    1.9920   -0.0940 C   0  0  0  0  0  0  0  0  0  0  0  0
   -0.9120    2.0260    0.4710 C   0  0  0  0  0  0  0  0  0  0  0  0
  1  2  2  0
  2  3  1  0
  2  6  1  0
  3  4  1  0
  4  5  1  0
  5  6  2  0
  5 14  1  0
  6  7  1  0
  7  8  1  0
  8  9  1  0
  8 13  1  0
  9 10  2  0
  9 11  1  0
 11 12  1  0
 13 14  1  0
M  END
