
     RDKit          3D

 20 22  0  0  0  0  0  0  0  0999 V2000
    0.8670    0.0740   -1.5470 O   0  0  0  0  0  0  0  0  0  0  0  0
    0.5720   -0.1520   -0.3090 C   0  0  0  0  0  0  0  0  0  0  0  0
    1.6430   -0.2730    0.5970 N   0  0  0  0  0  0  0  0  0  0  0  0
    3.0030   -0.1800    0.1990 C   0  0  0  0  0  0  0  0  0  0  0  0
    3.5120   -0.3980   -1.0350 C   0  0  0  0  0  0  0  0  0  0  0  0
    4.8680   -0.2570   -1.2980 C   0  0  0  0  0  0  0  0  0  0  0  0
    5.7650    0.1090   -0.3240 C   0  0  0  0  0  0  0  0  0  0  0  0
    7.5080    0.2770   -0.6720 S   0  0  0  0  0  0  0  0  0  0  0  0
    5.2620    0.3350    0.9410 C   0  0  0  0  0  0  0  0  0  0  0  0
    3.9160    0.1930    1.1950 C   0  0  0  0  0  0  0  0  0  0  0  0
   -0.8210   -0.2640    0.0720 C   0  0  0  0  0  0  0  0  0  0  0  0
   -1.7640    0.4020   -0.6980 C   0  0  0  0  0  0  0  0  0  0  0  0
   -3.1100    0.3590   -0.3590 C   0  0  0  0  0  0  0  0  0  0  0  0
   -3.4880   -0.3550    0.7470 C   0  0  0  0  0  0  0  0  0  0  0  0
   -2.5820   -0.9980    1.4880 N   0  0  0  0  0  0  0  0  0  0  0  0
   -1.2470   -0.9540    1.1540 C   0  0  0  0  0  0  0  0  0  0  0  0
   -0.4240   -1.5710    1.8720 O   0  0  0  0  0  0  0  0  0  0  0  0
   -4.9430   -0.2790    0.9140 C   0  0  0  0  0  0  0  0  0  0  0  0
   -5.4460    0.1750   -0.4290 C   0  0  0  0  0  0  0  0  0  0  0  0
   -4.3190    0.9880   -0.9770 C   0  0  0  0  0  0  0  0  0  0  0  0
  1  2  2  0
  2  3  1  0
  2 11  1  0
  3  4  1  0
  4  5  2  0
  4 10  1  0
  5  6  1  0
  6  7  2  0
  7  8  1  0
  7  9  1  0
  9 10  2  0
 11 12  2  0
 11 16  1  0
 12 13  1  0
 13 14  2  0
 13 20  1  0
 14 15  1  0
 14 18  1  0
 15 16  1  0
 16 17  2  0
 18 19  1  0
 19 20  1  0
M  END
