
     RDKit          3D

 20 22  0  0  0  0  0  0  0  0999 V2000
    7.1270    0.0830   -0.3220 C   0  0  0  0  0  0  0  0  0  0  0  0
    5.8360   -0.3900   -0.5820 O   0  0  0  0  0  0  0  0  0  0  0  0
    4.7390    0.2490   -0.0350 C   0  0  0  0  0  0  0  0  0  0  0  0
    4.9420    1.2510    0.6900 O   0  0  0  0  0  0  0  0  0  0  0  0
    3.3640   -0.1760   -0.2540 C   0  0  0  0  0  0  0  0  0  0  0  0
    2.2180    0.4000    0.2500 C   0  0  0  0  0  0  0  0  0  0  0  0
    1.1080   -0.2910   -0.1830 C   0  0  0  0  0  0  0  0  0  0  0  0
   -0.3030   -0.0230    0.1110 C   0  0  0  0  0  0  0  0  0  0  0  0
   -0.6790    1.0320    0.9150 C   0  0  0  0  0  0  0  0  0  0  0  0
   -1.9990    1.3030    1.2060 C   0  0  0  0  0  0  0  0  0  0  0  0
   -3.0140    0.5180    0.6970 C   0  0  0  0  0  0  0  0  0  0  0  0
   -4.3450    0.7840    0.9850 C   0  0  0  0  0  0  0  0  0  0  0  0
   -5.2950   -0.0490    0.4360 C   0  0  0  0  0  0  0  0  0  0  0  0
   -7.0480    0.2330    0.7640 S   0  0  0  0  0  0  0  0  0  0  0  0
   -4.9800   -1.1220   -0.3770 C   0  0  0  0  0  0  0  0  0  0  0  0
   -3.6470   -1.3450   -0.6330 C   0  0  0  0  0  0  0  0  0  0  0  0
   -2.6400   -0.5400   -0.1090 C   0  0  0  0  0  0  0  0  0  0  0  0
   -1.3160   -0.8050   -0.3960 C   0  0  0  0  0  0  0  0  0  0  0  0
    1.5890   -1.2830   -0.9480 N   0  0  0  0  0  0  0  0  0  0  0  0
    2.9150   -1.2220   -0.9940 N   0  0  0  0  0  0  0  0  0  0  0  0
  1  2  1  0
  2  3  1  0
  3  4  2  0
  3  5  1  0
  5  6  1  0
  5 20  2  0
  6  7  2  0
  7  8  1  0
  7 19  1  0
  8  9  2  0
  8 18  1  0
  9 10  1  0
 10 11  2  0
 11 12  1  0
 11 17  1  0
 12 13  2  0
 13 14  1  0
 13 15  1  0
 15 16  2  0
 16 17  1  0
 17 18  2  0
 19 20  1  0
M  END
