
     RDKit          3D

 14 15  0  0  0  0  0  0  0  0999 V2000
   -0.0220   -2.2350   -0.0790 O   0  0  0  0  0  0  0  0  0  0  0  0
   -0.0520   -0.9310    0.0550 C   0  0  0  0  0  0  0  0  0  0  0  0
   -1.3580   -0.3490    0.0980 C   0  0  0  0  0  0  0  0  0  0  0  0
   -1.6490    0.9160    0.2280 C   0  0  0  0  0  0  0  0  0  0  0  0
   -2.9870    1.4400    0.2640 N   0  0  0  0  0  0  0  0  0  0  0  0
   -4.1290    0.5990    0.1610 C   0  0  0  0  0  0  0  0  0  0  0  0
   -3.7640   -0.8150    0.0170 C   0  0  0  0  0  0  0  0  0  0  0  0
   -2.5320   -1.2380   -0.0110 C   0  0  0  0  0  0  0  0  0  0  0  0
    1.2220   -0.3790    0.1280 N   0  0  0  0  0  0  0  0  0  0  0  0
    1.4830    1.0220    0.2700 C   0  0  0  0  0  0  0  0  0  0  0  0
    3.0200    1.2530    0.3200 C   0  0  0  0  0  0  0  0  0  0  0  0
    3.4980    0.6260   -0.8230 O   0  0  0  0  0  0  0  0  0  0  0  0
    3.5720   -0.7280   -0.5810 C   0  0  0  0  0  0  0  0  0  0  0  0
    2.3670   -1.3130    0.0580 C   0  0  0  0  0  0  0  0  0  0  0  0
  1  2  2  0
  2  3  1  0
  2  9  1  0
  3  4  2  0
  3  8  1  0
  4  5  1  0
  5  6  1  0
  6  7  1  0
  7  8  2  0
  9 10  1  0
  9 14  1  0
 10 11  1  0
 11 12  1  0
 12 13  1  0
 13 14  1  0
M  END
