
     RDKit          3D

 21 21  0  0  0  0  0  0  0  0999 V2000
   -4.5680   -1.7120   -0.3980 C   0  0  0  0  0  0  0  0  0  0  0  0
   -4.3910   -0.3640    0.1790 C   0  0  1  0  0  0  0  0  0  0  0  0
   -5.4930    0.4850   -0.0840 O   0  0  0  0  0  0  0  0  0  0  0  0
   -4.2470   -0.3490    1.6830 C   0  0  0  0  0  0  0  0  0  0  0  0
   -4.7370   -1.1950    2.4450 O   0  0  0  0  0  0  0  0  0  0  0  0
   -3.5020    0.7170    2.1590 O   0  0  0  0  0  0  0  0  0  0  0  0
   -3.4680    1.9000    1.4040 C   0  0  0  0  0  0  0  0  0  0  0  0
   -3.2940    1.7240    0.0370 O   0  0  0  0  0  0  0  0  0  0  0  0
   -3.1120    0.3430   -0.2690 C   0  0  1  0  0  0  0  0  0  0  0  0
   -2.0880   -0.0790    0.5570 O   0  0  0  0  0  0  0  0  0  0  0  0
   -0.8680   -0.1230    0.0420 N   0  0  0  0  0  0  0  0  0  0  0  0
   -0.5260   -0.8300   -1.1240 C   0  0  0  0  0  0  0  0  0  0  0  0
   -1.3550   -1.4790   -1.7770 O   0  0  0  0  0  0  0  0  0  0  0  0
    1.1870   -0.8190   -1.7330 S   0  0  0  0  0  0  0  0  0  0  0  0
    2.1290    0.2590   -0.6440 C   0  0  0  0  0  0  0  0  0  0  0  0
    3.5780    0.2660   -0.8950 C   0  0  0  0  0  0  0  0  0  0  0  0
    4.1520    1.2350   -1.4910 O   0  0  0  0  0  0  0  0  0  0  0  0
    4.3570   -0.7910   -0.4830 O   0  0  0  0  0  0  0  0  0  0  0  0
    5.7600   -0.8780   -0.6520 C   0  0  0  0  0  0  0  0  0  0  0  0
    6.4410    0.2150    0.1550 C   0  0  0  0  0  0  0  0  0  0  0  0
    7.8200    0.1580    0.0100 O   0  0  0  0  0  0  0  0  0  0  0  0
  2  1  1  6
  2  3  1  0
  2  4  1  0
  2  9  1  0
  4  5  2  0
  4  6  1  0
  6  7  1  0
  7  8  1  0
  8  9  1  0
  9 10  1  1
 10 11  1  0
 11 12  1  0
 12 13  2  0
 12 14  1  0
 14 15  1  0
 15 16  1  0
 16 17  2  0
 16 18  1  0
 18 19  1  0
 19 20  1  0
 20 21  1  0
M  END
