
     RDKit          3D

 22 22  0  0  0  0  0  0  0  0999 V2000
    5.2270    1.0970    1.8390 N   0  0  0  0  0  0  0  0  0  0  0  0
    4.8550    1.1920    0.4800 C   0  0  0  0  0  0  0  0  0  0  0  0
    5.6510    1.5840   -0.4020 O   0  0  0  0  0  0  0  0  0  0  0  0
    3.4800    0.8180    0.0790 C   0  0  1  0  0  0  0  0  0  0  0  0
    3.2750    0.9710   -1.3060 O   0  0  0  0  0  0  0  0  0  0  0  0
    3.4200   -0.2800   -1.9240 C   0  0  0  0  0  0  0  0  0  0  0  0
    3.2090   -0.4740   -3.1560 O   0  0  0  0  0  0  0  0  0  0  0  0
    3.8190   -1.2010   -0.9560 O   0  0  0  0  0  0  0  0  0  0  0  0
    3.3700   -0.6940    0.2690 C   0  0  2  0  0  0  0  0  0  0  0  0
    1.9160   -1.0110    0.4800 C   0  0  0  0  0  0  0  0  0  0  0  0
    1.3180   -0.6470    1.5150 O   0  0  0  0  0  0  0  0  0  0  0  0
    1.2600   -1.7190   -0.5090 O   0  0  0  0  0  0  0  0  0  0  0  0
   -0.0910   -2.0360   -0.3560 C   0  0  0  0  0  0  0  0  0  0  0  0
   -0.9260   -0.7880   -0.2170 C   0  0  0  0  0  0  0  0  0  0  0  0
   -0.4110    0.3600   -0.2440 O   0  0  0  0  0  0  0  0  0  0  0  0
   -2.2970   -0.8550   -0.0540 O   0  0  0  0  0  0  0  0  0  0  0  0
   -3.1340    0.2520    0.0810 C   0  0  2  0  0  0  0  0  0  0  0  0
   -3.8000    0.1460    1.4520 C   0  0  0  0  0  0  0  0  0  0  0  0
   -4.5320   -1.0490    1.5050 O   0  0  0  0  0  0  0  0  0  0  0  0
   -4.2040    0.2910   -1.0080 C   0  0  0  0  0  0  0  0  0  0  0  0
   -5.2400    1.7380   -0.7700 S   0  0  0  0  0  0  0  0  0  0  0  0
   -4.4400    3.0170   -0.9320 O   0  0  0  0  0  0  0  0  0  0  0  0
  1  2  1  0
  2  3  2  0
  4  2  1  6
  4  5  1  0
  4  9  1  0
  5  6  1  0
  6  7  2  0
  6  8  1  0
  8  9  1  0
  9 10  1  6
 10 11  2  0
 10 12  1  0
 12 13  1  0
 13 14  1  0
 14 15  2  0
 14 16  1  0
 16 17  1  0
 17 18  1  1
 17 20  1  0
 18 19  1  0
 20 21  1  0
 21 22  2  0
M  END
