
     RDKit          3D

 21 21  0  0  0  0  0  0  0  0999 V2000
    6.9240    0.2510   -0.4940 C   0  0  0  0  0  0  0  0  0  0  0  0
    5.7730    0.8480    0.0010 O   0  0  0  0  0  0  0  0  0  0  0  0
    4.6110    0.2300   -0.4220 C   0  0  2  0  0  0  0  0  0  0  0  0
    3.8080    1.1850   -1.0410 O   0  0  0  0  0  0  0  0  0  0  0  0
    3.8990   -0.2870    0.8140 C   0  0  0  0  0  0  0  0  0  0  0  0
    2.3610   -1.1150    0.3470 S   0  0  0  0  0  0  0  0  0  0  0  0
    1.2340    0.1210   -0.3380 C   0  0  2  0  0  0  0  0  0  0  0  0
    0.8210    1.0820    0.6640 N   0  0  0  0  0  0  0  0  0  0  0  0
   -0.1520    0.4010    1.4500 C   0  0  0  0  0  0  0  0  0  0  0  0
   -0.6180    0.7070    2.5860 O   0  0  0  0  0  0  0  0  0  0  0  0
   -0.5340   -0.7940    0.6450 C   0  0  1  0  0  0  0  0  0  0  0  0
   -1.9390   -0.7470    0.4940 O   0  0  0  0  0  0  0  0  0  0  0  0
   -2.7600   -1.7830    0.8430 C   0  0  0  0  0  0  0  0  0  0  0  0
   -2.2150   -2.8170    1.3180 O   0  0  0  0  0  0  0  0  0  0  0  0
   -4.2220   -1.6620    0.6560 C   0  0  0  0  0  0  0  0  0  0  0  0
   -4.5050   -0.3980    0.1080 O   0  0  0  0  0  0  0  0  0  0  0  0
   -5.7820    0.0390   -0.1890 C   0  0  0  0  0  0  0  0  0  0  0  0
   -6.7600   -0.7050    0.0300 O   0  0  0  0  0  0  0  0  0  0  0  0
   -5.9810    1.3890   -0.7660 C   0  0  0  0  0  0  0  0  0  0  0  0
   -7.3300    1.5960   -0.9660 O   0  0  0  0  0  0  0  0  0  0  0  0
    0.0230   -0.5370   -0.6080 O   0  0  0  0  0  0  0  0  0  0  0  0
  1  2  1  0
  2  3  1  0
  3  4  1  1
  3  5  1  0
  5  6  1  0
  7  6  1  1
  7  8  1  0
  7 21  1  0
  8  9  1  0
  9 10  2  0
  9 11  1  0
 11 12  1  6
 11 21  1  0
 12 13  1  0
 13 14  2  0
 13 15  1  0
 15 16  1  0
 16 17  1  0
 17 18  2  0
 17 19  1  0
 19 20  1  0
M  END
