
     RDKit          3D

 21 21  0  0  0  0  0  0  0  0999 V2000
   -5.9550    1.2390    0.9050 O   0  0  0  0  0  0  0  0  0  0  0  0
   -5.5430    0.2250    0.3000 C   0  0  0  0  0  0  0  0  0  0  0  0
   -6.4760   -0.6970   -0.2020 O   0  0  0  0  0  0  0  0  0  0  0  0
   -4.1310    0.0270    0.1340 N   0  0  0  0  0  0  0  0  0  0  0  0
   -3.1690    0.9180    0.6180 C   0  0  0  0  0  0  0  0  0  0  0  0
   -3.5520    1.9540    1.2340 O   0  0  0  0  0  0  0  0  0  0  0  0
   -1.7310    0.6710    0.4240 C   0  0  1  0  0  0  0  0  0  0  0  0
   -1.0850    1.7580   -0.4070 C   0  0  0  0  0  0  0  0  0  0  0  0
    0.6680    1.5140   -0.6780 S   0  0  0  0  0  0  0  0  0  0  0  0
    1.0430    0.0840   -1.7060 C   0  0  1  0  0  0  0  0  0  0  0  0
    0.5640    0.3230   -2.9920 O   0  0  0  0  0  0  0  0  0  0  0  0
    2.5010   -0.1620   -1.7980 C   0  0  0  0  0  0  0  0  0  0  0  0
    3.0730   -0.1310   -2.9160 O   0  0  0  0  0  0  0  0  0  0  0  0
    3.2950   -0.4320   -0.7050 O   0  0  0  0  0  0  0  0  0  0  0  0
    4.6760   -0.6650   -0.7900 C   0  0  0  0  0  0  0  0  0  0  0  0
    5.2990   -0.9340    0.5570 C   0  0  0  0  0  0  0  0  0  0  0  0
    5.1210    0.1440    1.4210 O   0  0  0  0  0  0  0  0  0  0  0  0
   -0.9880    0.4780    1.7060 C   0  0  0  0  0  0  0  0  0  0  0  0
   -0.5220   -0.8190    1.6410 O   0  0  0  0  0  0  0  0  0  0  0  0
   -1.3400   -1.4770    0.7310 C   0  0  0  0  0  0  0  0  0  0  0  0
   -1.5930   -0.5450   -0.2830 O   0  0  0  0  0  0  0  0  0  0  0  0
  1  2  2  0
  2  3  1  0
  2  4  1  0
  4  5  1  0
  5  6  2  0
  5  7  1  0
  7  8  1  6
  7 18  1  0
  7 21  1  0
  8  9  1  0
  9 10  1  0
 10 11  1  6
 10 12  1  0
 12 13  2  0
 12 14  1  0
 14 15  1  0
 15 16  1  0
 16 17  1  0
 18 19  1  0
 19 20  1  0
 20 21  1  0
M  END
