
     RDKit          3D

 40 43  0  0  0  0  0  0  0  0999 V2000
    3.5870   -3.0890   -5.0220 C   0  0  0  0  0  0  0  0  0  0  0  0
    2.6180   -1.7140   -5.7120 S   0  0  0  0  0  0  0  0  0  0  0  0
    1.8490   -0.7930   -4.3260 C   0  0  0  0  0  0  0  0  0  0  0  0
    0.8370   -1.6720   -3.6410 C   0  0  0  0  0  0  0  0  0  0  0  0
    0.1710   -1.1260   -2.5750 O   0  0  0  0  0  0  0  0  0  0  0  0
    0.5410   -0.6550   -1.3700 C   0  0  0  0  0  0  0  0  0  0  0  0
    1.8410   -0.6400   -0.8910 C   0  0  0  0  0  0  0  0  0  0  0  0
    2.1670   -0.1400    0.3600 C   0  0  0  0  0  0  0  0  0  0  0  0
    3.5380   -0.1370    0.8340 C   0  0  0  0  0  0  0  0  0  0  0  0
    3.8070    0.3230    1.9730 O   0  0  0  0  0  0  0  0  0  0  0  0
    4.5920   -0.6300    0.0730 O   0  0  0  0  0  0  0  0  0  0  0  0
    5.8660   -0.5820    0.6170 C   0  0  0  0  0  0  0  0  0  0  0  0
    6.6710    0.5200    0.4150 C   0  0  0  0  0  0  0  0  0  0  0  0
    7.9460    0.6380    0.9240 C   0  0  0  0  0  0  0  0  0  0  0  0
    8.4390   -0.4210    1.6830 C   0  0  0  0  0  0  0  0  0  0  0  0
    7.6590   -1.5370    1.9030 C   0  0  0  0  0  0  0  0  0  0  0  0
    6.3890   -1.6190    1.3780 C   0  0  0  0  0  0  0  0  0  0  0  0
    1.1580    0.3540    1.1410 C   0  0  0  0  0  0  0  0  0  0  0  0
    1.4400    0.8960    2.4720 C   0  0  0  0  0  0  0  0  0  0  0  0
   -0.1660    0.3530    0.6880 C   0  0  0  0  0  0  0  0  0  0  0  0
   -0.4710   -0.1430   -0.5480 C   0  0  0  0  0  0  0  0  0  0  0  0
   -1.7620   -0.1490   -1.0020 O   0  0  0  0  0  0  0  0  0  0  0  0
   -2.8810    0.3100   -0.3350 C   0  0  0  0  0  0  0  0  0  0  0  0
   -3.3600   -0.4130    0.6530 C   0  0  0  0  0  0  0  0  0  0  0  0
   -2.6940   -1.6720    1.0040 C   0  0  0  0  0  0  0  0  0  0  0  0
   -3.0670   -2.4740    1.9590 C   0  0  0  0  0  0  0  0  0  0  0  0
   -4.2050   -2.2680    2.8460 C   0  0  0  0  0  0  0  0  0  0  0  0
   -3.7760   -2.1920    4.3140 C   0  0  0  0  0  0  0  0  0  0  0  0
   -3.1470   -3.3830    4.6830 O   0  0  0  0  0  0  0  0  0  0  0  0
   -3.4710    1.5610   -0.7540 C   0  0  2  0  0  0  0  0  0  0  0  0
   -2.6240    2.7250   -0.4790 N   0  0  0  0  0  0  0  0  0  0  0  0
   -3.1660    3.9730   -0.8940 C   0  0  0  0  0  0  0  0  0  0  0  0
   -2.4690    4.9460   -1.1900 O   0  0  0  0  0  0  0  0  0  0  0  0
   -4.6240    4.0850   -0.9640 C   0  0  0  0  0  0  0  0  0  0  0  0
   -5.4260    3.0960   -0.6650 C   0  0  0  0  0  0  0  0  0  0  0  0
   -6.8300    3.3400   -0.7770 C   0  0  0  0  0  0  0  0  0  0  0  0
   -7.1950    4.5390   -1.1720 C   0  0  0  0  0  0  0  0  0  0  0  0
   -5.6850    5.4300   -1.4240 S   0  0  0  0  0  0  0  0  0  0  0  0
   -5.5090    6.5210   -0.3570 O   0  0  0  0  0  0  0  0  0  0  0  0
   -4.7850    1.8620   -0.2500 N   0  0  0  0  0  0  0  0  0  0  0  0
  1  2  1  0
  2  3  1  0
  3  4  1  0
  4  5  1  0
  5  6  1  0
  6  7  2  0
  6 21  1  0
  7  8  1  0
  8  9  1  0
  8 18  2  0
  9 10  2  0
  9 11  1  0
 11 12  1  0
 12 13  2  0
 12 17  1  0
 13 14  1  0
 14 15  2  0
 15 16  1  0
 16 17  2  0
 18 19  1  0
 18 20  1  0
 20 21  2  0
 21 22  1  0
 22 23  1  0
 23 24  2  3
 30 23  1  1
 24 25  1  0
 25 26  2  3
 26 27  1  0
 27 28  1  0
 28 29  1  0
 30 31  1  0
 30 40  1  0
 31 32  1  0
 32 33  2  0
 32 34  1  0
 34 35  2  0
 34 38  1  0
 35 36  1  0
 35 40  1  0
 36 37  2  0
 38 37  1  1
 38 39  2  0
M  END
