
     RDKit          3D

 40 43  0  0  0  0  0  0  0  0999 V2000
   -6.0540   -6.8210   -0.0500 C   0  0  0  0  0  0  0  0  0  0  0  0
   -5.9500   -5.4030    0.4550 C   0  0  0  0  0  0  0  0  0  0  0  0
   -6.9830   -4.5880    0.8250 C   0  0  0  0  0  0  0  0  0  0  0  0
   -6.4260   -3.3970    1.2160 C   0  0  0  0  0  0  0  0  0  0  0  0
   -5.0600   -3.5060    1.0760 C   0  0  0  0  0  0  0  0  0  0  0  0
   -4.0140   -2.5400    1.3460 C   0  0  0  0  0  0  0  0  0  0  0  0
   -3.9830   -1.3470    0.8040 C   0  0  0  0  0  0  0  0  0  0  0  0
   -2.8670   -0.4910    1.1880 C   0  0  0  0  0  0  0  0  0  0  0  0
   -2.0330   -1.0120    2.0090 O   0  0  0  0  0  0  0  0  0  0  0  0
   -2.5990    0.8110    0.7770 N   0  0  0  0  0  0  0  0  0  0  0  0
   -1.4650    1.5270    1.2180 C   0  0  0  0  0  0  0  0  0  0  0  0
   -0.2720    1.0000    1.6340 C   0  0  0  0  0  0  0  0  0  0  0  0
    0.7800    1.8050    2.0830 C   0  0  0  0  0  0  0  0  0  0  0  0
    0.6630    3.1740    2.1260 C   0  0  0  0  0  0  0  0  0  0  0  0
    2.0280    4.2030    2.7020 S   0  0  0  0  0  0  0  0  0  0  0  0
    3.0130    4.6110    1.2380 C   0  0  0  0  0  0  0  0  0  0  0  0
    3.6330    3.4250    0.6530 C   0  0  0  0  0  0  0  0  0  0  0  0
    3.2430    2.5420   -0.2760 C   0  0  0  0  0  0  0  0  0  0  0  0
    4.0310    1.5170   -0.6310 C   0  0  0  0  0  0  0  0  0  0  0  0
    5.2450    1.4120   -0.0030 C   0  0  0  0  0  0  0  0  0  0  0  0
    6.2820    0.4340   -0.1710 N   0  0  0  0  0  0  0  0  0  0  0  0
    7.4760    0.4650    0.5560 C   0  0  0  0  0  0  0  0  0  0  0  0
    7.6260    1.4140    1.3990 O   0  0  0  0  0  0  0  0  0  0  0  0
    8.5740   -0.4920    0.4400 C   0  0  1  0  0  0  0  0  0  0  0  0
    9.2140   -0.5710   -0.9100 C   0  0  0  0  0  0  0  0  0  0  0  0
   10.4650   -1.3980   -0.5850 C   0  0  0  0  0  0  0  0  0  0  0  0
   10.5430   -1.2290    0.9140 C   0  0  0  0  0  0  0  0  0  0  0  0
    9.6340   -0.2350    1.2710 O   0  0  0  0  0  0  0  0  0  0  0  0
    5.2660    2.7730    1.0920 S   0  0  0  0  0  0  0  0  0  0  0  0
   -0.5250    3.7280    1.7120 C   0  0  0  0  0  0  0  0  0  0  0  0
   -1.5510    2.9240    1.2740 C   0  0  0  0  0  0  0  0  0  0  0  0
   -4.9270   -0.8930   -0.1950 C   0  0  0  0  0  0  0  0  0  0  0  0
   -5.8620   -1.6270   -0.6580 O   0  0  0  0  0  0  0  0  0  0  0  0
   -4.9270    0.3800   -0.7620 O   0  0  0  0  0  0  0  0  0  0  0  0
   -5.8440    0.8080   -1.7300 C   0  0  1  0  0  0  0  0  0  0  0  0
   -6.7120    1.9560   -1.2790 C   0  0  0  0  0  0  0  0  0  0  0  0
   -5.1750    1.0980   -3.0580 C   0  0  0  0  0  0  0  0  0  0  0  0
   -4.1270    2.1850   -2.9170 C   0  0  0  0  0  0  0  0  0  0  0  0
   -3.5100    2.4510   -4.1340 O   0  0  0  0  0  0  0  0  0  0  0  0
   -4.8500   -4.7380    0.6150 O   0  0  0  0  0  0  0  0  0  0  0  0
  1  2  1  0
  2  3  2  0
  2 40  1  0
  3  4  1  0
  4  5  2  0
  5  6  1  0
  5 40  1  0
  6  7  2  3
  7  8  1  0
  7 32  1  0
  8  9  2  0
  8 10  1  0
 10 11  1  0
 11 12  2  0
 11 31  1  0
 12 13  1  0
 13 14  2  0
 14 15  1  0
 14 30  1  0
 15 16  1  0
 16 17  1  0
 17 18  2  0
 17 29  1  0
 18 19  1  0
 19 20  2  0
 20 21  1  0
 20 29  1  0
 21 22  1  0
 22 23  2  0
 24 22  1  6
 24 25  1  0
 24 28  1  0
 25 26  1  0
 26 27  1  0
 27 28  1  0
 30 31  2  0
 32 33  2  0
 32 34  1  0
 34 35  1  0
 35 36  1  1
 35 37  1  0
 37 38  1  0
 38 39  1  0
M  END
