
     RDKit          3D

 40 43  0  0  0  0  0  0  0  0999 V2000
   -7.1160    6.0600   -0.2580 C   0  0  0  0  0  0  0  0  0  0  0  0
   -5.7440    5.9300   -0.3510 O   0  0  0  0  0  0  0  0  0  0  0  0
   -5.2680    4.6780   -0.0030 C   0  0  0  0  0  0  0  0  0  0  0  0
   -5.8290    3.5970   -0.8720 C   0  0  0  0  0  0  0  0  0  0  0  0
   -5.3840    2.3040   -0.5650 O   0  0  0  0  0  0  0  0  0  0  0  0
   -4.0300    1.9200   -0.6410 C   0  0  0  0  0  0  0  0  0  0  0  0
   -3.2700    2.8130   -1.0030 O   0  0  0  0  0  0  0  0  0  0  0  0
   -3.6550    0.5700   -0.3030 C   0  0  0  0  0  0  0  0  0  0  0  0
   -4.6230   -0.2760    0.0540 C   0  0  0  0  0  0  0  0  0  0  0  0
   -6.3390    0.3450    0.1030 S   0  0  0  0  0  0  0  0  0  0  0  0
   -7.4540   -1.0320    0.4830 C   0  0  0  0  0  0  0  0  0  0  0  0
   -4.3880   -1.6430    0.2900 N   0  0  0  0  0  0  0  0  0  0  0  0
   -3.1130   -2.2610   -0.2210 C   0  0  2  0  0  0  0  0  0  0  0  0
   -2.9250   -3.5620    0.3830 C   0  0  0  0  0  0  0  0  0  0  0  0
   -3.6810   -4.5460    0.0500 O   0  0  0  0  0  0  0  0  0  0  0  0
   -1.8970   -3.8180    1.3710 C   0  0  0  0  0  0  0  0  0  0  0  0
   -1.0500   -2.8800    1.7510 C   0  0  0  0  0  0  0  0  0  0  0  0
   -0.0540   -3.0940    2.6920 O   0  0  0  0  0  0  0  0  0  0  0  0
    0.3160   -4.4040    3.0820 C   0  0  0  0  0  0  0  0  0  0  0  0
   -1.2080   -1.5820    1.1310 C   0  0  0  0  0  0  0  0  0  0  0  0
   -2.1160   -1.2700    0.2400 C   0  0  0  0  0  0  0  0  0  0  0  0
   -2.2300    0.1270   -0.2520 C   0  0  0  0  0  0  0  0  0  0  0  0
   -1.2540    0.9080   -0.4710 C   0  0  0  0  0  0  0  0  0  0  0  0
    0.1750    0.8620   -0.5440 C   0  0  0  0  0  0  0  0  0  0  0  0
    0.7940    2.0160   -0.6500 O   0  0  0  0  0  0  0  0  0  0  0  0
    1.0220   -0.2240   -0.5360 N   0  0  0  0  0  0  0  0  0  0  0  0
    2.4470   -0.2320   -0.5990 C   0  0  0  0  0  0  0  0  0  0  0  0
    3.2510    0.7950   -0.9950 C   0  0  0  0  0  0  0  0  0  0  0  0
    4.6540    0.7250   -1.0090 C   0  0  0  0  0  0  0  0  0  0  0  0
    5.4280    1.9190   -1.4650 C   0  0  0  0  0  0  0  0  0  0  0  0
    6.0430    2.6770   -0.2950 C   0  0  0  0  0  0  0  0  0  0  0  0
    6.9520    4.1070   -0.9960 S   0  0  0  0  0  0  0  0  0  0  0  0
    5.2520   -0.4340   -0.6050 C   0  0  0  0  0  0  0  0  0  0  0  0
    4.4780   -1.4970   -0.1970 C   0  0  0  0  0  0  0  0  0  0  0  0
    3.1160   -1.3950   -0.1960 C   0  0  0  0  0  0  0  0  0  0  0  0
    5.2220   -2.7130    0.2170 C   0  0  1  0  0  0  0  0  0  0  0  0
    4.3780   -3.8200    0.3700 O   0  0  0  0  0  0  0  0  0  0  0  0
    6.2010   -2.9980   -0.9030 C   0  0  0  0  0  0  0  0  0  0  0  0
    7.2210   -1.9240   -1.0190 C   0  0  0  0  0  0  0  0  0  0  0  0
    6.7360   -0.5830   -0.5860 C   0  0  0  0  0  0  0  0  0  0  0  0
  1  2  1  0
  2  3  1  0
  3  4  1  0
  4  5  1  0
  5  6  1  0
  6  7  2  0
  6  8  1  0
  8  9  2  0
  8 22  1  0
  9 10  1  0
  9 12  1  0
 10 11  1  0
 13 12  1  1
 13 14  1  0
 13 21  1  0
 14 15  2  0
 14 16  1  0
 16 17  2  0
 17 18  1  0
 17 20  1  0
 18 19  1  0
 20 21  2  0
 21 22  1  0
 22 23  2  3
 23 24  1  0
 24 25  2  0
 24 26  1  0
 26 27  1  0
 27 28  2  0
 27 35  1  0
 28 29  1  0
 29 30  1  0
 29 33  2  0
 30 31  1  0
 31 32  1  0
 33 34  1  0
 33 40  1  0
 34 35  2  0
 34 36  1  0
 36 37  1  6
 36 38  1  0
 38 39  1  0
 39 40  1  0
M  END
