
     RDKit          3D

 40 43  0  0  0  0  0  0  0  0999 V2000
    8.9770   -4.0140   -1.6690 C   0  0  0  0  0  0  0  0  0  0  0  0
    7.9610   -3.5810   -2.3830 C   0  0  0  0  0  0  0  0  0  0  0  0
    6.6420   -3.3950   -1.7460 C   0  0  0  0  0  0  0  0  0  0  0  0
    6.2690   -2.0370   -1.8750 O   0  0  0  0  0  0  0  0  0  0  0  0
    5.0470   -1.5880   -1.3500 C   0  0  0  0  0  0  0  0  0  0  0  0
    4.3660   -2.4770   -0.7860 O   0  0  0  0  0  0  0  0  0  0  0  0
    4.6400   -0.1760   -1.4750 C   0  0  0  0  0  0  0  0  0  0  0  0
    3.3790    0.1370   -0.7330 C   0  0  2  0  0  0  0  0  0  0  0  0
    3.0850    1.6060   -1.0080 C   0  0  0  0  0  0  0  0  0  0  0  0
    3.4920   -0.1310    0.7440 C   0  0  2  0  0  0  0  0  0  0  0  0
    2.2640    0.1720    1.5360 C   0  0  0  0  0  0  0  0  0  0  0  0
    2.0950    1.6520    1.8450 C   0  0  0  0  0  0  0  0  0  0  0  0
    3.2640    2.3160    1.9640 C   0  0  0  0  0  0  0  0  0  0  0  0
    2.7490    4.0010    2.3930 S   0  0  0  0  0  0  0  0  0  0  0  0
    0.9980    3.6480    2.3660 C   0  0  0  0  0  0  0  0  0  0  0  0
   -0.0110    4.6690    2.6440 C   0  0  0  0  0  0  0  0  0  0  0  0
   -1.4570    4.5590    2.6480 C   0  0  0  0  0  0  0  0  0  0  0  0
    0.4460    5.8440    2.9280 O   0  0  0  0  0  0  0  0  0  0  0  0
    0.9300    2.3210    2.0470 C   0  0  0  0  0  0  0  0  0  0  0  0
   -0.4270    1.6650    1.9180 C   0  0  0  0  0  0  0  0  0  0  0  0
   -0.9250    1.5350    0.5390 C   0  0  0  0  0  0  0  0  0  0  0  0
   -2.2740    0.8690    0.6220 C   0  0  0  0  0  0  0  0  0  0  0  0
   -2.7760    0.4980    1.7280 O   0  0  0  0  0  0  0  0  0  0  0  0
   -3.0560    0.6200   -0.5280 N   0  0  0  0  0  0  0  0  0  0  0  0
   -4.3300   -0.0080   -0.4780 C   0  0  0  0  0  0  0  0  0  0  0  0
   -5.4770    0.7780   -0.3060 C   0  0  0  0  0  0  0  0  0  0  0  0
   -5.3780    2.1580   -0.1830 O   0  0  0  0  0  0  0  0  0  0  0  0
   -6.7180    0.1850   -0.2580 C   0  0  0  0  0  0  0  0  0  0  0  0
   -7.9600    1.0150   -0.0740 C   0  0  0  0  0  0  0  0  0  0  0  0
   -9.4280   -0.0460   -0.0520 S   0  0  0  0  0  0  0  0  0  0  0  0
   -6.8070   -1.1840   -0.3810 C   0  0  0  0  0  0  0  0  0  0  0  0
   -5.6790   -1.9600   -0.5500 C   0  0  0  0  0  0  0  0  0  0  0  0
   -4.4330   -1.3560   -0.5980 C   0  0  0  0  0  0  0  0  0  0  0  0
   -3.2180   -2.1720   -0.7810 C   0  0  0  0  0  0  0  0  0  0  0  0
   -3.5910   -3.2370   -1.8210 C   0  0  0  0  0  0  0  0  0  0  0  0
   -4.6530   -4.1100   -1.2080 C   0  0  0  0  0  0  0  0  0  0  0  0
   -5.6930   -3.3410   -0.6810 O   0  0  0  0  0  0  0  0  0  0  0  0
    4.6030    1.7730    1.7340 C   0  0  0  0  0  0  0  0  0  0  0  0
    5.6000    2.4950    1.8840 O   0  0  0  0  0  0  0  0  0  0  0  0
    4.7300    0.3880    1.3320 N   0  0  0  0  0  0  0  0  0  0  0  0
  1  2  2  0
  2  3  1  0
  3  4  1  0
  4  5  1  0
  5  6  2  0
  5  7  1  0
  7  8  1  0
  8  9  1  1
  8 10  1  0
 10 11  1  1
 10 40  1  0
 11 12  1  0
 12 13  2  0
 12 19  1  0
 13 14  1  0
 13 38  1  0
 14 15  1  0
 15 16  1  0
 15 19  2  0
 16 17  1  0
 16 18  2  0
 19 20  1  0
 20 21  1  0
 21 22  1  0
 22 23  2  0
 22 24  1  0
 24 25  1  0
 25 26  2  0
 25 33  1  0
 26 27  1  0
 26 28  1  0
 28 29  1  0
 28 31  2  0
 29 30  1  0
 31 32  1  0
 32 33  2  0
 32 37  1  0
 33 34  1  0
 34 35  1  0
 35 36  1  0
 36 37  1  0
 38 39  2  0
 38 40  1  0
M  END
