
     RDKit          3D

 20 21  0  0  0  0  0  0  0  0999 V2000
   -5.7330    2.6070    0.3980 O   0  0  0  0  0  0  0  0  0  0  0  0
   -4.7630    1.8270    0.5720 C   0  0  0  0  0  0  0  0  0  0  0  0
   -3.8800    1.2870   -0.4960 C   0  0  0  0  0  0  0  0  0  0  0  0
   -3.1030    0.1810    0.1780 C   0  0  2  0  0  0  0  0  0  0  0  0
   -3.3290    0.3850    1.6600 C   0  0  0  0  0  0  0  0  0  0  0  0
   -4.3520    1.3360    1.7980 O   0  0  0  0  0  0  0  0  0  0  0  0
   -1.7840    0.2450   -0.1690 O   0  0  0  0  0  0  0  0  0  0  0  0
   -1.3910   -0.9380   -0.7280 C   0  0  1  0  0  0  0  0  0  0  0  0
   -0.0900   -1.3280   -0.1200 C   0  0  0  0  0  0  0  0  0  0  0  0
    0.0070   -2.4010    0.4980 O   0  0  0  0  0  0  0  0  0  0  0  0
    1.0450   -0.4920   -0.2350 N   0  0  0  0  0  0  0  0  0  0  0  0
    2.3270   -0.8320    0.3400 C   0  0  0  0  0  0  0  0  0  0  0  0
    3.3370    0.2430    0.0550 C   0  0  0  0  0  0  0  0  0  0  0  0
    4.5560   -0.1190    0.6230 O   0  0  0  0  0  0  0  0  0  0  0  0
    5.7900    1.0400    0.3600 P   0  0  0  0  0  0  0  0  0  0  0  0
    7.0340    0.9780    1.5390 O   0  0  0  0  0  0  0  0  0  0  0  0
    6.3810    1.0490   -1.2580 O   0  0  0  0  0  0  0  0  0  0  0  0
   -2.4130   -1.9140   -0.5010 N   0  0  0  0  0  0  0  0  0  0  0  0
   -3.5870   -1.1630   -0.1690 C   0  0  0  0  0  0  0  0  0  0  0  0
   -4.7720   -1.5610   -0.1730 O   0  0  0  0  0  0  0  0  0  0  0  0
  1  2  2  0
  2  3  1  0
  2  6  1  0
  4  3  1  6
  4  5  1  0
  4  7  1  0
  4 19  1  0
  5  6  1  0
  7  8  1  0
  8  9  1  1
  8 18  1  0
  9 10  2  0
  9 11  1  0
 11 12  1  0
 12 13  1  0
 13 14  1  0
 14 15  1  0
 15 16  1  0
 15 17  1  0
 18 19  1  0
 19 20  2  0
M  END
