
     RDKit          3D

 20 20  0  0  0  0  0  0  0  0999 V2000
    6.1050    0.1330    1.0560 C   0  0  0  0  0  0  0  0  0  0  0  0
    4.7520    0.4820    0.9690 O   0  0  0  0  0  0  0  0  0  0  0  0
    3.7870   -0.2790    0.3240 C   0  0  0  0  0  0  0  0  0  0  0  0
    4.1280   -1.3440   -0.2170 O   0  0  0  0  0  0  0  0  0  0  0  0
    2.4620    0.1230    0.2730 O   0  0  0  0  0  0  0  0  0  0  0  0
    1.4690   -0.5970   -0.3540 C   0  0  0  0  0  0  0  0  0  0  0  0
    1.7650   -1.6760   -0.9130 O   0  0  0  0  0  0  0  0  0  0  0  0
    0.1340   -0.1410   -0.3760 N   0  0  0  0  0  0  0  0  0  0  0  0
   -0.3800    1.0840    0.2210 C   0  0  0  0  0  0  0  0  0  0  0  0
   -1.7860    0.7240    0.6240 C   0  0  1  0  0  0  0  0  0  0  0  0
   -2.9440    2.1570    0.5010 P   0  0  0  0  0  0  0  0  0  0  0  0
   -2.1960    3.5390   -0.2240 O   0  0  0  0  0  0  0  0  0  0  0  0
   -4.4010    1.7080   -0.3110 O   0  0  0  0  0  0  0  0  0  0  0  0
   -2.1960   -0.4470   -0.1990 C   0  0  2  0  0  0  0  0  0  0  0  0
   -2.6550   -1.6160    0.6680 C   0  0  0  0  0  0  0  0  0  0  0  0
   -1.6100   -2.0660    1.5550 N   0  0  0  0  0  0  0  0  0  0  0  0
   -0.9710   -0.8200   -1.0030 C   0  0  1  0  0  0  0  0  0  0  0  0
   -1.1050   -0.3620   -2.4230 C   0  0  0  0  0  0  0  0  0  0  0  0
   -2.0140   -0.8360   -3.1500 O   0  0  0  0  0  0  0  0  0  0  0  0
   -0.2510    0.5670   -2.9460 O   0  0  0  0  0  0  0  0  0  0  0  0
  1  2  1  0
  2  3  1  0
  3  4  2  0
  3  5  1  0
  5  6  1  0
  6  7  2  0
  6  8  1  0
  8  9  1  0
  8 17  1  0
  9 10  1  0
 10 11  1  6
 10 14  1  0
 11 12  1  0
 11 13  1  0
 14 15  1  1
 14 17  1  0
 15 16  1  0
 17 18  1  6
 18 19  2  0
 18 20  1  0
M  END
