
     RDKit          3D

 27 29  0  0  0  0  0  0  0  0999 V2000
    7.5970    1.1870    0.9830 N   0  0  0  0  0  0  0  0  0  0  0  0
    6.5440    0.2780    0.6630 C   0  0  0  0  0  0  0  0  0  0  0  0
    6.7530   -1.0550    0.5860 N   0  0  0  0  0  0  0  0  0  0  0  0
    5.7470   -1.8950    0.2820 C   0  0  0  0  0  0  0  0  0  0  0  0
    4.5430   -1.3740    0.0610 N   0  0  0  0  0  0  0  0  0  0  0  0
    4.2540   -0.0630    0.1180 C   0  0  0  0  0  0  0  0  0  0  0  0
    5.2910    0.8030    0.4310 C   0  0  0  0  0  0  0  0  0  0  0  0
    4.8070    2.0560    0.4390 N   0  0  0  0  0  0  0  0  0  0  0  0
    3.4970    1.9500    0.1360 C   0  0  0  0  0  0  0  0  0  0  0  0
    3.1550    0.6870   -0.0580 N   0  0  0  0  0  0  0  0  0  0  0  0
    1.8630    0.1860   -0.3950 C   0  0  2  0  0  0  0  0  0  0  0  0
    0.8470    0.6990    0.4460 O   0  0  0  0  0  0  0  0  0  0  0  0
   -0.2520    0.0050   -0.0730 C   0  0  2  0  0  0  0  0  0  0  0  0
   -1.5100    0.2770    0.7160 C   0  0  0  0  0  0  0  0  0  0  0  0
   -2.5320   -0.4350    0.1460 O   0  0  0  0  0  0  0  0  0  0  0  0
   -4.0010   -0.2810    0.8560 P   0  0  0  0  0  0  0  0  0  0  0  0
   -4.5110    1.1560    1.4710 O   0  0  0  0  0  0  0  0  0  0  0  0
   -4.9590   -1.6240    1.1060 O   0  0  0  0  0  0  0  0  0  0  0  0
   -4.6890   -0.0450   -0.4790 O   0  0  0  0  0  0  0  0  0  0  0  0
   -5.9890    0.8790   -0.7410 P   0  0  0  0  0  0  0  0  0  0  0  0
   -7.3820    0.2260   -1.3890 O   0  0  0  0  0  0  0  0  0  0  0  0
   -5.9340    2.5470   -0.6060 O   0  0  0  0  0  0  0  0  0  0  0  0
   -6.4920    0.7590    0.6890 O   0  0  0  0  0  0  0  0  0  0  0  0
    0.1940   -1.4180    0.0090 C   0  0  1  0  0  0  0  0  0  0  0  0
   -0.3980   -2.1320   -1.0300 O   0  0  0  0  0  0  0  0  0  0  0  0
    1.7010   -1.2930   -0.2000 C   0  0  1  0  0  0  0  0  0  0  0  0
    2.0290   -1.9250   -1.3870 O   0  0  0  0  0  0  0  0  0  0  0  0
  1  2  1  0
  2  3  2  0
  2  7  1  0
  3  4  1  0
  4  5  2  0
  5  6  1  0
  6  7  2  0
  6 10  1  0
  7  8  1  0
  8  9  2  0
  9 10  1  0
 11 10  1  1
 11 12  1  0
 11 26  1  0
 12 13  1  0
 13 14  1  1
 13 24  1  0
 14 15  1  0
 15 16  1  0
 16 17  1  0
 16 18  1  0
 16 19  1  0
 19 20  1  0
 20 21  1  0
 20 22  1  0
 20 23  1  0
 24 25  1  6
 24 26  1  0
 26 27  1  6
M  END
