
     RDKit          3D

 21 22  0  0  0  0  0  0  0  0999 V2000
    1.4300    0.0170    1.0970 O   0  0  0  0  0  0  0  0  0  0  0  0
    0.7500   -0.4920    0.1610 C   0  0  0  0  0  0  0  0  0  0  0  0
    1.3280   -1.4660   -0.5930 O   0  0  0  0  0  0  0  0  0  0  0  0
    2.5960   -2.0170   -0.5150 C   0  0  0  0  0  0  0  0  0  0  0  0
    3.6710   -1.0300   -0.7780 C   0  0  0  0  0  0  0  0  0  0  0  0
    3.7490    0.0530    0.0580 O   0  0  0  0  0  0  0  0  0  0  0  0
    5.0830    1.0390   -0.4710 P   0  0  0  0  0  0  0  0  0  0  0  0
    6.5250    0.3420    0.2420 O   0  0  0  0  0  0  0  0  0  0  0  0
    5.2670    0.9090   -2.1920 O   0  0  0  0  0  0  0  0  0  0  0  0
   -0.5790   -0.0550   -0.0900 N   0  0  0  0  0  0  0  0  0  0  0  0
   -1.3050   -0.6630   -1.1610 C   0  0  0  0  0  0  0  0  0  0  0  0
   -2.7810   -0.6300   -1.0560 C   0  0  0  0  0  0  0  0  0  0  0  0
   -3.3240    0.4250   -0.1280 C   0  0  1  0  0  0  0  0  0  0  0  0
   -4.6350    0.2240    0.2200 O   0  0  0  0  0  0  0  0  0  0  0  0
   -5.1280    1.3660    0.6450 O   0  0  0  0  0  0  0  0  0  0  0  0
   -4.5690    1.7500    1.8170 N   0  0  0  0  0  0  0  0  0  0  0  0
   -3.1960    1.4750    2.0390 C   0  0  0  0  0  0  0  0  0  0  0  0
   -2.5770    2.0170    2.9670 O   0  0  0  0  0  0  0  0  0  0  0  0
   -2.5160    0.5300    1.1470 C   0  0  1  0  0  0  0  0  0  0  0  0
   -2.3810   -0.7140    1.7630 O   0  0  0  0  0  0  0  0  0  0  0  0
   -1.1270    0.9860    0.7540 C   0  0  0  0  0  0  0  0  0  0  0  0
  1  2  2  0
  2  3  1  0
  2 10  1  0
  3  4  1  0
  4  5  1  0
  5  6  1  0
  6  7  1  0
  7  8  1  0
  7  9  1  0
 10 11  1  0
 10 21  1  0
 11 12  1  0
 13 12  1  6
 13 14  1  0
 13 19  1  0
 14 15  1  0
 15 16  1  0
 16 17  1  0
 17 18  2  0
 17 19  1  0
 19 20  1  1
 19 21  1  0
M  END
