
     RDKit          3D

 21 21  0  0  0  0  0  0  0  0999 V2000
    0.7550    0.2030    1.0210 O   0  0  0  0  0  0  0  0  0  0  0  0
    0.8730    0.4720   -0.1880 C   0  0  0  0  0  0  0  0  0  0  0  0
    2.2170    0.6440   -0.6560 N   0  0  0  0  0  0  0  0  0  0  0  0
    3.3340    0.5520    0.1880 C   0  0  0  0  0  0  0  0  0  0  0  0
    3.8020   -0.6900    0.8610 C   0  0  0  0  0  0  0  0  0  0  0  0
    4.9260   -0.1400    1.5840 O   0  0  0  0  0  0  0  0  0  0  0  0
    6.4520   -0.5940    0.9670 P   0  0  0  0  0  0  0  0  0  0  0  0
    6.5260   -1.9380   -0.0520 O   0  0  0  0  0  0  0  0  0  0  0  0
    7.0530    0.8420    0.0360 O   0  0  0  0  0  0  0  0  0  0  0  0
   -0.2340    0.6170   -1.0390 N   0  0  0  0  0  0  0  0  0  0  0  0
   -1.5800    0.5600   -0.4830 C   0  0  2  0  0  0  0  0  0  0  0  0
   -1.7940    1.4510    0.6760 C   0  0  0  0  0  0  0  0  0  0  0  0
   -3.0430    1.2280    1.2450 O   0  0  0  0  0  0  0  0  0  0  0  0
   -4.0840    1.2290    0.3300 C   0  0  0  0  0  0  0  0  0  0  0  0
   -4.3840   -0.1810   -0.0830 C   0  0  1  0  0  0  0  0  0  0  0  0
   -5.5010   -0.6430    0.5730 O   0  0  0  0  0  0  0  0  0  0  0  0
   -4.5850   -0.2970   -1.4680 O   0  0  0  0  0  0  0  0  0  0  0  0
   -4.8050   -1.5730   -1.7280 O   0  0  0  0  0  0  0  0  0  0  0  0
   -3.2480   -1.0890    0.2530 C   0  0  0  0  0  0  0  0  0  0  0  0
   -3.4160   -2.0520    0.9510 O   0  0  0  0  0  0  0  0  0  0  0  0
   -1.8620   -0.9060   -0.2390 C   0  0  0  0  0  0  0  0  0  0  0  0
  1  2  2  0
  2  3  1  0
  2 10  1  0
  3  4  1  0
  4  5  1  0
  5  6  1  0
  6  7  1  0
  7  8  1  0
  7  9  1  0
 11 10  1  1
 11 12  1  0
 11 21  1  0
 12 13  1  0
 13 14  1  0
 14 15  1  0
 15 16  1  1
 15 17  1  0
 15 19  1  0
 17 18  1  0
 19 20  2  0
 19 21  1  0
M  END
