
     RDKit          3D

 21 22  0  0  0  0  0  0  0  0999 V2000
    7.2750    0.1930    0.4040 O   0  0  0  0  0  0  0  0  0  0  0  0
    6.0510    0.8320    1.1130 P   0  0  0  0  0  0  0  0  0  0  0  0
    4.6700    1.3030    0.1960 O   0  0  0  0  0  0  0  0  0  0  0  0
    3.6300    0.3490    0.2970 C   0  0  0  0  0  0  0  0  0  0  0  0
    2.4970    0.8840   -0.5450 C   0  0  0  0  0  0  0  0  0  0  0  0
    1.3430    0.0240   -0.5530 N   0  0  0  0  0  0  0  0  0  0  0  0
    1.1770   -1.0130   -1.5230 C   0  0  0  0  0  0  0  0  0  0  0  0
    2.0710   -1.1950   -2.4170 O   0  0  0  0  0  0  0  0  0  0  0  0
    0.0430   -1.8150   -1.4850 O   0  0  0  0  0  0  0  0  0  0  0  0
   -0.9660   -1.6930   -0.5650 C   0  0  0  0  0  0  0  0  0  0  0  0
   -1.8690   -2.5580   -0.3930 O   0  0  0  0  0  0  0  0  0  0  0  0
   -1.0170   -0.4800    0.2880 C   0  0  2  0  0  0  0  0  0  0  0  0
   -1.6580   -0.7120    1.6160 C   0  0  0  0  0  0  0  0  0  0  0  0
   -2.9870   -0.3220    1.5130 O   0  0  0  0  0  0  0  0  0  0  0  0
   -3.0640    0.6080    0.4940 C   0  0  2  0  0  0  0  0  0  0  0  0
   -4.3370    0.4650   -0.2590 C   0  0  0  0  0  0  0  0  0  0  0  0
   -4.3280    0.2490   -1.4820 O   0  0  0  0  0  0  0  0  0  0  0  0
   -5.5370    0.5750    0.4170 O   0  0  0  0  0  0  0  0  0  0  0  0
   -1.9150    0.4690   -0.3410 N   0  0  0  0  0  0  0  0  0  0  0  0
    0.3030    0.1620    0.4080 C   0  0  0  0  0  0  0  0  0  0  0  0
    0.5300    0.8740    1.4170 O   0  0  0  0  0  0  0  0  0  0  0  0
  1  2  2  0
  2  3  1  0
  3  4  1  0
  4  5  1  0
  5  6  1  0
  6  7  1  0
  6 20  1  0
  7  8  2  0
  7  9  1  0
  9 10  1  0
 10 11  2  0
 10 12  1  0
 12 13  1  1
 12 19  1  0
 12 20  1  0
 13 14  1  0
 14 15  1  0
 15 16  1  6
 15 19  1  0
 16 17  2  0
 16 18  1  0
 20 21  2  0
M  END
