
     RDKit          3D

 20 21  0  0  0  0  0  0  0  0999 V2000
   -1.0710    1.2370   -1.5590 N   0  0  0  0  0  0  0  0  0  0  0  0
   -1.8600    0.7080   -0.4290 C   0  0  2  0  0  0  0  0  0  0  0  0
   -1.6450   -0.7280   -0.2580 C   0  0  0  0  0  0  0  0  0  0  0  0
   -0.5090   -1.3540   -0.1240 C   0  0  0  0  0  0  0  0  0  0  0  0
    0.8740   -0.9970   -0.0690 C   0  0  0  0  0  0  0  0  0  0  0  0
    1.7410   -1.9530   -0.0150 O   0  0  0  0  0  0  0  0  0  0  0  0
    1.4190    0.2910   -0.0580 N   0  0  0  0  0  0  0  0  0  0  0  0
    2.8710    0.5170   -0.0160 C   0  0  0  0  0  0  0  0  0  0  0  0
    3.4210   -0.0350    1.1140 O   0  0  0  0  0  0  0  0  0  0  0  0
    5.1240    0.2620    1.1060 P   0  0  0  0  0  0  0  0  0  0  0  0
    5.9470   -1.0050    0.2820 O   0  0  0  0  0  0  0  0  0  0  0  0
    5.4130    1.8030    0.3440 O   0  0  0  0  0  0  0  0  0  0  0  0
   -0.8780   -2.8390   -0.0220 C   0  0  0  0  0  0  0  0  0  0  0  0
   -2.2370   -2.9020    0.2230 O   0  0  0  0  0  0  0  0  0  0  0  0
   -2.7830   -1.6640   -0.0480 C   0  0  0  0  0  0  0  0  0  0  0  0
   -4.0080   -1.4660   -0.0880 O   0  0  0  0  0  0  0  0  0  0  0  0
   -3.3020    0.9430   -0.9580 C   0  0  0  0  0  0  0  0  0  0  0  0
   -4.0050    1.1120    0.2090 O   0  0  0  0  0  0  0  0  0  0  0  0
   -3.1240    1.3530    1.2330 C   0  0  0  0  0  0  0  0  0  0  0  0
   -1.8350    1.4540    0.6920 O   0  0  0  0  0  0  0  0  0  0  0  0
  2  1  1  6
  2  3  1  0
  2 17  1  0
  2 20  1  0
  3  4  2  0
  3 15  1  0
  4  5  1  0
  4 13  1  0
  5  6  2  0
  5  7  1  0
  7  8  1  0
  8  9  1  0
  9 10  1  0
 10 11  1  0
 10 12  1  0
 13 14  1  0
 14 15  1  0
 15 16  2  0
 17 18  1  0
 18 19  1  0
 19 20  1  0
M  END
