
     RDKit          3D

 20 21  0  0  0  0  0  0  0  0999 V2000
    0.4680    1.3020   -0.5740 O   0  0  0  0  0  0  0  0  0  0  0  0
    1.5450    0.6790   -0.6430 C   0  0  0  0  0  0  0  0  0  0  0  0
    2.2920    0.6100   -1.8520 N   0  0  0  0  0  0  0  0  0  0  0  0
    3.6080   -0.0200   -1.7320 C   0  0  0  0  0  0  0  0  0  0  0  0
    4.2290    0.4950   -0.4590 C   0  0  2  0  0  0  0  0  0  0  0  0
    5.5190   -0.0670   -0.3880 O   0  0  0  0  0  0  0  0  0  0  0  0
    3.4540    0.1360    0.7810 C   0  0  0  0  0  0  0  0  0  0  0  0
    2.0290    0.0220    0.5270 N   0  0  0  0  0  0  0  0  0  0  0  0
    1.1840   -0.6970    1.4100 C   0  0  0  0  0  0  0  0  0  0  0  0
    1.7940   -1.1950    2.4270 O   0  0  0  0  0  0  0  0  0  0  0  0
   -0.2330   -0.8960    1.2520 C   0  0  0  0  0  0  0  0  0  0  0  0
   -0.9590   -1.5920    2.1450 C   0  0  0  0  0  0  0  0  0  0  0  0
   -2.2810   -1.6240    1.7450 O   0  0  0  0  0  0  0  0  0  0  0  0
   -2.3530   -1.1860    0.3950 C   0  0  1  0  0  0  0  0  0  0  0  0
   -3.5160   -0.2460    0.2090 C   0  0  0  0  0  0  0  0  0  0  0  0
   -3.5660    0.1680   -1.1170 O   0  0  0  0  0  0  0  0  0  0  0  0
   -4.8890    1.2550   -1.3960 P   0  0  0  0  0  0  0  0  0  0  0  0
   -4.9960    2.4920   -0.2130 O   0  0  0  0  0  0  0  0  0  0  0  0
   -6.3790    0.3380   -1.3570 O   0  0  0  0  0  0  0  0  0  0  0  0
   -1.1330   -0.4930    0.2810 O   0  0  0  0  0  0  0  0  0  0  0  0
  1  2  2  0
  2  3  1  0
  2  8  1  0
  3  4  1  0
  4  5  1  0
  5  6  1  1
  5  7  1  0
  7  8  1  0
  8  9  1  0
  9 10  2  0
  9 11  1  0
 11 12  2  0
 11 20  1  0
 12 13  1  0
 13 14  1  0
 14 15  1  1
 14 20  1  0
 15 16  1  0
 16 17  1  0
 17 18  1  0
 17 19  1  0
M  END
