
     RDKit          3D

 13 12  0  0  0  0  0  0  0  0999 V2000
   -4.7660   -0.0570   -0.0850 C   0  0  0  0  0  0  0  0  0  0  0  0
   -3.3310    0.2810    0.2840 C   0  0  0  0  0  0  0  0  0  0  0  0
   -2.9800   -0.5220    1.3590 O   0  0  0  0  0  0  0  0  0  0  0  0
   -1.7430   -0.2980    1.7520 O   0  0  0  0  0  0  0  0  0  0  0  0
   -1.2770    0.7220    1.0340 O   0  0  0  0  0  0  0  0  0  0  0  0
   -0.0580    0.6290    0.3920 C   0  0  0  0  0  0  0  0  0  0  0  0
    0.3750    1.7680   -0.4470 C   0  0  0  0  0  0  0  0  0  0  0  0
    0.6380   -0.4390    0.5550 N   0  0  0  0  0  0  0  0  0  0  0  0
    1.9250   -0.5870   -0.0960 C   0  0  2  0  0  0  0  0  0  0  0  0
    2.0730   -2.0330   -0.5780 C   0  0  0  0  0  0  0  0  0  0  0  0
    3.3300   -0.1890    1.0570 P   0  0  0  0  0  0  0  0  0  0  0  0
    4.0130    1.3470    0.5850 O   0  0  0  0  0  0  0  0  0  0  0  0
    4.5870   -1.3790    0.9400 O   0  0  0  0  0  0  0  0  0  0  0  0
  1  2  1  0
  2  3  1  0
  3  4  1  0
  4  5  1  0
  5  6  1  0
  6  7  1  0
  6  8  2  3
  8  9  1  0
  9 10  1  1
  9 11  1  0
 11 12  1  0
 11 13  1  0
M  END
