
     RDKit          3D

 13 12  0  0  0  0  0  0  0  0999 V2000
   -3.8470   -0.6360    0.5640 C   0  0  0  0  0  0  0  0  0  0  0  0
   -2.3630   -0.6930    0.8520 C   0  0  0  0  0  0  0  0  0  0  0  0
   -1.6380   -0.3330   -0.2820 O   0  0  0  0  0  0  0  0  0  0  0  0
   -0.3470   -0.4070    0.0510 O   0  0  0  0  0  0  0  0  0  0  0  0
    0.6530    0.2580   -0.6380 C   0  0  0  0  0  0  0  0  0  0  0  0
    0.4640    1.6880   -0.8450 C   0  0  0  0  0  0  0  0  0  0  0  0
   -0.5810    2.3060   -0.4110 N   0  0  0  0  0  0  0  0  0  0  0  0
   -0.7860    3.6350   -0.5870 O   0  0  0  0  0  0  0  0  0  0  0  0
    0.0100    4.5430    0.0180 O   0  0  0  0  0  0  0  0  0  0  0  0
    1.7310   -0.3350   -1.0970 C   0  0  0  0  0  0  0  0  0  0  0  0
    1.9710   -1.7780   -0.9140 C   0  0  0  0  0  0  0  0  0  0  0  0
    3.5250   -2.1180    0.0320 P   0  0  0  0  0  0  0  0  0  0  0  0
    4.0320   -0.7070    0.8930 O   0  0  0  0  0  0  0  0  0  0  0  0
  1  2  1  0
  2  3  1  0
  3  4  1  0
  4  5  1  0
  5  6  1  0
  5 10  2  3
  6  7  2  3
  7  8  1  0
  8  9  1  0
 10 11  1  0
 11 12  1  0
 12 13  1  0
M  END
