
     RDKit          3D

 13 12  0  0  0  0  0  0  0  0999 V2000
   -2.4180   -2.2830   -0.0540 C   0  0  0  0  0  0  0  0  0  0  0  0
   -1.3480   -1.9720    0.8140 O   0  0  0  0  0  0  0  0  0  0  0  0
   -1.1630   -0.2780    0.8400 P   0  0  0  0  0  0  0  0  0  0  0  0
    0.5770    0.3090    0.8730 C   0  0  0  0  0  0  0  0  0  0  0  0
    1.4090   -0.5560    0.1170 N   0  0  0  0  0  0  0  0  0  0  0  0
    1.0830   -0.6950   -1.2720 C   0  0  0  0  0  0  0  0  0  0  0  0
    2.8160   -0.4240    0.2900 C   0  0  0  0  0  0  0  0  0  0  0  0
    3.3760    0.8430   -0.2200 C   0  0  0  0  0  0  0  0  0  0  0  0
    4.6130    1.0760   -0.1770 O   0  0  0  0  0  0  0  0  0  0  0  0
    2.5350    1.7890   -0.7530 O   0  0  0  0  0  0  0  0  0  0  0  0
   -2.2250    0.5510    1.8800 O   0  0  0  0  0  0  0  0  0  0  0  0
   -3.0440    1.3770    1.0900 C   0  0  0  0  0  0  0  0  0  0  0  0
   -2.2290    2.2540    0.4170 O   0  0  0  0  0  0  0  0  0  0  0  0
  1  2  1  0
  2  3  1  0
  3  4  1  0
  3 11  1  0
  4  5  1  0
  5  6  1  0
  5  7  1  0
  7  8  1  0
  8  9  2  0
  8 10  1  0
 11 12  1  0
 12 13  1  0
M  END
