
     RDKit          3D

 13 12  0  0  0  0  0  0  0  0999 V2000
    3.5950    1.4060    0.5700 C   0  0  0  0  0  0  0  0  0  0  0  0
    2.5900    0.4150    0.3630 O   0  0  0  0  0  0  0  0  0  0  0  0
    2.2990    0.0550   -0.9510 C   0  0  0  0  0  0  0  0  0  0  0  0
    2.9350    0.6180   -1.8910 O   0  0  0  0  0  0  0  0  0  0  0  0
    1.2700   -0.9590   -1.1930 C   0  0  0  0  0  0  0  0  0  0  0  0
    0.6130   -1.5000    0.0210 C   0  0  2  0  0  0  0  0  0  0  0  0
   -0.3500   -2.4660   -0.3630 O   0  0  0  0  0  0  0  0  0  0  0  0
    0.0220   -0.6290    0.9290 N   0  0  0  0  0  0  0  0  0  0  0  0
   -1.0700    0.1780    0.5800 C   0  0  0  0  0  0  0  0  0  0  0  0
   -2.3660   -0.5260    0.3200 C   0  0  0  0  0  0  0  0  0  0  0  0
   -3.7010    0.7010   -0.1080 P   0  0  0  0  0  0  0  0  0  0  0  0
   -3.0740    2.0250   -1.0280 O   0  0  0  0  0  0  0  0  0  0  0  0
   -4.4120    1.3730    1.3340 O   0  0  0  0  0  0  0  0  0  0  0  0
  1  2  1  0
  2  3  1  0
  3  4  2  0
  3  5  1  0
  5  6  1  0
  6  7  1  6
  6  8  1  0
  8  9  1  0
  9 10  1  0
 10 11  1  0
 11 12  1  0
 11 13  1  0
M  END
