
     RDKit          3D

 13 12  0  0  0  0  0  0  0  0999 V2000
   -5.0190   -0.1670    0.6070 C   0  0  0  0  0  0  0  0  0  0  0  0
   -3.8580    0.0420   -0.1740 O   0  0  0  0  0  0  0  0  0  0  0  0
   -2.5860   -0.0110    0.3900 C   0  0  0  0  0  0  0  0  0  0  0  0
   -2.5120   -0.2590    1.6390 O   0  0  0  0  0  0  0  0  0  0  0  0
   -1.3820    0.1970   -0.4130 C   0  0  1  0  0  0  0  0  0  0  0  0
   -1.5360    1.5520   -1.0970 C   0  0  0  0  0  0  0  0  0  0  0  0
   -0.2000    0.0810    0.3050 O   0  0  0  0  0  0  0  0  0  0  0  0
    0.6640   -0.7910   -0.3320 C   0  0  0  0  0  0  0  0  0  0  0  0
    1.9180   -0.9150    0.3470 N   0  0  0  0  0  0  0  0  0  0  0  0
    2.8970    0.0240   -0.2610 C   0  0  0  0  0  0  0  0  0  0  0  0
    4.5540   -0.2150    0.4860 P   0  0  0  0  0  0  0  0  0  0  0  0
    5.5550    1.1480    0.0920 O   0  0  0  0  0  0  0  0  0  0  0  0
    5.2920   -1.6900    0.0060 O   0  0  0  0  0  0  0  0  0  0  0  0
  1  2  1  0
  2  3  1  0
  3  4  2  0
  3  5  1  0
  5  6  1  1
  5  7  1  0
  7  8  1  0
  8  9  1  0
  9 10  1  0
 10 11  1  0
 11 12  1  0
 11 13  1  0
M  END
