
     RDKit          3D

 13 12  0  0  0  0  0  0  0  0999 V2000
    4.1080   -0.6830    0.0950 C   0  0  0  0  0  0  0  0  0  0  0  0
    2.9250   -0.1800   -0.4460 O   0  0  0  0  0  0  0  0  0  0  0  0
    1.6640   -0.3750    0.1490 C   0  0  0  0  0  0  0  0  0  0  0  0
    1.6470   -1.0240    1.1950 O   0  0  0  0  0  0  0  0  0  0  0  0
    0.5490    0.2380   -0.5830 C   0  0  0  0  0  0  0  0  0  0  0  0
   -0.7630   -0.0290   -0.2110 N   0  0  0  0  0  0  0  0  0  0  0  0
   -1.3820   -1.2700   -0.4470 C   0  0  0  0  0  0  0  0  0  0  0  0
   -0.9360   -2.4690    0.3030 C   0  0  0  0  0  0  0  0  0  0  0  0
   -1.0860   -2.3080    1.6770 O   0  0  0  0  0  0  0  0  0  0  0  0
   -1.6500    1.0360   -0.6090 C   0  0  0  0  0  0  0  0  0  0  0  0
   -1.1390    2.6340    0.2070 P   0  0  0  0  0  0  0  0  0  0  0  0
   -1.5230    2.5300    1.8960 O   0  0  0  0  0  0  0  0  0  0  0  0
   -2.0790    3.9170   -0.4840 O   0  0  0  0  0  0  0  0  0  0  0  0
  1  2  1  0
  2  3  1  0
  3  4  2  0
  3  5  1  0
  5  6  1  0
  6  7  1  0
  6 10  1  0
  7  8  1  0
  8  9  1  0
 10 11  1  0
 11 12  1  0
 11 13  1  0
M  END
