
     RDKit          3D

 13 12  0  0  0  0  0  0  0  0999 V2000
    4.6480    0.4100   -0.6260 C   0  0  0  0  0  0  0  0  0  0  0  0
    3.4980    0.5230    0.1990 O   0  0  0  0  0  0  0  0  0  0  0  0
    2.2660    0.0470   -0.2740 C   0  0  0  0  0  0  0  0  0  0  0  0
    2.1770   -0.4590   -1.3750 O   0  0  0  0  0  0  0  0  0  0  0  0
    1.1020    0.1810    0.6280 C   0  0  0  0  0  0  0  0  0  0  0  0
   -0.0840   -0.3760    0.0400 N   0  0  0  0  0  0  0  0  0  0  0  0
   -0.0910   -1.7800   -0.0570 C   0  0  0  0  0  0  0  0  0  0  0  0
   -1.2890    0.2640    0.4890 C   0  0  2  0  0  0  0  0  0  0  0  0
   -2.4190   -0.5800    0.9290 C   0  0  0  0  0  0  0  0  0  0  0  0
   -2.9330   -1.3950   -0.0900 O   0  0  0  0  0  0  0  0  0  0  0  0
   -1.8570    1.3780   -0.8810 P   0  0  0  0  0  0  0  0  0  0  0  0
   -1.9000    3.0400   -0.4120 O   0  0  0  0  0  0  0  0  0  0  0  0
   -3.3920    0.9400   -1.5060 O   0  0  0  0  0  0  0  0  0  0  0  0
  1  2  1  0
  2  3  1  0
  3  4  2  0
  3  5  1  0
  5  6  1  0
  6  7  1  0
  6  8  1  0
  8  9  1  6
  8 11  1  0
  9 10  1  0
 11 12  1  0
 11 13  1  0
M  END
