
     RDKit          3D

 10  9  0  0  0  0  0  0  0  0999 V2000
    1.8230   -0.3840   -1.7420 O   0  0  0  0  0  0  0  0  0  0  0  0
    1.7810   -0.3600   -0.4850 C   0  0  0  0  0  0  0  0  0  0  0  0
    0.4910   -0.2330    0.2460 C   0  0  0  0  0  0  0  0  0  0  0  0
   -0.5080   -0.1590   -0.6460 O   0  0  0  0  0  0  0  0  0  0  0  0
   -2.0600   -0.0130   -0.1800 P   0  0  0  0  0  0  0  0  0  0  0  0
   -2.2910    1.1830   -1.1390 O   0  0  0  0  0  0  0  0  0  0  0  0
   -3.2570   -0.8580   -0.8400 O   0  0  0  0  0  0  0  0  0  0  0  0
   -2.4500    1.0870    1.0860 O   0  0  0  0  0  0  0  0  0  0  0  0
    3.0090   -0.4580    0.2120 N   0  0  0  0  0  0  0  0  0  0  0  0
    4.1560   -0.5700   -0.4680 O   0  0  0  0  0  0  0  0  0  0  0  0
  1  2  2  0
  2  3  1  0
  2  9  1  0
  3  4  1  0
  4  5  1  0
  5  6  1  0
  5  7  1  0
  5  8  1  0
  9 10  1  0
M  END
