
     RDKit          3D

 25 27  0  0  0  0  0  0  0  0999 V2000
   -5.5820    2.7880   -0.2870 C   0  0  0  0  0  0  0  0  0  0  0  0
   -4.2040    2.2300   -0.0540 C   0  0  0  0  0  0  0  0  0  0  0  0
   -4.2410    0.6850   -0.2790 C   0  0  0  0  0  0  0  0  0  0  0  0
   -2.8640    0.1750   -0.0420 C   0  0  0  0  0  0  0  0  0  0  0  0
   -1.9490    1.0730    0.2800 N   0  0  0  0  0  0  0  0  0  0  0  0
   -0.6000    0.7630    0.5370 C   0  0  0  0  0  0  0  0  0  0  0  0
    0.2920    1.6370    0.8500 N   0  0  0  0  0  0  0  0  0  0  0  0
    1.6350    1.2550    1.0970 C   0  0  0  0  0  0  0  0  0  0  0  0
    2.3930    1.9250    1.8670 O   0  0  0  0  0  0  0  0  0  0  0  0
    2.1200    0.0080    0.3980 C   0  0  1  0  0  0  0  0  0  0  0  0
    2.1440    0.3000   -1.0540 C   0  0  0  0  0  0  0  0  0  0  0  0
    3.4550    0.2030   -1.7460 C   0  0  0  0  0  0  0  0  0  0  0  0
    4.5490   -0.4590   -0.9680 C   0  0  0  0  0  0  0  0  0  0  0  0
    4.6050   -0.0740    0.3890 N   0  0  0  0  0  0  0  0  0  0  0  0
    5.2090    1.1500    0.7300 C   0  0  0  0  0  0  0  0  0  0  0  0
    6.6990    1.2010    0.5110 C   0  0  0  0  0  0  0  0  0  0  0  0
    3.3980   -0.3660    1.0510 C   0  0  0  0  0  0  0  0  0  0  0  0
    1.0880   -1.0980    0.6690 C   0  0  0  0  0  0  0  0  0  0  0  0
   -0.2520   -0.6080    0.4340 N   0  0  0  0  0  0  0  0  0  0  0  0
   -1.2460   -1.5460    0.0900 C   0  0  0  0  0  0  0  0  0  0  0  0
   -2.5380   -1.2250   -0.1540 C   0  0  0  0  0  0  0  0  0  0  0  0
   -3.4660   -2.2810   -0.4980 C   0  0  0  0  0  0  0  0  0  0  0  0
   -2.9450   -3.4740   -0.5400 O   0  0  0  0  0  0  0  0  0  0  0  0
   -4.8200   -2.2340   -0.7910 N   0  0  0  0  0  0  0  0  0  0  0  0
   -5.5060   -3.5130   -1.1120 C   0  0  0  0  0  0  0  0  0  0  0  0
  1  2  1  0
  2  3  1  0
  3  4  1  0
  4  5  2  0
  4 21  1  0
  5  6  1  0
  6  7  2  0
  6 19  1  0
  7  8  1  0
  8  9  2  0
  8 10  1  0
 10 11  1  6
 10 17  1  0
 10 18  1  0
 11 12  1  0
 12 13  1  0
 13 14  1  0
 14 15  1  0
 14 17  1  0
 15 16  1  0
 18 19  1  0
 19 20  1  0
 20 21  2  0
 21 22  1  0
 22 23  2  0
 22 24  1  0
 24 25  1  0
M  END
