
     RDKit          3D

 25 28  0  0  0  0  0  0  0  0999 V2000
   -4.9810    0.3350    0.1740 C   0  0  0  0  0  0  0  0  0  0  0  0
   -4.3940    0.9310    1.3800 C   0  0  0  0  0  0  0  0  0  0  0  0
   -2.9530    1.1360    1.5380 C   0  0  0  0  0  0  0  0  0  0  0  0
   -2.0540    0.0440    1.4710 N   0  0  0  0  0  0  0  0  0  0  0  0
   -2.1340   -1.0980    2.4060 C   0  0  0  0  0  0  0  0  0  0  0  0
   -0.9160    0.0310    0.6370 C   0  0  0  0  0  0  0  0  0  0  0  0
    0.3130   -0.0310    1.3250 C   0  0  0  0  0  0  0  0  0  0  0  0
    1.5100   -0.0410    0.6930 C   0  0  0  0  0  0  0  0  0  0  0  0
    2.8050   -0.0930    1.0960 N   0  0  0  0  0  0  0  0  0  0  0  0
    3.6080   -0.0750    0.0300 C   0  0  0  0  0  0  0  0  0  0  0  0
    5.0590   -0.1140    0.0200 C   0  0  0  0  0  0  0  0  0  0  0  0
    5.7650   -0.0920   -1.1690 C   0  0  0  0  0  0  0  0  0  0  0  0
    7.1370   -0.1260   -1.2140 C   0  0  0  0  0  0  0  0  0  0  0  0
    7.8110   -0.1820   -0.0520 N   0  0  0  0  0  0  0  0  0  0  0  0
    7.1680   -0.2050    1.1440 C   0  0  0  0  0  0  0  0  0  0  0  0
    5.7760   -0.1700    1.1770 C   0  0  0  0  0  0  0  0  0  0  0  0
    2.8210   -0.0110   -1.0590 N   0  0  0  0  0  0  0  0  0  0  0  0
    1.5200    0.0110   -0.6870 C   0  0  0  0  0  0  0  0  0  0  0  0
    0.3520    0.0690   -1.3400 N   0  0  0  0  0  0  0  0  0  0  0  0
   -0.8540    0.0800   -0.7000 C   0  0  0  0  0  0  0  0  0  0  0  0
   -2.0390    0.1360   -1.5540 C   0  0  1  0  0  0  0  0  0  0  0  0
   -1.6490    0.3320   -3.0230 C   0  0  0  0  0  0  0  0  0  0  0  0
   -2.8270   -0.0550   -3.6510 O   0  0  0  0  0  0  0  0  0  0  0  0
   -3.4720   -0.9190   -2.7920 C   0  0  0  0  0  0  0  0  0  0  0  0
   -2.6970   -1.0790   -1.6530 O   0  0  0  0  0  0  0  0  0  0  0  0
  1  2  1  0
  2  3  1  0
  3  4  1  0
  4  5  1  0
  4  6  1  0
  6  7  2  0
  6 20  1  0
  7  8  1  0
  8  9  1  0
  8 18  2  0
  9 10  1  0
 10 11  1  0
 10 17  2  0
 11 12  2  0
 11 16  1  0
 12 13  1  0
 13 14  2  0
 14 15  1  0
 15 16  2  0
 17 18  1  0
 18 19  1  0
 19 20  2  0
 21 20  1  1
 21 22  1  0
 21 25  1  0
 22 23  1  0
 23 24  1  0
 24 25  1  0
M  END
