
     RDKit          3D

 25 28  0  0  0  0  0  0  0  0999 V2000
   -5.9290   -0.8220    0.8260 C   0  0  0  0  0  0  0  0  0  0  0  0
   -4.6160   -0.7510    0.1860 C   0  0  0  0  0  0  0  0  0  0  0  0
   -4.0830    0.6490    0.2220 C   0  0  1  0  0  0  0  0  0  0  0  0
   -3.8290    1.2990    1.5130 C   0  0  0  0  0  0  0  0  0  0  0  0
   -3.0160    0.8850   -0.8450 N   0  0  0  0  0  0  0  0  0  0  0  0
   -2.0670   -0.0930   -0.8480 C   0  0  2  0  0  0  0  0  0  0  0  0
   -0.9040   -0.1230    0.0090 N   0  0  0  0  0  0  0  0  0  0  0  0
    0.1770   -0.1900   -0.7920 C   0  0  0  0  0  0  0  0  0  0  0  0
   -0.2340   -0.1500   -2.0200 C   0  0  0  0  0  0  0  0  0  0  0  0
   -1.4410   -0.1230   -2.3050 C   0  0  0  0  0  0  0  0  0  0  0  0
   -2.1940   -0.2300   -3.4830 C   0  0  0  0  0  0  0  0  0  0  0  0
   -2.8660   -0.3280   -4.5570 N   0  0  0  0  0  0  0  0  0  0  0  0
    1.0780    0.2490   -2.8250 C   0  0  0  0  0  0  0  0  0  0  0  0
    2.0820   -0.5470   -2.0640 C   0  0  0  0  0  0  0  0  0  0  0  0
    1.6150   -0.5610   -0.7000 N   0  0  0  0  0  0  0  0  0  0  0  0
    2.2340   -0.8420    0.5550 C   0  0  0  0  0  0  0  0  0  0  0  0
    3.6750   -0.4820    0.5650 C   0  0  0  0  0  0  0  0  0  0  0  0
    4.4900   -0.9060   -0.4600 C   0  0  0  0  0  0  0  0  0  0  0  0
    5.8500   -0.5620   -0.2490 C   0  0  0  0  0  0  0  0  0  0  0  0
    6.2390    0.0990    0.8440 N   0  0  0  0  0  0  0  0  0  0  0  0
    5.4000    0.4890    1.8320 C   0  0  0  0  0  0  0  0  0  0  0  0
    4.0780    0.1570    1.6330 C   0  0  0  0  0  0  0  0  0  0  0  0
    3.3450    0.6140    2.7370 O   0  0  0  0  0  0  0  0  0  0  0  0
    4.2240    1.4480    3.5210 C   0  0  0  0  0  0  0  0  0  0  0  0
    5.5250    1.1730    2.9880 O   0  0  0  0  0  0  0  0  0  0  0  0
  1  2  1  0
  2  3  1  0
  3  4  1  1
  3  5  1  0
  6  5  1  6
  6  7  1  0
  6 10  1  0
  7  8  2  0
  8  9  1  0
  8 15  1  0
  9 10  2  0
  9 13  1  0
 10 11  1  0
 11 12  3  0
 13 14  1  0
 14 15  1  0
 15 16  1  0
 16 17  1  0
 17 18  2  0
 17 22  1  0
 18 19  1  0
 19 20  2  0
 20 21  1  0
 21 22  2  0
 21 25  1  0
 22 23  1  0
 23 24  1  0
 24 25  1  0
M  END
