
     RDKit          3D

 23 23  0  0  0  0  0  0  0  0999 V2000
   -0.5080    3.9200   -2.4030 C   0  0  0  0  0  0  0  0  0  0  0  0
   -1.0420    2.7810   -1.9210 O   0  0  0  0  0  0  0  0  0  0  0  0
   -0.3530    2.0820   -0.9430 C   0  0  2  0  0  0  0  0  0  0  0  0
   -0.1650    2.8900    0.2730 C   0  0  0  0  0  0  0  0  0  0  0  0
    0.5570    2.4480    1.2030 O   0  0  0  0  0  0  0  0  0  0  0  0
   -0.7540    4.1160    0.4320 O   0  0  0  0  0  0  0  0  0  0  0  0
    0.9470    1.5910   -1.5320 C   0  0  0  0  0  0  0  0  0  0  0  0
    0.7430    0.1000   -1.8450 C   0  0  2  0  0  0  0  0  0  0  0  0
   -0.4570    0.0420   -2.5560 O   0  0  0  0  0  0  0  0  0  0  0  0
    0.5610   -0.6130   -0.5170 C   0  0  1  0  0  0  0  0  0  0  0  0
    1.7580   -0.6600    0.2550 N   0  0  0  0  0  0  0  0  0  0  0  0
    2.5830   -1.7940    0.4620 C   0  0  0  0  0  0  0  0  0  0  0  0
    2.2590   -2.8590   -0.0720 O   0  0  0  0  0  0  0  0  0  0  0  0
    3.8180   -1.7470    1.2930 C   0  0  0  0  0  0  0  0  0  0  0  0
    4.4580   -2.9600    1.3560 O   0  0  0  0  0  0  0  0  0  0  0  0
   -0.6170    0.0150    0.1660 C   0  0  2  0  0  0  0  0  0  0  0  0
   -1.7990   -0.9680    0.3290 C   0  0  2  0  0  0  0  0  0  0  0  0
   -2.8180   -0.1140    0.8560 O   0  0  0  0  0  0  0  0  0  0  0  0
   -1.5750   -1.9970    1.3770 C   0  0  2  0  0  0  0  0  0  0  0  0
   -0.6110   -2.8960    0.9460 O   0  0  0  0  0  0  0  0  0  0  0  0
   -2.8490   -2.8120    1.5950 C   0  0  0  0  0  0  0  0  0  0  0  0
   -3.8990   -2.0160    2.0340 O   0  0  0  0  0  0  0  0  0  0  0  0
   -1.1640    0.9660   -0.6810 O   0  0  0  0  0  0  0  0  0  0  0  0
  1  2  1  0
  3  2  1  6
  3  4  1  0
  3  7  1  0
  3 23  1  0
  4  5  2  0
  4  6  1  0
  7  8  1  0
  8  9  1  6
  8 10  1  0
 10 11  1  1
 10 16  1  0
 11 12  1  0
 12 13  2  0
 12 14  1  0
 14 15  1  0
 16 17  1  0
 16 23  1  6
 17 18  1  1
 17 19  1  0
 19 20  1  6
 19 21  1  0
 21 22  1  0
M  END
