
     RDKit          3D

 25 28  0  0  0  0  0  0  0  0999 V2000
    6.6530   -2.1850   -2.3030 C   0  0  0  0  0  0  0  0  0  0  0  0
    5.5210   -1.3700   -1.8110 C   0  0  0  0  0  0  0  0  0  0  0  0
    5.0670   -0.1730   -2.2220 N   0  0  0  0  0  0  0  0  0  0  0  0
    4.0320    0.1920   -1.5070 O   0  0  0  0  0  0  0  0  0  0  0  0
    3.7440   -0.7110   -0.6070 C   0  0  0  0  0  0  0  0  0  0  0  0
    2.6530   -0.6160    0.3500 C   0  0  0  0  0  0  0  0  0  0  0  0
    2.4240   -1.5230    1.2040 O   0  0  0  0  0  0  0  0  0  0  0  0
    1.7690    0.5020    0.3900 N   0  0  0  0  0  0  0  0  0  0  0  0
    0.6750    0.6130    1.3380 C   0  0  1  0  0  0  0  0  0  0  0  0
    0.8610    1.7650    2.2830 C   0  0  0  0  0  0  0  0  0  0  0  0
   -0.0400    2.9300    1.9880 C   0  0  0  0  0  0  0  0  0  0  0  0
    0.1810    3.5070    0.6130 C   0  0  0  0  0  0  0  0  0  0  0  0
   -0.6750    2.9200   -0.4510 C   0  0  0  0  0  0  0  0  0  0  0  0
   -1.1910    1.5960   -0.0630 N   0  0  0  0  0  0  0  0  0  0  0  0
   -2.3990    1.1920   -0.4640 N   0  0  0  0  0  0  0  0  0  0  0  0
   -2.6460   -0.0270    0.0050 C   0  0  0  0  0  0  0  0  0  0  0  0
   -3.8650   -0.8670   -0.1900 C   0  0  2  0  0  0  0  0  0  0  0  0
   -4.2760   -0.9680   -1.6160 C   0  0  0  0  0  0  0  0  0  0  0  0
   -5.7870   -1.1280   -1.5880 C   0  0  0  0  0  0  0  0  0  0  0  0
   -6.2070   -0.9670   -0.1460 C   0  0  0  0  0  0  0  0  0  0  0  0
   -5.0640   -0.1420    0.4340 C   0  0  0  0  0  0  0  0  0  0  0  0
   -1.5500   -0.3730    0.7150 N   0  0  0  0  0  0  0  0  0  0  0  0
   -0.6460    0.6210    0.6800 C   0  0  0  0  0  0  0  0  0  0  0  0
    4.6700   -1.7160   -0.7720 C   0  0  0  0  0  0  0  0  0  0  0  0
    4.7010   -2.9420    0.0550 C   0  0  0  0  0  0  0  0  0  0  0  0
  1  2  1  0
  2  3  2  0
  2 24  1  0
  3  4  1  0
  4  5  1  0
  5  6  1  0
  5 24  2  0
  6  7  2  0
  6  8  1  0
  9  8  1  6
  9 10  1  0
  9 23  1  0
 10 11  1  0
 11 12  1  0
 12 13  1  0
 13 14  1  0
 14 15  1  0
 14 23  1  0
 15 16  2  0
 17 16  1  6
 16 22  1  0
 17 18  1  0
 17 21  1  0
 18 19  1  0
 19 20  1  0
 20 21  1  0
 22 23  2  0
 24 25  1  0
M  END
