
     RDKit          3D

 23 25  0  0  0  0  0  0  0  0999 V2000
    5.4950   -1.1290   -0.9760 C   0  0  0  0  0  0  0  0  0  0  0  0
    5.3520   -0.1000    0.1290 C   0  0  2  0  0  0  0  0  0  0  0  0
    5.7550    1.2860   -0.3930 C   0  0  0  0  0  0  0  0  0  0  0  0
    6.2060   -0.3960    1.1770 O   0  0  0  0  0  0  0  0  0  0  0  0
    3.9390    0.0510    0.5810 C   0  0  0  0  0  0  0  0  0  0  0  0
    2.9150    0.3930    0.1620 N   0  0  0  0  0  0  0  0  0  0  0  0
    1.7440    0.4750    0.7330 C   0  0  0  0  0  0  0  0  0  0  0  0
    0.4220    0.9710    0.1390 C   0  0  0  0  0  0  0  0  0  0  0  0
   -0.4720   -0.1060    0.0520 N   0  0  0  0  0  0  0  0  0  0  0  0
   -1.7760    0.0070   -0.4140 C   0  0  1  0  0  0  0  0  0  0  0  0
   -2.2900   -1.4380   -0.5590 C   0  0  0  0  0  0  0  0  0  0  0  0
   -1.5440   -2.3180   -1.2400 N   0  0  0  0  0  0  0  0  0  0  0  0
   -1.9030   -3.5990   -1.4260 C   0  0  0  0  0  0  0  0  0  0  0  0
   -3.1040   -4.0220   -0.8850 C   0  0  0  0  0  0  0  0  0  0  0  0
   -3.8540   -3.0870   -0.1850 C   0  0  0  0  0  0  0  0  0  0  0  0
   -3.4440   -1.8270   -0.0320 N   0  0  0  0  0  0  0  0  0  0  0  0
   -2.7670    0.6970    0.3960 C   0  0  1  0  0  0  0  0  0  0  0  0
   -2.6830    2.0770    0.8700 C   0  0  0  0  0  0  0  0  0  0  0  0
   -3.4470    2.9160   -0.1220 C   0  0  0  0  0  0  0  0  0  0  0  0
   -3.8110    2.0380   -1.1720 N   0  0  0  0  0  0  0  0  0  0  0  0
   -4.0690    0.7650   -0.4920 C   0  0  0  0  0  0  0  0  0  0  0  0
    1.7190    0.0890    2.0580 C   0  0  0  0  0  0  0  0  0  0  0  0
    3.4810   -0.3780    2.3630 S   0  0  0  0  0  0  0  0  0  0  0  0
  2  1  1  6
  2  3  1  0
  2  4  1  0
  2  5  1  0
  5  6  2  0
  5 23  1  0
  6  7  1  0
  7  8  1  0
  7 22  2  0
  8  9  1  0
 10  9  1  1
 10 11  1  0
 10 17  1  0
 11 12  2  0
 11 16  1  0
 12 13  1  0
 13 14  2  0
 14 15  1  0
 15 16  2  0
 17 18  1  6
 17 21  1  0
 18 19  1  0
 19 20  1  0
 20 21  1  0
 22 23  1  0
M  CHG  1  20   1
M  END
