
     RDKit          3D

 23 25  0  0  0  0  0  0  0  0999 V2000
   -1.6360    2.2620    3.3330 C   0  0  0  0  0  0  0  0  0  0  0  0
   -2.0400    1.3690    2.1640 C   0  0  0  0  0  0  0  0  0  0  0  0
   -2.1000    2.1890    0.9000 C   0  0  0  0  0  0  0  0  0  0  0  0
   -2.4920    1.3720   -0.2870 C   0  0  0  0  0  0  0  0  0  0  0  0
   -1.5030    0.2750   -0.5360 C   0  0  1  0  0  0  0  0  0  0  0  0
   -1.9460   -0.5480   -1.7650 C   0  0  0  0  0  0  0  0  0  0  0  0
   -3.2350   -1.0920   -1.4670 N   0  0  0  0  0  0  0  0  0  0  0  0
   -3.3980   -2.4480   -1.9660 C   0  0  2  0  0  0  0  0  0  0  0  0
   -4.2380   -3.3230   -1.0640 C   0  0  0  0  0  0  0  0  0  0  0  0
   -2.7740   -3.5840   -1.2460 C   0  0  0  0  0  0  0  0  0  0  0  0
   -0.1830    0.7890   -0.7310 N   0  0  0  0  0  0  0  0  0  0  0  0
    0.9340    0.2740    0.0060 C   0  0  0  0  0  0  0  0  0  0  0  0
    0.7160   -0.6390    0.8200 O   0  0  0  0  0  0  0  0  0  0  0  0
    2.2630    0.8040   -0.1980 C   0  0  0  0  0  0  0  0  0  0  0  0
    2.5630    1.8260   -1.0630 N   0  0  0  0  0  0  0  0  0  0  0  0
    3.8470    2.0790   -1.0310 N   0  0  0  0  0  0  0  0  0  0  0  0
    4.4710    1.2440   -0.1470 C   0  0  0  0  0  0  0  0  0  0  0  0
    3.4660    0.4390    0.3770 C   0  0  0  0  0  0  0  0  0  0  0  0
    3.6250   -0.5100    1.2730 C   0  0  0  0  0  0  0  0  0  0  0  0
    4.7270   -1.0730    2.0080 C   0  0  0  0  0  0  0  0  0  0  0  0
    5.9840   -1.2000    1.3460 N   0  0  0  0  0  0  0  0  0  0  0  0
    6.7820    0.3520    1.1270 S   0  0  0  0  0  0  0  0  0  0  0  0
    5.7710    1.3240    0.0420 C   0  0  0  0  0  0  0  0  0  0  0  0
  1  2  1  0
  2  3  1  0
  3  4  1  0
  5  4  1  6
  5  6  1  0
  5 11  1  0
  6  7  1  0
  8  7  1  1
  8  9  1  0
  8 10  1  0
  9 10  1  0
 11 12  1  0
 12 13  2  0
 12 14  1  0
 14 15  2  0
 14 18  1  0
 15 16  1  0
 16 17  1  0
 17 18  1  0
 17 23  2  0
 18 19  2  0
 19 20  1  0
 20 21  1  0
 21 22  1  0
 22 23  1  0
M  CHG  1   7   1
M  END
