
     RDKit          3D

 13 12  0  0  0  0  0  0  0  0999 V2000
    3.5020   -0.9950   -1.1900 N   0  0  0  0  0  0  0  0  0  0  0  0
    2.5210   -0.1470   -0.4890 C   0  0  1  0  0  0  0  0  0  0  0  0
    1.1890   -0.8150   -0.6310 C   0  0  0  0  0  0  0  0  0  0  0  0
    0.0840   -0.0370    0.0460 C   0  0  0  0  0  0  0  0  0  0  0  0
   -1.2460   -0.7490   -0.1380 C   0  0  0  0  0  0  0  0  0  0  0  0
   -2.3320    0.0530    0.5500 C   0  0  1  0  0  0  0  0  0  0  0  0
   -2.4480    1.3830    0.0080 N   0  0  0  0  0  0  0  0  0  0  0  0
   -3.6240   -0.6440    0.5420 C   0  0  0  0  0  0  0  0  0  0  0  0
   -3.7230   -1.8200    0.9780 O   0  0  0  0  0  0  0  0  0  0  0  0
   -4.7980   -0.0640    0.0650 O   0  0  0  0  0  0  0  0  0  0  0  0
    2.9860   -0.0060    0.9000 C   0  0  0  0  0  0  0  0  0  0  0  0
    4.0180   -0.6330    1.2850 O   0  0  0  0  0  0  0  0  0  0  0  0
    2.3780    0.7830    1.8690 O   0  0  0  0  0  0  0  0  0  0  0  0
  2  1  1  6
  2  3  1  0
  2 11  1  0
  3  4  1  0
  4  5  1  0
  5  6  1  0
  6  7  1  6
  6  8  1  0
  8  9  2  0
  8 10  1  0
 11 12  2  0
 11 13  1  0
M  CHG  2   1   1   7   1
M  END
