
     RDKit          3D

 23 25  0  0  0  0  0  0  0  0999 V2000
   -2.8330    2.9770    0.1160 C   0  0  0  0  0  0  0  0  0  0  0  0
   -2.7020    2.3600   -1.2520 C   0  0  0  0  0  0  0  0  0  0  0  0
   -1.6670    1.2390   -1.1040 C   0  0  0  0  0  0  0  0  0  0  0  0
   -0.4500    1.3960   -1.5260 N   0  0  0  0  0  0  0  0  0  0  0  0
    0.4660    0.4950   -1.4320 C   0  0  0  0  0  0  0  0  0  0  0  0
    1.9090    0.3840   -1.8080 C   0  0  0  0  0  0  0  0  0  0  0  0
    2.6550    0.5780   -0.6000 N   0  0  0  0  0  0  0  0  0  0  0  0
    4.0830    0.5070   -0.7480 C   0  0  2  0  0  0  0  0  0  0  0  0
    4.5690   -0.8370   -1.2160 C   0  0  0  0  0  0  0  0  0  0  0  0
    4.5440   -1.7890   -0.0560 C   0  0  0  0  0  0  0  0  0  0  0  0
    5.7670   -1.5060    0.7890 C   0  0  0  0  0  0  0  0  0  0  0  0
    5.9490   -0.0160    0.8680 C   0  0  1  0  0  0  0  0  0  0  0  0
    6.9900    0.3840    0.0210 O   0  0  0  0  0  0  0  0  0  0  0  0
    4.6780    0.7520    0.6220 C   0  0  0  0  0  0  0  0  0  0  0  0
   -0.4870   -0.8360   -0.6140 S   0  0  0  0  0  0  0  0  0  0  0  0
   -2.0150    0.0750   -0.5320 C   0  0  0  0  0  0  0  0  0  0  0  0
   -3.2060   -0.5070    0.0570 C   0  0  0  0  0  0  0  0  0  0  0  0
   -3.2590   -1.7810    0.5770 N   0  0  0  0  0  0  0  0  0  0  0  0
   -4.4850   -2.0380    1.0460 C   0  0  0  0  0  0  0  0  0  0  0  0
   -5.2370   -0.9090    0.8240 C   0  0  0  0  0  0  0  0  0  0  0  0
   -6.6100   -0.6880    1.1460 N   0  0  0  0  0  0  0  0  0  0  0  0
   -7.4360   -1.7600    0.5970 C   0  0  0  0  0  0  0  0  0  0  0  0
   -4.4020   -0.0040    0.2160 N   0  0  0  0  0  0  0  0  0  0  0  0
  1  2  1  0
  2  3  1  0
  3  4  1  0
  3 16  2  0
  4  5  2  0
  5  6  1  0
  5 15  1  0
  6  7  1  0
  8  7  1  1
  8  9  1  0
  8 14  1  0
  9 10  1  0
 10 11  1  0
 11 12  1  0
 12 13  1  6
 12 14  1  0
 15 16  1  0
 16 17  1  0
 17 18  2  0
 17 23  1  0
 18 19  1  0
 19 20  2  0
 20 21  1  0
 20 23  1  0
 21 22  1  0
M  CHG  1  21   1
M  END
