
     RDKit          3D

 23 25  0  0  0  0  0  0  0  0999 V2000
    6.9500   -1.9660    0.5490 C   0  0  0  0  0  0  0  0  0  0  0  0
    6.0500   -1.1310    0.0550 C   0  0  0  0  0  0  0  0  0  0  0  0
    4.5920   -1.2890    0.1570 C   0  0  0  0  0  0  0  0  0  0  0  0
    3.9950    0.0030   -0.3630 C   0  0  1  0  0  0  0  0  0  0  0  0
    3.7600    0.9840    0.7530 C   0  0  0  0  0  0  0  0  0  0  0  0
    2.6210    0.3050    1.9820 S   0  0  0  0  0  0  0  0  0  0  0  0
    1.0250    0.1300    1.2030 C   0  0  0  0  0  0  0  0  0  0  0  0
    0.5840   -0.9520    0.5490 N   0  0  0  0  0  0  0  0  0  0  0  0
   -0.6310   -0.7370    0.1050 N   0  0  0  0  0  0  0  0  0  0  0  0
   -0.9790    0.4940    0.4730 C   0  0  0  0  0  0  0  0  0  0  0  0
   -2.2570    1.2040    0.2100 C   0  0  2  0  0  0  0  0  0  0  0  0
   -2.6850    1.8300    1.3740 O   0  0  0  0  0  0  0  0  0  0  0  0
   -3.3340    0.2800   -0.3170 C   0  0  2  0  0  0  0  0  0  0  0  0
   -2.8110   -0.3300   -1.5260 N   0  0  0  0  0  0  0  0  0  0  0  0
   -4.5570    1.0850   -0.5690 C   0  0  0  0  0  0  0  0  0  0  0  0
   -5.8050    0.6060    0.1030 C   0  0  0  0  0  0  0  0  0  0  0  0
   -6.0100   -0.8830    0.0350 C   0  0  0  0  0  0  0  0  0  0  0  0
   -4.7710   -1.6500    0.4280 C   0  0  0  0  0  0  0  0  0  0  0  0
   -3.6130   -0.7440    0.7550 C   0  0  0  0  0  0  0  0  0  0  0  0
    0.0380    1.0340    1.1510 N   0  0  0  0  0  0  0  0  0  0  0  0
    5.0830    0.6080   -1.2470 C   0  0  0  0  0  0  0  0  0  0  0  0
    6.3390    0.0880   -0.6750 C   0  0  0  0  0  0  0  0  0  0  0  0
    7.5120    0.6300   -0.8040 N   0  0  0  0  0  0  0  0  0  0  0  0
  1  2  2  0
  2  3  1  0
  2 22  1  0
  3  4  1  0
  4  5  1  1
  4 21  1  0
  5  6  1  0
  6  7  1  0
  7  8  2  0
  7 20  1  0
  8  9  1  0
  9 10  2  0
 10 11  1  0
 10 20  1  0
 11 12  1  1
 11 13  1  0
 13 14  1  6
 13 15  1  0
 13 19  1  0
 15 16  1  0
 16 17  1  0
 17 18  1  0
 18 19  1  0
 21 22  1  0
 22 23  2  0
M  CHG  1  14   1
M  END
