
     RDKit          3D

 23 24  0  0  0  0  0  0  0  0999 V2000
   -5.8990   -0.4210    1.7830 C   0  0  0  0  0  0  0  0  0  0  0  0
   -4.4680   -0.2120    2.1660 C   0  0  0  0  0  0  0  0  0  0  0  0
   -3.6250    0.6510    1.3780 C   0  0  0  0  0  0  0  0  0  0  0  0
   -3.1440    0.4670    0.0150 C   0  0  2  0  0  0  0  0  0  0  0  0
   -2.2880   -0.6920   -0.2670 C   0  0  0  0  0  0  0  0  0  0  0  0
   -1.0730   -0.9600    0.3290 N   0  0  0  0  0  0  0  0  0  0  0  0
    0.0910   -0.2040    0.1140 C   0  0  0  0  0  0  0  0  0  0  0  0
    1.3230   -0.8700    0.7040 C   0  0  0  0  0  0  0  0  0  0  0  0
    1.1500   -1.9600    1.2620 O   0  0  0  0  0  0  0  0  0  0  0  0
    2.5570   -0.1870    0.5620 N   0  0  0  0  0  0  0  0  0  0  0  0
    2.6200    1.1140   -0.0830 C   0  0  0  0  0  0  0  0  0  0  0  0
    3.9410    1.4120   -0.7250 C   0  0  0  0  0  0  0  0  0  0  0  0
    4.9080    0.3780   -0.6550 N   0  0  0  0  0  0  0  0  0  0  0  0
    4.8930   -0.6390    0.1150 C   0  0  0  0  0  0  0  0  0  0  0  0
    5.9630   -1.5430    0.0110 N   0  0  0  0  0  0  0  0  0  0  0  0
    7.1020   -1.2950   -0.8870 C   0  0  0  0  0  0  0  0  0  0  0  0
    7.8330   -0.0910   -0.2820 C   0  0  0  0  0  0  0  0  0  0  0  0
    3.7700   -0.8150    1.0630 C   0  0  0  0  0  0  0  0  0  0  0  0
   -2.4210    1.8200   -0.3010 C   0  0  0  0  0  0  0  0  0  0  0  0
   -1.9730    1.4400   -2.0090 S   0  0  0  0  0  0  0  0  0  0  0  0
   -3.5160    0.6020   -2.4410 C   0  0  0  0  0  0  0  0  0  0  0  0
   -4.2060    0.5060   -1.0570 C   0  0  1  0  0  0  0  0  0  0  0  0
   -5.0710   -0.6590   -1.0970 N   0  0  0  0  0  0  0  0  0  0  0  0
  1  2  1  0
  2  3  1  0
  4  3  1  1
  4  5  1  0
  4 19  1  0
  4 22  1  0
  5  6  1  0
  6  7  1  0
  7  8  1  0
  8  9  2  0
  8 10  1  0
 10 11  1  0
 10 18  1  0
 11 12  1  0
 12 13  1  0
 13 14  2  0
 14 15  1  0
 14 18  1  0
 15 16  1  0
 16 17  1  0
 19 20  1  0
 20 21  1  0
 21 22  1  0
 22 23  1  6
M  CHG  1  23   1
M  END
