
     RDKit          3D

 23 25  0  0  0  0  0  0  0  0999 V2000
   -2.4240    1.8190    0.1150 C   0  0  0  0  0  0  0  0  0  0  0  0
   -3.0450    1.0510    1.2190 C   0  0  2  0  0  0  0  0  0  0  0  0
   -2.6230    1.5570    2.5540 C   0  0  0  0  0  0  0  0  0  0  0  0
   -3.0180    0.9990    3.5490 O   0  0  0  0  0  0  0  0  0  0  0  0
   -2.7540   -0.7280    1.2070 S   0  0  0  0  0  0  0  0  0  0  0  0
   -3.5020   -1.4480   -0.2290 C   0  0  0  0  0  0  0  0  0  0  0  0
   -4.8320   -1.7680   -0.2300 N   0  0  0  0  0  0  0  0  0  0  0  0
   -5.4310   -2.3320   -1.2840 C   0  0  0  0  0  0  0  0  0  0  0  0
   -4.6780   -2.5950   -2.3940 C   0  0  0  0  0  0  0  0  0  0  0  0
   -3.3820   -2.2830   -2.3920 N   0  0  0  0  0  0  0  0  0  0  0  0
   -2.7410   -1.7080   -1.3330 C   0  0  0  0  0  0  0  0  0  0  0  0
   -1.3170   -1.4900   -1.4320 C   0  0  0  0  0  0  0  0  0  0  0  0
   -0.6430   -1.7970   -2.6530 N   0  0  0  0  0  0  0  0  0  0  0  0
   -0.6670   -1.0140   -0.4080 N   0  0  0  0  0  0  0  0  0  0  0  0
    0.7490   -0.8210   -0.5660 C   0  0  1  0  0  0  0  0  0  0  0  0
    1.0870    0.6030   -0.8270 C   0  0  0  0  0  0  0  0  0  0  0  0
    2.0860    0.9640    0.2250 C   0  0  2  0  0  0  0  0  0  0  0  0
    3.1600    1.9220   -0.2110 C   0  0  0  0  0  0  0  0  0  0  0  0
    4.0560    2.1140    1.0240 C   0  0  0  0  0  0  0  0  0  0  0  0
    4.5730    0.7710    1.4240 C   0  0  0  0  0  0  0  0  0  0  0  0
    3.5350   -0.2080    1.6880 N   0  0  0  0  0  0  0  0  0  0  0  0
    2.7790   -0.3630    0.4840 C   0  0  1  0  0  0  0  0  0  0  0  0
    1.5480   -1.2570    0.6560 C   0  0  0  0  0  0  0  0  0  0  0  0
  2  1  1  6
  2  3  1  0
  2  5  1  0
  3  4  2  0
  5  6  1  0
  6  7  2  0
  6 11  1  0
  7  8  1  0
  8  9  2  0
  9 10  1  0
 10 11  2  0
 11 12  1  0
 12 13  1  0
 12 14  2  3
 15 14  1  1
 15 16  1  0
 15 23  1  0
 17 16  1  6
 17 18  1  0
 17 22  1  0
 18 19  1  0
 19 20  1  0
 20 21  1  0
 21 22  1  0
 22 23  1  1
M  CHG  1  21   1
M  END
