
     RDKit          3D

 23 24  0  0  0  0  0  0  0  0999 V2000
   -3.9400    1.8910    2.4120 C   0  0  0  0  0  0  0  0  0  0  0  0
   -3.4960    1.9770    0.9450 C   0  0  2  0  0  0  0  0  0  0  0  0
   -4.6930    2.3320    0.1350 C   0  0  0  0  0  0  0  0  0  0  0  0
   -2.8850    0.7500    0.6230 N   0  0  0  0  0  0  0  0  0  0  0  0
   -2.9040    0.0720   -0.7730 S   0  0  1  0  0  0  0  0  0  0  0  0
   -3.8930   -1.3940   -0.7330 C   0  0  0  0  0  0  0  0  0  0  0  0
   -3.5750    1.0700   -1.7080 O   0  0  0  0  0  0  0  0  0  0  0  0
   -1.2850   -0.1950   -1.4100 C   0  0  0  0  0  0  0  0  0  0  0  0
   -0.4700   -1.1490   -0.6610 C   0  0  0  0  0  0  0  0  0  0  0  0
    0.6920   -0.8610   -0.0840 C   0  0  0  0  0  0  0  0  0  0  0  0
    1.3200    0.4210   -0.1070 N   0  0  0  0  0  0  0  0  0  0  0  0
    2.7340    0.5670    0.0120 C   0  0  1  0  0  0  0  0  0  0  0  0
    3.3630   -0.1950   -1.1610 C   0  0  0  0  0  0  0  0  0  0  0  0
    3.1300    2.0160   -0.1570 C   0  0  0  0  0  0  0  0  0  0  0  0
    4.6070    2.2130    0.0980 C   0  0  0  0  0  0  0  0  0  0  0  0
    4.8450    2.0100    1.5690 C   0  0  0  0  0  0  0  0  0  0  0  0
    3.7550    1.1900    2.2180 C   0  0  0  0  0  0  0  0  0  0  0  0
    3.2760    0.0650    1.3290 C   0  0  0  0  0  0  0  0  0  0  0  0
    1.1280   -2.0560    0.5180 N   0  0  0  0  0  0  0  0  0  0  0  0
    0.3480   -3.0240    0.3590 N   0  0  0  0  0  0  0  0  0  0  0  0
   -0.7740   -2.5680   -0.4150 C   0  0  2  0  0  0  0  0  0  0  0  0
   -0.7230   -3.2910   -1.7440 C   0  0  0  0  0  0  0  0  0  0  0  0
   -1.0110   -4.6980   -1.5980 N   0  0  0  0  0  0  0  0  0  0  0  0
  2  1  1  1
  2  3  1  0
  2  4  1  0
  4  5  2  0
  5  6  1  1
  5  7  2  0
  5  8  1  0
  8  9  1  0
  9 10  2  0
  9 21  1  0
 10 11  1  0
 10 19  1  0
 11 12  1  0
 12 13  1  6
 12 14  1  0
 12 18  1  0
 14 15  1  0
 15 16  1  0
 16 17  1  0
 17 18  1  0
 19 20  2  0
 20 21  1  0
 21 22  1  6
 22 23  1  0
M  CHG  1  23   1
M  END
