
     RDKit          3D

 23 24  0  0  0  0  0  0  0  0999 V2000
    7.4340   -0.2580    0.4260 C   0  0  0  0  0  0  0  0  0  0  0  0
    6.1410   -0.1970   -0.3830 C   0  0  2  0  0  0  0  0  0  0  0  0
    6.2310    0.9040   -1.3560 N   0  0  0  0  0  0  0  0  0  0  0  0
    5.0260    0.0610    0.6000 C   0  0  0  0  0  0  0  0  0  0  0  0
    3.7260    0.1480    0.0170 N   0  0  0  0  0  0  0  0  0  0  0  0
    3.2120   -1.0670   -0.5240 C   0  0  0  0  0  0  0  0  0  0  0  0
    2.8190    0.7790    0.9590 C   0  0  0  0  0  0  0  0  0  0  0  0
    1.4770    0.8290    0.3140 C   0  0  0  0  0  0  0  0  0  0  0  0
    0.5270    0.2170    0.8900 N   0  0  0  0  0  0  0  0  0  0  0  0
   -0.8480    0.0380    0.5970 C   0  0  0  0  0  0  0  0  0  0  0  0
   -1.4590    0.0970   -0.5420 C   0  0  0  0  0  0  0  0  0  0  0  0
   -2.8990   -0.1300   -0.5640 C   0  0  0  0  0  0  0  0  0  0  0  0
   -3.5530   -0.0830   -1.6710 O   0  0  0  0  0  0  0  0  0  0  0  0
   -3.7090   -0.4130    0.5610 N   0  0  0  0  0  0  0  0  0  0  0  0
   -5.1550   -0.6280    0.4360 C   0  0  1  0  0  0  0  0  0  0  0  0
   -5.5390   -2.0120    0.8830 C   0  0  0  0  0  0  0  0  0  0  0  0
   -5.8890    0.4410    1.1980 C   0  0  2  0  0  0  0  0  0  0  0  0
   -7.4090    0.3100    1.1330 C   0  0  0  0  0  0  0  0  0  0  0  0
   -6.7660    1.4240    0.3800 C   0  0  0  0  0  0  0  0  0  0  0  0
   -0.9240    0.3670   -1.9000 C   0  0  0  0  0  0  0  0  0  0  0  0
   -1.6910   -0.1160   -2.9790 N   0  0  0  0  0  0  0  0  0  0  0  0
    0.1740    1.0000   -2.2320 C   0  0  0  0  0  0  0  0  0  0  0  0
    1.4280    1.7680   -1.2000 S   0  0  0  0  0  0  0  0  0  0  0  0
  2  1  1  1
  2  3  1  0
  2  4  1  0
  4  5  1  0
  5  6  1  0
  5  7  1  0
  7  8  1  0
  8  9  2  0
  8 23  1  0
  9 10  1  0
 10 11  2  0
 11 12  1  0
 11 20  1  0
 12 13  2  0
 12 14  1  0
 14 15  1  0
 15 16  1  1
 15 17  1  0
 17 18  1  1
 17 19  1  0
 18 19  1  0
 20 21  1  0
 20 22  2  0
 22 23  1  0
M  CHG  1   3   1
M  END
