
     RDKit          3D

 36 40  0  0  0  0  0  0  0  0999 V2000
    8.3030    1.5590    3.2480 C   0  0  0  0  0  0  0  0  0  0  0  0
    7.5740    2.7390    2.6510 C   0  0  0  0  0  0  0  0  0  0  0  0
    6.2980    2.2810    2.1650 N   0  0  0  0  0  0  0  0  0  0  0  0
    6.2330    1.2830    1.1720 C   0  0  0  0  0  0  0  0  0  0  0  0
    7.2720    0.7820    0.7020 O   0  0  0  0  0  0  0  0  0  0  0  0
    4.9510    0.8250    0.6840 N   0  0  0  0  0  0  0  0  0  0  0  0
    4.9030   -0.1930   -0.3290 C   0  0  0  0  0  0  0  0  0  0  0  0
    6.4070   -0.8630   -1.0140 S   0  0  0  0  0  0  0  0  0  0  0  0
    5.5940   -1.9150   -2.1030 C   0  0  0  0  0  0  0  0  0  0  0  0
    6.1930   -2.8300   -3.0040 C   0  0  0  0  0  0  0  0  0  0  0  0
    5.3940   -3.6320   -3.7820 C   0  0  0  0  0  0  0  0  0  0  0  0
    4.0660   -3.4800   -3.6220 C   0  0  0  0  0  0  0  0  0  0  0  0
    3.4960   -2.5690   -2.7260 C   0  0  0  0  0  0  0  0  0  0  0  0
    4.2660   -1.7410   -1.9270 C   0  0  0  0  0  0  0  0  0  0  0  0
    3.8630   -0.8240   -0.9860 C   0  0  0  0  0  0  0  0  0  0  0  0
    2.5140   -0.4960   -0.5470 C   0  0  0  0  0  0  0  0  0  0  0  0
    2.5070    0.1230    0.6530 O   0  0  0  0  0  0  0  0  0  0  0  0
    1.2280   -0.6090   -0.9830 N   0  0  0  0  0  0  0  0  0  0  0  0
    0.5310   -1.0830   -2.1380 C   0  0  0  0  0  0  0  0  0  0  0  0
   -0.7900   -0.3230   -2.3620 C   0  0  0  0  0  0  0  0  0  0  0  0
   -1.7800   -0.6870   -1.2390 C   0  0  2  0  0  0  0  0  0  0  0  0
   -2.5650    0.4600   -1.0240 N   0  0  0  0  0  0  0  0  0  0  0  0
   -3.3350    0.8580   -2.1430 C   0  0  0  0  0  0  0  0  0  0  0  0
   -4.8160    0.7650   -2.0050 C   0  0  0  0  0  0  0  0  0  0  0  0
   -5.2440   -0.1220   -0.8570 C   0  0  0  0  0  0  0  0  0  0  0  0
   -4.5680    0.3160    0.4250 C   0  0  1  0  0  0  0  0  0  0  0  0
   -3.1370    0.7140    0.2370 C   0  0  0  0  0  0  0  0  0  0  0  0
   -5.3900    1.4270    1.0970 C   0  0  0  0  0  0  0  0  0  0  0  0
   -6.5250    0.6560    1.7400 C   0  0  1  0  0  0  0  0  0  0  0  0
   -6.6240    0.9780    3.2380 C   0  0  0  0  0  0  0  0  0  0  0  0
   -7.8420    0.9310    1.0780 C   0  0  0  0  0  0  0  0  0  0  0  0
   -6.1560   -0.7190    1.6790 O   0  0  0  0  0  0  0  0  0  0  0  0
   -4.7730   -0.7770    1.4120 C   0  0  0  0  0  0  0  0  0  0  0  0
   -3.9460   -1.5850    1.9160 O   0  0  0  0  0  0  0  0  0  0  0  0
   -0.9080   -1.1350   -0.0970 C   0  0  0  0  0  0  0  0  0  0  0  0
    0.1800   -0.0920    0.0070 C   0  0  0  0  0  0  0  0  0  0  0  0
  1  2  1  0
  2  3  1  0
  3  4  1  0
  4  5  2  0
  4  6  1  0
  6  7  1  0
  7  8  1  0
  7 15  2  0
  8  9  1  0
  9 10  2  0
  9 14  1  0
 10 11  1  0
 11 12  2  0
 12 13  1  0
 13 14  2  0
 14 15  1  0
 15 16  1  0
 16 17  2  0
 16 18  1  0
 18 19  1  0
 18 36  1  0
 19 20  1  0
 20 21  1  0
 21 22  1  1
 21 35  1  0
 22 23  1  0
 22 27  1  0
 23 24  1  0
 24 25  1  0
 26 25  1  6
 26 27  1  0
 26 28  1  0
 26 33  1  0
 28 29  1  0
 29 30  1  1
 29 31  1  0
 29 32  1  0
 32 33  1  0
 33 34  2  0
 35 36  1  0
M  END
