
     RDKit          3D

 37 40  0  0  0  0  0  0  0  0999 V2000
   -7.4010   -1.2050   -0.8430 C   0  0  0  0  0  0  0  0  0  0  0  0
   -6.1020   -1.9120   -0.4460 C   0  0  2  0  0  0  0  0  0  0  0  0
   -6.3490   -3.2260    0.0690 N   0  0  0  0  0  0  0  0  0  0  0  0
   -5.3240   -1.0290    0.4300 C   0  0  0  0  0  0  0  0  0  0  0  0
   -4.0710   -1.2240    0.7870 C   0  0  0  0  0  0  0  0  0  0  0  0
   -3.2090   -2.3440    0.3920 C   0  0  0  0  0  0  0  0  0  0  0  0
   -1.8750   -2.0530    1.0440 C   0  0  0  0  0  0  0  0  0  0  0  0
   -1.8730   -0.6350    1.1940 N   0  0  0  0  0  0  0  0  0  0  0  0
   -0.8890    0.3270    0.9990 C   0  0  0  0  0  0  0  0  0  0  0  0
   -1.2200    1.5390    1.2100 O   0  0  0  0  0  0  0  0  0  0  0  0
    0.4630    0.0820    0.5820 C   0  0  0  0  0  0  0  0  0  0  0  0
    1.1340   -1.5820    0.2820 S   0  0  0  0  0  0  0  0  0  0  0  0
    2.8110   -0.9400   -0.1880 C   0  0  0  0  0  0  0  0  0  0  0  0
    3.8350   -1.8800   -0.5740 N   0  0  0  0  0  0  0  0  0  0  0  0
    3.6290   -3.2700   -0.6480 C   0  0  0  0  0  0  0  0  0  0  0  0
    2.4800   -3.7240   -0.3460 O   0  0  0  0  0  0  0  0  0  0  0  0
    4.6290   -4.2370   -1.0460 C   0  0  0  0  0  0  0  0  0  0  0  0
    4.3330   -5.6130   -1.1010 N   0  0  0  0  0  0  0  0  0  0  0  0
    5.8340   -3.8350   -1.3630 C   0  0  0  0  0  0  0  0  0  0  0  0
    6.9170   -4.7740   -1.7850 C   0  0  0  0  0  0  0  0  0  0  0  0
    7.3500   -4.4450   -3.0730 F   0  0  0  0  0  0  0  0  0  0  0  0
    2.6310    0.2160   -0.0660 N   0  0  0  0  0  0  0  0  0  0  0  0
    1.5370    0.8460    0.3010 C   0  0  0  0  0  0  0  0  0  0  0  0
    1.5140    2.3370    0.3480 C   0  0  0  0  0  0  0  0  0  0  0  0
    2.5610    3.2090    0.0640 C   0  0  0  0  0  0  0  0  0  0  0  0
    2.1220    4.4920    0.2230 C   0  0  0  0  0  0  0  0  0  0  0  0
    2.7010    5.7550    0.0800 C   0  0  0  0  0  0  0  0  0  0  0  0
    1.9970    6.9070    0.3100 C   0  0  0  0  0  0  0  0  0  0  0  0
    2.6260    8.2450    0.1450 C   0  0  2  0  0  0  0  0  0  0  0  0
    1.5980    9.1520   -0.1490 F   0  0  0  0  0  0  0  0  0  0  0  0
    3.5330    8.2760   -0.8810 F   0  0  0  0  0  0  0  0  0  0  0  0
    3.2500    8.5910    1.3060 F   0  0  0  0  0  0  0  0  0  0  0  0
    0.6820    6.7740    0.6920 C   0  0  0  0  0  0  0  0  0  0  0  0
    0.0920    5.5400    0.8380 C   0  0  0  0  0  0  0  0  0  0  0  0
    0.8010    4.3750    0.6060 C   0  0  0  0  0  0  0  0  0  0  0  0
    0.5180    3.1110    0.6590 O   0  0  0  0  0  0  0  0  0  0  0  0
   -3.2630   -0.3300    1.6530 C   0  0  0  0  0  0  0  0  0  0  0  0
  2  1  1  1
  2  3  1  0
  2  4  1  0
  4  5  2  3
  5  6  1  0
  5 37  1  0
  6  7  1  0
  7  8  1  0
  8  9  1  0
  8 37  1  0
  9 10  2  0
  9 11  1  0
 11 12  1  0
 11 23  2  0
 12 13  1  0
 13 14  1  0
 13 22  2  0
 14 15  1  0
 15 16  2  0
 15 17  1  0
 17 18  1  0
 17 19  2  3
 19 20  1  0
 20 21  1  0
 22 23  1  0
 23 24  1  0
 24 25  2  0
 24 36  1  0
 25 26  1  0
 26 27  2  0
 26 35  1  0
 27 28  1  0
 28 29  1  0
 28 33  2  0
 29 30  1  6
 29 31  1  0
 29 32  1  0
 33 34  1  0
 34 35  2  0
 35 36  1  0
M  CHG  1   3   1
M  END
