
     RDKit          3D

 37 40  0  0  0  0  0  0  0  0999 V2000
   -2.2330    2.3770    1.0820 C   0  0  0  0  0  0  0  0  0  0  0  0
   -1.9110    1.1720    0.4360 O   0  0  0  0  0  0  0  0  0  0  0  0
   -2.8800    0.3220   -0.0310 C   0  0  0  0  0  0  0  0  0  0  0  0
   -4.2320    0.6780    0.1500 C   0  0  0  0  0  0  0  0  0  0  0  0
   -5.2740   -0.1020   -0.2810 C   0  0  0  0  0  0  0  0  0  0  0  0
   -6.6470   -0.0170   -0.2530 C   0  0  0  0  0  0  0  0  0  0  0  0
   -7.3750    0.9280    0.2620 C   0  0  0  0  0  0  0  0  0  0  0  0
   -6.8980    2.1240    0.9320 C   0  0  0  0  0  0  0  0  0  0  0  0
   -6.3910    1.9100    2.2030 F   0  0  0  0  0  0  0  0  0  0  0  0
   -7.1860   -1.1560   -0.8770 C   0  0  0  0  0  0  0  0  0  0  0  0
   -8.4480   -1.4960   -1.0940 C   0  0  0  0  0  0  0  0  0  0  0  0
   -8.7570   -2.6660   -1.7290 F   0  0  0  0  0  0  0  0  0  0  0  0
   -9.4980   -0.7460   -0.7290 F   0  0  0  0  0  0  0  0  0  0  0  0
   -6.1270   -1.8930   -1.2620 N   0  0  0  0  0  0  0  0  0  0  0  0
   -4.9840   -1.3030   -0.9250 C   0  0  0  0  0  0  0  0  0  0  0  0
   -3.6660   -1.6330   -1.0920 C   0  0  0  0  0  0  0  0  0  0  0  0
   -2.6030   -0.8590   -0.6650 C   0  0  0  0  0  0  0  0  0  0  0  0
   -1.2520   -1.3440   -0.8690 N   0  0  0  0  0  0  0  0  0  0  0  0
   -1.1610   -2.4560   -1.8270 C   0  0  0  0  0  0  0  0  0  0  0  0
   -0.1820   -0.7630   -0.2770 C   0  0  0  0  0  0  0  0  0  0  0  0
    0.1070    0.2360    0.2310 O   0  0  0  0  0  0  0  0  0  0  0  0
    1.1810   -1.8770   -0.2740 N   0  0  0  0  0  0  0  0  0  0  0  0
    2.1120   -0.9590    0.3030 C   0  0  0  0  0  0  0  0  0  0  0  0
    1.9910    0.1710    0.6110 O   0  0  0  0  0  0  0  0  0  0  0  0
    3.3940   -1.6910    0.4580 N   0  0  0  0  0  0  0  0  0  0  0  0
    4.5870   -1.1140    0.7390 C   0  0  0  0  0  0  0  0  0  0  0  0
    5.8850   -2.1440    1.4010 S   0  0  0  0  0  0  0  0  0  0  0  0
    7.1720   -0.9660    1.3100 C   0  0  0  0  0  0  0  0  0  0  0  0
    8.5170   -1.1060    1.6680 C   0  0  0  0  0  0  0  0  0  0  0  0
    9.3610   -0.0420    1.4970 C   0  0  0  0  0  0  0  0  0  0  0  0
    8.7990    1.0940    0.9770 C   0  0  0  0  0  0  0  0  0  0  0  0
    9.6490    2.1660    0.7940 F   0  0  0  0  0  0  0  0  0  0  0  0
    7.4710    1.2130    0.6290 C   0  0  0  0  0  0  0  0  0  0  0  0
    6.5710    0.1300    0.7940 C   0  0  0  0  0  0  0  0  0  0  0  0
    5.2490    0.0840    0.4930 C   0  0  0  0  0  0  0  0  0  0  0  0
    4.4320    1.2110   -0.0860 C   0  0  0  0  0  0  0  0  0  0  0  0
    5.0820    2.4190   -0.4900 N   0  0  0  0  0  0  0  0  0  0  0  0
  1  2  1  0
  2  3  1  0
  3  4  2  0
  3 17  1  0
  4  5  1  0
  5  6  1  0
  5 15  2  0
  6  7  2  3
  6 10  1  0
  7  8  1  0
  8  9  1  0
 10 11  2  3
 10 14  1  0
 11 12  1  0
 11 13  1  0
 14 15  1  0
 15 16  1  0
 16 17  2  0
 17 18  1  0
 18 19  1  0
 18 20  1  0
 20 21  2  0
 20 22  1  0
 22 23  1  0
 23 24  2  0
 23 25  1  0
 25 26  1  0
 26 27  1  0
 26 35  2  0
 27 28  1  0
 28 29  2  0
 28 34  1  0
 29 30  1  0
 30 31  2  0
 31 32  1  0
 31 33  1  0
 33 34  2  0
 34 35  1  0
 35 36  1  0
 36 37  1  0
M  CHG  1  37   1
M  END
