
     RDKit          3D

 35 39  0  0  0  0  0  0  0  0999 V2000
    2.0820   -1.2430   -3.1390 C   0  0  0  0  0  0  0  0  0  0  0  0
    1.4240   -0.7540   -1.9090 C   0  0  2  0  0  0  0  0  0  0  0  0
    2.2350   -0.6830   -0.6580 C   0  0  0  0  0  0  0  0  0  0  0  0
    3.4220    0.2300   -0.8130 C   0  0  0  0  0  0  0  0  0  0  0  0
    3.5800    0.7630   -1.9330 O   0  0  0  0  0  0  0  0  0  0  0  0
    4.2590    0.4180    0.3010 N   0  0  0  0  0  0  0  0  0  0  0  0
    4.0740   -0.2040    1.5890 C   0  0  0  0  0  0  0  0  0  0  0  0
    4.7140    0.7260    2.5990 C   0  0  0  0  0  0  0  0  0  0  0  0
    4.5310    2.0690    2.3120 O   0  0  0  0  0  0  0  0  0  0  0  0
    5.0880    2.4750    1.1180 C   0  0  2  0  0  0  0  0  0  0  0  0
    4.1090    3.2090    0.4440 F   0  0  0  0  0  0  0  0  0  0  0  0
    5.3990    1.3070    0.1880 C   0  0  0  0  0  0  0  0  0  0  0  0
    0.1210   -1.3040   -1.6080 N   0  0  0  0  0  0  0  0  0  0  0  0
   -0.2370   -2.5880   -1.2540 C   0  0  0  0  0  0  0  0  0  0  0  0
   -1.4970   -2.7500   -0.9800 O   0  0  0  0  0  0  0  0  0  0  0  0
    0.5510   -3.7980   -1.1330 C   0  0  0  0  0  0  0  0  0  0  0  0
    0.0360   -5.0480   -0.7310 C   0  0  0  0  0  0  0  0  0  0  0  0
    1.0500   -5.9470   -0.7200 C   0  0  0  0  0  0  0  0  0  0  0  0
    2.1390   -5.3010   -1.0940 N   0  0  0  0  0  0  0  0  0  0  0  0
    1.8460   -4.0370   -1.3370 N   0  0  0  0  0  0  0  0  0  0  0  0
   -1.0120   -0.3590   -1.6540 C   0  0  0  0  0  0  0  0  0  0  0  0
   -1.4590    0.0700   -2.8770 C   0  0  0  0  0  0  0  0  0  0  0  0
   -2.5000    0.9720   -2.9210 C   0  0  0  0  0  0  0  0  0  0  0  0
   -3.1110    1.4610   -1.7520 C   0  0  0  0  0  0  0  0  0  0  0  0
   -2.6540    1.0200   -0.5520 C   0  0  0  0  0  0  0  0  0  0  0  0
   -1.5960    0.1040   -0.5030 C   0  0  0  0  0  0  0  0  0  0  0  0
   -3.5050    1.6220    0.5190 C   0  0  2  0  0  0  0  0  0  0  0  0
   -2.6300    2.2250    1.6020 C   0  0  0  0  0  0  0  0  0  0  0  0
   -3.0080    1.5680    2.9130 C   0  0  0  0  0  0  0  0  0  0  0  0
   -4.5070    1.7480    3.1620 C   0  0  0  0  0  0  0  0  0  0  0  0
   -5.3320    1.0750    2.0990 C   0  0  0  0  0  0  0  0  0  0  0  0
   -4.4180    0.5370    1.0410 C   0  0  0  0  0  0  0  0  0  0  0  0
   -4.3030    2.6300   -0.1810 C   0  0  0  0  0  0  0  0  0  0  0  0
   -5.2420    3.8270    0.5030 S   0  0  0  0  0  0  0  0  0  0  0  0
   -4.1250    2.4430   -1.5740 N   0  0  0  0  0  0  0  0  0  0  0  0
  2  1  1  6
  2  3  1  0
  2 13  1  0
  3  4  1  0
  4  5  2  0
  4  6  1  0
  6  7  1  0
  6 12  1  0
  7  8  1  0
  8  9  1  0
  9 10  1  0
 10 11  1  6
 10 12  1  0
 13 14  1  0
 13 21  1  0
 14 15  2  0
 14 16  1  0
 16 17  2  0
 16 20  1  0
 17 18  1  0
 18 19  2  0
 19 20  1  0
 21 22  2  0
 21 26  1  0
 22 23  1  0
 23 24  2  0
 24 25  1  0
 24 35  1  0
 25 26  2  0
 25 27  1  0
 27 28  1  1
 27 32  1  0
 27 33  1  0
 28 29  1  0
 29 30  1  0
 30 31  1  0
 31 32  1  0
 33 34  2  0
 33 35  1  0
M  END
