
     RDKit          3D

 37 40  0  0  0  0  0  0  0  0999 V2000
    7.8320    1.4520   -2.5060 C   0  0  0  0  0  0  0  0  0  0  0  0
    7.1890    1.3450   -1.3280 C   0  0  0  0  0  0  0  0  0  0  0  0
    6.9910    2.3190   -0.4770 O   0  0  0  0  0  0  0  0  0  0  0  0
    6.3190    1.9110    0.5720 C   0  0  0  0  0  0  0  0  0  0  0  0
    5.9330    2.7370    1.7260 C   0  0  0  0  0  0  0  0  0  0  0  0
    5.2810    2.4280    2.6840 O   0  0  0  0  0  0  0  0  0  0  0  0
    6.0670    0.5570    0.3690 C   0  0  0  0  0  0  0  0  0  0  0  0
    5.3060   -0.3200    1.3430 C   0  0  0  0  0  0  0  0  0  0  0  0
    4.2090   -0.8310    0.6040 N   0  0  0  0  0  0  0  0  0  0  0  0
    3.3270   -1.8300    1.0130 C   0  0  0  0  0  0  0  0  0  0  0  0
    1.9410   -1.1490    1.0210 C   0  0  0  0  0  0  0  0  0  0  0  0
    1.6580   -0.2420    2.0930 C   0  0  0  0  0  0  0  0  0  0  0  0
    0.1350    0.4070    1.6850 S   0  0  0  0  0  0  0  0  0  0  0  0
   -0.0240   -0.6390    0.0370 C   0  0  0  0  0  0  0  0  0  0  0  0
   -1.2700   -0.4200   -0.6520 N   0  0  0  0  0  0  0  0  0  0  0  0
   -2.1430    0.6590   -0.3060 C   0  0  0  0  0  0  0  0  0  0  0  0
   -1.6240    1.6080    0.2940 O   0  0  0  0  0  0  0  0  0  0  0  0
   -3.5790    0.5850   -0.6290 C   0  0  0  0  0  0  0  0  0  0  0  0
   -4.2470   -0.2530   -1.3810 N   0  0  0  0  0  0  0  0  0  0  0  0
   -5.5680   -0.2030   -1.1100 C   0  0  0  0  0  0  0  0  0  0  0  0
   -6.6450   -0.9760   -1.5510 C   0  0  0  0  0  0  0  0  0  0  0  0
   -7.8610   -0.8050   -0.9960 C   0  0  0  0  0  0  0  0  0  0  0  0
   -9.0310   -1.7300   -1.3550 C   0  0  0  0  0  0  0  0  0  0  0  0
   -8.0640    0.1260   -0.0060 C   0  0  0  0  0  0  0  0  0  0  0  0
   -9.3100    0.3430    0.6140 N   0  0  0  0  0  0  0  0  0  0  0  0
   -6.9770    0.8980    0.4280 C   0  0  0  0  0  0  0  0  0  0  0  0
   -5.7130    0.7550   -0.1020 C   0  0  0  0  0  0  0  0  0  0  0  0
   -4.4820    1.2620    0.2020 C   0  0  0  0  0  0  0  0  0  0  0  0
   -4.2040    2.3560    1.1820 C   0  0  2  0  0  0  0  0  0  0  0  0
   -5.3520    2.7300    1.8810 F   0  0  0  0  0  0  0  0  0  0  0  0
   -3.8370    3.5370    0.5020 F   0  0  0  0  0  0  0  0  0  0  0  0
   -3.2100    1.9730    2.0440 F   0  0  0  0  0  0  0  0  0  0  0  0
    1.0120   -1.1920    0.1400 N   0  0  0  0  0  0  0  0  0  0  0  0
    6.6130    0.1680   -0.8150 C   0  0  0  0  0  0  0  0  0  0  0  0
    6.7300   -1.0030   -1.3680 C   0  0  0  0  0  0  0  0  0  0  0  0
    6.2600   -2.3130   -0.9960 C   0  0  0  0  0  0  0  0  0  0  0  0
    6.9160   -3.2920   -1.8220 F   0  0  0  0  0  0  0  0  0  0  0  0
  1  2  2  0
  2  3  1  0
  2 34  1  0
  3  4  1  0
  4  5  1  0
  4  7  2  0
  5  6  2  0
  7  8  1  0
  7 34  1  0
  8  9  1  0
  9 10  1  0
 10 11  1  0
 11 12  2  0
 11 33  1  0
 12 13  1  0
 13 14  1  0
 14 15  1  0
 14 33  2  0
 15 16  1  0
 16 17  2  0
 16 18  1  0
 18 19  1  0
 18 28  2  0
 19 20  1  0
 20 21  2  0
 20 27  1  0
 21 22  1  0
 22 23  1  0
 22 24  2  0
 24 25  1  0
 24 26  1  0
 26 27  2  0
 27 28  1  0
 28 29  1  0
 29 30  1  1
 29 31  1  0
 29 32  1  0
 34 35  2  3
 35 36  1  0
 36 37  1  0
M  CHG  1   9   1
M  END
