
     RDKit          3D

 35 39  0  0  0  0  0  0  0  0999 V2000
    8.1460   -0.1050   -1.0170 C   0  0  0  0  0  0  0  0  0  0  0  0
    6.7140    0.3250   -0.9630 C   0  0  1  0  0  0  0  0  0  0  0  0
    5.9050   -0.1420   -2.1540 C   0  0  0  0  0  0  0  0  0  0  0  0
    4.5150   -0.5500   -1.7920 C   0  0  0  0  0  0  0  0  0  0  0  0
    3.8880    0.4040   -0.8330 C   0  0  1  0  0  0  0  0  0  0  0  0
    2.6080   -0.1020   -0.4040 N   0  0  0  0  0  0  0  0  0  0  0  0
    1.7860    0.5940    0.5090 C   0  0  0  0  0  0  0  0  0  0  0  0
    0.6300    0.4010    1.0620 N   0  0  0  0  0  0  0  0  0  0  0  0
    0.0450    1.1610    1.8770 C   0  0  0  0  0  0  0  0  0  0  0  0
   -1.3370    0.8620    2.4950 C   0  0  0  0  0  0  0  0  0  0  0  0
   -1.9010   -0.3200    1.9520 N   0  0  0  0  0  0  0  0  0  0  0  0
   -1.1190   -1.5210    2.1290 C   0  0  0  0  0  0  0  0  0  0  0  0
   -0.9460   -2.2990    0.9210 N   0  0  0  0  0  0  0  0  0  0  0  0
   -2.1110   -2.5860    0.1510 C   0  0  0  0  0  0  0  0  0  0  0  0
   -2.3580   -3.6200   -0.4610 O   0  0  0  0  0  0  0  0  0  0  0  0
   -3.0970   -1.4050    0.1600 C   0  0  0  0  0  0  0  0  0  0  0  0
   -4.2850   -1.6810   -0.2300 C   0  0  0  0  0  0  0  0  0  0  0  0
   -5.4260   -0.8620   -0.3370 N   0  0  0  0  0  0  0  0  0  0  0  0
   -5.7010    0.4520    0.0790 C   0  0  0  0  0  0  0  0  0  0  0  0
   -4.9990    1.2590    0.7290 O   0  0  0  0  0  0  0  0  0  0  0  0
   -7.0610    0.8140   -0.3780 C   0  0  0  0  0  0  0  0  0  0  0  0
   -7.7950    1.9710   -0.2330 C   0  0  0  0  0  0  0  0  0  0  0  0
   -9.0670    2.0900   -0.7510 C   0  0  0  0  0  0  0  0  0  0  0  0
   -9.5940    1.0110   -1.4260 C   0  0  0  0  0  0  0  0  0  0  0  0
  -10.8580    1.0960   -1.9550 F   0  0  0  0  0  0  0  0  0  0  0  0
   -8.8950   -0.1520   -1.5900 C   0  0  0  0  0  0  0  0  0  0  0  0
   -7.6150   -0.2230   -1.0490 C   0  0  0  0  0  0  0  0  0  0  0  0
   -6.6260   -1.2850   -1.0430 C   0  0  0  0  0  0  0  0  0  0  0  0
   -6.7820   -2.4160   -1.5740 O   0  0  0  0  0  0  0  0  0  0  0  0
   -2.3950   -0.2020    0.5900 C   0  0  0  0  0  0  0  0  0  0  0  0
    0.6740    2.3810    2.2720 C   0  0  0  0  0  0  0  0  0  0  0  0
    2.2180    2.1890    1.2530 S   0  0  0  0  0  0  0  0  0  0  0  0
    4.7230    0.6400    0.4000 C   0  0  0  0  0  0  0  0  0  0  0  0
    6.0050   -0.1750    0.2820 C   0  0  2  0  0  0  0  0  0  0  0  0
    6.8440    0.0280    1.5220 C   0  0  0  0  0  0  0  0  0  0  0  0
  2  1  1  6
  2  3  1  0
  2 34  1  0
  3  4  1  0
  4  5  1  0
  5  6  1  1
  5 33  1  0
  6  7  1  0
  7  8  2  0
  7 32  1  0
  8  9  1  0
  9 10  1  0
  9 31  2  0
 10 11  1  0
 11 12  1  0
 11 30  1  0
 12 13  1  0
 13 14  1  0
 14 15  2  0
 14 16  1  0
 16 17  2  3
 16 30  1  0
 17 18  1  0
 18 19  1  0
 18 28  1  0
 19 20  2  0
 19 21  1  0
 21 22  2  0
 21 27  1  0
 22 23  1  0
 23 24  2  0
 24 25  1  0
 24 26  1  0
 26 27  2  0
 27 28  1  0
 28 29  2  0
 31 32  1  0
 33 34  1  0
 34 35  1  1
M  END
