
     RDKit          3D

 36 39  0  0  0  0  0  0  0  0999 V2000
   -3.3620   -3.2040    2.4630 C   0  0  0  0  0  0  0  0  0  0  0  0
   -2.6790   -2.3650    1.4680 C   0  0  0  0  0  0  0  0  0  0  0  0
   -3.2280   -1.9950    0.3520 C   0  0  0  0  0  0  0  0  0  0  0  0
   -4.5890   -2.3880   -0.0020 C   0  0  2  0  0  0  0  0  0  0  0  0
   -5.2220   -3.0770    1.0040 F   0  0  0  0  0  0  0  0  0  0  0  0
   -4.6590   -3.2500   -1.0910 F   0  0  0  0  0  0  0  0  0  0  0  0
   -2.4190   -1.1620   -0.5230 N   0  0  0  0  0  0  0  0  0  0  0  0
   -2.1530   -1.6630   -1.8310 C   0  0  0  0  0  0  0  0  0  0  0  0
   -2.2390   -0.5140   -2.7970 C   0  0  0  0  0  0  0  0  0  0  0  0
   -1.0520    0.3380   -2.7570 C   0  0  0  0  0  0  0  0  0  0  0  0
   -0.4180    0.3940   -3.8310 O   0  0  0  0  0  0  0  0  0  0  0  0
   -0.5210    1.1130   -1.6530 N   0  0  0  0  0  0  0  0  0  0  0  0
    0.6080    1.8310   -2.1900 C   0  0  0  0  0  0  0  0  0  0  0  0
    1.7580    1.0150   -2.5830 C   0  0  0  0  0  0  0  0  0  0  0  0
    2.6190    1.6800   -3.2840 O   0  0  0  0  0  0  0  0  0  0  0  0
    2.0350   -0.3290   -2.3160 N   0  0  0  0  0  0  0  0  0  0  0  0
    3.0310   -0.9570   -3.2200 C   0  0  0  0  0  0  0  0  0  0  0  0
    1.5130   -1.1890   -1.3180 C   0  0  0  0  0  0  0  0  0  0  0  0
    2.3810   -1.4560   -0.1500 C   0  0  0  0  0  0  0  0  0  0  0  0
    3.0340   -0.5720    0.5770 C   0  0  0  0  0  0  0  0  0  0  0  0
    3.8230   -1.2770    1.6970 C   0  0  2  0  0  0  0  0  0  0  0  0
    3.1260   -2.2330    2.5630 C   0  0  0  0  0  0  0  0  0  0  0  0
    3.4470   -0.9070    3.1400 C   0  0  0  0  0  0  0  0  0  0  0  0
    3.1170    0.8550    0.4310 C   0  0  0  0  0  0  0  0  0  0  0  0
    2.3770    1.8930    0.5550 C   0  0  0  0  0  0  0  0  0  0  0  0
    2.9420    3.6750    0.2440 S   0  0  0  0  0  0  0  0  0  0  0  0
    2.1640    4.0510    1.8760 C   0  0  0  0  0  0  0  0  0  0  0  0
    2.7250    4.7560    2.7220 N   0  0  0  0  0  0  0  0  0  0  0  0
    0.9330    3.3330    1.7400 C   0  0  0  0  0  0  0  0  0  0  0  0
    1.0250    2.1660    1.0170 C   0  0  0  0  0  0  0  0  0  0  0  0
   -0.1490    1.3740    0.7700 N   0  0  0  0  0  0  0  0  0  0  0  0
   -1.0430    1.1770   -0.3350 C   0  0  1  0  0  0  0  0  0  0  0  0
   -2.0380    2.4040   -0.3880 C   0  0  0  0  0  0  0  0  0  0  0  0
   -2.6690    2.6340    0.9570 C   0  0  0  0  0  0  0  0  0  0  0  0
   -1.9840    0.0610    0.0140 C   0  0  0  0  0  0  0  0  0  0  0  0
   -2.6030    0.2480    1.1480 O   0  0  0  0  0  0  0  0  0  0  0  0
  1  2  1  0
  2  3  2  3
  3  4  1  0
  3  7  1  0
  4  5  1  1
  4  6  1  0
  7  8  1  0
  7 35  1  0
  8  9  1  0
  9 10  1  0
 10 11  2  0
 10 12  1  0
 12 13  1  0
 12 32  1  0
 13 14  1  0
 14 15  2  0
 14 16  1  0
 16 17  1  0
 16 18  1  0
 18 19  1  0
 19 20  2  0
 21 20  1  6
 20 24  1  0
 21 22  1  0
 21 23  1  0
 22 23  1  0
 24 25  2  0
 25 26  1  0
 25 30  1  0
 26 27  1  0
 27 28  2  0
 27 29  1  0
 29 30  2  0
 30 31  1  0
 31 32  1  0
 32 33  1  6
 32 35  1  0
 33 34  1  0
 35 36  2  0
M  END
