
     RDKit          3D

 37 40  0  0  0  0  0  0  0  0999 V2000
   -2.7140    7.7270    0.8000 C   0  0  0  0  0  0  0  0  0  0  0  0
   -2.3850    6.2750    0.6490 C   0  0  0  0  0  0  0  0  0  0  0  0
   -2.3320    5.3610   -0.9030 S   0  0  0  0  0  0  0  0  0  0  0  0
   -1.8870    3.8100   -0.1770 C   0  0  0  0  0  0  0  0  0  0  0  0
   -1.6680    2.5580   -0.9250 C   0  0  0  0  0  0  0  0  0  0  0  0
   -1.7810    2.4910   -2.1490 O   0  0  0  0  0  0  0  0  0  0  0  0
   -1.3260    1.4450   -0.1920 O   0  0  0  0  0  0  0  0  0  0  0  0
   -1.0820    0.1820   -0.7210 C   0  0  1  0  0  0  0  0  0  0  0  0
    0.3120   -0.2950   -0.3170 C   0  0  0  0  0  0  0  0  0  0  0  0
    1.2540    0.6680   -0.8480 N   0  0  0  0  0  0  0  0  0  0  0  0
    2.6600    0.4610   -0.6370 C   0  0  0  0  0  0  0  0  0  0  0  0
    3.1380   -0.6260    0.0390 C   0  0  0  0  0  0  0  0  0  0  0  0
    2.3060   -1.5620    0.5390 F   0  0  0  0  0  0  0  0  0  0  0  0
    4.4940   -0.8100    0.2360 C   0  0  0  0  0  0  0  0  0  0  0  0
    5.4100    0.1050   -0.2490 C   0  0  0  0  0  0  0  0  0  0  0  0
    6.6950   -0.1010   -0.0450 C   0  0  0  0  0  0  0  0  0  0  0  0
    7.1710   -1.2420    0.6620 N   0  0  0  0  0  0  0  0  0  0  0  0
    4.9420    1.1910   -0.9230 C   0  0  0  0  0  0  0  0  0  0  0  0
    5.7330    2.1230   -1.4260 C   0  0  0  0  0  0  0  0  0  0  0  0
    5.2180    3.2050   -2.1010 F   0  0  0  0  0  0  0  0  0  0  0  0
    3.5690    1.3820   -1.1250 C   0  0  0  0  0  0  0  0  0  0  0  0
    3.1250    2.4800   -1.8060 F   0  0  0  0  0  0  0  0  0  0  0  0
   -2.1130   -0.7730   -0.1520 C   0  0  0  0  0  0  0  0  0  0  0  0
   -2.9760   -0.3490    0.6480 O   0  0  0  0  0  0  0  0  0  0  0  0
   -1.9910   -2.1060   -0.6040 N   0  0  0  0  0  0  0  0  0  0  0  0
   -2.8500   -3.1320   -0.1810 C   0  0  0  0  0  0  0  0  0  0  0  0
   -3.5980   -3.0300    0.9640 C   0  0  0  0  0  0  0  0  0  0  0  0
   -4.4410   -4.0980    1.2790 C   0  0  0  0  0  0  0  0  0  0  0  0
   -4.5080   -5.2040    0.4620 C   0  0  0  0  0  0  0  0  0  0  0  0
   -5.2170   -6.3640    0.5100 N   0  0  0  0  0  0  0  0  0  0  0  0
   -4.9310   -7.1470   -0.5400 C   0  0  0  0  0  0  0  0  0  0  0  0
   -4.0260   -6.4820   -1.2750 N   0  0  0  0  0  0  0  0  0  0  0  0
   -3.7500   -5.2950   -0.6890 C   0  0  0  0  0  0  0  0  0  0  0  0
   -2.9230   -4.2550   -1.0030 C   0  0  0  0  0  0  0  0  0  0  0  0
   -1.8140    4.0790    1.1170 C   0  0  0  0  0  0  0  0  0  0  0  0
   -2.0620    5.3250    1.5730 C   0  0  0  0  0  0  0  0  0  0  0  0
   -2.0130    5.7160    2.9200 F   0  0  0  0  0  0  0  0  0  0  0  0
  1  2  1  0
  2  3  1  0
  2 36  2  0
  3  4  1  0
  4  5  1  0
  4 35  2  0
  5  6  2  0
  5  7  1  0
  7  8  1  0
  8  9  1  1
  8 23  1  0
  9 10  1  0
 10 11  1  0
 11 12  1  0
 11 21  2  0
 12 13  1  0
 12 14  2  0
 14 15  1  0
 15 16  2  3
 15 18  1  0
 16 17  1  0
 18 19  2  3
 18 21  1  0
 19 20  1  0
 21 22  1  0
 23 24  2  0
 23 25  1  0
 25 26  1  0
 26 27  2  0
 26 34  1  0
 27 28  1  0
 28 29  2  0
 29 30  1  0
 29 33  1  0
 30 31  1  0
 31 32  2  0
 32 33  1  0
 33 34  2  0
 35 36  1  0
 36 37  1  0
M  CHG  1  17   1
M  END
