
     RDKit          3D

 20 19  0  0  0  0  0  0  0  0999 V2000
   -5.0010    0.4120   -1.3150 C   0  0  0  0  0  0  0  0  0  0  0  0
   -4.5030    0.8210   -0.1140 O   0  0  0  0  0  0  0  0  0  0  0  0
   -3.3810    0.2050    0.3540 C   0  0  2  0  0  0  0  0  0  0  0  0
   -3.5150   -1.2860    0.5310 C   0  0  0  0  0  0  0  0  0  0  0  0
   -3.1610    0.7710    1.7760 C   0  0  0  0  0  0  0  0  0  0  0  0
   -4.6390    0.3780    2.8150 P   0  0  0  0  0  0  0  0  0  0  0  0
   -2.2020    0.4890   -0.4640 C   0  0  0  0  0  0  0  0  0  0  0  0
   -2.3100    1.2650   -1.4720 O   0  0  0  0  0  0  0  0  0  0  0  0
   -0.8840   -0.0500   -0.2210 C   0  0  0  0  0  0  0  0  0  0  0  0
   -0.7190   -0.8180    0.7570 O   0  0  0  0  0  0  0  0  0  0  0  0
    0.2100    0.2380   -1.0140 O   0  0  0  0  0  0  0  0  0  0  0  0
    1.4300   -0.2840   -0.7580 O   0  0  0  0  0  0  0  0  0  0  0  0
    2.2600    0.6350   -0.2470 O   0  0  0  0  0  0  0  0  0  0  0  0
    3.5620    0.6520   -0.7070 C   0  0  0  0  0  0  0  0  0  0  0  0
    3.9420    1.5560   -1.5710 C   0  0  0  0  0  0  0  0  0  0  0  0
    5.2430    1.5730   -2.0290 O   0  0  0  0  0  0  0  0  0  0  0  0
    4.5020   -0.3890   -0.1840 C   0  0  1  0  0  0  0  0  0  0  0  0
    3.9820   -1.7500   -0.5310 C   0  0  0  0  0  0  0  0  0  0  0  0
    5.7730   -0.1770   -0.7160 O   0  0  0  0  0  0  0  0  0  0  0  0
    4.5730   -0.2190    1.6590 P   0  0  0  0  0  0  0  0  0  0  0  0
  1  2  1  0
  2  3  1  0
  3  4  1  1
  3  5  1  0
  3  7  1  0
  5  6  1  0
  7  8  2  0
  7  9  1  0
  9 10  2  0
  9 11  1  0
 11 12  1  0
 12 13  1  0
 13 14  1  0
 14 15  2  3
 14 17  1  0
 15 16  1  0
 17 18  1  1
 17 19  1  0
 17 20  1  0
M  END
