
     RDKit          3D

 20 20  0  0  0  0  0  0  0  0999 V2000
    4.4520   -0.9480   -0.7860 C   0  0  0  0  0  0  0  0  0  0  0  0
    3.4310   -1.8080   -0.4710 O   0  0  0  0  0  0  0  0  0  0  0  0
    1.9640   -1.5160   -1.2810 P   0  0  0  0  0  0  0  0  0  0  0  0
    2.1160   -0.5870   -2.8410 C   0  0  0  0  0  0  0  0  0  0  0  0
    0.6760   -0.9630   -0.2440 O   0  0  0  0  0  0  0  0  0  0  0  0
    0.8630   -0.5260    1.0530 C   0  0  0  0  0  0  0  0  0  0  0  0
    2.0690   -0.5560    1.4490 O   0  0  0  0  0  0  0  0  0  0  0  0
   -0.1670   -0.0520    1.9770 C   0  0  1  0  0  0  0  0  0  0  0  0
    0.4460    0.2780    3.2110 O   0  0  0  0  0  0  0  0  0  0  0  0
   -0.3380    0.7290    4.2600 C   0  0  0  0  0  0  0  0  0  0  0  0
    0.2930    0.7330    5.9360 S   0  0  0  0  0  0  0  0  0  0  0  0
   -1.8510    1.2390    3.8200 P   0  0  0  0  0  0  0  0  0  0  0  0
   -2.2020    1.1250    2.1270 O   0  0  0  0  0  0  0  0  0  0  0  0
   -0.9400    1.1550    1.4990 C   0  0  2  0  0  0  0  0  0  0  0  0
   -0.9410    1.4100    0.1700 O   0  0  0  0  0  0  0  0  0  0  0  0
   -1.2940    0.8270   -0.9790 C   0  0  0  0  0  0  0  0  0  0  0  0
   -0.5020    1.1930   -2.1130 O   0  0  0  0  0  0  0  0  0  0  0  0
   -2.2460   -0.0250   -1.2480 C   0  0  0  0  0  0  0  0  0  0  0  0
   -2.4700   -0.5610   -2.6330 C   0  0  0  0  0  0  0  0  0  0  0  0
   -3.1790   -0.5290   -0.2090 C   0  0  0  0  0  0  0  0  0  0  0  0
  1  2  1  0
  2  3  1  0
  3  4  1  0
  3  5  1  0
  5  6  1  0
  6  7  2  0
  8  6  1  6
  8  9  1  0
  8 14  1  0
  9 10  1  0
 10 11  1  0
 10 12  2  0
 12 13  1  0
 13 14  1  0
 14 15  1  6
 15 16  1  0
 16 17  1  0
 16 18  2  3
 18 19  1  0
 18 20  1  0
M  END
