
     RDKit          3D

 20 20  0  0  0  0  0  0  0  0999 V2000
    5.2390   -0.3440   -1.1860 C   0  0  0  0  0  0  0  0  0  0  0  0
    3.9640    0.2600   -1.6280 C   0  0  0  0  0  0  0  0  0  0  0  0
    3.6190    0.1220   -2.8230 O   0  0  0  0  0  0  0  0  0  0  0  0
    3.1520    0.9620   -0.7750 O   0  0  0  0  0  0  0  0  0  0  0  0
    2.0010    1.5260   -1.1050 O   0  0  0  0  0  0  0  0  0  0  0  0
    1.2610    2.1880    0.2820 S   0  0  0  0  0  0  0  0  0  0  0  0
   -0.8730    2.1300    0.1940 P   0  0  0  0  0  0  0  0  0  0  0  0
   -1.5300    0.5100    0.8270 C   0  0  0  0  0  0  0  0  0  0  0  0
   -1.7620    0.4580    2.1030 C   0  0  0  0  0  0  0  0  0  0  0  0
   -1.4950    1.6570    2.9300 C   0  0  0  0  0  0  0  0  0  0  0  0
   -1.7250    1.5870    4.1570 O   0  0  0  0  0  0  0  0  0  0  0  0
   -1.0080    2.8400    2.4160 O   0  0  0  0  0  0  0  0  0  0  0  0
   -2.2690   -0.7520    2.7390 C   0  0  0  0  0  0  0  0  0  0  0  0
   -2.4730   -1.7760    1.9550 C   0  0  0  0  0  0  0  0  0  0  0  0
   -2.2500   -1.8410    0.5200 C   0  0  0  0  0  0  0  0  0  0  0  0
   -1.7580   -0.5970   -0.1050 C   0  0  1  0  0  0  0  0  0  0  0  0
   -2.7120   -0.0980   -1.0450 O   0  0  0  0  0  0  0  0  0  0  0  0
   -0.5230   -0.8520   -0.9280 C   0  0  0  0  0  0  0  0  0  0  0  0
    0.6920   -1.1760   -0.3200 O   0  0  0  0  0  0  0  0  0  0  0  0
   -0.6070   -0.7490   -2.5720 P   0  0  0  0  0  0  0  0  0  0  0  0
  1  2  1  0
  2  3  2  0
  2  4  1  0
  4  5  1  0
  5  6  1  0
  6  7  1  0
  7  8  1  0
  8  9  2  0
  8 16  1  0
  9 10  1  0
  9 13  1  0
 10 11  2  0
 10 12  1  0
 13 14  2  0
 14 15  1  0
 15 16  1  0
 16 17  1  6
 16 18  1  0
 18 19  1  0
 18 20  2  0
M  END
