
     RDKit          3D

 23 25  0  0  0  0  0  0  0  0999 V2000
   -5.8380   -1.0260   -0.3180 N   0  0  0  0  0  0  0  0  0  0  0  0
   -4.4290   -1.1870   -0.4150 C   0  0  0  0  0  0  0  0  0  0  0  0
   -3.8240   -2.3260   -0.7520 N   0  0  0  0  0  0  0  0  0  0  0  0
   -2.4740   -2.4230   -0.8300 C   0  0  0  0  0  0  0  0  0  0  0  0
   -1.6810   -1.3680   -0.5690 N   0  0  0  0  0  0  0  0  0  0  0  0
   -2.2700   -0.2080   -0.2280 C   0  0  0  0  0  0  0  0  0  0  0  0
   -3.6430   -0.0870   -0.1430 C   0  0  0  0  0  0  0  0  0  0  0  0
   -3.9060    1.1680    0.2130 N   0  0  0  0  0  0  0  0  0  0  0  0
   -2.7570    1.8130    0.3470 C   0  0  0  0  0  0  0  0  0  0  0  0
   -1.7340    0.9800    0.0790 N   0  0  0  0  0  0  0  0  0  0  0  0
   -0.3550    1.3980    0.1420 C   0  0  2  0  0  0  0  0  0  0  0  0
    0.5330    0.4400   -0.2800 O   0  0  0  0  0  0  0  0  0  0  0  0
    1.6960    0.7530    0.4190 C   0  0  2  0  0  0  0  0  0  0  0  0
    2.7860   -0.2550    0.2220 C   0  0  0  0  0  0  0  0  0  0  0  0
    3.0700   -0.2850   -1.1560 O   0  0  0  0  0  0  0  0  0  0  0  0
    4.2900   -1.3880   -1.5130 P   0  0  2  0  0  0  0  0  0  0  0  0
    4.1820   -1.7110   -2.9990 O   0  0  0  0  0  0  0  0  0  0  0  0
    4.1680   -2.7850   -0.5880 O   0  0  0  0  0  0  0  0  0  0  0  0
    5.8360   -0.6950   -1.3060 O   0  0  0  0  0  0  0  0  0  0  0  0
    1.1640    0.8000    1.8270 C   0  0  1  0  0  0  0  0  0  0  0  0
    2.0500    1.3350    2.7310 O   0  0  0  0  0  0  0  0  0  0  0  0
   -0.0430    1.6950    1.5950 C   0  0  1  0  0  0  0  0  0  0  0  0
    0.3500    3.0380    1.6640 O   0  0  0  0  0  0  0  0  0  0  0  0
  1  2  1  0
  2  3  2  0
  2  7  1  0
  3  4  1  0
  4  5  2  0
  5  6  1  0
  6  7  2  0
  6 10  1  0
  7  8  1  0
  8  9  2  0
  9 10  1  0
 11 10  1  1
 11 12  1  0
 11 22  1  0
 12 13  1  0
 13 14  1  1
 13 20  1  0
 14 15  1  0
 15 16  1  0
 16 17  2  0
 16 18  1  1
 16 19  1  0
 20 21  1  1
 20 22  1  0
 22 23  1  6
M  END
