
     RDKit          3D

 20 20  0  0  0  0  0  0  0  0999 V2000
    4.0320    1.6210    0.7290 C   0  0  0  0  0  0  0  0  0  0  0  0
    3.3930    0.1100   -0.1290 P   0  0  0  0  0  0  0  0  0  0  0  0
    1.6170    0.2660   -0.5950 C   0  0  0  0  0  0  0  0  0  0  0  0
    0.8120   -0.9710   -0.2530 C   0  0  2  0  0  0  0  0  0  0  0  0
    1.4000   -2.1340   -0.9990 C   0  0  0  0  0  0  0  0  0  0  0  0
   -0.5920   -0.7450   -0.7600 C   0  0  1  0  0  0  0  0  0  0  0  0
   -0.5010   -0.5530   -2.1350 O   0  0  0  0  0  0  0  0  0  0  0  0
   -1.4230   -1.8290   -0.5480 O   0  0  0  0  0  0  0  0  0  0  0  0
   -1.6190   -2.2690    1.0820 P   0  0  0  0  0  0  0  0  0  0  0  0
   -1.6540   -3.9860    1.2370 O   0  0  0  0  0  0  0  0  0  0  0  0
   -2.9270   -1.4910    1.8780 O   0  0  0  0  0  0  0  0  0  0  0  0
   -1.2270    0.4410   -0.1590 C   0  0  0  0  0  0  0  0  0  0  0  0
   -1.6230    1.4220   -0.9520 C   0  0  0  0  0  0  0  0  0  0  0  0
   -2.2620    2.6490   -0.5060 C   0  0  0  0  0  0  0  0  0  0  0  0
   -2.7380    3.8380   -1.5050 S   0  0  0  0  0  0  0  0  0  0  0  0
   -2.4780    2.7940    0.9400 C   0  0  0  0  0  0  0  0  0  0  0  0
   -3.0170    3.8050    1.4350 O   0  0  0  0  0  0  0  0  0  0  0  0
   -2.0280    1.6950    1.7640 C   0  0  0  0  0  0  0  0  0  0  0  0
   -2.2090    1.8070    3.0210 O   0  0  0  0  0  0  0  0  0  0  0  0
   -1.4290    0.5740    1.2130 O   0  0  0  0  0  0  0  0  0  0  0  0
  1  2  1  0
  2  3  1  0
  3  4  1  0
  4  5  1  6
  4  6  1  0
  6  7  1  6
  6  8  1  0
  6 12  1  0
  8  9  1  0
  9 10  1  0
  9 11  1  0
 12 13  2  0
 12 20  1  0
 13 14  1  0
 14 15  2  0
 14 16  1  0
 16 17  2  0
 16 18  1  0
 18 19  2  0
 18 20  1  0
M  END
