
     RDKit          3D

 20 20  0  0  0  0  0  0  0  0999 V2000
   -4.8010   -0.4910   -2.2300 C   0  0  0  0  0  0  0  0  0  0  0  0
   -4.2600    0.5850   -0.8420 P   0  0  0  0  0  0  0  0  0  0  0  0
   -5.6820    1.1320    0.1820 C   0  0  0  0  0  0  0  0  0  0  0  0
   -3.0220   -0.2950    0.1930 C   0  0  0  0  0  0  0  0  0  0  0  0
   -1.7300    0.1930   -0.0060 O   0  0  0  0  0  0  0  0  0  0  0  0
   -0.8950   -0.4610    0.7470 O   0  0  0  0  0  0  0  0  0  0  0  0
   -0.6230    0.2040    1.9510 C   0  0  0  0  0  0  0  0  0  0  0  0
   -0.0610    1.4670    1.7720 O   0  0  0  0  0  0  0  0  0  0  0  0
    1.1310    1.6970    1.1200 C   0  0  0  0  0  0  0  0  0  0  0  0
    1.9720    0.7100    0.8090 C   0  0  0  0  0  0  0  0  0  0  0  0
    1.7000   -0.6040    1.1210 O   0  0  0  0  0  0  0  0  0  0  0  0
    2.5840   -1.6100    0.7900 C   0  0  0  0  0  0  0  0  0  0  0  0
    2.3360   -2.8100    1.0750 O   0  0  0  0  0  0  0  0  0  0  0  0
    3.8060   -1.2310    0.1040 C   0  0  0  0  0  0  0  0  0  0  0  0
    4.7070   -2.2240   -0.2370 O   0  0  0  0  0  0  0  0  0  0  0  0
    4.0940    0.0150   -0.2070 C   0  0  0  0  0  0  0  0  0  0  0  0
    5.3530    0.3180   -0.9040 C   0  0  0  0  0  0  0  0  0  0  0  0
    6.4360    1.4660    0.0730 P   0  0  0  0  0  0  0  0  0  0  0  0
    7.1610    1.0590    1.3610 O   0  0  0  0  0  0  0  0  0  0  0  0
    3.1760    0.9830    0.1460 O   0  0  0  0  0  0  0  0  0  0  0  0
  1  2  1  0
  2  3  1  0
  2  4  1  0
  4  5  1  0
  5  6  1  0
  6  7  1  0
  7  8  1  0
  8  9  1  0
  9 10  2  3
 10 11  1  0
 10 20  1  0
 11 12  1  0
 12 13  2  0
 12 14  1  0
 14 15  1  0
 14 16  2  0
 16 17  1  0
 16 20  1  0
 17 18  1  0
 18 19  2  0
M  END
