
     RDKit          3D

 20 23  0  0  0  0  0  0  0  0999 V2000
    1.6210    1.9240    0.1710 C   0  0  0  0  0  0  0  0  0  0  0  0
    2.1480    0.6270   -0.0050 C   0  0  0  0  0  0  0  0  0  0  0  0
    3.4650    0.1210   -0.1100 C   0  0  0  0  0  0  0  0  0  0  0  0
    4.4410    1.0840   -0.0480 F   0  0  0  0  0  0  0  0  0  0  0  0
    3.7750   -1.2050   -0.2610 N   0  0  0  0  0  0  0  0  0  0  0  0
    2.7410   -2.2130   -0.3250 C   0  0  0  0  0  0  0  0  0  0  0  0
    1.3300   -2.6300   -0.3070 N   0  0  0  0  0  0  0  0  0  0  0  0
   -0.0240   -2.2340   -0.2060 C   0  0  0  0  0  0  0  0  0  0  0  0
   -0.9830   -2.9650   -0.2380 O   0  0  0  0  0  0  0  0  0  0  0  0
   -0.1140   -0.7870   -0.0570 C   0  0  0  0  0  0  0  0  0  0  0  0
   -1.2370    0.0330    0.1130 C   0  0  1  0  0  0  0  0  0  0  0  0
   -2.1870   -0.6340    1.2080 C   0  0  0  0  0  0  0  0  0  0  0  0
   -1.4070    1.3830    0.2120 N   0  0  0  0  0  0  0  0  0  0  0  0
   -2.8760    1.5580   -0.0200 C   0  0  0  0  0  0  0  0  0  0  0  0
   -3.5570    2.4880    0.4740 O   0  0  0  0  0  0  0  0  0  0  0  0
   -3.2800    0.4940   -0.8720 N   0  0  0  0  0  0  0  0  0  0  0  0
   -2.1030   -0.2420   -1.1100 C   0  0  0  0  0  0  0  0  0  0  0  0
   -1.8830   -0.9390   -2.1110 O   0  0  0  0  0  0  0  0  0  0  0  0
    1.2020   -0.4240   -0.0780 C   0  0  0  0  0  0  0  0  0  0  0  0
    1.7580   -1.4740   -0.2090 N   0  0  0  0  0  0  0  0  0  0  0  0
  1  2  1  0
  2  3  2  0
  2 19  1  0
  3  4  1  0
  3  5  1  0
  5  6  1  0
  6  7  1  0
  6 20  2  0
  7  8  1  0
  7 20  1  0
  8  9  2  0
  8 10  1  0
 10 11  1  0
 10 19  2  0
 11 12  1  1
 11 13  1  0
 11 17  1  0
 13 14  1  0
 14 15  2  0
 14 16  1  0
 16 17  1  0
 17 18  2  0
 19 20  1  0
M  CHG  1  20   1
M  END
