
     RDKit          3D

 20 21  0  0  0  0  0  0  0  0999 V2000
   -4.1930    0.9360    1.0150 C   0  0  0  0  0  0  0  0  0  0  0  0
   -2.9320    0.9500    0.2290 C   0  0  0  0  0  0  0  0  0  0  0  0
   -2.2440    2.0020    0.2840 O   0  0  0  0  0  0  0  0  0  0  0  0
   -2.4930   -0.1850   -0.5710 C   0  0  0  0  0  0  0  0  0  0  0  0
   -3.1770   -1.3140   -0.6640 C   0  0  0  0  0  0  0  0  0  0  0  0
   -2.4990   -2.2270   -1.5120 N   0  0  0  0  0  0  0  0  0  0  0  0
   -1.3120   -1.6020   -1.9690 C   0  0  0  0  0  0  0  0  0  0  0  0
   -0.4570   -2.1080   -2.7400 O   0  0  0  0  0  0  0  0  0  0  0  0
   -1.2690   -0.2510   -1.3710 C   0  0  2  0  0  0  0  0  0  0  0  0
   -0.0580   -0.1190   -0.5590 N   0  0  0  0  0  0  0  0  0  0  0  0
    0.9060    0.8550   -0.8410 C   0  0  0  0  0  0  0  0  0  0  0  0
    0.6410    1.6190   -1.8360 O   0  0  0  0  0  0  0  0  0  0  0  0
    2.1540    1.1100   -0.1700 C   0  0  0  0  0  0  0  0  0  0  0  0
    2.9910    2.1050   -0.4620 N   0  0  0  0  0  0  0  0  0  0  0  0
    4.0980    2.0680    0.3820 N   0  0  0  0  0  0  0  0  0  0  0  0
    3.5500    1.4470    1.6210 C   0  0  2  0  0  0  0  0  0  0  0  0
    4.5150    0.9660    2.4330 F   0  0  0  0  0  0  0  0  0  0  0  0
    2.8070    0.3400    0.8760 C   0  0  0  0  0  0  0  0  0  0  0  0
    2.8600   -0.9270    1.1070 C   0  0  0  0  0  0  0  0  0  0  0  0
    2.2950   -1.9990    0.3990 N   0  0  0  0  0  0  0  0  0  0  0  0
  1  2  1  0
  2  3  2  0
  2  4  1  0
  4  5  2  0
  4  9  1  0
  5  6  1  0
  6  7  1  0
  7  8  2  0
  7  9  1  0
  9 10  1  1
 10 11  1  0
 11 12  2  0
 11 13  1  0
 13 14  2  0
 13 18  1  0
 14 15  1  0
 15 16  1  0
 16 17  1  1
 16 18  1  0
 18 19  2  3
 19 20  1  0
M  END
