
     RDKit          3D

 19 20  0  0  0  0  0  0  0  0999 V2000
    2.0820    3.2380    1.0460 N   0  0  0  0  0  0  0  0  0  0  0  0
    1.4520    2.0320    0.5000 C   0  0  0  0  0  0  0  0  0  0  0  0
    2.2410    1.5420   -0.3860 N   0  0  0  0  0  0  0  0  0  0  0  0
    2.1150    0.4060   -1.1960 C   0  0  0  0  0  0  0  0  0  0  0  0
    1.2520    0.1140   -2.1310 C   0  0  0  0  0  0  0  0  0  0  0  0
    0.4630   -1.1680   -1.8380 C   0  0  0  0  0  0  0  0  0  0  0  0
    0.8440   -1.6670   -0.7030 C   0  0  0  0  0  0  0  0  0  0  0  0
    2.2860   -1.9480   -0.8210 O   0  0  0  0  0  0  0  0  0  0  0  0
    3.1000   -0.7530   -0.9780 C   0  0  0  0  0  0  0  0  0  0  0  0
    0.0680   -1.9190    0.4820 C   0  0  0  0  0  0  0  0  0  0  0  0
    0.4230   -1.4860    1.6960 O   0  0  0  0  0  0  0  0  0  0  0  0
   -1.1940   -2.6700    0.5060 N   0  0  0  0  0  0  0  0  0  0  0  0
   -2.4210   -2.2540   -0.0830 N   0  0  0  0  0  0  0  0  0  0  0  0
   -3.1900   -1.1080    0.2080 C   0  0  0  0  0  0  0  0  0  0  0  0
   -4.2560   -0.9700   -0.4690 O   0  0  0  0  0  0  0  0  0  0  0  0
   -2.9790   -0.0240    1.1710 C   0  0  0  0  0  0  0  0  0  0  0  0
   -2.1660    0.9750    1.2370 C   0  0  0  0  0  0  0  0  0  0  0  0
   -1.0700    1.4230    0.2870 C   0  0  0  0  0  0  0  0  0  0  0  0
    0.2020    1.5640    0.9430 N   0  0  0  0  0  0  0  0  0  0  0  0
  1  2  1  0
  2  3  2  0
  2 19  1  0
  3  4  1  0
  4  5  2  0
  4  9  1  0
  5  6  1  0
  6  7  2  0
  7  8  1  0
  7 10  1  0
  8  9  1  0
 10 11  2  0
 10 12  1  0
 12 13  1  0
 13 14  1  0
 14 15  2  0
 14 16  1  0
 16 17  2  0
 17 18  1  0
 18 19  1  0
M  END
