
     RDKit          3D

 19 21  0  0  0  0  0  0  0  0999 V2000
   -2.8990    1.1700    1.2520 C   0  0  0  0  0  0  0  0  0  0  0  0
   -2.6800    0.1210    0.2420 C   0  0  2  0  0  0  0  0  0  0  0  0
   -3.2130    0.5490   -1.1310 C   0  0  0  0  0  0  0  0  0  0  0  0
   -3.3140   -1.1090    0.5250 O   0  0  0  0  0  0  0  0  0  0  0  0
   -2.6650   -2.0840   -0.2600 C   0  0  0  0  0  0  0  0  0  0  0  0
   -3.0440   -3.2600   -0.3950 O   0  0  0  0  0  0  0  0  0  0  0  0
   -1.5040   -1.4770   -0.8640 N   0  0  0  0  0  0  0  0  0  0  0  0
   -1.2690   -0.3170    0.0130 C   0  0  1  0  0  0  0  0  0  0  0  0
   -0.4220    0.6720   -0.5400 N   0  0  0  0  0  0  0  0  0  0  0  0
    0.9210    0.3320   -0.1440 C   0  0  0  0  0  0  0  0  0  0  0  0
    2.0020    0.8650   -0.6870 C   0  0  0  0  0  0  0  0  0  0  0  0
    3.3380    0.5010   -0.2690 C   0  0  0  0  0  0  0  0  0  0  0  0
    4.3690    1.3840    0.0370 C   0  0  0  0  0  0  0  0  0  0  0  0
    5.4850    0.6840    0.3610 N   0  0  0  0  0  0  0  0  0  0  0  0
    5.2020   -0.6060    0.2720 N   0  0  0  0  0  0  0  0  0  0  0  0
    3.8980   -0.7500   -0.1110 C   0  0  0  0  0  0  0  0  0  0  0  0
    0.8430   -0.6060    0.9220 N   0  0  0  0  0  0  0  0  0  0  0  0
   -0.5460   -0.8300    1.1720 C   0  0  0  0  0  0  0  0  0  0  0  0
   -0.9980   -1.3790    2.2330 O   0  0  0  0  0  0  0  0  0  0  0  0
  2  1  1  1
  2  3  1  0
  2  4  1  0
  2  8  1  0
  4  5  1  0
  5  6  2  0
  5  7  1  0
  8  7  1  6
  8  9  1  0
  8 18  1  0
  9 10  1  0
 10 11  2  3
 10 17  1  0
 11 12  1  0
 12 13  1  0
 12 16  2  0
 13 14  2  0
 14 15  1  0
 15 16  1  0
 17 18  1  0
 18 19  2  0
M  END
