
     RDKit          3D

 11 11  0  0  0  0  0  0  0  0999 V2000
   -2.2420    1.9380    0.3650 O   0  0  0  0  0  0  0  0  0  0  0  0
   -2.0810    0.7610    0.0260 C   0  0  0  0  0  0  0  0  0  0  0  0
   -3.2260    0.0460   -0.2820 O   0  0  0  0  0  0  0  0  0  0  0  0
   -0.7530    0.1720   -0.0420 C   0  0  0  0  0  0  0  0  0  0  0  0
   -0.6200   -1.1720   -0.4350 C   0  0  0  0  0  0  0  0  0  0  0  0
    0.5960   -1.7990   -0.5230 C   0  0  0  0  0  0  0  0  0  0  0  0
    1.7580   -1.1250   -0.2260 C   0  0  0  0  0  0  0  0  0  0  0  0
    1.6650    0.1840    0.1590 C   0  0  0  0  0  0  0  0  0  0  0  0
    2.8320    0.8700    0.4590 O   0  0  0  0  0  0  0  0  0  0  0  0
    0.4180    0.8250    0.2490 C   0  0  0  0  0  0  0  0  0  0  0  0
    0.4470    2.1390    0.6450 O   0  0  0  0  0  0  0  0  0  0  0  0
  1  2  2  0
  2  3  1  0
  2  4  1  0
  4  5  2  0
  4 10  1  0
  5  6  1  0
  6  7  2  0
  7  8  1  0
  8  9  1  0
  8 10  2  0
 10 11  1  0
M  END
