
     RDKit          3D

 19 20  0  0  0  0  0  0  0  0999 V2000
   -1.3950    1.7630    1.8860 C   0  0  0  0  0  0  0  0  0  0  0  0
   -2.2820    1.0800    0.8910 C   0  0  1  0  0  0  0  0  0  0  0  0
   -2.4230    1.9240   -0.3580 C   0  0  0  0  0  0  0  0  0  0  0  0
   -1.7520   -0.2660    0.5110 C   0  0  0  0  0  0  0  0  0  0  0  0
   -2.5040   -1.3640    0.7130 N   0  0  0  0  0  0  0  0  0  0  0  0
   -2.0560   -2.6060    0.3800 C   0  0  0  0  0  0  0  0  0  0  0  0
   -2.8410   -3.7630    0.5910 N   0  0  0  0  0  0  0  0  0  0  0  0
   -0.7980   -2.6890   -0.1740 C   0  0  0  0  0  0  0  0  0  0  0  0
   -0.3120   -3.9350   -0.5240 O   0  0  0  0  0  0  0  0  0  0  0  0
    0.0080   -1.5690   -0.3980 C   0  0  0  0  0  0  0  0  0  0  0  0
    1.3210   -1.7460   -0.9870 C   0  0  0  0  0  0  0  0  0  0  0  0
    2.1760   -0.8450   -1.2560 N   0  0  0  0  0  0  0  0  0  0  0  0
    2.0200    0.5410   -1.0330 C   0  0  2  0  0  0  0  0  0  0  0  0
    2.8420    1.3460   -1.9680 N   0  0  0  0  0  0  0  0  0  0  0  0
    3.0670    2.5800   -1.2390 C   0  0  0  0  0  0  0  0  0  0  0  0
    2.6700    2.3870    0.0630 O   0  0  0  0  0  0  0  0  0  0  0  0
    2.7010    1.0080    0.2620 C   0  0  1  0  0  0  0  0  0  0  0  0
    2.0810    0.5770    1.3960 O   0  0  0  0  0  0  0  0  0  0  0  0
   -0.5310   -0.4050   -0.0340 N   0  0  0  0  0  0  0  0  0  0  0  0
  2  1  1  1
  2  3  1  0
  2  4  1  0
  4  5  2  0
  4 19  1  0
  5  6  1  0
  6  7  1  0
  6  8  2  0
  8  9  1  0
  8 10  1  0
 10 11  1  0
 10 19  2  0
 11 12  2  3
 13 12  1  6
 13 14  1  0
 13 17  1  0
 14 15  1  0
 15 16  1  0
 16 17  1  0
 17 18  1  1
M  END
