
     RDKit          3D

 20 21  0  0  0  0  0  0  0  0999 V2000
   -0.4280    0.4790   -1.8240 C   0  0  0  0  0  0  0  0  0  0  0  0
    0.0650    0.1640   -0.4810 C   0  0  0  0  0  0  0  0  0  0  0  0
    1.3960    0.2080   -0.2370 N   0  0  0  0  0  0  0  0  0  0  0  0
    1.8820   -0.0570    0.9660 C   0  0  0  0  0  0  0  0  0  0  0  0
    3.1660   -0.0040    1.1600 N   0  0  0  0  0  0  0  0  0  0  0  0
    4.0890    0.3300    0.1200 C   0  0  2  0  0  0  0  0  0  0  0  0
    4.1830   -0.8110   -0.8580 C   0  0  0  0  0  0  0  0  0  0  0  0
    5.3520    0.5560    0.6450 F   0  0  0  0  0  0  0  0  0  0  0  0
    1.0440   -0.3720    1.9590 N   0  0  0  0  0  0  0  0  0  0  0  0
   -0.2930   -0.4320    1.7760 C   0  0  0  0  0  0  0  0  0  0  0  0
   -0.9980   -0.7410    2.7860 O   0  0  0  0  0  0  0  0  0  0  0  0
   -0.8310   -0.1620    0.5370 C   0  0  0  0  0  0  0  0  0  0  0  0
   -2.2800   -0.2340    0.3110 C   0  0  2  0  0  0  0  0  0  0  0  0
   -2.6440   -1.4150   -0.5170 C   0  0  0  0  0  0  0  0  0  0  0  0
   -2.8320    1.0260   -0.1560 N   0  0  0  0  0  0  0  0  0  0  0  0
   -2.8140    1.8700    0.9860 C   0  0  0  0  0  0  0  0  0  0  0  0
   -2.7430    3.1380    0.9470 O   0  0  0  0  0  0  0  0  0  0  0  0
   -2.8890    1.0360    2.1670 N   0  0  0  0  0  0  0  0  0  0  0  0
   -2.9510   -0.3020    1.6590 C   0  0  0  0  0  0  0  0  0  0  0  0
   -3.4640   -1.2800    2.2490 O   0  0  0  0  0  0  0  0  0  0  0  0
  1  2  1  0
  2  3  1  0
  2 12  2  0
  3  4  1  0
  4  5  2  3
  4  9  1  0
  5  6  1  0
  6  7  1  6
  6  8  1  0
  9 10  1  0
 10 11  2  0
 10 12  1  0
 12 13  1  0
 13 14  1  6
 13 15  1  0
 13 19  1  0
 15 16  1  0
 16 17  2  0
 16 18  1  0
 18 19  1  0
 19 20  2  0
M  END
