
     RDKit          3D

 20 21  0  0  0  0  0  0  0  0999 V2000
   -3.1160   -0.1700   -1.3760 C   0  0  0  0  0  0  0  0  0  0  0  0
   -2.4280   -0.6120   -0.1960 N   0  0  0  0  0  0  0  0  0  0  0  0
   -1.1040   -0.2190    0.1560 C   0  0  0  0  0  0  0  0  0  0  0  0
   -0.9300    1.0130    0.6410 C   0  0  0  0  0  0  0  0  0  0  0  0
   -2.0380    1.9590    0.8200 C   0  0  0  0  0  0  0  0  0  0  0  0
    0.3960    1.3910    0.9870 N   0  0  0  0  0  0  0  0  0  0  0  0
    1.5820    0.8390    0.3950 C   0  0  2  0  0  0  0  0  0  0  0  0
    2.0960    1.8270   -0.5870 C   0  0  0  0  0  0  0  0  0  0  0  0
    3.3600    2.2580   -0.5390 C   0  0  0  0  0  0  0  0  0  0  0  0
    4.2200    1.8090    0.4090 F   0  0  0  0  0  0  0  0  0  0  0  0
    1.2980   -0.4500   -0.2060 N   0  0  0  0  0  0  0  0  0  0  0  0
    2.1440   -1.2330   -1.0500 C   0  0  0  0  0  0  0  0  0  0  0  0
    3.3960   -1.1360   -1.2100 O   0  0  0  0  0  0  0  0  0  0  0  0
    1.2430   -2.1850   -1.7020 C   0  0  0  0  0  0  0  0  0  0  0  0
    1.6290   -3.0540   -2.5320 O   0  0  0  0  0  0  0  0  0  0  0  0
   -0.0590   -1.9230   -1.2210 N   0  0  0  0  0  0  0  0  0  0  0  0
    0.0450   -1.1490   -0.0110 C   0  0  2  0  0  0  0  0  0  0  0  0
    0.1390   -2.0950    1.1390 C   0  0  0  0  0  0  0  0  0  0  0  0
    0.2530   -1.6420    2.4840 N   0  0  0  0  0  0  0  0  0  0  0  0
    0.1220   -3.3520    0.9740 O   0  0  0  0  0  0  0  0  0  0  0  0
  1  2  1  0
  2  3  1  0
  3  4  2  0
  3 17  1  0
  4  5  1  0
  4  6  1  0
  6  7  1  0
  7  8  1  6
  7 11  1  0
  8  9  2  3
  9 10  1  0
 11 12  1  0
 11 17  1  0
 12 13  2  0
 12 14  1  0
 14 15  2  0
 14 16  1  0
 16 17  1  0
 17 18  1  1
 18 19  1  0
 18 20  2  0
M  END
