
     RDKit          3D

 29 33  0  0  0  0  0  0  0  0999 V2000
   -7.4250    1.3020   -0.5220 C   0  0  0  0  0  0  0  0  0  0  0  0
   -6.0170    0.7600   -0.4950 C   0  0  0  0  0  0  0  0  0  0  0  0
   -5.4270    0.0410    0.5200 C   0  0  0  0  0  0  0  0  0  0  0  0
   -4.1260   -0.2680    0.1640 C   0  0  0  0  0  0  0  0  0  0  0  0
   -3.0900   -0.9530    0.7880 C   0  0  0  0  0  0  0  0  0  0  0  0
   -3.3230   -1.5250    2.1290 C   0  0  0  0  0  0  0  0  0  0  0  0
   -1.8510   -1.1180    0.2030 C   0  0  0  0  0  0  0  0  0  0  0  0
   -0.7260   -1.8520    0.8910 C   0  0  0  0  0  0  0  0  0  0  0  0
    0.4440   -1.7590    0.0450 C   0  0  0  0  0  0  0  0  0  0  0  0
    0.3800   -2.5290   -0.9880 O   0  0  0  0  0  0  0  0  0  0  0  0
    1.6450   -0.9670    0.1600 C   0  0  0  0  0  0  0  0  0  0  0  0
    2.6760   -1.0810   -0.7840 C   0  0  0  0  0  0  0  0  0  0  0  0
    2.8370   -1.8640   -1.8990 C   0  0  0  0  0  0  0  0  0  0  0  0
    4.0720   -1.5870   -2.5120 C   0  0  0  0  0  0  0  0  0  0  0  0
    4.6900   -0.6050   -1.7530 C   0  0  0  0  0  0  0  0  0  0  0  0
    3.8840   -0.2610   -0.6900 C   0  0  0  0  0  0  0  0  0  0  0  0
    3.9940    0.6330    0.3490 C   0  0  0  0  0  0  0  0  0  0  0  0
    5.1870    1.4780    0.4840 C   0  0  0  0  0  0  0  0  0  0  0  0
    5.3570    2.3870    1.5180 C   0  0  0  0  0  0  0  0  0  0  0  0
    6.5810    2.9980    1.3270 C   0  0  0  0  0  0  0  0  0  0  0  0
    7.0950    2.4280    0.1830 C   0  0  0  0  0  0  0  0  0  0  0  0
    6.2380    1.5480   -0.2650 O   0  0  0  0  0  0  0  0  0  0  0  0
    3.0090    0.6930    1.1890 O   0  0  0  0  0  0  0  0  0  0  0  0
    1.9040   -0.0310    1.1360 C   0  0  0  0  0  0  0  0  0  0  0  0
    0.9120    0.2270    2.2200 C   0  0  0  0  0  0  0  0  0  0  0  0
   -1.6870   -0.5620   -1.0510 C   0  0  0  0  0  0  0  0  0  0  0  0
   -2.6970    0.1270   -1.7020 C   0  0  0  0  0  0  0  0  0  0  0  0
   -3.9320    0.2730   -1.0810 C   0  0  0  0  0  0  0  0  0  0  0  0
   -5.0840    0.8850   -1.4520 N   0  0  0  0  0  0  0  0  0  0  0  0
  1  2  1  0
  2  3  2  0
  2 29  1  0
  3  4  1  0
  4  5  2  0
  4 28  1  0
  5  6  1  0
  5  7  1  0
  7  8  1  0
  7 26  2  0
  8  9  1  0
  9 10  2  0
  9 11  1  0
 11 12  1  0
 11 24  2  0
 12 13  2  0
 12 16  1  0
 13 14  1  0
 14 15  2  0
 15 16  1  0
 16 17  2  0
 17 18  1  0
 17 23  1  0
 18 19  2  0
 18 22  1  0
 19 20  1  0
 20 21  2  0
 21 22  1  0
 23 24  1  0
 24 25  1  0
 26 27  1  0
 27 28  2  0
 28 29  1  0
M  END
