
     RDKit          3D

 29 32  0  0  0  0  0  0  0  0999 V2000
   -5.1650    1.8600   -0.9760 C   0  0  0  0  0  0  0  0  0  0  0  0
   -3.8520    1.6630   -0.7740 N   0  0  0  0  0  0  0  0  0  0  0  0
   -2.6560    1.7910   -0.6430 C   0  0  0  0  0  0  0  0  0  0  0  0
   -1.9810    3.0820   -0.7800 C   0  0  0  0  0  0  0  0  0  0  0  0
   -2.6110    4.1890   -1.0430 C   0  0  0  0  0  0  0  0  0  0  0  0
   -3.9530    4.2940   -1.2230 O   0  0  0  0  0  0  0  0  0  0  0  0
   -0.5060    3.1120   -0.6070 C   0  0  0  0  0  0  0  0  0  0  0  0
    0.0340    4.1610   -0.2680 O   0  0  0  0  0  0  0  0  0  0  0  0
    0.2530    1.8310   -0.8620 C   0  0  1  0  0  0  0  0  0  0  0  0
    1.6620    1.9720   -0.5040 C   0  0  0  0  0  0  0  0  0  0  0  0
    2.2940    0.9960    0.3520 C   0  0  0  0  0  0  0  0  0  0  0  0
    3.4570    0.5140    0.9700 N   0  0  2  0  0  0  0  0  0  0  0  0
    3.9290   -0.6730    0.4280 C   0  0  0  0  0  0  0  0  0  0  0  0
    3.1600   -1.4980   -0.5000 C   0  0  1  0  0  0  0  0  0  0  0  0
    2.8070   -0.7870   -1.7840 C   0  0  0  0  0  0  0  0  0  0  0  0
    3.9620   -2.7470   -0.9200 C   0  0  0  0  0  0  0  0  0  0  0  0
    3.3100    0.1070    2.4190 C   0  0  1  0  0  0  0  0  0  0  0  0
    4.5470   -0.1340    3.1470 C   0  0  0  0  0  0  0  0  0  0  0  0
    3.6330    0.9720    3.5350 C   0  0  0  0  0  0  0  0  0  0  0  0
    1.5450    0.1240    0.8010 N   0  0  0  0  0  0  0  0  0  0  0  0
    0.1610   -0.0410    0.5680 N   0  0  0  0  0  0  0  0  0  0  0  0
   -0.4660    0.7530   -0.2000 C   0  0  0  0  0  0  0  0  0  0  0  0
   -1.8940    0.6020   -0.3480 N   0  0  0  0  0  0  0  0  0  0  0  0
   -2.3770   -0.7140   -0.1770 C   0  0  2  0  0  0  0  0  0  0  0  0
   -1.8210   -1.6900   -1.2070 C   0  0  0  0  0  0  0  0  0  0  0  0
   -1.8570   -3.0550   -0.5710 C   0  0  0  0  0  0  0  0  0  0  0  0
   -2.7540   -3.1370    0.6170 C   0  0  0  0  0  0  0  0  0  0  0  0
   -4.0300   -2.3740    0.4770 C   0  0  0  0  0  0  0  0  0  0  0  0
   -3.8250   -0.9510   -0.0460 C   0  0  0  0  0  0  0  0  0  0  0  0
  1  2  1  0
  2  3  2  3
  3  4  1  0
  3 23  1  0
  4  5  2  3
  4  7  1  0
  5  6  1  0
  7  8  2  0
  7  9  1  0
  9 10  1  1
  9 22  1  0
 10 11  1  0
 11 12  1  0
 11 20  2  0
 12 13  1  6
 12 17  1  0
 13 14  1  0
 14 15  1  6
 14 16  1  0
 17 18  1  6
 17 19  1  0
 18 19  1  0
 20 21  1  0
 21 22  2  0
 22 23  1  0
 24 23  1  6
 24 25  1  0
 24 29  1  0
 25 26  1  0
 26 27  1  0
 27 28  1  0
 28 29  1  0
M  CHG  1  12   1
M  END
