
     RDKit          3D

 29 32  0  0  0  0  0  0  0  0999 V2000
   -4.3020   -0.7390   -2.5880 C   0  0  0  0  0  0  0  0  0  0  0  0
   -3.9270   -1.7550   -1.5680 C   0  0  0  0  0  0  0  0  0  0  0  0
   -2.6870   -1.4360   -0.8690 C   0  0  0  0  0  0  0  0  0  0  0  0
   -1.5240   -2.1660   -1.0680 C   0  0  0  0  0  0  0  0  0  0  0  0
   -0.3730   -1.9550   -0.3400 C   0  0  0  0  0  0  0  0  0  0  0  0
   -0.3100   -0.9850    0.6430 C   0  0  0  0  0  0  0  0  0  0  0  0
    0.8340   -0.7660    1.4080 O   0  0  0  0  0  0  0  0  0  0  0  0
    1.9810   -1.4620    1.1130 C   0  0  0  0  0  0  0  0  0  0  0  0
    2.3860   -2.5760    1.8270 C   0  0  0  0  0  0  0  0  0  0  0  0
    3.5540   -3.2800    1.5120 C   0  0  0  0  0  0  0  0  0  0  0  0
    4.3120   -2.8300    0.4550 C   0  0  0  0  0  0  0  0  0  0  0  0
    3.9430   -1.7260   -0.2650 C   0  0  0  0  0  0  0  0  0  0  0  0
    4.7890   -1.2510   -1.3860 C   0  0  0  0  0  0  0  0  0  0  0  0
    2.7710   -1.0460    0.0760 C   0  0  0  0  0  0  0  0  0  0  0  0
    2.4890    0.1800   -0.6250 C   0  0  0  0  0  0  0  0  0  0  0  0
    1.5690    0.3310   -1.4220 O   0  0  0  0  0  0  0  0  0  0  0  0
    3.4040    1.3080   -0.3250 C   0  0  0  0  0  0  0  0  0  0  0  0
    4.2920    1.3680    0.7480 C   0  0  0  0  0  0  0  0  0  0  0  0
    4.9790    2.5740    0.7240 C   0  0  0  0  0  0  0  0  0  0  0  0
    4.5060    3.2460   -0.3570 N   0  0  0  0  0  0  0  0  0  0  0  0
    3.5720    2.4970   -0.9880 C   0  0  0  0  0  0  0  0  0  0  0  0
   -1.4440   -0.2490    0.8380 C   0  0  0  0  0  0  0  0  0  0  0  0
   -2.6060   -0.4610    0.1090 C   0  0  0  0  0  0  0  0  0  0  0  0
   -3.7480    0.3980    0.4450 C   0  0  0  0  0  0  0  0  0  0  0  0
   -3.3010    1.7910    0.7680 C   0  0  1  0  0  0  0  0  0  0  0  0
   -3.5840    2.6940   -0.4300 C   0  0  0  0  0  0  0  0  0  0  0  0
   -4.0650    2.3170    1.9800 C   0  0  0  0  0  0  0  0  0  0  0  0
   -1.9690    1.9410    1.0630 O   0  0  0  0  0  0  0  0  0  0  0  0
   -1.4820    0.8450    1.8350 C   0  0  0  0  0  0  0  0  0  0  0  0
  1  2  1  0
  2  3  1  0
  3  4  2  0
  3 23  1  0
  4  5  1  0
  5  6  2  0
  6  7  1  0
  6 22  1  0
  7  8  1  0
  8  9  2  0
  8 14  1  0
  9 10  1  0
 10 11  2  0
 11 12  1  0
 12 13  1  0
 12 14  2  0
 14 15  1  0
 15 16  2  0
 15 17  1  0
 17 18  1  0
 17 21  2  0
 18 19  2  0
 19 20  1  0
 20 21  1  0
 22 23  2  0
 22 29  1  0
 23 24  1  0
 24 25  1  0
 25 26  1  6
 25 27  1  0
 25 28  1  0
 28 29  1  0
M  END
