
     RDKit          3D

 29 33  0  0  0  0  0  0  0  0999 V2000
   -8.5150   -1.2530   -0.9400 C   0  0  0  0  0  0  0  0  0  0  0  0
   -7.6140   -0.7230   -2.0210 C   0  0  0  0  0  0  0  0  0  0  0  0
   -6.2960   -0.3630   -1.4560 C   0  0  0  0  0  0  0  0  0  0  0  0
   -5.2760   -1.2870   -1.3990 C   0  0  0  0  0  0  0  0  0  0  0  0
   -4.0490   -0.9350   -0.8680 C   0  0  0  0  0  0  0  0  0  0  0  0
   -3.8450    0.3500   -0.3930 C   0  0  0  0  0  0  0  0  0  0  0  0
   -4.8670    1.3010   -0.4430 C   0  0  0  0  0  0  0  0  0  0  0  0
   -6.0780    0.9160   -0.9790 C   0  0  0  0  0  0  0  0  0  0  0  0
   -4.3910    2.4530    0.0830 N   0  0  0  0  0  0  0  0  0  0  0  0
   -3.1150    2.2420    0.4530 C   0  0  0  0  0  0  0  0  0  0  0  0
   -2.1920    3.0830    1.0340 C   0  0  0  0  0  0  0  0  0  0  0  0
   -0.9120    2.6380    1.3320 C   0  0  0  0  0  0  0  0  0  0  0  0
   -0.5180    1.3400    1.0570 C   0  0  0  0  0  0  0  0  0  0  0  0
    0.7720    0.9350    1.3710 O   0  0  0  0  0  0  0  0  0  0  0  0
    1.1840   -0.3870    1.0950 C   0  0  0  0  0  0  0  0  0  0  0  0
    2.5860   -0.5740    1.5150 C   0  0  0  0  0  0  0  0  0  0  0  0
    2.8320   -1.0030    2.7980 C   0  0  0  0  0  0  0  0  0  0  0  0
    4.1470   -1.1740    3.1770 C   0  0  0  0  0  0  0  0  0  0  0  0
    5.1680   -0.9130    2.2680 C   0  0  0  0  0  0  0  0  0  0  0  0
    4.9060   -0.4830    0.9840 C   0  0  0  0  0  0  0  0  0  0  0  0
    5.9930   -0.2490    0.1520 O   0  0  0  0  0  0  0  0  0  0  0  0
    6.5540   -1.2100   -0.6650 C   0  0  0  0  0  0  0  0  0  0  0  0
    6.0420   -2.3550   -0.6430 O   0  0  0  0  0  0  0  0  0  0  0  0
    7.7140   -0.9570   -1.5520 C   0  0  2  0  0  0  0  0  0  0  0  0
    8.7840   -0.1010   -0.9510 C   0  0  0  0  0  0  0  0  0  0  0  0
    7.9610    0.4000   -2.0980 C   0  0  0  0  0  0  0  0  0  0  0  0
    3.6000   -0.3110    0.6000 C   0  0  0  0  0  0  0  0  0  0  0  0
   -1.4530    0.5100    0.4750 C   0  0  0  0  0  0  0  0  0  0  0  0
   -2.7360    0.9450    0.1740 C   0  0  0  0  0  0  0  0  0  0  0  0
  1  2  1  0
  2  3  1  0
  3  4  2  0
  3  8  1  0
  4  5  1  0
  5  6  2  0
  6  7  1  0
  6 29  1  0
  7  8  2  0
  7  9  1  0
  9 10  1  0
 10 11  2  0
 10 29  1  0
 11 12  1  0
 12 13  2  0
 13 14  1  0
 13 28  1  0
 14 15  1  0
 15 16  1  0
 16 17  2  0
 16 27  1  0
 17 18  1  0
 18 19  2  0
 19 20  1  0
 20 21  1  0
 20 27  2  0
 21 22  1  0
 22 23  2  0
 24 22  1  1
 24 25  1  0
 24 26  1  0
 25 26  1  0
 28 29  2  0
M  END
