
     RDKit          3D

 29 33  0  0  0  0  0  0  0  0999 V2000
   -5.5480   -0.8420    0.1630 C   0  0  0  0  0  0  0  0  0  0  0  0
   -4.4200   -0.5190    1.0600 C   0  0  0  0  0  0  0  0  0  0  0  0
   -4.6050   -0.4440    2.4250 C   0  0  0  0  0  0  0  0  0  0  0  0
   -3.6040   -0.1490    3.3260 C   0  0  0  0  0  0  0  0  0  0  0  0
   -2.3460    0.0820    2.8210 C   0  0  0  0  0  0  0  0  0  0  0  0
   -2.1140    0.0180    1.4720 C   0  0  0  0  0  0  0  0  0  0  0  0
   -3.1420   -0.2810    0.5850 C   0  0  0  0  0  0  0  0  0  0  0  0
   -2.5920   -0.2750   -0.7540 C   0  0  0  0  0  0  0  0  0  0  0  0
   -3.1980   -0.5100   -1.9700 C   0  0  0  0  0  0  0  0  0  0  0  0
   -2.4290   -0.4400   -3.1220 C   0  0  0  0  0  0  0  0  0  0  0  0
   -1.0910   -0.1420   -3.0370 C   0  0  0  0  0  0  0  0  0  0  0  0
   -0.4700    0.0960   -1.8250 C   0  0  0  0  0  0  0  0  0  0  0  0
   -1.2280    0.0280   -0.6780 C   0  0  0  0  0  0  0  0  0  0  0  0
   -0.8610    0.2260    0.7110 C   0  0  0  0  0  0  0  0  0  0  0  0
    0.2190    0.5100    1.2900 N   0  0  0  0  0  0  0  0  0  0  0  0
    1.5000    0.7320    0.6180 C   0  0  0  0  0  0  0  0  0  0  0  0
    1.7610    1.9350    0.2240 C   0  0  0  0  0  0  0  0  0  0  0  0
    2.8750    2.5510   -0.4390 C   0  0  0  0  0  0  0  0  0  0  0  0
    2.8800    3.8690   -0.7700 C   0  0  0  0  0  0  0  0  0  0  0  0
    4.0700    4.1960   -1.3960 O   0  0  0  0  0  0  0  0  0  0  0  0
    4.9690    3.1300   -1.1230 C   0  0  0  0  0  0  0  0  0  0  0  0
    4.1000    2.0670   -0.8700 O   0  0  0  0  0  0  0  0  0  0  0  0
    2.2100   -0.5030    0.3860 C   0  0  0  0  0  0  0  0  0  0  0  0
    3.0920   -0.7240   -0.6390 C   0  0  0  0  0  0  0  0  0  0  0  0
    3.8240   -1.9160   -0.7610 C   0  0  0  0  0  0  0  0  0  0  0  0
    3.6670   -2.9200    0.1690 C   0  0  0  0  0  0  0  0  0  0  0  0
    2.7820   -2.6870    1.1840 C   0  0  0  0  0  0  0  0  0  0  0  0
    2.6120   -3.6980    2.1340 O   0  0  0  0  0  0  0  0  0  0  0  0
    2.0650   -1.5550    1.3310 C   0  0  0  0  0  0  0  0  0  0  0  0
  1  2  1  0
  2  3  2  0
  2  7  1  0
  3  4  1  0
  4  5  2  0
  5  6  1  0
  6  7  2  0
  6 14  1  0
  7  8  1  0
  8  9  2  0
  8 13  1  0
  9 10  1  0
 10 11  2  0
 11 12  1  0
 12 13  2  0
 13 14  1  0
 14 15  2  3
 15 16  1  0
 16 17  2  3
 16 23  1  0
 17 18  1  0
 18 19  2  0
 18 22  1  0
 19 20  1  0
 20 21  1  0
 21 22  1  0
 23 24  2  0
 23 29  1  0
 24 25  1  0
 25 26  2  0
 26 27  1  0
 27 28  1  0
 27 29  2  0
M  END
