
     RDKit          3D

 29 33  0  0  0  0  0  0  0  0999 V2000
    0.6240    2.7910   -0.3620 C   0  0  0  0  0  0  0  0  0  0  0  0
    1.1760    1.3880   -0.2390 N   0  0  0  0  0  0  0  0  0  0  0  0
    2.5550    1.3250   -0.3780 C   0  0  0  0  0  0  0  0  0  0  0  0
    3.1680    2.4250   -0.7450 O   0  0  0  0  0  0  0  0  0  0  0  0
    3.4680    0.1960   -0.1730 C   0  0  2  0  0  0  0  0  0  0  0  0
    3.6610   -0.0200    1.2370 N   0  0  0  0  0  0  0  0  0  0  0  0
    4.8650    0.1540    1.5140 N   0  0  0  0  0  0  0  0  0  0  0  0
    5.6090    0.4950    0.3670 C   0  0  0  0  0  0  0  0  0  0  0  0
    7.0950    0.7740    0.3550 C   0  0  1  0  0  0  0  0  0  0  0  0
    7.8720   -0.3770    0.9330 C   0  0  0  0  0  0  0  0  0  0  0  0
    8.4630   -1.1140   -0.2280 C   0  0  0  0  0  0  0  0  0  0  0  0
    7.7850   -0.4110   -1.4070 C   0  0  0  0  0  0  0  0  0  0  0  0
    7.5290    0.8970   -0.9720 O   0  0  0  0  0  0  0  0  0  0  0  0
    4.8330    0.5290   -0.6290 N   0  0  0  0  0  0  0  0  0  0  0  0
    0.2230    0.3910    0.0080 C   0  0  0  0  0  0  0  0  0  0  0  0
    0.5000   -0.8740    0.4060 C   0  0  0  0  0  0  0  0  0  0  0  0
   -0.5150   -1.8280    0.6290 C   0  0  0  0  0  0  0  0  0  0  0  0
   -1.8290   -1.4940    0.4480 C   0  0  0  0  0  0  0  0  0  0  0  0
   -2.8370   -2.3960    0.6580 C   0  0  0  0  0  0  0  0  0  0  0  0
   -4.1700   -2.0660    0.4790 C   0  0  0  0  0  0  0  0  0  0  0  0
   -4.5030   -0.7710    0.0700 C   0  0  0  0  0  0  0  0  0  0  0  0
   -5.8640   -0.5080   -0.0940 N   0  0  2  0  0  0  0  0  0  0  0  0
   -6.1540    0.8570   -0.4910 C   0  0  0  0  0  0  0  0  0  0  0  0
   -7.6700    0.8660   -0.4020 C   0  0  0  0  0  0  0  0  0  0  0  0
   -7.8710    0.1490    0.9340 C   0  0  0  0  0  0  0  0  0  0  0  0
   -6.6880   -0.7900    1.0340 C   0  0  0  0  0  0  0  0  0  0  0  0
   -3.4850    0.1210   -0.1370 C   0  0  0  0  0  0  0  0  0  0  0  0
   -2.1560   -0.2110    0.0420 C   0  0  0  0  0  0  0  0  0  0  0  0
   -1.1410    0.6830   -0.1640 C   0  0  0  0  0  0  0  0  0  0  0  0
  1  2  1  0
  2  3  1  0
  2 15  1  0
  3  4  2  0
  5  3  1  1
  5  6  1  0
  5 14  1  0
  6  7  2  0
  7  8  1  0
  9  8  1  6
  8 14  2  0
  9 10  1  0
  9 13  1  0
 10 11  1  0
 11 12  1  0
 12 13  1  0
 15 16  2  0
 15 29  1  0
 16 17  1  0
 17 18  2  0
 18 19  1  0
 18 28  1  0
 19 20  2  0
 20 21  1  0
 22 21  1  1
 21 27  2  0
 22 23  1  0
 22 26  1  0
 23 24  1  0
 24 25  1  0
 25 26  1  0
 27 28  1  0
 28 29  2  0
M  CHG  1  22   1
M  END
