
     RDKit          3D

 29 31  0  0  0  0  0  0  0  0999 V2000
    6.6750    3.2930    1.3960 C   0  0  0  0  0  0  0  0  0  0  0  0
    6.0230    2.7150    0.4100 C   0  0  0  0  0  0  0  0  0  0  0  0
    5.8790    3.2190   -0.9270 N   0  0  0  0  0  0  0  0  0  0  0  0
    5.8360    1.9350   -1.6860 C   0  0  0  0  0  0  0  0  0  0  0  0
    4.7580    1.3040   -0.8550 N   0  0  0  0  0  0  0  0  0  0  0  0
    3.5370    0.8260   -1.3410 C   0  0  0  0  0  0  0  0  0  0  0  0
    3.4410    0.9040   -2.6310 O   0  0  0  0  0  0  0  0  0  0  0  0
    2.4020    0.2850   -0.5940 C   0  0  0  0  0  0  0  0  0  0  0  0
    1.1730    0.2500   -1.5370 C   0  0  2  0  0  0  0  0  0  0  0  0
    0.8440    1.6230   -2.0260 C   0  0  0  0  0  0  0  0  0  0  0  0
   -0.6690    1.6240   -2.3120 C   0  0  0  0  0  0  0  0  0  0  0  0
   -1.3450    1.6900   -0.9710 C   0  0  0  0  0  0  0  0  0  0  0  0
   -0.8580    0.5830   -0.1130 C   0  0  1  0  0  0  0  0  0  0  0  0
   -1.8780   -0.1180    0.5990 N   0  0  0  0  0  0  0  0  0  0  0  0
   -2.6630   -1.0290   -0.1680 C   0  0  0  0  0  0  0  0  0  0  0  0
   -3.9720   -1.2800    0.5340 C   0  0  0  0  0  0  0  0  0  0  0  0
   -4.1780   -0.6930    1.6140 O   0  0  0  0  0  0  0  0  0  0  0  0
   -4.9480   -2.1420    0.0140 N   0  0  0  0  0  0  0  0  0  0  0  0
   -6.2110   -2.4500    0.5830 C   0  0  0  0  0  0  0  0  0  0  0  0
   -6.9360   -3.4900   -0.0070 C   0  0  0  0  0  0  0  0  0  0  0  0
   -8.1760   -3.8960    0.4290 C   0  0  0  0  0  0  0  0  0  0  0  0
   -8.7550   -3.2570    1.5040 C   0  0  0  0  0  0  0  0  0  0  0  0
   -8.0570   -2.2320    2.0960 C   0  0  0  0  0  0  0  0  0  0  0  0
   -6.7920   -1.8290    1.6400 C   0  0  0  0  0  0  0  0  0  0  0  0
    0.0030   -0.4160   -0.8550 C   0  0  0  0  0  0  0  0  0  0  0  0
    5.2720    1.4020    0.4650 C   0  0  0  0  0  0  0  0  0  0  0  0
    5.1890    0.6660    1.5090 C   0  0  0  0  0  0  0  0  0  0  0  0
    4.5450   -0.6030    1.7570 C   0  0  0  0  0  0  0  0  0  0  0  0
    3.4810   -0.5430    2.7340 N   0  0  0  0  0  0  0  0  0  0  0  0
  1  2  2  0
  2  3  1  0
  2 26  1  0
  3  4  1  0
  4  5  1  0
  5  6  1  0
  5 26  1  0
  6  7  2  0
  6  8  1  0
  9  8  1  1
  9 10  1  0
  9 25  1  0
 10 11  1  0
 11 12  1  0
 12 13  1  0
 13 14  1  6
 13 25  1  0
 14 15  1  0
 15 16  1  0
 16 17  2  0
 16 18  1  0
 18 19  1  0
 19 20  2  0
 19 24  1  0
 20 21  1  0
 21 22  2  0
 22 23  1  0
 23 24  2  0
 26 27  2  3
 27 28  1  0
 28 29  1  0
M  CHG  2  14   1  29   1
M  END
