
     RDKit          3D

 31 32  0  0  0  0  0  0  0  0999 V2000
    7.7970   -3.8200    0.7120 C   0  0  0  0  0  0  0  0  0  0  0  0
    6.9200   -2.7610    1.2650 O   0  0  0  0  0  0  0  0  0  0  0  0
    5.6330   -2.8820    0.6720 C   0  0  0  0  0  0  0  0  0  0  0  0
    5.2040   -3.5480   -0.0470 O   0  0  0  0  0  0  0  0  0  0  0  0
    4.6680   -1.5790    1.3650 N   0  0  0  0  0  0  0  0  0  0  0  0
    3.5830   -1.8460    0.6440 C   0  0  0  0  0  0  0  0  0  0  0  0
    3.2600   -2.8100   -0.1260 O   0  0  0  0  0  0  0  0  0  0  0  0
    2.5330   -0.9310    0.6700 N   0  0  0  0  0  0  0  0  0  0  0  0
    1.4530   -0.1780    0.5760 C   0  0  0  0  0  0  0  0  0  0  0  0
    0.6110   -0.8060   -0.2830 O   0  0  0  0  0  0  0  0  0  0  0  0
    0.9470    0.9880    1.0640 N   0  0  0  0  0  0  0  0  0  0  0  0
   -0.3870    1.4490    0.7220 C   0  0  1  0  0  0  0  0  0  0  0  0
   -0.4740    2.5580   -0.6410 S   0  0  0  0  0  0  0  0  0  0  0  0
    0.4080    4.0810   -0.2470 C   0  0  0  0  0  0  0  0  0  0  0  0
    1.7240    4.0840   -0.3050 C   0  0  0  0  0  0  0  0  0  0  0  0
    2.5090    2.8830   -0.6910 C   0  0  0  0  0  0  0  0  0  0  0  0
    2.6130    5.6140    0.1140 S   0  0  0  0  0  0  0  0  0  0  0  0
    1.4260    6.6340    0.9670 N   0  0  0  0  0  0  0  0  0  0  0  0
    0.2500    6.5580    0.2130 N   0  0  0  0  0  0  0  0  0  0  0  0
   -0.3830    5.3060    0.0110 C   0  0  0  0  0  0  0  0  0  0  0  0
   -1.6230    5.2440    0.0420 O   0  0  0  0  0  0  0  0  0  0  0  0
   -1.1760    0.1800    0.5930 C   0  0  0  0  0  0  0  0  0  0  0  0
   -0.9620   -0.6740    1.5170 O   0  0  0  0  0  0  0  0  0  0  0  0
   -2.0940   -0.1840   -0.4090 N   0  0  0  0  0  0  0  0  0  0  0  0
   -2.6880   -1.5020   -0.3840 C   0  0  2  0  0  0  0  0  0  0  0  0
   -3.0600   -2.1440   -1.6900 C   0  0  0  0  0  0  0  0  0  0  0  0
   -4.0580   -1.8650   -0.5770 C   0  0  1  0  0  0  0  0  0  0  0  0
   -4.5050   -3.1250   -0.0520 O   0  0  0  0  0  0  0  0  0  0  0  0
   -5.2210   -1.0450   -1.0410 C   0  0  0  0  0  0  0  0  0  0  0  0
   -6.4880   -1.9240   -1.0250 C   0  0  0  0  0  0  0  0  0  0  0  0
   -6.6540   -2.3220    0.3910 N   0  0  0  0  0  0  0  0  0  0  0  0
  1  2  1  0
  2  3  1  0
  3  4  2  0
  3  5  1  0
  5  6  1  0
  6  7  2  0
  6  8  1  0
  8  9  1  0
  9 10  2  0
  9 11  1  0
 12 11  1  6
 12 13  1  0
 12 22  1  0
 13 14  1  0
 14 15  2  0
 14 20  1  0
 15 16  1  0
 15 17  1  0
 17 18  1  0
 18 19  1  0
 19 20  1  0
 20 21  2  0
 22 23  2  0
 22 24  1  0
 25 24  1  6
 25 26  1  0
 25 27  1  0
 26 27  1  0
 27 28  1  1
 27 29  1  0
 29 30  1  0
 30 31  1  0
M  END
