
     RDKit          3D

 31 32  0  0  0  0  0  0  0  0999 V2000
   -7.8780    2.4470   -0.3060 C   0  0  0  0  0  0  0  0  0  0  0  0
   -7.9560    1.0940    0.2810 C   0  0  0  0  0  0  0  0  0  0  0  0
   -8.9150    0.7300    0.9410 O   0  0  0  0  0  0  0  0  0  0  0  0
   -6.8250    0.1890    0.0510 N   0  0  0  0  0  0  0  0  0  0  0  0
   -6.8070   -1.1040    0.5820 C   0  0  0  0  0  0  0  0  0  0  0  0
   -8.0680   -1.6500    1.4550 S   0  0  0  0  0  0  0  0  0  0  0  0
   -5.6870   -1.9630    0.4740 N   0  0  0  0  0  0  0  0  0  0  0  0
   -4.5360   -1.6010   -0.2760 C   0  0  0  0  0  0  0  0  0  0  0  0
   -4.5620   -0.5680   -0.9610 O   0  0  0  0  0  0  0  0  0  0  0  0
   -3.3410   -2.3380   -0.2620 N   0  0  0  0  0  0  0  0  0  0  0  0
   -2.1540   -1.8570   -0.9370 C   0  0  1  0  0  0  0  0  0  0  0  0
   -2.1780   -0.3790   -0.6590 C   0  0  0  0  0  0  0  0  0  0  0  0
   -1.8110    0.1690    0.5770 N   0  0  0  0  0  0  0  0  0  0  0  0
   -2.5710    0.3730   -1.5900 O   0  0  0  0  0  0  0  0  0  0  0  0
   -0.9470   -2.5220   -0.5350 C   0  0  2  0  0  0  0  0  0  0  0  0
   -0.6210   -2.3080    1.2730 S   0  0  0  0  0  0  0  0  0  0  0  0
    0.5730   -0.9880    1.0850 C   0  0  0  0  0  0  0  0  0  0  0  0
    0.9280   -0.2200    1.9880 O   0  0  0  0  0  0  0  0  0  0  0  0
    0.9760   -1.0440   -0.2810 N   0  0  0  0  0  0  0  0  0  0  0  0
    1.9760   -0.0190   -0.7020 C   0  0  0  0  0  0  0  0  0  0  0  0
    3.2690   -0.4970   -0.1740 C   0  0  0  0  0  0  0  0  0  0  0  0
    3.2590   -1.6500    0.3720 O   0  0  0  0  0  0  0  0  0  0  0  0
    4.4660    0.2450   -0.2130 N   0  0  0  0  0  0  0  0  0  0  0  0
    5.6880   -0.2940    0.4040 C   0  0  0  0  0  0  0  0  0  0  0  0
    6.8010    0.6810    0.4410 C   0  0  2  0  0  0  0  0  0  0  0  0
    6.3370    1.9860    1.1220 C   0  0  0  0  0  0  0  0  0  0  0  0
    7.0100    2.9900    0.3440 N   0  0  0  0  0  0  0  0  0  0  0  0
    7.9600    2.2400   -0.4880 C   0  0  0  0  0  0  0  0  0  0  0  0
    7.2170    1.0910   -0.7920 O   0  0  0  0  0  0  0  0  0  0  0  0
    0.3580   -1.9720   -1.0720 C   0  0  0  0  0  0  0  0  0  0  0  0
    0.7520   -2.4180   -2.1970 O   0  0  0  0  0  0  0  0  0  0  0  0
  1  2  1  0
  2  3  2  0
  2  4  1  0
  4  5  1  0
  5  6  2  0
  5  7  1  0
  7  8  1  0
  8  9  2  0
  8 10  1  0
 11 10  1  1
 11 12  1  0
 11 15  1  0
 12 13  1  0
 12 14  2  0
 15 16  1  1
 15 30  1  0
 16 17  1  0
 17 18  2  0
 17 19  1  0
 19 20  1  0
 19 30  1  0
 20 21  1  0
 21 22  2  0
 21 23  1  0
 23 24  1  0
 25 24  1  6
 25 26  1  0
 25 29  1  0
 26 27  1  0
 27 28  1  0
 28 29  1  0
 30 31  2  0
M  END
