
     RDKit          3D

 29 31  0  0  0  0  0  0  0  0999 V2000
    7.8580    1.9340    0.2680 C   0  0  0  0  0  0  0  0  0  0  0  0
    7.6420    0.5140   -0.1040 C   0  0  0  0  0  0  0  0  0  0  0  0
    8.6870   -0.2000   -0.5530 C   0  0  0  0  0  0  0  0  0  0  0  0
    8.5680   -1.5970   -0.9400 C   0  0  0  0  0  0  0  0  0  0  0  0
    7.4060   -2.1800   -0.8490 C   0  0  0  0  0  0  0  0  0  0  0  0
    6.2410   -1.4470   -0.3680 C   0  0  0  0  0  0  0  0  0  0  0  0
    5.0930   -2.0910   -0.2980 C   0  0  0  0  0  0  0  0  0  0  0  0
    3.8940   -1.3890    0.1820 C   0  0  0  0  0  0  0  0  0  0  0  0
    3.6610   -0.0710   -0.2010 C   0  0  0  0  0  0  0  0  0  0  0  0
    2.5220    0.5790    0.2660 C   0  0  0  0  0  0  0  0  0  0  0  0
    1.6330   -0.0580    1.0920 C   0  0  0  0  0  0  0  0  0  0  0  0
    0.4380    0.6460    1.5710 C   0  0  0  0  0  0  0  0  0  0  0  0
   -0.6280    0.4490    0.6960 N   0  0  0  0  0  0  0  0  0  0  0  0
   -0.5420    0.8490   -0.6340 C   0  0  0  0  0  0  0  0  0  0  0  0
   -1.9210    0.7060   -1.2710 C   0  0  0  0  0  0  0  0  0  0  0  0
   -3.0000    1.2840   -0.4210 C   0  0  1  0  0  0  0  0  0  0  0  0
   -4.2820    0.8920   -0.9560 N   0  0  0  0  0  0  0  0  0  0  0  0
   -5.4610    1.3360   -0.3060 C   0  0  0  0  0  0  0  0  0  0  0  0
   -5.4470    2.3620    0.4710 N   0  0  0  0  0  0  0  0  0  0  0  0
   -6.7170    0.5730   -0.5510 C   0  0  2  0  0  0  0  0  0  0  0  0
   -7.8430    1.1720    0.1530 N   0  0  0  0  0  0  0  0  0  0  0  0
   -6.4730   -0.8400   -0.0180 C   0  0  0  0  0  0  0  0  0  0  0  0
   -7.6460   -1.6340   -0.2250 N   0  0  0  0  0  0  0  0  0  0  0  0
   -2.9570    0.8020    1.0120 C   0  0  0  0  0  0  0  0  0  0  0  0
   -1.7920   -0.1880    1.1260 C   0  0  0  0  0  0  0  0  0  0  0  0
    1.8750   -1.3520    1.4600 C   0  0  0  0  0  0  0  0  0  0  0  0
    3.0120   -2.0360    1.0080 C   0  0  0  0  0  0  0  0  0  0  0  0
    3.2470   -3.3400    1.3850 O   0  0  0  0  0  0  0  0  0  0  0  0
    6.4170   -0.1200   -0.0140 O   0  0  0  0  0  0  0  0  0  0  0  0
  1  2  1  0
  2  3  2  0
  2 29  1  0
  3  4  1  0
  4  5  2  0
  5  6  1  0
  6  7  2  3
  6 29  1  0
  7  8  1  0
  8  9  2  0
  8 27  1  0
  9 10  1  0
 10 11  2  0
 11 12  1  0
 11 26  1  0
 12 13  1  0
 13 14  1  0
 13 25  1  0
 14 15  1  0
 15 16  1  0
 16 17  1  6
 16 24  1  0
 17 18  1  0
 18 19  2  0
 18 20  1  0
 20 21  1  1
 20 22  1  0
 22 23  1  0
 24 25  1  0
 26 27  2  0
 27 28  1  0
M  CHG  2  19   1  23   1
M  END
