
     RDKit          3D

 31 32  0  0  0  0  0  0  0  0999 V2000
   -5.4760   -1.6340   -1.9940 C   0  0  0  0  0  0  0  0  0  0  0  0
   -4.7810   -1.8890   -0.6950 C   0  0  0  0  0  0  0  0  0  0  0  0
   -5.3380   -2.5830    0.3300 N   0  0  0  0  0  0  0  0  0  0  0  0
   -4.4410   -2.6370    1.3330 C   0  0  0  0  0  0  0  0  0  0  0  0
   -4.6100   -3.1980    2.4360 O   0  0  0  0  0  0  0  0  0  0  0  0
   -3.3420   -1.9820    0.9320 N   0  0  0  0  0  0  0  0  0  0  0  0
   -3.5250   -1.5060   -0.3270 C   0  0  0  0  0  0  0  0  0  0  0  0
   -2.5980   -0.7470   -1.1410 C   0  0  0  0  0  0  0  0  0  0  0  0
   -2.9530   -0.3710   -2.2990 O   0  0  0  0  0  0  0  0  0  0  0  0
   -1.2530   -0.3940   -0.6850 C   0  0  0  0  0  0  0  0  0  0  0  0
   -0.8560   -0.8000    0.4370 O   0  0  0  0  0  0  0  0  0  0  0  0
   -0.3360    0.3910   -1.4310 N   0  0  0  0  0  0  0  0  0  0  0  0
    0.9590    0.6760   -0.8930 C   0  0  1  0  0  0  0  0  0  0  0  0
    0.9230    1.4730    0.3970 C   0  0  0  0  0  0  0  0  0  0  0  0
    0.3230    2.7280    0.0890 N   0  0  0  0  0  0  0  0  0  0  0  0
    0.1150    3.7960    1.1240 C   0  0  0  0  0  0  0  0  0  0  0  0
    0.4240    3.5740    2.2090 O   0  0  0  0  0  0  0  0  0  0  0  0
   -0.4580    4.9090    0.4450 N   0  0  0  0  0  0  0  0  0  0  0  0
   -0.3440    6.0410    1.7740 C   0  0  0  0  0  0  0  0  0  0  0  0
   -0.8460    7.2760    1.3930 N   0  0  0  0  0  0  0  0  0  0  0  0
    0.1330    5.5410    2.7230 O   0  0  0  0  0  0  0  0  0  0  0  0
    1.8580   -0.4720   -0.7570 C   0  0  0  0  0  0  0  0  0  0  0  0
    1.4750   -1.6350   -1.1650 O   0  0  0  0  0  0  0  0  0  0  0  0
    3.1290   -0.3540   -0.1990 N   0  0  0  0  0  0  0  0  0  0  0  0
    4.0440   -1.4670   -0.0880 C   0  0  2  0  0  0  0  0  0  0  0  0
    3.6980   -2.6280   -1.0180 C   0  0  0  0  0  0  0  0  0  0  0  0
    5.2470   -3.6240   -1.1950 S   0  0  0  0  0  0  0  0  0  0  0  0
    5.3570   -4.5630    0.3930 C   0  0  0  0  0  0  0  0  0  0  0  0
    4.2800   -3.7230    1.5990 S   0  0  0  0  0  0  0  0  0  0  0  0
    4.2590   -1.9460    1.2690 C   0  0  0  0  0  0  0  0  0  0  0  0
    4.4320   -1.2360    2.2480 O   0  0  0  0  0  0  0  0  0  0  0  0
  1  2  1  0
  2  3  1  0
  2  7  2  0
  3  4  1  0
  4  5  2  0
  4  6  1  0
  6  7  1  0
  7  8  1  0
  8  9  2  0
  8 10  1  0
 10 11  2  0
 10 12  1  0
 12 13  1  0
 13 14  1  1
 13 22  1  0
 14 15  1  0
 15 16  1  0
 16 17  2  0
 16 18  1  0
 18 19  1  0
 19 20  1  0
 19 21  2  0
 22 23  2  0
 22 24  1  0
 25 24  1  1
 25 26  1  0
 25 30  1  0
 26 27  1  0
 27 28  1  0
 28 29  1  0
 29 30  1  0
 30 31  2  0
M  END
