
     RDKit          3D

 31 32  0  0  0  0  0  0  0  0999 V2000
    5.3220    0.5040   -2.9860 N   0  0  0  0  0  0  0  0  0  0  0  0
    6.0820    1.4540   -2.3520 N   0  0  0  0  0  0  0  0  0  0  0  0
    6.4950    1.1140   -1.0310 C   0  0  2  0  0  0  0  0  0  0  0  0
    7.5050   -0.4060   -0.9770 S   0  0  0  0  0  0  0  0  0  0  0  0
    6.9910   -1.1480    0.5590 C   0  0  0  0  0  0  0  0  0  0  0  0
    5.8730   -0.6720    1.0270 C   0  0  0  0  0  0  0  0  0  0  0  0
    5.2150   -1.1300    2.3190 C   0  0  0  0  0  0  0  0  0  0  0  0
    3.8640   -1.6660    2.0160 C   0  0  0  0  0  0  0  0  0  0  0  0
    3.3780   -1.7150    0.8590 O   0  0  0  0  0  0  0  0  0  0  0  0
    3.0990   -2.1430    3.1160 N   0  0  0  0  0  0  0  0  0  0  0  0
    1.7730   -2.6860    2.9480 C   0  0  0  0  0  0  0  0  0  0  0  0
    0.9060   -1.6420    2.3570 C   0  0  0  0  0  0  0  0  0  0  0  0
    1.3930   -0.5180    2.1020 O   0  0  0  0  0  0  0  0  0  0  0  0
   -0.4740   -1.9090    2.0790 N   0  0  0  0  0  0  0  0  0  0  0  0
   -1.3110   -0.9220    1.5150 C   0  0  0  0  0  0  0  0  0  0  0  0
   -0.8180    0.2020    1.2620 O   0  0  0  0  0  0  0  0  0  0  0  0
   -2.7390   -1.1810    1.2210 C   0  0  0  0  0  0  0  0  0  0  0  0
   -3.3200    0.0170    0.6530 N   0  0  0  0  0  0  0  0  0  0  0  0
   -3.9420    1.0790    1.3740 C   0  0  0  0  0  0  0  0  0  0  0  0
   -4.1590    1.0500    2.5960 O   0  0  0  0  0  0  0  0  0  0  0  0
   -4.2870    2.2020    0.4670 C   0  0  0  0  0  0  0  0  0  0  0  0
   -4.1900    1.5970   -0.9170 C   0  0  2  0  0  0  0  0  0  0  0  0
   -5.5010    1.3010   -1.4490 N   0  0  0  0  0  0  0  0  0  0  0  0
   -5.9880    1.8050   -2.6830 C   0  0  0  0  0  0  0  0  0  0  0  0
   -5.2470    2.5530   -3.3600 O   0  0  0  0  0  0  0  0  0  0  0  0
   -7.3110    1.4780   -3.1720 C   0  0  0  0  0  0  0  0  0  0  0  0
   -7.7810    1.9860   -4.3990 N   0  0  0  0  0  0  0  0  0  0  0  0
   -8.0460    0.7320   -2.4920 O   0  0  0  0  0  0  0  0  0  0  0  0
   -3.3840    0.3660   -0.7230 C   0  0  0  0  0  0  0  0  0  0  0  0
   -2.8360   -0.2790   -1.6420 O   0  0  0  0  0  0  0  0  0  0  0  0
    5.1220    0.5900    0.0260 S   0  0  0  0  0  0  0  0  0  0  0  0
  1  2  1  0
  3  2  1  6
  3  4  1  0
  3 31  1  0
  4  5  1  0
  5  6  2  0
  6  7  1  0
  6 31  1  0
  7  8  1  0
  8  9  2  0
  8 10  1  0
 10 11  1  0
 11 12  1  0
 12 13  2  0
 12 14  1  0
 14 15  1  0
 15 16  2  0
 15 17  1  0
 17 18  1  0
 18 19  1  0
 18 29  1  0
 19 20  2  0
 19 21  1  0
 21 22  1  0
 22 23  1  1
 22 29  1  0
 23 24  1  0
 24 25  2  0
 24 26  1  0
 26 27  1  0
 26 28  2  0
 29 30  2  0
M  END
