
     RDKit          3D

 31 33  0  0  0  0  0  0  0  0999 V2000
   -5.5950   -1.6740   -0.3820 C   0  0  0  0  0  0  0  0  0  0  0  0
   -6.3500   -0.5670   -1.0820 C   0  0  1  0  0  0  0  0  0  0  0  0
   -6.4440    0.6540   -0.2110 C   0  0  2  0  0  0  0  0  0  0  0  0
   -5.2050    1.1720    0.1430 O   0  0  0  0  0  0  0  0  0  0  0  0
   -7.2810    0.4310    1.0230 C   0  0  1  0  0  0  0  0  0  0  0  0
   -8.5840   -0.1130    0.6940 N   0  0  0  0  0  0  0  0  0  0  0  0
   -8.8820   -1.0340    1.6690 O   0  0  0  0  0  0  0  0  0  0  0  0
   -7.8100   -1.2460    2.5180 C   0  0  0  0  0  0  0  0  0  0  0  0
   -7.8250   -1.9370    3.5550 O   0  0  0  0  0  0  0  0  0  0  0  0
   -6.7100   -0.5070    1.9450 N   0  0  0  0  0  0  0  0  0  0  0  0
   -5.5520   -0.1940   -2.6470 S   0  0  0  0  0  0  0  0  0  0  0  0
   -5.5050   -1.3980   -3.5400 O   0  0  0  0  0  0  0  0  0  0  0  0
   -3.8230    0.3410   -2.2850 C   0  0  0  0  0  0  0  0  0  0  0  0
   -3.2120    1.2750   -2.0620 N   0  0  0  0  0  0  0  0  0  0  0  0
   -1.9060    1.2800   -1.8390 N   0  0  0  0  0  0  0  0  0  0  0  0
   -1.2110    0.3660   -1.8380 C   0  0  0  0  0  0  0  0  0  0  0  0
    0.1610   -0.0760   -1.6610 N   0  0  0  0  0  0  0  0  0  0  0  0
    1.1600    0.8860   -1.3710 C   0  0  0  0  0  0  0  0  0  0  0  0
    0.7790    2.0780   -1.2860 O   0  0  0  0  0  0  0  0  0  0  0  0
    2.5750    0.5550   -1.1740 C   0  0  0  0  0  0  0  0  0  0  0  0
    3.3350    1.8270   -0.8870 C   0  0  0  0  0  0  0  0  0  0  0  0
    4.7290    1.5370   -0.6900 N   0  0  0  0  0  0  0  0  0  0  0  0
    5.1970    0.6850    0.3410 C   0  0  0  0  0  0  0  0  0  0  0  0
    4.4160    0.1360    1.1440 O   0  0  0  0  0  0  0  0  0  0  0  0
    6.6000    0.4220    0.4970 N   0  0  0  0  0  0  0  0  0  0  0  0
    7.0980   -0.4590    1.5610 C   0  0  1  0  0  0  0  0  0  0  0  0
    7.9060   -1.5540    0.8620 C   0  0  0  0  0  0  0  0  0  0  0  0
    9.2220   -0.7950    0.6450 C   0  0  0  0  0  0  0  0  0  0  0  0
    9.3780   -0.0050    1.7500 O   0  0  0  0  0  0  0  0  0  0  0  0
    8.1610    0.2870    2.2910 C   0  0  0  0  0  0  0  0  0  0  0  0
   -2.4820   -0.9930   -2.2270 S   0  0  0  0  0  0  0  0  0  0  0  0
  2  1  1  1
  2  3  1  0
  2 11  1  0
  3  4  1  1
  3  5  1  0
  5  6  1  6
  5 10  1  0
  6  7  1  0
  7  8  1  0
  8  9  2  0
  8 10  1  0
 11 12  2  0
 11 13  1  1
 13 14  2  0
 13 31  1  0
 14 15  1  0
 15 16  2  0
 16 17  1  0
 16 31  1  0
 17 18  1  0
 18 19  2  0
 18 20  1  0
 20 21  1  0
 21 22  1  0
 22 23  1  0
 23 24  2  0
 23 25  1  0
 26 25  1  6
 26 27  1  0
 26 30  1  0
 27 28  1  0
 28 29  1  0
 29 30  1  0
M  END
