
     RDKit          3D

 29 31  0  0  0  0  0  0  0  0999 V2000
   -5.9120    1.6780    0.5500 O   0  0  0  0  0  0  0  0  0  0  0  0
   -4.8500    1.1350    0.0490 C   0  0  0  0  0  0  0  0  0  0  0  0
   -3.8890    1.9810   -0.3710 O   0  0  0  0  0  0  0  0  0  0  0  0
   -4.8860   -0.3070    0.0090 C   0  0  0  0  0  0  0  0  0  0  0  0
   -6.0460   -0.9540    0.4190 C   0  0  0  0  0  0  0  0  0  0  0  0
   -6.1680   -2.3440    0.3680 C   0  0  0  0  0  0  0  0  0  0  0  0
   -5.1270   -3.0650   -0.0980 C   0  0  0  0  0  0  0  0  0  0  0  0
   -3.9580   -2.4050   -0.5110 C   0  0  0  0  0  0  0  0  0  0  0  0
   -3.8330   -1.0350   -0.4590 C   0  0  0  0  0  0  0  0  0  0  0  0
   -2.6130   -0.4160   -0.8720 C   0  0  0  0  0  0  0  0  0  0  0  0
   -2.3930   -0.4550   -2.1520 O   0  0  0  0  0  0  0  0  0  0  0  0
   -1.6440    0.2370   -0.0720 N   0  0  0  0  0  0  0  0  0  0  0  0
   -0.5160    0.9090   -0.7440 C   0  0  0  0  0  0  0  0  0  0  0  0
    0.5500    1.3860    0.1270 C   0  0  0  0  0  0  0  0  0  0  0  0
    0.4350    2.6230    0.7590 C   0  0  0  0  0  0  0  0  0  0  0  0
   -1.1610    3.3870    0.7060 Cl  0  0  0  0  0  0  0  0  0  0  0  0
    1.4720    3.1730    1.4110 C   0  0  0  0  0  0  0  0  0  0  0  0
    2.7060    2.5700    1.5020 C   0  0  0  0  0  0  0  0  0  0  0  0
    2.8610    1.3490    0.8840 C   0  0  0  0  0  0  0  0  0  0  0  0
    1.7730    0.7820    0.2070 C   0  0  0  0  0  0  0  0  0  0  0  0
    2.1820   -0.6870   -0.8010 S   0  0  0  0  0  0  0  0  0  0  0  0
    3.9680   -0.9040   -0.7750 C   0  0  0  0  0  0  0  0  0  0  0  0
    4.4620   -1.8730    0.0680 C   0  0  0  0  0  0  0  0  0  0  0  0
    5.8480   -2.0570    0.1640 C   0  0  0  0  0  0  0  0  0  0  0  0
    6.6890   -1.2840   -0.5690 C   0  0  0  0  0  0  0  0  0  0  0  0
    8.4510   -1.4880   -0.4410 Cl  0  0  0  0  0  0  0  0  0  0  0  0
    6.1970   -0.3300   -1.4020 C   0  0  0  0  0  0  0  0  0  0  0  0
    4.8150   -0.1320   -1.5100 C   0  0  0  0  0  0  0  0  0  0  0  0
    4.1600    1.1120   -2.5610 Cl  0  0  0  0  0  0  0  0  0  0  0  0
  1  2  2  0
  2  3  1  0
  2  4  1  0
  4  5  2  0
  4  9  1  0
  5  6  1  0
  6  7  2  0
  7  8  1  0
  8  9  2  0
  9 10  1  0
 10 11  2  0
 10 12  1  0
 12 13  1  0
 13 14  1  0
 14 15  2  0
 14 20  1  0
 15 16  1  0
 15 17  1  0
 17 18  2  0
 18 19  1  0
 19 20  2  0
 20 21  1  0
 21 22  1  0
 22 23  2  0
 22 28  1  0
 23 24  1  0
 24 25  2  0
 25 26  1  0
 25 27  1  0
 27 28  2  0
 28 29  1  0
M  END
