
     RDKit          3D

 15 14  0  0  0  0  0  0  0  0999 V2000
   -3.6940   -0.2060    1.4280 C   0  0  0  0  0  0  0  0  0  0  0  0
   -2.9770   -0.1840    0.1140 C   0  0  0  0  0  0  0  0  0  0  0  0
   -2.2270   -1.1210   -0.2420 O   0  0  0  0  0  0  0  0  0  0  0  0
   -3.1570    0.9020   -0.7150 O   0  0  0  0  0  0  0  0  0  0  0  0
   -2.5120    0.9890   -1.9680 C   0  0  0  0  0  0  0  0  0  0  0  0
   -1.0540    0.9530   -1.7440 C   0  0  0  0  0  0  0  0  0  0  0  0
   -0.2870    1.0190   -2.7380 O   0  0  0  0  0  0  0  0  0  0  0  0
   -0.4710    0.8490   -0.4920 O   0  0  0  0  0  0  0  0  0  0  0  0
    0.8520    0.8250   -0.3990 O   0  0  0  0  0  0  0  0  0  0  0  0
    1.3780   -0.4360   -0.7330 C   0  0  0  0  0  0  0  0  0  0  0  0
    2.8790   -0.4280   -0.6170 C   0  0  0  0  0  0  0  0  0  0  0  0
    3.3690   -0.1220    0.6810 N   0  0  0  0  0  0  0  0  0  0  0  0
    3.0950   -0.8660    1.8510 C   0  0  0  0  0  0  0  0  0  0  0  0
    2.3720   -1.8690    1.7580 O   0  0  0  0  0  0  0  0  0  0  0  0
    3.6300   -0.4680    3.0520 O   0  0  0  0  0  0  0  0  0  0  0  0
  1  2  1  0
  2  3  2  0
  2  4  1  0
  4  5  1  0
  5  6  1  0
  6  7  2  0
  6  8  1  0
  8  9  1  0
  9 10  1  0
 10 11  1  0
 11 12  1  0
 12 13  1  0
 13 14  2  0
 13 15  1  0
M  END
