
     RDKit          3D

 15 14  0  0  0  0  0  0  0  0999 V2000
    6.1150    0.4780   -0.3360 C   0  0  0  0  0  0  0  0  0  0  0  0
    4.7060    0.2470   -0.7870 C   0  0  0  0  0  0  0  0  0  0  0  0
    3.8530   -0.0310    0.3280 O   0  0  0  0  0  0  0  0  0  0  0  0
    2.5180   -0.2740    0.1410 C   0  0  0  0  0  0  0  0  0  0  0  0
    2.0320   -0.2530   -1.0360 O   0  0  0  0  0  0  0  0  0  0  0  0
    1.6180   -0.5510    1.1590 O   0  0  0  0  0  0  0  0  0  0  0  0
    0.3200   -0.7840    0.9350 O   0  0  0  0  0  0  0  0  0  0  0  0
   -0.3740    0.3410    1.3090 C   0  0  0  0  0  0  0  0  0  0  0  0
   -1.8520    0.1830    1.0960 C   0  0  0  0  0  0  0  0  0  0  0  0
   -2.6230    1.1260    1.3900 O   0  0  0  0  0  0  0  0  0  0  0  0
   -2.4110   -1.0010    0.5710 N   0  0  0  0  0  0  0  0  0  0  0  0
   -3.7790   -1.2810    0.3150 C   0  0  0  0  0  0  0  0  0  0  0  0
   -4.4870   -0.4330   -0.6710 C   0  0  0  0  0  0  0  0  0  0  0  0
   -4.5050    0.9010   -0.3100 O   0  0  0  0  0  0  0  0  0  0  0  0
   -5.1330    1.6320   -1.1910 O   0  0  0  0  0  0  0  0  0  0  0  0
  1  2  1  0
  2  3  1  0
  3  4  1  0
  4  5  2  0
  4  6  1  0
  6  7  1  0
  7  8  1  0
  8  9  1  0
  9 10  2  0
  9 11  1  0
 11 12  1  0
 12 13  1  0
 13 14  1  0
 14 15  1  0
M  END
