
     RDKit          3D

 15 14  0  0  0  0  0  0  0  0999 V2000
    1.3970   -1.7370    0.1750 C   0  0  0  0  0  0  0  0  0  0  0  0
    0.9680   -0.4380   -0.4100 C   0  0  1  0  0  0  0  0  0  0  0  0
    1.6080   -0.0840   -1.5720 O   0  0  0  0  0  0  0  0  0  0  0  0
    2.3360    1.0640   -1.5320 C   0  0  0  0  0  0  0  0  0  0  0  0
    3.4450    1.0350   -0.5150 C   0  0  0  0  0  0  0  0  0  0  0  0
    4.2100    2.0270   -0.3570 O   0  0  0  0  0  0  0  0  0  0  0  0
    3.6950   -0.0550    0.2970 O   0  0  0  0  0  0  0  0  0  0  0  0
    4.6530   -0.1250    1.2000 O   0  0  0  0  0  0  0  0  0  0  0  0
   -0.5080   -0.4100   -0.5160 C   0  0  0  0  0  0  0  0  0  0  0  0
   -1.0630   -0.0860   -1.5880 O   0  0  0  0  0  0  0  0  0  0  0  0
   -1.2930   -0.7500    0.5980 N   0  0  0  0  0  0  0  0  0  0  0  0
   -2.7330   -0.7590    0.6190 C   0  0  0  0  0  0  0  0  0  0  0  0
   -3.2920    0.6090    0.3110 C   0  0  0  0  0  0  0  0  0  0  0  0
   -4.6930    0.5710    0.3380 O   0  0  0  0  0  0  0  0  0  0  0  0
   -5.1800    1.7620    0.0700 O   0  0  0  0  0  0  0  0  0  0  0  0
  2  1  1  6
  2  3  1  0
  2  9  1  0
  3  4  1  0
  4  5  1  0
  5  6  2  0
  5  7  1  0
  7  8  1  0
  9 10  2  0
  9 11  1  0
 11 12  1  0
 12 13  1  0
 13 14  1  0
 14 15  1  0
M  END
