
     RDKit          3D

 15 14  0  0  0  0  0  0  0  0999 V2000
    5.4650   -1.2480   -0.3420 C   0  0  0  0  0  0  0  0  0  0  0  0
    3.9760   -1.4190   -0.3880 C   0  0  0  0  0  0  0  0  0  0  0  0
    3.4660   -2.5310   -0.6760 O   0  0  0  0  0  0  0  0  0  0  0  0
    3.0880   -0.3460   -0.1110 N   0  0  0  0  0  0  0  0  0  0  0  0
    1.6720   -0.4740   -0.1450 C   0  0  0  0  0  0  0  0  0  0  0  0
    1.1790   -1.5990   -0.4370 O   0  0  0  0  0  0  0  0  0  0  0  0
    0.7940    0.7120    0.1620 C   0  0  0  0  0  0  0  0  0  0  0  0
   -0.5350    0.3900    0.0770 O   0  0  0  0  0  0  0  0  0  0  0  0
   -1.2800    1.5250    0.3710 C   0  0  0  0  0  0  0  0  0  0  0  0
   -2.7670    1.2420    0.2960 C   0  0  0  0  0  0  0  0  0  0  0  0
   -3.1370    0.2480    1.2000 O   0  0  0  0  0  0  0  0  0  0  0  0
   -4.4590    0.0750    1.0550 O   0  0  0  0  0  0  0  0  0  0  0  0
   -4.9450   -0.6560    0.0060 C   0  0  0  0  0  0  0  0  0  0  0  0
   -4.1320   -1.1520   -0.8040 O   0  0  0  0  0  0  0  0  0  0  0  0
   -6.2940   -0.8920   -0.2310 O   0  0  0  0  0  0  0  0  0  0  0  0
  1  2  1  0
  2  3  2  0
  2  4  1  0
  4  5  1  0
  5  6  2  0
  5  7  1  0
  7  8  1  0
  8  9  1  0
  9 10  1  0
 10 11  1  0
 11 12  1  0
 12 13  1  0
 13 14  2  0
 13 15  1  0
M  END
