
     RDKit          3D

 15 14  0  0  0  0  0  0  0  0999 V2000
    4.7950    2.4500   -1.0740 O   0  0  0  0  0  0  0  0  0  0  0  0
    4.4790    1.3260   -0.6070 C   0  0  0  0  0  0  0  0  0  0  0  0
    5.4570    0.4690   -0.1920 O   0  0  0  0  0  0  0  0  0  0  0  0
    3.0250    0.9320   -0.5090 C   0  0  0  0  0  0  0  0  0  0  0  0
    2.9750   -0.3230    0.0280 O   0  0  0  0  0  0  0  0  0  0  0  0
    1.7380   -0.8850    0.1810 C   0  0  0  0  0  0  0  0  0  0  0  0
    0.8950   -0.0490    1.0930 C   0  0  0  0  0  0  0  0  0  0  0  0
   -0.4020   -0.5560    1.3190 O   0  0  0  0  0  0  0  0  0  0  0  0
   -1.2720   -0.7040    0.2700 C   0  0  0  0  0  0  0  0  0  0  0  0
   -0.9560   -0.3980   -0.8960 O   0  0  0  0  0  0  0  0  0  0  0  0
   -2.5660   -1.2230    0.5470 N   0  0  0  0  0  0  0  0  0  0  0  0
   -3.5040   -1.3900   -0.5330 C   0  0  0  0  0  0  0  0  0  0  0  0
   -3.8240    0.2500   -1.3250 P   0  0  0  0  0  0  0  0  0  0  0  0
   -5.5040    0.6460   -1.1500 O   0  0  0  0  0  0  0  0  0  0  0  0
   -2.8020    1.4690   -0.6710 O   0  0  0  0  0  0  0  0  0  0  0  0
  1  2  2  0
  2  3  1  0
  2  4  1  0
  4  5  1  0
  5  6  1  0
  6  7  1  0
  7  8  1  0
  8  9  1  0
  9 10  2  0
  9 11  1  0
 11 12  1  0
 12 13  1  0
 13 14  1  0
 13 15  1  0
M  END
