
     RDKit          3D

 15 14  0  0  0  0  0  0  0  0999 V2000
    4.5530    0.6560   -1.7740 O   0  0  0  0  0  0  0  0  0  0  0  0
    5.3450    0.4680   -0.8320 C   0  0  0  0  0  0  0  0  0  0  0  0
    5.0040   -0.3540    0.1970 O   0  0  0  0  0  0  0  0  0  0  0  0
    3.7790   -1.0480    0.3030 C   0  0  0  0  0  0  0  0  0  0  0  0
    2.5930   -0.1170    0.3300 C   0  0  0  0  0  0  0  0  0  0  0  0
    1.3730   -0.8830    0.4390 N   0  0  0  0  0  0  0  0  0  0  0  0
    0.0940   -0.2640    0.4860 C   0  0  0  0  0  0  0  0  0  0  0  0
   -0.0290    0.9830    0.4350 O   0  0  0  0  0  0  0  0  0  0  0  0
   -1.0220   -1.0640    0.5910 O   0  0  0  0  0  0  0  0  0  0  0  0
   -2.3470   -0.6440    0.6430 C   0  0  0  0  0  0  0  0  0  0  0  0
   -2.8330    0.0730   -0.5630 C   0  0  2  0  0  0  0  0  0  0  0  0
   -2.1930    1.2320   -0.9010 O   0  0  0  0  0  0  0  0  0  0  0  0
   -4.6530    0.4500   -0.4350 P   0  0  0  0  0  0  0  0  0  0  0  0
   -4.9060    2.1420   -0.3120 O   0  0  0  0  0  0  0  0  0  0  0  0
   -5.2640   -0.3250    0.9910 O   0  0  0  0  0  0  0  0  0  0  0  0
  1  2  2  0
  2  3  1  0
  3  4  1  0
  4  5  1  0
  5  6  1  0
  6  7  1  0
  7  8  2  0
  7  9  1  0
  9 10  1  0
 10 11  1  0
 11 12  1  1
 11 13  1  0
 13 14  1  0
 13 15  1  0
M  END
