
     RDKit          3D

 35 39  0  0  0  0  0  0  0  0999 V2000
    4.2770    1.7870    0.1500 O   0  0  0  0  0  0  0  0  0  0  0  0
    4.8080    1.5360    1.2580 C   0  0  0  0  0  0  0  0  0  0  0  0
    3.8890    1.2720    2.3350 N   0  0  0  0  0  0  0  0  0  0  0  0
    2.4790    1.3040    2.1150 C   0  0  0  0  0  0  0  0  0  0  0  0
    1.9890    0.3470    1.1190 C   0  0  0  0  0  0  0  0  0  0  0  0
    2.7850   -0.4080    0.5400 O   0  0  0  0  0  0  0  0  0  0  0  0
    0.6290    0.2620    0.8000 N   0  0  0  0  0  0  0  0  0  0  0  0
   -0.3070    1.1300    1.4650 C   0  0  0  0  0  0  0  0  0  0  0  0
   -1.5040    1.5140    0.6540 C   0  0  0  0  0  0  0  0  0  0  0  0
   -1.7970    0.5910   -0.4200 N   0  0  0  0  0  0  0  0  0  0  0  0
   -3.1390    0.2170   -0.6830 C   0  0  0  0  0  0  0  0  0  0  0  0
   -3.4790   -0.6770   -1.6700 C   0  0  0  0  0  0  0  0  0  0  0  0
   -4.8220   -1.0080   -1.8870 C   0  0  0  0  0  0  0  0  0  0  0  0
   -5.8240   -0.4500   -1.1220 C   0  0  0  0  0  0  0  0  0  0  0  0
   -7.1650   -0.7400   -1.2920 C   0  0  0  0  0  0  0  0  0  0  0  0
   -8.1470   -0.1660   -0.5130 C   0  0  0  0  0  0  0  0  0  0  0  0
   -7.7590    0.7230    0.4620 C   0  0  0  0  0  0  0  0  0  0  0  0
   -6.4000    1.0140    0.6310 C   0  0  0  0  0  0  0  0  0  0  0  0
   -5.4370    0.4420   -0.1440 C   0  0  0  0  0  0  0  0  0  0  0  0
   -4.1360    0.7400    0.0390 N   0  0  0  0  0  0  0  0  0  0  0  0
   -0.6700    0.1010   -1.1710 C   0  0  0  0  0  0  0  0  0  0  0  0
    0.1760   -0.6950   -0.1920 C   0  0  2  0  0  0  0  0  0  0  0  0
   -0.6980   -1.7110    0.4290 C   0  0  0  0  0  0  0  0  0  0  0  0
   -0.7300   -3.0580    0.2930 C   0  0  0  0  0  0  0  0  0  0  0  0
   -1.6220   -3.7870    0.9660 C   0  0  0  0  0  0  0  0  0  0  0  0
   -2.5070   -3.1290    1.8010 C   0  0  0  0  0  0  0  0  0  0  0  0
   -3.7750   -3.7240    2.8100 Cl  0  0  0  0  0  0  0  0  0  0  0  0
   -2.0090   -1.4150    1.5840 S   0  0  0  0  0  0  0  0  0  0  0  0
    6.2120    1.5090    1.4580 N   0  0  0  0  0  0  0  0  0  0  0  0
    7.0960    1.7760    0.3610 C   0  0  0  0  0  0  0  0  0  0  0  0
    6.8620    0.7710   -0.7000 C   0  0  0  0  0  0  0  0  0  0  0  0
    6.1580    0.8540   -1.8620 C   0  0  0  0  0  0  0  0  0  0  0  0
    6.2630   -0.3740   -2.4820 C   0  0  0  0  0  0  0  0  0  0  0  0
    7.0350   -1.1650   -1.6650 C   0  0  0  0  0  0  0  0  0  0  0  0
    7.3670   -0.4480   -0.6250 O   0  0  0  0  0  0  0  0  0  0  0  0
  1  2  2  0
  2  3  1  0
  2 29  1  0
  3  4  1  0
  4  5  1  0
  5  6  2  0
  5  7  1  0
  7  8  1  0
  7 22  1  0
  8  9  1  0
  9 10  1  0
 10 11  1  0
 10 21  1  0
 11 12  2  0
 11 20  1  0
 12 13  1  0
 13 14  2  0
 14 15  1  0
 14 19  1  0
 15 16  2  0
 16 17  1  0
 17 18  2  0
 18 19  1  0
 19 20  2  0
 21 22  1  0
 22 23  1  1
 23 24  2  0
 23 28  1  0
 24 25  1  0
 25 26  2  0
 26 27  1  0
 26 28  1  0
 29 30  1  0
 30 31  1  0
 31 32  2  0
 31 35  1  0
 32 33  1  0
 33 34  2  0
 34 35  1  0
M  END
