
     RDKit          3D

 35 39  0  0  0  0  0  0  0  0999 V2000
   -4.3540    3.1440   -1.9330 C   0  0  0  0  0  0  0  0  0  0  0  0
   -4.1380    1.7700   -2.5080 C   0  0  0  0  0  0  0  0  0  0  0  0
   -2.8920    1.1660   -2.0620 N   0  0  0  0  0  0  0  0  0  0  0  0
   -1.6770    1.3570   -2.8110 C   0  0  0  0  0  0  0  0  0  0  0  0
   -1.6920    1.5620   -4.0310 O   0  0  0  0  0  0  0  0  0  0  0  0
   -0.4300    1.2820   -1.9700 C   0  0  0  0  0  0  0  0  0  0  0  0
   -0.3750   -0.0800   -1.3320 C   0  0  1  0  0  0  0  0  0  0  0  0
    0.8480   -0.2790   -0.6020 N   0  0  0  0  0  0  0  0  0  0  0  0
    1.1960    0.5110    0.5500 C   0  0  0  0  0  0  0  0  0  0  0  0
    2.0670    1.7030    0.2420 C   0  0  0  0  0  0  0  0  0  0  0  0
    2.3440    2.4240    1.5050 C   0  0  0  0  0  0  0  0  0  0  0  0
    1.6840    3.4340    2.1330 C   0  0  0  0  0  0  0  0  0  0  0  0
    2.1290    3.9330    3.2820 C   0  0  0  0  0  0  0  0  0  0  0  0
    3.3060    3.3910    3.8390 C   0  0  0  0  0  0  0  0  0  0  0  0
    4.1650    3.7730    5.2800 Cl  0  0  0  0  0  0  0  0  0  0  0  0
    3.7170    2.1270    2.6020 S   0  0  0  0  0  0  0  0  0  0  0  0
    1.7510   -1.3190   -1.0050 C   0  0  0  0  0  0  0  0  0  0  0  0
    1.4060   -2.0400   -2.0050 O   0  0  0  0  0  0  0  0  0  0  0  0
    2.9760   -1.6060   -0.3910 N   0  0  0  0  0  0  0  0  0  0  0  0
    3.9100   -2.6040   -0.7270 C   0  0  0  0  0  0  0  0  0  0  0  0
    3.7820   -3.5020   -1.7470 C   0  0  0  0  0  0  0  0  0  0  0  0
    4.7320   -4.4800   -2.0500 C   0  0  0  0  0  0  0  0  0  0  0  0
    5.8610   -4.5460   -1.2810 C   0  0  0  0  0  0  0  0  0  0  0  0
    5.9920   -3.6450   -0.2570 C   0  0  0  0  0  0  0  0  0  0  0  0
    5.0650   -2.7240    0.0050 N   0  0  0  0  0  0  0  0  0  0  0  0
   -1.5920   -0.2330   -0.4790 C   0  0  0  0  0  0  0  0  0  0  0  0
   -1.5730   -0.9670    0.6870 C   0  0  0  0  0  0  0  0  0  0  0  0
   -2.7080   -1.1310    1.4500 C   0  0  0  0  0  0  0  0  0  0  0  0
   -3.9050   -0.5430    1.0380 C   0  0  0  0  0  0  0  0  0  0  0  0
   -3.9270    0.1940   -0.1300 C   0  0  0  0  0  0  0  0  0  0  0  0
   -2.7650    0.3550   -0.9000 C   0  0  0  0  0  0  0  0  0  0  0  0
   -4.9190   -0.8670    2.0020 N   0  0  0  0  0  0  0  0  0  0  0  0
   -4.4760   -2.0610    2.7350 C   0  0  0  0  0  0  0  0  0  0  0  0
   -2.9920   -1.8420    2.7130 C   0  0  0  0  0  0  0  0  0  0  0  0
   -2.1560   -2.1810    3.5680 O   0  0  0  0  0  0  0  0  0  0  0  0
  1  2  1  0
  2  3  1  0
  3  4  1  0
  3 31  1  0
  4  5  2  0
  4  6  1  0
  6  7  1  0
  7  8  1  1
  7 26  1  0
  8  9  1  0
  8 17  1  0
  9 10  1  0
 10 11  1  0
 11 12  2  0
 11 16  1  0
 12 13  1  0
 13 14  2  0
 14 15  1  0
 14 16  1  0
 17 18  2  0
 17 19  1  0
 19 20  1  0
 20 21  2  0
 20 25  1  0
 21 22  1  0
 22 23  2  0
 23 24  1  0
 24 25  2  0
 26 27  2  0
 26 31  1  0
 27 28  1  0
 28 29  2  0
 28 34  1  0
 29 30  1  0
 29 32  1  0
 30 31  2  0
 32 33  1  0
 33 34  1  0
 34 35  2  0
M  END
