
     RDKit          3D

 35 39  0  0  0  0  0  0  0  0999 V2000
    9.4300    1.4900    0.5160 C   0  0  0  0  0  0  0  0  0  0  0  0
    7.9800    1.1660    0.3290 C   0  0  0  0  0  0  0  0  0  0  0  0
    7.5350   -0.1170    0.2890 C   0  0  0  0  0  0  0  0  0  0  0  0
    6.1740   -0.4110    0.1130 C   0  0  0  0  0  0  0  0  0  0  0  0
    5.2760    0.6200   -0.0210 C   0  0  0  0  0  0  0  0  0  0  0  0
    3.8610    0.3530   -0.2040 C   0  0  0  0  0  0  0  0  0  0  0  0
    3.0520    0.2620    1.0660 C   0  0  0  0  0  0  0  0  0  0  0  0
    1.6480   -0.0130    0.6500 C   0  0  0  0  0  0  0  0  0  0  0  0
    1.1610   -1.2560    0.7950 N   0  0  0  0  0  0  0  0  0  0  0  0
   -0.1060   -1.5490    0.4300 C   0  0  0  0  0  0  0  0  0  0  0  0
   -0.5750   -2.8290    0.5900 C   0  0  0  0  0  0  0  0  0  0  0  0
    0.3370   -3.8660    1.1680 C   0  0  0  0  0  0  0  0  0  0  0  0
   -1.8520   -3.1650    0.2300 C   0  0  0  0  0  0  0  0  0  0  0  0
   -2.6710   -2.2070   -0.2960 C   0  0  0  0  0  0  0  0  0  0  0  0
   -3.9380   -2.5050   -0.6650 N   0  0  0  0  0  0  0  0  0  0  0  0
   -4.7200   -1.5530   -1.1800 C   0  0  0  0  0  0  0  0  0  0  0  0
   -5.8980   -1.8870   -1.5090 O   0  0  0  0  0  0  0  0  0  0  0  0
   -4.3050   -0.2920   -1.3530 N   0  0  0  0  0  0  0  0  0  0  0  0
   -5.2270    0.6760   -1.9340 C   0  0  0  0  0  0  0  0  0  0  0  0
   -6.0310    1.3090   -0.7990 C   0  0  0  0  0  0  0  0  0  0  0  0
   -5.5040    2.4670   -0.2200 C   0  0  0  0  0  0  0  0  0  0  0  0
   -6.7590    2.8820    1.0640 S   0  0  0  0  0  0  0  0  0  0  0  0
   -7.8200    1.3900    0.6020 C   0  0  0  0  0  0  0  0  0  0  0  0
   -9.0800    1.1470    1.3370 C   0  0  0  0  0  0  0  0  0  0  0  0
  -10.4640    1.9500    0.5660 Cl  0  0  0  0  0  0  0  0  0  0  0  0
   -7.1480    0.8850   -0.3220 N   0  0  0  0  0  0  0  0  0  0  0  0
   -3.0300    0.0710   -0.9980 C   0  0  0  0  0  0  0  0  0  0  0  0
   -2.7140    1.2590   -1.1870 O   0  0  0  0  0  0  0  0  0  0  0  0
   -2.2170   -0.8920   -0.4690 C   0  0  0  0  0  0  0  0  0  0  0  0
   -0.9190   -0.5490   -0.1040 C   0  0  0  0  0  0  0  0  0  0  0  0
   -0.4520    0.6900   -0.2550 N   0  0  0  0  0  0  0  0  0  0  0  0
    0.8230    0.9410    0.1230 C   0  0  0  0  0  0  0  0  0  0  0  0
    1.2830    2.1100   -0.0130 O   0  0  0  0  0  0  0  0  0  0  0  0
    5.7380    1.9100    0.0220 C   0  0  0  0  0  0  0  0  0  0  0  0
    7.0920    2.2000    0.1970 C   0  0  0  0  0  0  0  0  0  0  0  0
  1  2  1  0
  2  3  2  0
  2 35  1  0
  3  4  1  0
  4  5  2  0
  5  6  1  0
  5 34  1  0
  6  7  1  0
  7  8  1  0
  8  9  2  0
  8 32  1  0
  9 10  1  0
 10 11  2  0
 10 30  1  0
 11 12  1  0
 11 13  1  0
 13 14  2  0
 14 15  1  0
 14 29  1  0
 15 16  1  0
 16 17  2  0
 16 18  1  0
 18 19  1  0
 18 27  1  0
 19 20  1  0
 20 21  2  0
 20 26  1  0
 21 22  1  0
 22 23  1  0
 23 24  1  0
 23 26  2  0
 24 25  1  0
 27 28  2  0
 27 29  1  0
 29 30  2  0
 30 31  1  0
 31 32  1  0
 32 33  2  0
 34 35  2  0
M  END
