
     RDKit          3D

 34 37  0  0  0  0  0  0  0  0999 V2000
   -0.4550    5.1090    1.3210 C   0  0  0  0  0  0  0  0  0  0  0  0
   -1.8700    5.4820    0.9610 C   0  0  0  0  0  0  0  0  0  0  0  0
   -2.5620    4.4380    0.1160 C   0  0  0  0  0  0  0  0  0  0  0  0
   -2.6080    3.2570    0.8070 O   0  0  0  0  0  0  0  0  0  0  0  0
   -3.1630    2.1880    0.1700 C   0  0  0  0  0  0  0  0  0  0  0  0
   -2.4370    1.6230   -1.0010 C   0  0  0  0  0  0  0  0  0  0  0  0
   -1.1430    1.0520   -0.7010 N   0  0  0  0  0  0  0  0  0  0  0  0
    0.0180    1.7010   -0.7800 C   0  0  0  0  0  0  0  0  0  0  0  0
    0.0540    2.8860   -1.1460 O   0  0  0  0  0  0  0  0  0  0  0  0
    1.2340    1.1160   -0.4720 C   0  0  0  0  0  0  0  0  0  0  0  0
    2.4560    1.8380   -0.5550 N   0  0  0  0  0  0  0  0  0  0  0  0
    3.7370    1.2580   -0.2400 C   0  0  0  0  0  0  0  0  0  0  0  0
    4.0870    0.1360   -1.1580 C   0  0  0  0  0  0  0  0  0  0  0  0
    5.3570   -0.4680   -0.8770 N   0  0  0  0  0  0  0  0  0  0  0  0
    6.4710    0.3880   -1.1600 C   0  0  0  0  0  0  0  0  0  0  0  0
    7.7700   -0.2100   -0.7030 C   0  0  0  0  0  0  0  0  0  0  0  0
    7.7190   -0.7180    0.5880 O   0  0  0  0  0  0  0  0  0  0  0  0
    6.5320   -0.3960    1.2360 C   0  0  0  0  0  0  0  0  0  0  0  0
    5.4200   -1.0590    0.4430 C   0  0  0  0  0  0  0  0  0  0  0  0
    1.2690   -0.1490   -0.0770 N   0  0  0  0  0  0  0  0  0  0  0  0
    0.1290   -0.8530    0.0210 C   0  0  0  0  0  0  0  0  0  0  0  0
    0.1910   -2.1940    0.4440 C   0  0  0  0  0  0  0  0  0  0  0  0
   -0.9680   -2.8500    0.5280 N   0  0  0  0  0  0  0  0  0  0  0  0
   -2.1590   -2.3350    0.2450 C   0  0  0  0  0  0  0  0  0  0  0  0
   -3.3650   -3.1780    0.3760 C   0  0  0  0  0  0  0  0  0  0  0  0
   -3.2040   -4.5000    0.7540 C   0  0  0  0  0  0  0  0  0  0  0  0
   -4.2450   -5.3660    0.9130 C   0  0  0  0  0  0  0  0  0  0  0  0
   -5.5340   -4.8710    0.6770 C   0  0  0  0  0  0  0  0  0  0  0  0
   -6.5660   -5.7650    0.8430 O   0  0  0  0  0  0  0  0  0  0  0  0
   -7.9330   -5.4680    0.6610 C   0  0  0  0  0  0  0  0  0  0  0  0
   -5.6800   -3.5830    0.3100 N   0  0  0  0  0  0  0  0  0  0  0  0
   -4.6270   -2.7340    0.1570 C   0  0  0  0  0  0  0  0  0  0  0  0
   -2.2360   -1.0290   -0.1690 C   0  0  0  0  0  0  0  0  0  0  0  0
   -1.0750   -0.2540   -0.2900 C   0  0  0  0  0  0  0  0  0  0  0  0
  1  2  1  0
  2  3  1  0
  3  4  1  0
  4  5  1  0
  5  6  1  0
  6  7  1  0
  7  8  1  0
  7 34  1  0
  8  9  2  0
  8 10  1  0
 10 11  1  0
 10 20  2  0
 11 12  1  0
 12 13  1  0
 13 14  1  0
 14 15  1  0
 14 19  1  0
 15 16  1  0
 16 17  1  0
 17 18  1  0
 18 19  1  0
 20 21  1  0
 21 22  2  0
 21 34  1  0
 22 23  1  0
 23 24  2  0
 24 25  1  0
 24 33  1  0
 25 26  2  0
 25 32  1  0
 26 27  1  0
 27 28  2  0
 28 29  1  0
 28 31  1  0
 29 30  1  0
 31 32  2  0
 33 34  2  0
M  END
