
     RDKit          3D

 34 39  0  0  0  0  0  0  0  0999 V2000
   -3.7510    3.5760   -2.5810 C   0  0  0  0  0  0  0  0  0  0  0  0
   -3.9050    2.8740   -1.2900 C   0  0  0  0  0  0  0  0  0  0  0  0
   -4.5100    1.7120   -1.1740 C   0  0  0  0  0  0  0  0  0  0  0  0
   -5.0430    1.1230   -2.4190 C   0  0  0  0  0  0  0  0  0  0  0  0
   -4.3460   -0.0470   -2.8520 O   0  0  0  0  0  0  0  0  0  0  0  0
   -3.9540   -1.1690   -2.1140 C   0  0  0  0  0  0  0  0  0  0  0  0
   -3.8910   -2.3290   -2.8230 C   0  0  0  0  0  0  0  0  0  0  0  0
   -3.5090   -3.5100   -2.1740 C   0  0  0  0  0  0  0  0  0  0  0  0
   -3.2040   -3.4810   -0.8270 C   0  0  0  0  0  0  0  0  0  0  0  0
   -3.2590   -2.3250   -0.0860 C   0  0  0  0  0  0  0  0  0  0  0  0
   -3.6330   -1.1910   -0.7490 C   0  0  0  0  0  0  0  0  0  0  0  0
   -3.6260   -0.0450    0.1420 C   0  0  0  0  0  0  0  0  0  0  0  0
   -2.6880    0.1170    1.0500 C   0  0  0  0  0  0  0  0  0  0  0  0
   -1.5460   -0.6740    1.3910 N   0  0  0  0  0  0  0  0  0  0  0  0
   -0.5850   -1.1130    0.5590 C   0  0  0  0  0  0  0  0  0  0  0  0
    0.3350   -1.8100    1.2950 C   0  0  0  0  0  0  0  0  0  0  0  0
    1.5670   -2.4940    0.8240 C   0  0  0  0  0  0  0  0  0  0  0  0
    2.6880   -1.5490    0.6160 C   0  0  0  0  0  0  0  0  0  0  0  0
    3.5800   -1.0530    1.4870 N   0  0  0  0  0  0  0  0  0  0  0  0
    4.4340   -0.2220    0.8780 C   0  0  0  0  0  0  0  0  0  0  0  0
    5.5480    0.5400    1.4280 C   0  0  0  0  0  0  0  0  0  0  0  0
    5.8550    0.4990    2.7760 C   0  0  0  0  0  0  0  0  0  0  0  0
    6.9100    1.2150    3.3040 C   0  0  0  0  0  0  0  0  0  0  0  0
    7.6740    1.9850    2.4910 C   0  0  0  0  0  0  0  0  0  0  0  0
    7.3960    2.0500    1.1400 C   0  0  0  0  0  0  0  0  0  0  0  0
    6.3250    1.3230    0.6020 C   0  0  0  0  0  0  0  0  0  0  0  0
    6.0780    1.4260   -0.7890 N   0  0  0  0  0  0  0  0  0  0  0  0
    4.0310   -0.2250   -0.4130 N   0  0  0  0  0  0  0  0  0  0  0  0
    2.9950   -1.0120   -0.5700 O   0  0  0  0  0  0  0  0  0  0  0  0
   -0.1190   -1.7660    2.5930 C   0  0  0  0  0  0  0  0  0  0  0  0
   -1.2490   -1.0760    2.6070 N   0  0  0  0  0  0  0  0  0  0  0  0
   -2.9780    1.3450    1.7060 N   0  0  0  0  0  0  0  0  0  0  0  0
   -4.0200    1.8920    1.2310 N   0  0  0  0  0  0  0  0  0  0  0  0
   -4.5950    1.1220    0.1850 C   0  0  1  0  0  0  0  0  0  0  0  0
  1  2  1  0
  2  3  2  3
  3  4  1  0
  3 34  1  0
  4  5  1  0
  5  6  1  0
  6  7  2  0
  6 11  1  0
  7  8  1  0
  8  9  2  0
  9 10  1  0
 10 11  2  0
 11 12  1  0
 12 13  2  0
 12 34  1  0
 13 14  1  0
 13 32  1  0
 14 15  1  0
 14 31  1  0
 15 16  2  0
 16 17  1  0
 16 30  1  0
 17 18  1  0
 18 19  2  0
 18 29  1  0
 19 20  1  0
 20 21  1  0
 20 28  2  0
 21 22  2  0
 21 26  1  0
 22 23  1  0
 23 24  2  0
 24 25  1  0
 25 26  2  0
 26 27  1  0
 28 29  1  0
 30 31  2  0
 32 33  2  0
 34 33  1  1
M  END
