
     RDKit          3D

 34 39  0  0  0  0  0  0  0  0999 V2000
   -3.1510   -0.8310   -3.5350 O   0  0  0  0  0  0  0  0  0  0  0  0
   -3.8080   -0.3190   -2.4600 C   0  0  0  0  0  0  0  0  0  0  0  0
   -5.0120    0.2590   -2.8030 C   0  0  0  0  0  0  0  0  0  0  0  0
   -6.0630    0.7630   -2.2980 C   0  0  0  0  0  0  0  0  0  0  0  0
   -6.5530    0.9770   -0.9670 C   0  0  0  0  0  0  0  0  0  0  0  0
   -7.6230    1.8770   -0.7530 C   0  0  0  0  0  0  0  0  0  0  0  0
   -8.1410    1.9680    0.5120 C   0  0  0  0  0  0  0  0  0  0  0  0
   -7.6730    1.2310    1.5740 C   0  0  0  0  0  0  0  0  0  0  0  0
   -6.6220    0.3680    1.2920 C   0  0  0  0  0  0  0  0  0  0  0  0
   -6.1160    0.2730    0.0750 N   0  0  0  0  0  0  0  0  0  0  0  0
   -3.0780   -0.5080   -1.2520 C   0  0  0  0  0  0  0  0  0  0  0  0
   -3.1120    0.1460   -0.0610 C   0  0  0  0  0  0  0  0  0  0  0  0
   -2.2490   -0.4790    0.8240 C   0  0  0  0  0  0  0  0  0  0  0  0
   -1.6720   -1.5140    0.2100 N   0  0  0  0  0  0  0  0  0  0  0  0
   -0.7120   -2.3920    0.8370 C   0  0  0  0  0  0  0  0  0  0  0  0
    0.6760   -1.8950    0.6500 C   0  0  0  0  0  0  0  0  0  0  0  0
    1.2300   -1.0440    1.5650 N   0  0  0  0  0  0  0  0  0  0  0  0
    2.4960   -0.6230    1.3450 C   0  0  0  0  0  0  0  0  0  0  0  0
    3.2150    0.2600    2.1990 N   0  0  0  0  0  0  0  0  0  0  0  0
    4.5550    0.6150    1.8280 C   0  0  0  0  0  0  0  0  0  0  0  0
    5.1570    0.1590    0.7260 C   0  0  0  0  0  0  0  0  0  0  0  0
    6.5160    0.5530    0.4030 C   0  0  0  0  0  0  0  0  0  0  0  0
    7.1790    0.1230   -0.7000 C   0  0  0  0  0  0  0  0  0  0  0  0
    8.4570    0.5220   -0.9610 C   0  0  0  0  0  0  0  0  0  0  0  0
    9.1030    1.3740   -0.1060 C   0  0  0  0  0  0  0  0  0  0  0  0
    8.4270    1.8170    1.0250 C   0  0  0  0  0  0  0  0  0  0  0  0
    7.1790    1.4030    1.2440 N   0  0  0  0  0  0  0  0  0  0  0  0
    4.4320   -0.7410   -0.1480 C   0  0  0  0  0  0  0  0  0  0  0  0
    4.6280   -1.4100   -1.2970 N   0  0  0  0  0  0  0  0  0  0  0  0
    3.5480   -2.1040   -1.6150 O   0  0  0  0  0  0  0  0  0  0  0  0
    2.6180   -1.9240   -0.7120 C   0  0  0  0  0  0  0  0  0  0  0  0
    1.3470   -2.3220   -0.4540 N   0  0  0  0  0  0  0  0  0  0  0  0
    3.1470   -1.0720    0.2220 C   0  0  0  0  0  0  0  0  0  0  0  0
   -2.1420   -1.5680   -1.0430 C   0  0  0  0  0  0  0  0  0  0  0  0
  1  2  2  0
  2  3  1  0
  2 11  1  0
  3  4  2  3
  4  5  1  0
  5  6  2  0
  5 10  1  0
  6  7  1  0
  7  8  2  0
  8  9  1  0
  9 10  2  0
 11 12  1  0
 11 34  2  0
 12 13  2  0
 13 14  1  0
 14 15  1  0
 14 34  1  0
 15 16  1  0
 16 17  2  0
 16 32  1  0
 17 18  1  0
 18 19  1  0
 18 33  2  0
 19 20  1  0
 20 21  2  0
 21 22  1  0
 21 28  1  0
 22 23  2  0
 22 27  1  0
 23 24  1  0
 24 25  2  0
 25 26  1  0
 26 27  2  0
 28 29  2  0
 28 33  1  0
 29 30  1  0
 30 31  1  0
 31 32  2  0
 31 33  1  0
M  END
