
     RDKit          3D

 35 39  0  0  0  0  0  0  0  0999 V2000
    4.1280    3.6200    0.7380 O   0  0  0  0  0  0  0  0  0  0  0  0
    4.9670    2.7000    0.4380 C   0  0  0  0  0  0  0  0  0  0  0  0
    6.3490    2.9340    0.1950 N   0  0  0  0  0  0  0  0  0  0  0  0
    6.9700    1.6980   -0.1030 C   0  0  0  0  0  0  0  0  0  0  0  0
    8.2520    1.4940   -0.3810 C   0  0  0  0  0  0  0  0  0  0  0  0
    8.7290    0.1390   -0.6680 C   0  0  0  0  0  0  0  0  0  0  0  0
    9.9730   -0.3990    0.4850 Cl  0  0  0  0  0  0  0  0  0  0  0  0
    5.9020    0.7130   -0.0290 C   0  0  0  0  0  0  0  0  0  0  0  0
    4.7190    1.2910    0.2870 C   0  0  0  0  0  0  0  0  0  0  0  0
    3.4860    0.5020    0.4640 C   0  0  0  0  0  0  0  0  0  0  0  0
    2.3910    0.6750   -0.3690 N   0  0  0  0  0  0  0  0  0  0  0  0
    1.5440    1.7650   -0.3880 C   0  0  0  0  0  0  0  0  0  0  0  0
    0.2730    1.6280    0.4310 C   0  0  0  0  0  0  0  0  0  0  0  0
   -0.1860    0.2650    0.5900 N   0  0  0  0  0  0  0  0  0  0  0  0
   -1.5790    0.0320    0.6800 C   0  0  0  0  0  0  0  0  0  0  0  0
   -2.0400   -1.1370    0.7530 O   0  0  0  0  0  0  0  0  0  0  0  0
   -2.5530    1.1060    0.6990 C   0  0  0  0  0  0  0  0  0  0  0  0
   -3.8200    0.8990    0.7900 N   0  0  0  0  0  0  0  0  0  0  0  0
   -4.4840   -0.2870    0.8800 N   0  0  0  0  0  0  0  0  0  0  0  0
   -5.4180   -0.7120   -0.1900 C   0  0  0  0  0  0  0  0  0  0  0  0
   -4.8960   -1.6660   -1.0580 C   0  0  0  0  0  0  0  0  0  0  0  0
   -6.3320   -1.8840   -2.1980 S   0  0  0  0  0  0  0  0  0  0  0  0
   -7.4310   -0.7100   -1.4080 C   0  0  0  0  0  0  0  0  0  0  0  0
   -8.7000   -0.3070   -1.6860 C   0  0  0  0  0  0  0  0  0  0  0  0
   -9.3000    0.6340   -0.8930 C   0  0  0  0  0  0  0  0  0  0  0  0
   -8.5750    1.1250    0.1570 C   0  0  0  0  0  0  0  0  0  0  0  0
   -7.3040    0.7240    0.4390 C   0  0  0  0  0  0  0  0  0  0  0  0
   -6.6520   -0.2540   -0.3680 C   0  0  0  0  0  0  0  0  0  0  0  0
    0.8250   -0.7500    0.6740 C   0  0  1  0  0  0  0  0  0  0  0  0
    0.3960   -2.1320    0.8670 C   0  0  0  0  0  0  0  0  0  0  0  0
    0.7530   -3.1970    0.0270 C   0  0  0  0  0  0  0  0  0  0  0  0
    0.1740   -4.3540    0.5150 C   0  0  0  0  0  0  0  0  0  0  0  0
   -0.5160   -3.9500    1.6370 C   0  0  0  0  0  0  0  0  0  0  0  0
   -0.3470   -2.6410    1.7890 O   0  0  0  0  0  0  0  0  0  0  0  0
    1.7040   -0.6030   -0.5740 C   0  0  0  0  0  0  0  0  0  0  0  0
  1  2  2  0
  2  3  1  0
  2  9  1  0
  3  4  1  0
  4  5  2  3
  4  8  1  0
  5  6  1  0
  6  7  1  0
  8  9  2  0
  9 10  1  0
 10 11  1  0
 11 12  1  0
 11 35  1  0
 12 13  1  0
 13 14  1  0
 14 15  1  0
 14 29  1  0
 15 16  2  0
 15 17  1  0
 17 18  2  3
 18 19  1  0
 19 20  1  0
 20 21  2  0
 20 28  1  0
 21 22  1  0
 22 23  1  0
 23 24  2  0
 23 28  1  0
 24 25  1  0
 25 26  2  0
 26 27  1  0
 27 28  2  0
 29 30  1  6
 29 35  1  0
 30 31  2  0
 30 34  1  0
 31 32  1  0
 32 33  2  0
 33 34  1  0
M  END
