
     RDKit          3D

 35 37  0  0  0  0  0  0  0  0999 V2000
   -3.1710    6.6860   -0.1080 C   0  0  0  0  0  0  0  0  0  0  0  0
   -3.7760    5.3770    0.4110 C   0  0  0  0  0  0  0  0  0  0  0  0
   -2.7370    4.3600    0.3380 N   0  0  0  0  0  0  0  0  0  0  0  0
   -1.5130    4.4980    1.0340 C   0  0  0  0  0  0  0  0  0  0  0  0
   -1.3210    5.5500    1.7320 O   0  0  0  0  0  0  0  0  0  0  0  0
   -0.4260    3.5360    1.0190 C   0  0  0  0  0  0  0  0  0  0  0  0
    0.8530    4.0820    0.8650 C   0  0  0  0  0  0  0  0  0  0  0  0
    1.9260    3.2500    0.7010 C   0  0  0  0  0  0  0  0  0  0  0  0
    1.7680    1.8670    0.6860 C   0  0  0  0  0  0  0  0  0  0  0  0
    2.9310    1.0910    0.5390 N   0  0  0  0  0  0  0  0  0  0  0  0
    2.9380   -0.2240    0.0360 C   0  0  0  0  0  0  0  0  0  0  0  0
    1.8980   -0.8390   -0.3530 O   0  0  0  0  0  0  0  0  0  0  0  0
    4.1620   -0.9930   -0.0800 N   0  0  0  0  0  0  0  0  0  0  0  0
    4.1500   -2.3220   -0.6000 C   0  0  2  0  0  0  0  0  0  0  0  0
    4.5620   -3.3430    0.4640 C   0  0  0  0  0  0  0  0  0  0  0  0
    4.2800   -4.6790   -0.2430 C   0  0  0  0  0  0  0  0  0  0  0  0
    5.0710   -4.3410   -1.8240 S   0  0  2  0  0  0  0  0  0  0  0  0
    4.1940   -4.7480   -2.9540 O   0  0  0  0  0  0  0  0  0  0  0  0
    6.4210   -4.9700   -1.8620 O   0  0  0  0  0  0  0  0  0  0  0  0
    5.1790   -2.5470   -1.6850 C   0  0  0  0  0  0  0  0  0  0  0  0
    0.4860    1.3760    0.8460 C   0  0  0  0  0  0  0  0  0  0  0  0
   -0.6500    2.1580    1.0170 C   0  0  0  0  0  0  0  0  0  0  0  0
   -1.9240    1.6930    1.4250 C   0  0  0  0  0  0  0  0  0  0  0  0
   -2.6290    2.5190    2.1310 O   0  0  0  0  0  0  0  0  0  0  0  0
   -2.6060    0.3770    1.1740 C   0  0  0  0  0  0  0  0  0  0  0  0
   -2.0840   -0.4630    0.3500 C   0  0  0  0  0  0  0  0  0  0  0  0
   -2.2790   -1.7650   -0.2120 C   0  0  0  0  0  0  0  0  0  0  0  0
   -1.3750   -2.2230   -1.1170 C   0  0  0  0  0  0  0  0  0  0  0  0
   -1.4520   -3.5170   -1.7680 C   0  0  0  0  0  0  0  0  0  0  0  0
   -2.4200   -4.4390   -1.3670 N   0  0  0  0  0  0  0  0  0  0  0  0
   -3.3370   -3.9580   -0.4560 C   0  0  0  0  0  0  0  0  0  0  0  0
   -3.3050   -2.7340    0.1000 C   0  0  0  0  0  0  0  0  0  0  0  0
   -3.8330    0.2530    1.9330 C   0  0  0  0  0  0  0  0  0  0  0  0
   -4.2290    1.3340    2.8340 N   0  0  0  0  0  0  0  0  0  0  0  0
   -4.6030   -0.6940    1.9000 O   0  0  0  0  0  0  0  0  0  0  0  0
  1  2  1  0
  2  3  1  0
  3  4  1  0
  4  5  2  0
  4  6  1  0
  6  7  2  0
  6 22  1  0
  7  8  1  0
  8  9  2  0
  9 10  1  0
  9 21  1  0
 10 11  1  0
 11 12  2  0
 11 13  1  0
 14 13  1  1
 14 15  1  0
 14 20  1  0
 15 16  1  0
 17 16  1  1
 17 18  2  0
 17 19  2  0
 17 20  1  0
 21 22  2  0
 22 23  1  0
 23 24  2  0
 23 25  1  0
 25 26  2  3
 25 33  1  0
 26 27  1  0
 27 28  2  0
 27 32  1  0
 28 29  1  0
 29 30  1  0
 30 31  1  0
 31 32  2  0
 33 34  1  0
 33 35  2  0
M  CHG  1  30   1
M  END
