
     RDKit          3D

 34 36  0  0  0  0  0  0  0  0999 V2000
    3.8500    0.7170   -3.5390 C   0  0  0  0  0  0  0  0  0  0  0  0
    3.2890   -0.1770   -2.4450 C   0  0  1  0  0  0  0  0  0  0  0  0
    4.2970   -1.2690   -2.1950 C   0  0  0  0  0  0  0  0  0  0  0  0
    3.9740   -2.0560   -0.9910 C   0  0  0  0  0  0  0  0  0  0  0  0
    5.0570   -2.8990   -0.7080 C   0  0  0  0  0  0  0  0  0  0  0  0
    5.0240   -3.7530    0.3720 C   0  0  0  0  0  0  0  0  0  0  0  0
    6.0580   -4.5800    0.6700 F   0  0  0  0  0  0  0  0  0  0  0  0
    3.8920   -3.7650    1.1810 C   0  0  0  0  0  0  0  0  0  0  0  0
    2.8410   -2.9280    0.8820 C   0  0  0  0  0  0  0  0  0  0  0  0
    2.8500   -2.0540   -0.2050 C   0  0  0  0  0  0  0  0  0  0  0  0
    1.3460   -1.1140   -0.3150 S   0  0  1  0  0  0  0  0  0  0  0  0
    0.3730   -1.8110   -1.2080 O   0  0  0  0  0  0  0  0  0  0  0  0
    0.7600   -1.1600    1.0910 O   0  0  0  0  0  0  0  0  0  0  0  0
    1.6850    0.4960   -0.7990 N   0  0  0  0  0  0  0  0  0  0  0  0
    1.2040    1.4170    0.1500 C   0  0  0  0  0  0  0  0  0  0  0  0
    0.0050    2.2190   -0.1640 C   0  0  1  0  0  0  0  0  0  0  0  0
    0.2210    2.9980   -1.3440 O   0  0  0  0  0  0  0  0  0  0  0  0
   -1.3060    1.5430   -0.3290 C   0  0  2  0  0  0  0  0  0  0  0  0
   -2.3190    2.6230   -0.6600 C   0  0  0  0  0  0  0  0  0  0  0  0
   -2.4330    3.6280    0.4240 C   0  0  0  0  0  0  0  0  0  0  0  0
   -3.3120    3.4060    1.4900 C   0  0  0  0  0  0  0  0  0  0  0  0
   -3.4820    4.2930    2.5250 C   0  0  0  0  0  0  0  0  0  0  0  0
   -2.7680    5.4690    2.5460 C   0  0  0  0  0  0  0  0  0  0  0  0
   -1.9010    5.7190    1.5210 C   0  0  0  0  0  0  0  0  0  0  0  0
   -1.7430    4.8160    0.4890 C   0  0  0  0  0  0  0  0  0  0  0  0
   -1.7280    0.6890    0.7340 N   0  0  0  0  0  0  0  0  0  0  0  0
   -2.3390   -0.5660    0.4940 C   0  0  0  0  0  0  0  0  0  0  0  0
   -2.4860   -0.8660   -0.6990 O   0  0  0  0  0  0  0  0  0  0  0  0
   -2.7550   -1.4230    1.4810 O   0  0  0  0  0  0  0  0  0  0  0  0
   -3.3610   -2.6650    1.0970 C   0  0  1  0  0  0  0  0  0  0  0  0
   -3.7580   -3.4850    2.2800 C   0  0  0  0  0  0  0  0  0  0  0  0
   -4.5280   -2.4690    0.1860 C   0  0  0  0  0  0  0  0  0  0  0  0
   -2.2880   -3.4550    0.3420 C   0  0  0  0  0  0  0  0  0  0  0  0
    3.0730    0.5850   -1.1510 C   0  0  0  0  0  0  0  0  0  0  0  0
  2  1  1  6
  2  3  1  0
  2 34  1  0
  3  4  1  0
  4  5  2  0
  4 10  1  0
  5  6  1  0
  6  7  1  0
  6  8  2  0
  8  9  1  0
  9 10  2  0
 10 11  1  0
 11 12  2  0
 11 13  2  0
 11 14  1  6
 14 15  1  0
 14 34  1  0
 15 16  1  0
 16 17  1  6
 16 18  1  0
 18 19  1  1
 18 26  1  0
 19 20  1  0
 20 21  2  0
 20 25  1  0
 21 22  1  0
 22 23  2  0
 23 24  1  0
 24 25  2  0
 26 27  1  0
 27 28  2  0
 27 29  1  0
 29 30  1  0
 30 31  1  1
 30 32  1  0
 30 33  1  0
M  END
