
     RDKit          3D

 35 38  0  0  0  0  0  0  0  0999 V2000
   -8.7510   -0.0240    0.5660 C   0  0  0  0  0  0  0  0  0  0  0  0
   -8.1030   -1.3660    0.2820 C   0  0  0  0  0  0  0  0  0  0  0  0
   -6.8460   -1.5190    0.0440 C   0  0  0  0  0  0  0  0  0  0  0  0
   -5.6950   -0.6410   -0.0440 C   0  0  0  0  0  0  0  0  0  0  0  0
   -4.6060   -1.2620   -0.3160 O   0  0  0  0  0  0  0  0  0  0  0  0
   -5.6560    0.7450    0.1290 N   0  0  0  0  0  0  0  0  0  0  0  0
   -4.4650    1.5190    0.0190 C   0  0  0  0  0  0  0  0  0  0  0  0
   -4.5620    2.8480    0.2090 C   0  0  0  0  0  0  0  0  0  0  0  0
   -5.7580    3.5930    0.5160 C   0  0  0  0  0  0  0  0  0  0  0  0
   -7.0850    3.1810    0.6960 N   0  0  0  0  0  0  0  0  0  0  0  0
   -5.6430    4.8870    0.6640 O   0  0  0  0  0  0  0  0  0  0  0  0
   -3.3860    3.5970    0.0990 O   0  0  0  0  0  0  0  0  0  0  0  0
   -2.1150    3.1590   -0.1820 C   0  0  0  0  0  0  0  0  0  0  0  0
   -2.0310    1.7110   -0.3850 C   0  0  0  0  0  0  0  0  0  0  0  0
   -0.7920    1.0520   -0.6890 N   0  0  0  0  0  0  0  0  0  0  0  0
    0.3390    1.0810    0.1520 C   0  0  0  0  0  0  0  0  0  0  0  0
    0.2490    1.7300    1.2410 O   0  0  0  0  0  0  0  0  0  0  0  0
    1.5960    0.4150   -0.1500 C   0  0  0  0  0  0  0  0  0  0  0  0
    2.6910    0.4870    0.6860 C   0  0  0  0  0  0  0  0  0  0  0  0
    3.8850   -0.1440    0.4030 C   0  0  0  0  0  0  0  0  0  0  0  0
    4.0360   -0.8800   -0.7380 C   0  0  0  0  0  0  0  0  0  0  0  0
    5.2720   -1.5610   -1.0800 C   0  0  0  0  0  0  0  0  0  0  0  0
    5.3360   -2.2400   -2.1420 O   0  0  0  0  0  0  0  0  0  0  0  0
    6.4550   -1.5220   -0.2880 N   0  0  0  0  0  0  0  0  0  0  0  0
    7.6630   -2.1970   -0.6370 C   0  0  2  0  0  0  0  0  0  0  0  0
    8.6970   -2.6230    0.3040 C   0  0  0  0  0  0  0  0  0  0  0  0
    9.0010   -1.4690   -0.5680 C   0  0  2  0  0  0  0  0  0  0  0  0
    9.0930   -0.0610   -0.1180 C   0  0  0  0  0  0  0  0  0  0  0  0
    8.6590    0.2710    1.1890 N   0  0  0  0  0  0  0  0  0  0  0  0
    2.9440   -0.9560   -1.5790 C   0  0  0  0  0  0  0  0  0  0  0  0
    1.7450   -0.3260   -1.3010 C   0  0  0  0  0  0  0  0  0  0  0  0
   -3.1510    0.9860   -0.2810 C   0  0  0  0  0  0  0  0  0  0  0  0
   -6.6580   -3.3220   -0.1990 S   0  0  0  0  0  0  0  0  0  0  0  0
   -8.2560   -3.6860    0.6560 C   0  0  0  0  0  0  0  0  0  0  0  0
   -8.8950   -2.4890    0.2730 O   0  0  0  0  0  0  0  0  0  0  0  0
  1  2  1  0
  2  3  2  0
  2 35  1  0
  3  4  1  0
  3 33  1  0
  4  5  2  0
  4  6  1  0
  6  7  1  0
  7  8  2  0
  7 32  1  0
  8  9  1  0
  8 12  1  0
  9 10  1  0
  9 11  2  0
 12 13  1  0
 13 14  1  0
 14 15  1  0
 14 32  2  0
 15 16  1  0
 16 17  2  0
 16 18  1  0
 18 19  2  0
 18 31  1  0
 19 20  1  0
 20 21  2  0
 21 22  1  0
 21 30  1  0
 22 23  2  0
 22 24  1  0
 25 24  1  1
 25 26  1  0
 25 27  1  0
 26 27  1  0
 27 28  1  1
 28 29  1  0
 30 31  2  0
 33 34  1  0
 34 35  1  0
M  CHG  1  29   1
M  END
