
     RDKit          3D

 35 38  0  0  0  0  0  0  0  0999 V2000
   -0.7970   -2.3720    2.8240 C   0  0  0  0  0  0  0  0  0  0  0  0
    0.2400   -3.0570    1.9660 C   0  0  0  0  0  0  0  0  0  0  0  0
   -0.3000   -3.7750    0.8130 C   0  0  2  0  0  0  0  0  0  0  0  0
    0.6690   -4.5120   -0.0730 C   0  0  0  0  0  0  0  0  0  0  0  0
   -0.1360   -5.5650   -0.6810 O   0  0  0  0  0  0  0  0  0  0  0  0
   -1.3850   -5.2230   -1.2030 C   0  0  0  0  0  0  0  0  0  0  0  0
   -2.0370   -6.1510   -2.0380 C   0  0  0  0  0  0  0  0  0  0  0  0
   -3.2740   -5.8550   -2.5860 C   0  0  0  0  0  0  0  0  0  0  0  0
   -3.8560   -4.6530   -2.3040 C   0  0  0  0  0  0  0  0  0  0  0  0
   -3.2040   -3.7420   -1.4780 C   0  0  0  0  0  0  0  0  0  0  0  0
   -1.9700   -4.0220   -0.9200 C   0  0  0  0  0  0  0  0  0  0  0  0
   -1.2580   -3.0890   -0.0560 N   0  0  0  0  0  0  0  0  0  0  0  0
   -1.6100   -1.7660   -0.0550 C   0  0  0  0  0  0  0  0  0  0  0  0
   -2.8470   -1.4360    0.0240 O   0  0  0  0  0  0  0  0  0  0  0  0
   -0.7010   -0.5860   -0.1570 C   0  0  0  0  0  0  0  0  0  0  0  0
    0.5790   -0.6820   -0.3060 C   0  0  0  0  0  0  0  0  0  0  0  0
    1.4430    0.5150   -0.3870 C   0  0  0  0  0  0  0  0  0  0  0  0
    2.6450    0.5000   -0.5140 N   0  0  0  0  0  0  0  0  0  0  0  0
    3.9430    0.6210   -0.6500 C   0  0  0  0  0  0  0  0  0  0  0  0
    4.8040    0.9860    0.2860 N   0  0  0  0  0  0  0  0  0  0  0  0
    6.1750    1.0860    0.0210 C   0  0  0  0  0  0  0  0  0  0  0  0
    7.1090    1.1420    0.9530 C   0  0  0  0  0  0  0  0  0  0  0  0
    8.4370    1.2480    0.3060 C   0  0  0  0  0  0  0  0  0  0  0  0
    8.1410    1.2510   -1.1380 C   0  0  0  0  0  0  0  0  0  0  0  0
    6.8470    1.1540   -1.2710 C   0  0  0  0  0  0  0  0  0  0  0  0
   -1.3580    0.7190   -0.2190 C   0  0  0  0  0  0  0  0  0  0  0  0
   -1.0990    1.6520   -1.1860 C   0  0  0  0  0  0  0  0  0  0  0  0
   -1.6490    2.9360   -1.0810 C   0  0  0  0  0  0  0  0  0  0  0  0
   -2.4550    3.3320   -0.0360 C   0  0  0  0  0  0  0  0  0  0  0  0
   -2.9860    4.6870    0.0540 C   0  0  1  0  0  0  0  0  0  0  0  0
   -2.6960    5.5080   -1.1830 C   0  0  0  0  0  0  0  0  0  0  0  0
   -4.4730    4.6990    0.2870 C   0  0  0  0  0  0  0  0  0  0  0  0
   -2.3330    5.4600    1.2090 C   0  0  0  0  0  0  0  0  0  0  0  0
   -2.7160    2.3720    0.9430 C   0  0  0  0  0  0  0  0  0  0  0  0
   -2.1710    1.1010    0.8390 C   0  0  0  0  0  0  0  0  0  0  0  0
  1  2  1  0
  3  2  1  6
  3  4  1  0
  3 12  1  0
  4  5  1  0
  5  6  1  0
  6  7  2  0
  6 11  1  0
  7  8  1  0
  8  9  2  0
  9 10  1  0
 10 11  2  0
 11 12  1  0
 12 13  1  0
 13 14  2  0
 13 15  1  0
 15 16  2  3
 15 26  1  0
 16 17  1  0
 17 18  2  3
 18 19  1  0
 19 20  2  3
 20 21  1  0
 21 22  2  0
 21 25  1  0
 22 23  1  0
 23 24  1  0
 24 25  2  0
 26 27  2  0
 26 35  1  0
 27 28  1  0
 28 29  2  0
 29 30  1  0
 29 34  1  0
 30 31  1  6
 30 32  1  0
 30 33  1  0
 34 35  2  0
M  END
