
     RDKit          3D

 35 38  0  0  0  0  0  0  0  0999 V2000
   10.3500    0.9450    1.4340 C   0  0  0  0  0  0  0  0  0  0  0  0
    9.7640   -0.1240    0.9450 C   0  0  0  0  0  0  0  0  0  0  0  0
    9.2960   -0.1060   -0.4020 N   0  0  0  0  0  0  0  0  0  0  0  0
    9.3250   -1.3750   -1.1310 C   0  0  0  0  0  0  0  0  0  0  0  0
    8.8720    1.0350   -0.9620 N   0  0  0  0  0  0  0  0  0  0  0  0
    7.8090    1.6740   -1.0990 C   0  0  0  0  0  0  0  0  0  0  0  0
    6.4960    1.2970   -0.6010 C   0  0  0  0  0  0  0  0  0  0  0  0
    5.4230    2.1570   -0.8530 C   0  0  0  0  0  0  0  0  0  0  0  0
    4.1710    1.8250   -0.3950 C   0  0  0  0  0  0  0  0  0  0  0  0
    3.9100    0.6730    0.3110 C   0  0  0  0  0  0  0  0  0  0  0  0
    2.6110    0.2990    0.8060 C   0  0  0  0  0  0  0  0  0  0  0  0
    2.4700   -0.7940    1.4490 O   0  0  0  0  0  0  0  0  0  0  0  0
    1.4390    1.1000    0.6160 C   0  0  0  0  0  0  0  0  0  0  0  0
    0.2550    0.7340    1.0830 C   0  0  0  0  0  0  0  0  0  0  0  0
    0.1050   -0.4420    1.7750 O   0  0  0  0  0  0  0  0  0  0  0  0
   -0.9780   -1.2520    1.4840 C   0  0  0  0  0  0  0  0  0  0  0  0
   -1.1310   -2.4320    2.1800 C   0  0  0  0  0  0  0  0  0  0  0  0
   -2.2030   -3.2700    1.9170 C   0  0  0  0  0  0  0  0  0  0  0  0
   -3.1210   -2.9390    0.9660 C   0  0  0  0  0  0  0  0  0  0  0  0
   -3.0180   -1.7840    0.2480 C   0  0  0  0  0  0  0  0  0  0  0  0
   -3.9550   -1.3280   -0.7990 C   0  0  0  0  0  0  0  0  0  0  0  0
   -4.8120   -0.2400   -0.4600 N   0  0  0  0  0  0  0  0  0  0  0  0
   -4.1570    1.0150   -0.0330 C   0  0  0  0  0  0  0  0  0  0  0  0
   -5.1920    2.1140    0.0930 C   0  0  0  0  0  0  0  0  0  0  0  0
   -5.8090    2.4060   -1.2620 C   0  0  0  0  0  0  0  0  0  0  0  0
   -7.2040    1.8490   -1.2280 C   0  0  0  0  0  0  0  0  0  0  0  0
   -7.2050    0.4280   -0.9190 C   0  0  0  0  0  0  0  0  0  0  0  0
   -8.5320   -0.0210   -0.9930 C   0  0  0  0  0  0  0  0  0  0  0  0
   -8.8030   -1.3320   -0.7380 C   0  0  0  0  0  0  0  0  0  0  0  0
   -7.8200   -2.2190   -0.4140 C   0  0  0  0  0  0  0  0  0  0  0  0
   -6.5150   -1.7860   -0.3400 C   0  0  0  0  0  0  0  0  0  0  0  0
   -6.2090   -0.4720   -0.5910 C   0  0  0  0  0  0  0  0  0  0  0  0
   -1.9320   -0.9600    0.5310 C   0  0  0  0  0  0  0  0  0  0  0  0
    4.9890   -0.1770    0.5560 C   0  0  0  0  0  0  0  0  0  0  0  0
    6.2420    0.1510    0.1000 C   0  0  0  0  0  0  0  0  0  0  0  0
  1  2  2  0
  2  3  1  0
  3  4  1  0
  3  5  1  0
  5  6  2  3
  6  7  1  0
  7  8  2  0
  7 35  1  0
  8  9  1  0
  9 10  2  0
 10 11  1  0
 10 34  1  0
 11 12  2  0
 11 13  1  0
 13 14  2  3
 14 15  1  0
 15 16  1  0
 16 17  2  0
 16 33  1  0
 17 18  1  0
 18 19  2  0
 19 20  1  0
 20 21  1  0
 20 33  2  0
 21 22  1  0
 22 23  1  0
 22 32  1  0
 23 24  1  0
 24 25  1  0
 25 26  1  0
 26 27  1  0
 27 28  2  0
 27 32  1  0
 28 29  1  0
 29 30  2  0
 30 31  1  0
 31 32  2  0
 34 35  2  0
M  END
