
     RDKit          3D

 35 38  0  0  0  0  0  0  0  0999 V2000
    6.9850    1.4420   -2.1940 N   0  0  0  0  0  0  0  0  0  0  0  0
    7.6260    1.1830   -0.9240 C   0  0  0  0  0  0  0  0  0  0  0  0
    8.9520    1.2810   -0.9600 N   0  0  0  0  0  0  0  0  0  0  0  0
    9.7560    0.9890    0.4760 S   0  0  0  0  0  0  0  0  0  0  0  0
    8.7010    0.6120    1.7550 C   0  0  0  0  0  0  0  0  0  0  0  0
    9.1040    0.3590    2.9250 O   0  0  0  0  0  0  0  0  0  0  0  0
    7.3510    0.6020    1.4170 C   0  0  0  0  0  0  0  0  0  0  0  0
    6.8460    0.8620    0.1930 C   0  0  0  0  0  0  0  0  0  0  0  0
    5.4510    0.8110   -0.0750 N   0  0  0  0  0  0  0  0  0  0  0  0
    4.4650    0.7080    0.9060 C   0  0  0  0  0  0  0  0  0  0  0  0
    4.7310    0.6610    2.1200 O   0  0  0  0  0  0  0  0  0  0  0  0
    3.0610    0.6510    0.5310 N   0  0  0  0  0  0  0  0  0  0  0  0
    2.0000    0.5510    1.4860 C   0  0  0  0  0  0  0  0  0  0  0  0
    1.1290   -0.6780    1.2310 C   0  0  0  0  0  0  0  0  0  0  0  0
    0.8790   -0.8620   -0.2290 C   0  0  1  0  0  0  0  0  0  0  0  0
    1.8290   -1.9190   -0.7480 C   0  0  0  0  0  0  0  0  0  0  0  0
    1.5440   -3.1930   -0.2730 O   0  0  0  0  0  0  0  0  0  0  0  0
   -0.4720   -1.1320   -0.5970 N   0  0  1  0  0  0  0  0  0  0  0  0
   -1.0360   -2.3560   -0.1500 C   0  0  0  0  0  0  0  0  0  0  0  0
   -2.5450   -2.1680   -0.1380 C   0  0  0  0  0  0  0  0  0  0  0  0
   -2.7180   -0.6910   -0.1150 C   0  0  0  0  0  0  0  0  0  0  0  0
   -3.8360   -0.0050   -0.0210 C   0  0  0  0  0  0  0  0  0  0  0  0
   -5.1210   -0.6400    0.0750 C   0  0  0  0  0  0  0  0  0  0  0  0
   -5.0980   -1.9260    0.0590 O   0  0  0  0  0  0  0  0  0  0  0  0
   -6.4200   -0.0040    0.1860 C   0  0  0  0  0  0  0  0  0  0  0  0
   -7.5670   -0.8120    0.2360 C   0  0  0  0  0  0  0  0  0  0  0  0
   -8.8010   -0.2430    0.3210 C   0  0  0  0  0  0  0  0  0  0  0  0
   -8.9760    1.1170    0.3610 C   0  0  0  0  0  0  0  0  0  0  0  0
  -10.2700    1.6630    0.4470 O   0  0  0  0  0  0  0  0  0  0  0  0
   -7.8820    1.9200    0.3130 C   0  0  0  0  0  0  0  0  0  0  0  0
   -6.6130    1.3490    0.2270 C   0  0  0  0  0  0  0  0  0  0  0  0
   -5.5570    2.2130    0.1840 O   0  0  0  0  0  0  0  0  0  0  0  0
   -1.3670   -0.0680   -0.2320 C   0  0  0  0  0  0  0  0  0  0  0  0
    1.2450    0.4400   -0.9730 C   0  0  0  0  0  0  0  0  0  0  0  0
    2.7340    0.6960   -0.8550 C   0  0  0  0  0  0  0  0  0  0  0  0
  1  2  1  0
  2  3  2  0
  2  8  1  0
  3  4  1  0
  4  5  1  0
  5  6  2  0
  5  7  1  0
  7  8  2  0
  8  9  1  0
  9 10  1  0
 10 11  2  0
 10 12  1  0
 12 13  1  0
 12 35  1  0
 13 14  1  0
 14 15  1  0
 15 16  1  6
 15 18  1  0
 15 34  1  0
 16 17  1  0
 18 19  1  1
 18 33  1  0
 19 20  1  0
 20 21  1  0
 21 22  2  3
 21 33  1  0
 22 23  1  0
 23 24  2  0
 23 25  1  0
 25 26  2  0
 25 31  1  0
 26 27  1  0
 27 28  2  0
 28 29  1  0
 28 30  1  0
 30 31  2  0
 31 32  1  0
 34 35  1  0
M  CHG  1  18   1
M  END
