
     RDKit          3D

 35 38  0  0  0  0  0  0  0  0999 V2000
   -5.4310   -3.2960   -0.1640 C   0  0  0  0  0  0  0  0  0  0  0  0
   -6.1630   -2.1400    0.4260 C   0  0  0  0  0  0  0  0  0  0  0  0
   -5.3250   -0.9450    0.7400 C   0  0  0  0  0  0  0  0  0  0  0  0
   -4.6610   -0.2830   -0.2760 N   0  0  0  0  0  0  0  0  0  0  0  0
   -3.5740   -0.9320   -0.9090 C   0  0  0  0  0  0  0  0  0  0  0  0
   -2.4360   -1.1540    0.1090 C   0  0  0  0  0  0  0  0  0  0  0  0
   -1.2120   -0.5380   -0.3150 N   0  0  0  0  0  0  0  0  0  0  0  0
   -0.2700    0.1380    0.5400 C   0  0  0  0  0  0  0  0  0  0  0  0
    0.9250    0.1330   -0.0560 C   0  0  0  0  0  0  0  0  0  0  0  0
    2.1710    0.7280    0.4930 C   0  0  0  0  0  0  0  0  0  0  0  0
    2.0600    1.9370    1.1510 C   0  0  0  0  0  0  0  0  0  0  0  0
    3.1930    2.5010    1.6710 C   0  0  0  0  0  0  0  0  0  0  0  0
    4.4190    1.8950    1.5510 C   0  0  0  0  0  0  0  0  0  0  0  0
    4.4740    0.6670    0.8710 C   0  0  0  0  0  0  0  0  0  0  0  0
    5.8160    0.0160    0.7390 C   0  0  0  0  0  0  0  0  0  0  0  0
    6.3540    0.2130   -0.6560 C   0  0  0  0  0  0  0  0  0  0  0  0
    7.6380   -0.4340   -0.7430 N   0  0  0  0  0  0  0  0  0  0  0  0
    8.8120    0.1290   -0.4720 C   0  0  0  0  0  0  0  0  0  0  0  0
    9.7970   -0.7950   -0.6690 C   0  0  0  0  0  0  0  0  0  0  0  0
    9.2050   -1.9580   -1.0730 C   0  0  0  0  0  0  0  0  0  0  0  0
    7.8610   -1.7020   -1.1090 C   0  0  0  0  0  0  0  0  0  0  0  0
    3.3520    0.0720    0.3360 C   0  0  0  0  0  0  0  0  0  0  0  0
    3.4090   -1.2250   -0.3740 C   0  0  0  0  0  0  0  0  0  0  0  0
    0.7720   -0.5560   -1.3600 C   0  0  0  0  0  0  0  0  0  0  0  0
   -0.7420   -0.5100   -1.6730 C   0  0  1  0  0  0  0  0  0  0  0  0
   -1.1730   -1.7430   -2.3930 C   0  0  0  0  0  0  0  0  0  0  0  0
   -0.6510    0.7010    1.8440 C   0  0  0  0  0  0  0  0  0  0  0  0
    0.1250    0.4380    2.8520 O   0  0  0  0  0  0  0  0  0  0  0  0
   -1.7270    1.4780    2.1520 O   0  0  0  0  0  0  0  0  0  0  0  0
   -2.1190    2.7400    1.7290 C   0  0  0  0  0  0  0  0  0  0  0  0
   -3.1260    2.6400    0.6340 C   0  0  0  0  0  0  0  0  0  0  0  0
   -4.5250    2.7410    0.9970 C   0  0  0  0  0  0  0  0  0  0  0  0
   -5.4120    1.9720    0.3700 C   0  0  0  0  0  0  0  0  0  0  0  0
   -6.8660    2.1000    0.7680 C   0  0  0  0  0  0  0  0  0  0  0  0
   -5.0540    0.9930   -0.7020 C   0  0  0  0  0  0  0  0  0  0  0  0
  1  2  1  0
  2  3  1  0
  3  4  1  0
  4  5  1  0
  4 35  1  0
  5  6  1  0
  6  7  1  0
  7  8  1  0
  7 25  1  0
  8  9  2  0
  8 27  1  0
  9 10  1  0
  9 24  1  0
 10 11  2  0
 10 22  1  0
 11 12  1  0
 12 13  2  0
 13 14  1  0
 14 15  1  0
 14 22  2  0
 15 16  1  0
 16 17  1  0
 17 18  1  0
 17 21  1  0
 18 19  2  0
 19 20  1  0
 20 21  2  0
 22 23  1  0
 24 25  1  0
 25 26  1  6
 27 28  2  0
 27 29  1  0
 29 30  1  0
 30 31  1  0
 31 32  1  0
 32 33  2  0
 33 34  1  0
 33 35  1  0
M  END
