
     RDKit          3D

 20 20  0  0  0  0  0  0  0  0999 V2000
    6.2500   -1.6160   -0.3060 C   0  0  0  0  0  0  0  0  0  0  0  0
    4.8990   -1.7450    0.0720 O   0  0  0  0  0  0  0  0  0  0  0  0
    3.9900   -0.7480   -0.2810 C   0  0  0  0  0  0  0  0  0  0  0  0
    4.3780    0.2510   -0.9280 O   0  0  0  0  0  0  0  0  0  0  0  0
    2.6510   -0.8140    0.0590 O   0  0  0  0  0  0  0  0  0  0  0  0
    1.7640    0.1930   -0.3040 C   0  0  0  0  0  0  0  0  0  0  0  0
    2.2240    1.1710   -0.9560 O   0  0  0  0  0  0  0  0  0  0  0  0
    0.3930    0.1170    0.0480 N   0  0  0  0  0  0  0  0  0  0  0  0
   -0.2240   -0.9490    0.7850 C   0  0  0  0  0  0  0  0  0  0  0  0
   -1.6940   -0.8990    0.4160 C   0  0  1  0  0  0  0  0  0  0  0  0
   -2.6490   -1.5740    1.8470 P   0  0  0  0  0  0  0  0  0  0  0  0
   -2.2500   -3.2730    1.9870 O   0  0  0  0  0  0  0  0  0  0  0  0
   -4.3510   -1.4110    1.6400 O   0  0  0  0  0  0  0  0  0  0  0  0
   -1.9290    0.5550    0.1820 C   0  0  2  0  0  0  0  0  0  0  0  0
   -2.9350    0.7970   -0.9320 C   0  0  0  0  0  0  0  0  0  0  0  0
   -3.0890    2.2280   -1.0740 N   0  0  0  0  0  0  0  0  0  0  0  0
   -0.6020    1.0890   -0.2710 C   0  0  1  0  0  0  0  0  0  0  0  0
   -0.2980    2.4180    0.3250 C   0  0  0  0  0  0  0  0  0  0  0  0
    0.7420    2.5690    1.0250 O   0  0  0  0  0  0  0  0  0  0  0  0
   -1.1180    3.5140    0.1430 O   0  0  0  0  0  0  0  0  0  0  0  0
  1  2  1  0
  2  3  1  0
  3  4  2  0
  3  5  1  0
  5  6  1  0
  6  7  2  0
  6  8  1  0
  8  9  1  0
  8 17  1  0
  9 10  1  0
 10 11  1  1
 10 14  1  0
 11 12  1  0
 11 13  1  0
 14 15  1  6
 14 17  1  0
 15 16  1  0
 17 18  1  1
 18 19  2  0
 18 20  1  0
M  END
