
     RDKit          3D

 20 20  0  0  0  0  0  0  0  0999 V2000
   -2.2210    0.0510    2.3060 N   0  0  0  0  0  0  0  0  0  0  0  0
   -2.1560    0.8940    1.1520 C   0  0  2  0  0  0  0  0  0  0  0  0
   -3.4830    1.5280    0.8600 C   0  0  0  0  0  0  0  0  0  0  0  0
   -4.3150    0.7280    0.0890 O   0  0  0  0  0  0  0  0  0  0  0  0
   -4.4540   -0.8790    0.7170 P   0  0  0  0  0  0  0  0  0  0  0  0
   -5.2580   -1.8480   -0.4800 O   0  0  0  0  0  0  0  0  0  0  0  0
   -2.8420   -1.5130    0.8800 O   0  0  0  0  0  0  0  0  0  0  0  0
   -2.1590   -1.1670   -0.2840 C   0  0  0  0  0  0  0  0  0  0  0  0
   -1.5790    0.2150   -0.0650 C   0  0  1  0  0  0  0  0  0  0  0  0
   -1.8250    1.0330   -1.1570 O   0  0  0  0  0  0  0  0  0  0  0  0
   -0.1040    0.0570    0.0810 C   0  0  0  0  0  0  0  0  0  0  0  0
    0.3910   -0.6490    1.0110 O   0  0  0  0  0  0  0  0  0  0  0  0
    0.7620    0.6880   -0.8100 N   0  0  0  0  0  0  0  0  0  0  0  0
    2.2380    0.5990   -0.7650 C   0  0  0  0  0  0  0  0  0  0  0  0
    2.5960   -0.8330   -0.9550 C   0  0  0  0  0  0  0  0  0  0  0  0
    4.0330   -1.1900   -1.0190 C   0  0  0  0  0  0  0  0  0  0  0  0
    4.8510   -0.8870    0.0360 O   0  0  0  0  0  0  0  0  0  0  0  0
    5.3060    0.3040    0.4740 C   0  0  0  0  0  0  0  0  0  0  0  0
    5.0050    1.3670   -0.1210 O   0  0  0  0  0  0  0  0  0  0  0  0
    6.1310    0.4440    1.6000 O   0  0  0  0  0  0  0  0  0  0  0  0
  2  1  1  1
  2  3  1  0
  2  9  1  0
  3  4  1  0
  4  5  1  0
  5  6  1  0
  5  7  1  0
  7  8  1  0
  8  9  1  0
  9 10  1  6
  9 11  1  0
 11 12  2  0
 11 13  1  0
 13 14  1  0
 14 15  1  0
 15 16  1  0
 16 17  1  0
 17 18  1  0
 18 19  2  0
 18 20  1  0
M  END
