
     RDKit          3D

 20 21  0  0  0  0  0  0  0  0999 V2000
    5.4710    0.6840    2.4840 O   0  0  0  0  0  0  0  0  0  0  0  0
    4.8720    0.3850    1.4160 C   0  0  0  0  0  0  0  0  0  0  0  0
    5.5120   -0.2180    0.3010 N   0  0  0  0  0  0  0  0  0  0  0  0
    4.4840   -0.3860   -0.7050 C   0  0  0  0  0  0  0  0  0  0  0  0
    3.4670    0.6460   -0.2970 C   0  0  1  0  0  0  0  0  0  0  0  0
    2.1140    0.3420   -0.8270 C   0  0  0  0  0  0  0  0  0  0  0  0
    1.9140    0.3640   -2.0690 O   0  0  0  0  0  0  0  0  0  0  0  0
    1.0290    0.0270   -0.0390 O   0  0  0  0  0  0  0  0  0  0  0  0
   -0.2340   -0.2530   -0.5920 C   0  0  1  0  0  0  0  0  0  0  0  0
   -0.6820   -1.6110   -0.2250 C   0  0  0  0  0  0  0  0  0  0  0  0
    0.0060   -2.5390    0.1020 O   0  0  0  0  0  0  0  0  0  0  0  0
   -2.1520   -1.6020   -0.3420 C   0  0  0  0  0  0  0  0  0  0  0  0
   -2.5120   -0.2120   -0.1670 N   0  0  0  0  0  0  0  0  0  0  0  0
   -3.8810    0.2500   -0.0940 C   0  0  0  0  0  0  0  0  0  0  0  0
   -4.5300    0.2650    1.6380 P   0  0  0  0  0  0  0  0  0  0  0  0
   -6.2710    0.0840    1.5450 O   0  0  0  0  0  0  0  0  0  0  0  0
   -4.2090    1.7740    2.4230 O   0  0  0  0  0  0  0  0  0  0  0  0
   -1.3130    0.5890   -0.0820 C   0  0  0  0  0  0  0  0  0  0  0  0
   -1.3370    1.7550    0.3590 O   0  0  0  0  0  0  0  0  0  0  0  0
    3.5090    0.5740    1.1120 O   0  0  0  0  0  0  0  0  0  0  0  0
  1  2  2  0
  2  3  1  0
  2 20  1  0
  3  4  1  0
  4  5  1  0
  5  6  1  6
  5 20  1  0
  6  7  2  0
  6  8  1  0
  9  8  1  1
  9 10  1  0
  9 18  1  0
 10 11  2  0
 10 12  1  0
 12 13  1  0
 13 14  1  0
 13 18  1  0
 14 15  1  0
 15 16  1  0
 15 17  1  0
 18 19  2  0
M  END
