
     RDKit          3D

 21 22  0  0  0  0  0  0  0  0999 V2000
    4.8840    2.0100   -0.0770 O   0  0  0  0  0  0  0  0  0  0  0  0
    5.5960    0.5860   -0.3460 P   0  0  0  0  0  0  0  0  0  0  0  0
    4.7210   -0.9040    0.0580 O   0  0  0  0  0  0  0  0  0  0  0  0
    3.4210   -0.6450    0.0560 C   0  0  0  0  0  0  0  0  0  0  0  0
    2.4190   -1.7380    0.4590 C   0  0  0  0  0  0  0  0  0  0  0  0
    1.1420   -0.9390    0.3750 N   0  0  0  0  0  0  0  0  0  0  0  0
    0.9520   -0.0040    1.4420 C   0  0  0  0  0  0  0  0  0  0  0  0
    1.7200   -0.1070    2.4720 O   0  0  0  0  0  0  0  0  0  0  0  0
   -0.0640    0.9610    1.3370 O   0  0  0  0  0  0  0  0  0  0  0  0
   -0.8130    1.0170    0.1850 C   0  0  0  0  0  0  0  0  0  0  0  0
   -1.3100    2.0730   -0.2710 O   0  0  0  0  0  0  0  0  0  0  0  0
   -1.0340   -0.2790   -0.5680 C   0  0  2  0  0  0  0  0  0  0  0  0
   -1.6150    0.1280   -1.9280 C   0  0  0  0  0  0  0  0  0  0  0  0
   -2.7340    0.8390   -1.4160 O   0  0  0  0  0  0  0  0  0  0  0  0
   -3.1890    0.1390   -0.3810 C   0  0  2  0  0  0  0  0  0  0  0  0
   -3.7680    0.8710    0.7840 C   0  0  0  0  0  0  0  0  0  0  0  0
   -4.9600    0.6460    1.1090 O   0  0  0  0  0  0  0  0  0  0  0  0
   -3.1110    1.7830    1.5690 O   0  0  0  0  0  0  0  0  0  0  0  0
   -2.1920   -0.8890    0.0060 N   0  0  0  0  0  0  0  0  0  0  0  0
    0.2810   -0.9000   -0.7310 C   0  0  0  0  0  0  0  0  0  0  0  0
    0.6890   -1.4050   -1.8520 O   0  0  0  0  0  0  0  0  0  0  0  0
  1  2  2  0
  2  3  1  0
  3  4  1  0
  4  5  1  0
  5  6  1  0
  6  7  1  0
  6 20  1  0
  7  8  2  0
  7  9  1  0
  9 10  1  0
 10 11  2  0
 10 12  1  0
 12 13  1  6
 12 19  1  0
 12 20  1  0
 13 14  1  0
 14 15  1  0
 15 16  1  1
 15 19  1  0
 16 17  2  0
 16 18  1  0
 20 21  2  0
M  END
