
     RDKit          3D

 20 21  0  0  0  0  0  0  0  0999 V2000
   -3.0740    1.3250    0.8820 N   0  0  0  0  0  0  0  0  0  0  0  0
   -2.3690    0.0800    0.5180 C   0  0  2  0  0  0  0  0  0  0  0  0
   -1.4300    0.3240   -0.5750 C   0  0  0  0  0  0  0  0  0  0  0  0
   -0.1590    0.1400   -0.7400 C   0  0  0  0  0  0  0  0  0  0  0  0
    0.7630   -0.4180    0.2250 C   0  0  0  0  0  0  0  0  0  0  0  0
    0.4770   -0.8090    1.3670 O   0  0  0  0  0  0  0  0  0  0  0  0
    2.1350   -0.5460   -0.1350 N   0  0  0  0  0  0  0  0  0  0  0  0
    3.0870   -1.1010    0.8070 C   0  0  0  0  0  0  0  0  0  0  0  0
    4.3680   -1.1420    0.2680 O   0  0  0  0  0  0  0  0  0  0  0  0
    4.9540    0.4090   -0.1700 P   0  0  0  0  0  0  0  0  0  0  0  0
    4.4120    0.9140   -1.7400 O   0  0  0  0  0  0  0  0  0  0  0  0
    4.5650    1.6290    1.0000 O   0  0  0  0  0  0  0  0  0  0  0  0
    0.2310    0.6030   -2.1190 C   0  0  0  0  0  0  0  0  0  0  0  0
   -0.9190    1.0670   -2.7220 O   0  0  0  0  0  0  0  0  0  0  0  0
   -1.9380    0.9200   -1.8370 C   0  0  0  0  0  0  0  0  0  0  0  0
   -3.1340    1.2600   -2.1070 O   0  0  0  0  0  0  0  0  0  0  0  0
   -3.4880   -0.8750    0.1100 C   0  0  0  0  0  0  0  0  0  0  0  0
   -3.9570   -1.3150    1.3230 O   0  0  0  0  0  0  0  0  0  0  0  0
   -3.1290   -0.8150    2.3170 C   0  0  0  0  0  0  0  0  0  0  0  0
   -1.9350   -0.4730    1.6620 O   0  0  0  0  0  0  0  0  0  0  0  0
  2  1  1  1
  2  3  1  0
  2 17  1  0
  2 20  1  0
  3  4  2  0
  3 15  1  0
  4  5  1  0
  4 13  1  0
  5  6  2  0
  5  7  1  0
  7  8  1  0
  8  9  1  0
  9 10  1  0
 10 11  1  0
 10 12  1  0
 13 14  1  0
 14 15  1  0
 15 16  2  0
 17 18  1  0
 18 19  1  0
 19 20  1  0
M  END
