
     RDKit          3D

 20 21  0  0  0  0  0  0  0  0999 V2000
   -3.0260   -2.5340   -1.6060 O   0  0  0  0  0  0  0  0  0  0  0  0
   -3.1040   -1.3840   -1.0940 C   0  0  0  0  0  0  0  0  0  0  0  0
   -4.3210   -0.6360   -1.1540 N   0  0  0  0  0  0  0  0  0  0  0  0
   -4.2880    0.8000   -0.8410 C   0  0  0  0  0  0  0  0  0  0  0  0
   -2.8970    1.2420   -1.3190 C   0  0  2  0  0  0  0  0  0  0  0  0
   -2.7280    0.6270   -2.5750 O   0  0  0  0  0  0  0  0  0  0  0  0
   -1.9010    0.6370   -0.3620 C   0  0  0  0  0  0  0  0  0  0  0  0
   -1.9650   -0.7920   -0.4330 N   0  0  0  0  0  0  0  0  0  0  0  0
   -0.9820   -1.6430    0.1240 C   0  0  0  0  0  0  0  0  0  0  0  0
   -1.1010   -2.9070    0.0070 O   0  0  0  0  0  0  0  0  0  0  0  0
    0.1930   -1.1750    0.8460 C   0  0  0  0  0  0  0  0  0  0  0  0
    1.1510   -1.8970    1.3890 C   0  0  0  0  0  0  0  0  0  0  0  0
    2.0700   -1.0600    1.9730 O   0  0  0  0  0  0  0  0  0  0  0  0
    1.8230    0.2360    1.4470 C   0  0  1  0  0  0  0  0  0  0  0  0
    2.7140    0.5240    0.2540 C   0  0  0  0  0  0  0  0  0  0  0  0
    4.0250    0.4470    0.6580 O   0  0  0  0  0  0  0  0  0  0  0  0
    5.1610    0.7490   -0.5820 P   0  0  0  0  0  0  0  0  0  0  0  0
    6.0200    2.2060   -0.2450 O   0  0  0  0  0  0  0  0  0  0  0  0
    6.2010   -0.5770   -0.9080 O   0  0  0  0  0  0  0  0  0  0  0  0
    0.4580    0.1640    1.0600 O   0  0  0  0  0  0  0  0  0  0  0  0
  1  2  2  0
  2  3  1  0
  2  8  1  0
  3  4  1  0
  4  5  1  0
  5  6  1  6
  5  7  1  0
  7  8  1  0
  8  9  1  0
  9 10  2  0
  9 11  1  0
 11 12  2  0
 11 20  1  0
 12 13  1  0
 13 14  1  0
 14 15  1  6
 14 20  1  0
 15 16  1  0
 16 17  1  0
 17 18  1  0
 17 19  1  0
M  END
