
     RDKit          3D

 31 34  0  0  0  0  0  0  0  0999 V2000
   -4.7280   -1.6890   -1.0790 C   0  0  0  0  0  0  0  0  0  0  0  0
   -5.1300   -0.2550   -0.8420 C   0  0  2  0  0  0  0  0  0  0  0  0
   -3.8770    0.5850   -0.7760 C   0  0  0  0  0  0  0  0  0  0  0  0
   -3.5170    1.0140    0.5060 N   0  0  0  0  0  0  0  0  0  0  0  0
   -2.4840    0.3420    1.1760 C   0  0  0  0  0  0  0  0  0  0  0  0
   -1.2190    0.4700    0.3770 C   0  0  0  0  0  0  0  0  0  0  0  0
   -1.0750    1.4330   -0.5930 C   0  0  0  0  0  0  0  0  0  0  0  0
    0.1010    1.5120   -1.3040 C   0  0  0  0  0  0  0  0  0  0  0  0
    1.1030    0.6340   -1.0350 N   0  0  0  0  0  0  0  0  0  0  0  0
    0.9920   -0.3060   -0.1040 C   0  0  0  0  0  0  0  0  0  0  0  0
    2.0720   -1.2380    0.1740 N   0  0  0  0  0  0  0  0  0  0  0  0
    3.2680   -1.1140   -0.5880 C   0  0  0  0  0  0  0  0  0  0  0  0
    4.2890   -2.1060   -0.2700 C   0  0  0  0  0  0  0  0  0  0  0  0
    4.0860   -3.1160    0.6340 C   0  0  0  0  0  0  0  0  0  0  0  0
    5.0560   -4.1040    0.8600 C   0  0  0  0  0  0  0  0  0  0  0  0
    6.2260   -4.0720    0.1760 C   0  0  0  0  0  0  0  0  0  0  0  0
    6.4330   -3.0660   -0.7250 C   0  0  0  0  0  0  0  0  0  0  0  0
    5.4910   -2.0770   -0.9650 C   0  0  0  0  0  0  0  0  0  0  0  0
    5.7700   -1.1140   -1.8770 O   0  0  0  0  0  0  0  0  0  0  0  0
    6.0470    0.1960   -1.5940 C   0  0  0  0  0  0  0  0  0  0  0  0
    6.1440    0.7080   -0.3310 C   0  0  0  0  0  0  0  0  0  0  0  0
    6.4230    1.9850   -0.1040 N   0  0  0  0  0  0  0  0  0  0  0  0
    6.6230    2.8390   -1.1270 C   0  0  0  0  0  0  0  0  0  0  0  0
    6.5270    2.3340   -2.4030 C   0  0  0  0  0  0  0  0  0  0  0  0
    6.2460    1.0450   -2.6350 N   0  0  0  0  0  0  0  0  0  0  0  0
   -0.1700   -0.3990    0.6130 C   0  0  0  0  0  0  0  0  0  0  0  0
   -4.5370    1.6030    1.3060 C   0  0  2  0  0  0  0  0  0  0  0  0
   -4.4750    3.1080    1.1050 C   0  0  0  0  0  0  0  0  0  0  0  0
   -4.4050    1.3400    2.7790 C   0  0  0  0  0  0  0  0  0  0  0  0
   -5.9340    1.1650    0.8960 C   0  0  0  0  0  0  0  0  0  0  0  0
   -5.9200   -0.1790    0.3480 N   0  0  0  0  0  0  0  0  0  0  0  0
  2  1  1  1
  2  3  1  0
  2 31  1  0
  3  4  1  0
  4  5  1  0
  4 27  1  0
  5  6  1  0
  6  7  2  0
  6 26  1  0
  7  8  1  0
  8  9  2  0
  9 10  1  0
 10 11  1  0
 10 26  2  0
 11 12  1  0
 12 13  1  0
 13 14  2  0
 13 18  1  0
 14 15  1  0
 15 16  2  0
 16 17  1  0
 17 18  2  0
 18 19  1  0
 19 20  1  0
 20 21  2  0
 20 25  1  0
 21 22  1  0
 22 23  2  0
 23 24  1  0
 24 25  2  0
 27 28  1  1
 27 29  1  0
 27 30  1  0
 30 31  1  0
M  CHG  1  31   1
M  END
