
     RDKit          3D

 31 34  0  0  0  0  0  0  0  0999 V2000
    2.8760   -4.4270   -0.9470 C   0  0  0  0  0  0  0  0  0  0  0  0
    2.6610   -3.0310   -0.3340 C   0  0  0  0  0  0  0  0  0  0  0  0
    1.9960   -2.2280   -1.3900 C   0  0  0  0  0  0  0  0  0  0  0  0
    1.7000   -0.8330   -0.9730 N   0  0  0  0  0  0  0  0  0  0  0  0
    0.4600   -0.6300   -0.3130 C   0  0  0  0  0  0  0  0  0  0  0  0
   -0.2630   -1.6530   -0.1550 O   0  0  0  0  0  0  0  0  0  0  0  0
   -0.0240    0.6410    0.1800 C   0  0  0  0  0  0  0  0  0  0  0  0
    0.5960    1.8330    0.1230 N   0  0  0  0  0  0  0  0  0  0  0  0
   -0.0800    2.7990    0.6590 N   0  0  0  0  0  0  0  0  0  0  0  0
   -1.2320    2.2500    1.1110 C   0  0  0  0  0  0  0  0  0  0  0  0
   -2.2480    3.0260    1.7440 N   0  0  0  0  0  0  0  0  0  0  0  0
   -2.0550    4.4650    1.9690 C   0  0  0  0  0  0  0  0  0  0  0  0
   -1.2290    0.8990    0.8270 C   0  0  0  0  0  0  0  0  0  0  0  0
   -2.3510   -0.0520    1.1260 C   0  0  1  0  0  0  0  0  0  0  0  0
   -2.7400   -0.0820    2.5220 C   0  0  0  0  0  0  0  0  0  0  0  0
   -1.7120   -0.4340    3.5870 C   0  0  0  0  0  0  0  0  0  0  0  0
   -1.1480   -1.7930    3.3820 C   0  0  0  0  0  0  0  0  0  0  0  0
   -3.9390    0.1780    2.9510 C   0  0  0  0  0  0  0  0  0  0  0  0
   -4.9990    0.5270    2.0850 N   0  0  0  0  0  0  0  0  0  0  0  0
   -4.6580    0.5780    0.6960 C   0  0  0  0  0  0  0  0  0  0  0  0
   -3.4730    0.3250    0.2290 C   0  0  0  0  0  0  0  0  0  0  0  0
   -3.4910    0.4810   -1.2500 C   0  0  0  0  0  0  0  0  0  0  0  0
   -2.3390    0.2840   -2.1640 C   0  0  0  0  0  0  0  0  0  0  0  0
   -4.6750    0.8180   -1.6070 N   0  0  0  0  0  0  0  0  0  0  0  0
   -5.5460    0.9230   -0.4810 C   0  0  0  0  0  0  0  0  0  0  0  0
    2.6840    0.1660   -1.3220 C   0  0  2  0  0  0  0  0  0  0  0  0
    2.8300    0.3070   -2.8150 C   0  0  0  0  0  0  0  0  0  0  0  0
    4.1540    0.1500   -3.4130 C   0  0  0  0  0  0  0  0  0  0  0  0
    5.3500    0.3020   -2.5250 C   0  0  0  0  0  0  0  0  0  0  0  0
    5.0890   -0.6300   -1.3340 C   0  0  0  0  0  0  0  0  0  0  0  0
    3.9850    0.0230   -0.5740 C   0  0  0  0  0  0  0  0  0  0  0  0
  1  2  1  0
  2  3  1  0
  3  4  1  0
  4  5  1  0
 26  4  1  6
  5  6  2  0
  5  7  1  0
  7  8  2  0
  7 13  1  0
  8  9  1  0
  9 10  1  0
 10 11  1  0
 10 13  2  0
 11 12  1  0
 14 13  1  1
 14 15  1  0
 14 21  1  0
 15 16  1  0
 15 18  2  0
 16 17  1  0
 18 19  1  0
 19 20  1  0
 20 21  2  0
 20 25  1  0
 21 22  1  0
 22 23  1  0
 22 24  2  0
 24 25  1  0
 26 27  1  0
 26 31  1  0
 27 28  1  0
 28 29  1  0
 29 30  1  0
 30 31  1  0
M  CHG  1  24   1
M  END
