
     RDKit          3D

 31 33  0  0  0  0  0  0  0  0999 V2000
    8.5260    2.2370    0.4890 C   0  0  0  0  0  0  0  0  0  0  0  0
    7.7710    1.2930    1.3880 C   0  0  0  0  0  0  0  0  0  0  0  0
    8.3390   -0.1240    1.2660 C   0  0  0  0  0  0  0  0  0  0  0  0
    7.5200   -0.9840    2.2000 C   0  0  0  0  0  0  0  0  0  0  0  0
    6.1830   -0.9480    1.8190 O   0  0  0  0  0  0  0  0  0  0  0  0
    5.7030   -1.3700    0.6090 C   0  0  0  0  0  0  0  0  0  0  0  0
    6.4690   -1.8300   -0.2520 O   0  0  0  0  0  0  0  0  0  0  0  0
    4.2610   -1.2800    0.3240 C   0  0  0  0  0  0  0  0  0  0  0  0
    3.6220   -1.6400   -0.7810 N   0  0  0  0  0  0  0  0  0  0  0  0
    2.2610   -1.4020   -0.6830 C   0  0  0  0  0  0  0  0  0  0  0  0
    1.3340   -1.7040   -1.7560 C   0  0  0  0  0  0  0  0  0  0  0  0
    1.8010   -2.2300   -2.8440 O   0  0  0  0  0  0  0  0  0  0  0  0
   -0.0380   -1.4840   -1.7460 N   0  0  0  0  0  0  0  0  0  0  0  0
   -0.8620   -1.8550   -2.9220 C   0  0  0  0  0  0  0  0  0  0  0  0
   -1.9470   -2.7690   -2.4230 C   0  0  0  0  0  0  0  0  0  0  0  0
   -2.7990   -2.0690   -1.3700 C   0  0  0  0  0  0  0  0  0  0  0  0
   -2.2110   -0.7110   -1.0510 C   0  0  1  0  0  0  0  0  0  0  0  0
   -2.9710    0.0120   -0.0220 C   0  0  0  0  0  0  0  0  0  0  0  0
   -2.4620    0.3490    1.0350 O   0  0  0  0  0  0  0  0  0  0  0  0
   -4.4020    0.3620   -0.2320 C   0  0  2  0  0  0  0  0  0  0  0  0
   -4.5920    1.2440   -1.4420 C   0  0  0  0  0  0  0  0  0  0  0  0
   -5.0940    2.5800   -0.9000 C   0  0  1  0  0  0  0  0  0  0  0  0
   -5.8870    3.2880   -1.8600 N   0  0  0  0  0  0  0  0  0  0  0  0
   -5.9060    2.0920    0.2950 C   0  0  0  0  0  0  0  0  0  0  0  0
   -4.9680    1.1210    0.9300 C   0  0  1  0  0  0  0  0  0  0  0  0
   -5.5970    0.2710    1.9090 N   0  0  0  0  0  0  0  0  0  0  0  0
   -6.9210   -0.1330    1.5530 C   0  0  0  0  0  0  0  0  0  0  0  0
   -0.7520   -0.9010   -0.6520 C   0  0  0  0  0  0  0  0  0  0  0  0
    2.1070   -0.8800    0.5350 N   0  0  0  0  0  0  0  0  0  0  0  0
    3.3090   -0.7890    1.1820 C   0  0  0  0  0  0  0  0  0  0  0  0
    3.5550   -0.2640    2.5480 C   0  0  0  0  0  0  0  0  0  0  0  0
  1  2  1  0
  2  3  1  0
  3  4  1  0
  4  5  1  0
  5  6  1  0
  6  7  2  0
  6  8  1  0
  8  9  1  0
  8 30  2  0
  9 10  2  0
 10 11  1  0
 10 29  1  0
 11 12  2  0
 11 13  1  0
 13 14  1  0
 13 28  1  0
 14 15  1  0
 15 16  1  0
 16 17  1  0
 17 18  1  1
 17 28  1  0
 18 19  2  0
 20 18  1  1
 20 21  1  0
 20 25  1  0
 21 22  1  0
 22 23  1  6
 22 24  1  0
 24 25  1  0
 25 26  1  1
 26 27  1  0
 29 30  1  0
 30 31  1  0
M  CHG  2  23   1  26   1
M  END
