
     RDKit          3D

 31 33  0  0  0  0  0  0  0  0999 V2000
   -7.5790    1.6170   -1.1140 C   0  0  0  0  0  0  0  0  0  0  0  0
   -6.2480    2.1040   -0.5680 C   0  0  2  0  0  0  0  0  0  0  0  0
   -5.7660    1.2140    0.3700 O   0  0  0  0  0  0  0  0  0  0  0  0
   -4.5740    0.5330    0.3200 C   0  0  0  0  0  0  0  0  0  0  0  0
   -3.6590    0.6390   -0.6860 C   0  0  0  0  0  0  0  0  0  0  0  0
   -2.4590   -0.0880   -0.6750 C   0  0  0  0  0  0  0  0  0  0  0  0
   -2.1660   -0.9390    0.3620 C   0  0  0  0  0  0  0  0  0  0  0  0
   -0.9110   -1.7190    0.4440 C   0  0  1  0  0  0  0  0  0  0  0  0
    0.1320   -0.9870    1.0710 N   0  0  0  0  0  0  0  0  0  0  0  0
    0.8160   -0.0030    0.3270 C   0  0  0  0  0  0  0  0  0  0  0  0
    2.3280   -0.2630    0.3960 C   0  0  0  0  0  0  0  0  0  0  0  0
    3.0350    0.7150   -0.3440 O   0  0  0  0  0  0  0  0  0  0  0  0
    4.4200    0.6720   -0.4230 C   0  0  0  0  0  0  0  0  0  0  0  0
    5.1830   -0.2930    0.1920 C   0  0  0  0  0  0  0  0  0  0  0  0
    6.5640   -0.3000    0.0880 C   0  0  0  0  0  0  0  0  0  0  0  0
    7.2120    0.6660   -0.6370 C   0  0  0  0  0  0  0  0  0  0  0  0
    8.6860    0.7180   -0.7900 C   0  0  0  0  0  0  0  0  0  0  0  0
    9.2380    1.4830    0.3070 N   0  0  0  0  0  0  0  0  0  0  0  0
    6.4480    1.6260   -1.2470 C   0  0  0  0  0  0  0  0  0  0  0  0
    5.0740    1.6590   -1.1640 C   0  0  0  0  0  0  0  0  0  0  0  0
   -1.2470   -2.9960    1.2330 C   0  0  0  0  0  0  0  0  0  0  0  0
   -2.3270   -3.7980    0.6160 C   0  0  0  0  0  0  0  0  0  0  0  0
   -2.7520   -3.4440   -0.6940 N   0  0  0  0  0  0  0  0  0  0  0  0
   -1.6900   -2.9520   -1.4960 N   0  0  0  0  0  0  0  0  0  0  0  0
   -0.6200   -2.2240   -0.9040 C   0  0  0  0  0  0  0  0  0  0  0  0
    0.4220   -2.0910   -1.5680 O   0  0  0  0  0  0  0  0  0  0  0  0
   -3.0890   -1.0420    1.3710 C   0  0  0  0  0  0  0  0  0  0  0  0
   -4.2840   -0.3220    1.3650 C   0  0  0  0  0  0  0  0  0  0  0  0
   -6.4430    3.4500    0.0430 C   0  0  0  0  0  0  0  0  0  0  0  0
   -6.1390    3.6650    1.4020 N   0  0  0  0  0  0  0  0  0  0  0  0
   -6.8830    4.3770   -0.6880 O   0  0  0  0  0  0  0  0  0  0  0  0
  2  1  1  1
  2  3  1  0
  2 29  1  0
  3  4  1  0
  4  5  2  0
  4 28  1  0
  5  6  1  0
  6  7  2  0
  7  8  1  0
  7 27  1  0
  8  9  1  1
  8 21  1  0
  8 25  1  0
  9 10  1  0
 10 11  1  0
 11 12  1  0
 12 13  1  0
 13 14  2  0
 13 20  1  0
 14 15  1  0
 15 16  2  0
 16 17  1  0
 16 19  1  0
 17 18  1  0
 19 20  2  0
 21 22  1  0
 22 23  1  0
 23 24  1  0
 24 25  1  0
 25 26  2  0
 27 28  2  0
 29 30  1  0
 29 31  2  0
M  CHG  2   9   1  18   1
M  END
