
     RDKit          3D

 31 34  0  0  0  0  0  0  0  0999 V2000
   -2.4140    5.1100   -0.4860 C   0  0  0  0  0  0  0  0  0  0  0  0
   -3.0150    4.0170   -0.8990 C   0  0  0  0  0  0  0  0  0  0  0  0
   -3.2300    2.9260   -0.0380 N   0  0  0  0  0  0  0  0  0  0  0  0
   -3.6550    1.8030   -0.5610 C   0  0  0  0  0  0  0  0  0  0  0  0
   -3.9060    1.6650   -2.0010 C   0  0  0  0  0  0  0  0  0  0  0  0
   -4.4010    0.3130   -2.3390 C   0  0  0  0  0  0  0  0  0  0  0  0
   -5.2940   -0.2860   -1.2770 C   0  0  0  0  0  0  0  0  0  0  0  0
   -4.6330   -0.2940    0.0410 C   0  0  0  0  0  0  0  0  0  0  0  0
   -3.8560    0.7160    0.3570 C   0  0  0  0  0  0  0  0  0  0  0  0
   -3.1470    0.7820    1.6730 C   0  0  0  0  0  0  0  0  0  0  0  0
   -1.7050    0.8390    1.4760 N   0  0  0  0  0  0  0  0  0  0  0  0
   -0.9840    0.9010    2.7040 C   0  0  0  0  0  0  0  0  0  0  0  0
    0.4060    0.9370    2.5480 N   0  0  0  0  0  0  0  0  0  0  0  0
    1.1660    0.9490    3.7800 C   0  0  0  0  0  0  0  0  0  0  0  0
    2.5510    0.4560    3.4920 C   0  0  0  0  0  0  0  0  0  0  0  0
    3.1830    1.0970    2.2870 C   0  0  0  0  0  0  0  0  0  0  0  0
    2.2260    1.2030    1.1200 C   0  0  1  0  0  0  0  0  0  0  0  0
    1.7690   -0.0770    0.6500 N   0  0  0  0  0  0  0  0  0  0  0  0
    2.6320   -0.6080   -0.4050 C   0  0  0  0  0  0  0  0  0  0  0  0
    2.0450   -1.8880   -0.8920 C   0  0  0  0  0  0  0  0  0  0  0  0
    0.8880   -2.4560   -0.4370 N   0  0  0  0  0  0  0  0  0  0  0  0
    0.6410   -3.5900   -1.0830 C   0  0  0  0  0  0  0  0  0  0  0  0
   -0.3370   -4.3790   -0.9240 O   0  0  0  0  0  0  0  0  0  0  0  0
    1.6300   -3.7830   -1.9710 N   0  0  0  0  0  0  0  0  0  0  0  0
    1.8660   -4.7700   -2.8730 C   0  0  0  0  0  0  0  0  0  0  0  0
    2.9640   -4.7760   -3.7050 C   0  0  0  0  0  0  0  0  0  0  0  0
    3.8300   -3.7300   -3.5900 C   0  0  0  0  0  0  0  0  0  0  0  0
    3.6210   -2.6910   -2.6700 C   0  0  0  0  0  0  0  0  0  0  0  0
    4.5640   -1.5710   -2.5510 C   0  0  0  0  0  0  0  0  0  0  0  0
    2.5040   -2.7420   -1.8660 C   0  0  0  0  0  0  0  0  0  0  0  0
    0.9900    1.9220    1.7000 C   0  0  0  0  0  0  0  0  0  0  0  0
  1  2  2  0
  2  3  1  0
  3  4  2  3
  4  5  1  0
  4  9  1  0
  5  6  1  0
  6  7  1  0
  7  8  1  0
  8  9  2  0
  9 10  1  0
 10 11  1  0
 11 12  1  0
 12 13  1  0
 13 14  1  0
 13 31  1  0
 14 15  1  0
 15 16  1  0
 16 17  1  0
 17 18  1  1
 17 31  1  0
 18 19  1  0
 19 20  1  0
 20 21  1  0
 20 30  2  0
 21 22  1  0
 22 23  2  0
 22 24  1  0
 24 25  1  0
 24 30  1  0
 25 26  2  0
 26 27  1  0
 27 28  2  0
 28 29  1  0
 28 30  1  0
M  CHG  1  18   1
M  END
