
     RDKit          3D

 31 33  0  0  0  0  0  0  0  0999 V2000
    6.3150    2.1820    0.7140 C   0  0  0  0  0  0  0  0  0  0  0  0
    5.7120    2.8220   -0.2580 C   0  0  0  0  0  0  0  0  0  0  0  0
    5.2410    2.1830   -1.5020 C   0  0  0  0  0  0  0  0  0  0  0  0
    5.2080    0.6960   -1.4870 C   0  0  0  0  0  0  0  0  0  0  0  0
    4.2620    0.0500   -0.5380 C   0  0  0  0  0  0  0  0  0  0  0  0
    2.8220    0.4060   -0.8700 C   0  0  0  0  0  0  0  0  0  0  0  0
    2.5490    1.1740   -1.8460 N   0  0  0  0  0  0  0  0  0  0  0  0
    1.2460    1.5500   -2.2180 C   0  0  0  0  0  0  0  0  0  0  0  0
    0.1290    1.1400   -1.5810 C   0  0  0  0  0  0  0  0  0  0  0  0
   -1.0980    1.6400   -2.1200 C   0  0  0  0  0  0  0  0  0  0  0  0
   -0.9880    2.3800   -3.2560 O   0  0  0  0  0  0  0  0  0  0  0  0
   -2.4430    1.5380   -1.7310 N   0  0  0  0  0  0  0  0  0  0  0  0
   -3.3530    2.7040   -1.5250 C   0  0  0  0  0  0  0  0  0  0  0  0
   -4.6830    2.2130   -1.9240 C   0  0  0  0  0  0  0  0  0  0  0  0
   -4.4790    0.8450   -2.5060 C   0  0  0  0  0  0  0  0  0  0  0  0
   -3.2940    0.3920   -1.5640 C   0  0  2  0  0  0  0  0  0  0  0  0
   -3.9140    0.0900   -0.2810 C   0  0  0  0  0  0  0  0  0  0  0  0
   -3.6070    0.8970    0.9210 C   0  0  0  0  0  0  0  0  0  0  0  0
   -3.9260    0.0020    2.0920 C   0  0  0  0  0  0  0  0  0  0  0  0
   -3.2630   -1.1120    2.3380 C   0  0  0  0  0  0  0  0  0  0  0  0
   -3.6440   -1.8890    3.4670 N   0  0  0  0  0  0  0  0  0  0  0  0
   -2.1260   -1.6040    1.4970 C   0  0  0  0  0  0  0  0  0  0  0  0
   -1.9920   -3.0920    1.4700 C   0  0  0  0  0  0  0  0  0  0  0  0
   -1.4840   -0.6990    0.9660 N   0  0  0  0  0  0  0  0  0  0  0  0
   -0.5460   -0.2020    0.2310 N   0  0  0  0  0  0  0  0  0  0  0  0
    0.3670    0.2350   -0.4250 C   0  0  0  0  0  0  0  0  0  0  0  0
    1.7540   -0.1150   -0.0960 N   0  0  0  0  0  0  0  0  0  0  0  0
    2.1420   -0.9910    0.9620 C   0  0  0  0  0  0  0  0  0  0  0  0
    1.7900   -2.4350    0.7340 C   0  0  0  0  0  0  0  0  0  0  0  0
    2.2620   -3.1930    1.9350 C   0  0  0  0  0  0  0  0  0  0  0  0
    3.1580   -4.1610    1.8250 C   0  0  0  0  0  0  0  0  0  0  0  0
  1  2  2  0
  2  3  1  0
  3  4  1  0
  4  5  1  0
  5  6  1  0
  6  7  2  0
  6 27  1  0
  7  8  1  0
  8  9  2  0
  9 10  1  0
  9 26  1  0
 10 11  2  0
 10 12  1  0
 12 13  1  0
 12 16  1  0
 13 14  1  0
 14 15  1  0
 16 15  1  6
 16 17  1  0
 17 18  1  0
 18 19  1  0
 19 20  2  0
 20 21  1  0
 20 22  1  0
 22 23  1  0
 22 24  2  0
 24 25  1  0
 25 26  2  0
 26 27  1  0
 27 28  1  0
 28 29  1  0
 29 30  1  0
 30 31  2  0
M  CHG  1  21   1
M  END
