
     RDKit          3D

 31 34  0  0  0  0  0  0  0  0999 V2000
   -1.2610   -0.0410    2.1850 C   0  0  0  0  0  0  0  0  0  0  0  0
   -0.2940    0.7710    1.5000 N   0  0  2  0  0  0  0  0  0  0  0  0
   -0.8420    1.5600    0.4450 C   0  0  0  0  0  0  0  0  0  0  0  0
   -1.6430    0.7910   -0.5460 C   0  0  0  0  0  0  0  0  0  0  0  0
   -1.0080    0.1140   -1.5610 C   0  0  0  0  0  0  0  0  0  0  0  0
   -1.7490   -0.6050   -2.5050 C   0  0  0  0  0  0  0  0  0  0  0  0
   -3.1210   -0.6250   -2.4040 C   0  0  0  0  0  0  0  0  0  0  0  0
   -3.7900    0.0560   -1.3840 C   0  0  0  0  0  0  0  0  0  0  0  0
   -5.2780   -0.0160   -1.3610 C   0  0  0  0  0  0  0  0  0  0  0  0
   -5.7840   -1.1140   -0.5640 N   0  0  0  0  0  0  0  0  0  0  0  0
   -7.2270   -1.1580   -0.7540 C   0  0  0  0  0  0  0  0  0  0  0  0
   -7.6970    0.1040   -0.1020 C   0  0  0  0  0  0  0  0  0  0  0  0
   -6.7700    0.3090    1.0710 C   0  0  0  0  0  0  0  0  0  0  0  0
   -5.7460   -0.7890    0.8710 C   0  0  0  0  0  0  0  0  0  0  0  0
   -3.0300    0.7410   -0.4900 C   0  0  0  0  0  0  0  0  0  0  0  0
    0.8620    0.0520    1.1460 C   0  0  0  0  0  0  0  0  0  0  0  0
    0.9910   -1.2700    1.4650 C   0  0  0  0  0  0  0  0  0  0  0  0
    2.1280   -1.9690    1.1210 C   0  0  0  0  0  0  0  0  0  0  0  0
    3.1350   -1.3190    0.4510 C   0  0  0  0  0  0  0  0  0  0  0  0
    3.0350    0.0080    0.1160 C   0  0  0  0  0  0  0  0  0  0  0  0
    4.0170    0.7190   -0.5190 N   0  0  0  0  0  0  0  0  0  0  0  0
    5.4420    0.4310   -0.2380 C   0  0  0  0  0  0  0  0  0  0  0  0
    5.7260   -0.4050    0.5390 O   0  0  0  0  0  0  0  0  0  0  0  0
    6.2120    1.3120   -1.0470 N   0  0  0  0  0  0  0  0  0  0  0  0
    7.7380    0.7070   -0.5830 C   0  0  0  0  0  0  0  0  0  0  0  0
    7.8050   -0.2270    0.2340 N   0  0  0  0  0  0  0  0  0  0  0  0
    9.0640   -0.7190    0.6030 C   0  0  0  0  0  0  0  0  0  0  0  0
   10.1550   -0.1320    0.0330 C   0  0  0  0  0  0  0  0  0  0  0  0
   10.0320    0.8970   -0.8630 C   0  0  0  0  0  0  0  0  0  0  0  0
    8.7380    1.3100   -1.1620 N   0  0  0  0  0  0  0  0  0  0  0  0
    1.8620    0.6810    0.4850 C   0  0  0  0  0  0  0  0  0  0  0  0
  2  1  1  6
  2  3  1  0
  2 16  1  0
  3  4  1  0
  4  5  2  0
  4 15  1  0
  5  6  1  0
  6  7  2  0
  7  8  1  0
  8  9  1  0
  8 15  2  0
  9 10  1  0
 10 11  1  0
 10 14  1  0
 11 12  1  0
 12 13  1  0
 13 14  1  0
 16 17  2  0
 16 31  1  0
 17 18  1  0
 18 19  2  0
 19 20  1  0
 20 21  1  0
 20 31  2  0
 21 22  1  0
 22 23  2  0
 22 24  1  0
 24 25  1  0
 25 26  2  0
 25 30  1  0
 26 27  1  0
 27 28  2  0
 28 29  1  0
 29 30  2  0
M  CHG  1   2   1
M  END
