
     RDKit          3D

 38 42  0  0  0  0  0  0  0  0999 V2000
    8.3750    0.8600    2.3540 C   0  0  0  0  0  0  0  0  0  0  0  0
    7.1870    0.5160    1.7110 O   0  0  0  0  0  0  0  0  0  0  0  0
    7.1290    0.2060    0.3390 C   0  0  0  0  0  0  0  0  0  0  0  0
    8.3030    0.2490   -0.3750 C   0  0  0  0  0  0  0  0  0  0  0  0
    8.2910   -0.0480   -1.7190 C   0  0  0  0  0  0  0  0  0  0  0  0
    7.1240   -0.3780   -2.3220 C   0  0  0  0  0  0  0  0  0  0  0  0
    5.9380   -0.4140   -1.5660 C   0  0  0  0  0  0  0  0  0  0  0  0
    5.8920   -0.1290   -0.2290 C   0  0  0  0  0  0  0  0  0  0  0  0
    4.7630   -0.1380    0.6050 N   0  0  0  0  0  0  0  0  0  0  0  0
    3.4480   -0.4370    0.1990 C   0  0  0  0  0  0  0  0  0  0  0  0
    3.2040   -0.7240   -0.9760 O   0  0  0  0  0  0  0  0  0  0  0  0
    2.3940   -0.3860    1.2560 C   0  0  0  0  0  0  0  0  0  0  0  0
    1.1160   -0.6720    0.8210 O   0  0  0  0  0  0  0  0  0  0  0  0
    0.3890    0.0160   -0.1500 C   0  0  0  0  0  0  0  0  0  0  0  0
    0.9500    1.0000   -0.6950 O   0  0  0  0  0  0  0  0  0  0  0  0
   -0.9300   -0.4710   -0.4420 C   0  0  0  0  0  0  0  0  0  0  0  0
   -1.0160   -1.5010   -1.4010 C   0  0  0  0  0  0  0  0  0  0  0  0
    0.2170   -2.0320   -2.0450 C   0  0  0  0  0  0  0  0  0  0  0  0
    0.8220   -0.9210   -3.2930 Cl  0  0  0  0  0  0  0  0  0  0  0  0
   -2.2220   -1.9660   -1.7140 N   0  0  0  0  0  0  0  0  0  0  0  0
   -3.3520   -1.5250   -1.1810 C   0  0  0  0  0  0  0  0  0  0  0  0
   -4.6330   -2.0460   -1.5360 N   0  0  0  0  0  0  0  0  0  0  0  0
   -4.8300   -3.1020   -2.5030 C   0  0  0  0  0  0  0  0  0  0  0  0
   -6.1190   -3.7640   -2.1270 C   0  0  0  0  0  0  0  0  0  0  0  0
   -6.7120   -2.9180   -1.0340 C   0  0  0  0  0  0  0  0  0  0  0  0
   -5.9220   -1.6510   -1.0370 C   0  0  0  0  0  0  0  0  0  0  0  0
   -3.2780   -0.5460   -0.2690 N   0  0  0  0  0  0  0  0  0  0  0  0
   -2.0690    0.0100    0.1250 C   0  0  0  0  0  0  0  0  0  0  0  0
   -2.1430    1.1340    1.0390 C   0  0  0  0  0  0  0  0  0  0  0  0
   -1.1280    1.6620    1.7810 C   0  0  0  0  0  0  0  0  0  0  0  0
   -1.2560    2.7930    2.5960 C   0  0  0  0  0  0  0  0  0  0  0  0
   -2.4590    3.4400    2.6830 C   0  0  0  0  0  0  0  0  0  0  0  0
   -3.5030    2.9500    1.9590 C   0  0  0  0  0  0  0  0  0  0  0  0
   -3.3590    1.8270    1.1550 C   0  0  0  0  0  0  0  0  0  0  0  0
   -4.6660    3.8110    2.2190 C   0  0  0  0  0  0  0  0  0  0  0  0
   -5.8490    3.5470    1.9030 O   0  0  0  0  0  0  0  0  0  0  0  0
   -4.1810    5.0280    2.9150 C   0  0  0  0  0  0  0  0  0  0  0  0
   -2.8930    4.6060    3.4230 N   0  0  0  0  0  0  0  0  0  0  0  0
  1  2  1  0
  2  3  1  0
  3  4  2  0
  3  8  1  0
  4  5  1  0
  5  6  2  0
  6  7  1  0
  7  8  2  0
  8  9  1  0
  9 10  1  0
 10 11  2  0
 10 12  1  0
 12 13  1  0
 13 14  1  0
 14 15  2  0
 14 16  1  0
 16 17  2  0
 16 28  1  0
 17 18  1  0
 17 20  1  0
 18 19  1  0
 20 21  2  0
 21 22  1  0
 21 27  1  0
 22 23  1  0
 22 26  1  0
 23 24  1  0
 24 25  1  0
 25 26  1  0
 27 28  2  0
 28 29  1  0
 29 30  2  0
 29 34  1  0
 30 31  1  0
 31 32  2  0
 32 33  1  0
 32 38  1  0
 33 34  2  0
 33 35  1  0
 35 36  2  0
 35 37  1  0
 37 38  1  0
M  CHG  2  20   1  27   1
M  END
