
     RDKit          3D

 38 42  0  0  0  0  0  0  0  0999 V2000
   -9.2810    1.8280    0.6220 C   0  0  0  0  0  0  0  0  0  0  0  0
   -8.2950    2.8240    0.0010 C   0  0  0  0  0  0  0  0  0  0  0  0
   -7.1590    2.0120   -0.4970 C   0  0  0  0  0  0  0  0  0  0  0  0
   -6.1150    1.7580    0.3040 N   0  0  0  0  0  0  0  0  0  0  0  0
   -5.0750    1.0030   -0.1810 C   0  0  0  0  0  0  0  0  0  0  0  0
   -5.1280    0.5280   -1.4680 C   0  0  0  0  0  0  0  0  0  0  0  0
   -6.2230    0.8250   -2.2310 C   0  0  0  0  0  0  0  0  0  0  0  0
   -6.3600    0.4360   -3.4170 O   0  0  0  0  0  0  0  0  0  0  0  0
   -7.2240    1.5620   -1.7360 O   0  0  0  0  0  0  0  0  0  0  0  0
   -4.0180   -0.2740   -1.9860 C   0  0  0  0  0  0  0  0  0  0  0  0
   -2.7540    0.3230   -1.3830 C   0  0  0  0  0  0  0  0  0  0  0  0
   -2.7510    0.2300    0.0430 N   0  0  2  0  0  0  0  0  0  0  0  0
   -2.4130   -1.1150    0.4550 C   0  0  0  0  0  0  0  0  0  0  0  0
   -0.9510   -1.3350    0.3870 C   0  0  0  0  0  0  0  0  0  0  0  0
   -0.0110   -0.4700    0.0140 N   0  0  0  0  0  0  0  0  0  0  0  0
    1.2130   -1.0260    0.0790 C   0  0  0  0  0  0  0  0  0  0  0  0
    2.5140   -0.3550   -0.2640 C   0  0  2  0  0  0  0  0  0  0  0  0
    3.1520   -1.0640   -1.4330 C   0  0  0  0  0  0  0  0  0  0  0  0
    4.3110   -1.9430   -0.9890 C   0  0  0  0  0  0  0  0  0  0  0  0
    5.4040   -0.9770   -0.5120 C   0  0  0  0  0  0  0  0  0  0  0  0
    4.7860   -0.0930    0.4450 N   0  0  0  0  0  0  0  0  0  0  0  0
    5.4610    1.0530    0.9260 C   0  0  0  0  0  0  0  0  0  0  0  0
    4.8850    1.8120    1.7730 O   0  0  0  0  0  0  0  0  0  0  0  0
    6.8130    1.4080    0.4860 C   0  0  0  0  0  0  0  0  0  0  0  0
    7.5590    0.7550   -0.3720 O   0  0  0  0  0  0  0  0  0  0  0  0
    8.7250    1.3600   -0.5360 C   0  0  0  0  0  0  0  0  0  0  0  0
    8.7650    2.4860    0.2600 C   0  0  0  0  0  0  0  0  0  0  0  0
    7.5380    2.5020    0.9050 C   0  0  0  0  0  0  0  0  0  0  0  0
    7.0810    3.5210    1.8800 C   0  0  0  0  0  0  0  0  0  0  0  0
    3.4590   -0.3900    0.9150 C   0  0  0  0  0  0  0  0  0  0  0  0
    1.0130   -2.2640    0.5040 N   0  0  0  0  0  0  0  0  0  0  0  0
   -0.2750   -2.5260    0.7140 C   0  0  0  0  0  0  0  0  0  0  0  0
   -0.9220   -3.7310    1.1700 C   0  0  0  0  0  0  0  0  0  0  0  0
   -0.4250   -4.8790    1.5000 C   0  0  0  0  0  0  0  0  0  0  0  0
    0.9510   -5.2440    1.4890 C   0  0  0  0  0  0  0  0  0  0  0  0
    1.8620   -4.4700    1.1490 O   0  0  0  0  0  0  0  0  0  0  0  0
    1.3810   -6.8940    1.9890 Cl  0  0  0  0  0  0  0  0  0  0  0  0
   -3.9260    0.7170    0.6960 C   0  0  0  0  0  0  0  0  0  0  0  0
  1  2  1  0
  2  3  1  0
  3  4  2  0
  3  9  1  0
  4  5  1  0
  5  6  2  0
  5 38  1  0
  6  7  1  0
  6 10  1  0
  7  8  2  0
  7  9  1  0
 10 11  1  0
 11 12  1  0
 12 13  1  6
 12 38  1  0
 13 14  1  0
 14 15  1  0
 14 32  2  0
 15 16  1  0
 17 16  1  1
 16 31  2  0
 17 18  1  0
 17 30  1  0
 18 19  1  0
 19 20  1  0
 20 21  1  0
 21 22  1  0
 21 30  1  0
 22 23  2  0
 22 24  1  0
 24 25  1  0
 24 28  2  0
 25 26  1  0
 26 27  2  0
 27 28  1  0
 28 29  1  0
 31 32  1  0
 32 33  1  0
 33 34  2  3
 34 35  1  0
 35 36  2  0
 35 37  1  0
M  CHG  2   4   1  12   1
M  END
