
     RDKit          3D

 38 42  0  0  0  0  0  0  0  0999 V2000
    8.4880   -2.3430   -0.5960 C   0  0  0  0  0  0  0  0  0  0  0  0
    8.3420   -0.9400   -0.2180 N   0  0  2  0  0  0  0  0  0  0  0  0
    8.8730   -0.8090    1.1320 C   0  0  0  0  0  0  0  0  0  0  0  0
    8.8300    0.6440    1.5770 C   0  0  0  0  0  0  0  0  0  0  0  0
    7.7650    1.3910    0.7560 C   0  0  0  0  0  0  0  0  0  0  0  0
    6.5970    0.4750    0.6140 C   0  0  1  0  0  0  0  0  0  0  0  0
    5.3400    1.1940    0.2980 C   0  0  0  0  0  0  0  0  0  0  0  0
    5.4300    2.4690    0.3080 O   0  0  0  0  0  0  0  0  0  0  0  0
    4.0980    0.6300   -0.0000 N   0  0  0  0  0  0  0  0  0  0  0  0
    3.7440   -0.7610   -0.0870 C   0  0  0  0  0  0  0  0  0  0  0  0
    2.2050   -0.7560   -0.2180 C   0  0  0  0  0  0  0  0  0  0  0  0
    1.8900    0.5150    0.3550 N   0  0  2  0  0  0  0  0  0  0  0  0
    0.5370    0.9570    0.1640 C   0  0  0  0  0  0  0  0  0  0  0  0
    0.0890    0.8970   -1.2640 C   0  0  0  0  0  0  0  0  0  0  0  0
   -1.2410    1.3400   -1.3870 O   0  0  0  0  0  0  0  0  0  0  0  0
   -1.6730    2.6060   -1.0460 C   0  0  0  0  0  0  0  0  0  0  0  0
   -0.8670    3.4500   -0.5910 O   0  0  0  0  0  0  0  0  0  0  0  0
   -3.1030    3.0490   -1.1940 C   0  0  0  0  0  0  0  0  0  0  0  0
   -3.9180    1.9800   -1.7050 N   0  0  0  0  0  0  0  0  0  0  0  0
   -4.1300    1.7230   -2.9800 N   0  0  0  0  0  0  0  0  0  0  0  0
   -4.9350    0.6520   -3.1050 C   0  0  0  0  0  0  0  0  0  0  0  0
   -5.2370    0.2230   -1.8270 C   0  0  0  0  0  0  0  0  0  0  0  0
   -6.0070   -0.8150   -1.3050 C   0  0  0  0  0  0  0  0  0  0  0  0
   -6.1540   -1.0370    0.0470 C   0  0  0  0  0  0  0  0  0  0  0  0
   -6.9160   -2.0670    0.5680 O   0  0  0  0  0  0  0  0  0  0  0  0
   -8.2890   -1.9230    0.7720 C   0  0  0  0  0  0  0  0  0  0  0  0
   -8.9000   -0.7510    0.3980 C   0  0  0  0  0  0  0  0  0  0  0  0
  -10.2530   -0.5590    0.5770 C   0  0  0  0  0  0  0  0  0  0  0  0
  -11.0150   -1.5500    1.1380 C   0  0  0  0  0  0  0  0  0  0  0  0
  -12.3800   -1.4030    1.3350 O   0  0  0  0  0  0  0  0  0  0  0  0
  -10.4060   -2.7420    1.5220 C   0  0  0  0  0  0  0  0  0  0  0  0
  -11.3480   -4.0250    2.2430 Cl  0  0  0  0  0  0  0  0  0  0  0  0
   -9.0410   -2.9170    1.3340 C   0  0  0  0  0  0  0  0  0  0  0  0
   -5.4820   -0.1540    0.8760 C   0  0  0  0  0  0  0  0  0  0  0  0
   -4.7180    0.8750    0.3920 C   0  0  0  0  0  0  0  0  0  0  0  0
   -4.5790    1.0850   -0.9630 C   0  0  0  0  0  0  0  0  0  0  0  0
    2.8810    1.3670   -0.2820 C   0  0  0  0  0  0  0  0  0  0  0  0
    6.9310   -0.6490   -0.3010 C   0  0  0  0  0  0  0  0  0  0  0  0
  2  1  1  1
  2  3  1  0
  2 38  1  0
  3  4  1  0
  4  5  1  0
  5  6  1  0
  6  7  1  6
  6 38  1  0
  7  8  2  0
  7  9  1  0
  9 10  1  0
  9 37  1  0
 10 11  1  0
 11 12  1  0
 12 13  1  6
 12 37  1  0
 13 14  1  0
 14 15  1  0
 15 16  1  0
 16 17  2  0
 16 18  1  0
 18 19  1  0
 19 20  1  0
 19 36  1  0
 20 21  2  0
 21 22  1  0
 22 23  2  0
 22 36  1  0
 23 24  1  0
 24 25  1  0
 24 34  2  0
 25 26  1  0
 26 27  2  0
 26 33  1  0
 27 28  1  0
 28 29  2  0
 29 30  1  0
 29 31  1  0
 31 32  1  0
 31 33  2  0
 34 35  1  0
 35 36  2  0
M  CHG  2   2   1  12   1
M  END
