
     RDKit          3D

 38 42  0  0  0  0  0  0  0  0999 V2000
    7.6770   -2.2770    0.4000 C   0  0  0  0  0  0  0  0  0  0  0  0
    6.3020   -2.3250   -0.1310 C   0  0  0  0  0  0  0  0  0  0  0  0
    5.8390   -3.4050   -0.8930 C   0  0  0  0  0  0  0  0  0  0  0  0
    4.5620   -3.4630   -1.3980 C   0  0  0  0  0  0  0  0  0  0  0  0
    3.7090   -2.4070   -1.1380 C   0  0  0  0  0  0  0  0  0  0  0  0
    4.1450   -1.3150   -0.3790 C   0  0  0  0  0  0  0  0  0  0  0  0
    3.2510   -0.1910   -0.0870 C   0  0  0  0  0  0  0  0  0  0  0  0
    1.9850   -0.4310   -0.7160 O   0  0  0  0  0  0  0  0  0  0  0  0
    0.9630    0.4970   -0.5720 C   0  0  0  0  0  0  0  0  0  0  0  0
    1.2150    1.5210    0.1300 O   0  0  0  0  0  0  0  0  0  0  0  0
   -0.3800    0.3220   -1.2040 C   0  0  0  0  0  0  0  0  0  0  0  0
   -1.2250    1.3890   -0.8340 O   0  0  0  0  0  0  0  0  0  0  0  0
   -2.5090    1.5760   -1.2680 C   0  0  0  0  0  0  0  0  0  0  0  0
   -3.0130    0.7610   -2.0660 O   0  0  0  0  0  0  0  0  0  0  0  0
   -3.3160    2.7230   -0.8160 C   0  0  0  0  0  0  0  0  0  0  0  0
   -4.5810    2.8440   -1.3960 N   0  0  1  0  0  0  0  0  0  0  0  0
   -4.5280    2.9780   -2.8580 C   0  0  0  0  0  0  0  0  0  0  0  0
   -5.6330    1.9840   -1.0620 C   0  0  0  0  0  0  0  0  0  0  0  0
   -6.8730    2.0800   -1.6870 N   0  0  0  0  0  0  0  0  0  0  0  0
   -7.6620    1.1800   -1.1990 N   0  0  0  0  0  0  0  0  0  0  0  0
   -7.0280    0.4570   -0.2580 C   0  0  0  0  0  0  0  0  0  0  0  0
   -5.7740    0.9740   -0.1910 N   0  0  0  0  0  0  0  0  0  0  0  0
   -5.1040    0.2120    0.8060 C   0  0  0  0  0  0  0  0  0  0  0  0
   -3.9280    0.3620    1.1830 O   0  0  0  0  0  0  0  0  0  0  0  0
   -6.0280   -0.8060    1.3440 C   0  0  0  0  0  0  0  0  0  0  0  0
   -5.8850   -1.7830    2.3030 C   0  0  0  0  0  0  0  0  0  0  0  0
   -6.9360   -2.6340    2.6260 C   0  0  0  0  0  0  0  0  0  0  0  0
   -8.1310   -2.4740    1.9570 C   0  0  0  0  0  0  0  0  0  0  0  0
   -8.2570   -1.4910    0.9990 C   0  0  0  0  0  0  0  0  0  0  0  0
   -7.2100   -0.6420    0.6770 C   0  0  0  0  0  0  0  0  0  0  0  0
    5.4350   -1.2970    0.1090 C   0  0  0  0  0  0  0  0  0  0  0  0
    5.8840   -0.1490    0.8930 C   0  0  0  0  0  0  0  0  0  0  0  0
    6.0000   -0.2120    2.2650 C   0  0  0  0  0  0  0  0  0  0  0  0
    6.4190    0.8970    2.9510 C   0  0  0  0  0  0  0  0  0  0  0  0
    6.7010    2.0110    2.2560 N   0  0  0  0  0  0  0  0  0  0  0  0
    6.6000    2.1130    0.9180 C   0  0  0  0  0  0  0  0  0  0  0  0
    6.9990    3.6370    0.1190 Cl  0  0  0  0  0  0  0  0  0  0  0  0
    6.1870    1.0260    0.2060 C   0  0  0  0  0  0  0  0  0  0  0  0
  1  2  1  0
  2  3  2  0
  2 31  1  0
  3  4  1  0
  4  5  2  0
  5  6  1  0
  6  7  1  0
  6 31  2  0
  7  8  1  0
  8  9  1  0
  9 10  2  0
  9 11  1  0
 11 12  1  0
 12 13  1  0
 13 14  2  0
 13 15  1  0
 15 16  1  0
 16 17  1  6
 16 18  1  0
 18 19  2  0
 18 22  1  0
 19 20  1  0
 20 21  2  0
 21 22  1  0
 21 30  1  0
 22 23  1  0
 23 24  2  0
 23 25  1  0
 25 26  2  0
 25 30  1  0
 26 27  1  0
 27 28  2  0
 28 29  1  0
 29 30  2  0
 31 32  1  0
 32 33  2  0
 32 38  1  0
 33 34  1  0
 34 35  2  0
 35 36  1  0
 36 37  1  0
 36 38  2  0
M  CHG  2  16   1  35   1
M  END
