
     RDKit          3D

 38 42  0  0  0  0  0  0  0  0999 V2000
    8.6480   -2.3040    0.3960 C   0  0  0  0  0  0  0  0  0  0  0  0
    7.3780   -2.7660    0.6310 O   0  0  0  0  0  0  0  0  0  0  0  0
    6.4330   -1.8690    0.0490 C   0  0  2  0  0  0  0  0  0  0  0  0
    5.7390   -1.2370    1.2040 C   0  0  0  0  0  0  0  0  0  0  0  0
    5.6100   -2.5820   -0.9610 C   0  0  0  0  0  0  0  0  0  0  0  0
    4.6870   -1.8220   -1.6350 O   0  0  0  0  0  0  0  0  0  0  0  0
    3.5470   -1.1930   -1.2700 C   0  0  0  0  0  0  0  0  0  0  0  0
    3.1680   -1.2790   -0.0870 O   0  0  0  0  0  0  0  0  0  0  0  0
    2.7100   -0.3940   -2.2100 C   0  0  0  0  0  0  0  0  0  0  0  0
    1.5440    0.1580   -1.5060 N   0  0  0  0  0  0  0  0  0  0  0  0
    0.4050   -0.4530   -1.4060 C   0  0  0  0  0  0  0  0  0  0  0  0
    0.2440   -1.5940   -1.9300 O   0  0  0  0  0  0  0  0  0  0  0  0
   -0.7240    0.0940   -0.7180 C   0  0  0  0  0  0  0  0  0  0  0  0
   -1.8810   -0.7490   -0.7290 C   0  0  0  0  0  0  0  0  0  0  0  0
   -3.1300   -0.6320   -0.2020 N   0  0  2  0  0  0  0  0  0  0  0  0
   -3.2880   -1.0940    1.2000 C   0  0  0  0  0  0  0  0  0  0  0  0
   -4.6940   -0.7150    1.6030 C   0  0  0  0  0  0  0  0  0  0  0  0
   -5.6800   -1.4360    0.8220 N   0  0  0  0  0  0  0  0  0  0  0  0
   -5.9190   -2.7590    1.3250 C   0  0  0  0  0  0  0  0  0  0  0  0
   -6.5890   -3.4370    0.2510 N   0  0  0  0  0  0  0  0  0  0  0  0
   -6.0970   -2.8470   -0.9620 C   0  0  0  0  0  0  0  0  0  0  0  0
   -5.3710   -1.5570   -0.5650 C   0  0  1  0  0  0  0  0  0  0  0  0
   -5.9860   -0.4590   -1.4060 C   0  0  0  0  0  0  0  0  0  0  0  0
   -3.9400   -1.7440   -0.9090 C   0  0  0  0  0  0  0  0  0  0  0  0
   -0.5340    1.3190   -0.1610 C   0  0  0  0  0  0  0  0  0  0  0  0
   -1.5890    1.9310    0.5280 C   0  0  0  0  0  0  0  0  0  0  0  0
   -1.3820    3.1610    1.0780 C   0  0  0  0  0  0  0  0  0  0  0  0
   -0.1730    3.7700    0.9520 C   0  0  0  0  0  0  0  0  0  0  0  0
   -0.0260    5.0120    1.5290 C   0  0  0  0  0  0  0  0  0  0  0  0
    1.1680    5.6790    1.4380 C   0  0  0  0  0  0  0  0  0  0  0  0
    1.2860    7.2550    2.1950 Cl  0  0  0  0  0  0  0  0  0  0  0  0
    2.2130    5.0910    0.7640 C   0  0  0  0  0  0  0  0  0  0  0  0
    3.4860    5.8260    0.6790 C   0  0  0  0  0  0  0  0  0  0  0  0
    2.0820    3.8290    0.1700 C   0  0  0  0  0  0  0  0  0  0  0  0
    0.8820    3.1860    0.2750 C   0  0  0  0  0  0  0  0  0  0  0  0
    0.6860    1.9550   -0.2790 N   0  0  0  0  0  0  0  0  0  0  0  0
    1.7010    1.3900   -0.9340 C   0  0  0  0  0  0  0  0  0  0  0  0
    2.8300    1.9010   -1.0820 O   0  0  0  0  0  0  0  0  0  0  0  0
  1  2  1  0
  2  3  1  0
  3  4  1  1
  3  5  1  0
  5  6  1  0
  6  7  1  0
  7  8  2  0
  7  9  1  0
  9 10  1  0
 10 11  1  0
 10 37  1  0
 11 12  2  0
 11 13  1  0
 13 14  1  0
 13 25  2  0
 15 14  1  6
 15 16  1  0
 15 24  1  0
 16 17  1  0
 17 18  1  0
 18 19  1  0
 18 22  1  0
 19 20  1  0
 20 21  1  0
 21 22  1  0
 22 23  1  6
 22 24  1  0
 25 26  1  0
 25 36  1  0
 26 27  2  0
 27 28  1  0
 28 29  2  0
 28 35  1  0
 29 30  1  0
 30 31  1  0
 30 32  2  0
 32 33  1  0
 32 34  1  0
 34 35  2  0
 35 36  1  0
 36 37  1  0
 37 38  2  0
M  CHG  2  15   1  20   1
M  END
