
     RDKit          3D

 40 43  0  0  0  0  0  0  0  0999 V2000
    6.7300   -3.4280    2.6450 C   0  0  0  0  0  0  0  0  0  0  0  0
    5.2660   -3.5340    2.4470 C   0  0  0  0  0  0  0  0  0  0  0  0
    4.7640   -3.2610    1.0520 C   0  0  2  0  0  0  0  0  0  0  0  0
    5.3030   -4.1830    0.0050 C   0  0  0  0  0  0  0  0  0  0  0  0
    7.0870   -4.1660   -0.1680 S   0  0  0  0  0  0  0  0  0  0  0  0
    7.7390   -2.6180   -0.7920 C   0  0  0  0  0  0  0  0  0  0  0  0
    4.8280   -1.8740    0.6660 N   0  0  0  0  0  0  0  0  0  0  0  0
    3.7000   -0.9680    0.7410 C   0  0  0  0  0  0  0  0  0  0  0  0
    2.6450   -1.4580    1.1790 O   0  0  0  0  0  0  0  0  0  0  0  0
    3.8890    0.4510    0.2970 C   0  0  0  0  0  0  0  0  0  0  0  0
    2.6760    1.2490    0.5890 C   0  0  0  0  0  0  0  0  0  0  0  0
    1.3850    0.9320    0.0020 C   0  0  0  0  0  0  0  0  0  0  0  0
    1.0930    1.0060   -1.3450 O   0  0  0  0  0  0  0  0  0  0  0  0
    1.0950    2.0860   -2.1810 C   0  0  0  0  0  0  0  0  0  0  0  0
    2.2600    2.3650   -2.9060 C   0  0  0  0  0  0  0  0  0  0  0  0
    3.3950    1.5890   -2.8400 O   0  0  0  0  0  0  0  0  0  0  0  0
    4.5400    1.8830   -3.5880 C   0  0  0  0  0  0  0  0  0  0  0  0
    2.3300    3.4590   -3.7550 C   0  0  0  0  0  0  0  0  0  0  0  0
    1.2400    4.2760   -3.8830 C   0  0  0  0  0  0  0  0  0  0  0  0
    0.1280    3.9730   -3.1700 C   0  0  0  0  0  0  0  0  0  0  0  0
   -0.0170    2.8890   -2.2990 C   0  0  0  0  0  0  0  0  0  0  0  0
   -1.3220    2.6280   -1.7300 C   0  0  0  0  0  0  0  0  0  0  0  0
   -2.2020    3.5820   -1.9070 O   0  0  0  0  0  0  0  0  0  0  0  0
   -1.8030    1.5420   -1.0180 N   0  0  0  0  0  0  0  0  0  0  0  0
   -3.1300    1.4160   -0.4670 C   0  0  0  0  0  0  0  0  0  0  0  0
   -3.3920    0.2500    0.2120 N   0  0  0  0  0  0  0  0  0  0  0  0
   -4.5960    0.0340    0.7790 C   0  0  0  0  0  0  0  0  0  0  0  0
   -4.8910   -1.1220    1.4850 C   0  0  0  0  0  0  0  0  0  0  0  0
   -6.1310   -1.3270    2.0780 C   0  0  0  0  0  0  0  0  0  0  0  0
   -7.1070   -0.3610    1.9680 C   0  0  0  0  0  0  0  0  0  0  0  0
   -8.4440   -0.5360    2.6130 C   0  0  1  0  0  0  0  0  0  0  0  0
   -9.5380    0.4050    2.3740 C   0  0  0  0  0  0  0  0  0  0  0  0
   -9.6130   -0.9450    1.7280 C   0  0  1  0  0  0  0  0  0  0  0  0
   -9.2000   -1.1930    0.0200 S   0  0  0  0  0  0  0  0  0  0  0  0
  -10.2570   -2.0240   -0.7330 O   0  0  0  0  0  0  0  0  0  0  0  0
   -6.8570    0.7970    1.2780 C   0  0  0  0  0  0  0  0  0  0  0  0
   -5.6070    0.9640    0.7020 C   0  0  0  0  0  0  0  0  0  0  0  0
   -5.3310    2.1200    0.0210 C   0  0  0  0  0  0  0  0  0  0  0  0
   -6.2290    2.9930   -0.0700 O   0  0  0  0  0  0  0  0  0  0  0  0
   -4.1020    2.3000   -0.5370 N   0  0  0  0  0  0  0  0  0  0  0  0
  1  2  1  0
  3  2  1  1
  3  4  1  0
  3  7  1  0
  4  5  1  0
  5  6  1  0
  7  8  1  0
  8  9  2  0
  8 10  1  0
 10 11  1  0
 11 12  1  0
 12 13  1  0
 13 14  1  0
 14 15  2  0
 14 21  1  0
 15 16  1  0
 15 18  1  0
 16 17  1  0
 18 19  2  0
 19 20  1  0
 20 21  2  0
 21 22  1  0
 22 23  2  0
 22 24  1  0
 24 25  1  0
 25 26  2  0
 25 40  1  0
 26 27  1  0
 27 28  2  0
 27 37  1  0
 28 29  1  0
 29 30  2  0
 31 30  1  6
 30 36  1  0
 31 32  1  0
 31 33  1  0
 32 33  1  0
 33 34  1  6
 34 35  2  0
 36 37  2  0
 37 38  1  0
 38 39  2  0
 38 40  1  0
M  END
