
     RDKit          3D

 40 43  0  0  0  0  0  0  0  0999 V2000
    8.9890    2.5460    1.7100 C   0  0  0  0  0  0  0  0  0  0  0  0
    9.5520    1.7710    0.7150 O   0  0  0  0  0  0  0  0  0  0  0  0
    8.8780    0.8700   -0.0700 C   0  0  0  0  0  0  0  0  0  0  0  0
    9.5340    0.1240   -1.0280 C   0  0  0  0  0  0  0  0  0  0  0  0
    8.8890   -0.7970   -1.8420 C   0  0  0  0  0  0  0  0  0  0  0  0
    7.5480   -0.9790   -1.6930 C   0  0  0  0  0  0  0  0  0  0  0  0
    6.8280   -1.8790   -2.4620 O   0  0  0  0  0  0  0  0  0  0  0  0
    7.4330   -2.6650   -3.4260 C   0  0  0  0  0  0  0  0  0  0  0  0
    6.8120   -0.2590   -0.7430 C   0  0  0  0  0  0  0  0  0  0  0  0
    5.4030   -0.3530   -0.6730 N   0  0  0  0  0  0  0  0  0  0  0  0
    4.6580    0.0430    0.4920 C   0  0  0  0  0  0  0  0  0  0  0  0
    5.2790    0.4210    1.4880 O   0  0  0  0  0  0  0  0  0  0  0  0
    3.2680    0.0160    0.5200 N   0  0  0  0  0  0  0  0  0  0  0  0
    2.3830    0.4140    1.6060 C   0  0  0  0  0  0  0  0  0  0  0  0
    2.5670    1.3600    2.5440 C   0  0  0  0  0  0  0  0  0  0  0  0
    3.7710    2.2920    2.6860 C   0  0  0  0  0  0  0  0  0  0  0  0
    1.5550    1.5670    3.4790 C   0  0  0  0  0  0  0  0  0  0  0  0
    0.3140    0.3890    2.9930 S   0  0  0  0  0  0  0  0  0  0  0  0
    1.1710   -0.2860    1.6480 C   0  0  0  0  0  0  0  0  0  0  0  0
    0.6920   -1.4380    0.8600 C   0  0  1  0  0  0  0  0  0  0  0  0
    1.0150   -2.6560    1.4260 O   0  0  0  0  0  0  0  0  0  0  0  0
   -0.8480   -1.2620    0.8770 C   0  0  0  0  0  0  0  0  0  0  0  0
   -1.0180    0.0830    0.1150 C   0  0  0  0  0  0  0  0  0  0  0  0
   -2.4250    0.4730    0.0770 C   0  0  0  0  0  0  0  0  0  0  0  0
   -3.4200   -0.2100   -0.5500 N   0  0  0  0  0  0  0  0  0  0  0  0
   -4.6080    0.4710   -0.3640 C   0  0  0  0  0  0  0  0  0  0  0  0
   -5.8360   -0.2010   -0.9260 C   0  0  1  0  0  0  0  0  0  0  0  0
   -5.5010   -0.5390   -2.3250 C   0  0  0  0  0  0  0  0  0  0  0  0
   -6.4580   -1.3240   -3.1370 C   0  0  0  0  0  0  0  0  0  0  0  0
   -6.5820   -2.9930   -2.4870 S   0  0  0  0  0  0  0  0  0  0  0  0
   -7.8900   -3.4210   -1.9880 O   0  0  0  0  0  0  0  0  0  0  0  0
   -6.1800   -1.2800    0.0210 C   0  0  0  0  0  0  0  0  0  0  0  0
   -6.1290   -0.6530    1.4340 C   0  0  0  0  0  0  0  0  0  0  0  0
   -7.0020    0.5530    1.5520 C   0  0  0  0  0  0  0  0  0  0  0  0
   -7.7590    0.8870    0.3090 C   0  0  1  0  0  0  0  0  0  0  0  0
   -8.3070    2.2960    0.4470 C   0  0  0  0  0  0  0  0  0  0  0  0
   -6.9510    0.8290   -0.9480 C   0  0  0  0  0  0  0  0  0  0  0  0
   -4.3010    1.5080    0.3370 N   0  0  0  0  0  0  0  0  0  0  0  0
   -2.9930    1.5230    0.6140 O   0  0  0  0  0  0  0  0  0  0  0  0
    7.5160    0.6390    0.0310 C   0  0  0  0  0  0  0  0  0  0  0  0
  1  2  1  0
  2  3  1  0
  3  4  2  0
  3 40  1  0
  4  5  1  0
  5  6  2  0
  6  7  1  0
  6  9  1  0
  7  8  1  0
  9 10  1  0
  9 40  2  0
 10 11  1  0
 11 12  2  0
 11 13  1  0
 13 14  1  0
 14 15  1  0
 14 19  2  0
 15 16  1  0
 15 17  2  0
 17 18  1  0
 18 19  1  0
 19 20  1  0
 20 21  1  1
 20 22  1  0
 22 23  1  0
 23 24  1  0
 24 25  2  0
 24 39  1  0
 25 26  1  0
 26 27  1  0
 26 38  2  0
 27 28  1  6
 27 32  1  0
 27 37  1  0
 28 29  1  0
 29 30  1  0
 30 31  2  0
 32 33  1  0
 33 34  1  0
 34 35  1  0
 35 36  1  1
 35 37  1  0
 38 39  1  0
M  END
