
     RDKit          3D

 40 43  0  0  0  0  0  0  0  0999 V2000
   -8.4440    3.8430   -0.6040 C   0  0  0  0  0  0  0  0  0  0  0  0
   -8.3680    2.9330    0.5780 C   0  0  0  0  0  0  0  0  0  0  0  0
   -8.3530    1.4530    0.1730 C   0  0  2  0  0  0  0  0  0  0  0  0
   -8.2770    0.6590    1.4310 C   0  0  0  0  0  0  0  0  0  0  0  0
   -7.0240   -0.1080    1.6540 C   0  0  0  0  0  0  0  0  0  0  0  0
   -5.8860    0.2730    0.7850 C   0  0  0  0  0  0  0  0  0  0  0  0
   -6.0300    0.8990   -0.3680 C   0  0  0  0  0  0  0  0  0  0  0  0
   -4.9300    1.2900   -1.2540 C   0  0  0  0  0  0  0  0  0  0  0  0
   -3.6270    0.9350   -0.7640 N   0  0  0  0  0  0  0  0  0  0  0  0
   -3.2540   -0.2670   -0.8360 C   0  0  0  0  0  0  0  0  0  0  0  0
   -4.2220   -1.6040   -1.5080 S   0  0  0  0  0  0  0  0  0  0  0  0
   -3.0210   -2.8660   -1.2400 C   0  0  0  0  0  0  0  0  0  0  0  0
   -3.0460   -4.2240   -1.5230 C   0  0  0  0  0  0  0  0  0  0  0  0
   -1.9540   -4.9950   -1.2180 C   0  0  0  0  0  0  0  0  0  0  0  0
   -0.8830   -4.3830   -0.6450 C   0  0  0  0  0  0  0  0  0  0  0  0
   -0.8900   -3.0400   -0.3790 C   0  0  0  0  0  0  0  0  0  0  0  0
   -1.9830   -2.1790   -0.6640 C   0  0  0  0  0  0  0  0  0  0  0  0
   -2.0970   -0.8860   -0.4610 N   0  0  0  0  0  0  0  0  0  0  0  0
   -1.1090   -0.0450    0.1690 C   0  0  0  0  0  0  0  0  0  0  0  0
   -1.4210    1.2180    0.2010 O   0  0  0  0  0  0  0  0  0  0  0  0
    0.1550   -0.3200    0.7750 C   0  0  0  0  0  0  0  0  0  0  0  0
    1.4000   -0.1010    0.0040 C   0  0  2  0  0  0  0  0  0  0  0  0
    1.6010   -0.8160   -1.2340 C   0  0  0  0  0  0  0  0  0  0  0  0
    0.8690   -0.7870   -2.2540 O   0  0  0  0  0  0  0  0  0  0  0  0
    2.7880   -1.5860   -1.1290 N   0  0  0  0  0  0  0  0  0  0  0  0
    3.4150   -2.3510   -2.1860 C   0  0  0  0  0  0  0  0  0  0  0  0
    3.3120   -1.5150    0.1940 C   0  0  0  0  0  0  0  0  0  0  0  0
    4.2430   -2.2010    0.7010 O   0  0  0  0  0  0  0  0  0  0  0  0
    2.5750   -0.4830    0.9090 C   0  0  1  0  0  0  0  0  0  0  0  0
    3.3500    0.7060    1.3540 C   0  0  0  0  0  0  0  0  0  0  0  0
    4.0870    1.6960    0.0700 S   0  0  0  0  0  0  0  0  0  0  0  0
    5.4280    0.9070   -0.8070 C   0  0  0  0  0  0  0  0  0  0  0  0
    6.6680    0.6840    0.0290 C   0  0  2  0  0  0  0  0  0  0  0  0
    6.4520   -0.1130    1.1390 O   0  0  0  0  0  0  0  0  0  0  0  0
    7.3090    1.9920    0.4360 C   0  0  0  0  0  0  0  0  0  0  0  0
    8.5830    1.8190    1.0890 N   0  0  0  0  0  0  0  0  0  0  0  0
    9.6820    1.1910    0.4460 C   0  0  0  0  0  0  0  0  0  0  0  0
   10.9490    1.0500    1.1790 C   0  0  0  0  0  0  0  0  0  0  0  0
    9.6140    0.7520   -0.7200 O   0  0  0  0  0  0  0  0  0  0  0  0
   -7.3250    1.2010   -0.7570 O   0  0  0  0  0  0  0  0  0  0  0  0
  1  2  1  0
  3  2  1  1
  3  4  1  0
  3 40  1  0
  4  5  1  0
  5  6  1  0
  6  7  2  0
  7  8  1  0
  7 40  1  0
  8  9  1  0
  9 10  2  3
 10 11  1  0
 10 18  1  0
 11 12  1  0
 12 13  2  0
 12 17  1  0
 13 14  1  0
 14 15  2  0
 15 16  1  0
 16 17  2  0
 17 18  1  0
 18 19  1  0
 19 20  2  0
 19 21  1  0
 22 21  1  1
 22 23  1  0
 22 29  1  0
 23 24  2  0
 23 25  1  0
 25 26  1  0
 25 27  1  0
 27 28  2  0
 27 29  1  0
 29 30  1  6
 30 31  1  0
 31 32  1  0
 32 33  1  0
 33 34  1  1
 33 35  1  0
 35 36  1  0
 36 37  1  0
 37 38  1  0
 37 39  2  0
M  END
