
     RDKit          3D

 40 42  0  0  0  0  0  0  0  0999 V2000
   -7.8450    1.4940   -2.2660 N   0  0  0  0  0  0  0  0  0  0  0  0
   -6.5070    1.6250   -1.8670 C   0  0  0  0  0  0  0  0  0  0  0  0
   -5.6740    1.9700   -2.7770 O   0  0  0  0  0  0  0  0  0  0  0  0
   -6.0060    1.3960   -0.5010 C   0  0  2  0  0  0  0  0  0  0  0  0
   -6.6210    2.2830    0.5250 C   0  0  0  0  0  0  0  0  0  0  0  0
   -8.1050    2.0700    0.6000 C   0  0  0  0  0  0  0  0  0  0  0  0
   -8.6700    2.9470    1.6680 C   0  0  0  0  0  0  0  0  0  0  0  0
   -7.9370    3.7150    2.3140 O   0  0  0  0  0  0  0  0  0  0  0  0
  -10.0150    2.9100    1.9470 O   0  0  0  0  0  0  0  0  0  0  0  0
   -4.5420    1.5140   -0.4880 N   0  0  0  0  0  0  0  0  0  0  0  0
   -3.7570    0.3710   -0.6000 C   0  0  0  0  0  0  0  0  0  0  0  0
   -4.3900   -0.7470   -0.7360 O   0  0  0  0  0  0  0  0  0  0  0  0
   -2.3080    0.2560   -0.5940 C   0  0  2  0  0  0  0  0  0  0  0  0
   -1.4890    1.4550   -0.3360 C   0  0  0  0  0  0  0  0  0  0  0  0
   -1.6870    2.0210    1.0180 C   0  0  0  0  0  0  0  0  0  0  0  0
   -1.2770    1.1260    2.1460 C   0  0  0  0  0  0  0  0  0  0  0  0
   -0.7070    0.0290    2.0390 O   0  0  0  0  0  0  0  0  0  0  0  0
   -1.5670    1.5720    3.4250 O   0  0  0  0  0  0  0  0  0  0  0  0
   -1.8660   -0.5530   -1.7050 N   0  0  0  0  0  0  0  0  0  0  0  0
   -1.1300   -1.7470   -1.4750 C   0  0  0  0  0  0  0  0  0  0  0  0
   -0.8800   -2.0920   -0.2960 O   0  0  0  0  0  0  0  0  0  0  0  0
   -0.6550   -2.5680   -2.5890 C   0  0  0  0  0  0  0  0  0  0  0  0
    0.2240   -3.6720   -2.1780 C   0  0  0  0  0  0  0  0  0  0  0  0
    1.4490   -3.2570   -1.4390 C   0  0  0  0  0  0  0  0  0  0  0  0
    2.5130   -2.6460   -2.0780 C   0  0  0  0  0  0  0  0  0  0  0  0
    3.6780   -2.2870   -1.3790 C   0  0  0  0  0  0  0  0  0  0  0  0
    3.7930   -2.5320   -0.0400 C   0  0  0  0  0  0  0  0  0  0  0  0
    5.0000   -2.1140    0.7500 C   0  0  0  0  0  0  0  0  0  0  0  0
    6.0160   -1.3570    0.3430 C   0  0  0  0  0  0  0  0  0  0  0  0
    7.0080   -1.0400    1.2010 C   0  0  0  0  0  0  0  0  0  0  0  0
    8.1650   -0.1550    0.8230 C   0  0  0  0  0  0  0  0  0  0  0  0
    8.0010    0.8770   -0.0800 C   0  0  0  0  0  0  0  0  0  0  0  0
    9.0600    1.6960   -0.4150 C   0  0  0  0  0  0  0  0  0  0  0  0
   10.3040    1.5220    0.1260 C   0  0  0  0  0  0  0  0  0  0  0  0
   10.4820    0.4780    1.0420 C   0  0  0  0  0  0  0  0  0  0  0  0
    9.4100   -0.3300    1.3640 C   0  0  0  0  0  0  0  0  0  0  0  0
    6.9010   -1.5380    2.4840 C   0  0  0  0  0  0  0  0  0  0  0  0
    5.3260   -2.4690    2.3930 S   0  0  0  0  0  0  0  0  0  0  0  0
    2.7450   -3.1390    0.6130 C   0  0  0  0  0  0  0  0  0  0  0  0
    1.5920   -3.4940   -0.0910 C   0  0  0  0  0  0  0  0  0  0  0  0
  1  2  1  0
  2  3  2  0
  2  4  1  0
  4  5  1  1
  4 10  1  0
  5  6  1  0
  6  7  1  0
  7  8  2  0
  7  9  1  0
 10 11  1  0
 11 12  2  0
 11 13  1  0
 13 14  1  6
 13 19  1  0
 14 15  1  0
 15 16  1  0
 16 17  2  0
 16 18  1  0
 19 20  1  0
 20 21  2  0
 20 22  1  0
 22 23  1  0
 23 24  1  0
 24 25  2  0
 24 40  1  0
 25 26  1  0
 26 27  2  0
 27 28  1  0
 27 39  1  0
 28 29  2  0
 28 38  1  0
 29 30  1  0
 30 31  1  0
 30 37  2  0
 31 32  2  0
 31 36  1  0
 32 33  1  0
 33 34  2  0
 34 35  1  0
 35 36  2  0
 37 38  1  0
 39 40  2  0
M  END
