
     RDKit          3D

 40 43  0  0  0  0  0  0  0  0999 V2000
   -3.2500   -3.5230   -0.6830 C   0  0  0  0  0  0  0  0  0  0  0  0
   -3.4520   -4.2260    0.6300 C   0  0  0  0  0  0  0  0  0  0  0  0
   -4.7700   -3.5840    1.6090 S   0  0  1  0  0  0  0  0  0  0  0  0
   -6.0770   -3.8120    0.8790 O   0  0  0  0  0  0  0  0  0  0  0  0
   -4.8610   -4.5030    2.8310 O   0  0  0  0  0  0  0  0  0  0  0  0
   -4.5160   -1.9900    2.0400 N   0  0  0  0  0  0  0  0  0  0  0  0
   -4.4130   -0.9900    1.0540 C   0  0  0  0  0  0  0  0  0  0  0  0
   -4.1970    0.3230    1.7420 C   0  0  0  0  0  0  0  0  0  0  0  0
   -4.0650    1.4800    0.8750 N   0  0  0  0  0  0  0  0  0  0  0  0
   -2.7360    1.7590    0.4810 C   0  0  0  0  0  0  0  0  0  0  0  0
   -2.4810    2.7310   -0.2620 O   0  0  0  0  0  0  0  0  0  0  0  0
   -1.5930    0.9320    0.9180 C   0  0  0  0  0  0  0  0  0  0  0  0
   -0.2870    1.4460    0.3270 C   0  0  0  0  0  0  0  0  0  0  0  0
    0.8240    0.6770    0.7180 O   0  0  0  0  0  0  0  0  0  0  0  0
    2.0630    1.0700    0.2320 C   0  0  0  0  0  0  0  0  0  0  0  0
    2.2500    2.1550   -0.5940 C   0  0  0  0  0  0  0  0  0  0  0  0
    3.5280    2.4970   -1.0500 C   0  0  0  0  0  0  0  0  0  0  0  0
    4.6090    1.7430   -0.6690 C   0  0  0  0  0  0  0  0  0  0  0  0
    4.4670    0.6490    0.1560 C   0  0  0  0  0  0  0  0  0  0  0  0
    5.5250   -0.1480    0.5900 N   0  0  0  0  0  0  0  0  0  0  0  0
    6.4290   -0.8970   -0.1500 C   0  0  0  0  0  0  0  0  0  0  0  0
    7.5110   -1.4390    0.5330 N   0  0  0  0  0  0  0  0  0  0  0  0
    8.4300   -2.1920   -0.0550 C   0  0  0  0  0  0  0  0  0  0  0  0
    9.5940   -2.7710    0.6980 C   0  0  1  0  0  0  0  0  0  0  0  0
   10.2530   -3.9960    0.2040 C   0  0  0  0  0  0  0  0  0  0  0  0
   10.9430   -2.6540    0.0300 C   0  0  0  0  0  0  0  0  0  0  0  0
    8.3130   -2.4490   -1.3950 C   0  0  0  0  0  0  0  0  0  0  0  0
    7.2620   -1.9360   -2.1060 C   0  0  0  0  0  0  0  0  0  0  0  0
    7.1530   -2.1730   -3.3400 O   0  0  0  0  0  0  0  0  0  0  0  0
    6.3440   -1.1670   -1.4440 N   0  0  0  0  0  0  0  0  0  0  0  0
    5.2370   -0.7140   -2.2600 C   0  0  0  0  0  0  0  0  0  0  0  0
    3.1670    0.3400    0.5910 C   0  0  0  0  0  0  0  0  0  0  0  0
   -5.1820    2.2610    0.4900 C   0  0  1  0  0  0  0  0  0  0  0  0
   -5.2420    3.6570    1.0660 C   0  0  0  0  0  0  0  0  0  0  0  0
   -6.5020    4.2000    0.4250 C   0  0  0  0  0  0  0  0  0  0  0  0
   -6.9480    3.1510   -0.6090 C   0  0  0  0  0  0  0  0  0  0  0  0
   -5.5780    2.4470   -0.8990 C   0  0  1  0  0  0  0  0  0  0  0  0
   -4.8900    3.4940   -1.7270 C   0  0  0  0  0  0  0  0  0  0  0  0
   -5.9320    1.2310   -1.6970 C   0  0  0  0  0  0  0  0  0  0  0  0
   -4.9000    0.3400   -1.8030 O   0  0  0  0  0  0  0  0  0  0  0  0
  1  2  1  0
  3  2  1  6
  3  4  2  0
  3  5  2  0
  3  6  1  0
  6  7  1  0
  7  8  1  0
  8  9  1  0
  9 10  1  0
 33  9  1  6
 10 11  2  0
 10 12  1  0
 12 13  1  0
 13 14  1  0
 14 15  1  0
 15 16  2  0
 15 32  1  0
 16 17  1  0
 17 18  2  0
 18 19  1  0
 19 20  1  0
 19 32  2  0
 20 21  1  0
 21 22  2  0
 21 30  1  0
 22 23  1  0
 24 23  1  6
 23 27  2  0
 24 25  1  0
 24 26  1  0
 25 26  1  0
 27 28  1  0
 28 29  2  0
 28 30  1  0
 30 31  1  0
 33 34  1  0
 33 37  1  0
 34 35  1  0
 35 36  1  0
 36 37  1  0
 37 38  1  6
 37 39  1  0
 39 40  1  0
M  END
