
     RDKit          3D

 40 43  0  0  0  0  0  0  0  0999 V2000
   10.3940    2.1790   -1.0810 C   0  0  0  0  0  0  0  0  0  0  0  0
   10.2330    0.9670   -0.6490 O   0  0  0  0  0  0  0  0  0  0  0  0
   10.1110   -0.2560   -0.2530 C   0  0  0  0  0  0  0  0  0  0  0  0
    9.1410   -0.5710    0.7190 C   0  0  0  0  0  0  0  0  0  0  0  0
    8.9730   -1.8300    1.1660 C   0  0  0  0  0  0  0  0  0  0  0  0
    7.9420   -2.1300    2.2040 C   0  0  0  0  0  0  0  0  0  0  0  0
    6.6960   -1.4200    1.8850 N   0  0  0  0  0  0  0  0  0  0  0  0
    5.8310   -1.9030    0.8940 C   0  0  0  0  0  0  0  0  0  0  0  0
    6.1580   -2.9670    0.2940 O   0  0  0  0  0  0  0  0  0  0  0  0
    4.5750   -1.2390    0.5260 C   0  0  0  0  0  0  0  0  0  0  0  0
    3.6200   -1.9740   -0.1980 C   0  0  0  0  0  0  0  0  0  0  0  0
    2.4390   -1.3550   -0.5080 C   0  0  0  0  0  0  0  0  0  0  0  0
    2.1440   -0.0760   -0.1540 C   0  0  0  0  0  0  0  0  0  0  0  0
    0.8870    0.5820   -0.4620 C   0  0  0  0  0  0  0  0  0  0  0  0
    0.4070    1.8350   -0.2100 C   0  0  0  0  0  0  0  0  0  0  0  0
   -0.8180    2.1420   -0.6230 C   0  0  0  0  0  0  0  0  0  0  0  0
   -1.5610    1.2390   -1.2720 C   0  0  0  0  0  0  0  0  0  0  0  0
   -2.9240    1.2680   -1.8340 C   0  0  0  0  0  0  0  0  0  0  0  0
   -3.9620    0.9090   -0.8730 C   0  0  0  0  0  0  0  0  0  0  0  0
   -3.5380    0.6020    0.2970 O   0  0  0  0  0  0  0  0  0  0  0  0
   -5.3410    0.8660   -1.0950 N   0  0  0  0  0  0  0  0  0  0  0  0
   -5.8910    1.2440   -2.3780 C   0  0  0  0  0  0  0  0  0  0  0  0
   -6.2990    2.6660   -2.5050 C   0  0  0  0  0  0  0  0  0  0  0  0
   -5.3560    3.6270   -2.3320 O   0  0  0  0  0  0  0  0  0  0  0  0
   -6.2880    0.4410   -0.0620 C   0  0  2  0  0  0  0  0  0  0  0  0
   -6.3010    1.3220    1.1280 C   0  0  0  0  0  0  0  0  0  0  0  0
   -6.8540    0.7350    2.3790 C   0  0  0  0  0  0  0  0  0  0  0  0
   -6.4450   -0.6830    2.6600 C   0  0  0  0  0  0  0  0  0  0  0  0
   -6.8280   -1.5030    1.4490 C   0  0  1  0  0  0  0  0  0  0  0  0
   -8.6280   -1.5400    1.2970 S   0  0  0  0  0  0  0  0  0  0  0  0
   -9.1790   -0.5180    0.3550 O   0  0  0  0  0  0  0  0  0  0  0  0
   -6.1300   -1.0380    0.2300 C   0  0  1  0  0  0  0  0  0  0  0  0
   -6.7030   -1.8550   -0.9410 C   0  0  0  0  0  0  0  0  0  0  0  0
   -0.4670   -0.1810   -1.3220 S   0  0  0  0  0  0  0  0  0  0  0  0
    3.0460    0.6110    0.5260 N   0  0  0  0  0  0  0  0  0  0  0  0
    4.2420    0.0420    0.8620 C   0  0  0  0  0  0  0  0  0  0  0  0
    5.0520    0.7590    1.5090 O   0  0  0  0  0  0  0  0  0  0  0  0
    9.7400   -2.8400    0.6890 C   0  0  0  0  0  0  0  0  0  0  0  0
   10.6890   -2.5410   -0.2590 C   0  0  0  0  0  0  0  0  0  0  0  0
   10.8660   -1.3080   -0.7070 N   0  0  0  0  0  0  0  0  0  0  0  0
  1  2  1  0
  2  3  1  0
  3  4  2  0
  3 40  1  0
  4  5  1  0
  5  6  1  0
  5 38  2  0
  6  7  1  0
  7  8  1  0
  8  9  2  0
  8 10  1  0
 10 11  2  0
 10 36  1  0
 11 12  1  0
 12 13  2  0
 13 14  1  0
 13 35  1  0
 14 15  2  0
 14 34  1  0
 15 16  1  0
 16 17  2  0
 17 18  1  0
 17 34  1  0
 18 19  1  0
 19 20  2  0
 19 21  1  0
 21 22  1  0
 25 21  1  6
 22 23  1  0
 23 24  1  0
 25 26  1  0
 25 32  1  0
 26 27  1  0
 27 28  1  0
 28 29  1  0
 29 30  1  6
 29 32  1  0
 30 31  2  0
 32 33  1  6
 35 36  1  0
 36 37  2  0
 38 39  1  0
 39 40  2  0
M  END
