
     RDKit          3D

 40 42  0  0  0  0  0  0  0  0999 V2000
   -9.3570    3.2770    0.6020 C   0  0  0  0  0  0  0  0  0  0  0  0
   -8.8120    2.5460   -0.3510 C   0  0  0  0  0  0  0  0  0  0  0  0
   -9.5460    1.4320   -0.9890 C   0  0  0  0  0  0  0  0  0  0  0  0
   -7.4090    2.8800   -0.7780 C   0  0  0  0  0  0  0  0  0  0  0  0
   -6.5920    1.7350   -0.5480 N   0  0  0  0  0  0  0  0  0  0  0  0
   -5.2130    1.8740   -0.9030 C   0  0  1  0  0  0  0  0  0  0  0  0
   -4.4710    2.9100   -0.1290 C   0  0  0  0  0  0  0  0  0  0  0  0
   -4.0350    2.1770    1.0850 C   0  0  0  0  0  0  0  0  0  0  0  0
   -3.8070    2.6130    2.2370 O   0  0  0  0  0  0  0  0  0  0  0  0
   -3.9080    0.8150    0.7090 N   0  0  0  0  0  0  0  0  0  0  0  0
   -3.2870   -0.2790    1.4690 C   0  0  1  0  0  0  0  0  0  0  0  0
   -4.2150   -1.2740    1.7730 O   0  0  0  0  0  0  0  0  0  0  0  0
   -4.1210   -2.5790    1.4420 N   0  0  0  0  0  0  0  0  0  0  0  0
   -3.1160   -3.0710    0.7860 C   0  0  0  0  0  0  0  0  0  0  0  0
   -3.0160   -4.5010    0.4260 C   0  0  2  0  0  0  0  0  0  0  0  0
   -1.8000   -5.1710    1.0070 C   0  0  0  0  0  0  0  0  0  0  0  0
   -3.0090   -4.7010   -1.0760 C   0  0  0  0  0  0  0  0  0  0  0  0
   -2.0740   -2.1290    0.4120 C   0  0  0  0  0  0  0  0  0  0  0  0
   -2.1510   -0.8550    0.7240 C   0  0  0  0  0  0  0  0  0  0  0  0
   -1.0940    0.0520    0.3260 N   0  0  0  0  0  0  0  0  0  0  0  0
   -0.3180    0.7800    1.2630 C   0  0  0  0  0  0  0  0  0  0  0  0
   -0.6220    0.5810    2.4860 O   0  0  0  0  0  0  0  0  0  0  0  0
    0.9900    1.8990    0.8630 S   0  0  0  0  0  0  0  0  0  0  0  0
    1.4410    1.9380   -0.8730 C   0  0  0  0  0  0  0  0  0  0  0  0
    2.1160    0.6550   -1.2250 C   0  0  0  0  0  0  0  0  0  0  0  0
    1.5100   -0.3610   -1.6620 O   0  0  0  0  0  0  0  0  0  0  0  0
    3.5800    0.5610   -1.0540 C   0  0  0  0  0  0  0  0  0  0  0  0
    4.5230    1.4280   -0.6240 C   0  0  0  0  0  0  0  0  0  0  0  0
    5.8180    1.0570   -0.5770 C   0  0  0  0  0  0  0  0  0  0  0  0
    6.8720    1.9800   -0.1500 C   0  0  0  0  0  0  0  0  0  0  0  0
    6.6320    3.1130    0.3260 O   0  0  0  0  0  0  0  0  0  0  0  0
    8.1820    1.6060   -0.2730 O   0  0  0  0  0  0  0  0  0  0  0  0
    9.2800    2.4150    0.1020 C   0  0  0  0  0  0  0  0  0  0  0  0
    6.1030   -0.2380   -0.9870 C   0  0  0  0  0  0  0  0  0  0  0  0
    7.3990   -0.9520   -1.0310 C   0  0  0  0  0  0  0  0  0  0  0  0
    7.7430   -1.4250    0.3410 C   0  0  0  0  0  0  0  0  0  0  0  0
    9.0650   -2.1620    0.3900 C   0  0  0  0  0  0  0  0  0  0  0  0
   10.2240   -1.3270   -0.0530 C   0  0  0  0  0  0  0  0  0  0  0  0
    4.5430   -0.9500   -1.4480 S   0  0  0  0  0  0  0  0  0  0  0  0
   -4.4860    0.5900   -0.5900 C   0  0  0  0  0  0  0  0  0  0  0  0
  1  2  2  0
  2  3  1  0
  2  4  1  0
  4  5  1  0
  6  5  1  1
  6  7  1  0
  6 40  1  0
  7  8  1  0
  8  9  2  0
  8 10  1  0
 11 10  1  6
 10 40  1  0
 11 12  1  0
 11 19  1  0
 12 13  1  0
 13 14  2  0
 14 15  1  0
 14 18  1  0
 15 16  1  6
 15 17  1  0
 18 19  2  0
 19 20  1  0
 20 21  1  0
 21 22  2  0
 21 23  1  0
 23 24  1  0
 24 25  1  0
 25 26  2  0
 25 27  1  0
 27 28  2  0
 27 39  1  0
 28 29  1  0
 29 30  1  0
 29 34  2  0
 30 31  2  0
 30 32  1  0
 32 33  1  0
 34 35  1  0
 34 39  1  0
 35 36  1  0
 36 37  1  0
 37 38  1  0
M  END
