
     RDKit          3D

 40 43  0  0  0  0  0  0  0  0999 V2000
    2.2380   -1.2700   -3.4820 C   0  0  0  0  0  0  0  0  0  0  0  0
    1.5510   -1.4280   -2.1670 C   0  0  0  0  0  0  0  0  0  0  0  0
    0.2510   -1.9090   -2.1150 C   0  0  0  0  0  0  0  0  0  0  0  0
   -0.4220   -2.0740   -0.9150 C   0  0  0  0  0  0  0  0  0  0  0  0
    0.2000   -1.7560    0.2660 C   0  0  0  0  0  0  0  0  0  0  0  0
   -0.6180   -1.9630    1.8180 S   0  0  0  0  0  0  0  0  0  0  0  0
    0.4420   -2.2690    2.8660 O   0  0  0  0  0  0  0  0  0  0  0  0
   -1.5460   -0.5350    2.3350 C   0  0  0  0  0  0  0  0  0  0  0  0
   -2.5880   -0.1830    1.3780 N   0  0  0  0  0  0  0  0  0  0  0  0
   -2.4230    0.7090    0.2830 C   0  0  0  0  0  0  0  0  0  0  0  0
   -1.4830    1.5620    0.1240 O   0  0  0  0  0  0  0  0  0  0  0  0
   -3.5540    0.4550   -0.6340 C   0  0  2  0  0  0  0  0  0  0  0  0
   -3.9650    1.7810   -1.2540 C   0  0  0  0  0  0  0  0  0  0  0  0
   -4.5900   -0.0620    0.2350 N   0  0  0  0  0  0  0  0  0  0  0  0
   -6.0110    0.0120   -0.0050 C   0  0  0  0  0  0  0  0  0  0  0  0
   -6.8880    0.5400    0.8460 N   0  0  0  0  0  0  0  0  0  0  0  0
   -8.2220    0.6140    0.6180 C   0  0  0  0  0  0  0  0  0  0  0  0
   -8.6950    0.1150   -0.5640 C   0  0  0  0  0  0  0  0  0  0  0  0
  -10.1080    0.1560   -0.8960 C   0  0  0  0  0  0  0  0  0  0  0  0
  -11.0450    0.7270    0.0070 N   0  0  0  0  0  0  0  0  0  0  0  0
  -10.5330   -0.3200   -2.0070 O   0  0  0  0  0  0  0  0  0  0  0  0
   -7.8070   -0.4400   -1.4720 C   0  0  0  0  0  0  0  0  0  0  0  0
   -8.4300   -1.0670   -2.9740 Cl  0  0  0  0  0  0  0  0  0  0  0  0
   -6.4950   -0.4820   -1.1820 N   0  0  0  0  0  0  0  0  0  0  0  0
   -3.9310   -0.6570    1.3440 C   0  0  0  0  0  0  0  0  0  0  0  0
   -4.4780   -1.4760    2.1580 O   0  0  0  0  0  0  0  0  0  0  0  0
    1.5150   -1.2700    0.2010 C   0  0  0  0  0  0  0  0  0  0  0  0
    2.1880   -1.1030   -0.9600 C   0  0  0  0  0  0  0  0  0  0  0  0
    3.4990   -0.6320   -1.0410 N   0  0  0  0  0  0  0  0  0  0  0  0
    4.3500   -0.2000   -0.0080 C   0  0  0  0  0  0  0  0  0  0  0  0
    3.9320   -0.2030    1.1670 O   0  0  0  0  0  0  0  0  0  0  0  0
    5.6910    0.2500   -0.2310 N   0  0  0  0  0  0  0  0  0  0  0  0
    6.5250    0.6900    0.8720 C   0  0  2  0  0  0  0  0  0  0  0  0
    7.2580    1.8900    0.5280 N   0  0  0  0  0  0  0  0  0  0  0  0
    8.3140    2.0420    1.3930 N   0  0  0  0  0  0  0  0  0  0  0  0
    9.1960    0.8970    1.2900 C   0  0  1  0  0  0  0  0  0  0  0  0
    9.9010    0.7260    2.5590 N   0  0  0  0  0  0  0  0  0  0  0  0
   10.6060    1.8680    2.7780 O   0  0  0  0  0  0  0  0  0  0  0  0
    7.9660   -0.4240    1.0750 S   0  0  0  0  0  0  0  0  0  0  0  0
    8.2070   -1.2340   -0.1700 O   0  0  0  0  0  0  0  0  0  0  0  0
  1  2  1  0
  2  3  2  0
  2 28  1  0
  3  4  1  0
  4  5  2  0
  5  6  1  0
  5 27  1  0
  6  7  2  0
  6  8  1  1
  8  9  1  0
  9 10  1  0
  9 25  1  0
 10 11  2  0
 10 12  1  0
 12 13  1  1
 12 14  1  0
 14 15  1  0
 14 25  1  0
 15 16  2  0
 15 24  1  0
 16 17  1  0
 17 18  2  0
 18 19  1  0
 18 22  1  0
 19 20  1  0
 19 21  2  0
 22 23  1  0
 22 24  2  0
 25 26  2  0
 27 28  2  0
 28 29  1  0
 29 30  1  0
 30 31  2  0
 30 32  1  0
 33 32  1  6
 33 34  1  0
 39 33  1  6
 34 35  1  0
 35 36  1  0
 36 37  1  1
 36 39  1  0
 37 38  1  0
 39 40  2  0
M  END
