
     RDKit          3D

 40 43  0  0  0  0  0  0  0  0999 V2000
   -4.2560   -3.6600    1.0160 C   0  0  0  0  0  0  0  0  0  0  0  0
   -3.7150   -2.3120    1.3270 C   0  0  0  0  0  0  0  0  0  0  0  0
   -3.3850   -1.8120    2.5550 N   0  0  0  0  0  0  0  0  0  0  0  0
   -2.9470   -0.6070    2.4310 O   0  0  0  0  0  0  0  0  0  0  0  0
   -2.9360   -0.2010    1.2000 C   0  0  0  0  0  0  0  0  0  0  0  0
   -2.5400    1.0330    0.6150 N   0  0  0  0  0  0  0  0  0  0  0  0
   -1.3410    1.2460    0.1910 C   0  0  0  0  0  0  0  0  0  0  0  0
   -1.0310    2.4380   -0.3540 N   0  0  0  0  0  0  0  0  0  0  0  0
    0.2020    2.6790   -0.8000 C   0  0  0  0  0  0  0  0  0  0  0  0
    0.5900    4.2560   -1.5130 S   0  0  0  0  0  0  0  0  0  0  0  0
    0.2680    4.2150   -3.2980 C   0  0  0  0  0  0  0  0  0  0  0  0
    0.5980    5.5380   -3.8940 C   0  0  0  0  0  0  0  0  0  0  0  0
    1.0940    6.6110   -3.1070 N   0  0  0  0  0  0  0  0  0  0  0  0
    0.4420    5.7370   -5.1250 O   0  0  0  0  0  0  0  0  0  0  0  0
    1.1410    1.7300   -0.7060 N   0  0  0  0  0  0  0  0  0  0  0  0
    0.8830    0.5110   -0.1660 C   0  0  0  0  0  0  0  0  0  0  0  0
    1.9610   -0.5050   -0.0870 C   0  0  2  0  0  0  0  0  0  0  0  0
    2.9090   -0.2030    1.0520 C   0  0  0  0  0  0  0  0  0  0  0  0
    4.1770   -0.8200    0.7700 N   0  0  0  0  0  0  0  0  0  0  0  0
    4.8490   -1.6170    1.7270 C   0  0  0  0  0  0  0  0  0  0  0  0
    4.3510   -1.8110    2.8680 O   0  0  0  0  0  0  0  0  0  0  0  0
    6.1070   -2.2330    1.4520 N   0  0  0  0  0  0  0  0  0  0  0  0
    6.8380   -3.0490    2.3760 C   0  0  0  0  0  0  0  0  0  0  0  0
    7.1870   -2.2590    3.6180 C   0  0  0  0  0  0  0  0  0  0  0  0
    7.9680   -1.1560    3.2920 O   0  0  0  0  0  0  0  0  0  0  0  0
    4.7730   -0.6160   -0.5240 C   0  0  0  0  0  0  0  0  0  0  0  0
    3.7710    0.2320   -1.3190 C   0  0  0  0  0  0  0  0  0  0  0  0
    2.5920   -0.4970   -1.3280 O   0  0  0  0  0  0  0  0  0  0  0  0
   -0.3680    0.3010    0.2730 N   0  0  0  0  0  0  0  0  0  0  0  0
   -3.4270   -1.2800    0.4590 C   0  0  0  0  0  0  0  0  0  0  0  0
   -3.6010   -1.2960   -1.0050 C   0  0  1  0  0  0  0  0  0  0  0  0
   -2.3050   -2.1890   -1.8280 Cl  0  0  0  0  0  0  0  0  0  0  0  0
   -5.1890   -1.9940   -1.5110 S   0  0  0  0  0  0  0  0  0  0  0  0
   -6.4980   -0.9260   -0.9650 C   0  0  0  0  0  0  0  0  0  0  0  0
   -6.3650    0.1660   -0.3150 N   0  0  0  0  0  0  0  0  0  0  0  0
   -7.6170    0.7950   -0.0240 C   0  0  1  0  0  0  0  0  0  0  0  0
   -7.6460    2.0600   -0.6000 O   0  0  0  0  0  0  0  0  0  0  0  0
   -8.6050   -0.1340   -0.6330 C   0  0  0  0  0  0  0  0  0  0  0  0
   -9.8600    0.0390   -0.6120 O   0  0  0  0  0  0  0  0  0  0  0  0
   -7.8750   -1.1940   -1.2090 N   0  0  0  0  0  0  0  0  0  0  0  0
  1  2  1  0
  2  3  2  0
  2 30  1  0
  3  4  1  0
  4  5  1  0
  5  6  1  0
  5 30  2  0
  6  7  2  3
  7  8  1  0
  7 29  1  0
  8  9  2  0
  9 10  1  0
  9 15  1  0
 10 11  1  0
 11 12  1  0
 12 13  1  0
 12 14  2  0
 15 16  2  0
 17 16  1  6
 16 29  1  0
 17 18  1  0
 17 28  1  0
 18 19  1  0
 19 20  1  0
 19 26  1  0
 20 21  2  0
 20 22  1  0
 22 23  1  0
 23 24  1  0
 24 25  1  0
 26 27  1  0
 27 28  1  0
 30 31  1  0
 31 32  1  6
 31 33  1  0
 33 34  1  0
 34 35  2  0
 34 40  1  0
 35 36  1  0
 36 37  1  6
 36 38  1  0
 38 39  2  0
 38 40  1  0
M  END
