
     RDKit          3D

 40 42  0  0  0  0  0  0  0  0999 V2000
    4.7120   -3.8980    3.0180 C   0  0  0  0  0  0  0  0  0  0  0  0
    5.0860   -3.9390    1.5530 C   0  0  2  0  0  0  0  0  0  0  0  0
    6.0640   -2.4660    1.1850 S   0  0  0  0  0  0  0  0  0  0  0  0
    5.0220   -1.0360    1.3720 C   0  0  0  0  0  0  0  0  0  0  0  0
    4.2760   -0.5120    0.3840 N   0  0  0  0  0  0  0  0  0  0  0  0
    3.6140    0.5490    0.8470 N   0  0  0  0  0  0  0  0  0  0  0  0
    2.7300    1.3310    0.0410 C   0  0  0  0  0  0  0  0  0  0  0  0
    1.3380    0.8280    0.0980 C   0  0  0  0  0  0  0  0  0  0  0  0
    1.1210   -0.1710    0.8370 O   0  0  0  0  0  0  0  0  0  0  0  0
    0.3040    1.4520   -0.6520 N   0  0  0  0  0  0  0  0  0  0  0  0
    0.4940    2.5990   -1.5180 C   0  0  0  0  0  0  0  0  0  0  0  0
   -0.6870    2.4800   -2.4570 C   0  0  0  0  0  0  0  0  0  0  0  0
   -1.7870    2.0860   -1.4940 C   0  0  2  0  0  0  0  0  0  0  0  0
   -2.2070    3.2300   -0.6500 C   0  0  0  0  0  0  0  0  0  0  0  0
   -2.0870    3.1240    0.5910 O   0  0  0  0  0  0  0  0  0  0  0  0
   -2.7370    4.4360   -1.1750 N   0  0  0  0  0  0  0  0  0  0  0  0
   -3.1490    5.5470   -0.4120 C   0  0  0  0  0  0  0  0  0  0  0  0
   -3.1420    5.7350    0.9480 C   0  0  0  0  0  0  0  0  0  0  0  0
   -3.6340    6.9710    1.2610 N   0  0  0  0  0  0  0  0  0  0  0  0
   -3.7800    7.5240    2.6080 C   0  0  0  0  0  0  0  0  0  0  0  0
   -3.9350    7.5270    0.1110 N   0  0  0  0  0  0  0  0  0  0  0  0
   -3.6640    6.7170   -0.9260 C   0  0  0  0  0  0  0  0  0  0  0  0
   -3.9040    7.0450   -2.6470 Cl  0  0  0  0  0  0  0  0  0  0  0  0
   -1.1030    1.0370   -0.6650 C   0  0  1  0  0  0  0  0  0  0  0  0
   -1.1460   -0.3450   -1.2260 C   0  0  0  0  0  0  0  0  0  0  0  0
   -2.7420   -1.0620   -1.3390 S   0  0  2  0  0  0  0  0  0  0  0  0
   -3.6740   -0.3410   -2.2680 O   0  0  0  0  0  0  0  0  0  0  0  0
   -3.3160   -1.1820    0.0460 O   0  0  0  0  0  0  0  0  0  0  0  0
   -2.5350   -2.6600   -2.0000 N   0  0  0  0  0  0  0  0  0  0  0  0
   -2.3470   -3.7700   -1.2040 N   0  0  0  0  0  0  0  0  0  0  0  0
   -1.5910   -4.7410   -1.5530 C   0  0  0  0  0  0  0  0  0  0  0  0
   -1.4860   -5.8820   -0.5770 C   0  0  1  0  0  0  0  0  0  0  0  0
   -2.8770   -6.1490   -0.0430 C   0  0  0  0  0  0  0  0  0  0  0  0
   -0.9060   -6.9990   -1.1260 O   0  0  0  0  0  0  0  0  0  0  0  0
    3.9210    0.7220    2.1260 C   0  0  0  0  0  0  0  0  0  0  0  0
    3.4630    1.6400    2.8570 O   0  0  0  0  0  0  0  0  0  0  0  0
    4.7940   -0.2620    2.4480 N   0  0  0  0  0  0  0  0  0  0  0  0
    3.8460   -3.9380    0.7220 C   0  0  0  0  0  0  0  0  0  0  0  0
    3.9360   -3.9520   -0.6950 N   0  0  0  0  0  0  0  0  0  0  0  0
    2.6840   -3.9250    1.2480 O   0  0  0  0  0  0  0  0  0  0  0  0
  2  1  1  1
  2  3  1  0
  2 38  1  0
  3  4  1  0
  4  5  2  0
  4 37  1  0
  5  6  1  0
  6  7  1  0
  6 35  1  0
  7  8  1  0
  8  9  2  0
  8 10  1  0
 10 11  1  0
 10 24  1  0
 11 12  1  0
 12 13  1  0
 13 14  1  1
 13 24  1  0
 14 15  2  0
 14 16  1  0
 16 17  1  0
 17 18  2  0
 17 22  1  0
 18 19  1  0
 19 20  1  0
 19 21  1  0
 21 22  2  0
 22 23  1  0
 24 25  1  6
 26 25  1  1
 26 27  2  0
 26 28  2  0
 26 29  1  0
 29 30  1  0
 30 31  2  3
 31 32  1  0
 32 33  1  6
 32 34  1  0
 35 36  2  0
 35 37  1  0
 38 39  1  0
 38 40  2  0
M  END
