
     RDKit          3D

 40 42  0  0  0  0  0  0  0  0999 V2000
   -6.4900    3.6140   -1.1310 C   0  0  0  0  0  0  0  0  0  0  0  0
   -5.7210    2.1700   -1.8790 S   0  0  0  0  0  0  0  0  0  0  0  0
   -4.6530    1.2840   -0.7160 C   0  0  2  0  0  0  0  0  0  0  0  0
   -3.4050    0.8140   -1.4980 C   0  0  0  0  0  0  0  0  0  0  0  0
   -2.5420    0.1360   -0.5880 N   0  0  0  0  0  0  0  0  0  0  0  0
   -1.3330   -0.5020   -0.9740 C   0  0  0  0  0  0  0  0  0  0  0  0
   -0.9670   -0.5330   -2.1370 O   0  0  0  0  0  0  0  0  0  0  0  0
   -0.5030   -1.1490    0.1110 C   0  0  1  0  0  0  0  0  0  0  0  0
   -1.3270   -1.9170    1.0670 C   0  0  0  0  0  0  0  0  0  0  0  0
    0.5970   -1.8750   -0.4770 N   0  0  0  0  0  0  0  0  0  0  0  0
    1.8050   -1.2580   -0.8720 C   0  0  0  0  0  0  0  0  0  0  0  0
    1.9690   -0.0040   -0.7440 O   0  0  0  0  0  0  0  0  0  0  0  0
    2.8510   -2.0160   -1.4200 N   0  0  0  0  0  0  0  0  0  0  0  0
    4.1080   -1.5400   -1.9040 C   0  0  0  0  0  0  0  0  0  0  0  0
    4.8450   -0.8230   -0.8460 C   0  0  0  0  0  0  0  0  0  0  0  0
    4.4080   -0.1610    0.2250 N   0  0  0  0  0  0  0  0  0  0  0  0
    5.4330    0.3160    0.8740 N   0  0  0  0  0  0  0  0  0  0  0  0
    6.5960   -0.0280    0.2280 C   0  0  0  0  0  0  0  0  0  0  0  0
    7.8830    0.3450    0.7010 N   0  0  0  0  0  0  0  0  0  0  0  0
    9.0860    0.0300    0.0830 C   0  0  0  0  0  0  0  0  0  0  0  0
    8.9900   -0.6300   -1.0030 O   0  0  0  0  0  0  0  0  0  0  0  0
   10.4370    0.3450    0.4980 C   0  0  0  0  0  0  0  0  0  0  0  0
   11.4930   -0.1540   -0.2190 N   0  0  0  0  0  0  0  0  0  0  0  0
   12.7610    0.0910    0.1000 C   0  0  0  0  0  0  0  0  0  0  0  0
   13.0830    0.8820    1.2010 C   0  0  0  0  0  0  0  0  0  0  0  0
   14.7310    1.2220    1.6460 Cl  0  0  0  0  0  0  0  0  0  0  0  0
   12.0790    1.3810    1.9190 N   0  0  0  0  0  0  0  0  0  0  0  0
   10.7780    1.1180    1.5750 C   0  0  0  0  0  0  0  0  0  0  0  0
    9.8690    1.6180    2.2960 O   0  0  0  0  0  0  0  0  0  0  0  0
    6.2020   -0.7200   -0.8120 N   0  0  0  0  0  0  0  0  0  0  0  0
   -5.3590    0.1440   -0.2400 N   0  0  0  0  0  0  0  0  0  0  0  0
   -5.5070   -0.1290    1.4040 S   0  0  2  0  0  0  0  0  0  0  0  0
   -4.6790    0.8050    2.2740 O   0  0  0  0  0  0  0  0  0  0  0  0
   -5.0150   -1.5170    1.7770 O   0  0  0  0  0  0  0  0  0  0  0  0
   -7.1960   -0.0260    1.9510 C   0  0  1  0  0  0  0  0  0  0  0  0
   -7.7810    1.3580    1.7380 C   0  0  0  0  0  0  0  0  0  0  0  0
   -8.6950    1.1490    0.5640 C   0  0  0  0  0  0  0  0  0  0  0  0
   -8.3890   -0.0940    0.0300 O   0  0  0  0  0  0  0  0  0  0  0  0
   -8.1350   -0.8730    1.1330 C   0  0  1  0  0  0  0  0  0  0  0  0
   -7.5760   -2.2320    0.8300 C   0  0  0  0  0  0  0  0  0  0  0  0
  1  2  1  0
  2  3  1  0
  3  4  1  6
  3 31  1  0
  4  5  1  0
  5  6  1  0
  6  7  2  0
  6  8  1  0
  8  9  1  6
  8 10  1  0
 10 11  1  0
 11 12  2  0
 11 13  1  0
 13 14  1  0
 14 15  1  0
 15 16  2  0
 15 30  1  0
 16 17  1  0
 17 18  2  0
 18 19  1  0
 18 30  1  0
 19 20  1  0
 20 21  2  0
 20 22  1  0
 22 23  2  0
 22 28  1  0
 23 24  1  0
 24 25  2  0
 25 26  1  0
 25 27  1  0
 27 28  1  0
 28 29  2  0
 32 31  1  6
 32 33  2  0
 32 34  2  0
 32 35  1  0
 35 36  1  6
 35 39  1  0
 36 37  1  0
 37 38  1  0
 38 39  1  0
 39 40  1  6
M  END
