
     RDKit          3D

 26 27  0  0  0  0  0  0  0  0999 V2000
    6.2570    1.8520   -1.5060 C   0  0  0  0  0  0  0  0  0  0  0  0
    4.8800    1.8700   -0.8050 C   0  0  0  0  0  0  0  0  0  0  0  0
    4.1350    0.2920   -1.1010 S   0  0  0  0  0  0  0  0  0  0  0  0
    2.4640    0.0420   -0.5340 C   0  0  0  0  0  0  0  0  0  0  0  0
    2.3810    0.0390    0.9500 C   0  0  2  0  0  0  0  0  0  0  0  0
    2.8210    1.3670    1.5010 C   0  0  0  0  0  0  0  0  0  0  0  0
    3.3280   -1.0770    1.4210 C   0  0  0  0  0  0  0  0  0  0  0  0
    2.8380   -2.2590    0.8450 O   0  0  0  0  0  0  0  0  0  0  0  0
    0.9850   -0.2610    1.4620 C   0  0  2  0  0  0  0  0  0  0  0  0
    1.0650   -0.2300    2.9940 C   0  0  0  0  0  0  0  0  0  0  0  0
    0.5100   -1.4910    1.0740 O   0  0  0  0  0  0  0  0  0  0  0  0
   -0.6640   -1.7810    0.4400 C   0  0  0  0  0  0  0  0  0  0  0  0
   -1.0030   -3.0970    0.1020 C   0  0  0  0  0  0  0  0  0  0  0  0
   -2.1500   -3.4510   -0.5250 C   0  0  0  0  0  0  0  0  0  0  0  0
   -2.4880   -4.7880   -0.8670 N   0  0  0  0  0  0  0  0  0  0  0  0
   -3.0410   -2.4690   -0.8530 C   0  0  0  0  0  0  0  0  0  0  0  0
   -2.7890   -1.1150   -0.5540 C   0  0  0  0  0  0  0  0  0  0  0  0
   -3.7790   -0.1710   -0.9210 N   0  0  0  0  0  0  0  0  0  0  0  0
   -3.6700    1.2350   -0.8870 C   0  0  0  0  0  0  0  0  0  0  0  0
   -2.6170    1.7790   -0.5070 O   0  0  0  0  0  0  0  0  0  0  0  0
   -4.8220    2.0760   -1.3080 C   0  0  0  0  0  0  0  0  0  0  0  0
   -6.0380    1.6350   -1.7530 C   0  0  0  0  0  0  0  0  0  0  0  0
   -6.8120    2.7320   -2.0360 C   0  0  0  0  0  0  0  0  0  0  0  0
   -6.0240    3.8220   -1.7460 C   0  0  0  0  0  0  0  0  0  0  0  0
   -4.8710    3.3740   -1.3240 O   0  0  0  0  0  0  0  0  0  0  0  0
   -1.6130   -0.8160    0.0810 C   0  0  0  0  0  0  0  0  0  0  0  0
  1  2  1  0
  2  3  1  0
  3  4  1  0
  4  5  1  0
  5  6  1  1
  5  7  1  0
  5  9  1  0
  7  8  1  0
  9 10  1  1
  9 11  1  0
 11 12  1  0
 12 13  2  0
 12 26  1  0
 13 14  1  0
 14 15  1  0
 14 16  2  0
 16 17  1  0
 17 18  1  0
 17 26  2  0
 18 19  1  0
 19 20  2  0
 19 21  1  0
 21 22  2  0
 21 25  1  0
 22 23  1  0
 23 24  2  0
 24 25  1  0
M  END
