
     RDKit          3D

 26 27  0  0  0  0  0  0  0  0999 V2000
   -5.4230    2.8790   -0.8830 C   0  0  0  0  0  0  0  0  0  0  0  0
   -4.0300    2.6510   -1.4260 C   0  0  0  0  0  0  0  0  0  0  0  0
   -3.1470    2.0260   -0.4730 N   0  0  0  0  0  0  0  0  0  0  0  0
   -3.2800    0.6840   -0.0180 C   0  0  0  0  0  0  0  0  0  0  0  0
   -2.3650   -0.1730   -0.4400 C   0  0  0  0  0  0  0  0  0  0  0  0
   -1.2330    0.1640   -1.3370 C   0  0  1  0  0  0  0  0  0  0  0  0
   -1.3390    1.4570   -1.8460 O   0  0  0  0  0  0  0  0  0  0  0  0
    0.0810   -0.0840   -0.7070 C   0  0  0  0  0  0  0  0  0  0  0  0
    0.6150    0.8470    0.1570 C   0  0  0  0  0  0  0  0  0  0  0  0
    1.8340    0.6740    0.7710 C   0  0  0  0  0  0  0  0  0  0  0  0
    2.5790   -0.4910    0.5220 C   0  0  0  0  0  0  0  0  0  0  0  0
    3.8870   -0.6310    1.1720 C   0  0  0  0  0  0  0  0  0  0  0  0
    5.0720   -0.2550    0.3430 C   0  0  0  0  0  0  0  0  0  0  0  0
    4.9450    1.4730   -0.1500 S   0  0  2  0  0  0  0  0  0  0  0  0
    6.2820    1.9450   -1.1010 N   0  0  0  0  0  0  0  0  0  0  0  0
    4.8880    2.3430    1.0660 O   0  0  0  0  0  0  0  0  0  0  0  0
    3.7070    1.6320   -1.0160 O   0  0  0  0  0  0  0  0  0  0  0  0
    2.0750   -1.4300   -0.3280 C   0  0  0  0  0  0  0  0  0  0  0  0
    2.7990   -2.6830   -0.6060 C   0  0  0  0  0  0  0  0  0  0  0  0
    2.7010   -3.6620    0.5490 C   0  0  0  0  0  0  0  0  0  0  0  0
    0.8280   -1.2120   -0.9330 C   0  0  0  0  0  0  0  0  0  0  0  0
   -2.4980   -1.5490    0.0320 C   0  0  0  0  0  0  0  0  0  0  0  0
   -2.0580   -2.5140   -0.6560 O   0  0  0  0  0  0  0  0  0  0  0  0
   -3.1670   -1.7760    1.3410 C   0  0  0  0  0  0  0  0  0  0  0  0
   -4.4220   -0.9690    1.4870 C   0  0  0  0  0  0  0  0  0  0  0  0
   -4.4010    0.3690    0.8640 C   0  0  0  0  0  0  0  0  0  0  0  0
  1  2  1  0
  2  3  1  0
  3  4  1  0
  4  5  2  0
  4 26  1  0
  5  6  1  0
  5 22  1  0
  6  7  1  1
  6  8  1  0
  8  9  2  0
  8 21  1  0
  9 10  1  0
 10 11  2  0
 11 12  1  0
 11 18  1  0
 12 13  1  0
 13 14  1  0
 14 15  1  6
 14 16  2  0
 14 17  2  0
 18 19  1  0
 18 21  2  0
 19 20  1  0
 22 23  2  0
 22 24  1  0
 24 25  1  0
 25 26  1  0
M  END
