
     RDKit          3D

 26 26  0  0  0  0  0  0  0  0999 V2000
    6.6750   -2.7670   -2.1710 C   0  0  0  0  0  0  0  0  0  0  0  0
    6.5340   -2.6030   -0.8820 C   0  0  0  0  0  0  0  0  0  0  0  0
    5.2130   -2.2370   -0.3440 C   0  0  0  0  0  0  0  0  0  0  0  0
    5.1360   -2.0870    0.9510 C   0  0  0  0  0  0  0  0  0  0  0  0
    6.3300   -2.2750    1.8050 C   0  0  0  0  0  0  0  0  0  0  0  0
    4.1220   -2.0250   -1.3060 C   0  0  0  0  0  0  0  0  0  0  0  0
    2.8850   -1.4710   -0.6720 C   0  0  0  0  0  0  0  0  0  0  0  0
    3.1320   -0.0500   -0.2210 C   0  0  0  0  0  0  0  0  0  0  0  0
    1.9730    0.4230    0.4150 O   0  0  0  0  0  0  0  0  0  0  0  0
    0.7350    0.5500   -0.1650 C   0  0  0  0  0  0  0  0  0  0  0  0
    0.5730    0.2310   -1.3690 O   0  0  0  0  0  0  0  0  0  0  0  0
   -0.3760    1.0620    0.6600 C   0  0  0  0  0  0  0  0  0  0  0  0
   -0.1650    1.3870    1.9190 C   0  0  0  0  0  0  0  0  0  0  0  0
    1.1840    1.2610    2.5850 C   0  0  0  0  0  0  0  0  0  0  0  0
   -1.2820    1.8770    2.6680 N   0  0  0  0  0  0  0  0  0  0  0  0
   -2.5480    1.9940    2.0440 C   0  0  0  0  0  0  0  0  0  0  0  0
   -2.7840    1.6780    0.7920 C   0  0  0  0  0  0  0  0  0  0  0  0
   -4.1270    1.8200    0.1890 C   0  0  0  0  0  0  0  0  0  0  0  0
   -5.1470    2.3160    1.0450 N   0  0  0  0  0  0  0  0  0  0  0  0
   -4.3570    1.5050   -1.0590 C   0  0  0  0  0  0  0  0  0  0  0  0
   -5.7220    1.6670   -1.6110 C   0  0  0  0  0  0  0  0  0  0  0  0
   -6.3810    0.1230   -2.1900 S   0  0  2  0  0  0  0  0  0  0  0  0
   -7.9990    0.3300   -2.8440 C   0  0  0  0  0  0  0  0  0  0  0  0
   -6.4120   -0.8410   -1.0230 O   0  0  0  0  0  0  0  0  0  0  0  0
   -5.4700   -0.4510   -3.2180 O   0  0  0  0  0  0  0  0  0  0  0  0
   -1.6780    1.1670   -0.0380 C   0  0  0  0  0  0  0  0  0  0  0  0
  1  2  2  0
  2  3  1  0
  3  4  2  3
  3  6  1  0
  4  5  1  0
  6  7  1  0
  7  8  1  0
  8  9  1  0
  9 10  1  0
 10 11  2  0
 10 12  1  0
 12 13  2  0
 12 26  1  0
 13 14  1  0
 13 15  1  0
 15 16  1  0
 16 17  2  0
 17 18  1  0
 17 26  1  0
 18 19  1  0
 18 20  2  3
 20 21  1  0
 21 22  1  0
 22 23  1  6
 22 24  2  0
 22 25  2  0
M  END
