
     RDKit          3D

 26 27  0  0  0  0  0  0  0  0999 V2000
   -2.0210    4.5400   -0.6940 C   0  0  0  0  0  0  0  0  0  0  0  0
   -1.4370    3.7830    0.4780 C   0  0  0  0  0  0  0  0  0  0  0  0
   -1.8330    2.3710    0.3940 C   0  0  0  0  0  0  0  0  0  0  0  0
   -0.9360    1.4100   -0.0280 C   0  0  0  0  0  0  0  0  0  0  0  0
   -1.3100    0.0800   -0.1060 C   0  0  0  0  0  0  0  0  0  0  0  0
   -0.5110   -0.9360   -0.5010 O   0  0  0  0  0  0  0  0  0  0  0  0
    0.7980   -1.0190   -0.8870 C   0  0  0  0  0  0  0  0  0  0  0  0
    1.7460   -0.6470    0.1940 C   0  0  0  0  0  0  0  0  0  0  0  0
    3.1430   -0.7440   -0.2440 N   0  0  0  0  0  0  0  0  0  0  0  0
    4.2260   -0.4480    0.5850 C   0  0  0  0  0  0  0  0  0  0  0  0
    4.0130   -0.0790    1.7650 O   0  0  0  0  0  0  0  0  0  0  0  0
    5.6360   -0.5560    0.1100 C   0  0  0  0  0  0  0  0  0  0  0  0
    6.1210   -0.9160   -1.0650 C   0  0  0  0  0  0  0  0  0  0  0  0
    7.4550   -0.9400   -1.2670 C   0  0  0  0  0  0  0  0  0  0  0  0
    8.2570   -0.5830   -0.2200 C   0  0  0  0  0  0  0  0  0  0  0  0
    9.6740   -0.4940   -0.0740 N   0  0  0  0  0  0  0  0  0  0  0  0
    7.0330   -0.2100    1.0660 S   0  0  0  0  0  0  0  0  0  0  0  0
   -2.6300   -0.2910    0.2510 C   0  0  0  0  0  0  0  0  0  0  0  0
   -2.9420   -1.6270    0.1510 O   0  0  0  0  0  0  0  0  0  0  0  0
   -4.1640   -2.2420    0.4400 C   0  0  1  0  0  0  0  0  0  0  0  0
   -4.7650   -2.9190   -0.7770 C   0  0  0  0  0  0  0  0  0  0  0  0
   -4.0290   -3.2740    1.5480 C   0  0  0  0  0  0  0  0  0  0  0  0
   -5.2410   -3.8660    1.8180 O   0  0  0  0  0  0  0  0  0  0  0  0
   -3.5150    0.6760    0.6690 C   0  0  0  0  0  0  0  0  0  0  0  0
   -3.1060    2.0040    0.7370 C   0  0  0  0  0  0  0  0  0  0  0  0
   -4.0730    3.0260    1.1910 C   0  0  0  0  0  0  0  0  0  0  0  0
  1  2  1  0
  2  3  1  0
  3  4  2  0
  3 25  1  0
  4  5  1  0
  5  6  1  0
  5 18  2  0
  6  7  1  0
  7  8  1  0
  8  9  1  0
  9 10  1  0
 10 11  2  0
 10 12  1  0
 12 13  2  0
 12 17  1  0
 13 14  1  0
 14 15  2  0
 15 16  1  0
 15 17  1  0
 18 19  1  0
 18 24  1  0
 19 20  1  0
 20 21  1  6
 20 22  1  0
 22 23  1  0
 24 25  2  0
 25 26  1  0
M  END
