
     RDKit          3D

 26 27  0  0  0  0  0  0  0  0999 V2000
    8.4630    0.1180    1.8060 C   0  0  0  0  0  0  0  0  0  0  0  0
    6.7120   -0.1910    2.1090 S   0  0  0  0  0  0  0  0  0  0  0  0
    5.9250   -0.6330    0.5300 C   0  0  0  0  0  0  0  0  0  0  0  0
    5.9580    0.5710   -0.3890 C   0  0  0  0  0  0  0  0  0  0  0  0
    5.3130    0.1990   -1.6820 C   0  0  0  0  0  0  0  0  0  0  0  0
    3.9480   -0.2210   -1.5870 N   0  0  0  0  0  0  0  0  0  0  0  0
    3.0060    0.7380   -1.0430 C   0  0  0  0  0  0  0  0  0  0  0  0
    3.4120    1.8650   -0.6900 O   0  0  0  0  0  0  0  0  0  0  0  0
    1.6530    0.4370   -0.9020 N   0  0  0  0  0  0  0  0  0  0  0  0
    0.6060    1.2370   -0.3990 C   0  0  0  0  0  0  0  0  0  0  0  0
    0.8100    2.5160    0.0330 C   0  0  0  0  0  0  0  0  0  0  0  0
   -0.2570    3.2920    0.5320 C   0  0  0  0  0  0  0  0  0  0  0  0
   -1.5140    2.7520    0.5810 C   0  0  0  0  0  0  0  0  0  0  0  0
   -1.7570    1.4610    0.1520 C   0  0  0  0  0  0  0  0  0  0  0  0
   -0.7040    0.7210   -0.3310 C   0  0  0  0  0  0  0  0  0  0  0  0
   -0.8610   -0.5490   -0.7710 O   0  0  0  0  0  0  0  0  0  0  0  0
   -2.0550   -1.3200   -0.8480 C   0  0  2  0  0  0  0  0  0  0  0  0
   -3.0610   -0.7140   -1.7670 C   0  0  0  0  0  0  0  0  0  0  0  0
   -4.4480   -0.6900   -1.3260 C   0  0  0  0  0  0  0  0  0  0  0  0
   -4.8190   -1.1430   -0.1610 C   0  0  0  0  0  0  0  0  0  0  0  0
   -6.2680   -1.0730    0.2000 C   0  0  0  0  0  0  0  0  0  0  0  0
   -7.1100   -0.4680   -0.8820 C   0  0  0  0  0  0  0  0  0  0  0  0
   -8.4370   -0.4730   -0.3920 O   0  0  0  0  0  0  0  0  0  0  0  0
   -3.9150   -1.7250    0.8450 C   0  0  0  0  0  0  0  0  0  0  0  0
   -2.5050   -1.8260    0.4580 C   0  0  2  0  0  0  0  0  0  0  0  0
   -1.7330   -1.1510    1.4490 O   0  0  0  0  0  0  0  0  0  0  0  0
  1  2  1  0
  2  3  1  0
  3  4  1  0
  4  5  1  0
  5  6  1  0
  6  7  1  0
  7  8  2  0
  7  9  1  0
  9 10  1  0
 10 11  2  0
 10 15  1  0
 11 12  1  0
 12 13  2  0
 13 14  1  0
 14 15  2  0
 15 16  1  0
 17 16  1  1
 17 18  1  0
 17 25  1  0
 18 19  1  0
 19 20  2  0
 20 21  1  0
 20 24  1  0
 21 22  1  0
 22 23  1  0
 24 25  1  0
 25 26  1  1
M  END
