
     RDKit          3D

 26 27  0  0  0  0  0  0  0  0999 V2000
   -3.5580   -2.7040    0.3640 C   0  0  0  0  0  0  0  0  0  0  0  0
   -4.5320   -2.0000   -0.1180 C   0  0  0  0  0  0  0  0  0  0  0  0
   -4.6900   -0.6280   -0.4550 C   0  0  0  0  0  0  0  0  0  0  0  0
   -5.9260   -0.2720   -0.9550 C   0  0  0  0  0  0  0  0  0  0  0  0
   -6.0990    1.1600   -1.3090 C   0  0  0  0  0  0  0  0  0  0  0  0
   -5.6350    2.1050   -0.2260 C   0  0  0  0  0  0  0  0  0  0  0  0
   -4.5130    1.5040    0.5850 C   0  0  0  0  0  0  0  0  0  0  0  0
   -3.7940    0.5050   -0.3790 C   0  0  1  0  0  0  0  0  0  0  0  0
   -2.4420    0.3750   -0.0120 N   0  0  0  0  0  0  0  0  0  0  0  0
   -1.5850    1.5010   -0.1580 C   0  0  0  0  0  0  0  0  0  0  0  0
   -2.2060    2.8850   -0.7510 S   0  0  0  0  0  0  0  0  0  0  0  0
   -0.2280    1.4400    0.1770 N   0  0  0  0  0  0  0  0  0  0  0  0
    0.3880    0.2340    0.6440 C   0  0  0  0  0  0  0  0  0  0  0  0
    0.5920   -0.8070   -0.4710 C   0  0  2  0  0  0  0  0  0  0  0  0
    1.1630   -1.9050    0.1060 O   0  0  0  0  0  0  0  0  0  0  0  0
    1.5040   -0.0970   -1.4700 C   0  0  0  0  0  0  0  0  0  0  0  0
    2.6560    0.3160   -0.9170 O   0  0  0  0  0  0  0  0  0  0  0  0
    3.7550   -0.3030   -0.4520 C   0  0  0  0  0  0  0  0  0  0  0  0
    3.9950   -1.6520   -0.5020 C   0  0  0  0  0  0  0  0  0  0  0  0
    5.1680   -2.2310    0.0160 C   0  0  0  0  0  0  0  0  0  0  0  0
    6.1270   -1.4340    0.5990 C   0  0  0  0  0  0  0  0  0  0  0  0
    7.2780   -2.0180    1.1050 O   0  0  0  0  0  0  0  0  0  0  0  0
    5.9250   -0.0700    0.6680 C   0  0  0  0  0  0  0  0  0  0  0  0
    6.9290    0.6760    1.2660 O   0  0  0  0  0  0  0  0  0  0  0  0
    6.9280    2.0590    1.4390 C   0  0  0  0  0  0  0  0  0  0  0  0
    4.7830    0.4530    0.1600 C   0  0  0  0  0  0  0  0  0  0  0  0
  1  2  2  0
  2  3  1  0
  3  4  2  0
  3  8  1  0
  4  5  1  0
  5  6  1  0
  6  7  1  0
  7  8  1  0
  8  9  1  1
  9 10  1  0
 10 11  2  0
 10 12  1  0
 12 13  1  0
 13 14  1  0
 14 15  1  1
 14 16  1  0
 16 17  1  0
 17 18  1  0
 18 19  2  0
 18 26  1  0
 19 20  1  0
 20 21  2  0
 21 22  1  0
 21 23  1  0
 23 24  1  0
 23 26  2  0
 24 25  1  0
M  END
