
     RDKit          3D

 26 27  0  0  0  0  0  0  0  0999 V2000
   -6.7040    0.5060   -2.4470 N   0  0  0  0  0  0  0  0  0  0  0  0
   -5.6860    0.3630   -2.0920 C   0  0  0  0  0  0  0  0  0  0  0  0
   -4.2710    0.1840   -1.5930 C   0  0  0  0  0  0  0  0  0  0  0  0
   -4.0560   -1.2180   -1.0670 C   0  0  1  0  0  0  0  0  0  0  0  0
   -5.3680   -1.3580   -0.1080 C   0  0  0  0  0  0  0  0  0  0  0  0
   -5.3480   -2.9480    0.6570 S   0  0  0  0  0  0  0  0  0  0  0  0
   -4.0900   -2.2560   -2.0880 C   0  0  0  0  0  0  0  0  0  0  0  0
   -5.3670   -2.5160   -2.8420 C   0  0  0  0  0  0  0  0  0  0  0  0
   -6.3460   -2.8920   -1.8960 O   0  0  0  0  0  0  0  0  0  0  0  0
   -3.0270   -1.3400   -0.0410 C   0  0  0  0  0  0  0  0  0  0  0  0
   -1.6340   -0.9400   -0.0900 C   0  0  0  0  0  0  0  0  0  0  0  0
   -1.1840    0.0850    0.6840 C   0  0  0  0  0  0  0  0  0  0  0  0
    0.1790    0.1500    0.6490 C   0  0  0  0  0  0  0  0  0  0  0  0
    1.1100    0.8840    1.3250 C   0  0  0  0  0  0  0  0  0  0  0  0
    2.5020    0.5500    1.1010 C   0  0  0  0  0  0  0  0  0  0  0  0
    3.3670    1.2670    1.8030 O   0  0  0  0  0  0  0  0  0  0  0  0
    4.6110    1.5840    2.1710 C   0  0  0  0  0  0  0  0  0  0  0  0
    5.4660    2.1860    1.1150 C   0  0  1  0  0  0  0  0  0  0  0  0
    4.8160    3.3660    0.7190 O   0  0  0  0  0  0  0  0  0  0  0  0
    6.8710    2.5050    1.4450 C   0  0  0  0  0  0  0  0  0  0  0  0
    7.0980    3.5860    2.4380 C   0  0  0  0  0  0  0  0  0  0  0  0
    6.5160    3.1560    3.6740 O   0  0  0  0  0  0  0  0  0  0  0  0
    2.8390   -0.4450    0.2490 C   0  0  0  0  0  0  0  0  0  0  0  0
    1.8500   -1.1360   -0.3810 C   0  0  0  0  0  0  0  0  0  0  0  0
    0.5270   -0.9390   -0.2630 C   0  0  0  0  0  0  0  0  0  0  0  0
   -0.5680   -1.5500   -0.6720 N   0  0  0  0  0  0  0  0  0  0  0  0
  1  2  3  0
  2  3  1  0
  4  3  1  6
  4  5  1  0
  4  7  1  0
  4 10  1  0
  5  6  1  0
  7  8  1  0
  8  9  1  0
 10 11  1  0
 11 12  2  0
 11 26  1  0
 12 13  1  0
 13 14  2  0
 13 25  1  0
 14 15  1  0
 15 16  1  0
 15 23  2  0
 16 17  1  0
 17 18  1  0
 18 19  1  1
 18 20  1  0
 20 21  1  0
 21 22  1  0
 23 24  1  0
 24 25  2  0
 25 26  1  0
M  END
