
     RDKit          3D

 26 27  0  0  0  0  0  0  0  0999 V2000
    9.4930   -0.3550   -1.7130 C   0  0  0  0  0  0  0  0  0  0  0  0
    8.1970   -0.3590   -0.9600 C   0  0  0  0  0  0  0  0  0  0  0  0
    7.8630   -0.8610    0.2620 C   0  0  0  0  0  0  0  0  0  0  0  0
    6.5900   -0.7050    0.6730 C   0  0  0  0  0  0  0  0  0  0  0  0
    5.7140   -0.0840   -0.0990 C   0  0  0  0  0  0  0  0  0  0  0  0
    4.2760    0.2150    0.1120 C   0  0  0  0  0  0  0  0  0  0  0  0
    3.6120   -0.1510    1.2540 C   0  0  0  0  0  0  0  0  0  0  0  0
    2.2550    0.1410    1.4320 C   0  0  0  0  0  0  0  0  0  0  0  0
    1.5490    0.8100    0.4530 C   0  0  0  0  0  0  0  0  0  0  0  0
    0.1080    1.1140    0.6560 C   0  0  0  0  0  0  0  0  0  0  0  0
   -0.6910   -0.0490    0.1130 C   0  0  0  0  0  0  0  0  0  0  0  0
   -2.1300    0.2210    0.3000 C   0  0  0  0  0  0  0  0  0  0  0  0
   -2.5200    1.3060    0.8490 O   0  0  0  0  0  0  0  0  0  0  0  0
   -3.1410   -0.6830   -0.1070 N   0  0  0  0  0  0  0  0  0  0  0  0
   -4.5820   -0.4100    0.0810 C   0  0  1  0  0  0  0  0  0  0  0  0
   -5.2420   -0.2790   -1.2620 C   0  0  0  0  0  0  0  0  0  0  0  0
   -6.7050   -0.0020   -1.1260 C   0  0  0  0  0  0  0  0  0  0  0  0
   -7.0350    1.2460   -0.3980 C   0  0  0  0  0  0  0  0  0  0  0  0
   -6.2290    2.0650    0.0510 O   0  0  0  0  0  0  0  0  0  0  0  0
   -8.3940    1.5000   -0.2150 O   0  0  0  0  0  0  0  0  0  0  0  0
   -5.1650   -1.4000    0.9900 C   0  0  0  0  0  0  0  0  0  0  0  0
   -6.5000   -1.4100    1.4470 N   0  0  0  0  0  0  0  0  0  0  0  0
   -4.4430   -2.3610    1.4400 O   0  0  0  0  0  0  0  0  0  0  0  0
    2.2210    1.1770   -0.6930 C   0  0  0  0  0  0  0  0  0  0  0  0
    3.5660    0.8830   -0.8600 C   0  0  0  0  0  0  0  0  0  0  0  0
    6.6400    0.3510   -1.5230 S   0  0  0  0  0  0  0  0  0  0  0  0
  1  2  1  0
  2  3  2  0
  2 26  1  0
  3  4  1  0
  4  5  2  0
  5  6  1  0
  5 26  1  0
  6  7  2  0
  6 25  1  0
  7  8  1  0
  8  9  2  0
  9 10  1  0
  9 24  1  0
 10 11  1  0
 11 12  1  0
 12 13  2  0
 12 14  1  0
 14 15  1  0
 15 16  1  6
 15 21  1  0
 16 17  1  0
 17 18  1  0
 18 19  2  0
 18 20  1  0
 21 22  1  0
 21 23  2  0
 24 25  2  0
M  END
