
     RDKit          3D

 26 27  0  0  0  0  0  0  0  0999 V2000
   -3.6120   -0.8110    2.3020 C   0  0  0  0  0  0  0  0  0  0  0  0
   -3.2020   -1.4250    1.2040 C   0  0  0  0  0  0  0  0  0  0  0  0
   -2.8740   -0.7650   -0.0300 C   0  0  0  0  0  0  0  0  0  0  0  0
   -2.4070   -1.4500   -1.0640 C   0  0  0  0  0  0  0  0  0  0  0  0
   -2.1900   -2.8990   -1.0290 C   0  0  0  0  0  0  0  0  0  0  0  0
   -3.0130    0.6980   -0.1550 C   0  0  0  0  0  0  0  0  0  0  0  0
   -4.1120    1.3480    0.3250 N   0  0  0  0  0  0  0  0  0  0  0  0
   -3.9580    2.6720    0.2250 C   0  0  0  0  0  0  0  0  0  0  0  0
   -4.8790    3.6650    0.6940 C   0  0  0  0  0  0  0  0  0  0  0  0
   -5.9500    3.2400    1.2910 O   0  0  0  0  0  0  0  0  0  0  0  0
   -4.8100    5.0270    0.6200 O   0  0  0  0  0  0  0  0  0  0  0  0
   -2.7320    2.8990   -0.3360 C   0  0  0  0  0  0  0  0  0  0  0  0
   -2.1520    1.6230   -0.5630 C   0  0  0  0  0  0  0  0  0  0  0  0
   -0.7690    1.5830   -1.0070 C   0  0  0  0  0  0  0  0  0  0  0  0
   -0.2660    2.4770   -1.7110 O   0  0  0  0  0  0  0  0  0  0  0  0
    0.0090    0.4860   -0.5970 N   0  0  0  0  0  0  0  0  0  0  0  0
    1.4110    0.3530   -0.9330 C   0  0  0  0  0  0  0  0  0  0  0  0
    1.9710   -0.8820   -0.3260 C   0  0  2  0  0  0  0  0  0  0  0  0
    1.6110   -0.7370    1.0970 O   0  0  0  0  0  0  0  0  0  0  0  0
    3.4630   -0.8690   -0.2300 C   0  0  0  0  0  0  0  0  0  0  0  0
    4.1110   -0.0830    0.6810 C   0  0  0  0  0  0  0  0  0  0  0  0
    5.4700   -0.2550    0.7940 C   0  0  0  0  0  0  0  0  0  0  0  0
    6.4130    0.4310    1.7400 C   0  0  0  0  0  0  0  0  0  0  0  0
    5.8930   -1.4950   -0.3500 S   0  0  0  0  0  0  0  0  0  0  0  0
    4.1910   -1.7530   -0.9600 C   0  0  0  0  0  0  0  0  0  0  0  0
    3.7920   -2.6390   -2.0430 C   0  0  0  0  0  0  0  0  0  0  0  0
  1  2  2  0
  2  3  1  0
  3  4  2  3
  3  6  1  0
  4  5  1  0
  6  7  1  0
  6 13  2  0
  7  8  1  0
  8  9  1  0
  8 12  2  0
  9 10  2  0
  9 11  1  0
 12 13  1  0
 13 14  1  0
 14 15  2  0
 14 16  1  0
 16 17  1  0
 17 18  1  0
 18 19  1  1
 18 20  1  0
 20 21  1  0
 20 25  2  0
 21 22  2  0
 22 23  1  0
 22 24  1  0
 24 25  1  0
 25 26  1  0
M  END
