
     RDKit          3D

 26 27  0  0  0  0  0  0  0  0999 V2000
   -4.6040   -0.6590   -3.2330 C   0  0  0  0  0  0  0  0  0  0  0  0
   -5.0060   -1.3840   -1.9550 C   0  0  0  0  0  0  0  0  0  0  0  0
   -4.5130   -0.6530   -0.7550 C   0  0  0  0  0  0  0  0  0  0  0  0
   -3.2720   -0.9110   -0.2060 C   0  0  0  0  0  0  0  0  0  0  0  0
   -2.8490   -0.2220    0.8970 C   0  0  0  0  0  0  0  0  0  0  0  0
   -1.5160   -0.4730    1.5140 C   0  0  0  0  0  0  0  0  0  0  0  0
   -0.7940   -1.4400    0.7510 N   0  0  0  0  0  0  0  0  0  0  0  0
    0.5050   -1.7580    1.2680 C   0  0  0  0  0  0  0  0  0  0  0  0
    1.4790   -0.6610    1.1580 C   0  0  0  0  0  0  0  0  0  0  0  0
    1.2970    0.5560    1.7520 O   0  0  0  0  0  0  0  0  0  0  0  0
    2.5990   -0.8510    0.4460 C   0  0  0  0  0  0  0  0  0  0  0  0
    3.6080    0.1800    0.2910 C   0  0  0  0  0  0  0  0  0  0  0  0
    3.4020    1.2770    0.8450 O   0  0  0  0  0  0  0  0  0  0  0  0
    4.8310   -0.1140   -0.5120 C   0  0  0  0  0  0  0  0  0  0  0  0
    5.7670    0.7730   -0.7030 C   0  0  0  0  0  0  0  0  0  0  0  0
    5.9600    2.1370   -0.2930 C   0  0  0  0  0  0  0  0  0  0  0  0
    7.1590    2.8130   -0.7110 N   0  0  0  0  0  0  0  0  0  0  0  0
    5.1710    2.8200    0.4120 O   0  0  0  0  0  0  0  0  0  0  0  0
    7.0390   -0.0520   -1.7190 S   0  0  0  0  0  0  0  0  0  0  0  0
    6.5240   -1.7480   -1.2060 C   0  0  0  0  0  0  0  0  0  0  0  0
    5.0410   -1.4380   -1.1420 C   0  0  0  0  0  0  0  0  0  0  0  0
   -3.6690    0.7210    1.4450 C   0  0  0  0  0  0  0  0  0  0  0  0
   -4.9230    1.0010    0.9130 C   0  0  0  0  0  0  0  0  0  0  0  0
   -5.7550    1.9500    1.4610 O   0  0  0  0  0  0  0  0  0  0  0  0
   -5.4090    2.7160    2.6040 C   0  0  0  0  0  0  0  0  0  0  0  0
   -5.3390    0.3020   -0.1980 C   0  0  0  0  0  0  0  0  0  0  0  0
  1  2  1  0
  2  3  1  0
  3  4  2  0
  3 26  1  0
  4  5  1  0
  5  6  1  0
  5 22  2  0
  6  7  1  0
  7  8  1  0
  8  9  1  0
  9 10  1  0
  9 11  2  3
 11 12  1  0
 12 13  2  0
 12 14  1  0
 14 15  2  0
 14 21  1  0
 15 16  1  0
 15 19  1  0
 16 17  1  0
 16 18  2  0
 19 20  1  0
 20 21  1  0
 22 23  1  0
 23 24  1  0
 23 26  2  0
 24 25  1  0
M  END
