
     RDKit          3D

 22 24  0  0  0  0  0  0  0  0999 V2000
   -5.2490   -1.4400   -1.6930 O   0  0  0  0  0  0  0  0  0  0  0  0
   -4.4720   -0.6580   -1.0430 C   0  0  0  0  0  0  0  0  0  0  0  0
   -4.7570   -0.5260    0.3870 C   0  0  0  0  0  0  0  0  0  0  0  0
   -3.5640    0.1140    1.0630 C   0  0  0  0  0  0  0  0  0  0  0  0
   -3.5390    1.5510    0.6700 C   0  0  0  0  0  0  0  0  0  0  0  0
   -2.7010    1.9170   -0.4820 C   0  0  0  0  0  0  0  0  0  0  0  0
   -2.3590    0.8380   -1.4560 C   0  0  1  0  0  0  0  0  0  0  0  0
   -1.1700    0.0500   -1.0730 C   0  0  0  0  0  0  0  0  0  0  0  0
   -0.0230    0.6160   -0.7730 C   0  0  0  0  0  0  0  0  0  0  0  0
    1.1380   -0.1830   -0.3980 C   0  0  0  0  0  0  0  0  0  0  0  0
    1.1450   -1.5760   -0.3240 C   0  0  0  0  0  0  0  0  0  0  0  0
    2.4110   -1.9590    0.0600 C   0  0  0  0  0  0  0  0  0  0  0  0
    3.1330   -0.8020    0.2080 C   0  0  0  0  0  0  0  0  0  0  0  0
    4.5560   -0.7030    0.6120 C   0  0  0  0  0  0  0  0  0  0  0  0
    5.3700   -1.6910    0.8970 C   0  0  0  0  0  0  0  0  0  0  0  0
    6.6040   -1.1100    1.2220 O   0  0  0  0  0  0  0  0  0  0  0  0
    6.5930    0.2160    0.8770 N   0  0  2  0  0  0  0  0  0  0  0  0
    7.2020    0.4790   -0.2810 O   0  0  0  0  0  0  0  0  0  0  0  0
    7.0500    0.9960    1.9040 O   0  0  0  0  0  0  0  0  0  0  0  0
    5.2510    0.4890    0.7500 O   0  0  0  0  0  0  0  0  0  0  0  0
    2.3350    0.1930   -0.0730 O   0  0  0  0  0  0  0  0  0  0  0  0
   -3.4390   -0.0250   -1.7990 N   0  0  0  0  0  0  0  0  0  0  0  0
  1  2  2  0
  2  3  1  0
  2 22  1  0
  3  4  1  0
  4  5  1  0
  5  6  1  0
  6  7  1  0
  7  8  1  1
  7 22  1  0
  8  9  2  3
  9 10  1  0
 10 11  2  0
 10 21  1  0
 11 12  1  0
 12 13  2  0
 13 14  1  0
 13 21  1  0
 14 15  2  0
 14 20  1  0
 15 16  1  0
 16 17  1  0
 17 18  1  6
 17 19  1  0
 17 20  1  0
M  CHG  2  17   1  18  -1
M  END
