
     RDKit          3D

  6  5  0  0  0  0  0  0  0  0999 V2000
    1.6910    1.4910    0.3290 C   0  0  0  0  0  0  0  0  0  0  0  0
    1.4600    0.1050   -0.1540 C   0  0  0  0  0  0  0  0  0  0  0  0
    0.2950   -0.5040   -0.0330 C   0  0  0  0  0  0  0  0  0  0  0  0
    0.1590   -1.8250   -0.5190 N   0  0  0  0  0  0  0  0  0  0  0  0
   -0.8640    0.1560    0.5960 C   0  0  0  0  0  0  0  0  0  0  0  0
   -1.9980    0.2830   -0.2760 N   0  0  0  0  0  0  0  0  0  0  0  0
  1  2  1  0
  2  3  2  3
  3  4  1  0
  3  5  1  0
  5  6  1  0
M  CHG  2   4   1   6   1
M  END
