
     RDKit          3D

  6  5  0  0  0  0  0  0  0  0999 V2000
   -1.7850    1.0920   -1.2180 C   0  0  0  0  0  0  0  0  0  0  0  0
   -1.1530    0.3480   -0.3560 C   0  0  0  0  0  0  0  0  0  0  0  0
   -1.8150   -0.4590    0.6240 N   0  0  0  0  0  0  0  0  0  0  0  0
    0.2940    0.3160   -0.3680 C   0  0  0  0  0  0  0  0  0  0  0  0
    0.9480   -0.4280    0.4930 C   0  0  0  0  0  0  0  0  0  0  0  0
    2.3470   -0.4990    0.5290 N   0  0  0  0  0  0  0  0  0  0  0  0
  1  2  2  0
  2  3  1  0
  2  4  1  0
  4  5  2  3
  5  6  1  0
M  CHG  1   6   1
M  END
