
     RDKit          3D

  6  5  0  0  0  0  0  0  0  0999 V2000
    2.8600    0.2620   -0.1000 C   0  0  0  0  0  0  0  0  0  0  0  0
    1.6900    0.8830    0.0900 C   0  0  0  0  0  0  0  0  0  0  0  0
    0.5200    0.1600    0.4240 N   0  0  0  0  0  0  0  0  0  0  0  0
   -0.4040   -0.1270   -0.4160 C   0  0  0  0  0  0  0  0  0  0  0  0
   -1.6120   -0.8870   -0.0230 C   0  0  0  0  0  0  0  0  0  0  0  0
   -2.5690   -0.0970    0.7020 N   0  0  0  0  0  0  0  0  0  0  0  0
  1  2  2  0
  2  3  1  0
  3  4  2  3
  4  5  1  0
  5  6  1  0
M  CHG  1   3   1
M  END
