
     RDKit          3D

  6  5  0  0  0  0  0  0  0  0999 V2000
    2.8830    0.3450    0.1920 N   0  0  0  0  0  0  0  0  0  0  0  0
    1.7950   -0.4090   -0.3050 C   0  0  0  0  0  0  0  0  0  0  0  0
    0.5520   -0.0520   -0.0700 C   0  0  0  0  0  0  0  0  0  0  0  0
   -0.5760   -0.8190   -0.5750 C   0  0  0  0  0  0  0  0  0  0  0  0
   -1.8240   -0.5070   -0.3700 C   0  0  0  0  0  0  0  0  0  0  0  0
   -2.1390    0.6440    0.3880 N   0  0  0  0  0  0  0  0  0  0  0  0
  1  2  1  0
  2  3  2  3
  3  4  1  0
  4  5  2  3
  5  6  1  0
M  CHG  1   6   1
M  END
