
     RDKit          3D

  6  5  0  0  0  0  0  0  0  0999 V2000
   -2.3520    0.3340   -0.4640 C   0  0  0  0  0  0  0  0  0  0  0  0
   -1.3190   -0.4830   -0.5730 C   0  0  0  0  0  0  0  0  0  0  0  0
    0.0030   -0.1460   -0.0630 C   0  0  0  0  0  0  0  0  0  0  0  0
    0.2620    1.0880    0.5850 N   0  0  0  0  0  0  0  0  0  0  0  0
    0.9740   -1.0190   -0.2160 C   0  0  0  0  0  0  0  0  0  0  0  0
    2.3020   -0.7620    0.2580 N   0  0  0  0  0  0  0  0  0  0  0  0
  1  2  2  0
  2  3  1  0
  3  4  1  0
  3  5  2  3
  5  6  1  0
M  CHG  1   4   1
M  END
