
     RDKit          3D

 13 13  0  0  0  0  0  0  0  0999 V2000
   -0.8850   -1.8860    0.4470 C   0  0  0  0  0  0  0  0  0  0  0  0
   -0.7570   -0.4480    0.1080 C   0  0  2  0  0  0  0  0  0  0  0  0
   -1.2790    0.3420    1.1490 O   0  0  0  0  0  0  0  0  0  0  0  0
   -1.4930   -0.1260   -1.0280 O   0  0  0  0  0  0  0  0  0  0  0  0
   -1.5690    1.2120   -1.2960 C   0  0  0  0  0  0  0  0  0  0  0  0
   -0.5820    2.0380   -0.5280 C   0  0  0  0  0  0  0  0  0  0  0  0
   -0.8500    3.2450   -0.2200 O   0  0  0  0  0  0  0  0  0  0  0  0
    0.6340    1.4290   -0.1680 N   0  0  0  0  0  0  0  0  0  0  0  0
    0.6700   -0.0100   -0.1590 C   0  0  2  0  0  0  0  0  0  0  0  0
    1.0590   -0.4000   -1.4610 O   0  0  0  0  0  0  0  0  0  0  0  0
    1.6270   -0.5610    0.8010 C   0  0  0  0  0  0  0  0  0  0  0  0
    2.5850   -1.3050    0.3870 N   0  0  0  0  0  0  0  0  0  0  0  0
    1.5540   -0.3190    2.1610 O   0  0  0  0  0  0  0  0  0  0  0  0
  2  1  1  1
  2  3  1  0
  2  4  1  0
  2  9  1  0
  4  5  1  0
  5  6  1  0
  6  7  2  0
  6  8  1  0
  8  9  1  0
  9 10  1  6
  9 11  1  0
 11 12  2  0
 11 13  1  0
M  END
