
     RDKit          3D

 13 13  0  0  0  0  0  0  0  0999 V2000
   -3.0520   -0.5230   -1.1590 N   0  0  0  0  0  0  0  0  0  0  0  0
   -2.3600    0.6360   -0.7170 C   0  0  0  0  0  0  0  0  0  0  0  0
   -2.5200    1.7380   -1.2860 O   0  0  0  0  0  0  0  0  0  0  0  0
   -1.4390    0.5370    0.4320 C   0  0  2  0  0  0  0  0  0  0  0  0
   -0.7910    1.8490    0.7690 C   0  0  0  0  0  0  0  0  0  0  0  0
    0.5720    1.5050    0.8990 O   0  0  0  0  0  0  0  0  0  0  0  0
    0.8350    0.2410    0.4000 C   0  0  0  0  0  0  0  0  0  0  0  0
    2.1520   -0.3260    0.2210 C   0  0  0  0  0  0  0  0  0  0  0  0
    2.2960   -1.5980   -0.2860 O   0  0  0  0  0  0  0  0  0  0  0  0
    3.1880    0.3500    0.5330 N   0  0  0  0  0  0  0  0  0  0  0  0
    4.4730   -0.0960    0.4030 O   0  0  0  0  0  0  0  0  0  0  0  0
   -0.3020   -0.3800    0.1060 C   0  0  0  0  0  0  0  0  0  0  0  0
   -0.4780   -1.6550   -0.4150 O   0  0  0  0  0  0  0  0  0  0  0  0
  1  2  1  0
  2  3  2  0
  4  2  1  6
  4  5  1  0
  4 12  1  0
  5  6  1  0
  6  7  1  0
  7  8  1  0
  7 12  2  0
  8  9  1  0
  8 10  2  3
 10 11  1  0
 12 13  1  0
M  END
