
     RDKit          3D

 12 12  0  0  0  0  0  0  0  0999 V2000
    3.4420    0.4950    0.0150 N   0  0  0  0  0  0  0  0  0  0  0  0
    2.2730    0.2640   -0.7560 C   0  0  0  0  0  0  0  0  0  0  0  0
    2.4120    0.0510   -1.9850 O   0  0  0  0  0  0  0  0  0  0  0  0
    0.9710    0.2820   -0.0990 C   0  0  1  0  0  0  0  0  0  0  0  0
   -0.0990    0.0480   -0.9290 O   0  0  0  0  0  0  0  0  0  0  0  0
   -1.2500    0.0940   -0.1440 C   0  0  1  0  0  0  0  0  0  0  0  0
   -2.4550    0.5420   -0.9270 C   0  0  0  0  0  0  0  0  0  0  0  0
   -2.1590    1.8310   -1.4120 O   0  0  0  0  0  0  0  0  0  0  0  0
   -1.4420   -1.2480    0.5110 C   0  0  0  0  0  0  0  0  0  0  0  0
   -0.1750   -1.6100    1.1220 N   0  0  0  0  0  0  0  0  0  0  0  0
    0.8990   -0.6790    1.0500 C   0  0  0  0  0  0  0  0  0  0  0  0
    1.8090   -0.6070    1.9020 O   0  0  0  0  0  0  0  0  0  0  0  0
  1  2  1  0
  2  3  2  0
  4  2  1  6
  4  5  1  0
  4 11  1  0
  5  6  1  0
  6  7  1  6
  6  9  1  0
  7  8  1  0
  9 10  1  0
 10 11  1  0
 11 12  2  0
M  END
