
     RDKit          3D

 13 13  0  0  0  0  0  0  0  0999 V2000
   -0.6600    1.3110    0.3430 C   0  0  0  0  0  0  0  0  0  0  0  0
   -0.4240   -0.0680   -0.1270 C   0  0  1  0  0  0  0  0  0  0  0  0
   -1.2580   -1.0170    0.7440 C   0  0  0  0  0  0  0  0  0  0  0  0
   -2.6550   -0.7260    0.6550 N   0  0  0  0  0  0  0  0  0  0  0  0
   -0.8760   -0.2470   -1.5100 N   0  0  0  0  0  0  0  0  0  0  0  0
    0.1100   -1.0140   -2.1790 C   0  0  0  0  0  0  0  0  0  0  0  0
    0.0830   -1.2910   -3.3920 O   0  0  0  0  0  0  0  0  0  0  0  0
    1.0650   -1.3800   -1.2630 O   0  0  0  0  0  0  0  0  0  0  0  0
    0.9640   -0.5590   -0.0890 C   0  0  1  0  0  0  0  0  0  0  0  0
    2.0350    0.4710   -0.1770 C   0  0  1  0  0  0  0  0  0  0  0  0
    1.9570    1.2930   -1.2790 O   0  0  0  0  0  0  0  0  0  0  0  0
    2.1360    1.2030    1.0040 O   0  0  0  0  0  0  0  0  0  0  0  0
    3.2750    1.0290    1.6190 O   0  0  0  0  0  0  0  0  0  0  0  0
  2  1  1  1
  2  3  1  0
  2  5  1  0
  2  9  1  0
  3  4  1  0
  5  6  1  0
  6  7  2  0
  6  8  1  0
  9  8  1  6
  9 10  1  0
 10 11  1  6
 10 12  1  0
 12 13  1  0
M  CHG  1   4   1
M  END
