
     RDKit          3D

 12 12  0  0  0  0  0  0  0  0999 V2000
    2.9700   -0.8840    0.5590 N   0  0  0  0  0  0  0  0  0  0  0  0
    1.5910   -0.7390    0.2390 C   0  0  0  0  0  0  0  0  0  0  0  0
    0.7720   -1.6420    0.6240 N   0  0  0  0  0  0  0  0  0  0  0  0
   -0.5930   -1.5390    0.3310 C   0  0  0  0  0  0  0  0  0  0  0  0
   -1.3750   -2.4780    0.7440 O   0  0  0  0  0  0  0  0  0  0  0  0
   -1.1660   -0.4180   -0.4200 C   0  0  1  0  0  0  0  0  0  0  0  0
   -2.3090    0.1700    0.3870 C   0  0  0  0  0  0  0  0  0  0  0  0
   -1.9080    0.6370    1.6230 O   0  0  0  0  0  0  0  0  0  0  0  0
   -0.1700    0.5540   -0.8150 C   0  0  0  0  0  0  0  0  0  0  0  0
   -0.5100    1.7180   -1.5510 O   0  0  0  0  0  0  0  0  0  0  0  0
    1.0990    0.4020   -0.5090 C   0  0  0  0  0  0  0  0  0  0  0  0
    2.0220    1.3780   -0.9200 O   0  0  0  0  0  0  0  0  0  0  0  0
  1  2  1  0
  2  3  2  0
  2 11  1  0
  3  4  1  0
  4  5  2  0
  4  6  1  0
  6  7  1  1
  6  9  1  0
  7  8  1  0
  9 10  1  0
  9 11  2  0
 11 12  1  0
M  END
