
     RDKit          3D

 10  9  0  0  0  0  0  0  0  0999 V2000
   -4.9480   -0.2300    0.2490 N   0  0  0  0  0  0  0  0  0  0  0  0
   -3.5550   -0.3930   -0.2140 C   0  0  0  0  0  0  0  0  0  0  0  0
   -2.8040    0.7570    0.4160 C   0  0  0  0  0  0  0  0  0  0  0  0
   -1.3650    0.6890   -0.0150 C   0  0  0  0  0  0  0  0  0  0  0  0
   -0.6690   -0.5660    0.3790 C   0  0  0  0  0  0  0  0  0  0  0  0
    0.6960   -0.5520   -0.0610 N   0  0  0  0  0  0  0  0  0  0  0  0
    1.4880    0.4000    0.6470 C   0  0  0  0  0  0  0  0  0  0  0  0
    2.9200    0.3960    0.1680 C   0  0  0  0  0  0  0  0  0  0  0  0
    3.5910   -0.9490    0.3500 C   0  0  0  0  0  0  0  0  0  0  0  0
    4.9590   -0.7790   -0.1620 N   0  0  0  0  0  0  0  0  0  0  0  0
  1  2  1  0
  2  3  1  0
  3  4  1  0
  4  5  1  0
  5  6  1  0
  6  7  1  0
  7  8  1  0
  8  9  1  0
  9 10  1  0
M  END
