
     RDKit          3D

 12 12  0  0  0  0  0  0  0  0999 V2000
   -4.5350    1.2300    0.2430 O   0  0  0  0  0  0  0  0  0  0  0  0
   -3.4830    0.4980    0.8110 C   0  0  0  0  0  0  0  0  0  0  0  0
   -2.2610    0.5600   -0.0790 C   0  0  0  0  0  0  0  0  0  0  0  0
   -1.2580   -0.1780    0.5280 O   0  0  0  0  0  0  0  0  0  0  0  0
   -0.0820   -0.1980   -0.1920 C   0  0  2  0  0  0  0  0  0  0  0  0
    0.2260   -1.5930   -0.5000 N   0  0  0  0  0  0  0  0  0  0  0  0
    1.2350   -2.0110    0.4600 C   0  0  0  0  0  0  0  0  0  0  0  0
    2.4180   -1.3710    0.1030 O   0  0  0  0  0  0  0  0  0  0  0  0
    2.1400   -0.0090   -0.0030 C   0  0  2  0  0  0  0  0  0  0  0  0
    3.2620    0.7300    0.6930 C   0  0  0  0  0  0  0  0  0  0  0  0
    3.0060    2.0830    0.6000 O   0  0  0  0  0  0  0  0  0  0  0  0
    0.9340    0.3030    0.6200 O   0  0  0  0  0  0  0  0  0  0  0  0
  1  2  1  0
  2  3  1  0
  3  4  1  0
  5  4  1  1
  5  6  1  0
  5 12  1  0
  6  7  1  0
  7  8  1  0
  8  9  1  0
  9 10  1  1
  9 12  1  0
 10 11  1  0
M  END
