
     RDKit          3D

 38 42  0  0  0  0  0  0  0  0999 V2000
   -7.0430    1.5010    1.5450 C   0  0  0  0  0  0  0  0  0  0  0  0
   -5.5920    1.5430    1.1760 C   0  0  0  0  0  0  0  0  0  0  0  0
   -4.7650    2.5390    1.6530 C   0  0  0  0  0  0  0  0  0  0  0  0
   -3.3950    2.4850    1.4200 C   0  0  0  0  0  0  0  0  0  0  0  0
   -2.9030    1.3850    0.6920 C   0  0  0  0  0  0  0  0  0  0  0  0
   -3.6960    0.4100    0.2230 C   0  0  0  0  0  0  0  0  0  0  0  0
   -3.3470   -0.8370   -0.5370 C   0  0  0  0  0  0  0  0  0  0  0  0
   -2.3920   -1.6160    0.2120 O   0  0  0  0  0  0  0  0  0  0  0  0
   -1.1610   -1.2180    0.5760 C   0  0  0  0  0  0  0  0  0  0  0  0
   -0.8110   -0.0860    0.1650 O   0  0  0  0  0  0  0  0  0  0  0  0
   -0.1340   -1.9300    1.4470 C   0  0  0  0  0  0  0  0  0  0  0  0
    0.8030   -0.7260    1.6150 O   0  0  0  0  0  0  0  0  0  0  0  0
    1.3030   -0.4050    0.3720 C   0  0  0  0  0  0  0  0  0  0  0  0
    1.0210   -1.2030   -0.6100 O   0  0  0  0  0  0  0  0  0  0  0  0
    2.1240    0.7540   -0.0130 C   0  0  0  0  0  0  0  0  0  0  0  0
    3.1820    0.1530   -0.8560 N   0  0  1  0  0  0  0  0  0  0  0  0
    2.8460    0.2370   -2.2320 C   0  0  0  0  0  0  0  0  0  0  0  0
    4.3830    0.7760   -0.4270 C   0  0  0  0  0  0  0  0  0  0  0  0
    4.5140    1.9440    0.2340 N   0  0  0  0  0  0  0  0  0  0  0  0
    5.7510    2.0460    0.6980 N   0  0  0  0  0  0  0  0  0  0  0  0
    6.4330    0.9130    0.3350 C   0  0  0  0  0  0  0  0  0  0  0  0
    5.5640    0.1620   -0.3520 N   0  0  0  0  0  0  0  0  0  0  0  0
    6.2470   -1.0460   -0.7040 C   0  0  0  0  0  0  0  0  0  0  0  0
    5.7060   -1.9830   -1.3720 O   0  0  0  0  0  0  0  0  0  0  0  0
    7.6150   -0.9880   -0.1830 C   0  0  0  0  0  0  0  0  0  0  0  0
    8.6770   -1.8610   -0.2150 C   0  0  0  0  0  0  0  0  0  0  0  0
    9.8520   -1.5420    0.3840 C   0  0  0  0  0  0  0  0  0  0  0  0
   10.0070   -0.3150    1.0330 C   0  0  0  0  0  0  0  0  0  0  0  0
    8.9240    0.5680    1.0600 C   0  0  0  0  0  0  0  0  0  0  0  0
    7.7100    0.2260    0.4490 C   0  0  0  0  0  0  0  0  0  0  0  0
   -5.0840    0.5020    0.4720 C   0  0  0  0  0  0  0  0  0  0  0  0
   -6.0380   -0.3830   -0.2040 C   0  0  0  0  0  0  0  0  0  0  0  0
   -6.8110   -1.3400    0.3460 C   0  0  0  0  0  0  0  0  0  0  0  0
   -7.7050   -2.0580   -0.4510 C   0  0  0  0  0  0  0  0  0  0  0  0
   -7.8490   -1.8530   -1.7680 N   0  0  0  0  0  0  0  0  0  0  0  0
   -7.0740   -0.8890   -2.3500 C   0  0  0  0  0  0  0  0  0  0  0  0
   -7.2030   -0.5410   -4.0370 Cl  0  0  0  0  0  0  0  0  0  0  0  0
   -6.1890   -0.1680   -1.6010 C   0  0  0  0  0  0  0  0  0  0  0  0
  1  2  1  0
  2  3  2  0
  2 31  1  0
  3  4  1  0
  4  5  2  0
  5  6  1  0
  6  7  1  0
  6 31  2  0
  7  8  1  0
  8  9  1  0
  9 10  2  0
  9 11  1  0
 11 12  1  0
 12 13  1  0
 13 14  2  0
 13 15  1  0
 15 16  1  0
 16 17  1  6
 16 18  1  0
 18 19  2  0
 18 22  1  0
 19 20  1  0
 20 21  2  0
 21 22  1  0
 21 30  1  0
 22 23  1  0
 23 24  2  0
 23 25  1  0
 25 26  2  0
 25 30  1  0
 26 27  1  0
 27 28  2  0
 28 29  1  0
 29 30  2  0
 31 32  1  0
 32 33  2  0
 32 38  1  0
 33 34  1  0
 34 35  2  0
 35 36  1  0
 36 37  1  0
 36 38  2  0
M  CHG  2  16   1  35   1
M  END
