
     RDKit          3D

 38 41  0  0  0  0  0  0  0  0999 V2000
   -5.7140    1.9520    2.1300 C   0  0  0  0  0  0  0  0  0  0  0  0
   -4.6640    2.0730    1.0520 C   0  0  1  0  0  0  0  0  0  0  0  0
   -4.0660    3.4710    1.0110 C   0  0  0  0  0  0  0  0  0  0  0  0
   -3.5580    1.0300    1.2510 C   0  0  0  0  0  0  0  0  0  0  0  0
   -2.5880    1.1560    0.2370 N   0  0  0  0  0  0  0  0  0  0  0  0
   -1.2210    1.0780    0.5720 C   0  0  0  0  0  0  0  0  0  0  0  0
   -0.3670    2.1390   -0.0860 C   0  0  1  0  0  0  0  0  0  0  0  0
   -0.8350    3.4140    0.3180 O   0  0  0  0  0  0  0  0  0  0  0  0
    1.0540    2.0710    0.3840 C   0  0  2  0  0  0  0  0  0  0  0  0
    1.7820    3.2400   -0.2470 C   0  0  0  0  0  0  0  0  0  0  0  0
    1.7800    3.2100   -1.7240 C   0  0  0  0  0  0  0  0  0  0  0  0
    0.8210    3.8300   -2.4840 C   0  0  0  0  0  0  0  0  0  0  0  0
    0.8400    3.7800   -3.8760 C   0  0  0  0  0  0  0  0  0  0  0  0
    1.8420    3.0950   -4.5430 C   0  0  0  0  0  0  0  0  0  0  0  0
    2.7960    2.4790   -3.7980 C   0  0  0  0  0  0  0  0  0  0  0  0
    2.7750    2.5290   -2.4260 C   0  0  0  0  0  0  0  0  0  0  0  0
    1.6860    0.8170    0.0730 N   0  0  0  0  0  0  0  0  0  0  0  0
    2.1840   -0.0370    1.0760 C   0  0  0  0  0  0  0  0  0  0  0  0
    2.1020    0.2520    2.3180 O   0  0  0  0  0  0  0  0  0  0  0  0
    2.7980   -1.2510    0.8080 O   0  0  0  0  0  0  0  0  0  0  0  0
    3.2750   -2.0640    1.8250 C   0  0  1  0  0  0  0  0  0  0  0  0
    2.7850   -3.4860    1.7640 C   0  0  0  0  0  0  0  0  0  0  0  0
    3.6940   -4.1210    0.9350 O   0  0  0  0  0  0  0  0  0  0  0  0
    4.9110   -3.7540    1.5100 C   0  0  1  0  0  0  0  0  0  0  0  0
    5.9900   -3.9560    0.6700 O   0  0  0  0  0  0  0  0  0  0  0  0
    6.0290   -2.9040   -0.2270 C   0  0  0  0  0  0  0  0  0  0  0  0
    5.2810   -1.7570    0.3480 C   0  0  0  0  0  0  0  0  0  0  0  0
    4.7690   -2.2510    1.6590 C   0  0  1  0  0  0  0  0  0  0  0  0
   -2.8980    0.2020   -1.1610 S   0  0  1  0  0  0  0  0  0  0  0  0
   -4.1940    0.5530   -1.8190 O   0  0  0  0  0  0  0  0  0  0  0  0
   -1.8020    0.3750   -2.1910 O   0  0  0  0  0  0  0  0  0  0  0  0
   -2.9290   -1.5230   -0.7880 C   0  0  0  0  0  0  0  0  0  0  0  0
   -4.1270   -2.0990   -0.4310 C   0  0  0  0  0  0  0  0  0  0  0  0
   -4.1800   -3.4430   -0.1360 C   0  0  0  0  0  0  0  0  0  0  0  0
   -3.0440   -4.2170   -0.1930 C   0  0  0  0  0  0  0  0  0  0  0  0
   -3.1530   -5.6030    0.1220 N   0  0  0  0  0  0  0  0  0  0  0  0
   -1.8510   -3.6230   -0.5530 C   0  0  0  0  0  0  0  0  0  0  0  0
   -1.8020   -2.2920   -0.8460 C   0  0  0  0  0  0  0  0  0  0  0  0
  2  1  1  1
  2  3  1  0
  2  4  1  0
  4  5  1  0
  5  6  1  0
 29  5  1  1
  6  7  1  0
  7  8  1  1
  7  9  1  0
  9 10  1  6
  9 17  1  0
 10 11  1  0
 11 12  2  0
 11 16  1  0
 12 13  1  0
 13 14  2  0
 14 15  1  0
 15 16  2  0
 17 18  1  0
 18 19  2  0
 18 20  1  0
 21 20  1  6
 21 22  1  0
 21 28  1  0
 22 23  1  0
 24 23  1  6
 24 25  1  0
 24 28  1  0
 25 26  1  0
 26 27  1  0
 28 27  1  6
 29 30  2  0
 29 31  2  0
 29 32  1  0
 32 33  2  0
 32 38  1  0
 33 34  1  0
 34 35  2  0
 35 36  1  0
 35 37  1  0
 37 38  2  0
M  END
