
     RDKit          3D

 38 42  0  0  0  0  0  0  0  0999 V2000
   -7.6520    2.1420   -0.8900 C   0  0  0  0  0  0  0  0  0  0  0  0
   -8.0370    0.9560   -0.0360 C   0  0  0  0  0  0  0  0  0  0  0  0
   -6.9140   -0.0260    0.0760 C   0  0  0  0  0  0  0  0  0  0  0  0
   -5.7480    0.2170   -0.5460 N   0  0  0  0  0  0  0  0  0  0  0  0
   -4.7700   -0.7300   -0.3950 C   0  0  0  0  0  0  0  0  0  0  0  0
   -4.9970   -1.8540    0.3570 C   0  0  0  0  0  0  0  0  0  0  0  0
   -6.2010   -2.0410    0.9620 C   0  0  0  0  0  0  0  0  0  0  0  0
   -6.4620   -3.0640    1.6680 O   0  0  0  0  0  0  0  0  0  0  0  0
   -7.1160   -1.0910    0.7830 O   0  0  0  0  0  0  0  0  0  0  0  0
   -3.8920   -2.8180    0.4840 C   0  0  0  0  0  0  0  0  0  0  0  0
   -2.6540   -1.9480    0.7700 C   0  0  0  0  0  0  0  0  0  0  0  0
   -2.3240   -1.0800   -0.3200 N   0  0  2  0  0  0  0  0  0  0  0  0
   -1.5730    0.0350    0.2280 C   0  0  0  0  0  0  0  0  0  0  0  0
   -0.1230   -0.1910    0.3400 C   0  0  0  0  0  0  0  0  0  0  0  0
    0.4440   -1.3580   -0.0390 N   0  0  0  0  0  0  0  0  0  0  0  0
    1.7670   -1.2910    0.1700 C   0  0  0  0  0  0  0  0  0  0  0  0
    2.7000   -2.4040   -0.1380 C   0  0  2  0  0  0  0  0  0  0  0  0
    3.3610   -2.8230    1.1530 C   0  0  0  0  0  0  0  0  0  0  0  0
    4.8710   -2.8020    1.0370 C   0  0  0  0  0  0  0  0  0  0  0  0
    5.3780   -1.4460    0.6000 C   0  0  0  0  0  0  0  0  0  0  0  0
    4.6300   -1.0400   -0.5600 N   0  0  0  0  0  0  0  0  0  0  0  0
    4.7660    0.2610   -1.1120 C   0  0  0  0  0  0  0  0  0  0  0  0
    4.0940    0.6090   -2.1410 O   0  0  0  0  0  0  0  0  0  0  0  0
    5.6660    1.2510   -0.5460 C   0  0  0  0  0  0  0  0  0  0  0  0
    6.4550    1.1090    0.5080 O   0  0  0  0  0  0  0  0  0  0  0  0
    7.1320    2.2120    0.7370 C   0  0  0  0  0  0  0  0  0  0  0  0
    6.7930    3.1600   -0.2030 C   0  0  0  0  0  0  0  0  0  0  0  0
    5.8600    2.5300   -1.0100 C   0  0  0  0  0  0  0  0  0  0  0  0
    5.1780    3.1310   -2.1840 C   0  0  0  0  0  0  0  0  0  0  0  0
    3.7270   -1.9830   -1.1720 C   0  0  0  0  0  0  0  0  0  0  0  0
    2.0060   -0.1040    0.6690 N   0  0  0  0  0  0  0  0  0  0  0  0
    0.8410    0.6480    0.8030 C   0  0  0  0  0  0  0  0  0  0  0  0
    0.8520    1.9700    1.3240 C   0  0  0  0  0  0  0  0  0  0  0  0
    0.1460    2.9700    1.6290 C   0  0  0  0  0  0  0  0  0  0  0  0
   -1.1980    3.4360    1.6430 C   0  0  0  0  0  0  0  0  0  0  0  0
   -2.2090    2.8250    1.2760 O   0  0  0  0  0  0  0  0  0  0  0  0
   -1.5470    5.1120    2.2560 Cl  0  0  0  0  0  0  0  0  0  0  0  0
   -3.4800   -0.5650   -1.0420 C   0  0  0  0  0  0  0  0  0  0  0  0
  1  2  1  0
  2  3  1  0
  3  4  2  0
  3  9  1  0
  4  5  1  0
  5  6  2  0
  5 38  1  0
  6  7  1  0
  6 10  1  0
  7  8  2  0
  7  9  1  0
 10 11  1  0
 11 12  1  0
 12 13  1  1
 12 38  1  0
 13 14  1  0
 14 15  1  0
 14 32  2  0
 15 16  1  0
 17 16  1  1
 16 31  2  0
 17 18  1  0
 17 30  1  0
 18 19  1  0
 19 20  1  0
 20 21  1  0
 21 22  1  0
 21 30  1  0
 22 23  2  0
 22 24  1  0
 24 25  1  0
 24 28  2  0
 25 26  1  0
 26 27  2  0
 27 28  1  0
 28 29  1  0
 31 32  1  0
 32 33  1  0
 33 34  2  3
 34 35  1  0
 35 36  2  0
 35 37  1  0
M  CHG  2   4   1  12   1
M  END
