
     RDKit          3D

 38 42  0  0  0  0  0  0  0  0999 V2000
    6.2130   -2.0740   -3.0610 C   0  0  0  0  0  0  0  0  0  0  0  0
    6.9710   -1.2970   -2.1910 O   0  0  0  0  0  0  0  0  0  0  0  0
    7.1830   -1.9850   -0.9990 C   0  0  0  0  0  0  0  0  0  0  0  0
    7.9830   -1.1810   -0.0610 C   0  0  0  0  0  0  0  0  0  0  0  0
    9.3790   -1.2760   -0.0710 C   0  0  0  0  0  0  0  0  0  0  0  0
   10.1050   -0.5120    0.8170 C   0  0  0  0  0  0  0  0  0  0  0  0
    9.4530    0.3210    1.6870 C   0  0  0  0  0  0  0  0  0  0  0  0
   10.2850    1.3280    2.8480 Cl  0  0  0  0  0  0  0  0  0  0  0  0
    8.0560    0.3790    1.6570 C   0  0  0  0  0  0  0  0  0  0  0  0
    7.3480   -0.3640    0.7930 N   0  0  0  0  0  0  0  0  0  0  0  0
    5.9230   -0.3080    0.7580 C   0  0  0  0  0  0  0  0  0  0  0  0
    5.3630    0.6010   -0.1110 C   0  0  0  0  0  0  0  0  0  0  0  0
    3.9750    0.7100   -0.1960 C   0  0  0  0  0  0  0  0  0  0  0  0
    3.2200   -0.1170    0.6140 C   0  0  0  0  0  0  0  0  0  0  0  0
    1.7540   -0.1100    0.6310 C   0  0  0  0  0  0  0  0  0  0  0  0
    1.1790   -0.8960    1.4150 O   0  0  0  0  0  0  0  0  0  0  0  0
    1.0370    0.7390   -0.1920 N   0  0  0  0  0  0  0  0  0  0  0  0
   -0.3720    0.8390   -0.2520 C   0  0  0  0  0  0  0  0  0  0  0  0
   -0.9440    1.4540   -1.3810 C   0  0  0  0  0  0  0  0  0  0  0  0
   -2.2730    1.6130   -1.5110 C   0  0  0  0  0  0  0  0  0  0  0  0
   -3.1620    1.1670   -0.5150 C   0  0  0  0  0  0  0  0  0  0  0  0
   -4.4520    1.3270   -0.6540 O   0  0  0  0  0  0  0  0  0  0  0  0
   -5.7120    1.4820   -0.7850 C   0  0  1  0  0  0  0  0  0  0  0  0
   -6.2090    2.9480   -0.9290 C   0  0  0  0  0  0  0  0  0  0  0  0
   -7.6120    2.6420   -1.4460 C   0  0  0  0  0  0  0  0  0  0  0  0
   -7.2850    1.7990   -2.5730 N   0  0  0  0  0  0  0  0  0  0  0  0
   -6.2530    0.9130   -2.1150 C   0  0  0  0  0  0  0  0  0  0  0  0
   -2.5810    0.5590    0.5980 C   0  0  0  0  0  0  0  0  0  0  0  0
   -3.3870    0.0550    1.7000 C   0  0  0  0  0  0  0  0  0  0  0  0
   -2.8250   -0.4860    2.6780 O   0  0  0  0  0  0  0  0  0  0  0  0
   -4.7480    0.1390    1.7330 O   0  0  0  0  0  0  0  0  0  0  0  0
   -5.5880   -0.3370    2.7520 C   0  0  0  0  0  0  0  0  0  0  0  0
   -5.6700   -1.8100    2.9220 C   0  0  1  0  0  0  0  0  0  0  0  0
   -6.1850   -2.7310    1.8720 C   0  0  0  0  0  0  0  0  0  0  0  0
   -4.7340   -2.6440    2.0770 C   0  0  0  0  0  0  0  0  0  0  0  0
   -1.2000    0.3940    0.7340 C   0  0  0  0  0  0  0  0  0  0  0  0
    3.8400   -0.9890    1.4460 N   0  0  0  0  0  0  0  0  0  0  0  0
    5.1370   -1.0670    1.5020 N   0  0  0  0  0  0  0  0  0  0  0  0
  1  2  1  0
  2  3  1  0
  3  4  1  0
  4  5  2  0
  4 10  1  0
  5  6  1  0
  6  7  2  0
  7  8  1  0
  7  9  1  0
  9 10  2  0
 10 11  1  0
 11 12  2  0
 11 38  1  0
 12 13  1  0
 13 14  2  0
 14 15  1  0
 14 37  1  0
 15 16  2  0
 15 17  1  0
 17 18  1  0
 18 19  2  0
 18 36  1  0
 19 20  1  0
 20 21  2  0
 21 22  1  0
 21 28  1  0
 23 22  1  6
 23 24  1  0
 23 27  1  0
 24 25  1  0
 25 26  1  0
 26 27  1  0
 28 29  1  0
 28 36  2  0
 29 30  2  0
 29 31  1  0
 31 32  1  0
 33 32  1  6
 33 34  1  0
 33 35  1  0
 34 35  1  0
 37 38  2  0
M  CHG  2  10   1  26   1
M  END
