
     RDKit          3D

 38 42  0  0  0  0  0  0  0  0999 V2000
    5.6480   -3.6730    0.0740 C   0  0  0  0  0  0  0  0  0  0  0  0
    5.0290   -3.1580    1.2300 O   0  0  0  0  0  0  0  0  0  0  0  0
    5.6040   -1.9670    1.6200 C   0  0  2  0  0  0  0  0  0  0  0  0
    6.3610   -2.1550    2.9420 C   0  0  0  0  0  0  0  0  0  0  0  0
    4.6810   -0.7910    1.7080 C   0  0  0  0  0  0  0  0  0  0  0  0
    4.0240   -0.4670    0.5170 O   0  0  0  0  0  0  0  0  0  0  0  0
    3.1040   -1.2060   -0.1690 C   0  0  0  0  0  0  0  0  0  0  0  0
    2.7630   -2.3220    0.2890 O   0  0  0  0  0  0  0  0  0  0  0  0
    2.4800   -0.7380   -1.4530 C   0  0  0  0  0  0  0  0  0  0  0  0
    1.3050    0.0860   -1.1860 N   0  0  0  0  0  0  0  0  0  0  0  0
    0.0950   -0.3790   -1.0760 C   0  0  0  0  0  0  0  0  0  0  0  0
   -0.1460   -1.6040   -1.1990 O   0  0  0  0  0  0  0  0  0  0  0  0
   -1.0430    0.4730   -0.8080 C   0  0  0  0  0  0  0  0  0  0  0  0
   -2.2920   -0.2470   -0.7310 C   0  0  0  0  0  0  0  0  0  0  0  0
   -3.5850    0.1400   -0.5120 N   0  0  2  0  0  0  0  0  0  0  0  0
   -4.0630    0.2630    0.8500 C   0  0  0  0  0  0  0  0  0  0  0  0
   -3.5760   -0.9230    1.6610 C   0  0  0  0  0  0  0  0  0  0  0  0
   -4.0870   -2.1130    1.1120 N   0  0  0  0  0  0  0  0  0  0  0  0
   -3.4070   -3.3250    1.3530 C   0  0  0  0  0  0  0  0  0  0  0  0
   -3.8950   -4.2210    0.3260 N   0  0  0  0  0  0  0  0  0  0  0  0
   -4.1500   -3.3270   -0.8130 C   0  0  0  0  0  0  0  0  0  0  0  0
   -4.7150   -2.0600   -0.1330 C   0  0  1  0  0  0  0  0  0  0  0  0
   -6.2180   -2.3620    0.0490 C   0  0  0  0  0  0  0  0  0  0  0  0
   -4.5020   -0.9440   -1.0510 C   0  0  0  0  0  0  0  0  0  0  0  0
   -0.7440    1.7910   -0.6810 C   0  0  0  0  0  0  0  0  0  0  0  0
   -1.7600    2.6740   -0.4220 C   0  0  0  0  0  0  0  0  0  0  0  0
   -1.5190    4.0090   -0.2810 C   0  0  0  0  0  0  0  0  0  0  0  0
   -0.2440    4.4720   -0.4000 C   0  0  0  0  0  0  0  0  0  0  0  0
    0.0370    5.8160   -0.2630 C   0  0  0  0  0  0  0  0  0  0  0  0
    1.3120    6.3070   -0.3780 C   0  0  0  0  0  0  0  0  0  0  0  0
    1.6040    8.0230   -0.1930 Cl  0  0  0  0  0  0  0  0  0  0  0  0
    2.3330    5.4390   -0.6360 C   0  0  0  0  0  0  0  0  0  0  0  0
    3.7180    6.0060   -0.7550 C   0  0  0  0  0  0  0  0  0  0  0  0
    2.0860    4.0730   -0.7800 C   0  0  0  0  0  0  0  0  0  0  0  0
    0.8180    3.5930   -0.6650 C   0  0  0  0  0  0  0  0  0  0  0  0
    0.5440    2.2760   -0.7990 N   0  0  0  0  0  0  0  0  0  0  0  0
    1.5460    1.4290   -1.0480 C   0  0  0  0  0  0  0  0  0  0  0  0
    2.7200    1.8110   -1.1630 O   0  0  0  0  0  0  0  0  0  0  0  0
  1  2  1  0
  2  3  1  0
  3  4  1  1
  3  5  1  0
  5  6  1  0
  6  7  1  0
  7  8  2  0
  7  9  1  0
  9 10  1  0
 10 11  1  0
 10 37  1  0
 11 12  2  0
 11 13  1  0
 13 14  1  0
 13 25  2  0
 15 14  1  1
 15 16  1  0
 15 24  1  0
 16 17  1  0
 17 18  1  0
 18 19  1  0
 18 22  1  0
 19 20  1  0
 20 21  1  0
 21 22  1  0
 22 23  1  1
 22 24  1  0
 25 26  1  0
 25 36  1  0
 26 27  2  0
 27 28  1  0
 28 29  2  0
 28 35  1  0
 29 30  1  0
 30 31  1  0
 30 32  2  0
 32 33  1  0
 32 34  1  0
 34 35  2  0
 35 36  1  0
 36 37  1  0
 37 38  2  0
M  CHG  2  15   1  20   1
M  END
