
     RDKit          3D

 38 42  0  0  0  0  0  0  0  0999 V2000
   10.8660    0.4570    0.6330 C   0  0  0  0  0  0  0  0  0  0  0  0
   10.0850   -0.7540    0.8040 N   0  0  0  0  0  0  0  0  0  0  0  0
    9.1520   -0.8790   -0.2970 C   0  0  0  0  0  0  0  0  0  0  0  0
    7.8060   -0.4110    0.0880 C   0  0  0  0  0  0  0  0  0  0  0  0
    7.4420    0.8840   -0.1990 C   0  0  0  0  0  0  0  0  0  0  0  0
    6.1760    1.3610    0.1550 C   0  0  0  0  0  0  0  0  0  0  0  0
    5.3020    0.5140    0.7940 C   0  0  0  0  0  0  0  0  0  0  0  0
    4.0330    0.9240    1.1720 O   0  0  0  0  0  0  0  0  0  0  0  0
    2.9850    0.7610    0.2900 C   0  0  0  0  0  0  0  0  0  0  0  0
    2.6760    1.7670   -0.5920 C   0  0  0  0  0  0  0  0  0  0  0  0
    1.6300    1.6430   -1.4950 C   0  0  0  0  0  0  0  0  0  0  0  0
    0.8910    0.4640   -1.4910 C   0  0  0  0  0  0  0  0  0  0  0  0
   -0.1330    0.3750   -2.3930 O   0  0  0  0  0  0  0  0  0  0  0  0
   -1.4350    0.2140   -1.9890 C   0  0  0  0  0  0  0  0  0  0  0  0
   -1.9780   -1.0110   -1.9400 N   0  0  0  0  0  0  0  0  0  0  0  0
   -3.2110   -1.1940   -1.5600 N   0  0  0  0  0  0  0  0  0  0  0  0
   -3.9960   -0.1670   -1.1980 C   0  0  0  0  0  0  0  0  0  0  0  0
   -5.3680   -0.4850   -0.8050 N   0  0  0  0  0  0  0  0  0  0  0  0
   -5.6990   -0.5070    0.4240 C   0  0  0  0  0  0  0  0  0  0  0  0
   -4.5300   -0.1730    1.2700 C   0  0  0  0  0  0  0  0  0  0  0  0
   -3.4120   -0.4640    0.8590 O   0  0  0  0  0  0  0  0  0  0  0  0
   -4.6790    0.4640    2.5230 O   0  0  0  0  0  0  0  0  0  0  0  0
   -5.6940    0.2780    3.4960 C   0  0  0  0  0  0  0  0  0  0  0  0
   -7.0820    0.3590    2.9550 C   0  0  0  0  0  0  0  0  0  0  0  0
   -7.5470   -0.9110    2.2750 C   0  0  0  0  0  0  0  0  0  0  0  0
   -7.0420   -0.8640    0.8880 C   0  0  0  0  0  0  0  0  0  0  0  0
   -7.9130   -1.1750   -0.0380 C   0  0  0  0  0  0  0  0  0  0  0  0
   -7.6350   -1.1930   -1.4770 C   0  0  0  0  0  0  0  0  0  0  0  0
   -6.3160   -0.6980   -1.8640 C   0  0  2  0  0  0  0  0  0  0  0  0
   -5.6680   -1.5880   -2.9490 C   0  0  0  0  0  0  0  0  0  0  0  0
   -3.5050    1.0590   -1.2300 N   0  0  0  0  0  0  0  0  0  0  0  0
   -2.2270    1.2970   -1.6190 C   0  0  0  0  0  0  0  0  0  0  0  0
   -1.7170    2.4400   -1.6660 O   0  0  0  0  0  0  0  0  0  0  0  0
    1.1980   -0.5240   -0.6220 C   0  0  0  0  0  0  0  0  0  0  0  0
    0.3010   -2.0150   -0.5970 Cl  0  0  0  0  0  0  0  0  0  0  0  0
    2.2590   -0.3830    0.2860 C   0  0  0  0  0  0  0  0  0  0  0  0
    5.6650   -0.7880    1.0850 C   0  0  0  0  0  0  0  0  0  0  0  0
    6.9330   -1.2490    0.7250 C   0  0  0  0  0  0  0  0  0  0  0  0
  1  2  1  0
  2  3  1  0
  3  4  1  0
  4  5  2  0
  4 38  1  0
  5  6  1  0
  6  7  2  0
  7  8  1  0
  7 37  1  0
  8  9  1  0
  9 10  2  0
  9 36  1  0
 10 11  1  0
 11 12  2  0
 12 13  1  0
 12 34  1  0
 13 14  1  0
 14 15  2  0
 14 32  1  0
 15 16  1  0
 16 17  2  0
 17 18  1  0
 17 31  1  0
 18 19  2  0
 18 29  1  0
 19 20  1  0
 19 26  1  0
 20 21  2  0
 20 22  1  0
 22 23  1  0
 23 24  1  0
 24 25  1  0
 25 26  1  0
 26 27  2  0
 27 28  1  0
 28 29  1  0
 29 30  1  6
 31 32  1  0
 32 33  2  0
 34 35  1  0
 34 36  2  0
 37 38  2  0
M  CHG  2   2   1  18   1
M  END
