
     RDKit          3D

 38 42  0  0  0  0  0  0  0  0999 V2000
   -7.5890    1.7500    1.6290 C   0  0  0  0  0  0  0  0  0  0  0  0
   -7.2570    2.1930    0.3090 N   0  0  2  0  0  0  0  0  0  0  0  0
   -8.1910    1.7380   -0.6980 C   0  0  0  0  0  0  0  0  0  0  0  0
   -7.9810    0.3330   -1.1300 C   0  0  0  0  0  0  0  0  0  0  0  0
   -6.9530   -0.4250   -0.3620 C   0  0  0  0  0  0  0  0  0  0  0  0
   -5.7120    0.3490   -0.0460 C   0  0  1  0  0  0  0  0  0  0  0  0
   -4.5350   -0.0750   -0.8470 C   0  0  0  0  0  0  0  0  0  0  0  0
   -3.9640    0.7500   -1.6020 O   0  0  0  0  0  0  0  0  0  0  0  0
   -4.0680   -1.4040   -0.7500 N   0  0  0  0  0  0  0  0  0  0  0  0
   -4.6280   -2.4580    0.0790 C   0  0  0  0  0  0  0  0  0  0  0  0
   -3.3770   -3.1830    0.5520 C   0  0  0  0  0  0  0  0  0  0  0  0
   -2.3260   -2.8040   -0.3730 N   0  0  2  0  0  0  0  0  0  0  0  0
   -1.4060   -1.9400    0.3460 C   0  0  0  0  0  0  0  0  0  0  0  0
   -0.0520   -1.9040   -0.2830 C   0  0  0  0  0  0  0  0  0  0  0  0
    0.8580   -1.0790    0.3930 O   0  0  0  0  0  0  0  0  0  0  0  0
    0.6620    0.2720    0.5490 C   0  0  0  0  0  0  0  0  0  0  0  0
   -0.3630    0.8100    0.0740 O   0  0  0  0  0  0  0  0  0  0  0  0
    1.6800    1.0820    1.2860 C   0  0  0  0  0  0  0  0  0  0  0  0
    2.6930    1.5930    0.3860 N   0  0  0  0  0  0  0  0  0  0  0  0
    2.7060    2.7320   -0.2750 N   0  0  0  0  0  0  0  0  0  0  0  0
    3.8190    2.8650   -1.0170 C   0  0  0  0  0  0  0  0  0  0  0  0
    4.5690    1.7260   -0.8130 C   0  0  0  0  0  0  0  0  0  0  0  0
    5.7960    1.2510   -1.2760 C   0  0  0  0  0  0  0  0  0  0  0  0
    6.3010    0.0430   -0.8850 C   0  0  0  0  0  0  0  0  0  0  0  0
    7.5180   -0.3820   -1.3710 O   0  0  0  0  0  0  0  0  0  0  0  0
    8.7370   -0.1350   -0.7800 C   0  0  0  0  0  0  0  0  0  0  0  0
    9.2440   -1.0180    0.1410 C   0  0  0  0  0  0  0  0  0  0  0  0
   10.4800   -0.7850    0.7520 C   0  0  0  0  0  0  0  0  0  0  0  0
   11.2040    0.3540    0.4230 C   0  0  0  0  0  0  0  0  0  0  0  0
   12.4270    0.5910    1.0240 O   0  0  0  0  0  0  0  0  0  0  0  0
   10.6980    1.2440   -0.5030 C   0  0  0  0  0  0  0  0  0  0  0  0
   11.6450    2.6630   -0.8850 Cl  0  0  0  0  0  0  0  0  0  0  0  0
    9.4670    0.9740   -1.0850 C   0  0  0  0  0  0  0  0  0  0  0  0
    5.5730   -0.7260   -0.0090 C   0  0  0  0  0  0  0  0  0  0  0  0
    4.3390   -0.2690    0.4680 C   0  0  0  0  0  0  0  0  0  0  0  0
    3.8430    0.9560    0.0630 C   0  0  0  0  0  0  0  0  0  0  0  0
   -2.9490   -2.0340   -1.4310 C   0  0  0  0  0  0  0  0  0  0  0  0
   -5.9060    1.8430   -0.0790 C   0  0  0  0  0  0  0  0  0  0  0  0
  2  1  1  1
  2  3  1  0
  2 38  1  0
  3  4  1  0
  4  5  1  0
  5  6  1  0
  6  7  1  6
  6 38  1  0
  7  8  2  0
  7  9  1  0
  9 10  1  0
  9 37  1  0
 10 11  1  0
 11 12  1  0
 12 13  1  1
 12 37  1  0
 13 14  1  0
 14 15  1  0
 15 16  1  0
 16 17  2  0
 16 18  1  0
 18 19  1  0
 19 20  1  0
 19 36  1  0
 20 21  2  0
 21 22  1  0
 22 23  2  0
 22 36  1  0
 23 24  1  0
 24 25  1  0
 24 34  2  0
 25 26  1  0
 26 27  2  0
 26 33  1  0
 27 28  1  0
 28 29  2  0
 29 30  1  0
 29 31  1  0
 31 32  1  0
 31 33  2  0
 34 35  1  0
 35 36  2  0
M  CHG  2   2   1  12   1
M  END
