
     RDKit          3D

 37 42  0  0  0  0  0  0  0  0999 V2000
    9.4170    0.4130    1.6870 C   0  0  0  0  0  0  0  0  0  0  0  0
    8.4620    1.1790    0.9080 N   0  0  0  0  0  0  0  0  0  0  0  0
    8.3900    0.6680   -0.4390 C   0  0  0  0  0  0  0  0  0  0  0  0
    7.5820   -0.5830   -0.5560 C   0  0  0  0  0  0  0  0  0  0  0  0
    6.1610   -0.3920   -0.1150 C   0  0  0  0  0  0  0  0  0  0  0  0
    5.8200   -0.6220    1.1930 C   0  0  0  0  0  0  0  0  0  0  0  0
    4.5270   -0.4400    1.5730 C   0  0  0  0  0  0  0  0  0  0  0  0
    3.5720   -0.0280    0.6460 C   0  0  0  0  0  0  0  0  0  0  0  0
    3.9280    0.1970   -0.6590 C   0  0  0  0  0  0  0  0  0  0  0  0
    3.0070    0.6080   -1.6210 O   0  0  0  0  0  0  0  0  0  0  0  0
    1.6720    0.6610   -1.2490 C   0  0  0  0  0  0  0  0  0  0  0  0
    1.0860    1.9170   -1.3080 C   0  0  0  0  0  0  0  0  0  0  0  0
   -0.2240    2.0710   -0.9620 C   0  0  0  0  0  0  0  0  0  0  0  0
   -0.9510    0.9820   -0.5590 C   0  0  0  0  0  0  0  0  0  0  0  0
   -0.3600   -0.2860   -0.4990 C   0  0  0  0  0  0  0  0  0  0  0  0
    0.9620   -0.4460   -0.8470 C   0  0  0  0  0  0  0  0  0  0  0  0
    1.5780   -1.6770   -0.8030 O   0  0  0  0  0  0  0  0  0  0  0  0
    1.6230   -2.5900   -1.8700 C   0  0  0  0  0  0  0  0  0  0  0  0
    2.3290   -3.7170   -1.4470 O   0  0  0  0  0  0  0  0  0  0  0  0
   -1.1210   -1.3950   -0.0820 O   0  0  0  0  0  0  0  0  0  0  0  0
   -2.4780   -1.2540    0.2810 C   0  0  0  0  0  0  0  0  0  0  0  0
   -3.4290   -2.0340    0.6850 N   0  0  0  0  0  0  0  0  0  0  0  0
   -4.6300   -1.2610    0.8780 N   0  0  0  0  0  0  0  0  0  0  0  0
   -5.8270   -1.9760    1.2850 C   0  0  0  0  0  0  0  0  0  0  0  0
   -7.0390   -1.5930    0.4980 C   0  0  0  0  0  0  0  0  0  0  0  0
   -7.6240   -0.3340    0.6990 N   0  0  1  0  0  0  0  0  0  0  0  0
   -7.2860    0.3740    1.9030 C   0  0  0  0  0  0  0  0  0  0  0  0
   -7.5740    0.5600   -0.4420 C   0  0  0  0  0  0  0  0  0  0  0  0
   -6.2860    0.6380   -1.1580 C   0  0  0  0  0  0  0  0  0  0  0  0
   -5.1060    0.8080   -0.4030 N   0  0  0  0  0  0  0  0  0  0  0  0
   -4.4770    2.0620   -0.8020 C   0  0  0  0  0  0  0  0  0  0  0  0
   -5.1290    2.7740   -1.5880 O   0  0  0  0  0  0  0  0  0  0  0  0
   -3.1060    2.4550   -0.2750 C   0  0  0  0  0  0  0  0  0  0  0  0
   -2.3440    1.1710   -0.1880 C   0  0  0  0  0  0  0  0  0  0  0  0
   -2.9700    0.0860    0.1900 C   0  0  0  0  0  0  0  0  0  0  0  0
   -4.3740    0.1090    0.6120 C   0  0  2  0  0  0  0  0  0  0  0  0
    5.2500    0.0120   -1.0480 C   0  0  0  0  0  0  0  0  0  0  0  0
  1  2  1  0
  2  3  1  0
  3  4  1  0
  4  5  1  0
  5  6  2  0
  5 37  1  0
  6  7  1  0
  7  8  2  0
  8  9  1  0
  9 10  1  0
  9 37  2  0
 10 11  1  0
 11 12  2  0
 11 16  1  0
 12 13  1  0
 13 14  2  0
 14 15  1  0
 14 34  1  0
 15 16  2  0
 15 20  1  0
 16 17  1  0
 17 18  1  0
 18 19  1  0
 20 21  1  0
 21 22  2  0
 21 35  1  0
 22 23  1  0
 23 24  1  0
 36 23  1  6
 24 25  1  0
 25 26  1  0
 26 27  1  1
 26 28  1  0
 28 29  1  0
 29 30  1  0
 30 31  1  0
 30 36  1  0
 31 32  2  0
 31 33  1  0
 33 34  1  0
 34 35  2  0
 35 36  1  0
M  CHG  2   2   1  26   1
M  END
