
     RDKit          3D

 38 43  0  0  0  0  0  0  0  0999 V2000
    8.7980    1.9760    0.0190 C   0  0  0  0  0  0  0  0  0  0  0  0
    8.5140    0.5320   -0.1370 C   0  0  0  0  0  0  0  0  0  0  0  0
    8.5700   -0.2770    0.9140 O   0  0  0  0  0  0  0  0  0  0  0  0
    7.7260   -0.2450    1.9850 C   0  0  0  0  0  0  0  0  0  0  0  0
    6.3190   -0.0880    1.5060 C   0  0  0  0  0  0  0  0  0  0  0  0
    5.9470    0.8680    0.6990 O   0  0  0  0  0  0  0  0  0  0  0  0
    4.6920    0.8570    0.3990 C   0  0  0  0  0  0  0  0  0  0  0  0
    3.9200    1.7320   -0.4270 O   0  0  0  0  0  0  0  0  0  0  0  0
    3.7880    1.2300   -1.7930 C   0  0  0  0  0  0  0  0  0  0  0  0
    4.1390   -0.2700    1.0900 C   0  0  0  0  0  0  0  0  0  0  0  0
    2.7770   -0.7350    0.9690 C   0  0  0  0  0  0  0  0  0  0  0  0
    1.6510   -0.0210    0.8900 N   0  0  0  0  0  0  0  0  0  0  0  0
    0.5870   -0.8740    0.7790 C   0  0  0  0  0  0  0  0  0  0  0  0
   -0.7590   -0.7410    0.6980 C   0  0  0  0  0  0  0  0  0  0  0  0
   -1.5690   -1.8190    0.6400 C   0  0  0  0  0  0  0  0  0  0  0  0
   -0.9900   -3.0450    0.6590 N   0  0  0  0  0  0  0  0  0  0  0  0
    0.3390   -3.2320    0.7390 C   0  0  0  0  0  0  0  0  0  0  0  0
    1.1490   -2.1520    0.8000 C   0  0  0  0  0  0  0  0  0  0  0  0
    2.4690   -2.0610    0.9130 N   0  0  0  0  0  0  0  0  0  0  0  0
   -3.0310   -1.4490    0.6970 C   0  0  2  0  0  0  0  0  0  0  0  0
   -3.6990   -2.0050   -0.4280 N   0  0  0  0  0  0  0  0  0  0  0  0
   -5.0750   -1.7340   -0.5720 C   0  0  0  0  0  0  0  0  0  0  0  0
   -5.9150   -1.9090    0.6360 C   0  0  2  0  0  0  0  0  0  0  0  0
   -7.2840   -1.6740    0.2370 O   0  0  0  0  0  0  0  0  0  0  0  0
   -7.3030   -0.2950   -0.0350 C   0  0  0  0  0  0  0  0  0  0  0  0
   -8.0370    0.5390   -0.8680 C   0  0  0  0  0  0  0  0  0  0  0  0
   -7.8420    1.8970   -0.9470 C   0  0  0  0  0  0  0  0  0  0  0  0
   -6.8670    2.5050   -0.1590 C   0  0  0  0  0  0  0  0  0  0  0  0
   -6.1230    1.6940    0.6800 C   0  0  0  0  0  0  0  0  0  0  0  0
   -6.3400    0.3140    0.7390 C   0  0  0  0  0  0  0  0  0  0  0  0
   -5.7640   -0.7350    1.4610 O   0  0  0  0  0  0  0  0  0  0  0  0
   -2.9730    0.0320    0.7960 C   0  0  0  0  0  0  0  0  0  0  0  0
   -1.5900    0.5190    0.5290 C   0  0  2  0  0  0  0  0  0  0  0  0
   -1.5070    0.9160   -0.8630 N   0  0  1  0  0  0  0  0  0  0  0  0
   -1.2840    2.3380   -1.0060 C   0  0  0  0  0  0  0  0  0  0  0  0
   -0.6720    0.1570   -1.7180 C   0  0  0  0  0  0  0  0  0  0  0  0
    5.2060   -0.8400    1.7960 C   0  0  0  0  0  0  0  0  0  0  0  0
    5.1370   -2.2450    2.8100 Cl  0  0  0  0  0  0  0  0  0  0  0  0
  1  2  1  0
  2  3  1  0
  3  4  1  0
  4  5  1  0
  5  6  1  0
  5 37  2  0
  6  7  1  0
  7  8  1  0
  7 10  2  0
  8  9  1  0
 10 11  1  0
 10 37  1  0
 11 12  2  0
 11 19  1  0
 12 13  1  0
 13 14  2  0
 13 18  1  0
 14 15  1  0
 14 33  1  0
 15 16  2  0
 15 20  1  0
 16 17  1  0
 17 18  2  0
 18 19  1  0
 20 21  1  6
 20 32  1  0
 21 22  1  0
 23 22  1  6
 23 24  1  0
 23 31  1  0
 24 25  1  0
 25 26  2  0
 25 30  1  0
 26 27  1  0
 27 28  2  0
 28 29  1  0
 29 30  2  0
 30 31  1  0
 33 32  1  6
 33 34  1  0
 34 35  1  1
 34 36  1  0
 37 38  1  0
M  CHG  2  21   1  34   1
M  END
