
     RDKit          3D

 33 37  0  0  0  0  0  0  0  0999 V2000
    7.2420    2.0220    0.9930 C   0  0  0  0  0  0  0  0  0  0  0  0
    6.1960    1.0300    1.3290 C   0  0  0  0  0  0  0  0  0  0  0  0
    6.2260    0.4720    2.4350 O   0  0  0  0  0  0  0  0  0  0  0  0
    5.1330    0.6970    0.3880 C   0  0  0  0  0  0  0  0  0  0  0  0
    5.0210    1.2720   -0.8630 C   0  0  0  0  0  0  0  0  0  0  0  0
    4.0120    0.9400   -1.7280 C   0  0  0  0  0  0  0  0  0  0  0  0
    3.0530   -0.0020   -1.3680 C   0  0  0  0  0  0  0  0  0  0  0  0
    2.0060   -0.3620   -2.2550 N   0  0  0  0  0  0  0  0  0  0  0  0
    1.7840   -1.5150   -2.8980 C   0  0  0  0  0  0  0  0  0  0  0  0
    0.6360   -1.4110   -3.6650 C   0  0  0  0  0  0  0  0  0  0  0  0
    0.1730   -0.1650   -3.4670 N   0  0  0  0  0  0  0  0  0  0  0  0
    1.0080    0.4520   -2.6160 C   0  0  0  0  0  0  0  0  0  0  0  0
    3.1540   -0.5750   -0.1350 C   0  0  0  0  0  0  0  0  0  0  0  0
    2.1760   -1.5600    0.3060 C   0  0  0  0  0  0  0  0  0  0  0  0
    2.4020   -2.7580    0.0270 O   0  0  0  0  0  0  0  0  0  0  0  0
    0.9890   -1.2350    1.0300 N   0  0  0  0  0  0  0  0  0  0  0  0
    0.6500    0.1080    1.3930 C   0  0  0  0  0  0  0  0  0  0  0  0
   -0.7570    0.5380    1.1200 C   0  0  0  0  0  0  0  0  0  0  0  0
   -1.6270   -0.7470    0.9590 C   0  0  2  0  0  0  0  0  0  0  0  0
   -3.0350   -0.3670    0.8950 C   0  0  0  0  0  0  0  0  0  0  0  0
   -3.9420   -0.5230    1.8460 C   0  0  0  0  0  0  0  0  0  0  0  0
   -3.6440   -1.1150    3.1470 C   0  0  0  0  0  0  0  0  0  0  0  0
   -5.3610   -0.1270    1.6570 C   0  0  0  0  0  0  0  0  0  0  0  0
   -5.8220    0.3840    0.5840 N   0  0  0  0  0  0  0  0  0  0  0  0
   -4.9250    0.5820   -0.4870 C   0  0  0  0  0  0  0  0  0  0  0  0
   -5.3890    1.1230   -1.5990 C   0  0  0  0  0  0  0  0  0  0  0  0
   -4.5120    1.3680   -2.7740 C   0  0  0  0  0  0  0  0  0  0  0  0
   -3.1200    1.6350   -2.2190 C   0  0  0  0  0  0  0  0  0  0  0  0
   -2.7500    0.3280   -1.4990 C   0  0  0  0  0  0  0  0  0  0  0  0
   -3.5620    0.2070   -0.3240 N   0  0  0  0  0  0  0  0  0  0  0  0
   -1.1320   -1.6260    2.0360 C   0  0  0  0  0  0  0  0  0  0  0  0
    0.1260   -2.3250    1.4020 C   0  0  0  0  0  0  0  0  0  0  0  0
    4.1690   -0.2280    0.7100 C   0  0  0  0  0  0  0  0  0  0  0  0
  1  2  1  0
  2  3  2  0
  2  4  1  0
  4  5  2  0
  4 33  1  0
  5  6  1  0
  6  7  2  0
  7  8  1  0
  7 13  1  0
  8  9  1  0
  8 12  1  0
  9 10  2  0
 10 11  1  0
 11 12  2  0
 13 14  1  0
 13 33  2  0
 14 15  2  0
 14 16  1  0
 16 17  1  0
 16 32  1  0
 17 18  1  0
 18 19  1  0
 19 20  1  1
 19 31  1  0
 20 21  2  0
 20 30  1  0
 21 22  1  0
 21 23  1  0
 23 24  2  0
 24 25  1  0
 25 26  2  0
 25 30  1  0
 26 27  1  0
 27 28  1  0
 28 29  1  0
 29 30  1  0
 31 32  1  0
M  END
