
     RDKit          3D

 33 37  0  0  0  0  0  0  0  0999 V2000
    7.2290   -3.3100   -1.3810 C   0  0  0  0  0  0  0  0  0  0  0  0
    6.3720   -2.2600   -0.8430 N   0  0  0  0  0  0  0  0  0  0  0  0
    6.7350   -0.9800   -0.6930 C   0  0  0  0  0  0  0  0  0  0  0  0
    5.6860   -0.2540   -0.1570 C   0  0  0  0  0  0  0  0  0  0  0  0
    4.6670   -1.1680    0.0090 C   0  0  0  0  0  0  0  0  0  0  0  0
    3.3270   -0.8560    0.5600 C   0  0  0  0  0  0  0  0  0  0  0  0
    2.4200   -0.4660   -0.5770 C   0  0  0  0  0  0  0  0  0  0  0  0
    1.0940   -0.1380   -0.1990 N   0  0  0  0  0  0  0  0  0  0  0  0
    0.1430   -1.1960   -0.1780 C   0  0  0  0  0  0  0  0  0  0  0  0
    0.7080   -2.3380    0.0250 O   0  0  0  0  0  0  0  0  0  0  0  0
   -1.3210   -1.2960   -0.3350 C   0  0  0  0  0  0  0  0  0  0  0  0
   -2.1430   -0.2400    0.2550 C   0  0  0  0  0  0  0  0  0  0  0  0
   -3.5520   -0.5410    0.5430 C   0  0  0  0  0  0  0  0  0  0  0  0
   -4.2260    0.4310    1.1110 O   0  0  0  0  0  0  0  0  0  0  0  0
   -4.2860   -1.6800    0.3140 N   0  0  0  0  0  0  0  0  0  0  0  0
   -5.7110   -1.6680    0.7880 C   0  0  0  0  0  0  0  0  0  0  0  0
   -6.5490   -1.6170   -0.4770 C   0  0  0  0  0  0  0  0  0  0  0  0
   -6.1460   -2.7420   -1.4190 C   0  0  0  0  0  0  0  0  0  0  0  0
   -5.1750   -3.6730   -0.7650 C   0  0  0  0  0  0  0  0  0  0  0  0
   -3.9070   -2.8970   -0.3460 C   0  0  0  0  0  0  0  0  0  0  0  0
   -1.7810    0.9980    0.5900 C   0  0  0  0  0  0  0  0  0  0  0  0
   -0.5170    1.6770    0.4850 C   0  0  0  0  0  0  0  0  0  0  0  0
   -0.6210    3.0450    0.7910 C   0  0  0  0  0  0  0  0  0  0  0  0
    0.4840    3.8600    0.7580 C   0  0  0  0  0  0  0  0  0  0  0  0
    0.3520    5.2560    1.0750 N   0  0  0  0  0  0  0  0  0  0  0  0
    1.3560    6.1430    1.1570 C   0  0  0  0  0  0  0  0  0  0  0  0
    0.8290    7.3700    1.4810 C   0  0  0  0  0  0  0  0  0  0  0  0
   -0.4910    7.1850    1.5860 N   0  0  0  0  0  0  0  0  0  0  0  0
   -0.7960    5.8990    1.3410 C   0  0  0  0  0  0  0  0  0  0  0  0
    1.7220    3.3570    0.4240 C   0  0  0  0  0  0  0  0  0  0  0  0
    1.8400    2.0050    0.1180 C   0  0  0  0  0  0  0  0  0  0  0  0
    0.7440    1.2010    0.1510 C   0  0  0  0  0  0  0  0  0  0  0  0
    5.1150   -2.4010   -0.4220 C   0  0  0  0  0  0  0  0  0  0  0  0
  1  2  1  0
  2  3  1  0
  2 33  1  0
  3  4  2  0
  4  5  1  0
  5  6  1  0
  5 33  2  0
  6  7  1  0
  7  8  1  0
  8  9  1  0
  8 32  1  0
  9 10  2  0
  9 11  1  0
 11 12  1  0
 12 13  1  0
 12 21  2  0
 13 14  2  0
 13 15  1  0
 15 16  1  0
 15 20  1  0
 16 17  1  0
 17 18  1  0
 18 19  1  0
 19 20  1  0
 21 22  1  0
 22 23  2  0
 22 32  1  0
 23 24  1  0
 24 25  1  0
 24 30  2  0
 25 26  1  0
 25 29  1  0
 26 27  2  0
 27 28  1  0
 28 29  2  0
 30 31  1  0
 31 32  2  0
M  END
