
     RDKit          3D

 33 33  0  0  0  0  0  0  0  0999 V2000
   -3.8880    5.7340    0.6220 O   0  0  0  0  0  0  0  0  0  0  0  0
   -2.8390    5.7340    1.2840 C   0  0  0  0  0  0  0  0  0  0  0  0
   -2.2010    6.9070    1.5660 O   0  0  0  0  0  0  0  0  0  0  0  0
   -2.2770    4.4630    1.7730 C   0  0  2  0  0  0  0  0  0  0  0  0
   -1.0830    4.6630    2.4600 O   0  0  0  0  0  0  0  0  0  0  0  0
   -1.9900    3.5920    0.5650 C   0  0  0  0  0  0  0  0  0  0  0  0
   -1.3930    2.2530    1.0020 C   0  0  0  0  0  0  0  0  0  0  0  0
   -1.1480    1.4530   -0.2460 C   0  0  1  0  0  0  0  0  0  0  0  0
   -0.2590    2.1150   -1.0850 O   0  0  0  0  0  0  0  0  0  0  0  0
   -0.8170    0.0150   -0.0340 C   0  0  1  0  0  0  0  0  0  0  0  0
   -0.8580   -0.7400   -1.1970 O   0  0  0  0  0  0  0  0  0  0  0  0
   -1.6180   -1.8610   -1.2100 C   0  0  1  0  0  0  0  0  0  0  0  0
   -2.6610   -1.6360   -2.1240 O   0  0  0  0  0  0  0  0  0  0  0  0
   -3.9030   -1.8540   -1.6870 C   0  0  0  0  0  0  0  0  0  0  0  0
   -4.4200   -1.1260   -0.4930 C   0  0  0  0  0  0  0  0  0  0  0  0
   -4.4480    0.2550   -0.6080 O   0  0  0  0  0  0  0  0  0  0  0  0
   -0.8200   -3.0650   -1.5560 C   0  0  1  0  0  0  0  0  0  0  0  0
    0.1550   -3.2640   -0.5990 O   0  0  0  0  0  0  0  0  0  0  0  0
   -1.6760   -4.3370   -1.5850 C   0  0  0  0  0  0  0  0  0  0  0  0
   -2.2600   -4.5630   -0.3500 O   0  0  0  0  0  0  0  0  0  0  0  0
    0.5580   -0.1450    0.5420 C   0  0  2  0  0  0  0  0  0  0  0  0
    0.7830    0.6200    1.6530 O   0  0  0  0  0  0  0  0  0  0  0  0
    1.6850    0.0290   -0.4630 C   0  0  0  0  0  0  0  0  0  0  0  0
    2.8670   -0.3870   -0.1140 O   0  0  0  0  0  0  0  0  0  0  0  0
    4.0340   -0.7970    0.2330 C   0  0  0  0  0  0  0  0  0  0  0  0
    4.4580   -0.7880    1.5040 C   0  0  0  0  0  0  0  0  0  0  0  0
    3.5960   -0.3160    2.4830 O   0  0  0  0  0  0  0  0  0  0  0  0
    5.7860   -1.2470    1.9250 C   0  0  0  0  0  0  0  0  0  0  0  0
    6.5960   -1.7100    0.8790 O   0  0  0  0  0  0  0  0  0  0  0  0
    6.1650   -1.7270   -0.4460 C   0  0  0  0  0  0  0  0  0  0  0  0
    7.0570   -2.2150   -1.4150 O   0  0  0  0  0  0  0  0  0  0  0  0
    4.9910   -1.3120   -0.7840 C   0  0  0  0  0  0  0  0  0  0  0  0
    4.5890   -1.3390   -2.1330 O   0  0  0  0  0  0  0  0  0  0  0  0
  1  2  2  0
  2  3  1  0
  2  4  1  0
  4  5  1  6
  4  6  1  0
  6  7  1  0
  7  8  1  0
  8  9  1  1
  8 10  1  0
 10 11  1  6
 10 21  1  0
 12 11  1  6
 12 13  1  0
 12 17  1  0
 13 14  1  0
 14 15  1  0
 15 16  1  0
 17 18  1  1
 17 19  1  0
 19 20  1  0
 21 22  1  1
 21 23  1  0
 23 24  1  0
 24 25  1  0
 25 26  2  0
 25 32  1  0
 26 27  1  0
 26 28  1  0
 28 29  1  0
 29 30  1  0
 30 31  1  0
 30 32  2  0
 32 33  1  0
M  END
