
     RDKit          3D

 33 37  0  0  0  0  0  0  0  0999 V2000
   -2.0640   -3.5310    0.0980 C   0  0  0  0  0  0  0  0  0  0  0  0
   -3.0620   -2.4440   -0.0050 C   0  0  0  0  0  0  0  0  0  0  0  0
   -2.6010   -1.0450   -0.2670 C   0  0  0  0  0  0  0  0  0  0  0  0
   -1.6870   -0.5170    0.7200 N   0  0  0  0  0  0  0  0  0  0  0  0
   -2.2020    0.0330    1.9190 C   0  0  0  0  0  0  0  0  0  0  0  0
   -1.3590    0.2170    2.9100 O   0  0  0  0  0  0  0  0  0  0  0  0
   -3.5370    0.4500    2.2690 C   0  0  0  0  0  0  0  0  0  0  0  0
   -4.6040    0.4930    1.3350 N   0  0  0  0  0  0  0  0  0  0  0  0
   -5.5250   -0.4260    1.0340 N   0  0  0  0  0  0  0  0  0  0  0  0
   -6.3670    0.0760    0.1220 C   0  0  0  0  0  0  0  0  0  0  0  0
   -7.4910   -0.4220   -0.5370 C   0  0  0  0  0  0  0  0  0  0  0  0
   -8.1720    0.3190   -1.4300 N   0  0  0  0  0  0  0  0  0  0  0  0
   -7.7910    1.5700   -1.7180 C   0  0  0  0  0  0  0  0  0  0  0  0
   -6.6770    2.0570   -1.0620 C   0  0  0  0  0  0  0  0  0  0  0  0
   -5.9770    1.3270   -0.1600 N   0  0  0  0  0  0  0  0  0  0  0  0
   -4.8920    1.6050    0.5770 C   0  0  0  0  0  0  0  0  0  0  0  0
   -4.2570    2.6900    0.5710 O   0  0  0  0  0  0  0  0  0  0  0  0
   -0.2640   -0.4880    0.5030 C   0  0  0  0  0  0  0  0  0  0  0  0
    0.3380   -1.2820   -0.4210 C   0  0  0  0  0  0  0  0  0  0  0  0
    1.7300   -1.2450   -0.6760 C   0  0  0  0  0  0  0  0  0  0  0  0
    2.4950   -0.3670    0.0440 C   0  0  0  0  0  0  0  0  0  0  0  0
    1.9110    0.4620    1.0000 C   0  0  0  0  0  0  0  0  0  0  0  0
    0.5230    0.3910    1.2190 C   0  0  0  0  0  0  0  0  0  0  0  0
    2.7020    1.3850    1.7970 C   0  0  0  0  0  0  0  0  0  0  0  0
    4.1640    1.3450    1.7110 C   0  0  0  0  0  0  0  0  0  0  0  0
    4.7080    0.7070    0.5170 C   0  0  0  0  0  0  0  0  0  0  0  0
    5.9220    1.1060    0.2090 C   0  0  0  0  0  0  0  0  0  0  0  0
    6.4880    2.1350    1.1580 C   0  0  0  0  0  0  0  0  0  0  0  0
    6.8880    0.7990   -0.8740 C   0  0  0  0  0  0  0  0  0  0  0  0
    6.7620   -0.4900   -1.5200 C   0  0  0  0  0  0  0  0  0  0  0  0
    5.7090   -1.2740   -1.6260 C   0  0  0  0  0  0  0  0  0  0  0  0
    4.3310   -1.1440   -1.1520 C   0  0  0  0  0  0  0  0  0  0  0  0
    3.9210   -0.2890   -0.2440 C   0  0  0  0  0  0  0  0  0  0  0  0
  1  2  1  0
  2  3  1  0
  3  4  1  0
  4  5  1  0
  4 18  1  0
  5  6  2  0
  5  7  1  0
  7  8  1  0
  8  9  1  0
  8 16  1  0
  9 10  2  0
 10 11  1  0
 10 15  1  0
 11 12  2  0
 12 13  1  0
 13 14  2  0
 14 15  1  0
 15 16  1  0
 16 17  2  0
 18 19  2  0
 18 23  1  0
 19 20  1  0
 20 21  2  0
 21 22  1  0
 21 33  1  0
 22 23  2  0
 22 24  1  0
 24 25  1  0
 25 26  1  0
 26 27  2  0
 26 33  1  0
 27 28  1  0
 27 29  1  0
 29 30  1  0
 30 31  2  0
 31 32  1  0
 32 33  2  0
M  END
