
     RDKit          3D

 33 37  0  0  0  0  0  0  0  0999 V2000
   -0.1280   -2.5560   -0.6900 C   0  0  0  0  0  0  0  0  0  0  0  0
   -1.3600   -1.8180   -0.3310 C   0  0  0  0  0  0  0  0  0  0  0  0
   -2.5330   -2.5040    0.0090 C   0  0  0  0  0  0  0  0  0  0  0  0
   -3.6540   -1.7790    0.3470 C   0  0  0  0  0  0  0  0  0  0  0  0
   -4.8930   -2.4760    0.7070 C   0  0  2  0  0  0  0  0  0  0  0  0
   -4.7190   -3.9870    0.7020 C   0  0  0  0  0  0  0  0  0  0  0  0
   -5.9870   -2.1710   -0.3180 C   0  0  0  0  0  0  0  0  0  0  0  0
   -3.6330   -0.3930    0.3530 C   0  0  0  0  0  0  0  0  0  0  0  0
   -4.8080    0.2490    0.7060 O   0  0  0  0  0  0  0  0  0  0  0  0
   -4.8680    1.6560    0.7290 C   0  0  0  0  0  0  0  0  0  0  0  0
   -4.6050    2.2540   -0.6000 C   0  0  0  0  0  0  0  0  0  0  0  0
   -4.5760    1.5490   -1.7350 N   0  0  0  0  0  0  0  0  0  0  0  0
   -4.3190    2.4030   -2.6930 N   0  0  0  0  0  0  0  0  0  0  0  0
   -4.1890    3.6240   -2.1570 C   0  0  0  0  0  0  0  0  0  0  0  0
   -4.3700    3.4960   -0.8760 O   0  0  0  0  0  0  0  0  0  0  0  0
   -2.4710    0.2760    0.0160 C   0  0  0  0  0  0  0  0  0  0  0  0
   -1.3170   -0.4460   -0.3320 C   0  0  0  0  0  0  0  0  0  0  0  0
   -0.1580    0.2980   -0.6740 N   0  0  0  0  0  0  0  0  0  0  0  0
    0.2670    0.1420   -2.0190 C   0  0  0  0  0  0  0  0  0  0  0  0
    1.7460    0.1680   -2.2480 C   0  0  0  0  0  0  0  0  0  0  0  0
    2.4520    1.2980   -1.5640 C   0  0  0  0  0  0  0  0  0  0  0  0
    2.6970    0.9690   -0.1850 N   0  0  0  0  0  0  0  0  0  0  0  0
    4.0430    1.0380    0.2590 C   0  0  0  0  0  0  0  0  0  0  0  0
    4.4570    0.6610    1.5080 C   0  0  0  0  0  0  0  0  0  0  0  0
    5.7780    0.7400    1.9300 C   0  0  0  0  0  0  0  0  0  0  0  0
    6.7040    1.2230    1.0350 C   0  0  0  0  0  0  0  0  0  0  0  0
    6.2910    1.6080   -0.2370 C   0  0  0  0  0  0  0  0  0  0  0  0
    5.0080    1.5080   -0.5800 N   0  0  0  0  0  0  0  0  0  0  0  0
    7.9060    1.2510    1.5400 C   0  0  0  0  0  0  0  0  0  0  0  0
    7.8180    0.7380    2.9240 C   0  0  0  0  0  0  0  0  0  0  0  0
    6.3860    0.4340    3.0720 C   0  0  0  0  0  0  0  0  0  0  0  0
    1.7510    0.5790    0.8140 C   0  0  0  0  0  0  0  0  0  0  0  0
    0.3530    1.0740    0.4370 C   0  0  0  0  0  0  0  0  0  0  0  0
  1  2  1  0
  2  3  2  0
  2 17  1  0
  3  4  1  0
  4  5  1  0
  4  8  2  0
  5  6  1  6
  5  7  1  0
  8  9  1  0
  8 16  1  0
  9 10  1  0
 10 11  1  0
 11 12  2  0
 11 15  1  0
 12 13  1  0
 13 14  2  0
 14 15  1  0
 16 17  2  0
 17 18  1  0
 18 19  1  0
 18 33  1  0
 19 20  1  0
 20 21  1  0
 21 22  1  0
 22 23  1  0
 22 32  1  0
 23 24  2  0
 23 28  1  0
 24 25  1  0
 25 26  1  0
 25 31  2  0
 26 27  1  0
 26 29  2  0
 27 28  2  0
 29 30  1  0
 30 31  1  0
 32 33  1  0
M  END
