
     RDKit          3D

 33 35  0  0  0  0  0  0  0  0999 V2000
   -4.4480    4.1680   -0.2600 C   0  0  0  0  0  0  0  0  0  0  0  0
   -5.5880    2.8070   -0.1640 S   0  0  2  0  0  0  0  0  0  0  0  0
   -6.5820    2.9150   -1.3060 O   0  0  0  0  0  0  0  0  0  0  0  0
   -6.3560    3.0210    1.1530 O   0  0  0  0  0  0  0  0  0  0  0  0
   -4.8620    1.3000   -0.0540 N   0  0  0  0  0  0  0  0  0  0  0  0
   -4.0230    0.8380   -1.1580 C   0  0  2  0  0  0  0  0  0  0  0  0
   -4.5830   -0.3080   -1.8210 C   0  0  0  0  0  0  0  0  0  0  0  0
   -4.8090   -1.5440   -1.0080 C   0  0  0  0  0  0  0  0  0  0  0  0
   -3.9720   -2.6250   -1.1620 C   0  0  0  0  0  0  0  0  0  0  0  0
   -4.1050   -3.7570   -0.3720 C   0  0  0  0  0  0  0  0  0  0  0  0
   -5.0850   -3.8090    0.5790 C   0  0  0  0  0  0  0  0  0  0  0  0
   -5.9320   -2.7180    0.7320 C   0  0  0  0  0  0  0  0  0  0  0  0
   -5.7920   -1.6010   -0.0530 C   0  0  0  0  0  0  0  0  0  0  0  0
   -2.6310    1.1290   -0.9040 C   0  0  0  0  0  0  0  0  0  0  0  0
   -2.0880    2.1080   -1.5710 O   0  0  0  0  0  0  0  0  0  0  0  0
   -1.7300    0.5000    0.0370 N   0  0  0  0  0  0  0  0  0  0  0  0
   -1.7500   -0.6800    0.8220 C   0  0  0  0  0  0  0  0  0  0  0  0
   -1.6880   -0.1130    2.2600 C   0  0  0  0  0  0  0  0  0  0  0  0
   -0.8160    1.0970    2.0950 C   0  0  0  0  0  0  0  0  0  0  0  0
   -0.6460    1.2860    0.5520 C   0  0  1  0  0  0  0  0  0  0  0  0
    0.6850    1.2330    0.1490 C   0  0  0  0  0  0  0  0  0  0  0  0
    1.4900    2.2430    0.5050 O   0  0  0  0  0  0  0  0  0  0  0  0
    1.3520    0.2490   -0.6150 N   0  0  0  0  0  0  0  0  0  0  0  0
    2.7580    0.5000   -0.8970 C   0  0  0  0  0  0  0  0  0  0  0  0
    3.7090    0.4860    0.2280 C   0  0  1  0  0  0  0  0  0  0  0  0
    3.9650   -0.8340    0.8700 C   0  0  0  0  0  0  0  0  0  0  0  0
    5.0700   -1.6150    0.1720 C   0  0  0  0  0  0  0  0  0  0  0  0
    6.1660   -0.7920   -0.2610 N   0  0  0  0  0  0  0  0  0  0  0  0
    7.3910   -1.0940   -0.0690 C   0  0  0  0  0  0  0  0  0  0  0  0
    7.6540   -2.3190    0.6210 N   0  0  0  0  0  0  0  0  0  0  0  0
    8.5050   -0.3490   -0.4830 N   0  0  0  0  0  0  0  0  0  0  0  0
    5.9040    0.4430   -0.9570 C   0  0  0  0  0  0  0  0  0  0  0  0
    4.9560    1.2250   -0.0520 C   0  0  0  0  0  0  0  0  0  0  0  0
  2  1  1  6
  2  3  2  0
  2  4  2  0
  2  5  1  0
  5  6  1  0
  6  7  1  1
  6 14  1  0
  7  8  1  0
  8  9  2  0
  8 13  1  0
  9 10  1  0
 10 11  2  0
 11 12  1  0
 12 13  2  0
 14 15  2  0
 14 16  1  0
 16 17  1  0
 16 20  1  0
 17 18  1  0
 18 19  1  0
 19 20  1  0
 20 21  1  6
 21 22  2  0
 21 23  1  0
 23 24  1  0
 25 24  1  6
 25 26  1  0
 25 33  1  0
 26 27  1  0
 27 28  1  0
 28 29  2  3
 28 32  1  0
 29 30  1  0
 29 31  1  0
 32 33  1  0
M  CHG  1  28   1
M  END
