
     RDKit          3D

 33 35  0  0  0  0  0  0  0  0999 V2000
    8.2570    0.6530    0.7270 C   0  0  0  0  0  0  0  0  0  0  0  0
    7.1710   -0.2000    0.0590 C   0  0  2  0  0  0  0  0  0  0  0  0
    6.9750    0.3190   -1.3350 C   0  0  0  0  0  0  0  0  0  0  0  0
    5.6540    0.2190   -1.7560 O   0  0  0  0  0  0  0  0  0  0  0  0
    5.0230   -0.8730   -1.1940 C   0  0  0  0  0  0  0  0  0  0  0  0
    4.7030   -0.6200    0.2680 C   0  0  2  0  0  0  0  0  0  0  0  0
    3.5380    0.3070    0.3640 C   0  0  0  0  0  0  0  0  0  0  0  0
    3.6030    1.4270    0.9380 O   0  0  0  0  0  0  0  0  0  0  0  0
    2.3340   -0.0390   -0.1820 O   0  0  0  0  0  0  0  0  0  0  0  0
    1.1640    0.7840   -0.1390 C   0  0  2  0  0  0  0  0  0  0  0  0
    0.1770    0.0770    0.7270 C   0  0  0  0  0  0  0  0  0  0  0  0
   -1.1310    0.6430    0.7900 N   0  0  0  0  0  0  0  0  0  0  0  0
   -1.2510    2.0230    1.0000 C   0  0  0  0  0  0  0  0  0  0  0  0
   -1.9940   -0.2410    1.5150 C   0  0  1  0  0  0  0  0  0  0  0  0
   -1.8620   -0.0520    3.0080 C   0  0  0  0  0  0  0  0  0  0  0  0
   -3.3900   -0.2370    1.0470 C   0  0  0  0  0  0  0  0  0  0  0  0
   -3.7840   -0.8830   -0.0720 C   0  0  0  0  0  0  0  0  0  0  0  0
   -2.8760   -1.6460   -0.9260 C   0  0  0  0  0  0  0  0  0  0  0  0
   -2.1550   -0.8980   -1.9890 C   0  0  0  0  0  0  0  0  0  0  0  0
   -0.9090   -1.5680   -2.3040 N   0  0  0  0  0  0  0  0  0  0  0  0
    0.2760   -0.9530   -2.7580 C   0  0  0  0  0  0  0  0  0  0  0  0
    1.0900   -1.7440   -3.3610 O   0  0  0  0  0  0  0  0  0  0  0  0
    0.6710    0.3840   -2.6400 N   0  0  0  0  0  0  0  0  0  0  0  0
    0.6990    1.1850   -1.4620 C   0  0  0  0  0  0  0  0  0  0  0  0
    0.2600    2.3820   -1.6320 O   0  0  0  0  0  0  0  0  0  0  0  0
   -5.2590   -0.7400   -0.3670 C   0  0  2  0  0  0  0  0  0  0  0  0
   -5.6320   -1.5040   -1.6180 C   0  0  0  0  0  0  0  0  0  0  0  0
   -7.0210   -1.2930   -1.7840 O   0  0  0  0  0  0  0  0  0  0  0  0
   -5.5620    0.7180   -0.4690 C   0  0  0  0  0  0  0  0  0  0  0  0
   -5.2480    1.3950    0.8370 C   0  0  0  0  0  0  0  0  0  0  0  0
   -4.4760    0.4630    1.7740 C   0  0  2  0  0  0  0  0  0  0  0  0
   -4.0440    1.1660    2.8670 O   0  0  0  0  0  0  0  0  0  0  0  0
    5.9300   -0.0530    0.9130 C   0  0  0  0  0  0  0  0  0  0  0  0
  2  1  1  1
  2  3  1  0
  2 33  1  0
  3  4  1  0
  4  5  1  0
  5  6  1  0
  6  7  1  6
  6 33  1  0
  7  8  2  0
  7  9  1  0
 10  9  1  6
 10 11  1  0
 10 24  1  0
 11 12  1  0
 12 13  1  0
 12 14  1  0
 14 15  1  1
 14 16  1  0
 16 17  2  0
 16 31  1  0
 17 18  1  0
 17 26  1  0
 18 19  1  0
 19 20  1  0
 20 21  1  0
 21 22  2  0
 21 23  1  0
 23 24  1  0
 24 25  2  0
 26 27  1  6
 26 29  1  0
 27 28  1  0
 29 30  1  0
 30 31  1  0
 31 32  1  1
M  END
