
     RDKit          3D

 32 34  0  0  0  0  0  0  0  0999 V2000
    7.9950   -1.7490   -2.1050 N   0  0  0  0  0  0  0  0  0  0  0  0
    6.6700   -1.7310   -1.6280 C   0  0  0  0  0  0  0  0  0  0  0  0
    5.7850   -2.2780   -2.3220 O   0  0  0  0  0  0  0  0  0  0  0  0
    6.3170   -1.0910   -0.3510 C   0  0  2  0  0  0  0  0  0  0  0  0
    6.9470   -1.7020    0.8560 C   0  0  0  0  0  0  0  0  0  0  0  0
    8.4250   -1.6810    0.8470 C   0  0  0  0  0  0  0  0  0  0  0  0
    8.9990   -0.3230    0.8020 C   0  0  0  0  0  0  0  0  0  0  0  0
    8.3010    0.7130    0.8310 O   0  0  0  0  0  0  0  0  0  0  0  0
   10.3950   -0.1440    0.7240 O   0  0  0  0  0  0  0  0  0  0  0  0
    4.8590   -1.2340   -0.1890 N   0  0  0  0  0  0  0  0  0  0  0  0
    4.0510   -0.0800   -0.1140 C   0  0  0  0  0  0  0  0  0  0  0  0
    4.5730    1.0470   -0.1860 O   0  0  0  0  0  0  0  0  0  0  0  0
    2.5950   -0.2170    0.0480 C   0  0  0  0  0  0  0  0  0  0  0  0
    1.9710    1.1610    0.1010 C   0  0  0  0  0  0  0  0  0  0  0  0
    0.4980    1.0460    0.2660 C   0  0  0  0  0  0  0  0  0  0  0  0
   -0.1340    1.0010    1.4740 C   0  0  0  0  0  0  0  0  0  0  0  0
   -1.5260    0.8930    1.5510 C   0  0  0  0  0  0  0  0  0  0  0  0
   -2.2930    0.8300    0.4010 C   0  0  0  0  0  0  0  0  0  0  0  0
   -3.7490    0.7180    0.4190 C   0  0  0  0  0  0  0  0  0  0  0  0
   -4.4540    0.0630    1.4020 C   0  0  0  0  0  0  0  0  0  0  0  0
   -5.8390   -0.0240    1.3890 C   0  0  0  0  0  0  0  0  0  0  0  0
   -6.5670    0.5550    0.3720 C   0  0  0  0  0  0  0  0  0  0  0  0
   -8.0220    0.5080    0.2880 C   0  0  0  0  0  0  0  0  0  0  0  0
   -8.8120    0.4860    1.4220 C   0  0  0  0  0  0  0  0  0  0  0  0
  -10.1910    0.4410    1.3320 C   0  0  0  0  0  0  0  0  0  0  0  0
  -10.8450    0.4160    0.1190 C   0  0  0  0  0  0  0  0  0  0  0  0
  -10.0610    0.4370   -1.0150 C   0  0  0  0  0  0  0  0  0  0  0  0
   -8.6820    0.4820   -0.9260 C   0  0  0  0  0  0  0  0  0  0  0  0
   -5.8710    1.2140   -0.6180 C   0  0  0  0  0  0  0  0  0  0  0  0
   -4.4960    1.2980   -0.6020 C   0  0  0  0  0  0  0  0  0  0  0  0
   -1.6440    0.8760   -0.8120 C   0  0  0  0  0  0  0  0  0  0  0  0
   -0.2670    0.9830   -0.8840 C   0  0  0  0  0  0  0  0  0  0  0  0
  1  2  1  0
  2  3  2  0
  2  4  1  0
  4  5  1  1
  4 10  1  0
  5  6  1  0
  6  7  1  0
  7  8  2  0
  7  9  1  0
 10 11  1  0
 11 12  2  0
 11 13  1  0
 13 14  1  0
 14 15  1  0
 15 16  2  0
 15 32  1  0
 16 17  1  0
 17 18  2  0
 18 19  1  0
 18 31  1  0
 19 20  2  0
 19 30  1  0
 20 21  1  0
 21 22  2  0
 22 23  1  0
 22 29  1  0
 23 24  2  0
 23 28  1  0
 24 25  1  0
 25 26  2  0
 26 27  1  0
 27 28  2  0
 29 30  2  0
 31 32  2  0
M  END
