
     RDKit          3D

 33 36  0  0  0  0  0  0  0  0999 V2000
   -8.6530   -0.1140    0.1340 C   0  0  0  0  0  0  0  0  0  0  0  0
   -7.2990   -0.4890   -0.1970 N   0  0  0  0  0  0  0  0  0  0  0  0
   -6.9930   -1.9620    0.1010 C   0  0  0  0  0  0  0  0  0  0  0  0
   -8.0320   -2.6720    0.1010 N   0  0  0  0  0  0  0  0  0  0  0  0
   -7.8320   -4.1610   -0.0520 C   0  0  0  0  0  0  0  0  0  0  0  0
   -6.5900   -4.2770   -0.1440 N   0  0  0  0  0  0  0  0  0  0  0  0
   -5.4970   -3.6400   -0.1550 C   0  0  0  0  0  0  0  0  0  0  0  0
   -3.8020   -3.9730   -0.2270 S   0  0  0  0  0  0  0  0  0  0  0  0
   -3.2820   -2.2150   -0.0260 C   0  0  0  0  0  0  0  0  0  0  0  0
   -4.4990   -1.5340    0.0640 C   0  0  0  0  0  0  0  0  0  0  0  0
   -5.6200   -2.2110   -0.0040 C   0  0  0  0  0  0  0  0  0  0  0  0
   -4.1750   -0.0660    0.3950 C   0  0  0  0  0  0  0  0  0  0  0  0
   -3.1600    0.4510   -0.5350 C   0  0  0  0  0  0  0  0  0  0  0  0
   -2.0280   -0.4000   -0.8230 N   0  0  0  0  0  0  0  0  0  0  0  0
   -0.7850    0.2980   -0.7760 C   0  0  0  0  0  0  0  0  0  0  0  0
    0.4600   -0.4700   -1.0080 C   0  0  0  0  0  0  0  0  0  0  0  0
    1.6080    0.5110   -0.7370 C   0  0  0  0  0  0  0  0  0  0  0  0
    1.1240    1.7920   -0.8800 O   0  0  0  0  0  0  0  0  0  0  0  0
    2.8650    0.3310   -0.4260 N   0  0  0  0  0  0  0  0  0  0  0  0
    3.8780    1.3160   -0.1420 C   0  0  0  0  0  0  0  0  0  0  0  0
    3.6010    2.5750    0.1760 C   0  0  0  0  0  0  0  0  0  0  0  0
    4.5830    3.6030    0.3300 C   0  0  0  0  0  0  0  0  0  0  0  0
    4.1470    5.2190    0.8050 Cl  0  0  0  0  0  0  0  0  0  0  0  0
    5.8880    3.2630    0.1350 C   0  0  0  0  0  0  0  0  0  0  0  0
    6.2110    1.9330   -0.1980 C   0  0  0  0  0  0  0  0  0  0  0  0
    7.6090    1.6160   -0.2790 N   0  0  0  0  0  0  0  0  0  0  0  0
    8.3770    0.6640    0.1490 C   0  0  0  0  0  0  0  0  0  0  0  0
    7.6840   -0.3010    0.9300 O   0  0  0  0  0  0  0  0  0  0  0  0
    9.7880    0.2810    0.0750 C   0  0  0  0  0  0  0  0  0  0  0  0
   10.5580    1.0450    0.9470 C   0  0  0  0  0  0  0  0  0  0  0  0
   11.3390    1.8400    1.8700 N   0  0  0  0  0  0  0  0  0  0  0  0
    5.2250    0.9870   -0.3300 C   0  0  0  0  0  0  0  0  0  0  0  0
   -1.9710   -1.5790    0.0640 C   0  0  0  0  0  0  0  0  0  0  0  0
  1  2  1  0
  2  3  1  0
  3  4  2  0
  3 11  1  0
  4  5  1  0
  5  6  2  0
  6  7  1  0
  7  8  1  0
  7 11  2  0
  8  9  1  0
  9 10  2  0
  9 33  1  0
 10 11  1  0
 10 12  1  0
 12 13  1  0
 13 14  1  0
 14 15  1  0
 14 33  1  0
 15 16  1  0
 16 17  1  0
 17 18  2  0
 17 19  1  0
 19 20  1  0
 20 21  2  0
 20 32  1  0
 21 22  1  0
 22 23  1  0
 22 24  2  0
 24 25  1  0
 25 26  1  0
 25 32  2  0
 26 27  1  0
 27 28  2  0
 27 29  1  0
 29 30  1  0
 30 31  3  0
M  END
