
     RDKit          3D

 33 35  0  0  0  0  0  0  0  0999 V2000
   -1.6730   -2.1680    2.1640 C   0  0  0  0  0  0  0  0  0  0  0  0
   -1.0330   -2.0920    0.7520 C   0  0  0  0  0  0  0  0  0  0  0  0
   -2.0840   -1.6200   -0.2420 C   0  0  1  0  0  0  0  0  0  0  0  0
   -2.6260   -0.2910    0.1140 C   0  0  0  0  0  0  0  0  0  0  0  0
   -3.9400   -0.3820    0.3490 C   0  0  0  0  0  0  0  0  0  0  0  0
   -4.8870    0.6680    0.7270 C   0  0  0  0  0  0  0  0  0  0  0  0
   -4.2930    1.9350    1.0250 C   0  0  1  0  0  0  0  0  0  0  0  0
   -4.5350    2.2640    2.3750 O   0  0  0  0  0  0  0  0  0  0  0  0
   -2.8160    2.0400    0.7570 C   0  0  0  0  0  0  0  0  0  0  0  0
   -2.3560    3.3790    1.1400 C   0  0  2  0  0  0  0  0  0  0  0  0
   -2.0070    4.4330    0.1310 C   0  0  0  0  0  0  0  0  0  0  0  0
   -1.0720    4.0240    1.1900 C   0  0  0  0  0  0  0  0  0  0  0  0
   -2.0400    1.0000    0.3260 C   0  0  0  0  0  0  0  0  0  0  0  0
   -0.6850    1.4300    0.0250 N   0  0  0  0  0  0  0  0  0  0  0  0
    0.6060    0.9630    0.1760 C   0  0  0  0  0  0  0  0  0  0  0  0
    1.2890    1.1790    1.2760 O   0  0  0  0  0  0  0  0  0  0  0  0
    1.4230    0.1930   -0.7810 C   0  0  1  0  0  0  0  0  0  0  0  0
    1.9400    1.0160   -1.9810 C   0  0  0  0  0  0  0  0  0  0  0  0
    2.5440   -0.5310   -0.2140 N   0  0  0  0  0  0  0  0  0  0  0  0
    3.5860    0.1850    0.4050 C   0  0  0  0  0  0  0  0  0  0  0  0
    3.5650    1.4780    0.3610 O   0  0  0  0  0  0  0  0  0  0  0  0
    4.7480   -0.3480    1.1320 C   0  0  1  0  0  0  0  0  0  0  0  0
    4.7890   -1.6900    1.3430 O   0  0  0  0  0  0  0  0  0  0  0  0
    5.9690    0.0170    0.3230 C   0  0  0  0  0  0  0  0  0  0  0  0
    6.9000   -0.9660   -0.0730 N   0  0  0  0  0  0  0  0  0  0  0  0
    6.1830    1.2120   -0.0160 O   0  0  0  0  0  0  0  0  0  0  0  0
    2.5690   -1.9710   -0.3910 C   0  0  0  0  0  0  0  0  0  0  0  0
    1.9190   -2.3870   -1.6970 C   0  0  0  0  0  0  0  0  0  0  0  0
    0.6580   -3.1550   -1.5190 C   0  0  0  0  0  0  0  0  0  0  0  0
    0.9270   -4.3480   -1.0710 O   0  0  0  0  0  0  0  0  0  0  0  0
   -0.5880   -2.8660   -1.7200 O   0  0  0  0  0  0  0  0  0  0  0  0
   -1.6330   -1.9790   -1.5740 C   0  0  2  0  0  0  0  0  0  0  0  0
   -1.6330   -0.9290   -2.6530 C   0  0  0  0  0  0  0  0  0  0  0  0
  1  2  1  0
  3  2  1  1
  3  4  1  0
  3 32  1  0
  4  5  2  0
  4 13  1  0
  5  6  1  0
  6  7  1  0
  7  8  1  1
  7  9  1  0
 10  9  1  6
  9 13  2  0
 10 11  1  0
 10 12  1  0
 11 12  1  0
 13 14  1  0
 14 15  1  0
 15 16  2  0
 15 17  1  0
 17 18  1  6
 17 19  1  0
 19 20  1  0
 19 27  1  0
 20 21  2  0
 20 22  1  0
 22 23  1  6
 22 24  1  0
 24 25  1  0
 24 26  2  0
 27 28  1  0
 28 29  1  0
 29 30  2  0
 29 31  1  0
 31 32  1  0
 32 33  1  1
M  END
