
     RDKit          3D

 33 36  0  0  0  0  0  0  0  0999 V2000
    6.8170    2.5910    0.0030 C   0  0  0  0  0  0  0  0  0  0  0  0
    6.1090    1.8740    1.1010 C   0  0  2  0  0  0  0  0  0  0  0  0
    7.0350    1.1890    1.8860 O   0  0  0  0  0  0  0  0  0  0  0  0
    5.0550    0.9000    0.5320 C   0  0  2  0  0  0  0  0  0  0  0  0
    4.3300    1.6580   -0.5120 C   0  0  0  0  0  0  0  0  0  0  0  0
    3.3430    1.0220   -1.1920 O   0  0  0  0  0  0  0  0  0  0  0  0
    3.7610   -0.0540   -1.9720 C   0  0  0  0  0  0  0  0  0  0  0  0
    3.0470   -1.2720   -1.4360 C   0  0  1  0  0  0  0  0  0  0  0  0
    3.3260   -2.6380   -1.8920 C   0  0  0  0  0  0  0  0  0  0  0  0
    4.0800   -2.1180   -0.7360 C   0  0  2  0  0  0  0  0  0  0  0  0
    3.7360   -2.4670    0.6510 C   0  0  0  0  0  0  0  0  0  0  0  0
    4.7210   -2.8210    1.3980 O   0  0  0  0  0  0  0  0  0  0  0  0
    2.4590   -2.4610    1.2550 N   0  0  0  0  0  0  0  0  0  0  0  0
    1.5470   -1.3770    1.3840 C   0  0  0  0  0  0  0  0  0  0  0  0
    0.2200   -1.6820    1.0890 C   0  0  0  0  0  0  0  0  0  0  0  0
   -0.8140   -0.7430    1.1800 C   0  0  0  0  0  0  0  0  0  0  0  0
   -2.1380   -1.1240    0.8860 N   0  0  0  0  0  0  0  0  0  0  0  0
   -3.2160   -0.2760    0.6290 C   0  0  0  0  0  0  0  0  0  0  0  0
   -3.0800    0.9560    0.6330 O   0  0  0  0  0  0  0  0  0  0  0  0
   -4.5500   -0.8860    0.3450 C   0  0  0  0  0  0  0  0  0  0  0  0
   -5.5700    0.1460   -0.0060 C   0  0  1  0  0  0  0  0  0  0  0  0
   -5.1970    0.8620   -1.1800 N   0  0  0  0  0  0  0  0  0  0  0  0
   -5.7570    0.1180   -2.3000 C   0  0  0  0  0  0  0  0  0  0  0  0
   -7.0500   -0.4580   -1.8180 C   0  0  0  0  0  0  0  0  0  0  0  0
   -6.9140   -0.4330   -0.3180 C   0  0  2  0  0  0  0  0  0  0  0  0
   -7.9780    0.4960    0.2540 C   0  0  0  0  0  0  0  0  0  0  0  0
   -7.8770    1.7490   -0.3030 O   0  0  0  0  0  0  0  0  0  0  0  0
   -0.5110    0.5290    1.5760 C   0  0  0  0  0  0  0  0  0  0  0  0
    0.8210    0.8460    1.8760 C   0  0  0  0  0  0  0  0  0  0  0  0
    1.8350   -0.0950    1.7810 C   0  0  0  0  0  0  0  0  0  0  0  0
    3.1770    0.4090    2.1520 C   0  0  0  0  0  0  0  0  0  0  0  0
    3.1420    1.0870    3.2660 O   0  0  0  0  0  0  0  0  0  0  0  0
    4.3400    0.2370    1.4870 O   0  0  0  0  0  0  0  0  0  0  0  0
  2  1  1  6
  2  3  1  0
  2  4  1  0
  4  5  1  1
  4 33  1  0
  5  6  1  0
  6  7  1  0
  8  7  1  6
  8  9  1  0
  8 10  1  0
 10  9  1  6
 10 11  1  0
 11 12  2  0
 11 13  1  0
 13 14  1  0
 14 15  2  0
 14 30  1  0
 15 16  1  0
 16 17  1  0
 16 28  2  0
 17 18  1  0
 18 19  2  0
 18 20  1  0
 21 20  1  6
 21 22  1  0
 21 25  1  0
 22 23  1  0
 23 24  1  0
 24 25  1  0
 25 26  1  1
 26 27  1  0
 28 29  1  0
 29 30  2  0
 30 31  1  0
 31 32  2  0
 31 33  1  0
M  CHG  1  22   1
M  END
