
     RDKit          3D

 33 36  0  0  0  0  0  0  0  0999 V2000
   -4.7670    0.0410    2.6610 C   0  0  0  0  0  0  0  0  0  0  0  0
   -4.0210   -0.1790    1.3800 C   0  0  1  0  0  0  0  0  0  0  0  0
   -4.5520    0.6120    0.2570 C   0  0  0  0  0  0  0  0  0  0  0  0
   -3.8390    1.4830   -0.3380 O   0  0  0  0  0  0  0  0  0  0  0  0
   -5.8790    0.4510   -0.2230 N   0  0  0  0  0  0  0  0  0  0  0  0
   -6.3620    1.2470   -1.3270 C   0  0  0  0  0  0  0  0  0  0  0  0
   -6.3110    2.6760   -1.0230 N   0  0  0  0  0  0  0  0  0  0  0  0
   -2.6640    0.2320    1.6080 O   0  0  0  0  0  0  0  0  0  0  0  0
   -1.6800   -0.2020    0.6980 C   0  0  0  0  0  0  0  0  0  0  0  0
   -0.4430    0.3800    0.7000 C   0  0  0  0  0  0  0  0  0  0  0  0
    0.5660   -0.0250   -0.1920 C   0  0  0  0  0  0  0  0  0  0  0  0
    1.8170    0.6400   -0.1310 N   0  0  0  0  0  0  0  0  0  0  0  0
    2.9830    0.2470   -0.7910 C   0  0  0  0  0  0  0  0  0  0  0  0
    3.0130   -0.7670   -1.5140 O   0  0  0  0  0  0  0  0  0  0  0  0
    4.2610    1.0470   -0.6510 C   0  0  1  0  0  0  0  0  0  0  0  0
    4.6360    1.1680    0.8140 C   0  0  0  0  0  0  0  0  0  0  0  0
    6.0520    1.7420    0.8470 C   0  0  1  0  0  0  0  0  0  0  0  0
    6.4290    2.1140    2.1270 O   0  0  0  0  0  0  0  0  0  0  0  0
    6.9370    0.6960    0.2770 C   0  0  0  0  0  0  0  0  0  0  0  0
    8.1440    0.3470    0.8420 C   0  0  0  0  0  0  0  0  0  0  0  0
    8.9190   -0.6470    0.2460 C   0  0  0  0  0  0  0  0  0  0  0  0
    8.4950   -1.2890   -0.9050 C   0  0  0  0  0  0  0  0  0  0  0  0
    7.2830   -0.9240   -1.4560 C   0  0  0  0  0  0  0  0  0  0  0  0
    6.5120    0.0600   -0.8680 C   0  0  0  0  0  0  0  0  0  0  0  0
    5.2750    0.4560   -1.4000 O   0  0  0  0  0  0  0  0  0  0  0  0
    0.2340   -1.0310   -1.0570 C   0  0  0  0  0  0  0  0  0  0  0  0
   -1.0130   -1.6480   -1.0900 C   0  0  0  0  0  0  0  0  0  0  0  0
   -1.9560   -1.2130   -0.1980 C   0  0  0  0  0  0  0  0  0  0  0  0
   -3.2950   -1.8880   -0.2460 C   0  0  2  0  0  0  0  0  0  0  0  0
   -3.9960   -1.3020   -1.2980 O   0  0  0  0  0  0  0  0  0  0  0  0
   -3.9480   -1.6610    1.0810 C   0  0  2  0  0  0  0  0  0  0  0  0
   -5.2720   -2.3490    1.1200 C   0  0  0  0  0  0  0  0  0  0  0  0
   -3.1100   -2.2230    2.0570 O   0  0  0  0  0  0  0  0  0  0  0  0
  2  1  1  1
  2  3  1  0
  2  8  1  0
  2 31  1  0
  3  4  2  0
  3  5  1  0
  5  6  1  0
  6  7  1  0
  8  9  1  0
  9 10  2  0
  9 28  1  0
 10 11  1  0
 11 12  1  0
 11 26  2  0
 12 13  1  0
 13 14  2  0
 15 13  1  1
 15 16  1  0
 15 25  1  0
 16 17  1  0
 17 18  1  1
 17 19  1  0
 19 20  2  0
 19 24  1  0
 20 21  1  0
 21 22  2  0
 22 23  1  0
 23 24  2  0
 24 25  1  0
 26 27  1  0
 27 28  2  0
 28 29  1  0
 29 30  1  6
 29 31  1  0
 31 32  1  6
 31 33  1  0
M  CHG  1   7   1
M  END
