
     RDKit          3D

 33 35  0  0  0  0  0  0  0  0999 V2000
   -2.7290    3.3880    0.7430 C   0  0  0  0  0  0  0  0  0  0  0  0
   -3.3800    2.6450   -0.4170 C   0  0  2  0  0  0  0  0  0  0  0  0
   -3.4310    1.3120   -0.1030 O   0  0  0  0  0  0  0  0  0  0  0  0
   -4.6710    0.8140    0.2090 C   0  0  0  0  0  0  0  0  0  0  0  0
   -4.4750   -0.3550    1.1680 C   0  0  0  0  0  0  0  0  0  0  0  0
   -3.0140   -0.5100    1.5250 C   0  0  0  0  0  0  0  0  0  0  0  0
   -2.5160   -1.8100    0.9830 C   0  0  2  0  0  0  0  0  0  0  0  0
   -2.9650   -2.0610   -0.3000 O   0  0  0  0  0  0  0  0  0  0  0  0
   -3.2070   -2.8920    1.8470 C   0  0  0  0  0  0  0  0  0  0  0  0
   -2.8300   -2.7470    3.1840 O   0  0  0  0  0  0  0  0  0  0  0  0
   -1.0590   -2.0490    1.1750 C   0  0  0  0  0  0  0  0  0  0  0  0
   -0.1500   -1.0160    0.7800 N   0  0  0  0  0  0  0  0  0  0  0  0
   -0.0060   -0.7670   -0.5950 C   0  0  2  0  0  0  0  0  0  0  0  0
    1.2900   -1.1120   -1.2700 C   0  0  2  0  0  0  0  0  0  0  0  0
    1.6290   -2.5870   -1.1680 C   0  0  1  0  0  0  0  0  0  0  0  0
    2.2090   -3.0530   -2.3740 O   0  0  0  0  0  0  0  0  0  0  0  0
    2.5400   -2.9640   -0.0660 C   0  0  0  0  0  0  0  0  0  0  0  0
    3.6660   -1.9620    0.0830 C   0  0  0  0  0  0  0  0  0  0  0  0
    3.7130   -1.0160   -1.0980 C   0  0  0  0  0  0  0  0  0  0  0  0
    2.4180   -0.1800   -1.1490 C   0  0  2  0  0  0  0  0  0  0  0  0
    2.4970    0.7070   -0.0530 N   0  0  0  0  0  0  0  0  0  0  0  0
    3.5980    1.5900    0.0890 C   0  0  0  0  0  0  0  0  0  0  0  0
    4.4000    1.5990    1.1330 C   0  0  0  0  0  0  0  0  0  0  0  0
    5.5590    2.5000    1.3240 C   0  0  0  0  0  0  0  0  0  0  0  0
    5.7440    3.3740    0.2720 O   0  0  0  0  0  0  0  0  0  0  0  0
    4.9220    3.3890   -0.8340 C   0  0  0  0  0  0  0  0  0  0  0  0
    3.8920    2.5640   -0.9680 C   0  0  0  0  0  0  0  0  0  0  0  0
   -0.3490    0.6600   -0.9830 C   0  0  0  0  0  0  0  0  0  0  0  0
   -1.4020    0.6740   -2.0520 C   0  0  0  0  0  0  0  0  0  0  0  0
   -1.6840   -0.4380   -2.5960 O   0  0  0  0  0  0  0  0  0  0  0  0
   -2.0850    1.8130   -2.4860 N   0  0  0  0  0  0  0  0  0  0  0  0
   -2.6290    2.8380   -1.6640 C   0  0  0  0  0  0  0  0  0  0  0  0
   -2.4550    4.0470   -2.0360 O   0  0  0  0  0  0  0  0  0  0  0  0
  2  1  1  1
  2  3  1  0
  2 32  1  0
  3  4  1  0
  4  5  1  0
  5  6  1  0
  6  7  1  0
  7  8  1  6
  7  9  1  0
  7 11  1  0
  9 10  1  0
 11 12  1  0
 12 13  1  0
 14 13  1  1
 13 28  1  1
 14 15  1  0
 14 20  1  0
 15 16  1  6
 15 17  1  0
 17 18  1  0
 18 19  1  0
 19 20  1  0
 20 21  1  1
 21 22  1  0
 22 23  2  0
 22 27  1  0
 23 24  1  0
 24 25  1  0
 25 26  1  0
 26 27  2  0
 28 29  1  0
 29 30  2  0
 29 31  1  0
 31 32  1  0
 32 33  2  0
M  CHG  1  12   1
M  END
