
     RDKit          3D

 32 34  0  0  0  0  0  0  0  0999 V2000
    4.0750   -4.7830    0.0790 C   0  0  0  0  0  0  0  0  0  0  0  0
    4.7570   -4.6430   -1.2460 C   0  0  0  0  0  0  0  0  0  0  0  0
    4.8300   -3.2590   -1.5700 O   0  0  0  0  0  0  0  0  0  0  0  0
    3.6510   -2.4960   -1.6650 C   0  0  0  0  0  0  0  0  0  0  0  0
    2.5850   -3.1060   -1.4440 O   0  0  0  0  0  0  0  0  0  0  0  0
    3.6710   -1.1030   -1.9970 C   0  0  0  0  0  0  0  0  0  0  0  0
    2.6920   -0.2580   -2.1250 C   0  0  0  0  0  0  0  0  0  0  0  0
    1.2880   -0.6580   -1.9240 C   0  0  0  0  0  0  0  0  0  0  0  0
    0.8720   -0.4200   -0.5550 N   0  0  0  0  0  0  0  0  0  0  0  0
    0.0320   -1.4280   -0.0100 C   0  0  0  0  0  0  0  0  0  0  0  0
   -1.3140   -0.8710    0.5060 C   0  0  1  0  0  0  0  0  0  0  0  0
   -1.6990   -1.7440    1.6360 C   0  0  0  0  0  0  0  0  0  0  0  0
   -1.1570   -2.9750    1.6590 C   0  0  0  0  0  0  0  0  0  0  0  0
   -1.4610   -3.9500    2.7470 C   0  0  0  0  0  0  0  0  0  0  0  0
   -2.4700   -3.5500    3.6150 O   0  0  0  0  0  0  0  0  0  0  0  0
   -3.0170   -2.2640    3.5690 C   0  0  0  0  0  0  0  0  0  0  0  0
   -2.6720   -1.4000    2.6540 C   0  0  0  0  0  0  0  0  0  0  0  0
   -1.2370    0.4550    0.6690 O   0  0  0  0  0  0  0  0  0  0  0  0
   -2.3210    1.2560    0.6280 C   0  0  1  0  0  0  0  0  0  0  0  0
   -2.1840    2.1630    1.8770 C   0  0  0  0  0  0  0  0  0  0  0  0
   -3.5170    2.7950    2.1000 C   0  0  0  0  0  0  0  0  0  0  0  0
   -3.7140    3.8270    1.0080 C   0  0  0  0  0  0  0  0  0  0  0  0
   -2.7070    3.6410   -0.0800 C   0  0  0  0  0  0  0  0  0  0  0  0
   -2.5360    2.1900   -0.5090 C   0  0  1  0  0  0  0  0  0  0  0  0
   -1.5490    2.1690   -1.6000 C   0  0  0  0  0  0  0  0  0  0  0  0
   -1.7640    1.2740   -2.5000 O   0  0  0  0  0  0  0  0  0  0  0  0
   -0.4270    2.9720   -1.7980 N   0  0  0  0  0  0  0  0  0  0  0  0
    0.6140    3.3280   -0.8550 C   0  0  0  0  0  0  0  0  0  0  0  0
    1.9920    2.9780   -1.3410 C   0  0  1  0  0  0  0  0  0  0  0  0
    2.7420    2.4410   -0.2770 O   0  0  0  0  0  0  0  0  0  0  0  0
    2.0910    2.1170   -2.5370 C   0  0  0  0  0  0  0  0  0  0  0  0
    2.9730    1.0530   -2.4590 O   0  0  0  0  0  0  0  0  0  0  0  0
  1  2  1  0
  2  3  1  0
  3  4  1  0
  4  5  2  0
  4  6  1  0
  6  7  2  3
  7  8  1  0
  7 32  1  0
  8  9  1  0
  9 10  1  0
 10 11  1  0
 11 12  1  1
 11 18  1  0
 12 13  2  0
 12 17  1  0
 13 14  1  0
 14 15  1  0
 15 16  1  0
 16 17  2  0
 18 19  1  0
 19 20  1  1
 19 24  1  0
 20 21  1  0
 21 22  1  0
 22 23  1  0
 24 23  1  1
 24 25  1  0
 25 26  2  0
 25 27  1  0
 27 28  1  0
 28 29  1  0
 29 30  1  1
 29 31  1  0
 31 32  1  0
M  CHG  1   9   1
M  END
