
     RDKit          3D

 32 34  0  0  0  0  0  0  0  0999 V2000
    2.3590   -2.6590    0.5940 C   0  0  0  0  0  0  0  0  0  0  0  0
    0.9660   -2.0750    0.6400 C   0  0  1  0  0  0  0  0  0  0  0  0
    0.9800   -0.5820    0.8220 C   0  0  1  0  0  0  0  0  0  0  0  0
    2.1380   -0.0550    0.1080 N   0  0  0  0  0  0  0  0  0  0  0  0
    3.1940    0.5760    0.8190 C   0  0  0  0  0  0  0  0  0  0  0  0
    3.0840    0.6610    2.0980 O   0  0  0  0  0  0  0  0  0  0  0  0
    4.3920    1.1400    0.2480 C   0  0  0  0  0  0  0  0  0  0  0  0
    4.5790    1.0930   -1.0570 C   0  0  0  0  0  0  0  0  0  0  0  0
    5.6860    1.5920   -1.7790 O   0  0  0  0  0  0  0  0  0  0  0  0
    6.5980    2.5980   -1.4560 C   0  0  0  0  0  0  0  0  0  0  0  0
    7.4470    2.2730   -0.2500 C   0  0  2  0  0  0  0  0  0  0  0  0
    8.2890    1.2010   -0.4940 O   0  0  0  0  0  0  0  0  0  0  0  0
    6.6800    2.1420    0.9580 N   0  0  0  0  0  0  0  0  0  0  0  0
    5.3400    1.7430    1.2130 C   0  0  0  0  0  0  0  0  0  0  0  0
    4.9030    1.9190    2.3880 O   0  0  0  0  0  0  0  0  0  0  0  0
   -0.2990    0.0640    0.3370 C   0  0  0  0  0  0  0  0  0  0  0  0
   -1.4810   -0.8850    0.5010 C   0  0  1  0  0  0  0  0  0  0  0  0
   -2.6870   -0.1780    0.2490 N   0  0  2  0  0  0  0  0  0  0  0  0
   -2.6310    0.7370   -0.8620 C   0  0  0  0  0  0  0  0  0  0  0  0
   -4.0660    1.0590   -1.2220 C   0  0  0  0  0  0  0  0  0  0  0  0
   -4.8050    1.6220   -0.0600 C   0  0  2  0  0  0  0  0  0  0  0  0
   -6.2920    1.3010   -0.2670 C   0  0  0  0  0  0  0  0  0  0  0  0
   -4.7140    3.1430   -0.1300 C   0  0  0  0  0  0  0  0  0  0  0  0
   -3.4220    3.6070   -0.0880 O   0  0  0  0  0  0  0  0  0  0  0  0
   -4.4240    1.0890    1.2710 C   0  0  0  0  0  0  0  0  0  0  0  0
   -2.9970    0.6760    1.4130 C   0  0  0  0  0  0  0  0  0  0  0  0
   -1.3120   -2.1740   -0.2040 C   0  0  2  0  0  0  0  0  0  0  0  0
   -2.0670   -2.3050   -1.4990 C   0  0  0  0  0  0  0  0  0  0  0  0
   -1.8120   -3.3070    0.7000 C   0  0  0  0  0  0  0  0  0  0  0  0
    0.1590   -2.4040   -0.5700 C   0  0  2  0  0  0  0  0  0  0  0  0
    0.4060   -3.7830   -1.0840 C   0  0  0  0  0  0  0  0  0  0  0  0
    0.4210   -1.5320   -1.6480 O   0  0  0  0  0  0  0  0  0  0  0  0
  2  1  1  6
  2  3  1  0
  2 30  1  0
  3  4  1  6
  3 16  1  0
  4  5  1  0
  5  6  2  0
  5  7  1  0
  7  8  2  0
  7 14  1  0
  8  9  1  0
  9 10  1  0
 10 11  1  0
 11 12  1  6
 11 13  1  0
 13 14  1  0
 14 15  2  0
 17 16  1  6
 17 18  1  0
 17 27  1  0
 18 19  1  6
 18 26  1  0
 19 20  1  0
 20 21  1  0
 21 22  1  6
 21 23  1  0
 21 25  1  0
 23 24  1  0
 25 26  1  0
 27 28  1  6
 27 29  1  0
 27 30  1  0
 30 31  1  6
 30 32  1  0
M  CHG  1  18   1
M  END
