
     RDKit          3D

 35 41  0  0  0  0  0  0  0  0999 V2000
    6.2720    2.3980    1.0340 C   0  0  0  0  0  0  0  0  0  0  0  0
    5.7960    1.0240    0.7240 C   0  0  0  0  0  0  0  0  0  0  0  0
    6.6700    0.0180    0.3870 C   0  0  0  0  0  0  0  0  0  0  0  0
    6.1820   -1.2430    0.1080 C   0  0  0  0  0  0  0  0  0  0  0  0
    4.8410   -1.4690    0.1700 C   0  0  0  0  0  0  0  0  0  0  0  0
    3.9420   -0.4970    0.5000 C   0  0  0  0  0  0  0  0  0  0  0  0
    4.4450    0.7760    0.7820 C   0  0  0  0  0  0  0  0  0  0  0  0
    2.6020   -0.7740    0.5500 O   0  0  0  0  0  0  0  0  0  0  0  0
    2.0000   -1.9920    0.1270 C   0  0  1  0  0  0  0  0  0  0  0  0
    1.2110   -1.7400   -1.1650 C   0  0  0  0  0  0  0  0  0  0  0  0
    0.1770   -0.7540   -0.9510 N   0  0  0  0  0  0  0  0  0  0  0  0
    0.4620    0.5570   -1.1840 C   0  0  0  0  0  0  0  0  0  0  0  0
    1.6230    0.8370   -1.5750 O   0  0  0  0  0  0  0  0  0  0  0  0
   -0.4240    1.5810   -1.0210 C   0  0  0  0  0  0  0  0  0  0  0  0
   -1.7090    1.2730   -0.5940 C   0  0  0  0  0  0  0  0  0  0  0  0
   -2.0280   -0.0400   -0.3450 C   0  0  0  0  0  0  0  0  0  0  0  0
   -3.2800   -0.3990    0.1230 C   0  0  0  0  0  0  0  0  0  0  0  0
   -3.5890   -1.7140    0.3990 C   0  0  0  0  0  0  0  0  0  0  0  0
   -4.7320   -2.3530    0.8640 C   0  0  0  0  0  0  0  0  0  0  0  0
   -5.9820   -1.6120    1.1840 C   0  0  0  0  0  0  0  0  0  0  0  0
   -4.4730   -3.6850    0.9520 C   0  0  0  0  0  0  0  0  0  0  0  0
   -3.1870   -3.9120    0.5520 N   0  0  0  0  0  0  0  0  0  0  0  0
   -2.6640   -2.7180    0.2220 C   0  0  0  0  0  0  0  0  0  0  0  0
   -1.4110   -2.3310   -0.2470 C   0  0  0  0  0  0  0  0  0  0  0  0
   -1.0670   -1.0320   -0.5320 C   0  0  0  0  0  0  0  0  0  0  0  0
   -2.6840    2.3740   -0.5580 C   0  0  1  0  0  0  0  0  0  0  0  0
   -2.9920    2.8800   -2.0160 C   0  0  0  0  0  0  0  0  0  0  0  0
   -4.0370    2.3950   -1.0420 C   0  0  0  0  0  0  0  0  0  0  0  0
   -2.0100    3.5370    0.1770 C   0  0  0  0  0  0  0  0  0  0  0  0
   -0.9530    3.9860   -0.8190 C   0  0  0  0  0  0  0  0  0  0  0  0
   -0.8870    5.1120   -1.3040 O   0  0  0  0  0  0  0  0  0  0  0  0
   -0.0170    2.9460   -1.1480 N   0  0  0  0  0  0  0  0  0  0  0  0
    3.0110   -3.0490   -0.0710 C   0  0  0  0  0  0  0  0  0  0  0  0
    2.6390   -4.2330   -0.2010 O   0  0  0  0  0  0  0  0  0  0  0  0
    4.3490   -2.7480   -0.1140 O   0  0  0  0  0  0  0  0  0  0  0  0
  1  2  1  0
  2  3  2  0
  2  7  1  0
  3  4  1  0
  4  5  2  0
  5  6  1  0
  5 35  1  0
  6  7  2  0
  6  8  1  0
  8  9  1  0
  9 10  1  6
  9 33  1  0
 10 11  1  0
 11 12  1  0
 11 25  1  0
 12 13  2  0
 12 14  1  0
 14 15  2  0
 14 32  1  0
 15 16  1  0
 15 26  1  0
 16 17  2  0
 16 25  1  0
 17 18  1  0
 18 19  1  0
 18 23  2  0
 19 20  1  0
 19 21  2  0
 21 22  1  0
 22 23  1  0
 23 24  1  0
 24 25  2  0
 26 27  1  6
 26 28  1  0
 26 29  1  0
 27 28  1  0
 29 30  1  0
 30 31  2  0
 30 32  1  0
 33 34  2  0
 33 35  1  0
M  END
