
     RDKit          3D

 35 40  0  0  0  0  0  0  0  0999 V2000
   -3.4840   -1.7750    1.8600 C   0  0  0  0  0  0  0  0  0  0  0  0
   -2.6520   -1.4160    0.6130 C   0  0  0  0  0  0  0  0  0  0  0  0
   -2.8970   -0.0080    0.4130 C   0  0  0  0  0  0  0  0  0  0  0  0
   -2.3800    0.7420   -0.5930 C   0  0  0  0  0  0  0  0  0  0  0  0
   -1.6210   -0.0210   -1.3710 N   0  0  0  0  0  0  0  0  0  0  0  0
   -1.3320   -1.3070   -1.2760 C   0  0  0  0  0  0  0  0  0  0  0  0
   -0.4190   -1.6380   -2.2190 C   0  0  0  0  0  0  0  0  0  0  0  0
    0.1240   -2.9220   -2.1860 C   0  0  0  0  0  0  0  0  0  0  0  0
   -0.3030   -3.7640   -1.1940 C   0  0  0  0  0  0  0  0  0  0  0  0
   -1.2630   -3.4290   -0.2450 C   0  0  0  0  0  0  0  0  0  0  0  0
   -1.8400   -2.1320   -0.2380 C   0  0  0  0  0  0  0  0  0  0  0  0
    0.7010   -4.8860   -0.7800 C   0  0  0  0  0  0  0  0  0  0  0  0
    1.8140   -4.0290   -0.0180 C   0  0  0  0  0  0  0  0  0  0  0  0
    1.2760   -2.7310    0.0480 O   0  0  0  0  0  0  0  0  0  0  0  0
    1.3950   -1.6670    0.8810 C   0  0  0  0  0  0  0  0  0  0  0  0
    0.5210   -1.5370    1.8320 O   0  0  0  0  0  0  0  0  0  0  0  0
    2.4020   -0.5930    0.8740 C   0  0  0  0  0  0  0  0  0  0  0  0
    3.2820   -0.6570    1.9490 C   0  0  0  0  0  0  0  0  0  0  0  0
    4.3830    0.1560    2.1180 C   0  0  0  0  0  0  0  0  0  0  0  0
    4.6350    1.0980    1.1610 C   0  0  0  0  0  0  0  0  0  0  0  0
    3.7780    1.1730    0.1070 C   0  0  0  0  0  0  0  0  0  0  0  0
    2.6210    0.3700   -0.1260 C   0  0  0  0  0  0  0  0  0  0  0  0
    1.8050    0.6370   -1.2530 N   0  0  0  0  0  0  0  0  0  0  0  0
    0.8420    1.6770   -1.6040 C   0  0  0  0  0  0  0  0  0  0  0  0
    0.5200    1.6820   -2.9000 O   0  0  0  0  0  0  0  0  0  0  0  0
    0.1760    2.7060   -0.8410 C   0  0  0  0  0  0  0  0  0  0  0  0
    0.7550    3.9400   -0.5900 C   0  0  0  0  0  0  0  0  0  0  0  0
   -0.0620    4.7390    0.1660 O   0  0  0  0  0  0  0  0  0  0  0  0
   -1.3620    4.2910    0.0180 C   0  0  1  0  0  0  0  0  0  0  0  0
   -1.8880    5.0120   -1.2000 C   0  0  0  0  0  0  0  0  0  0  0  0
   -1.3820    6.0710   -1.5440 O   0  0  0  0  0  0  0  0  0  0  0  0
   -2.9650    4.3390   -1.8340 N   0  0  0  0  0  0  0  0  0  0  0  0
   -3.1080    2.9450   -1.6230 C   0  0  0  0  0  0  0  0  0  0  0  0
   -2.3420    2.1860   -0.8950 C   0  0  0  0  0  0  0  0  0  0  0  0
   -1.1430    2.8270   -0.2270 C   0  0  1  0  0  0  0  0  0  0  0  0
  1  2  1  0
  2  3  2  0
  2 11  1  0
  3  4  1  0
  4  5  2  0
  4 34  1  0
  5  6  1  0
  6  7  2  0
  6 11  1  0
  7  8  1  0
  8  9  2  0
  9 10  1  0
  9 12  1  0
 10 11  2  0
 12 13  1  0
 13 14  1  0
 14 15  1  0
 15 16  2  0
 15 17  1  0
 17 18  2  0
 17 22  1  0
 18 19  1  0
 19 20  2  0
 20 21  1  0
 21 22  2  0
 22 23  1  0
 23 24  1  0
 24 25  2  0
 24 26  1  0
 26 27  2  0
 35 26  1  6
 27 28  1  0
 29 28  1  6
 29 30  1  0
 29 35  1  0
 30 31  2  0
 30 32  1  0
 32 33  1  0
 33 34  2  0
 34 35  1  0
M  END
