
     RDKit          3D

 35 41  0  0  0  0  0  0  0  0999 V2000
    6.0850    0.0220   -2.5360 C   0  0  0  0  0  0  0  0  0  0  0  0
    5.0950   -0.1950   -1.5510 O   0  0  0  0  0  0  0  0  0  0  0  0
    4.4810    0.9350   -0.9810 C   0  0  0  0  0  0  0  0  0  0  0  0
    4.8140    2.2220   -1.3530 C   0  0  0  0  0  0  0  0  0  0  0  0
    4.2000    3.3160   -0.7830 C   0  0  0  0  0  0  0  0  0  0  0  0
    3.2320    3.1370    0.1800 C   0  0  0  0  0  0  0  0  0  0  0  0
    2.8670    1.8710    0.5840 C   0  0  0  0  0  0  0  0  0  0  0  0
    1.8030    1.6540    1.6430 C   0  0  0  0  0  0  0  0  0  0  0  0
    1.6750    0.3020    1.9950 N   0  0  0  0  0  0  0  0  0  0  0  0
    2.4500   -0.3320    3.0240 C   0  0  0  0  0  0  0  0  0  0  0  0
    3.2450    0.3840    3.6410 O   0  0  0  0  0  0  0  0  0  0  0  0
    2.3420   -1.7430    3.3630 N   0  0  0  0  0  0  0  0  0  0  0  0
    1.2430   -2.5020    2.8900 C   0  0  2  0  0  0  0  0  0  0  0  0
    1.3690   -3.8820    2.3690 C   0  0  0  0  0  0  0  0  0  0  0  0
    0.0670   -4.0400    1.4900 C   0  0  0  0  0  0  0  0  0  0  0  0
   -0.0390   -2.6430    0.9340 C   0  0  0  0  0  0  0  0  0  0  0  0
   -0.5130   -1.7960   -0.0220 C   0  0  0  0  0  0  0  0  0  0  0  0
   -0.0050   -0.4880    0.2310 N   0  0  0  0  0  0  0  0  0  0  0  0
   -0.4000    0.4910   -0.6690 C   0  0  2  0  0  0  0  0  0  0  0  0
   -0.3290    1.9150   -0.6980 C   0  0  0  0  0  0  0  0  0  0  0  0
   -1.0140    2.6240   -1.8880 C   0  0  0  0  0  0  0  0  0  0  0  0
   -1.6100    1.5700   -2.7950 C   0  0  0  0  0  0  0  0  0  0  0  0
   -2.5130    0.8420   -1.8700 C   0  0  0  0  0  0  0  0  0  0  0  0
   -3.8730    0.7130   -2.0270 C   0  0  0  0  0  0  0  0  0  0  0  0
   -4.6240    0.0370   -1.0470 C   0  0  0  0  0  0  0  0  0  0  0  0
   -4.0310   -0.5020    0.0730 C   0  0  0  0  0  0  0  0  0  0  0  0
   -2.6410   -0.3620    0.2190 C   0  0  0  0  0  0  0  0  0  0  0  0
   -1.9380    0.2980   -0.7510 C   0  0  0  0  0  0  0  0  0  0  0  0
   -4.8070   -1.1520    1.0030 O   0  0  0  0  0  0  0  0  0  0  0  0
   -6.2220   -1.1160    1.0250 C   0  0  0  0  0  0  0  0  0  0  0  0
   -6.8260   -0.9580   -0.3280 C   0  0  0  0  0  0  0  0  0  0  0  0
   -6.0320   -0.0990   -1.2060 N   0  0  0  0  0  0  0  0  0  0  0  0
    0.7490   -0.5610    1.3010 C   0  0  0  0  0  0  0  0  0  0  0  0
    0.7080   -1.8440    1.7060 C   0  0  0  0  0  0  0  0  0  0  0  0
    3.5070    0.8080   -0.0140 C   0  0  0  0  0  0  0  0  0  0  0  0
  1  2  1  0
  2  3  1  0
  3  4  2  0
  3 35  1  0
  4  5  1  0
  5  6  2  0
  6  7  1  0
  7  8  1  0
  7 35  2  0
  8  9  1  0
  9 10  1  0
  9 33  1  0
 10 11  2  0
 10 12  1  0
 12 13  1  0
 13 14  1  6
 13 34  1  0
 14 15  1  0
 15 16  1  0
 16 17  2  0
 16 34  1  0
 17 18  1  0
 19 18  1  1
 18 33  1  0
 19 20  1  0
 19 28  1  0
 20 21  1  0
 21 22  1  0
 22 23  1  0
 23 24  2  0
 23 28  1  0
 24 25  1  0
 25 26  2  0
 25 32  1  0
 26 27  1  0
 26 29  1  0
 27 28  2  0
 29 30  1  0
 30 31  1  0
 31 32  1  0
 33 34  2  0
M  END
