
     RDKit          3D

 35 39  0  0  0  0  0  0  0  0999 V2000
    2.1710    1.0990    2.8900 C   0  0  0  0  0  0  0  0  0  0  0  0
    2.7590    0.7940    1.4920 C   0  0  0  0  0  0  0  0  0  0  0  0
    3.1180   -0.6080    1.4970 C   0  0  0  0  0  0  0  0  0  0  0  0
    3.6700   -1.3080    0.4520 C   0  0  0  0  0  0  0  0  0  0  0  0
    3.8670   -0.5310   -0.6660 C   0  0  0  0  0  0  0  0  0  0  0  0
    3.5250    0.8490   -0.7050 C   0  0  0  0  0  0  0  0  0  0  0  0
    2.9700    1.5450    0.3540 C   0  0  0  0  0  0  0  0  0  0  0  0
    2.6550    2.9800    0.1250 C   0  0  0  0  0  0  0  0  0  0  0  0
    3.3070    4.0810    0.2850 O   0  0  0  0  0  0  0  0  0  0  0  0
    1.2420    3.2040   -0.4150 C   0  0  0  0  0  0  0  0  0  0  0  0
    1.2090    2.7650   -1.8480 C   0  0  0  0  0  0  0  0  0  0  0  0
   -0.0760    2.9420   -2.4740 N   0  0  0  0  0  0  0  0  0  0  0  0
   -1.2870    3.3720   -1.8430 C   0  0  0  0  0  0  0  0  0  0  0  0
   -1.8690    4.4200   -2.3060 O   0  0  0  0  0  0  0  0  0  0  0  0
   -1.8990    2.6600   -0.6760 C   0  0  0  0  0  0  0  0  0  0  0  0
   -2.4850    3.3500    0.3910 C   0  0  0  0  0  0  0  0  0  0  0  0
   -2.6230    4.8510    0.5680 C   0  0  0  0  0  0  0  0  0  0  0  0
   -2.9480    2.4980    1.2850 N   0  0  0  0  0  0  0  0  0  0  0  0
   -3.6290    2.8100    2.5440 C   0  0  0  0  0  0  0  0  0  0  0  0
   -2.6660    1.2680    0.8050 C   0  0  0  0  0  0  0  0  0  0  0  0
   -2.9740    0.0610    1.4170 C   0  0  0  0  0  0  0  0  0  0  0  0
   -2.5880   -1.0540    0.7280 C   0  0  0  0  0  0  0  0  0  0  0  0
   -1.9210   -1.0350   -0.5170 C   0  0  0  0  0  0  0  0  0  0  0  0
   -1.6210    0.1750   -1.1130 C   0  0  0  0  0  0  0  0  0  0  0  0
   -2.0090    1.3280   -0.4220 C   0  0  0  0  0  0  0  0  0  0  0  0
   -1.6800   -2.4240   -0.9690 C   0  0  2  0  0  0  0  0  0  0  0  0
   -1.9620   -3.4830    0.1130 C   0  0  0  0  0  0  0  0  0  0  0  0
   -1.4750   -4.7360   -0.6090 C   0  0  0  0  0  0  0  0  0  0  0  0
   -0.7310   -4.2130   -1.8130 C   0  0  0  0  0  0  0  0  0  0  0  0
   -0.3900   -2.8500   -1.3670 N   0  0  2  0  0  0  0  0  0  0  0  0
    0.5860   -2.9820   -0.3230 C   0  0  0  0  0  0  0  0  0  0  0  0
    1.9540   -3.2290   -0.9500 C   0  0  0  0  0  0  0  0  0  0  0  0
    2.9550   -3.6630    0.0830 C   0  0  0  0  0  0  0  0  0  0  0  0
    2.8400   -4.8130    0.5360 O   0  0  0  0  0  0  0  0  0  0  0  0
    4.0010   -2.7380    0.5060 N   0  0  0  0  0  0  0  0  0  0  0  0
  1  2  1  0
  2  3  2  0
  2  7  1  0
  3  4  1  0
  4  5  2  0
  4 35  1  0
  5  6  1  0
  6  7  2  0
  7  8  1  0
  8  9  2  0
  8 10  1  0
 10 11  1  0
 11 12  1  0
 12 13  1  0
 13 14  2  0
 13 15  1  0
 15 16  2  0
 15 25  1  0
 16 17  1  0
 16 18  1  0
 18 19  1  0
 18 20  1  0
 20 21  2  0
 20 25  1  0
 21 22  1  0
 22 23  2  0
 23 24  1  0
 23 26  1  0
 24 25  2  0
 26 27  1  1
 26 30  1  0
 27 28  1  0
 28 29  1  0
 30 29  1  1
 30 31  1  0
 31 32  1  0
 32 33  1  0
 33 34  2  0
 33 35  1  0
M  CHG  1  30   1
M  END
