
     RDKit          3D

 35 39  0  0  0  0  0  0  0  0999 V2000
   -1.3380    2.6590   -3.0630 C   0  0  0  0  0  0  0  0  0  0  0  0
   -1.1360    3.2880   -1.6840 C   0  0  0  0  0  0  0  0  0  0  0  0
   -1.3830    2.1330   -0.6830 C   0  0  1  0  0  0  0  0  0  0  0  0
   -0.3780    1.0760   -0.9930 C   0  0  0  0  0  0  0  0  0  0  0  0
    0.1010    0.2800    0.1690 C   0  0  1  0  0  0  0  0  0  0  0  0
    1.1680   -0.6930   -0.1420 C   0  0  0  0  0  0  0  0  0  0  0  0
    1.1980   -1.5610   -1.1170 C   0  0  0  0  0  0  0  0  0  0  0  0
    0.3870   -1.9800   -2.2150 C   0  0  0  0  0  0  0  0  0  0  0  0
   -0.8490   -2.4210   -2.3450 C   0  0  0  0  0  0  0  0  0  0  0  0
   -1.9500   -2.6640   -1.4050 C   0  0  0  0  0  0  0  0  0  0  0  0
   -2.1580   -4.0240   -1.1270 C   0  0  0  0  0  0  0  0  0  0  0  0
   -3.1240   -4.5220   -0.2900 C   0  0  0  0  0  0  0  0  0  0  0  0
   -3.9230   -3.5710    0.2940 C   0  0  0  0  0  0  0  0  0  0  0  0
   -3.7810   -2.1870    0.0670 C   0  0  0  0  0  0  0  0  0  0  0  0
   -2.7940   -1.7560   -0.7840 C   0  0  0  0  0  0  0  0  0  0  0  0
   -4.7330   -1.5040    0.7970 O   0  0  0  0  0  0  0  0  0  0  0  0
   -4.7950   -0.3680    1.6050 C   0  0  0  0  0  0  0  0  0  0  0  0
   -3.9280    0.6580    0.9110 C   0  0  0  0  0  0  0  0  0  0  0  0
   -3.8270    1.9780    1.5330 C   0  0  0  0  0  0  0  0  0  0  0  0
   -4.5890    2.2800    2.4730 O   0  0  0  0  0  0  0  0  0  0  0  0
   -2.8700    2.9480    1.0930 N   0  0  0  0  0  0  0  0  0  0  0  0
   -1.5110    2.6500    0.6900 C   0  0  1  0  0  0  0  0  0  0  0  0
   -0.7150    1.9480    1.7600 C   0  0  0  0  0  0  0  0  0  0  0  0
    0.3860    1.1940    1.2130 N   0  0  0  0  0  0  0  0  0  0  0  0
    1.6830    1.4050    1.7170 C   0  0  0  0  0  0  0  0  0  0  0  0
    1.9960    2.4580    2.3760 O   0  0  0  0  0  0  0  0  0  0  0  0
    2.6500    0.3730    1.4570 C   0  0  0  0  0  0  0  0  0  0  0  0
    3.9870    0.5200    1.9640 N   0  0  0  0  0  0  0  0  0  0  0  0
    5.0460   -0.0890    1.2500 C   0  0  0  0  0  0  0  0  0  0  0  0
    6.2490   -0.2700    1.9200 C   0  0  0  0  0  0  0  0  0  0  0  0
    7.3610   -0.8310    1.3270 C   0  0  0  0  0  0  0  0  0  0  0  0
    7.2830   -1.2300    0.0120 C   0  0  0  0  0  0  0  0  0  0  0  0
    6.1000   -1.0580   -0.6670 C   0  0  0  0  0  0  0  0  0  0  0  0
    4.9800   -0.4900   -0.0590 C   0  0  0  0  0  0  0  0  0  0  0  0
    2.2860   -0.6450    0.8010 N   0  0  0  0  0  0  0  0  0  0  0  0
  1  2  1  0
  3  2  1  6
  3  4  1  0
  3 22  1  0
  5  4  1  6
  5  6  1  0
  5 24  1  0
  6  7  2  0
  6 35  1  0
  7  8  1  0
  8  9  2  0
  9 10  1  0
 10 11  2  0
 10 15  1  0
 11 12  1  0
 12 13  2  0
 13 14  1  0
 14 15  2  0
 14 16  1  0
 16 17  1  0
 17 18  1  0
 18 19  1  0
 19 20  2  0
 19 21  1  0
 21 22  1  0
 22 23  1  1
 23 24  1  0
 24 25  1  0
 25 26  2  0
 25 27  1  0
 27 28  1  0
 27 35  2  0
 28 29  1  0
 29 30  2  0
 29 34  1  0
 30 31  1  0
 31 32  2  0
 32 33  1  0
 33 34  2  0
M  CHG  1  35   1
M  END
