
     RDKit          3D

 10 10  0  0  0  0  0  0  0  0999 V2000
    2.4330   -1.2200   -0.8900 O   0  0  0  0  0  0  0  0  0  0  0  0
    1.9650   -0.3120   -0.1940 C   0  0  0  0  0  0  0  0  0  0  0  0
    2.8590    0.5240    0.5050 O   0  0  0  0  0  0  0  0  0  0  0  0
    0.5440   -0.0580   -0.0570 C   0  0  0  0  0  0  0  0  0  0  0  0
    0.0940    0.9970    0.7560 C   0  0  0  0  0  0  0  0  0  0  0  0
   -1.2360    1.2880    0.9280 C   0  0  0  0  0  0  0  0  0  0  0  0
   -2.2170    0.5520    0.3030 C   0  0  0  0  0  0  0  0  0  0  0  0
   -1.8050   -0.4820   -0.4940 C   0  0  0  0  0  0  0  0  0  0  0  0
   -0.4400   -0.7880   -0.6760 C   0  0  0  0  0  0  0  0  0  0  0  0
   -0.1800   -1.8470   -1.5010 O   0  0  0  0  0  0  0  0  0  0  0  0
  1  2  2  0
  2  3  1  0
  2  4  1  0
  4  5  2  0
  4  9  1  0
  5  6  1  0
  6  7  2  0
  7  8  1  0
  8  9  2  0
  9 10  1  0
M  END
