
     RDKit          3D

 10 10  0  0  0  0  0  0  0  0999 V2000
    3.6970    1.9380    0.3140 O   0  0  0  0  0  0  0  0  0  0  0  0
    2.8630    1.0090    0.3150 C   0  0  0  0  0  0  0  0  0  0  0  0
    3.1720   -0.4140    0.1760 C   0  0  0  0  0  0  0  0  0  0  0  0
    2.0390   -1.0680    0.2260 C   0  0  0  0  0  0  0  0  0  0  0  0
    0.9060   -0.1530    0.4000 C   0  0  0  0  0  0  0  0  0  0  0  0
   -0.3960   -0.5840    0.4830 O   0  0  0  0  0  0  0  0  0  0  0  0
   -1.5240    0.1130    0.0610 C   0  0  0  0  0  0  0  0  0  0  0  0
   -2.7580   -0.7130    0.3320 C   0  0  0  0  0  0  0  0  0  0  0  0
   -3.8580    0.0170   -0.1030 O   0  0  0  0  0  0  0  0  0  0  0  0
    1.4100    1.0690    0.4510 C   0  0  0  0  0  0  0  0  0  0  0  0
  1  2  2  0
  2  3  1  0
  2 10  1  0
  3  4  2  0
  4  5  1  0
  5  6  1  0
  5 10  2  0
  6  7  1  0
  7  8  1  0
  8  9  1  0
M  END
