
     RDKit          3D

 10 10  0  0  0  0  0  0  0  0999 V2000
   -3.1080   -0.2230   -0.3350 C   0  0  0  0  0  0  0  0  0  0  0  0
   -2.0960    0.7280   -0.1900 O   0  0  0  0  0  0  0  0  0  0  0  0
   -0.7530    0.3550   -0.1110 C   0  0  0  0  0  0  0  0  0  0  0  0
   -0.3380   -0.9590   -0.1700 C   0  0  0  0  0  0  0  0  0  0  0  0
    0.9940   -1.3240   -0.0910 C   0  0  0  0  0  0  0  0  0  0  0  0
    1.9440   -0.3370    0.0510 C   0  0  0  0  0  0  0  0  0  0  0  0
    3.2850   -0.6810    0.1320 O   0  0  0  0  0  0  0  0  0  0  0  0
    1.5740    0.9810    0.1140 C   0  0  0  0  0  0  0  0  0  0  0  0
    2.4930    1.9890    0.2550 O   0  0  0  0  0  0  0  0  0  0  0  0
    0.2300    1.3110    0.0320 C   0  0  0  0  0  0  0  0  0  0  0  0
  1  2  1  0
  2  3  1  0
  3  4  2  0
  3 10  1  0
  4  5  1  0
  5  6  2  0
  6  7  1  0
  6  8  1  0
  8  9  1  0
  8 10  2  0
M  END
