
     RDKit          3D

 10 10  0  0  0  0  0  0  0  0999 V2000
    1.8060    1.7680    0.8810 O   0  0  0  0  0  0  0  0  0  0  0  0
    1.0720    1.4600   -0.2490 C   0  0  0  0  0  0  0  0  0  0  0  0
    0.5600    0.0310   -0.2220 C   0  0  1  0  0  0  0  0  0  0  0  0
    1.7270   -0.9170   -0.1450 C   0  0  0  0  0  0  0  0  0  0  0  0
    1.2680   -2.2320   -0.1190 O   0  0  0  0  0  0  0  0  0  0  0  0
   -0.3330   -0.2270    0.9560 C   0  0  0  0  0  0  0  0  0  0  0  0
   -1.7070   -0.6710    0.4910 C   0  0  0  0  0  0  0  0  0  0  0  0
   -2.2360    0.3840   -0.4300 C   0  0  0  0  0  0  0  0  0  0  0  0
   -1.3650    0.6380   -1.4530 O   0  0  0  0  0  0  0  0  0  0  0  0
   -0.2520   -0.1680   -1.4780 C   0  0  0  0  0  0  0  0  0  0  0  0
  1  2  1  0
  3  2  1  1
  3  4  1  0
  3  6  1  0
  3 10  1  0
  4  5  1  0
  6  7  1  0
  7  8  1  0
  8  9  1  0
  9 10  1  0
M  END
