
     RDKit          3D

 10 10  0  0  0  0  0  0  0  0999 V2000
    3.9890    0.6570    0.2370 O   0  0  0  0  0  0  0  0  0  0  0  0
    2.7150    0.4510   -0.3320 C   0  0  0  0  0  0  0  0  0  0  0  0
    1.7610    0.1400    0.7970 C   0  0  0  0  0  0  0  0  0  0  0  0
    0.3920   -0.0900    0.2680 C   0  0  0  0  0  0  0  0  0  0  0  0
    0.0270   -0.0320   -1.0580 C   0  0  0  0  0  0  0  0  0  0  0  0
   -1.3240   -0.3040   -1.1300 C   0  0  0  0  0  0  0  0  0  0  0  0
   -1.7200   -0.5170    0.1770 C   0  0  0  0  0  0  0  0  0  0  0  0
   -3.1160   -0.8470    0.5850 C   0  0  0  0  0  0  0  0  0  0  0  0
   -3.8290    0.3200    0.8450 O   0  0  0  0  0  0  0  0  0  0  0  0
   -0.6760   -0.3780    0.9480 O   0  0  0  0  0  0  0  0  0  0  0  0
  1  2  1  0
  2  3  1  0
  3  4  1  0
  4  5  2  0
  4 10  1  0
  5  6  1  0
  6  7  2  0
  7  8  1  0
  7 10  1  0
  8  9  1  0
M  END
