
     RDKit          3D

  9  9  0  0  0  0  0  0  0  0999 V2000
    3.1810    0.8200    0.1050 O   0  0  0  0  0  0  0  0  0  0  0  0
    2.4310   -0.3390    0.2530 C   0  0  0  0  0  0  0  0  0  0  0  0
    1.0210   -0.0120   -0.2620 C   0  0  1  0  0  0  0  0  0  0  0  0
    0.2050   -1.2730   -0.1250 C   0  0  0  0  0  0  0  0  0  0  0  0
   -0.9980   -1.0890    0.7770 C   0  0  0  0  0  0  0  0  0  0  0  0
   -2.0860   -0.2770    0.1470 C   0  0  0  0  0  0  0  0  0  0  0  0
   -1.4440    0.7390   -0.7860 C   0  0  0  0  0  0  0  0  0  0  0  0
   -0.5780    1.6270    0.0910 C   0  0  0  0  0  0  0  0  0  0  0  0
    0.5610    1.0190    0.5260 O   0  0  0  0  0  0  0  0  0  0  0  0
  1  2  1  0
  3  2  1  1
  3  4  1  0
  3  9  1  0
  4  5  1  0
  5  6  1  0
  6  7  1  0
  7  8  1  0
  8  9  1  0
M  END
