
     RDKit          3D

  9  8  0  0  0  0  0  0  0  0999 V2000
   -1.4440   -0.7160    1.2860 C   0  0  0  0  0  0  0  0  0  0  0  0
   -0.5490   -0.6880    0.0840 C   0  0  2  0  0  0  0  0  0  0  0  0
   -1.4460   -0.6080   -1.1340 C   0  0  0  0  0  0  0  0  0  0  0  0
    0.1890   -1.8710   -0.0430 O   0  0  0  0  0  0  0  0  0  0  0  0
    0.4280    0.4450    0.0640 C   0  0  1  0  0  0  0  0  0  0  0  0
    1.2430    0.3140   -1.2130 C   0  0  0  0  0  0  0  0  0  0  0  0
   -0.2330    1.8050   -0.0100 C   0  0  0  0  0  0  0  0  0  0  0  0
    1.4060    0.4280    1.1970 C   0  0  0  0  0  0  0  0  0  0  0  0
    2.1880   -0.7270    1.2230 O   0  0  0  0  0  0  0  0  0  0  0  0
  2  1  1  1
  2  3  1  0
  2  4  1  0
  2  5  1  0
  5  6  1  6
  5  7  1  0
  5  8  1  0
  8  9  1  0
M  END
