
     RDKit          3D

 21 22  0  0  0  0  0  0  0  0999 V2000
    4.7820    1.3050   -1.0370 C   0  0  0  0  0  0  0  0  0  0  0  0
    4.0550    0.0390   -0.7360 C   0  0  2  0  0  0  0  0  0  0  0  0
    3.4920   -0.6730   -1.9110 C   0  0  0  0  0  0  0  0  0  0  0  0
    2.1790   -0.9530   -1.6850 O   0  0  0  0  0  0  0  0  0  0  0  0
    1.8730   -0.7060   -0.3400 C   0  0  2  0  0  0  0  0  0  0  0  0
    0.3820   -0.3700   -0.2430 C   0  0  0  0  0  0  0  0  0  0  0  0
   -0.1170   -0.1000    1.0370 N   0  0  1  0  0  0  0  0  0  0  0  0
    0.0970    1.2510    1.5450 C   0  0  0  0  0  0  0  0  0  0  0  0
   -0.7230    2.3210    0.9200 C   0  0  0  0  0  0  0  0  0  0  0  0
   -0.7840    2.3050   -0.4560 O   0  0  0  0  0  0  0  0  0  0  0  0
   -2.0410    2.4940   -0.9540 C   0  0  0  0  0  0  0  0  0  0  0  0
   -2.6200    1.2860   -1.6710 C   0  0  0  0  0  0  0  0  0  0  0  0
   -3.7090    0.7540   -1.0370 O   0  0  0  0  0  0  0  0  0  0  0  0
   -4.3050   -0.4380   -0.8990 C   0  0  0  0  0  0  0  0  0  0  0  0
   -4.0460   -1.5710   -0.3480 C   0  0  0  0  0  0  0  0  0  0  0  0
   -3.0050   -2.1750    0.4050 C   0  0  0  0  0  0  0  0  0  0  0  0
   -1.9580   -1.7850    1.0830 C   0  0  0  0  0  0  0  0  0  0  0  0
   -1.0950   -2.8540    1.7600 C   0  0  0  0  0  0  0  0  0  0  0  0
    0.1810   -2.9020    1.3550 O   0  0  0  0  0  0  0  0  0  0  0  0
   -1.4740   -0.4270    1.3410 C   0  0  0  0  0  0  0  0  0  0  0  0
    2.7750    0.4160    0.0350 C   0  0  0  0  0  0  0  0  0  0  0  0
  2  1  1  6
  2  3  1  0
  2 21  1  0
  3  4  1  0
  4  5  1  0
  5  6  1  6
  5 21  1  0
  7  6  1  6
  7  8  1  0
  7 20  1  0
  8  9  1  0
  9 10  1  0
 10 11  1  0
 11 12  1  0
 12 13  1  0
 13 14  1  0
 14 15  2  0
 15 16  1  0
 16 17  2  0
 17 18  1  0
 17 20  1  0
 18 19  1  0
M  CHG  1   7   1
M  END
