
     RDKit          3D

 21 22  0  0  0  0  0  0  0  0999 V2000
   -4.1790   -1.0590    0.1270 C   0  0  0  0  0  0  0  0  0  0  0  0
   -4.2690    0.4580    0.0090 C   0  0  2  0  0  0  0  0  0  0  0  0
   -4.4250    1.0320    1.4060 C   0  0  0  0  0  0  0  0  0  0  0  0
   -5.5190    0.7730   -0.7520 C   0  0  0  0  0  0  0  0  0  0  0  0
   -3.0880    1.0180   -0.6720 C   0  0  0  0  0  0  0  0  0  0  0  0
   -3.2440    1.6740   -1.7530 O   0  0  0  0  0  0  0  0  0  0  0  0
   -1.8060    0.8520   -0.1680 O   0  0  0  0  0  0  0  0  0  0  0  0
   -0.6750    1.3910   -0.8240 C   0  0  0  0  0  0  0  0  0  0  0  0
    0.6020    1.0870   -0.1010 C   0  0  0  0  0  0  0  0  0  0  0  0
    0.9080   -0.2890    0.0710 N   0  0  1  0  0  0  0  0  0  0  0  0
   -0.1560   -1.1680   -0.3850 C   0  0  0  0  0  0  0  0  0  0  0  0
    0.4850   -2.5220   -0.6060 C   0  0  0  0  0  0  0  0  0  0  0  0
    1.9570   -2.2700   -0.4310 C   0  0  0  0  0  0  0  0  0  0  0  0
    2.0400   -0.7690   -0.6300 C   0  0  2  0  0  0  0  0  0  0  0  0
    3.3500   -0.2380   -0.2430 C   0  0  0  0  0  0  0  0  0  0  0  0
    3.6140    0.6050    0.7300 C   0  0  0  0  0  0  0  0  0  0  0  0
    4.9760    1.0990    1.0590 C   0  0  2  0  0  0  0  0  0  0  0  0
    5.0400    2.4980    0.9580 O   0  0  0  0  0  0  0  0  0  0  0  0
    5.9810    0.5530    0.2710 O   0  0  0  0  0  0  0  0  0  0  0  0
    5.7360   -0.3230   -0.7460 C   0  0  0  0  0  0  0  0  0  0  0  0
    4.5070   -0.7090   -1.0070 C   0  0  0  0  0  0  0  0  0  0  0  0
  2  1  1  1
  2  3  1  0
  2  4  1  0
  2  5  1  0
  5  6  2  0
  5  7  1  0
  7  8  1  0
  8  9  1  0
 10  9  1  6
 10 11  1  0
 10 14  1  0
 11 12  1  0
 12 13  1  0
 13 14  1  0
 14 15  1  1
 15 16  2  0
 15 21  1  0
 16 17  1  0
 17 18  1  6
 17 19  1  0
 19 20  1  0
 20 21  2  0
M  CHG  1  10   1
M  END
