
     RDKit          3D

 21 22  0  0  0  0  0  0  0  0999 V2000
   -4.2320    0.5650    0.3400 C   0  0  0  0  0  0  0  0  0  0  0  0
   -3.2960    1.4070   -0.5140 C   0  0  0  0  0  0  0  0  0  0  0  0
   -2.2570    0.5900   -1.1120 N   0  0  0  0  0  0  0  0  0  0  0  0
   -1.0490    0.5800   -0.3330 C   0  0  1  0  0  0  0  0  0  0  0  0
   -1.0440    1.6760    0.6930 C   0  0  0  0  0  0  0  0  0  0  0  0
   -0.3530    2.7820    0.5750 C   0  0  0  0  0  0  0  0  0  0  0  0
    0.5220    3.1470   -0.5480 C   0  0  0  0  0  0  0  0  0  0  0  0
    1.9880    2.8440   -0.2650 C   0  0  0  0  0  0  0  0  0  0  0  0
    2.4250    1.9610   -1.2670 O   0  0  0  0  0  0  0  0  0  0  0  0
    3.5310    1.1420   -1.1650 C   0  0  0  0  0  0  0  0  0  0  0  0
    4.1650    0.9020   -2.2330 O   0  0  0  0  0  0  0  0  0  0  0  0
    4.0220    0.5350    0.0740 C   0  0  0  0  0  0  0  0  0  0  0  0
    3.6820   -0.8330    0.1770 O   0  0  0  0  0  0  0  0  0  0  0  0
    2.3340   -0.8340    0.6050 C   0  0  0  0  0  0  0  0  0  0  0  0
    1.6830   -2.1730    0.3730 C   0  0  2  0  0  0  0  0  0  0  0  0
    0.7700   -2.0500   -0.8110 C   0  0  0  0  0  0  0  0  0  0  0  0
   -0.6820   -1.9040   -0.4340 C   0  0  1  0  0  0  0  0  0  0  0  0
   -1.0410   -3.1520    0.3820 C   0  0  0  0  0  0  0  0  0  0  0  0
    0.0710   -3.5230    1.3220 C   0  0  0  0  0  0  0  0  0  0  0  0
    1.0020   -2.5290    1.5110 O   0  0  0  0  0  0  0  0  0  0  0  0
   -0.9610   -0.7210    0.4340 C   0  0  0  0  0  0  0  0  0  0  0  0
  1  2  1  0
  2  3  1  0
  4  3  1  1
  4  5  1  0
  4 21  1  0
  5  6  2  0
  6  7  1  0
  7  8  1  0
  8  9  1  0
  9 10  1  0
 10 11  2  0
 10 12  1  0
 12 13  1  0
 13 14  1  0
 15 14  1  1
 15 16  1  0
 15 20  1  0
 16 17  1  0
 17 18  1  1
 17 21  1  0
 18 19  1  0
 19 20  1  0
M  CHG  1   3   1
M  END
