
     RDKit          3D

  9  8  0  0  0  0  0  0  0  0999 V2000
   -2.3030   -0.3280   -0.4030 C   0  0  0  0  0  0  0  0  0  0  0  0
   -0.9870    0.1530    0.2440 C   0  0  2  0  0  0  0  0  0  0  0  0
   -0.4670    1.3480   -0.5040 C   0  0  0  0  0  0  0  0  0  0  0  0
   -0.0510   -1.0050    0.3450 C   0  0  0  0  0  0  0  0  0  0  0  0
    1.2790   -0.7420    0.9540 C   0  0  2  0  0  0  0  0  0  0  0  0
    1.1880   -0.1120    2.5990 Cl  0  0  0  0  0  0  0  0  0  0  0  0
    2.1130    0.1460    0.1290 C   0  0  0  0  0  0  0  0  0  0  0  0
    2.4430    1.2670    0.5760 O   0  0  0  0  0  0  0  0  0  0  0  0
    2.5260   -0.2690   -1.1340 O   0  0  0  0  0  0  0  0  0  0  0  0
  2  1  1  6
  2  3  1  0
  2  4  1  0
  4  5  1  0
  5  6  1  1
  5  7  1  0
  7  8  2  0
  7  9  1  0
M  END
