
     RDKit          3D

 21 23  0  0  0  0  0  0  0  0999 V2000
    2.7620   -3.2370   -1.2270 C   0  0  0  0  0  0  0  0  0  0  0  0
    2.1040   -2.0040   -1.5920 N   0  0  0  0  0  0  0  0  0  0  0  0
    1.4680   -1.3620   -0.4580 C   0  0  2  0  0  0  0  0  0  0  0  0
    0.0380   -1.1980   -0.7080 C   0  0  0  0  0  0  0  0  0  0  0  0
   -0.4410   -1.5970   -1.8010 O   0  0  0  0  0  0  0  0  0  0  0  0
   -0.8560   -0.6260    0.1800 O   0  0  0  0  0  0  0  0  0  0  0  0
   -2.2240   -0.4650   -0.0480 C   0  0  1  0  0  0  0  0  0  0  0  0
   -3.0960   -1.1900    0.9390 C   0  0  0  0  0  0  0  0  0  0  0  0
   -4.4900   -1.2560    0.3490 C   0  0  0  0  0  0  0  0  0  0  0  0
   -4.6540   -0.1640   -0.4890 O   0  0  0  0  0  0  0  0  0  0  0  0
   -4.1680    0.9820    0.1600 C   0  0  2  0  0  0  0  0  0  0  0  0
   -4.6480    2.1730   -0.6150 C   0  0  0  0  0  0  0  0  0  0  0  0
   -3.4310    2.5810   -1.3990 C   0  0  0  0  0  0  0  0  0  0  0  0
   -2.4870    1.5960   -1.2630 O   0  0  0  0  0  0  0  0  0  0  0  0
   -2.6540    0.9910   -0.0420 C   0  0  2  0  0  0  0  0  0  0  0  0
    2.2100   -0.0950   -0.1690 C   0  0  1  0  0  0  0  0  0  0  0  0
    1.6750    0.6910    0.9810 C   0  0  0  0  0  0  0  0  0  0  0  0
    2.5170    1.9550    1.1030 C   0  0  0  0  0  0  0  0  0  0  0  0
    3.9710    1.6590    1.3080 C   0  0  0  0  0  0  0  0  0  0  0  0
    4.5210    0.7090    0.2670 C   0  0  0  0  0  0  0  0  0  0  0  0
    3.6440   -0.4980    0.2000 C   0  0  0  0  0  0  0  0  0  0  0  0
  1  2  1  0
  3  2  1  6
  3  4  1  0
  3 16  1  0
  4  5  2  0
  4  6  1  0
  7  6  1  1
  7  8  1  0
  7 15  1  0
  8  9  1  0
  9 10  1  0
 10 11  1  0
 11 12  1  6
 11 15  1  0
 12 13  1  0
 13 14  1  0
 15 14  1  6
 16 17  1  1
 16 21  1  0
 17 18  1  0
 18 19  1  0
 19 20  1  0
 20 21  1  0
M  CHG  1   2   1
M  END
