
     RDKit          3D

 21 23  0  0  0  0  0  0  0  0999 V2000
   -3.2860   -1.6880    1.3420 O   0  0  0  0  0  0  0  0  0  0  0  0
   -3.5530   -0.8320    0.2760 C   0  0  0  0  0  0  0  0  0  0  0  0
   -2.4470    0.1100   -0.0500 C   0  0  2  0  0  0  0  0  0  0  0  0
   -1.1990   -0.4650   -0.4210 N   0  0  2  0  0  0  0  0  0  0  0  0
   -1.3600   -1.4970   -1.3900 C   0  0  0  0  0  0  0  0  0  0  0  0
   -0.9300   -2.8670   -0.8990 C   0  0  0  0  0  0  0  0  0  0  0  0
    0.5540   -2.7700   -0.6190 C   0  0  0  0  0  0  0  0  0  0  0  0
    0.8360   -1.6270    0.3280 C   0  0  1  0  0  0  0  0  0  0  0  0
    1.3180   -2.2330    1.5130 O   0  0  0  0  0  0  0  0  0  0  0  0
    1.8830   -0.9150   -0.1950 O   0  0  0  0  0  0  0  0  0  0  0  0
    2.4120    0.0730    0.5900 C   0  0  1  0  0  0  0  0  0  0  0  0
    3.9080   -0.0560    0.7870 C   0  0  0  0  0  0  0  0  0  0  0  0
    4.6490    0.7990   -0.2270 C   0  0  0  0  0  0  0  0  0  0  0  0
    4.3380    2.2570    0.0310 C   0  0  0  0  0  0  0  0  0  0  0  0
    2.9980    2.4070    0.3880 O   0  0  0  0  0  0  0  0  0  0  0  0
    2.2070    1.3970   -0.1580 C   0  0  0  0  0  0  0  0  0  0  0  0
   -0.3720   -0.8470    0.7030 C   0  0  0  0  0  0  0  0  0  0  0  0
   -2.3590    1.1180    1.0720 C   0  0  0  0  0  0  0  0  0  0  0  0
   -1.9310    2.4170    0.4450 C   0  0  0  0  0  0  0  0  0  0  0  0
   -2.1600    2.2860   -1.0350 C   0  0  0  0  0  0  0  0  0  0  0  0
   -2.9760    1.0240   -1.1690 C   0  0  0  0  0  0  0  0  0  0  0  0
  1  2  1  0
  3  2  1  1
  3  4  1  0
  3 18  1  0
  3 21  1  0
  4  5  1  6
  4 17  1  0
  5  6  1  0
  6  7  1  0
  7  8  1  0
  8  9  1  1
  8 10  1  0
  8 17  1  0
 11 10  1  6
 11 12  1  0
 11 16  1  0
 12 13  1  0
 13 14  1  0
 14 15  1  0
 15 16  1  0
 18 19  1  0
 19 20  1  0
 20 21  1  0
M  CHG  1   4   1
M  END
