
     RDKit          3D

 18 20  0  0  0  0  0  0  0  0999 V2000
   -4.1300    2.4610    0.0510 O   0  0  0  0  0  0  0  0  0  0  0  0
   -3.3190    2.0350   -1.0140 C   0  0  0  0  0  0  0  0  0  0  0  0
   -2.7630    0.7370   -0.7420 N   0  0  0  0  0  0  0  0  0  0  0  0
   -3.7480   -0.2590   -0.5500 C   0  0  0  0  0  0  0  0  0  0  0  0
   -3.5450   -1.1480    0.6240 C   0  0  0  0  0  0  0  0  0  0  0  0
   -2.1150   -1.5210    0.7460 C   0  0  0  0  0  0  0  0  0  0  0  0
   -1.6770   -2.7400    1.0040 N   0  0  0  0  0  0  0  0  0  0  0  0
   -0.3610   -2.9920    1.1030 C   0  0  0  0  0  0  0  0  0  0  0  0
    0.5380   -2.0110    0.9410 N   0  0  0  0  0  0  0  0  0  0  0  0
    0.1680   -0.7380    0.6740 C   0  0  0  0  0  0  0  0  0  0  0  0
    1.1480    0.2920    0.5130 N   0  0  0  0  0  0  0  0  0  0  0  0
    2.5570    0.0100    0.6170 C   0  0  2  0  0  0  0  0  0  0  0  0
    3.3520    1.2700    0.4060 C   0  0  0  0  0  0  0  0  0  0  0  0
    4.6920    0.8030   -0.0730 C   0  0  0  0  0  0  0  0  0  0  0  0
    4.5150   -0.6070   -0.5740 C   0  0  0  0  0  0  0  0  0  0  0  0
    3.0500   -0.8960   -0.4840 C   0  0  0  0  0  0  0  0  0  0  0  0
   -1.1830   -0.4890    0.5740 C   0  0  0  0  0  0  0  0  0  0  0  0
   -1.7500    0.8310    0.2860 C   0  0  0  0  0  0  0  0  0  0  0  0
  1  2  1  0
  2  3  1  0
  3  4  1  0
  3 18  1  0
  4  5  1  0
  5  6  1  0
  6  7  2  0
  6 17  1  0
  7  8  1  0
  8  9  2  0
  9 10  1  0
 10 11  1  0
 10 17  2  0
 12 11  1  6
 12 13  1  0
 12 16  1  0
 13 14  1  0
 14 15  1  0
 15 16  1  0
 17 18  1  0
M  END
