
     RDKit          3D

 18 20  0  0  0  0  0  0  0  0999 V2000
   -0.9720   -1.9220   -3.8690 O   0  0  0  0  0  0  0  0  0  0  0  0
   -1.1800   -2.4140   -2.7110 C   0  0  0  0  0  0  0  0  0  0  0  0
   -1.7120   -3.6210   -2.5310 N   0  0  0  0  0  0  0  0  0  0  0  0
   -1.9430   -4.1650   -1.3280 C   0  0  0  0  0  0  0  0  0  0  0  0
   -1.6190   -3.4500   -0.2490 N   0  0  0  0  0  0  0  0  0  0  0  0
   -1.7390   -3.7450    1.0570 N   0  0  0  0  0  0  0  0  0  0  0  0
   -1.2810   -2.7190    1.7920 C   0  0  0  0  0  0  0  0  0  0  0  0
   -0.8720   -1.7780    0.9500 N   0  0  0  0  0  0  0  0  0  0  0  0
   -1.0800   -2.2290   -0.3180 C   0  0  0  0  0  0  0  0  0  0  0  0
   -0.8450   -1.6750   -1.5630 C   0  0  0  0  0  0  0  0  0  0  0  0
   -0.2730   -0.3740   -1.7560 C   0  0  0  0  0  0  0  0  0  0  0  0
    0.0930    0.4390   -0.8100 C   0  0  0  0  0  0  0  0  0  0  0  0
    0.6750    1.7620   -1.1490 C   0  0  0  0  0  0  0  0  0  0  0  0
    1.0460    2.5860   -0.1770 C   0  0  0  0  0  0  0  0  0  0  0  0
    1.6300    3.9130   -0.3200 C   0  0  0  0  0  0  0  0  0  0  0  0
    2.1720    4.2720    0.8280 C   0  0  0  0  0  0  0  0  0  0  0  0
    2.0010    3.2190    1.8480 C   0  0  0  0  0  0  0  0  0  0  0  0
    0.9300    2.2990    1.2770 C   0  0  0  0  0  0  0  0  0  0  0  0
  1  2  2  0
  2  3  1  0
  2 10  1  0
  3  4  2  0
  4  5  1  0
  5  6  1  0
  5  9  1  0
  6  7  1  0
  7  8  2  0
  8  9  1  0
  9 10  2  0
 10 11  1  0
 11 12  2  3
 12 13  1  0
 13 14  2  3
 14 15  1  0
 14 18  1  0
 15 16  2  0
 16 17  1  0
 17 18  1  0
M  END
