
     RDKit          3D

 18 19  0  0  0  0  0  0  0  0999 V2000
    5.5920   -1.8450   -1.1080 C   0  0  0  0  0  0  0  0  0  0  0  0
    4.5710   -0.7990   -0.8110 C   0  0  0  0  0  0  0  0  0  0  0  0
    3.4210   -1.2630   -0.4510 N   0  0  0  0  0  0  0  0  0  0  0  0
    2.1490   -0.6940   -0.0710 C   0  0  0  0  0  0  0  0  0  0  0  0
    1.6120    0.5100   -0.1440 C   0  0  0  0  0  0  0  0  0  0  0  0
    0.2560    0.6130    0.3830 C   0  0  0  0  0  0  0  0  0  0  0  0
   -0.2970   -0.6270    0.8850 N   0  0  0  0  0  0  0  0  0  0  0  0
   -1.6160   -0.4320    1.4560 C   0  0  0  0  0  0  0  0  0  0  0  0
   -2.6500   -0.0800    0.4230 C   0  0  2  0  0  0  0  0  0  0  0  0
   -4.0020    0.1040    1.1300 C   0  0  0  0  0  0  0  0  0  0  0  0
   -5.0300    0.6300    0.1800 C   0  0  0  0  0  0  0  0  0  0  0  0
   -4.7900    0.0490   -1.1810 C   0  0  0  0  0  0  0  0  0  0  0  0
   -3.9800   -1.2140   -1.1130 C   0  0  0  0  0  0  0  0  0  0  0  0
   -2.7530   -1.0870   -0.5140 O   0  0  0  0  0  0  0  0  0  0  0  0
    2.1650    1.7700   -0.6730 C   0  0  0  0  0  0  0  0  0  0  0  0
    3.3500    2.2490   -0.8230 N   0  0  0  0  0  0  0  0  0  0  0  0
    4.7110    1.8690   -0.5820 C   0  0  0  0  0  0  0  0  0  0  0  0
    5.0470    0.5270   -0.9730 N   0  0  0  0  0  0  0  0  0  0  0  0
  1  2  1  0
  2  3  2  0
  2 18  1  0
  3  4  1  0
  4  5  2  0
  5  6  1  0
  5 15  1  0
  6  7  1  0
  7  8  1  0
  9  8  1  1
  9 10  1  0
  9 14  1  0
 10 11  1  0
 11 12  1  0
 12 13  1  0
 13 14  1  0
 15 16  2  0
 16 17  1  0
 17 18  1  0
M  END
