
     RDKit          3D

 18 20  0  0  0  0  0  0  0  0999 V2000
   -4.4550    0.5910    1.0340 C   0  0  0  0  0  0  0  0  0  0  0  0
   -3.4630    0.7430   -0.0400 C   0  0  0  0  0  0  0  0  0  0  0  0
   -3.5740    1.4720   -1.1250 O   0  0  0  0  0  0  0  0  0  0  0  0
   -2.5060    1.3730   -1.8550 N   0  0  0  0  0  0  0  0  0  0  0  0
   -1.6410    0.5450   -1.2410 C   0  0  0  0  0  0  0  0  0  0  0  0
   -2.2200    0.1170   -0.0660 C   0  0  0  0  0  0  0  0  0  0  0  0
   -1.7040   -0.7470    0.9020 N   0  0  0  0  0  0  0  0  0  0  0  0
   -0.4290   -1.3910    0.8600 C   0  0  1  0  0  0  0  0  0  0  0  0
   -0.2460   -2.3190   -0.3210 C   0  0  0  0  0  0  0  0  0  0  0  0
    1.2400   -2.2960   -0.5920 C   0  0  0  0  0  0  0  0  0  0  0  0
    1.6170   -0.8910   -0.3000 C   0  0  0  0  0  0  0  0  0  0  0  0
    2.6410   -0.2520   -0.8920 C   0  0  0  0  0  0  0  0  0  0  0  0
    3.0590    1.0840   -0.6640 N   0  0  0  0  0  0  0  0  0  0  0  0
    3.8840    1.7210   -1.6760 C   0  0  0  0  0  0  0  0  0  0  0  0
    2.7600    1.8740    0.4490 N   0  0  0  0  0  0  0  0  0  0  0  0
    1.8260    1.7600    1.3310 C   0  0  0  0  0  0  0  0  0  0  0  0
    0.7870    0.7110    1.3850 C   0  0  0  0  0  0  0  0  0  0  0  0
    0.6790   -0.4150    0.7060 C   0  0  0  0  0  0  0  0  0  0  0  0
  1  2  1  0
  2  3  1  0
  2  6  2  0
  3  4  1  0
  4  5  2  0
  5  6  1  0
  6  7  1  0
  8  7  1  6
  8  9  1  0
  8 18  1  0
  9 10  1  0
 10 11  1  0
 11 12  2  0
 11 18  1  0
 12 13  1  0
 13 14  1  0
 13 15  1  0
 15 16  2  0
 16 17  1  0
 17 18  2  0
M  END
