
     RDKit          3D

 21 21  0  0  0  0  0  0  0  0999 V2000
   -3.3720   -0.2740   -0.7140 N   0  0  0  0  0  0  0  0  0  0  0  0
   -2.7510    0.4920    0.3200 C   0  0  1  0  0  0  0  0  0  0  0  0
   -1.2880    0.6370    0.2220 C   0  0  0  0  0  0  0  0  0  0  0  0
   -0.4890   -0.5810    0.2490 C   0  0  0  0  0  0  0  0  0  0  0  0
   -0.9630   -1.8500    0.4130 C   0  0  0  0  0  0  0  0  0  0  0  0
   -0.1150   -2.9400    0.4250 C   0  0  0  0  0  0  0  0  0  0  0  0
   -0.7790   -4.5440    0.6390 Cl  0  0  0  0  0  0  0  0  0  0  0  0
    1.2330   -2.8010    0.2740 C   0  0  0  0  0  0  0  0  0  0  0  0
    2.1520   -3.8740    0.2760 N   0  0  0  0  0  0  0  0  0  0  0  0
    1.9090   -4.8730    0.9640 O   0  0  0  0  0  0  0  0  0  0  0  0
    3.3090   -3.8530   -0.4570 O   0  0  0  0  0  0  0  0  0  0  0  0
    1.7340   -1.5090    0.1040 C   0  0  0  0  0  0  0  0  0  0  0  0
    0.8930   -0.4190    0.0920 C   0  0  0  0  0  0  0  0  0  0  0  0
    1.4680    0.9540   -0.0920 C   0  0  0  0  0  0  0  0  0  0  0  0
    2.9490    0.8850   -0.2350 C   0  0  0  0  0  0  0  0  0  0  0  0
    3.5590    2.2360   -0.4220 C   0  0  0  0  0  0  0  0  0  0  0  0
    4.7990    2.3750   -0.5620 O   0  0  0  0  0  0  0  0  0  0  0  0
    2.7770    3.3800   -0.4480 O   0  0  0  0  0  0  0  0  0  0  0  0
   -3.3470    1.8710    0.3080 C   0  0  0  0  0  0  0  0  0  0  0  0
   -4.2390    2.1850   -0.5220 O   0  0  0  0  0  0  0  0  0  0  0  0
   -2.9490    2.8590    1.1990 O   0  0  0  0  0  0  0  0  0  0  0  0
  2  1  1  6
  2  3  1  0
  2 19  1  0
  3  4  1  0
  4  5  2  0
  4 13  1  0
  5  6  1  0
  6  7  1  0
  6  8  2  0
  8  9  1  0
  8 12  1  0
  9 10  2  0
  9 11  1  0
 12 13  2  0
 13 14  1  0
 14 15  1  0
 15 16  1  0
 16 17  2  0
 16 18  1  0
 19 20  2  0
 19 21  1  0
M  CHG  3   1   1   9   1  11  -1
M  END
