
     RDKit          3D

 29 31  0  0  0  0  0  0  0  0999 V2000
   -2.8830    4.4870    0.5720 C   0  0  0  0  0  0  0  0  0  0  0  0
   -3.9610    3.4870    0.2620 C   0  0  0  0  0  0  0  0  0  0  0  0
   -3.4650    2.0790    0.4360 C   0  0  0  0  0  0  0  0  0  0  0  0
   -3.1170    1.1820   -0.5510 C   0  0  0  0  0  0  0  0  0  0  0  0
   -2.7150    0.0110   -0.0360 N   0  0  0  0  0  0  0  0  0  0  0  0
   -2.2750   -1.1860   -0.6560 C   0  0  0  0  0  0  0  0  0  0  0  0
   -3.2210   -2.0970   -1.1160 C   0  0  0  0  0  0  0  0  0  0  0  0
   -2.8210   -3.2780   -1.7100 C   0  0  0  0  0  0  0  0  0  0  0  0
   -3.8620   -4.2470   -2.1990 C   0  0  0  0  0  0  0  0  0  0  0  0
   -1.4780   -3.5350   -1.8380 C   0  0  0  0  0  0  0  0  0  0  0  0
   -1.0570   -4.8250   -2.4860 C   0  0  0  0  0  0  0  0  0  0  0  0
   -0.5470   -2.6270   -1.3790 C   0  0  0  0  0  0  0  0  0  0  0  0
   -0.9340   -1.4370   -0.7810 C   0  0  0  0  0  0  0  0  0  0  0  0
    0.0020   -0.4860   -0.3140 N   0  0  0  0  0  0  0  0  0  0  0  0
    0.1370    0.8410   -0.9050 C   0  0  0  0  0  0  0  0  0  0  0  0
    1.5440    0.9280   -1.4300 C   0  0  0  0  0  0  0  0  0  0  0  0
    2.5640    0.4740   -0.5600 N   0  0  0  0  0  0  0  0  0  0  0  0
    3.5070    1.4560   -0.2720 C   0  0  0  0  0  0  0  0  0  0  0  0
    4.6560    1.1590    0.6170 C   0  0  1  0  0  0  0  0  0  0  0  0
    4.3780    0.7810    1.9000 O   0  0  0  0  0  0  0  0  0  0  0  0
    5.6190    0.1600    0.0160 C   0  0  0  0  0  0  0  0  0  0  0  0
    6.8080    0.0410    0.6700 O   0  0  0  0  0  0  0  0  0  0  0  0
    7.5930    1.1550    0.7660 C   0  0  0  0  0  0  0  0  0  0  0  0
    2.3240   -0.6350    0.2420 C   0  0  0  0  0  0  0  0  0  0  0  0
    0.9150   -0.7400    0.7970 C   0  0  0  0  0  0  0  0  0  0  0  0
   -2.8080    0.1590    1.3110 C   0  0  0  0  0  0  0  0  0  0  0  0
   -2.4620   -0.8980    2.3010 C   0  0  0  0  0  0  0  0  0  0  0  0
   -3.2670    1.4220    1.6330 C   0  0  0  0  0  0  0  0  0  0  0  0
   -3.5040    1.9650    3.0130 C   0  0  0  0  0  0  0  0  0  0  0  0
  1  2  1  0
  2  3  1  0
  3  4  2  0
  3 28  1  0
  4  5  1  0
  5  6  1  0
  5 26  1  0
  6  7  2  0
  6 13  1  0
  7  8  1  0
  8  9  1  0
  8 10  2  0
 10 11  1  0
 10 12  1  0
 12 13  2  0
 13 14  1  0
 14 15  1  0
 14 25  1  0
 15 16  1  0
 16 17  1  0
 17 18  1  0
 17 24  1  0
 18 19  1  0
 19 20  1  1
 19 21  1  0
 21 22  1  0
 22 23  1  0
 24 25  1  0
 26 27  1  0
 26 28  2  0
 28 29  1  0
M  END
