
     RDKit          3D

 29 31  0  0  0  0  0  0  0  0999 V2000
   -5.0760    2.8760    0.6580 C   0  0  0  0  0  0  0  0  0  0  0  0
   -4.4690    1.5420    0.9520 C   0  0  0  0  0  0  0  0  0  0  0  0
   -3.6570    0.9750    0.1090 C   0  0  0  0  0  0  0  0  0  0  0  0
   -3.3480    1.7060   -1.1640 C   0  0  0  0  0  0  0  0  0  0  0  0
   -3.0420   -0.2880    0.2810 N   0  0  0  0  0  0  0  0  0  0  0  0
   -1.6310   -0.4690    0.4980 C   0  0  0  0  0  0  0  0  0  0  0  0
   -0.8210    0.0550   -0.6320 N   0  0  0  0  0  0  0  0  0  0  0  0
    0.0580   -0.9790   -1.0400 C   0  0  0  0  0  0  0  0  0  0  0  0
    1.4360   -0.4820   -1.5450 C   0  0  0  0  0  0  0  0  0  0  0  0
    2.0620    0.3330   -0.4660 C   0  0  2  0  0  0  0  0  0  0  0  0
    3.4630    0.3770   -0.2530 C   0  0  0  0  0  0  0  0  0  0  0  0
    4.2940   -0.2300    0.6820 C   0  0  0  0  0  0  0  0  0  0  0  0
    3.8360   -1.3770    1.4820 C   0  0  0  0  0  0  0  0  0  0  0  0
    4.8980   -2.1080    2.2450 C   0  0  0  0  0  0  0  0  0  0  0  0
    2.7010   -1.8150    1.5960 O   0  0  0  0  0  0  0  0  0  0  0  0
    5.5270    0.2230    0.6370 N   0  0  0  0  0  0  0  0  0  0  0  0
    5.5930    1.1450   -0.3290 C   0  0  0  0  0  0  0  0  0  0  0  0
    6.8400    1.8730   -0.6380 C   0  0  0  0  0  0  0  0  0  0  0  0
    4.3470    1.2670   -0.8980 C   0  0  0  0  0  0  0  0  0  0  0  0
    4.1030    2.2250   -1.9700 C   0  0  0  0  0  0  0  0  0  0  0  0
    3.7430    3.4240   -1.7410 O   0  0  0  0  0  0  0  0  0  0  0  0
    1.1050    0.5640    0.6450 C   0  0  0  0  0  0  0  0  0  0  0  0
   -0.1290    1.2100   -0.0620 C   0  0  0  0  0  0  0  0  0  0  0  0
   -3.8830   -1.4450    0.2110 C   0  0  0  0  0  0  0  0  0  0  0  0
   -4.4330   -2.0010    1.3170 C   0  0  0  0  0  0  0  0  0  0  0  0
   -5.2540   -3.1250    1.2050 C   0  0  0  0  0  0  0  0  0  0  0  0
   -5.4610   -3.6150   -0.0590 C   0  0  0  0  0  0  0  0  0  0  0  0
   -4.9070   -3.0550   -1.1640 C   0  0  0  0  0  0  0  0  0  0  0  0
   -4.1080   -1.9580   -1.0410 C   0  0  0  0  0  0  0  0  0  0  0  0
  1  2  1  0
  2  3  2  3
  3  4  1  0
  3  5  1  0
  5  6  1  0
  5 24  1  0
  6  7  1  0
  7  8  1  0
  7 23  1  0
  8  9  1  0
  9 10  1  0
 10 11  1  1
 10 22  1  0
 11 12  2  0
 11 19  1  0
 12 13  1  0
 12 16  1  0
 13 14  1  0
 13 15  2  0
 16 17  1  0
 17 18  1  0
 17 19  2  0
 19 20  1  0
 20 21  2  0
 22 23  1  0
 24 25  2  0
 24 29  1  0
 25 26  1  0
 26 27  2  0
 27 28  1  0
 28 29  2  0
M  END
