
     RDKit          3D

 29 31  0  0  0  0  0  0  0  0999 V2000
   -5.8430    3.3170   -0.4250 C   0  0  0  0  0  0  0  0  0  0  0  0
   -4.9630    2.4140   -0.3990 C   0  0  0  0  0  0  0  0  0  0  0  0
   -4.8500    1.0440    0.1140 C   0  0  0  0  0  0  0  0  0  0  0  0
   -3.3340    0.7350    0.2670 C   0  0  0  0  0  0  0  0  0  0  0  0
   -2.3660    1.5800   -0.0830 C   0  0  0  0  0  0  0  0  0  0  0  0
   -1.0950    1.0750   -0.2960 C   0  0  0  0  0  0  0  0  0  0  0  0
   -0.7720   -0.2740   -0.1700 C   0  0  0  0  0  0  0  0  0  0  0  0
    0.4500   -0.5420   -0.9420 N   0  0  0  0  0  0  0  0  0  0  0  0
    0.1610   -0.6580   -2.3940 C   0  0  0  0  0  0  0  0  0  0  0  0
    0.3980   -1.9920   -2.9600 C   0  0  0  0  0  0  0  0  0  0  0  0
   -0.0240   -2.9710   -1.7070 C   0  0  0  0  0  0  0  0  0  0  0  0
   -0.2730   -3.5490   -0.9560 N   0  0  0  0  0  0  0  0  0  0  0  0
    1.6610   -0.4740   -0.4110 C   0  0  0  0  0  0  0  0  0  0  0  0
    1.6350   -0.7350    0.9340 O   0  0  0  0  0  0  0  0  0  0  0  0
    3.0020   -0.1380   -0.8440 C   0  0  1  0  0  0  0  0  0  0  0  0
    3.2880   -0.0220   -2.2840 C   0  0  0  0  0  0  0  0  0  0  0  0
    3.3250    1.2820   -0.2930 C   0  0  0  0  0  0  0  0  0  0  0  0
    4.3900    1.0940    0.6610 C   0  0  0  0  0  0  0  0  0  0  0  0
    5.0370    1.9640    1.5440 C   0  0  0  0  0  0  0  0  0  0  0  0
    5.8070    1.5840    2.5100 C   0  0  0  0  0  0  0  0  0  0  0  0
    6.0450    0.2330    2.8150 C   0  0  0  0  0  0  0  0  0  0  0  0
    5.4150   -0.6620    1.9730 C   0  0  0  0  0  0  0  0  0  0  0  0
    4.6050   -0.2420    0.8920 C   0  0  0  0  0  0  0  0  0  0  0  0
    3.9660   -0.9500   -0.1380 N   0  0  0  0  0  0  0  0  0  0  0  0
   -1.7830   -1.1080    0.2440 C   0  0  0  0  0  0  0  0  0  0  0  0
   -3.0560   -0.6350    0.4520 C   0  0  0  0  0  0  0  0  0  0  0  0
   -4.2950   -1.4780    0.6200 C   0  0  0  0  0  0  0  0  0  0  0  0
   -4.6590   -1.6350    1.8540 O   0  0  0  0  0  0  0  0  0  0  0  0
   -4.1660   -2.1620    2.9370 C   0  0  0  0  0  0  0  0  0  0  0  0
  1  2  2  0
  2  3  1  0
  3  4  1  0
  4  5  2  0
  4 26  1  0
  5  6  1  0
  6  7  2  0
  7  8  1  0
  7 25  1  0
  8  9  1  0
  8 13  1  0
  9 10  1  0
 10 11  1  0
 11 12  3  0
 13 14  2  0
 13 15  1  0
 15 16  1  6
 15 17  1  0
 15 24  1  0
 17 18  1  0
 18 19  2  0
 18 23  1  0
 19 20  1  0
 20 21  2  0
 21 22  1  0
 22 23  2  0
 23 24  1  0
 25 26  2  0
 26 27  1  0
 27 28  1  0
 28 29  1  0
M  END
