
     RDKit          3D

 29 31  0  0  0  0  0  0  0  0999 V2000
   -5.0100    1.5900   -3.0050 C   0  0  0  0  0  0  0  0  0  0  0  0
   -5.1740    2.1570   -1.6170 C   0  0  0  0  0  0  0  0  0  0  0  0
   -4.1070    1.5000   -0.7290 C   0  0  0  0  0  0  0  0  0  0  0  0
   -4.3650    0.0310   -0.7600 C   0  0  0  0  0  0  0  0  0  0  0  0
   -3.4100   -0.7310    0.1110 C   0  0  2  0  0  0  0  0  0  0  0  0
   -3.5040   -0.3040    1.5580 C   0  0  0  0  0  0  0  0  0  0  0  0
   -2.1060   -0.0480    1.9150 C   0  0  0  0  0  0  0  0  0  0  0  0
   -1.7060    0.5950    2.9080 O   0  0  0  0  0  0  0  0  0  0  0  0
   -1.2190   -0.6510    0.9500 N   0  0  0  0  0  0  0  0  0  0  0  0
    0.0500   -1.1430    1.2290 C   0  0  0  0  0  0  0  0  0  0  0  0
    0.5010   -1.0640    2.4380 O   0  0  0  0  0  0  0  0  0  0  0  0
    0.9890   -1.7700    0.3140 C   0  0  0  0  0  0  0  0  0  0  0  0
    0.8800   -3.1540    0.1330 C   0  0  0  0  0  0  0  0  0  0  0  0
   -0.2090   -3.9300    0.7830 C   0  0  0  0  0  0  0  0  0  0  0  0
   -0.0220   -4.1450    2.2450 C   0  0  0  0  0  0  0  0  0  0  0  0
    1.7780   -3.8060   -0.6660 C   0  0  0  0  0  0  0  0  0  0  0  0
    2.7600   -3.0430   -1.2610 C   0  0  0  0  0  0  0  0  0  0  0  0
    2.8590   -1.7180   -1.0850 N   0  0  0  0  0  0  0  0  0  0  0  0
    1.9840   -1.0290   -0.2940 C   0  0  0  0  0  0  0  0  0  0  0  0
    2.1540    0.4110   -0.1070 C   0  0  0  0  0  0  0  0  0  0  0  0
    1.2480    1.4070   -0.3730 C   0  0  0  0  0  0  0  0  0  0  0  0
    1.7990    2.6430   -0.0650 C   0  0  0  0  0  0  0  0  0  0  0  0
    1.1630    3.9790   -0.2070 C   0  0  0  0  0  0  0  0  0  0  0  0
    3.0580    2.4020    0.3970 N   0  0  0  0  0  0  0  0  0  0  0  0
    3.2870    1.0810    0.3790 C   0  0  0  0  0  0  0  0  0  0  0  0
    4.5230    0.4030    0.8020 C   0  0  0  0  0  0  0  0  0  0  0  0
    5.6930    1.3320    0.9040 C   0  0  0  0  0  0  0  0  0  0  0  0
    6.0100    1.9480   -0.4330 C   0  0  0  0  0  0  0  0  0  0  0  0
   -1.9640   -0.6210   -0.2840 C   0  0  0  0  0  0  0  0  0  0  0  0
  1  2  1  0
  2  3  1  0
  3  4  1  0
  5  4  1  6
  5  6  1  0
  5 29  1  0
  6  7  1  0
  7  8  2  0
  7  9  1  0
  9 10  1  0
  9 29  1  0
 10 11  2  0
 10 12  1  0
 12 13  2  0
 12 19  1  0
 13 14  1  0
 13 16  1  0
 14 15  1  0
 16 17  2  0
 17 18  1  0
 18 19  2  0
 19 20  1  0
 20 21  1  0
 20 25  2  0
 21 22  2  0
 22 23  1  0
 22 24  1  0
 24 25  1  0
 25 26  1  0
 26 27  1  0
 27 28  1  0
M  END
