
     RDKit          3D

 29 31  0  0  0  0  0  0  0  0999 V2000
    5.8000   -0.3790    2.8690 C   0  0  0  0  0  0  0  0  0  0  0  0
    6.6080   -0.8590    1.9860 C   0  0  0  0  0  0  0  0  0  0  0  0
    6.4090   -0.9270    0.5120 C   0  0  0  0  0  0  0  0  0  0  0  0
    7.3980   -1.4570   -0.1740 C   0  0  0  0  0  0  0  0  0  0  0  0
    7.4290   -1.6360   -1.6210 C   0  0  0  0  0  0  0  0  0  0  0  0
    5.1880   -0.3430   -0.0260 C   0  0  0  0  0  0  0  0  0  0  0  0
    5.0080    0.0700   -1.3170 C   0  0  0  0  0  0  0  0  0  0  0  0
    3.7510    0.5040   -1.7730 C   0  0  0  0  0  0  0  0  0  0  0  0
    2.6780    0.5200   -0.9210 C   0  0  0  0  0  0  0  0  0  0  0  0
    1.3230    0.8680   -1.0360 C   0  0  0  0  0  0  0  0  0  0  0  0
    0.7560    1.3360   -2.3190 C   0  0  0  0  0  0  0  0  0  0  0  0
    0.7110    0.6660    0.1750 C   0  0  0  0  0  0  0  0  0  0  0  0
   -0.6600    0.8200    0.6170 C   0  0  0  0  0  0  0  0  0  0  0  0
   -0.8090    0.3790    1.8850 O   0  0  0  0  0  0  0  0  0  0  0  0
   -1.8240    1.2870    0.1010 N   0  0  0  0  0  0  0  0  0  0  0  0
   -2.0790    1.8800   -1.1760 C   0  0  0  0  0  0  0  0  0  0  0  0
   -3.0370    1.1630    0.9660 C   0  0  0  0  0  0  0  0  0  0  0  0
   -3.8950    0.0090    0.7930 C   0  0  1  0  0  0  0  0  0  0  0  0
   -3.4330   -1.3750    0.9760 C   0  0  0  0  0  0  0  0  0  0  0  0
   -2.3760   -1.9770    0.1610 C   0  0  0  0  0  0  0  0  0  0  0  0
   -2.6580   -2.0000   -1.3490 C   0  0  0  0  0  0  0  0  0  0  0  0
   -4.9990    0.1530    1.9070 C   0  0  0  0  0  0  0  0  0  0  0  0
   -5.6540    1.4840    1.8390 C   0  0  0  0  0  0  0  0  0  0  0  0
   -5.7740    2.0450    0.5990 O   0  0  0  0  0  0  0  0  0  0  0  0
   -5.8180    1.1440   -0.4210 C   0  0  0  0  0  0  0  0  0  0  0  0
   -4.7710    0.1020   -0.4850 C   0  0  0  0  0  0  0  0  0  0  0  0
    1.7100    0.1990    0.9960 N   0  0  0  0  0  0  0  0  0  0  0  0
    2.8790    0.1080    0.3580 C   0  0  0  0  0  0  0  0  0  0  0  0
    4.0920   -0.3010    0.7640 N   0  0  0  0  0  0  0  0  0  0  0  0
  1  2  2  0
  2  3  1  0
  3  4  2  3
  3  6  1  0
  4  5  1  0
  6  7  2  0
  6 29  1  0
  7  8  1  0
  8  9  2  0
  9 10  1  0
  9 28  1  0
 10 11  1  0
 10 12  2  0
 12 13  1  0
 12 27  1  0
 13 14  2  0
 13 15  1  0
 15 16  1  0
 15 17  1  0
 18 17  1  6
 18 19  1  0
 18 22  1  0
 18 26  1  0
 19 20  1  0
 20 21  1  0
 22 23  1  0
 23 24  1  0
 24 25  1  0
 25 26  1  0
 27 28  1  0
 28 29  2  0
M  END
