
     RDKit          3D

 26 27  0  0  0  0  0  0  0  0999 V2000
   -4.8410    0.7170   -3.8260 C   0  0  0  0  0  0  0  0  0  0  0  0
   -4.3600   -0.0970   -2.6510 C   0  0  0  0  0  0  0  0  0  0  0  0
   -4.6500    0.6090   -1.4980 O   0  0  0  0  0  0  0  0  0  0  0  0
   -4.1170   -0.2860   -0.1370 P   0  0  0  0  0  0  0  0  0  0  0  0
   -4.7690    0.3000    1.3550 O   0  0  0  0  0  0  0  0  0  0  0  0
   -6.1570    0.1940    1.3490 C   0  0  0  0  0  0  0  0  0  0  0  0
   -6.7190    0.7050    2.6510 C   0  0  0  0  0  0  0  0  0  0  0  0
   -2.3020   -0.3710   -0.0390 C   0  0  0  0  0  0  0  0  0  0  0  0
   -1.6380   -1.3260    0.7090 C   0  0  0  0  0  0  0  0  0  0  0  0
   -0.2410   -1.3600    0.7600 C   0  0  0  0  0  0  0  0  0  0  0  0
    0.5020   -0.4400    0.0650 C   0  0  0  0  0  0  0  0  0  0  0  0
    1.9570   -0.4470    0.0970 C   0  0  0  0  0  0  0  0  0  0  0  0
    2.6190    0.7630   -0.0270 C   0  0  0  0  0  0  0  0  0  0  0  0
    4.0050    0.7900    0.0010 C   0  0  0  0  0  0  0  0  0  0  0  0
    4.7510   -0.3540    0.1490 C   0  0  0  0  0  0  0  0  0  0  0  0
    6.1970   -0.2730    0.1730 C   0  0  0  0  0  0  0  0  0  0  0  0
    6.8730   -1.3520    0.3130 O   0  0  0  0  0  0  0  0  0  0  0  0
    6.9670    0.9000    0.0550 N   0  0  0  0  0  0  0  0  0  0  0  0
    8.4100    0.8730    0.0930 C   0  0  0  0  0  0  0  0  0  0  0  0
    9.0210   -0.2150    0.2330 O   0  0  0  0  0  0  0  0  0  0  0  0
    9.1620    2.0290   -0.0240 O   0  0  0  0  0  0  0  0  0  0  0  0
    4.0970   -1.5600    0.2730 C   0  0  0  0  0  0  0  0  0  0  0  0
    4.8720   -2.7010    0.4210 O   0  0  0  0  0  0  0  0  0  0  0  0
    2.7130   -1.5840    0.2450 C   0  0  0  0  0  0  0  0  0  0  0  0
   -0.1820    0.5030   -0.6740 C   0  0  0  0  0  0  0  0  0  0  0  0
   -1.5560    0.5520   -0.7370 C   0  0  0  0  0  0  0  0  0  0  0  0
  1  2  1  0
  2  3  1  0
  3  4  1  0
  4  5  1  0
  4  8  1  0
  5  6  1  0
  6  7  1  0
  8  9  2  0
  8 26  1  0
  9 10  1  0
 10 11  2  0
 11 12  1  0
 11 25  1  0
 12 13  2  0
 12 24  1  0
 13 14  1  0
 14 15  2  0
 15 16  1  0
 15 22  1  0
 16 17  2  0
 16 18  1  0
 18 19  1  0
 19 20  2  0
 19 21  1  0
 22 23  1  0
 22 24  2  0
 25 26  2  0
M  END
