
     RDKit          3D

 26 27  0  0  0  0  0  0  0  0999 V2000
   -6.8960    0.0220   -1.6480 C   0  0  0  0  0  0  0  0  0  0  0  0
   -5.5960    0.2390   -2.3360 C   0  0  0  0  0  0  0  0  0  0  0  0
   -4.5970   -0.8940   -2.1760 C   0  0  0  0  0  0  0  0  0  0  0  0
   -4.4050   -1.0730   -0.8380 O   0  0  0  0  0  0  0  0  0  0  0  0
   -3.2140   -0.6110    0.0540 P   0  0  0  0  0  0  0  0  0  0  0  0
   -3.9410   -0.0920    1.6580 O   0  0  0  0  0  0  0  0  0  0  0  0
   -5.2310   -0.6600    1.6440 C   0  0  0  0  0  0  0  0  0  0  0  0
   -6.0270    0.6190    1.9300 C   0  0  0  0  0  0  0  0  0  0  0  0
   -1.6340   -0.2560    0.1980 O   0  0  0  0  0  0  0  0  0  0  0  0
   -1.4260    0.6580    1.2670 C   0  0  0  0  0  0  0  0  0  0  0  0
   -0.2180    0.9330    1.9180 C   0  0  0  0  0  0  0  0  0  0  0  0
    0.9870    1.5200    1.3280 O   0  0  0  0  0  0  0  0  0  0  0  0
    1.5590    0.5610    0.4400 C   0  0  0  0  0  0  0  0  0  0  0  0
    0.5520    0.0990   -0.7760 S   0  0  0  0  0  0  0  0  0  0  0  0
    2.8480    0.0940    0.5970 N   0  0  0  0  0  0  0  0  0  0  0  0
    3.1330   -1.0510   -0.3680 C   0  0  0  0  0  0  0  0  0  0  0  0
    3.8640   -0.4440   -1.5010 C   0  0  0  0  0  0  0  0  0  0  0  0
    5.1690   -0.0260   -0.8390 C   0  0  0  0  0  0  0  0  0  0  0  0
    6.2910   -0.1340   -1.6370 C   0  0  0  0  0  0  0  0  0  0  0  0
    6.1230   -0.4570   -2.9770 O   0  0  0  0  0  0  0  0  0  0  0  0
    7.5280    0.0760   -1.1020 C   0  0  0  0  0  0  0  0  0  0  0  0
    7.6160    0.4060    0.2470 C   0  0  0  0  0  0  0  0  0  0  0  0
    6.4900    0.5280    1.0790 C   0  0  0  0  0  0  0  0  0  0  0  0
    6.6880    0.8740    2.3750 O   0  0  0  0  0  0  0  0  0  0  0  0
    5.2470    0.2970    0.4870 C   0  0  0  0  0  0  0  0  0  0  0  0
    3.9780    0.5190    1.3100 C   0  0  0  0  0  0  0  0  0  0  0  0
  1  2  1  0
  2  3  1  0
  3  4  1  0
  4  5  1  0
  5  6  1  0
  5  9  1  0
  6  7  1  0
  7  8  1  0
  9 10  1  0
 10 11  1  0
 11 12  1  0
 12 13  1  0
 13 14  2  0
 13 15  1  0
 15 16  1  0
 15 26  1  0
 16 17  1  0
 17 18  1  0
 18 19  2  0
 18 25  1  0
 19 20  1  0
 19 21  1  0
 21 22  2  0
 22 23  1  0
 23 24  1  0
 23 25  2  0
 25 26  1  0
M  END
