
     RDKit          3D

 26 27  0  0  0  0  0  0  0  0999 V2000
   -4.1250    1.0580    2.8720 C   0  0  0  0  0  0  0  0  0  0  0  0
   -3.9310    0.4720    1.5190 N   0  0  0  0  0  0  0  0  0  0  0  0
   -4.9540   -0.4490    1.1250 C   0  0  0  0  0  0  0  0  0  0  0  0
   -6.0660    0.2920    0.4000 C   0  0  0  0  0  0  0  0  0  0  0  0
   -7.0830   -0.5340   -0.0120 O   0  0  0  0  0  0  0  0  0  0  0  0
   -2.7820    0.8810    0.7970 C   0  0  0  0  0  0  0  0  0  0  0  0
   -2.0360    1.7050    1.4290 O   0  0  0  0  0  0  0  0  0  0  0  0
   -2.4520    0.4280   -0.5340 C   0  0  0  0  0  0  0  0  0  0  0  0
   -1.3880    0.8060   -1.2080 C   0  0  0  0  0  0  0  0  0  0  0  0
   -0.4040    1.7630   -0.6330 C   0  0  0  0  0  0  0  0  0  0  0  0
    0.9390    1.1060   -0.4980 C   0  0  0  0  0  0  0  0  0  0  0  0
    1.2590    0.4480    0.6570 C   0  0  0  0  0  0  0  0  0  0  0  0
    2.5090   -0.1610    0.7800 C   0  0  0  0  0  0  0  0  0  0  0  0
    3.4310   -0.1150   -0.2410 C   0  0  0  0  0  0  0  0  0  0  0  0
    4.6570   -0.7310   -0.0780 O   0  0  0  0  0  0  0  0  0  0  0  0
    4.9510   -1.3930    1.1110 C   0  0  0  0  0  0  0  0  0  0  0  0
    6.3180   -2.0100    1.1370 C   0  0  0  0  0  0  0  0  0  0  0  0
    7.6690   -0.7830    0.9200 P   0  0  0  0  0  0  0  0  0  0  0  0
    8.9560   -1.0160    2.0590 O   0  0  0  0  0  0  0  0  0  0  0  0
    7.1030    0.8520    1.0310 O   0  0  0  0  0  0  0  0  0  0  0  0
    3.0800    0.5590   -1.4010 C   0  0  0  0  0  0  0  0  0  0  0  0
    1.8370    1.1730   -1.5410 C   0  0  0  0  0  0  0  0  0  0  0  0
   -1.1120    0.3250   -2.5210 O   0  0  0  0  0  0  0  0  0  0  0  0
   -2.1690    0.1290   -3.4170 C   0  0  0  0  0  0  0  0  0  0  0  0
   -2.8690   -1.1610   -2.9560 C   0  0  0  0  0  0  0  0  0  0  0  0
   -3.5600   -0.7670   -1.3480 S   0  0  0  0  0  0  0  0  0  0  0  0
  1  2  1  0
  2  3  1  0
  2  6  1  0
  3  4  1  0
  4  5  1  0
  6  7  2  0
  6  8  1  0
  8  9  2  0
  8 26  1  0
  9 10  1  0
  9 23  1  0
 10 11  1  0
 11 12  2  0
 11 22  1  0
 12 13  1  0
 13 14  2  0
 14 15  1  0
 14 21  1  0
 15 16  1  0
 16 17  1  0
 17 18  1  0
 18 19  1  0
 18 20  1  0
 21 22  2  0
 23 24  1  0
 24 25  1  0
 25 26  1  0
M  END
