
     RDKit          3D

 26 28  0  0  0  0  0  0  0  0999 V2000
   -3.8370    4.8120   -0.0400 C   0  0  0  0  0  0  0  0  0  0  0  0
   -2.7130    4.1040   -0.7580 C   0  0  0  0  0  0  0  0  0  0  0  0
   -2.3170    4.5450   -1.9880 C   0  0  0  0  0  0  0  0  0  0  0  0
   -1.2430    3.8920   -2.6300 C   0  0  0  0  0  0  0  0  0  0  0  0
   -0.6500    2.8260   -1.9720 C   0  0  0  0  0  0  0  0  0  0  0  0
    0.7670    1.7990   -2.4060 S   0  0  0  0  0  0  0  0  0  0  0  0
    0.7750    0.8570   -0.9380 C   0  0  0  0  0  0  0  0  0  0  0  0
    1.9370    0.0730   -0.5190 C   0  0  0  0  0  0  0  0  0  0  0  0
    1.6370   -1.1820   -0.0610 O   0  0  0  0  0  0  0  0  0  0  0  0
    2.7650   -1.6860    0.6530 C   0  0  0  0  0  0  0  0  0  0  0  0
    3.9630   -1.8470   -0.1660 C   0  0  0  0  0  0  0  0  0  0  0  0
    5.1280   -2.1640    0.7500 C   0  0  0  0  0  0  0  0  0  0  0  0
    6.3250   -2.3060    0.0550 O   0  0  0  0  0  0  0  0  0  0  0  0
    7.3460   -2.5340    0.8870 O   0  0  0  0  0  0  0  0  0  0  0  0
   -0.2860    1.3350   -0.2160 C   0  0  0  0  0  0  0  0  0  0  0  0
   -0.5970    0.7080    1.0580 O   0  0  0  0  0  0  0  0  0  0  0  0
   -1.6890   -0.1990    1.0680 C   0  0  0  0  0  0  0  0  0  0  0  0
   -1.6740   -1.3960    0.2220 C   0  0  1  0  0  0  0  0  0  0  0  0
   -1.3650   -1.1030   -1.1240 O   0  0  0  0  0  0  0  0  0  0  0  0
   -1.0900   -2.6420    0.6980 C   0  0  0  0  0  0  0  0  0  0  0  0
   -2.1440   -3.2630    1.6020 C   0  0  0  0  0  0  0  0  0  0  0  0
   -3.3640   -2.9920    0.9170 N   0  0  0  0  0  0  0  0  0  0  0  0
   -3.1750   -1.7990    0.1770 C   0  0  0  0  0  0  0  0  0  0  0  0
   -4.0240   -1.1420   -0.4370 O   0  0  0  0  0  0  0  0  0  0  0  0
   -1.0010    2.3520   -0.7520 C   0  0  0  0  0  0  0  0  0  0  0  0
   -2.0940    3.0560   -0.1450 C   0  0  0  0  0  0  0  0  0  0  0  0
  1  2  1  0
  2  3  2  0
  2 26  1  0
  3  4  1  0
  4  5  2  0
  5  6  1  0
  5 25  1  0
  6  7  1  0
  7  8  1  0
  7 15  2  0
  8  9  1  0
  9 10  1  0
 10 11  1  0
 11 12  1  0
 12 13  1  0
 13 14  1  0
 15 16  1  0
 15 25  1  0
 16 17  1  0
 17 18  1  0
 18 19  1  6
 18 20  1  0
 18 23  1  0
 20 21  1  0
 21 22  1  0
 22 23  1  0
 23 24  2  0
 25 26  2  0
M  END
