
     RDKit          3D

 26 27  0  0  0  0  0  0  0  0999 V2000
    2.5950    0.8350    4.3330 C   0  0  0  0  0  0  0  0  0  0  0  0
    3.4920    0.8420    3.3910 C   0  0  0  0  0  0  0  0  0  0  0  0
    5.3570    1.3260    3.7100 P   0  0  0  0  0  0  0  0  0  0  0  0
    5.8330    1.0740    1.9790 C   0  0  0  0  0  0  0  0  0  0  0  0
    4.6190    0.6680    1.3350 C   0  0  0  0  0  0  0  0  0  0  0  0
    3.5190    0.5560    1.9880 C   0  0  0  0  0  0  0  0  0  0  0  0
    2.2350    0.1280    1.3130 C   0  0  0  0  0  0  0  0  0  0  0  0
    1.1900    0.0310    1.9790 O   0  0  0  0  0  0  0  0  0  0  0  0
    2.1710   -0.1620   -0.0190 O   0  0  0  0  0  0  0  0  0  0  0  0
    1.0250   -0.5630   -0.7240 C   0  0  0  0  0  0  0  0  0  0  0  0
   -0.0150    0.4990   -0.6550 C   0  0  1  0  0  0  0  0  0  0  0  0
    0.5200    1.7490   -1.2540 C   0  0  0  0  0  0  0  0  0  0  0  0
    1.6800    1.8380   -1.7340 O   0  0  0  0  0  0  0  0  0  0  0  0
   -0.2800    2.8800   -1.2970 O   0  0  0  0  0  0  0  0  0  0  0  0
    0.1680    4.1070   -1.8550 C   0  0  0  0  0  0  0  0  0  0  0  0
   -1.2650    0.1440   -1.4380 C   0  0  1  0  0  0  0  0  0  0  0  0
   -0.9370   -0.0690   -2.9060 C   0  0  0  0  0  0  0  0  0  0  0  0
   -0.2720    1.0570   -3.3880 O   0  0  0  0  0  0  0  0  0  0  0  0
   -1.9580   -0.9980   -0.8810 N   0  0  0  0  0  0  0  0  0  0  0  0
   -3.2640   -0.9580   -0.3760 C   0  0  0  0  0  0  0  0  0  0  0  0
   -3.9090    0.1070   -0.3850 O   0  0  0  0  0  0  0  0  0  0  0  0
   -3.8650   -2.1570    0.1590 C   0  0  0  0  0  0  0  0  0  0  0  0
   -3.3780   -3.4210    0.2810 C   0  0  0  0  0  0  0  0  0  0  0  0
   -4.1410   -4.3800    0.8200 C   0  0  0  0  0  0  0  0  0  0  0  0
   -5.4280   -4.0130    1.2380 C   0  0  0  0  0  0  0  0  0  0  0  0
   -5.4580   -2.2700    0.8170 S   0  0  0  0  0  0  0  0  0  0  0  0
  1  2  2  0
  2  3  1  0
  2  6  1  0
  3  4  2  0
  4  5  1  0
  5  6  2  0
  6  7  1  0
  7  8  2  0
  7  9  1  0
  9 10  1  0
 11 10  1  6
 11 12  1  0
 11 16  1  0
 12 13  2  0
 12 14  1  0
 14 15  1  0
 16 17  1  6
 16 19  1  0
 17 18  1  0
 19 20  1  0
 20 21  2  0
 20 22  1  0
 22 23  2  0
 22 26  1  0
 23 24  1  0
 24 25  2  0
 25 26  1  0
M  END
