
     RDKit          3D

 25 26  0  0  0  0  0  0  0  0999 V2000
    0.7820    0.0730    2.2950 C   0  0  0  0  0  0  0  0  0  0  0  0
    0.9930    1.3240    1.4590 C   0  0  0  0  0  0  0  0  0  0  0  0
    1.4420    1.0580    0.1280 N   0  0  0  0  0  0  0  0  0  0  0  0
    0.5890    0.8070   -0.9470 C   0  0  0  0  0  0  0  0  0  0  0  0
    1.2390    0.6780   -2.0850 O   0  0  0  0  0  0  0  0  0  0  0  0
   -0.8160    0.6630   -1.0500 C   0  0  0  0  0  0  0  0  0  0  0  0
   -1.7740    0.6970   -0.1770 C   0  0  0  0  0  0  0  0  0  0  0  0
   -3.1960    0.5180   -0.5440 C   0  0  0  0  0  0  0  0  0  0  0  0
   -4.1390    0.5580    0.3810 C   0  0  0  0  0  0  0  0  0  0  0  0
   -3.7650    0.7810    1.7780 C   0  0  0  0  0  0  0  0  0  0  0  0
   -5.5010    0.3820    0.0370 N   0  0  0  0  0  0  0  0  0  0  0  0
   -6.5270    0.7640    0.9490 C   0  0  0  0  0  0  0  0  0  0  0  0
   -6.4710    2.1290    1.2590 F   0  0  0  0  0  0  0  0  0  0  0  0
   -5.8660   -0.1960   -1.2640 C   0  0  0  0  0  0  0  0  0  0  0  0
   -4.9320    0.2560   -2.3340 C   0  0  0  0  0  0  0  0  0  0  0  0
   -3.4910    0.3030   -1.9700 C   0  0  0  0  0  0  0  0  0  0  0  0
    2.9020    1.0480   -0.0620 C   0  0  2  0  0  0  0  0  0  0  0  0
    3.2110    2.0880   -1.1080 C   0  0  0  0  0  0  0  0  0  0  0  0
    3.4050   -0.2720   -0.4940 C   0  0  0  0  0  0  0  0  0  0  0  0
    2.6360   -1.3440   -0.5510 C   0  0  0  0  0  0  0  0  0  0  0  0
    3.2680   -2.6270   -1.0080 C   0  0  0  0  0  0  0  0  0  0  0  0
    4.6110   -2.7220   -0.3160 C   0  0  0  0  0  0  0  0  0  0  0  0
    5.4660   -1.5770   -0.8120 C   0  0  2  0  0  0  0  0  0  0  0  0
    6.7040   -1.4990    0.0300 C   0  0  0  0  0  0  0  0  0  0  0  0
    4.7400   -0.3630   -0.8460 O   0  0  0  0  0  0  0  0  0  0  0  0
  1  2  1  0
  2  3  1  0
  3  4  1  0
  3 17  1  0
  4  5  2  0
  4  6  1  0
  6  7  2  3
  7  8  1  0
  8  9  2  0
  8 16  1  0
  9 10  1  0
  9 11  1  0
 11 12  1  0
 11 14  1  0
 12 13  1  0
 14 15  1  0
 15 16  1  0
 17 18  1  6
 17 19  1  0
 19 20  2  0
 19 25  1  0
 20 21  1  0
 21 22  1  0
 22 23  1  0
 23 24  1  1
 23 25  1  0
M  END
