
     RDKit          3D

 25 26  0  0  0  0  0  0  0  0999 V2000
   -0.7680   -1.7210   -0.9000 C   0  0  0  0  0  0  0  0  0  0  0  0
   -0.5180   -1.0920    0.4050 C   0  0  0  0  0  0  0  0  0  0  0  0
    0.6380   -1.2510    0.9870 C   0  0  0  0  0  0  0  0  0  0  0  0
    1.7570   -2.0150    0.4590 C   0  0  0  0  0  0  0  0  0  0  0  0
    3.0170   -1.1580    0.3530 C   0  0  0  0  0  0  0  0  0  0  0  0
    2.8440    0.0110   -0.5350 C   0  0  0  0  0  0  0  0  0  0  0  0
    1.7170    0.3070   -1.0330 O   0  0  0  0  0  0  0  0  0  0  0  0
    3.9640    0.8140   -0.8320 N   0  0  0  0  0  0  0  0  0  0  0  0
    3.8030    1.9540   -1.7080 C   0  0  0  0  0  0  0  0  0  0  0  0
    5.2580    0.5600   -0.3030 C   0  0  0  0  0  0  0  0  0  0  0  0
    5.6190    0.5640    0.9690 C   0  0  0  0  0  0  0  0  0  0  0  0
    7.0610    0.2490    1.1090 C   0  0  0  0  0  0  0  0  0  0  0  0
    7.5020    0.0590   -0.2760 C   0  0  0  0  0  0  0  0  0  0  0  0
    6.4730    0.2370   -1.0690 C   0  0  0  0  0  0  0  0  0  0  0  0
    6.4620    0.1490   -2.4340 F   0  0  0  0  0  0  0  0  0  0  0  0
   -1.5020   -0.2730    1.1190 C   0  0  0  0  0  0  0  0  0  0  0  0
   -1.0970    0.1860    2.2660 O   0  0  0  0  0  0  0  0  0  0  0  0
   -2.7880    0.0770    0.7470 N   0  0  0  0  0  0  0  0  0  0  0  0
   -3.5070   -0.2600   -0.4460 C   0  0  0  0  0  0  0  0  0  0  0  0
   -4.6490    0.6940   -0.6020 C   0  0  1  0  0  0  0  0  0  0  0  0
   -4.5630    1.3360   -1.9740 C   0  0  0  0  0  0  0  0  0  0  0  0
   -5.9940   -0.0100   -0.5180 C   0  0  0  0  0  0  0  0  0  0  0  0
   -4.4690    1.6870    0.4990 C   0  0  0  0  0  0  0  0  0  0  0  0
   -3.6990    0.9020    1.5430 C   0  0  1  0  0  0  0  0  0  0  0  0
   -4.6680    0.1130    2.3530 C   0  0  0  0  0  0  0  0  0  0  0  0
  1  2  1  0
  2  3  2  3
  2 16  1  0
  3  4  1  0
  4  5  1  0
  5  6  1  0
  6  7  2  0
  6  8  1  0
  8  9  1  0
  8 10  1  0
 10 11  2  0
 10 14  1  0
 11 12  1  0
 12 13  1  0
 13 14  2  0
 14 15  1  0
 16 17  2  0
 16 18  1  0
 18 19  1  0
 18 24  1  0
 19 20  1  0
 20 21  1  6
 20 22  1  0
 20 23  1  0
 23 24  1  0
 24 25  1  6
M  END
