
     RDKit          3D

 25 27  0  0  0  0  0  0  0  0999 V2000
   -1.6910    4.6660   -0.2500 C   0  0  0  0  0  0  0  0  0  0  0  0
   -1.2220    3.6840   -1.1520 O   0  0  0  0  0  0  0  0  0  0  0  0
   -1.4590    2.3410   -0.8210 C   0  0  0  0  0  0  0  0  0  0  0  0
   -0.3940    1.5830   -0.6780 C   0  0  0  0  0  0  0  0  0  0  0  0
   -0.5090    0.1800   -0.3360 C   0  0  0  0  0  0  0  0  0  0  0  0
    0.5120   -0.6520   -0.1740 C   0  0  0  0  0  0  0  0  0  0  0  0
    1.8680   -0.2030   -0.3310 C   0  0  0  0  0  0  0  0  0  0  0  0
    2.8600   -1.0950   -0.1530 C   0  0  0  0  0  0  0  0  0  0  0  0
    2.5660   -2.3850    0.1680 F   0  0  0  0  0  0  0  0  0  0  0  0
    4.2170   -0.6230   -0.3170 C   0  0  0  0  0  0  0  0  0  0  0  0
    5.3000   -1.3640   -0.1780 C   0  0  0  0  0  0  0  0  0  0  0  0
    6.4550   -0.5750   -0.4100 N   0  0  0  0  0  0  0  0  0  0  0  0
    5.9720    0.7870   -0.3680 C   0  0  2  0  0  0  0  0  0  0  0  0
    6.0960    1.3480    1.0360 C   0  0  0  0  0  0  0  0  0  0  0  0
    4.5950    0.6550   -0.6380 O   0  0  0  0  0  0  0  0  0  0  0  0
   -1.8870   -0.3480   -0.1590 C   0  0  0  0  0  0  0  0  0  0  0  0
   -2.0310   -1.5750    0.1410 N   0  0  0  0  0  0  0  0  0  0  0  0
   -3.3370   -2.1070    0.3170 C   0  0  0  0  0  0  0  0  0  0  0  0
   -3.8910   -2.8200   -0.7210 C   0  0  0  0  0  0  0  0  0  0  0  0
   -5.1710   -3.3440   -0.5570 C   0  0  0  0  0  0  0  0  0  0  0  0
   -5.8400   -3.1410    0.6190 C   0  0  0  0  0  0  0  0  0  0  0  0
   -5.2830   -2.4190    1.6740 C   0  0  0  0  0  0  0  0  0  0  0  0
   -4.0330   -1.9150    1.4960 C   0  0  0  0  0  0  0  0  0  0  0  0
   -2.9910    0.5670   -0.3380 C   0  0  0  0  0  0  0  0  0  0  0  0
   -2.8070    1.8370   -0.6500 C   0  0  0  0  0  0  0  0  0  0  0  0
  1  2  1  0
  2  3  1  0
  3  4  2  0
  3 25  1  0
  4  5  1  0
  5  6  2  3
  5 16  1  0
  6  7  1  0
  7  8  2  3
  8  9  1  0
  8 10  1  0
 10 11  2  0
 10 15  1  0
 11 12  1  0
 12 13  1  0
 13 14  1  1
 13 15  1  0
 16 17  2  3
 16 24  1  0
 17 18  1  0
 18 19  2  0
 18 23  1  0
 19 20  1  0
 20 21  2  0
 21 22  1  0
 22 23  2  0
 24 25  2  0
M  END
