
     RDKit          3D

 25 27  0  0  0  0  0  0  0  0999 V2000
   -1.7450    5.1030   -0.8220 C   0  0  0  0  0  0  0  0  0  0  0  0
   -2.3250    3.7140   -1.1120 C   0  0  0  0  0  0  0  0  0  0  0  0
   -1.4400    2.6530   -0.5060 C   0  0  0  0  0  0  0  0  0  0  0  0
   -1.9550    1.2580   -0.7470 C   0  0  0  0  0  0  0  0  0  0  0  0
   -1.0640    0.2100   -0.1390 C   0  0  2  0  0  0  0  0  0  0  0  0
    0.3260    0.2360   -0.6860 C   0  0  0  0  0  0  0  0  0  0  0  0
    1.2000   -0.8120   -0.0370 C   0  0  0  0  0  0  0  0  0  0  0  0
    2.5470   -0.7900   -0.5860 N   0  0  0  0  0  0  0  0  0  0  0  0
    2.7100   -1.2200   -1.9410 C   0  0  0  0  0  0  0  0  0  0  0  0
    3.9020   -1.2180   -2.4730 C   0  0  0  0  0  0  0  0  0  0  0  0
    5.1240   -0.8000   -1.7810 C   0  0  0  0  0  0  0  0  0  0  0  0
    4.8950   -0.3650   -0.3850 C   0  0  0  0  0  0  0  0  0  0  0  0
    3.6970   -0.3770    0.1210 C   0  0  0  0  0  0  0  0  0  0  0  0
    3.8000    0.1190    1.5120 C   0  0  0  0  0  0  0  0  0  0  0  0
    5.0570    0.7670    1.5480 O   0  0  0  0  0  0  0  0  0  0  0  0
    5.8440    0.1190    0.6310 C   0  0  2  0  0  0  0  0  0  0  0  0
    6.8430    0.9010    0.0920 F   0  0  0  0  0  0  0  0  0  0  0  0
   -1.6950   -1.1200   -0.2970 C   0  0  0  0  0  0  0  0  0  0  0  0
   -1.2340   -1.8790   -1.1860 O   0  0  0  0  0  0  0  0  0  0  0  0
   -2.7720   -1.5690    0.4880 N   0  0  0  0  0  0  0  0  0  0  0  0
   -3.3060   -2.9170    0.2110 C   0  0  0  0  0  0  0  0  0  0  0  0
   -3.0900   -3.6800    1.4950 C   0  0  0  0  0  0  0  0  0  0  0  0
   -3.5300   -3.0900    2.5950 C   0  0  0  0  0  0  0  0  0  0  0  0
   -4.1840   -1.7650    2.4810 C   0  0  0  0  0  0  0  0  0  0  0  0
   -3.4090   -0.8570    1.5600 C   0  0  0  0  0  0  0  0  0  0  0  0
  1  2  1  0
  2  3  1  0
  3  4  1  0
  5  4  1  6
  5  6  1  0
  5 18  1  0
  6  7  1  0
  7  8  1  0
  8  9  1  0
  8 13  1  0
  9 10  2  0
 10 11  1  0
 11 12  1  0
 12 13  2  0
 12 16  1  0
 13 14  1  0
 14 15  1  0
 15 16  1  0
 16 17  1  6
 18 19  2  0
 18 20  1  0
 20 21  1  0
 20 25  1  0
 21 22  1  0
 22 23  2  0
 23 24  1  0
 24 25  1  0
M  END
