
     RDKit          3D

 25 27  0  0  0  0  0  0  0  0999 V2000
   -2.6590    4.0760   -0.0310 C   0  0  0  0  0  0  0  0  0  0  0  0
   -2.1720    2.8020   -0.4020 O   0  0  0  0  0  0  0  0  0  0  0  0
   -2.5230    1.7190    0.3920 C   0  0  0  0  0  0  0  0  0  0  0  0
   -3.2450    1.9020    1.3910 O   0  0  0  0  0  0  0  0  0  0  0  0
   -2.0610    0.3330    0.0870 C   0  0  1  0  0  0  0  0  0  0  0  0
   -0.6020    0.3670    0.1450 C   0  0  0  0  0  0  0  0  0  0  0  0
    0.0100    1.0170    1.1930 C   0  0  0  0  0  0  0  0  0  0  0  0
    1.3960    1.0820    1.2980 C   0  0  0  0  0  0  0  0  0  0  0  0
    2.1820    0.4860    0.3410 C   0  0  0  0  0  0  0  0  0  0  0  0
    3.6000    0.5290    0.4110 N   0  0  0  0  0  0  0  0  0  0  0  0
    4.2900   -0.5000    0.0710 C   0  0  0  0  0  0  0  0  0  0  0  0
    5.7510   -0.5020    0.1280 C   0  0  0  0  0  0  0  0  0  0  0  0
    6.5230   -1.5170   -0.2040 C   0  0  0  0  0  0  0  0  0  0  0  0
    7.9140   -1.1240   -0.0090 C   0  0  0  0  0  0  0  0  0  0  0  0
    7.8550    0.1050    0.4260 C   0  0  0  0  0  0  0  0  0  0  0  0
    6.6280    0.5820    0.5490 C   0  0  0  0  0  0  0  0  0  0  0  0
    6.2350    1.8050    0.9700 F   0  0  0  0  0  0  0  0  0  0  0  0
    1.5910   -0.1650   -0.7070 C   0  0  0  0  0  0  0  0  0  0  0  0
    0.1900   -0.2170   -0.7930 C   0  0  0  0  0  0  0  0  0  0  0  0
   -2.6170   -0.5520    1.1980 C   0  0  0  0  0  0  0  0  0  0  0  0
   -4.0740   -0.7970    0.9020 C   0  0  0  0  0  0  0  0  0  0  0  0
   -4.2330   -1.7490   -0.2780 C   0  0  0  0  0  0  0  0  0  0  0  0
   -3.1990   -1.4600   -1.1970 N   0  0  0  0  0  0  0  0  0  0  0  0
   -2.4270   -2.5250   -1.7020 C   0  0  0  0  0  0  0  0  0  0  0  0
   -2.6520   -0.1570   -1.2030 C   0  0  0  0  0  0  0  0  0  0  0  0
  1  2  1  0
  2  3  1  0
  3  4  2  0
  5  3  1  1
  5  6  1  0
  5 20  1  0
  5 25  1  0
  6  7  2  0
  6 19  1  0
  7  8  1  0
  8  9  2  0
  9 10  1  0
  9 18  1  0
 10 11  2  3
 11 12  1  0
 12 13  2  0
 12 16  1  0
 13 14  1  0
 14 15  2  0
 15 16  2  0
 16 17  1  0
 18 19  2  0
 20 21  1  0
 21 22  1  0
 22 23  1  0
 23 24  1  0
 23 25  1  0
M  END
