
     RDKit          3D

 12 12  0  0  0  0  0  0  0  0999 V2000
    3.6180    0.1230    0.2880 N   0  0  0  0  0  0  0  0  0  0  0  0
    2.6440   -0.7350   -0.3400 C   0  0  1  0  0  0  0  0  0  0  0  0
    2.7750   -2.3600    0.3680 Cl  0  0  0  0  0  0  0  0  0  0  0  0
    1.3020   -0.2520   -0.1030 N   0  0  0  0  0  0  0  0  0  0  0  0
    0.2960   -0.9280   -0.4500 N   0  0  0  0  0  0  0  0  0  0  0  0
   -0.9880   -0.3670   -0.1740 C   0  0  0  0  0  0  0  0  0  0  0  0
   -1.2160    0.9070   -0.4250 C   0  0  0  0  0  0  0  0  0  0  0  0
   -2.4730    1.4630   -0.1560 N   0  0  0  0  0  0  0  0  0  0  0  0
   -3.4040    0.6380    0.3580 O   0  0  0  0  0  0  0  0  0  0  0  0
   -3.1750   -0.6630    0.6160 N   0  0  0  0  0  0  0  0  0  0  0  0
   -2.0310   -1.2070    0.3810 C   0  0  0  0  0  0  0  0  0  0  0  0
   -1.7380   -2.8960    0.7160 Cl  0  0  0  0  0  0  0  0  0  0  0  0
  2  1  1  1
  2  3  1  0
  2  4  1  0
  4  5  2  3
  5  6  1  0
  6  7  2  0
  6 11  1  0
  7  8  1  0
  8  9  1  0
  9 10  1  0
 10 11  2  0
 11 12  1  0
M  CHG  1   8   1
M  END
