
     RDKit          3D

 25 27  0  0  0  0  0  0  0  0999 V2000
    7.6990   -1.2250   -0.1150 C   0  0  0  0  0  0  0  0  0  0  0  0
    6.2690   -0.8770   -0.0040 C   0  0  0  0  0  0  0  0  0  0  0  0
    5.3470   -1.8470    0.2730 C   0  0  0  0  0  0  0  0  0  0  0  0
    4.0660   -1.5130    0.3680 N   0  0  0  0  0  0  0  0  0  0  0  0
    3.6260   -0.2660    0.2050 C   0  0  0  0  0  0  0  0  0  0  0  0
    4.5270    0.7400   -0.0750 C   0  0  0  0  0  0  0  0  0  0  0  0
    5.8530    0.4100   -0.1760 C   0  0  0  0  0  0  0  0  0  0  0  0
    4.0450    2.1130   -0.2540 C   0  0  0  0  0  0  0  0  0  0  0  0
    4.8790    3.0060   -0.5080 O   0  0  0  0  0  0  0  0  0  0  0  0
    2.6140    2.3450   -0.1230 C   0  0  0  0  0  0  0  0  0  0  0  0
    2.1580    3.5130   -0.2700 O   0  0  0  0  0  0  0  0  0  0  0  0
    1.7270    1.2050    0.1790 C   0  0  0  0  0  0  0  0  0  0  0  0
    2.2130   -0.0150    0.3310 C   0  0  0  0  0  0  0  0  0  0  0  0
    1.2730   -1.1380    0.6280 C   0  0  0  0  0  0  0  0  0  0  0  0
    0.0920   -0.8800   -0.3250 C   0  0  0  0  0  0  0  0  0  0  0  0
   -0.4840    0.3330    0.0590 N   0  0  0  0  0  0  0  0  0  0  0  0
   -1.8520    0.3300    0.4460 C   0  0  0  0  0  0  0  0  0  0  0  0
   -2.7510    0.0360   -0.7310 C   0  0  0  0  0  0  0  0  0  0  0  0
   -4.2080    0.0230   -0.3660 C   0  0  2  0  0  0  0  0  0  0  0  0
   -5.0090   -0.2800   -1.6130 C   0  0  0  0  0  0  0  0  0  0  0  0
   -4.5750    1.4470    0.0420 C   0  0  0  0  0  0  0  0  0  0  0  0
   -4.5340   -0.9080    0.7550 C   0  0  0  0  0  0  0  0  0  0  0  0
   -5.9990   -0.8900    1.0850 C   0  0  0  0  0  0  0  0  0  0  0  0
   -6.4800    0.3240    1.4690 F   0  0  0  0  0  0  0  0  0  0  0  0
    0.2760    1.4600    0.3160 C   0  0  0  0  0  0  0  0  0  0  0  0
  1  2  1  0
  2  3  2  0
  2  7  1  0
  3  4  1  0
  4  5  2  0
  5  6  1  0
  5 13  1  0
  6  7  2  0
  6  8  1  0
  8  9  2  0
  8 10  1  0
 10 11  2  0
 10 12  1  0
 12 13  2  0
 12 25  1  0
 13 14  1  0
 14 15  1  0
 15 16  1  0
 16 17  1  0
 16 25  1  0
 17 18  1  0
 18 19  1  0
 19 20  1  6
 19 21  1  0
 19 22  1  0
 22 23  1  0
 23 24  1  0
M  END
