
     RDKit          3D

 25 27  0  0  0  0  0  0  0  0999 V2000
    0.8330    6.5410    0.2430 C   0  0  0  0  0  0  0  0  0  0  0  0
   -0.1910    5.7230    0.1370 C   0  0  0  0  0  0  0  0  0  0  0  0
   -1.4350    6.2360    0.1680 F   0  0  0  0  0  0  0  0  0  0  0  0
    0.0270    4.3040   -0.0090 C   0  0  0  0  0  0  0  0  0  0  0  0
   -0.9850    3.4940   -0.1130 C   0  0  0  0  0  0  0  0  0  0  0  0
   -0.8030    2.0390   -0.2630 C   0  0  0  0  0  0  0  0  0  0  0  0
   -1.7960    1.0790   -0.3830 C   0  0  0  0  0  0  0  0  0  0  0  0
   -1.2050   -0.1550   -0.5020 C   0  0  0  0  0  0  0  0  0  0  0  0
   -1.8540   -1.4720   -0.6670 C   0  0  0  0  0  0  0  0  0  0  0  0
   -3.2840   -1.4400   -0.6650 N   0  0  0  0  0  0  0  0  0  0  0  0
   -3.8010   -0.9940    0.5770 C   0  0  0  0  0  0  0  0  0  0  0  0
   -4.3350   -2.0240    1.4710 C   0  0  0  0  0  0  0  0  0  0  0  0
   -4.2860   -3.3040    1.2280 C   0  0  0  0  0  0  0  0  0  0  0  0
   -3.6500   -3.7800   -0.0340 C   0  0  0  0  0  0  0  0  0  0  0  0
   -3.7730   -2.7130   -1.1060 C   0  0  0  0  0  0  0  0  0  0  0  0
    0.1560    0.0900   -0.4510 C   0  0  0  0  0  0  0  0  0  0  0  0
    1.2250   -0.9220   -0.5380 C   0  0  0  0  0  0  0  0  0  0  0  0
    0.8880   -2.1330   -0.6680 O   0  0  0  0  0  0  0  0  0  0  0  0
    2.5960   -0.5680   -0.4800 N   0  0  0  0  0  0  0  0  0  0  0  0
    3.1460    0.7610   -0.3390 C   0  0  0  0  0  0  0  0  0  0  0  0
    4.4420    0.6570   -1.1530 C   0  0  0  0  0  0  0  0  0  0  0  0
    4.9560   -0.6840   -0.7390 C   0  0  0  0  0  0  0  0  0  0  0  0
    3.7040   -1.4970   -0.5480 C   0  0  1  0  0  0  0  0  0  0  0  0
    3.8380   -2.2340    0.7810 C   0  0  0  0  0  0  0  0  0  0  0  0
    0.3260    1.3820   -0.3120 O   0  0  0  0  0  0  0  0  0  0  0  0
  1  2  2  0
  2  3  1  0
  2  4  1  0
  4  5  2  3
  5  6  1  0
  6  7  2  0
  6 25  1  0
  7  8  1  0
  8  9  1  0
  8 16  2  0
  9 10  1  0
 10 11  1  0
 10 15  1  0
 11 12  1  0
 12 13  2  0
 13 14  1  0
 14 15  1  0
 16 17  1  0
 16 25  1  0
 17 18  2  0
 17 19  1  0
 19 20  1  0
 19 23  1  0
 20 21  1  0
 21 22  1  0
 22 23  1  0
 23 24  1  1
M  END
