
     RDKit          3D

 21 21  0  0  0  0  0  0  0  0999 V2000
   -3.3660   -0.5430   -1.9940 C   0  0  0  0  0  0  0  0  0  0  0  0
   -3.2710    0.3380   -1.0460 C   0  0  0  0  0  0  0  0  0  0  0  0
   -3.9260    1.6220   -1.4220 N   0  0  0  0  0  0  0  0  0  0  0  0
   -2.6870    0.3440    0.2550 C   0  0  0  0  0  0  0  0  0  0  0  0
   -2.8320    1.5450    0.9340 C   0  0  0  0  0  0  0  0  0  0  0  0
   -1.9800   -0.6380    1.0060 C   0  0  0  0  0  0  0  0  0  0  0  0
   -1.5390   -0.1660    2.3700 N   0  0  0  0  0  0  0  0  0  0  0  0
   -0.2800    0.4600    2.4100 C   0  0  0  0  0  0  0  0  0  0  0  0
    0.5950    0.2950    1.4010 C   0  0  0  0  0  0  0  0  0  0  0  0
    1.8820    0.9480    1.4640 C   0  0  0  0  0  0  0  0  0  0  0  0
    2.7790    0.8340    0.5270 C   0  0  0  0  0  0  0  0  0  0  0  0
    2.5780    0.0550   -0.6510 C   0  0  0  0  0  0  0  0  0  0  0  0
    3.5010   -0.0470   -1.5910 C   0  0  0  0  0  0  0  0  0  0  0  0
    3.3550   -0.8420   -2.8420 C   0  0  0  0  0  0  0  0  0  0  0  0
    4.4460   -0.6980   -3.4950 N   0  0  0  0  0  0  0  0  0  0  0  0
    5.3350    0.1170   -2.8230 N   0  0  0  0  0  0  0  0  0  0  0  0
    4.8310    0.5240   -1.7040 C   0  0  0  0  0  0  0  0  0  0  0  0
    5.4730    1.3720   -0.7700 N   0  0  0  0  0  0  0  0  0  0  0  0
   -1.6230   -1.8390    0.8020 C   0  0  0  0  0  0  0  0  0  0  0  0
   -1.8370   -2.6360   -0.3320 N   0  0  0  0  0  0  0  0  0  0  0  0
   -0.8790   -2.4980    1.9040 N   0  0  0  0  0  0  0  0  0  0  0  0
  1  2  2  0
  2  3  1  0
  2  4  1  0
  4  5  2  0
  4  6  1  0
  6  7  1  0
  6 19  2  3
  7  8  1  0
  8  9  2  3
  9 10  1  0
 10 11  2  3
 11 12  1  0
 12 13  2  3
 13 14  1  0
 13 17  1  0
 14 15  2  0
 15 16  1  0
 16 17  2  0
 17 18  1  0
 19 20  1  0
 19 21  1  0
M  CHG  1   3   1
M  END
