
     RDKit          3D

 22 25  0  0  0  0  0  0  0  0999 V2000
    3.7720    1.8540   -0.1310 C   0  0  0  0  0  0  0  0  0  0  0  0
    3.2600    0.9420    0.9030 C   0  0  0  0  0  0  0  0  0  0  0  0
    3.6380    0.8140    2.2130 N   0  0  0  0  0  0  0  0  0  0  0  0
    2.8580   -0.0960    2.8270 N   0  0  0  0  0  0  0  0  0  0  0  0
    1.9900   -0.5640    1.9680 C   0  0  0  0  0  0  0  0  0  0  0  0
    2.2570    0.0900    0.7800 N   0  0  0  0  0  0  0  0  0  0  0  0
    1.5440   -0.1530   -0.4260 C   0  0  0  0  0  0  0  0  0  0  0  0
    2.3640   -0.0910   -1.5150 C   0  0  0  0  0  0  0  0  0  0  0  0
    1.7450   -0.3650   -2.7390 C   0  0  0  0  0  0  0  0  0  0  0  0
    0.4050   -0.6810   -2.8520 C   0  0  0  0  0  0  0  0  0  0  0  0
   -0.3470   -1.0150   -4.4230 Cl  0  0  0  0  0  0  0  0  0  0  0  0
   -0.3600   -0.7290   -1.7060 C   0  0  0  0  0  0  0  0  0  0  0  0
    0.2020   -0.4610   -0.4810 C   0  0  0  0  0  0  0  0  0  0  0  0
   -0.7490   -0.5680    0.6130 C   0  0  0  0  0  0  0  0  0  0  0  0
   -2.1110   -0.1610    0.3990 C   0  0  0  0  0  0  0  0  0  0  0  0
   -2.6630    0.4920   -0.6360 C   0  0  0  0  0  0  0  0  0  0  0  0
   -4.0170    0.7270   -0.7500 C   0  0  0  0  0  0  0  0  0  0  0  0
   -4.9100    0.2990    0.2180 C   0  0  0  0  0  0  0  0  0  0  0  0
   -4.3520   -0.3700    1.2860 C   0  0  0  0  0  0  0  0  0  0  0  0
   -3.0100   -0.6040    1.3960 C   0  0  0  0  0  0  0  0  0  0  0  0
   -0.3940   -1.0670    1.7890 N   0  0  0  0  0  0  0  0  0  0  0  0
    0.9050   -1.5720    2.2380 C   0  0  0  0  0  0  0  0  0  0  0  0
  1  2  1  0
  2  3  2  0
  2  6  1  0
  3  4  1  0
  4  5  2  0
  5  6  1  0
  5 22  1  0
  6  7  1  0
  7  8  2  0
  7 13  1  0
  8  9  1  0
  9 10  2  0
 10 11  1  0
 10 12  1  0
 12 13  2  0
 13 14  1  0
 14 15  1  0
 14 21  2  0
 15 16  2  0
 15 20  1  0
 16 17  1  0
 17 18  2  0
 18 19  1  0
 19 20  2  0
 21 22  1  0
M  END
