
     RDKit          3D

 21 22  0  0  0  0  0  0  0  0999 V2000
   -7.1800   -0.5900    0.1150 C   0  0  0  0  0  0  0  0  0  0  0  0
   -6.5570    0.7810   -0.2080 C   0  0  0  0  0  0  0  0  0  0  0  0
   -5.1520    0.5990   -0.6780 C   0  0  0  0  0  0  0  0  0  0  0  0
   -4.7170    0.9360   -1.8370 N   0  0  0  0  0  0  0  0  0  0  0  0
   -4.1690   -0.0100    0.2010 N   0  0  0  0  0  0  0  0  0  0  0  0
   -3.2670   -0.8720   -0.3950 N   0  0  0  0  0  0  0  0  0  0  0  0
   -1.8830   -0.7740   -0.1680 C   0  0  0  0  0  0  0  0  0  0  0  0
   -1.0070   -1.5000   -0.9560 C   0  0  0  0  0  0  0  0  0  0  0  0
    0.3560   -1.4810   -0.7750 C   0  0  0  0  0  0  0  0  0  0  0  0
    0.8340   -0.6950    0.2400 C   0  0  0  0  0  0  0  0  0  0  0  0
    2.2730   -0.6090    0.4890 C   0  0  0  0  0  0  0  0  0  0  0  0
    3.0980   -1.5600    0.1260 N   0  0  0  0  0  0  0  0  0  0  0  0
    4.4580   -1.4180    0.1570 C   0  0  0  0  0  0  0  0  0  0  0  0
    4.9270   -0.1990    0.5830 C   0  0  0  0  0  0  0  0  0  0  0  0
    6.3940    0.0840    0.7150 C   0  0  0  0  0  0  0  0  0  0  0  0
    6.9250   -0.0310   -0.6310 N   0  0  0  0  0  0  0  0  0  0  0  0
    4.0450    0.7860    0.9610 C   0  0  0  0  0  0  0  0  0  0  0  0
    4.5910    2.0780    1.2480 N   0  0  0  0  0  0  0  0  0  0  0  0
    2.7350    0.6080    0.9310 N   0  0  0  0  0  0  0  0  0  0  0  0
    0.0040    0.0320    1.0350 C   0  0  0  0  0  0  0  0  0  0  0  0
   -1.3710    0.0160    0.8630 C   0  0  0  0  0  0  0  0  0  0  0  0
  1  2  1  0
  2  3  1  0
  3  4  2  0
  3  5  1  0
  5  6  1  0
  6  7  1  0
  7  8  2  0
  7 21  1  0
  8  9  1  0
  9 10  2  0
 10 11  1  0
 10 20  1  0
 11 12  2  0
 11 19  1  0
 12 13  1  0
 13 14  2  0
 14 15  1  0
 14 17  1  0
 15 16  1  0
 17 18  1  0
 17 19  2  0
 20 21  2  0
M  CHG  2   4   1  16   1
M  END
