
     RDKit          3D

 28 30  0  0  0  0  0  0  0  0999 V2000
   -1.1730   -3.8090    0.0200 C   0  0  0  0  0  0  0  0  0  0  0  0
   -1.4100   -2.9710   -1.2190 C   0  0  0  0  0  0  0  0  0  0  0  0
   -1.7840   -1.5960   -0.8750 C   0  0  0  0  0  0  0  0  0  0  0  0
   -3.0370   -1.2630   -0.5470 N   0  0  0  0  0  0  0  0  0  0  0  0
   -3.0890   -0.0160   -0.2740 N   0  0  0  0  0  0  0  0  0  0  0  0
   -4.2260    0.5490    0.2470 C   0  0  0  0  0  0  0  0  0  0  0  0
   -5.2740   -0.4220    0.7440 C   0  0  0  0  0  0  0  0  0  0  0  0
   -5.1690   -1.5990    0.0420 O   0  0  0  0  0  0  0  0  0  0  0  0
   -4.5190    1.8540    0.4430 C   0  0  0  0  0  0  0  0  0  0  0  0
   -3.7610    2.9430    0.1980 C   0  0  0  0  0  0  0  0  0  0  0  0
   -4.3660    4.0510    0.0860 N   0  0  0  0  0  0  0  0  0  0  0  0
   -2.3570    2.9300   -0.0170 C   0  0  0  0  0  0  0  0  0  0  0  0
   -1.5760    1.9070   -0.5180 C   0  0  0  0  0  0  0  0  0  0  0  0
   -0.4870    2.2050   -1.4310 C   0  0  0  0  0  0  0  0  0  0  0  0
   -0.8790    3.8470   -2.1080 Cl  0  0  0  0  0  0  0  0  0  0  0  0
   -1.8420    0.5060   -0.4160 C   0  0  0  0  0  0  0  0  0  0  0  0
   -0.9320   -0.4570   -0.7900 C   0  0  0  0  0  0  0  0  0  0  0  0
    0.4710   -0.4140   -1.0820 C   0  0  0  0  0  0  0  0  0  0  0  0
    1.3400    0.0880    0.0440 N   0  0  2  0  0  0  0  0  0  0  0  0
    2.5670    0.5560   -0.4250 C   0  0  0  0  0  0  0  0  0  0  0  0
    3.7570   -0.3000   -0.6170 C   0  0  2  0  0  0  0  0  0  0  0  0
    4.6860   -0.3910    0.6120 C   0  0  0  0  0  0  0  0  0  0  0  0
    5.1650    1.0340    0.7580 C   0  0  0  0  0  0  0  0  0  0  0  0
    5.0060    1.5600   -0.6470 C   0  0  0  0  0  0  0  0  0  0  0  0
    4.6930    0.4350   -1.4090 O   0  0  0  0  0  0  0  0  0  0  0  0
    1.3040   -1.0400    0.9760 C   0  0  1  0  0  0  0  0  0  0  0  0
    1.8790   -2.3100    0.6320 C   0  0  0  0  0  0  0  0  0  0  0  0
    1.5800   -0.6930    2.3920 C   0  0  0  0  0  0  0  0  0  0  0  0
  1  2  1  0
  2  3  1  0
  3  4  2  0
  3 17  1  0
  4  5  1  0
  5  6  1  0
  5 16  1  0
  6  7  1  0
  6  9  2  0
  7  8  1  0
  9 10  1  0
 10 11  2  0
 10 12  1  0
 12 13  2  0
 13 14  1  0
 13 16  1  0
 14 15  1  0
 16 17  2  0
 17 18  1  0
 19 18  1  6
 19 20  1  0
 19 26  1  0
 21 20  1  1
 21 22  1  0
 21 25  1  0
 22 23  1  0
 23 24  1  0
 24 25  1  0
 26 27  1  6
 26 28  1  0
M  CHG  2  11   1  19   1
M  END
