
     RDKit          3D

 28 30  0  0  0  0  0  0  0  0999 V2000
   -3.1630   -0.9980    1.8380 C   0  0  0  0  0  0  0  0  0  0  0  0
   -3.2420   -1.2710    0.3780 C   0  0  2  0  0  0  0  0  0  0  0  0
   -2.6060   -0.1930   -0.4220 C   0  0  1  0  0  0  0  0  0  0  0  0
   -3.2210    1.1620   -0.2300 C   0  0  0  0  0  0  0  0  0  0  0  0
   -2.5560    2.1630   -1.0370 N   0  0  0  0  0  0  0  0  0  0  0  0
   -2.4230    3.4250   -0.3380 C   0  0  0  0  0  0  0  0  0  0  0  0
   -3.8020    4.0720   -0.2630 C   0  0  0  0  0  0  0  0  0  0  0  0
   -3.7280    5.6260    0.5810 Cl  0  0  0  0  0  0  0  0  0  0  0  0
   -1.2070   -0.1000   -0.0330 N   0  0  0  0  0  0  0  0  0  0  0  0
   -0.1400   -0.2610   -0.9350 C   0  0  0  0  0  0  0  0  0  0  0  0
   -0.4070   -0.4970   -2.1420 O   0  0  0  0  0  0  0  0  0  0  0  0
    1.2830   -0.1600   -0.5050 C   0  0  0  0  0  0  0  0  0  0  0  0
    1.4770    0.0750    0.7020 O   0  0  0  0  0  0  0  0  0  0  0  0
    2.3290   -0.3210   -1.4070 N   0  0  0  0  0  0  0  0  0  0  0  0
    3.7050   -0.2390   -1.0930 C   0  0  0  0  0  0  0  0  0  0  0  0
    4.6280   -0.6380   -2.0840 C   0  0  0  0  0  0  0  0  0  0  0  0
    5.9640   -0.5520   -1.7980 C   0  0  0  0  0  0  0  0  0  0  0  0
    6.4650   -0.1000   -0.6040 C   0  0  0  0  0  0  0  0  0  0  0  0
    7.8240   -0.0250   -0.3430 C   0  0  0  0  0  0  0  0  0  0  0  0
    8.2380    0.4480    0.9030 C   0  0  0  0  0  0  0  0  0  0  0  0
    7.3170    0.8230    1.8310 C   0  0  0  0  0  0  0  0  0  0  0  0
    6.0010    0.7440    1.5640 N   0  0  0  0  0  0  0  0  0  0  0  0
    5.5720    0.2910    0.3690 C   0  0  0  0  0  0  0  0  0  0  0  0
    4.1930    0.2140    0.1030 C   0  0  0  0  0  0  0  0  0  0  0  0
   -4.6910   -1.5120    0.0230 C   0  0  0  0  0  0  0  0  0  0  0  0
   -4.9220   -2.9160    0.5400 C   0  0  0  0  0  0  0  0  0  0  0  0
   -3.5860   -3.5700    0.6800 C   0  0  0  0  0  0  0  0  0  0  0  0
   -2.6240   -2.6030    0.0000 C   0  0  0  0  0  0  0  0  0  0  0  0
  2  1  1  1
  2  3  1  0
  2 25  1  0
  2 28  1  0
  3  4  1  1
  3  9  1  0
  4  5  1  0
  5  6  1  0
  6  7  1  0
  7  8  1  0
  9 10  1  0
 10 11  2  0
 10 12  1  0
 12 13  2  0
 12 14  1  0
 14 15  1  0
 15 16  2  0
 15 24  1  0
 16 17  1  0
 17 18  2  0
 18 19  1  0
 18 23  1  0
 19 20  2  0
 20 21  1  0
 21 22  2  0
 22 23  1  0
 23 24  2  0
 25 26  1  0
 26 27  1  0
 27 28  1  0
M  CHG  2   5   1  22   1
M  END
