
     RDKit          3D

 24 27  0  0  0  0  0  0  0  0999 V2000
   -7.2920    0.8790    0.3760 C   0  0  0  0  0  0  0  0  0  0  0  0
   -6.7460   -0.4950    0.0350 C   0  0  0  0  0  0  0  0  0  0  0  0
   -5.2650   -0.4060    0.1460 C   0  0  0  0  0  0  0  0  0  0  0  0
   -4.6110   -0.6710    1.3330 C   0  0  0  0  0  0  0  0  0  0  0  0
   -3.2390   -0.5990    1.4730 C   0  0  0  0  0  0  0  0  0  0  0  0
   -2.4970   -0.2470    0.3770 C   0  0  0  0  0  0  0  0  0  0  0  0
   -1.0160   -0.1440    0.4330 C   0  0  1  0  0  0  0  0  0  0  0  0
   -0.4730   -1.0550   -0.5970 C   0  0  0  0  0  0  0  0  0  0  0  0
    0.7800   -0.8290   -1.0230 C   0  0  0  0  0  0  0  0  0  0  0  0
    1.5290    0.2750   -0.4640 C   0  0  0  0  0  0  0  0  0  0  0  0
    2.8340    0.1740   -0.3080 C   0  0  0  0  0  0  0  0  0  0  0  0
    3.6350    1.1350    0.1990 N   0  0  0  0  0  0  0  0  0  0  0  0
    4.9200    0.7460    0.2450 C   0  0  0  0  0  0  0  0  0  0  0  0
    4.9480   -0.5330   -0.2590 C   0  0  0  0  0  0  0  0  0  0  0  0
    3.6560   -0.8950   -0.6050 C   0  0  0  0  0  0  0  0  0  0  0  0
    3.3120   -2.1550   -1.1560 N   0  0  0  0  0  0  0  0  0  0  0  0
    6.2130   -1.1830   -0.3200 N   0  0  0  0  0  0  0  0  0  0  0  0
    7.3790   -0.5050    0.1320 C   0  0  0  0  0  0  0  0  0  0  0  0
    7.3080    0.7170    0.6070 C   0  0  0  0  0  0  0  0  0  0  0  0
    6.0070    1.3760    0.6660 C   0  0  0  0  0  0  0  0  0  0  0  0
    0.8170    1.5070   -0.0660 C   0  0  0  0  0  0  0  0  0  0  0  0
   -0.6640    1.2990    0.1430 C   0  0  0  0  0  0  0  0  0  0  0  0
   -3.1210    0.0230   -0.8220 C   0  0  0  0  0  0  0  0  0  0  0  0
   -4.4810   -0.0500   -0.9540 C   0  0  0  0  0  0  0  0  0  0  0  0
  1  2  1  0
  2  3  1  0
  3  4  2  0
  3 24  1  0
  4  5  1  0
  5  6  2  0
  7  6  1  6
  6 23  1  0
  7  8  1  0
  7 22  1  0
  8  9  2  0
  9 10  1  0
 10 11  2  3
 10 21  1  0
 11 12  1  0
 11 15  1  0
 12 13  1  0
 13 14  1  0
 13 20  2  0
 14 15  2  0
 14 17  1  0
 15 16  1  0
 17 18  1  0
 18 19  2  0
 19 20  1  0
 21 22  1  0
 23 24  2  0
M  END
