
     RDKit          3D

 23 26  0  0  0  0  0  0  0  0999 V2000
   -4.0450   -0.9560    1.2140 C   0  0  0  0  0  0  0  0  0  0  0  0
   -3.3270    0.3110    1.0380 C   0  0  0  0  0  0  0  0  0  0  0  0
   -3.6600    1.5310    1.5770 N   0  0  0  0  0  0  0  0  0  0  0  0
   -2.7370    2.4400    1.2880 N   0  0  0  0  0  0  0  0  0  0  0  0
   -1.8060    1.8420    0.5710 C   0  0  0  0  0  0  0  0  0  0  0  0
   -2.1810    0.5310    0.4160 N   0  0  0  0  0  0  0  0  0  0  0  0
   -1.5080   -0.4730   -0.3530 C   0  0  0  0  0  0  0  0  0  0  0  0
   -2.3660   -1.3590   -0.9200 C   0  0  0  0  0  0  0  0  0  0  0  0
   -1.7790   -2.3340   -1.7370 C   0  0  0  0  0  0  0  0  0  0  0  0
   -0.4060   -2.3670   -1.9400 C   0  0  0  0  0  0  0  0  0  0  0  0
    0.2950   -3.6200   -2.9780 Cl  0  0  0  0  0  0  0  0  0  0  0  0
    0.4380   -1.4490   -1.3530 C   0  0  0  0  0  0  0  0  0  0  0  0
   -0.1280   -0.4900   -0.5450 C   0  0  0  0  0  0  0  0  0  0  0  0
    0.8980    0.4230   -0.0590 C   0  0  0  0  0  0  0  0  0  0  0  0
    2.2520   -0.0310    0.1550 C   0  0  0  0  0  0  0  0  0  0  0  0
    3.2730    0.9330    0.2130 C   0  0  0  0  0  0  0  0  0  0  0  0
    4.5620    0.5940    0.5140 C   0  0  0  0  0  0  0  0  0  0  0  0
    4.9430   -0.6960    0.7770 C   0  0  0  0  0  0  0  0  0  0  0  0
    3.9730   -1.6600    0.7310 C   0  0  0  0  0  0  0  0  0  0  0  0
    2.6530   -1.3090    0.4230 C   0  0  0  0  0  0  0  0  0  0  0  0
    0.6630    1.7030    0.2130 N   0  0  0  0  0  0  0  0  0  0  0  0
   -0.5630    2.4120    0.1090 N   0  0  0  0  0  0  0  0  0  0  0  0
   -0.6380    3.7400   -0.3970 C   0  0  0  0  0  0  0  0  0  0  0  0
  1  2  1  0
  2  3  2  0
  2  6  1  0
  3  4  1  0
  4  5  2  0
  5  6  1  0
  5 22  1  0
  6  7  1  0
  7  8  2  0
  7 13  1  0
  8  9  1  0
  9 10  2  0
 10 11  1  0
 10 12  1  0
 12 13  2  0
 13 14  1  0
 14 15  1  0
 14 21  2  0
 15 16  2  0
 15 20  1  0
 16 17  1  0
 17 18  2  0
 18 19  1  0
 19 20  2  0
 21 22  1  0
 22 23  1  0
M  END
