
     RDKit          3D

 24 27  0  0  0  0  0  0  0  0999 V2000
   -0.9020   -1.7010   -2.6800 C   0  0  0  0  0  0  0  0  0  0  0  0
   -1.1940   -1.1760   -1.3210 C   0  0  0  0  0  0  0  0  0  0  0  0
   -0.1600   -1.1410   -0.4150 C   0  0  0  0  0  0  0  0  0  0  0  0
   -0.3700   -0.6610    0.8720 C   0  0  0  0  0  0  0  0  0  0  0  0
    0.6890   -0.6400    1.8190 N   0  0  0  0  0  0  0  0  0  0  0  0
    2.0220   -1.0390    1.3200 C   0  0  0  0  0  0  0  0  0  0  0  0
    2.5130   -0.0250    0.3250 C   0  0  0  0  0  0  0  0  0  0  0  0
    1.8770    1.1360   -0.0920 C   0  0  0  0  0  0  0  0  0  0  0  0
    2.6630    1.7610   -0.9850 N   0  0  0  0  0  0  0  0  0  0  0  0
    3.7830    1.0360   -1.1550 C   0  0  0  0  0  0  0  0  0  0  0  0
    4.8970    1.2610   -1.9690 C   0  0  0  0  0  0  0  0  0  0  0  0
    5.9200    0.3260   -1.9370 C   0  0  0  0  0  0  0  0  0  0  0  0
    5.8310   -0.7820   -1.1270 C   0  0  0  0  0  0  0  0  0  0  0  0
    4.7380   -1.0120   -0.3210 C   0  0  0  0  0  0  0  0  0  0  0  0
    3.7100   -0.0680   -0.3560 C   0  0  0  0  0  0  0  0  0  0  0  0
   -1.6340   -0.2090    1.2610 C   0  0  0  0  0  0  0  0  0  0  0  0
   -1.8810    0.2740    2.5260 C   0  0  0  0  0  0  0  0  0  0  0  0
   -3.1670    0.7190    2.8730 C   0  0  0  0  0  0  0  0  0  0  0  0
   -4.1840    0.6760    1.9560 C   0  0  0  0  0  0  0  0  0  0  0  0
   -5.5100    1.1050    2.2260 N   0  0  0  0  0  0  0  0  0  0  0  0
   -3.9160    0.1890    0.6960 C   0  0  0  0  0  0  0  0  0  0  0  0
   -5.0030    0.1290   -0.3230 C   0  0  0  0  0  0  0  0  0  0  0  0
   -2.6580   -0.2630    0.3060 C   0  0  0  0  0  0  0  0  0  0  0  0
   -2.4500   -0.7400   -0.9720 C   0  0  0  0  0  0  0  0  0  0  0  0
  1  2  1  0
  2  3  2  0
  2 24  1  0
  3  4  1  0
  4  5  1  0
  4 16  2  0
  5  6  1  0
  6  7  1  0
  7  8  2  0
  7 15  1  0
  8  9  1  0
  9 10  1  0
 10 11  2  0
 10 15  1  0
 11 12  1  0
 12 13  2  0
 13 14  1  0
 14 15  2  0
 16 17  1  0
 16 23  1  0
 17 18  2  0
 18 19  1  0
 19 20  1  0
 19 21  2  0
 21 22  1  0
 21 23  1  0
 23 24  2  0
M  END
