
     RDKit          3D

 24 27  0  0  0  0  0  0  0  0999 V2000
    1.7080   -2.9020    0.7210 C   0  0  0  0  0  0  0  0  0  0  0  0
    0.2350   -2.7190    0.4510 C   0  0  0  0  0  0  0  0  0  0  0  0
   -0.5890   -3.7340    0.7430 C   0  0  0  0  0  0  0  0  0  0  0  0
   -2.0430   -3.7330    0.5390 C   0  0  0  0  0  0  0  0  0  0  0  0
   -2.5530   -2.3970    0.3470 N   0  0  0  0  0  0  0  0  0  0  0  0
   -1.7070   -1.3180   -0.0060 C   0  0  0  0  0  0  0  0  0  0  0  0
   -2.2800   -0.1360   -0.3560 C   0  0  0  0  0  0  0  0  0  0  0  0
   -1.4610    0.9540   -0.6640 C   0  0  0  0  0  0  0  0  0  0  0  0
   -0.1190    0.8380   -0.6230 C   0  0  0  0  0  0  0  0  0  0  0  0
    0.5220   -0.3710   -0.2690 C   0  0  0  0  0  0  0  0  0  0  0  0
    1.9050   -0.4850   -0.4340 N   0  0  0  0  0  0  0  0  0  0  0  0
    2.7760    0.5850   -0.1150 C   0  0  0  0  0  0  0  0  0  0  0  0
    2.4270    1.6500    0.6710 C   0  0  0  0  0  0  0  0  0  0  0  0
    3.3340    2.6460    0.9990 C   0  0  0  0  0  0  0  0  0  0  0  0
    4.6290    2.6160    0.5540 C   0  0  0  0  0  0  0  0  0  0  0  0
    5.0110    1.5620   -0.2340 C   0  0  0  0  0  0  0  0  0  0  0  0
    4.1080    0.5760   -0.5580 C   0  0  0  0  0  0  0  0  0  0  0  0
    4.4880   -0.5340   -1.3830 N   0  0  0  0  0  0  0  0  0  0  0  0
   -0.2990   -1.4340    0.0380 C   0  0  0  0  0  0  0  0  0  0  0  0
   -1.9930    2.3180   -1.0300 C   0  0  0  0  0  0  0  0  0  0  0  0
   -2.8650    2.7120    0.1400 C   0  0  0  0  0  0  0  0  0  0  0  0
   -4.2710    2.2680    0.0790 C   0  0  0  0  0  0  0  0  0  0  0  0
   -4.5160    0.8570   -0.2240 C   0  0  0  0  0  0  0  0  0  0  0  0
   -3.7430   -0.1970   -0.4180 C   0  0  0  0  0  0  0  0  0  0  0  0
  1  2  1  0
  2  3  2  0
  2 19  1  0
  3  4  1  0
  4  5  1  0
  5  6  1  0
  6  7  2  0
  6 19  1  0
  7  8  1  0
  7 24  1  0
  8  9  2  0
  8 20  1  0
  9 10  1  0
 10 11  1  0
 10 19  2  0
 11 12  1  0
 12 13  2  0
 12 17  1  0
 13 14  1  0
 14 15  2  0
 15 16  1  0
 16 17  2  0
 17 18  1  0
 20 21  1  0
 21 22  1  0
 22 23  1  0
 23 24  2  0
M  END
