
     RDKit          3D

 24 27  0  0  0  0  0  0  0  0999 V2000
   -3.8540    3.5200    1.9340 C   0  0  0  0  0  0  0  0  0  0  0  0
   -3.2260    2.8210    0.9970 C   0  0  0  0  0  0  0  0  0  0  0  0
   -2.9740    3.3870   -0.2320 C   0  0  0  0  0  0  0  0  0  0  0  0
   -2.3270    2.6610   -1.2110 C   0  0  0  0  0  0  0  0  0  0  0  0
   -1.9100    1.3370   -0.9870 C   0  0  0  0  0  0  0  0  0  0  0  0
   -2.1870    0.8250    0.2590 C   0  0  0  0  0  0  0  0  0  0  0  0
   -2.8330    1.5220    1.2660 C   0  0  0  0  0  0  0  0  0  0  0  0
   -1.7540   -0.5910    0.5520 C   0  0  0  0  0  0  0  0  0  0  0  0
   -0.6510   -1.0470   -0.3190 C   0  0  2  0  0  0  0  0  0  0  0  0
   -0.5160   -2.5620   -0.1450 C   0  0  0  0  0  0  0  0  0  0  0  0
   -1.7090   -3.3530   -0.5410 C   0  0  0  0  0  0  0  0  0  0  0  0
   -1.3600   -4.8250   -0.2740 C   0  0  0  0  0  0  0  0  0  0  0  0
    0.7170   -0.5400    0.0460 C   0  0  0  0  0  0  0  0  0  0  0  0
    1.3490    0.4980   -0.5190 N   0  0  0  0  0  0  0  0  0  0  0  0
    2.5790    0.6620    0.0070 C   0  0  0  0  0  0  0  0  0  0  0  0
    3.5760    1.5720   -0.2630 C   0  0  0  0  0  0  0  0  0  0  0  0
    4.7970    1.5470    0.4100 C   0  0  0  0  0  0  0  0  0  0  0  0
    5.8340    2.4680    0.1410 N   0  0  0  0  0  0  0  0  0  0  0  0
    4.9350    0.5430    1.3690 C   0  0  0  0  0  0  0  0  0  0  0  0
    3.9350   -0.3700    1.6410 C   0  0  0  0  0  0  0  0  0  0  0  0
    2.7260   -0.3180    0.9490 C   0  0  0  0  0  0  0  0  0  0  0  0
    1.5820   -1.0370    0.9570 N   0  0  0  0  0  0  0  0  0  0  0  0
   -0.8540   -0.7110   -1.7670 C   0  0  0  0  0  0  0  0  0  0  0  0
   -1.3050    0.6700   -1.9420 C   0  0  0  0  0  0  0  0  0  0  0  0
  1  2  2  0
  2  3  1  0
  2  7  1  0
  3  4  2  0
  4  5  1  0
  5  6  1  0
  5 24  2  0
  6  7  2  0
  6  8  1  0
  8  9  1  0
  9 10  1  6
  9 13  1  0
  9 23  1  0
 10 11  1  0
 11 12  1  0
 13 14  2  0
 13 22  1  0
 14 15  1  0
 15 16  2  0
 15 21  1  0
 16 17  1  0
 17 18  1  0
 17 19  2  0
 19 20  1  0
 20 21  2  0
 21 22  1  0
 23 24  1  0
M  END
