
     RDKit          3D

 23 26  0  0  0  0  0  0  0  0999 V2000
    2.5610    1.4750    2.5180 C   0  0  0  0  0  0  0  0  0  0  0  0
    3.0560    0.1120    2.3370 C   0  0  0  0  0  0  0  0  0  0  0  0
    2.8120   -0.7110    1.3550 C   0  0  0  0  0  0  0  0  0  0  0  0
    3.3310   -2.1220    1.1760 C   0  0  1  0  0  0  0  0  0  0  0  0
    1.9550   -3.2070    1.2610 Cl  0  0  0  0  0  0  0  0  0  0  0  0
    3.7730   -1.9620   -0.2870 C   0  0  0  0  0  0  0  0  0  0  0  0
    2.5110   -1.3870   -0.8780 C   0  0  0  0  0  0  0  0  0  0  0  0
    2.0080   -0.5380    0.1910 N   0  0  0  0  0  0  0  0  0  0  0  0
    0.8660    0.3210    0.0300 C   0  0  0  0  0  0  0  0  0  0  0  0
   -0.3410   -0.4580   -0.3900 C   0  0  0  0  0  0  0  0  0  0  0  0
   -0.4850   -1.7600   -0.6180 N   0  0  0  0  0  0  0  0  0  0  0  0
   -1.7430   -2.0520   -0.9790 C   0  0  0  0  0  0  0  0  0  0  0  0
   -2.3430   -3.3630   -1.3240 C   0  0  0  0  0  0  0  0  0  0  0  0
   -2.4110   -0.8620   -0.9720 N   0  0  0  0  0  0  0  0  0  0  0  0
   -3.6820   -0.5690   -1.2500 N   0  0  0  0  0  0  0  0  0  0  0  0
   -4.1740    0.6790   -1.1900 C   0  0  0  0  0  0  0  0  0  0  0  0
   -3.3180    1.6950   -0.8250 C   0  0  0  0  0  0  0  0  0  0  0  0
   -3.7620    3.0030   -0.7440 C   0  0  0  0  0  0  0  0  0  0  0  0
   -2.8600    3.9650   -0.3740 C   0  0  0  0  0  0  0  0  0  0  0  0
   -1.5460    3.6650   -0.0870 C   0  0  0  0  0  0  0  0  0  0  0  0
   -1.1300    2.3950   -0.1690 N   0  0  0  0  0  0  0  0  0  0  0  0
   -1.9930    1.4470   -0.5270 C   0  0  0  0  0  0  0  0  0  0  0  0
   -1.5600    0.1170   -0.6130 C   0  0  0  0  0  0  0  0  0  0  0  0
  1  2  1  0
  2  3  2  3
  3  4  1  0
  3  8  1  0
  4  5  1  6
  4  6  1  0
  6  7  1  0
  7  8  1  0
  8  9  1  0
  9 10  1  0
 10 11  1  0
 10 23  2  0
 11 12  2  0
 12 13  1  0
 12 14  1  0
 14 15  1  0
 14 23  1  0
 15 16  2  0
 16 17  1  0
 17 18  2  0
 17 22  1  0
 18 19  1  0
 19 20  2  0
 20 21  1  0
 21 22  2  0
 22 23  1  0
M  END
