
     RDKit          3D

 23 26  0  0  0  0  0  0  0  0999 V2000
   -6.2550    1.6370   -2.0190 C   0  0  0  0  0  0  0  0  0  0  0  0
   -5.0710    1.0800   -1.2990 C   0  0  0  0  0  0  0  0  0  0  0  0
   -5.1790    0.5650   -0.0240 C   0  0  0  0  0  0  0  0  0  0  0  0
   -4.0790    0.0380    0.6680 C   0  0  0  0  0  0  0  0  0  0  0  0
   -2.8430    0.0240    0.0720 C   0  0  0  0  0  0  0  0  0  0  0  0
   -1.6290   -0.5000    0.6980 C   0  0  0  0  0  0  0  0  0  0  0  0
   -1.6410   -1.0310    1.9640 C   0  0  0  0  0  0  0  0  0  0  0  0
   -0.4720   -1.5270    2.5470 C   0  0  0  0  0  0  0  0  0  0  0  0
    0.6450   -1.4570    1.8120 N   0  0  0  0  0  0  0  0  0  0  0  0
    0.6910   -0.9430    0.5700 C   0  0  0  0  0  0  0  0  0  0  0  0
    1.9250   -0.9030   -0.1540 N   0  0  0  0  0  0  0  0  0  0  0  0
    2.0430   -0.3720   -1.4740 C   0  0  0  0  0  0  0  0  0  0  0  0
    3.1450    0.6110   -1.6510 C   0  0  0  0  0  0  0  0  0  0  0  0
    4.0740    0.6930   -0.4790 C   0  0  0  0  0  0  0  0  0  0  0  0
    4.9430    1.5930   -0.2570 N   0  0  0  0  0  0  0  0  0  0  0  0
    5.6170    1.3060    0.9630 C   0  0  0  0  0  0  0  0  0  0  0  0
    4.9980    0.0560    1.4510 C   0  0  0  0  0  0  0  0  0  0  0  0
    5.3810   -0.8400    2.9220 Cl  0  0  0  0  0  0  0  0  0  0  0  0
    4.0810   -0.2910    0.5770 C   0  0  0  0  0  0  0  0  0  0  0  0
    3.1200   -1.4250    0.4770 C   0  0  0  0  0  0  0  0  0  0  0  0
   -0.4470   -0.4720    0.0300 N   0  0  0  0  0  0  0  0  0  0  0  0
   -2.7760    0.5520   -1.2150 C   0  0  0  0  0  0  0  0  0  0  0  0
   -3.8470    1.0520   -1.8580 N   0  0  0  0  0  0  0  0  0  0  0  0
  1  2  1  0
  2  3  2  0
  2 23  1  0
  3  4  1  0
  4  5  2  0
  5  6  1  0
  5 22  1  0
  6  7  2  0
  6 21  1  0
  7  8  1  0
  8  9  2  0
  9 10  1  0
 10 11  1  0
 10 21  2  0
 11 12  1  0
 11 20  1  0
 12 13  1  0
 13 14  1  0
 14 15  2  0
 14 19  1  0
 15 16  1  0
 16 17  1  0
 17 18  1  0
 17 19  2  0
 19 20  1  0
 22 23  2  0
M  END
