
     RDKit          3D

 40 43  0  0  0  0  0  0  0  0999 V2000
    9.9810    0.7820   -0.1600 C   0  0  0  0  0  0  0  0  0  0  0  0
    8.7460    0.2050    0.4000 C   0  0  0  0  0  0  0  0  0  0  0  0
    7.5180    0.6330    0.0600 C   0  0  0  0  0  0  0  0  0  0  0  0
    6.3370    0.0730    0.6040 N   0  0  0  0  0  0  0  0  0  0  0  0
    5.0840    0.7620    0.4410 C   0  0  0  0  0  0  0  0  0  0  0  0
    5.0410    2.0700    0.0040 C   0  0  0  0  0  0  0  0  0  0  0  0
    3.8340    2.7110   -0.1650 C   0  0  0  0  0  0  0  0  0  0  0  0
    2.6100    2.0790    0.0930 C   0  0  0  0  0  0  0  0  0  0  0  0
    2.6410    0.7820    0.5260 C   0  0  0  0  0  0  0  0  0  0  0  0
    1.4950    0.0920    0.7910 O   0  0  0  0  0  0  0  0  0  0  0  0
    0.2140    0.5710    0.5990 C   0  0  0  0  0  0  0  0  0  0  0  0
   -0.0850    0.7050   -0.8720 C   0  0  0  0  0  0  0  0  0  0  0  0
   -0.0250   -0.6910   -1.4720 C   0  0  0  0  0  0  0  0  0  0  0  0
   -1.1240   -1.8630   -0.8010 S   0  0  0  0  0  0  0  0  0  0  0  0
   -2.8790   -1.7230   -1.0870 C   0  0  1  0  0  0  0  0  0  0  0  0
   -3.5940   -0.6620   -0.3820 C   0  0  0  0  0  0  0  0  0  0  0  0
   -3.3530    0.5810   -0.5830 O   0  0  0  0  0  0  0  0  0  0  0  0
   -4.6070   -0.9680    0.5800 N   0  0  0  0  0  0  0  0  0  0  0  0
   -5.0390   -2.3030    0.8240 C   0  0  0  0  0  0  0  0  0  0  0  0
   -6.2130   -2.7350   -0.0400 C   0  0  2  0  0  0  0  0  0  0  0  0
   -5.9210   -2.6760   -1.3890 O   0  0  0  0  0  0  0  0  0  0  0  0
   -7.3200   -1.9050    0.2010 F   0  0  0  0  0  0  0  0  0  0  0  0
   -5.2150    0.1070    1.3060 C   0  0  0  0  0  0  0  0  0  0  0  0
   -5.2670    0.0690    2.6800 C   0  0  0  0  0  0  0  0  0  0  0  0
   -5.8630    1.1180    3.3900 C   0  0  0  0  0  0  0  0  0  0  0  0
   -6.3970    2.1890    2.7200 C   0  0  0  0  0  0  0  0  0  0  0  0
   -6.3460    2.2300    1.3460 C   0  0  0  0  0  0  0  0  0  0  0  0
   -6.9190    3.3860    0.6250 C   0  0  0  0  0  0  0  0  0  0  0  0
   -5.7530    1.1840    0.6390 C   0  0  0  0  0  0  0  0  0  0  0  0
   -3.1190   -1.5350   -2.5930 C   0  0  0  0  0  0  0  0  0  0  0  0
   -3.5020   -2.4910   -3.4490 C   0  0  0  0  0  0  0  0  0  0  0  0
   -3.6890   -2.2490   -4.7590 C   0  0  0  0  0  0  0  0  0  0  0  0
   -3.2910   -0.4560   -4.8680 S   0  0  0  0  0  0  0  0  0  0  0  0
   -2.9210   -0.2710   -3.1130 C   0  0  0  0  0  0  0  0  0  0  0  0
    3.8880    0.1580    0.6890 C   0  0  0  0  0  0  0  0  0  0  0  0
    6.4290   -1.1770    1.3100 C   0  0  0  0  0  0  0  0  0  0  0  0
    7.6470   -1.1230    2.2100 C   0  0  2  0  0  0  0  0  0  0  0  0
    7.4930    0.0110    3.0290 O   0  0  0  0  0  0  0  0  0  0  0  0
    8.8270   -0.8750    1.3590 C   0  0  0  0  0  0  0  0  0  0  0  0
    9.8450   -1.5820    1.4800 O   0  0  0  0  0  0  0  0  0  0  0  0
  1  2  1  0
  2  3  2  0
  2 39  1  0
  3  4  1  0
  4  5  1  0
  4 36  1  0
  5  6  2  0
  5 35  1  0
  6  7  1  0
  7  8  2  0
  8  9  1  0
  9 10  1  0
  9 35  2  0
 10 11  1  0
 11 12  1  0
 12 13  1  0
 13 14  1  0
 15 14  1  6
 15 16  1  0
 15 30  1  0
 16 17  2  0
 16 18  1  0
 18 19  1  0
 18 23  1  0
 19 20  1  0
 20 21  1  6
 20 22  1  0
 23 24  2  0
 23 29  1  0
 24 25  1  0
 25 26  2  0
 26 27  1  0
 27 28  1  0
 27 29  2  0
 30 31  1  0
 30 34  2  0
 31 32  2  0
 32 33  1  0
 33 34  1  0
 36 37  1  0
 37 38  1  1
 37 39  1  0
 39 40  2  0
M  END
