
     RDKit          3D

 40 43  0  0  0  0  0  0  0  0999 V2000
    3.4990   -5.9320    0.4950 C   0  0  0  0  0  0  0  0  0  0  0  0
    2.2400   -5.9430   -0.3440 C   0  0  0  0  0  0  0  0  0  0  0  0
    1.8470   -4.5410   -0.6550 C   0  0  0  0  0  0  0  0  0  0  0  0
    1.0110   -3.8100    0.1510 C   0  0  0  0  0  0  0  0  0  0  0  0
    0.6720   -2.4970   -0.1870 C   0  0  0  0  0  0  0  0  0  0  0  0
    1.1320   -1.8590   -1.3080 C   0  0  0  0  0  0  0  0  0  0  0  0
    0.8440   -0.4930   -1.7340 C   0  0  2  0  0  0  0  0  0  0  0  0
    1.7570    0.5300   -1.0810 C   0  0  0  0  0  0  0  0  0  0  0  0
    2.3710    1.3400   -1.8200 O   0  0  0  0  0  0  0  0  0  0  0  0
    1.9430    0.6050    0.3080 N   0  0  0  0  0  0  0  0  0  0  0  0
    2.7500    1.5030    1.0370 C   0  0  0  0  0  0  0  0  0  0  0  0
    2.9040    1.3260    2.4250 C   0  0  0  0  0  0  0  0  0  0  0  0
    3.6710    2.1770    3.1710 C   0  0  0  0  0  0  0  0  0  0  0  0
    4.3240    3.2390    2.6080 C   0  0  0  0  0  0  0  0  0  0  0  0
    4.1960    3.4430    1.2580 C   0  0  0  0  0  0  0  0  0  0  0  0
    3.4120    2.5720    0.4990 C   0  0  0  0  0  0  0  0  0  0  0  0
    4.9800    4.6270    0.9040 C   0  0  0  0  0  0  0  0  0  0  0  0
    5.5650    5.0760    2.1860 C   0  0  0  0  0  0  0  0  0  0  0  0
    6.3310    6.0790    2.3840 O   0  0  0  0  0  0  0  0  0  0  0  0
    5.1370    4.2060    3.1710 O   0  0  0  0  0  0  0  0  0  0  0  0
   -0.5580   -0.0480   -1.8350 C   0  0  1  0  0  0  0  0  0  0  0  0
   -1.2680   -0.9640   -2.8110 C   0  0  0  0  0  0  0  0  0  0  0  0
   -1.2790    0.2900   -0.6640 N   0  0  0  0  0  0  0  0  0  0  0  0
   -2.6100    0.8090   -0.7330 C   0  0  0  0  0  0  0  0  0  0  0  0
   -3.0090    1.2650   -1.9960 C   0  0  0  0  0  0  0  0  0  0  0  0
   -4.2230    1.9000   -2.1130 C   0  0  0  0  0  0  0  0  0  0  0  0
   -4.7100    2.4680   -3.7060 S   0  0  2  0  0  0  0  0  0  0  0  0
   -5.6600    3.6060   -3.5850 O   0  0  0  0  0  0  0  0  0  0  0  0
   -5.2850    1.3130   -4.4630 O   0  0  0  0  0  0  0  0  0  0  0  0
   -5.0390    2.0910   -1.0310 C   0  0  0  0  0  0  0  0  0  0  0  0
   -4.6380    1.6300    0.2290 C   0  0  0  0  0  0  0  0  0  0  0  0
   -5.5460    1.7930    1.3760 C   0  0  0  0  0  0  0  0  0  0  0  0
   -3.4280    0.9880    0.3870 C   0  0  0  0  0  0  0  0  0  0  0  0
   -3.0740    0.3690    1.6520 C   0  0  0  0  0  0  0  0  0  0  0  0
   -2.4190   -0.9990    1.5810 C   0  0  0  0  0  0  0  0  0  0  0  0
   -3.3350    0.7660    2.8540 C   0  0  0  0  0  0  0  0  0  0  0  0
   -2.7920   -0.1830    4.2960 S   0  0  0  0  0  0  0  0  0  0  0  0
   -3.7290    0.1700    5.6590 F   0  0  0  0  0  0  0  0  0  0  0  0
    1.9850   -2.6470   -2.1030 C   0  0  0  0  0  0  0  0  0  0  0  0
    2.3220   -3.9370   -1.7790 C   0  0  0  0  0  0  0  0  0  0  0  0
  1  2  1  0
  2  3  1  0
  3  4  2  0
  3 40  1  0
  4  5  1  0
  5  6  2  0
  6  7  1  0
  6 39  1  0
  7  8  1  1
  7 21  1  0
  8  9  2  0
  8 10  1  0
 10 11  1  0
 11 12  2  0
 11 16  1  0
 12 13  1  0
 13 14  2  0
 14 15  1  0
 14 20  1  0
 15 16  2  0
 15 17  1  0
 17 18  1  0
 18 19  2  0
 18 20  1  0
 21 22  1  1
 21 23  1  0
 23 24  1  0
 24 25  2  0
 24 33  1  0
 25 26  1  0
 27 26  1  1
 26 30  2  0
 27 28  2  0
 27 29  2  0
 30 31  1  0
 31 32  1  0
 31 33  2  0
 33 34  1  0
 34 35  1  0
 34 36  2  3
 36 37  1  0
 37 38  1  0
 39 40  2  0
M  END
