
     RDKit          3D

 40 43  0  0  0  0  0  0  0  0999 V2000
    6.7430   -1.3250    2.5940 C   0  0  0  0  0  0  0  0  0  0  0  0
    6.8700   -2.8040    2.6110 C   0  0  0  0  0  0  0  0  0  0  0  0
    6.1470   -3.5610    1.5600 C   0  0  0  0  0  0  0  0  0  0  0  0
    6.5520   -3.2410    0.2210 N   0  0  0  0  0  0  0  0  0  0  0  0
    6.2280   -1.9630   -0.3270 C   0  0  0  0  0  0  0  0  0  0  0  0
    4.9530   -1.5700   -0.3800 C   0  0  0  0  0  0  0  0  0  0  0  0
    4.4800   -0.3140   -0.9050 C   0  0  0  0  0  0  0  0  0  0  0  0
    3.0670   -0.0450   -0.9900 N   0  0  0  0  0  0  0  0  0  0  0  0
    2.0730   -0.9080   -0.5010 C   0  0  0  0  0  0  0  0  0  0  0  0
    2.3430   -1.9790    0.0510 O   0  0  0  0  0  0  0  0  0  0  0  0
    0.6120   -0.5340   -0.6440 C   0  0  0  0  0  0  0  0  0  0  0  0
   -0.3670   -1.8060    0.0660 S   0  0  2  0  0  0  0  0  0  0  0  0
    0.0020   -1.9230    1.5420 O   0  0  0  0  0  0  0  0  0  0  0  0
   -0.0600   -3.1540   -0.5200 O   0  0  0  0  0  0  0  0  0  0  0  0
   -2.0870   -1.4660   -0.0440 C   0  0  0  0  0  0  0  0  0  0  0  0
   -2.4760   -0.2000    0.6680 C   0  0  0  0  0  0  0  0  0  0  0  0
   -3.9510    0.0440    0.5590 C   0  0  0  0  0  0  0  0  0  0  0  0
   -4.2940    0.8060   -0.3930 O   0  0  0  0  0  0  0  0  0  0  0  0
   -4.8940   -0.5510    1.4700 C   0  0  0  0  0  0  0  0  0  0  0  0
   -6.1950   -0.4310    1.4820 C   0  0  0  0  0  0  0  0  0  0  0  0
   -7.0870    0.3270    0.5880 C   0  0  0  0  0  0  0  0  0  0  0  0
   -8.0250    1.2130    1.1200 C   0  0  0  0  0  0  0  0  0  0  0  0
   -8.9110    1.9270    0.3530 C   0  0  0  0  0  0  0  0  0  0  0  0
   -8.8900    1.7760   -1.0190 C   0  0  0  0  0  0  0  0  0  0  0  0
   -9.8150    2.5140   -1.9270 C   0  0  0  0  0  0  0  0  0  0  0  0
   -7.9720    0.9060   -1.5600 C   0  0  0  0  0  0  0  0  0  0  0  0
   -7.0690    0.1780   -0.7720 C   0  0  0  0  0  0  0  0  0  0  0  0
   -6.7240   -1.1840    2.5600 O   0  0  0  0  0  0  0  0  0  0  0  0
   -5.6940   -1.4840    3.4630 C   0  0  0  0  0  0  0  0  0  0  0  0
   -4.4660   -1.4500    2.6010 C   0  0  0  0  0  0  0  0  0  0  0  0
    5.2800    0.6120   -1.4030 C   0  0  0  0  0  0  0  0  0  0  0  0
    4.6760    1.8820   -1.9100 C   0  0  0  0  0  0  0  0  0  0  0  0
    4.9280    2.2570   -3.2120 C   0  0  0  0  0  0  0  0  0  0  0  0
    4.4390    3.4410   -3.7190 C   0  0  0  0  0  0  0  0  0  0  0  0
    3.6910    4.2700   -2.9310 C   0  0  0  0  0  0  0  0  0  0  0  0
    3.1850    5.4490   -3.3950 F   0  0  0  0  0  0  0  0  0  0  0  0
    3.4360    3.8970   -1.6220 C   0  0  0  0  0  0  0  0  0  0  0  0
    3.9260    2.7130   -1.1190 C   0  0  0  0  0  0  0  0  0  0  0  0
    6.7460    0.5780   -1.5400 C   0  0  0  0  0  0  0  0  0  0  0  0
    7.5150   -0.9170   -0.9470 S   0  0  0  0  0  0  0  0  0  0  0  0
  1  2  1  0
  2  3  1  0
  3  4  1  0
  4  5  1  0
  5  6  2  0
  5 40  1  0
  6  7  1  0
  7  8  1  0
  7 31  2  0
  8  9  1  0
  9 10  2  0
  9 11  1  0
 12 11  1  6
 12 13  2  0
 12 14  2  0
 12 15  1  0
 15 16  1  0
 16 17  1  0
 17 18  2  0
 17 19  1  0
 19 20  2  0
 19 30  1  0
 20 21  1  0
 20 28  1  0
 21 22  2  0
 21 27  1  0
 22 23  1  0
 23 24  2  0
 24 25  1  0
 24 26  1  0
 26 27  2  0
 28 29  1  0
 29 30  1  0
 31 32  1  0
 31 39  1  0
 32 33  2  0
 32 38  1  0
 33 34  1  0
 34 35  2  0
 35 36  1  0
 35 37  1  0
 37 38  2  0
 39 40  1  0
M  END
