
     RDKit          3D

 40 43  0  0  0  0  0  0  0  0999 V2000
    4.5470    0.1630   -0.3970 C   0  0  0  0  0  0  0  0  0  0  0  0
    4.6510   -1.2500   -0.0110 C   0  0  0  0  0  0  0  0  0  0  0  0
    3.6370   -1.9970    0.2800 C   0  0  0  0  0  0  0  0  0  0  0  0
    2.2480   -1.6990    0.3110 C   0  0  0  0  0  0  0  0  0  0  0  0
    1.4820   -2.6900    0.6330 O   0  0  0  0  0  0  0  0  0  0  0  0
    1.5520   -0.5030    0.0500 N   0  0  0  0  0  0  0  0  0  0  0  0
    0.1350   -0.5270    0.1540 C   0  0  0  0  0  0  0  0  0  0  0  0
   -0.5780    0.7260   -0.1820 C   0  0  0  0  0  0  0  0  0  0  0  0
    0.1500    1.8250   -0.5630 C   0  0  0  0  0  0  0  0  0  0  0  0
   -0.7600    3.2380   -0.9540 S   0  0  0  0  0  0  0  0  0  0  0  0
   -2.4330    3.0080   -0.7930 C   0  0  0  0  0  0  0  0  0  0  0  0
   -3.3040    3.9060   -1.0240 O   0  0  0  0  0  0  0  0  0  0  0  0
   -2.8060    1.7340   -0.3770 C   0  0  0  0  0  0  0  0  0  0  0  0
   -4.1990    1.5670   -0.2610 C   0  0  0  0  0  0  0  0  0  0  0  0
   -4.7900    0.3940    0.1260 C   0  0  0  0  0  0  0  0  0  0  0  0
   -6.1790    0.1760    0.2460 N   0  0  0  0  0  0  0  0  0  0  0  0
   -6.8790   -1.0130   -0.2740 C   0  0  0  0  0  0  0  0  0  0  0  0
   -7.7980   -1.3520    0.9000 C   0  0  0  0  0  0  0  0  0  0  0  0
   -8.1830   -0.0060    1.4930 C   0  0  2  0  0  0  0  0  0  0  0  0
   -9.8960    0.3690    1.3880 S   0  0  0  0  0  0  0  0  0  0  0  0
  -10.6040    0.5500   -0.2280 C   0  0  2  0  0  0  0  0  0  0  0  0
  -10.6220   -0.7450   -1.0220 C   0  0  0  0  0  0  0  0  0  0  0  0
  -10.0760    1.6780   -1.0560 C   0  0  0  0  0  0  0  0  0  0  0  0
   -7.2270    0.9220    0.8580 C   0  0  0  0  0  0  0  0  0  0  0  0
   -7.3060    2.1610    0.8510 O   0  0  0  0  0  0  0  0  0  0  0  0
   -3.9110   -0.6540    0.4060 C   0  0  0  0  0  0  0  0  0  0  0  0
   -2.5390   -0.5020    0.2960 C   0  0  0  0  0  0  0  0  0  0  0  0
   -1.9720    0.7080   -0.1020 C   0  0  0  0  0  0  0  0  0  0  0  0
    6.0160   -1.8590    0.0080 C   0  0  0  0  0  0  0  0  0  0  0  0
    6.2180   -3.1960    0.1580 C   0  0  0  0  0  0  0  0  0  0  0  0
    7.5160   -3.7230    0.2130 C   0  0  0  0  0  0  0  0  0  0  0  0
    8.6190   -2.9090    0.1160 C   0  0  0  0  0  0  0  0  0  0  0  0
    8.4390   -1.5560   -0.0360 C   0  0  0  0  0  0  0  0  0  0  0  0
    9.5500   -0.7050   -0.1400 O   0  0  0  0  0  0  0  0  0  0  0  0
    9.3130    0.6720   -0.2940 C   0  0  0  0  0  0  0  0  0  0  0  0
   10.5850    1.4800   -0.4020 C   0  0  2  0  0  0  0  0  0  0  0  0
   11.3380    1.2890    0.7680 O   0  0  0  0  0  0  0  0  0  0  0  0
   10.2720    2.9670   -0.4850 C   0  0  0  0  0  0  0  0  0  0  0  0
    9.5920    3.3030    0.6790 F   0  0  0  0  0  0  0  0  0  0  0  0
    7.1330   -1.0520   -0.0870 C   0  0  0  0  0  0  0  0  0  0  0  0
  1  2  1  0
  2  3  2  3
  2 29  1  0
  3  4  1  0
  4  5  2  0
  4  6  1  0
  6  7  1  0
  7  8  1  0
  8  9  2  0
  8 28  1  0
  9 10  1  0
 10 11  1  0
 11 12  2  0
 11 13  1  0
 13 14  2  0
 13 28  1  0
 14 15  1  0
 15 16  1  0
 15 26  2  0
 16 17  1  0
 16 24  1  0
 17 18  1  0
 18 19  1  0
 19 20  1  6
 19 24  1  0
 20 21  1  0
 21 22  1  6
 21 23  1  0
 24 25  2  0
 26 27  1  0
 27 28  2  0
 29 30  2  0
 29 40  1  0
 30 31  1  0
 31 32  2  0
 32 33  1  0
 33 34  1  0
 33 40  2  0
 34 35  1  0
 35 36  1  0
 36 37  1  1
 36 38  1  0
 38 39  1  0
M  END
