
     RDKit          3D

 40 43  0  0  0  0  0  0  0  0999 V2000
   -8.6710    1.2890    2.0110 C   0  0  0  0  0  0  0  0  0  0  0  0
   -7.5020    0.3150    1.6830 C   0  0  2  0  0  0  0  0  0  0  0  0
   -6.4020    1.2600    1.4330 N   0  0  0  0  0  0  0  0  0  0  0  0
   -7.8730   -0.5040    0.5020 C   0  0  0  0  0  0  0  0  0  0  0  0
   -6.9000   -1.5610    0.0490 C   0  0  1  0  0  0  0  0  0  0  0  0
   -7.4650   -2.2980   -1.1400 C   0  0  0  0  0  0  0  0  0  0  0  0
   -7.5550   -1.5870   -2.2940 O   0  0  0  0  0  0  0  0  0  0  0  0
   -5.5410   -1.1670   -0.0990 N   0  0  0  0  0  0  0  0  0  0  0  0
   -4.9850   -0.2760   -1.0830 C   0  0  0  0  0  0  0  0  0  0  0  0
   -4.4910   -0.8990   -2.3470 C   0  0  1  0  0  0  0  0  0  0  0  0
   -3.7050    0.1860   -3.1530 C   0  0  0  0  0  0  0  0  0  0  0  0
   -3.5240   -1.8740   -2.1120 O   0  0  0  0  0  0  0  0  0  0  0  0
   -4.6240   -1.7560    0.8340 C   0  0  0  0  0  0  0  0  0  0  0  0
   -5.1320   -2.6120    1.6410 O   0  0  0  0  0  0  0  0  0  0  0  0
   -3.2170   -1.5020    0.9750 C   0  0  0  0  0  0  0  0  0  0  0  0
   -2.3420   -2.1490    1.8780 C   0  0  0  0  0  0  0  0  0  0  0  0
   -1.1140   -1.5820    1.6610 C   0  0  0  0  0  0  0  0  0  0  0  0
   -1.2540   -0.6410    0.6720 C   0  0  0  0  0  0  0  0  0  0  0  0
   -0.1980    0.1960    0.1310 C   0  0  0  0  0  0  0  0  0  0  0  0
   -0.3510    1.1680   -0.8650 C   0  0  0  0  0  0  0  0  0  0  0  0
    0.8960    1.7060   -1.0590 C   0  0  0  0  0  0  0  0  0  0  0  0
    1.7630    1.0710   -0.2030 C   0  0  0  0  0  0  0  0  0  0  0  0
    3.2070    1.3860   -0.1280 C   0  0  0  0  0  0  0  0  0  0  0  0
    3.6900    2.2710   -0.8730 O   0  0  0  0  0  0  0  0  0  0  0  0
    4.0320    0.7230    0.7460 O   0  0  0  0  0  0  0  0  0  0  0  0
    5.3990    0.9920    0.8320 C   0  0  0  0  0  0  0  0  0  0  0  0
    6.1310    0.6800   -0.4560 C   0  0  2  0  0  0  0  0  0  0  0  0
    5.7450   -0.6800   -0.9850 C   0  0  0  0  0  0  0  0  0  0  0  0
    6.5890   -1.6780   -0.4580 O   0  0  0  0  0  0  0  0  0  0  0  0
    7.8420   -1.3990   -1.0020 C   0  0  0  0  0  0  0  0  0  0  0  0
    8.3410   -0.1070   -0.4590 C   0  0  2  0  0  0  0  0  0  0  0  0
    9.0830   -0.3720    0.8410 C   0  0  0  0  0  0  0  0  0  0  0  0
    9.6010    0.8930    1.4190 C   0  0  0  0  0  0  0  0  0  0  0  0
   10.7920    1.5290    1.2340 C   0  0  0  0  0  0  0  0  0  0  0  0
   11.0190    2.6710    1.8800 C   0  0  0  0  0  0  0  0  0  0  0  0
   10.0720    3.2030    2.7170 C   0  0  0  0  0  0  0  0  0  0  0  0
    8.7460    1.9540    2.5610 S   0  0  0  0  0  0  0  0  0  0  0  0
    7.4690    0.9260   -0.3840 O   0  0  0  0  0  0  0  0  0  0  0  0
    1.0730    0.2040    0.4640 O   0  0  0  0  0  0  0  0  0  0  0  0
   -2.4950   -0.6380    0.3130 O   0  0  0  0  0  0  0  0  0  0  0  0
  2  1  1  6
  2  3  1  0
  2  4  1  0
  5  4  1  6
  5  6  1  0
  5  8  1  0
  6  7  1  0
  8  9  1  0
  8 13  1  0
  9 10  1  0
 10 11  1  6
 10 12  1  0
 13 14  2  0
 13 15  1  0
 15 16  2  0
 15 40  1  0
 16 17  1  0
 17 18  2  0
 18 19  1  0
 18 40  1  0
 19 20  2  0
 19 39  1  0
 20 21  1  0
 21 22  2  0
 22 23  1  0
 22 39  1  0
 23 24  2  0
 23 25  1  0
 25 26  1  0
 27 26  1  1
 27 28  1  0
 27 38  1  0
 28 29  1  0
 29 30  1  0
 30 31  1  0
 31 32  1  1
 31 38  1  0
 32 33  1  0
 33 34  2  0
 33 37  1  0
 34 35  1  0
 35 36  2  0
 36 37  1  0
M  CHG  1   3   1
M  END
