
     RDKit          3D

 40 43  0  0  0  0  0  0  0  0999 V2000
  -11.1290   -1.7960    1.4010 C   0  0  0  0  0  0  0  0  0  0  0  0
  -10.8570   -0.9510    0.3330 O   0  0  0  0  0  0  0  0  0  0  0  0
   -9.5170   -1.1490   -0.0440 C   0  0  0  0  0  0  0  0  0  0  0  0
   -9.2320   -0.2290   -1.2030 C   0  0  1  0  0  0  0  0  0  0  0  0
   -9.4440    1.2140   -0.8150 C   0  0  0  0  0  0  0  0  0  0  0  0
   -8.1720    1.5940   -0.0630 C   0  0  0  0  0  0  0  0  0  0  0  0
   -7.1420    0.5780   -0.4520 C   0  0  2  0  0  0  0  0  0  0  0  0
   -6.0220    1.2600   -1.0290 N   0  0  0  0  0  0  0  0  0  0  0  0
   -5.0930    1.6080    0.0150 C   0  0  0  0  0  0  0  0  0  0  0  0
   -3.8230    0.7910   -0.2580 C   0  0  2  0  0  0  0  0  0  0  0  0
   -4.2080   -0.5290   -0.2060 O   0  0  0  0  0  0  0  0  0  0  0  0
   -2.7950    1.1480    0.7510 C   0  0  0  0  0  0  0  0  0  0  0  0
   -1.6180    0.4130    0.5700 O   0  0  0  0  0  0  0  0  0  0  0  0
   -1.4120   -0.9160    0.6780 C   0  0  0  0  0  0  0  0  0  0  0  0
   -2.3310   -1.6860    0.9870 O   0  0  0  0  0  0  0  0  0  0  0  0
   -0.0740   -1.4730    0.4270 C   0  0  0  0  0  0  0  0  0  0  0  0
    1.0650   -0.8890    0.0870 C   0  0  0  0  0  0  0  0  0  0  0  0
    2.1900   -1.6170   -0.0990 C   0  0  0  0  0  0  0  0  0  0  0  0
    3.5290   -1.0810   -0.4830 C   0  0  0  0  0  0  0  0  0  0  0  0
    4.4950   -1.8400   -0.6330 O   0  0  0  0  0  0  0  0  0  0  0  0
    3.6680    0.2610   -0.6650 O   0  0  0  0  0  0  0  0  0  0  0  0
    4.8110    0.9140   -1.0170 C   0  0  0  0  0  0  0  0  0  0  0  0
    5.1130    1.1490   -2.3410 C   0  0  0  0  0  0  0  0  0  0  0  0
    6.2920    1.8210   -2.6850 C   0  0  0  0  0  0  0  0  0  0  0  0
    7.1650    2.2540   -1.6990 C   0  0  0  0  0  0  0  0  0  0  0  0
    6.8570    2.0150   -0.3540 C   0  0  0  0  0  0  0  0  0  0  0  0
    5.6870    1.3500   -0.0610 C   0  0  0  0  0  0  0  0  0  0  0  0
    5.6130    1.2240    1.4270 C   0  0  0  0  0  0  0  0  0  0  0  0
    7.0190    1.3890    1.8340 N   0  0  0  0  0  0  0  0  0  0  0  0
    7.6720    0.1410    1.9890 C   0  0  0  0  0  0  0  0  0  0  0  0
    7.9150   -0.6680    0.7710 C   0  0  0  0  0  0  0  0  0  0  0  0
    8.7290   -0.1560   -0.1900 O   0  0  0  0  0  0  0  0  0  0  0  0
   10.0570    0.0150    0.1820 C   0  0  0  0  0  0  0  0  0  0  0  0
   10.7020   -1.3110    0.5580 C   0  0  0  0  0  0  0  0  0  0  0  0
   12.0350   -1.0010    0.9110 O   0  0  0  0  0  0  0  0  0  0  0  0
    7.5550    2.3430    0.9360 C   0  0  0  0  0  0  0  0  0  0  0  0
    2.0670   -2.9800    0.0860 C   0  0  0  0  0  0  0  0  0  0  0  0
    0.3290   -3.1650    0.5230 S   0  0  0  0  0  0  0  0  0  0  0  0
   -7.7720   -0.2630   -1.5380 C   0  0  1  0  0  0  0  0  0  0  0  0
   -7.2460   -1.5470   -1.4700 O   0  0  0  0  0  0  0  0  0  0  0  0
  1  2  1  0
  2  3  1  0
  4  3  1  1
  4  5  1  0
  4 39  1  0
  5  6  1  0
  6  7  1  0
  7  8  1  6
  7 39  1  0
  8  9  1  0
  9 10  1  0
 10 11  1  1
 10 12  1  0
 12 13  1  0
 13 14  1  0
 14 15  2  0
 14 16  1  0
 16 17  2  0
 16 38  1  0
 17 18  1  0
 18 19  1  0
 18 37  2  0
 19 20  2  0
 19 21  1  0
 21 22  1  0
 22 23  2  0
 22 27  1  0
 23 24  1  0
 24 25  2  0
 25 26  1  0
 26 27  2  0
 26 36  1  0
 27 28  1  0
 28 29  1  0
 29 30  1  0
 29 36  1  0
 30 31  1  0
 31 32  1  0
 32 33  1  0
 33 34  1  0
 34 35  1  0
 37 38  1  0
 39 40  1  1
M  CHG  1   8   1
M  END
