
     RDKit          3D

 40 44  0  0  0  0  0  0  0  0999 V2000
   12.1110    0.0130    1.0200 C   0  0  0  0  0  0  0  0  0  0  0  0
   11.0780    0.1530    1.9680 O   0  0  0  0  0  0  0  0  0  0  0  0
    9.7290    0.0480    1.5850 C   0  0  0  0  0  0  0  0  0  0  0  0
    8.7430    0.1890    2.5330 C   0  0  0  0  0  0  0  0  0  0  0  0
    7.3950    0.0910    2.1900 C   0  0  0  0  0  0  0  0  0  0  0  0
    7.0450   -0.1540    0.8600 C   0  0  0  0  0  0  0  0  0  0  0  0
    5.7080   -0.2560    0.4890 C   0  0  0  0  0  0  0  0  0  0  0  0
    4.7750   -0.1020    1.4910 O   0  0  0  0  0  0  0  0  0  0  0  0
    3.4290   -0.1490    1.1970 C   0  0  0  0  0  0  0  0  0  0  0  0
    2.6460   -1.1400    1.7540 C   0  0  0  0  0  0  0  0  0  0  0  0
    1.2990   -1.2330    1.4950 C   0  0  0  0  0  0  0  0  0  0  0  0
    0.6440   -0.3330    0.6570 C   0  0  0  0  0  0  0  0  0  0  0  0
   -0.7530   -0.4730    0.4410 N   0  0  0  0  0  0  0  0  0  0  0  0
   -1.5210    0.1540   -0.5490 C   0  0  0  0  0  0  0  0  0  0  0  0
   -0.9080    0.9440   -1.3500 O   0  0  0  0  0  0  0  0  0  0  0  0
   -2.9510   -0.0350   -0.7160 C   0  0  0  0  0  0  0  0  0  0  0  0
   -3.8200   -0.9480   -0.2080 C   0  0  0  0  0  0  0  0  0  0  0  0
   -3.4940   -2.1170    0.6660 C   0  0  0  0  0  0  0  0  0  0  0  0
   -5.0850   -0.6480   -0.6580 N   0  0  0  0  0  0  0  0  0  0  0  0
   -6.2570   -1.3890   -0.3290 C   0  0  0  0  0  0  0  0  0  0  0  0
   -6.9690   -0.9050    0.9240 C   0  0  1  0  0  0  0  0  0  0  0  0
   -6.1080   -0.9690    2.1540 C   0  0  0  0  0  0  0  0  0  0  0  0
   -7.5340    0.3590    0.7640 O   0  0  0  0  0  0  0  0  0  0  0  0
   -5.0430    0.4250   -1.4360 N   0  0  0  0  0  0  0  0  0  0  0  0
   -6.1860    0.9960   -2.0700 C   0  0  0  0  0  0  0  0  0  0  0  0
   -6.6690    2.2510   -1.7080 C   0  0  0  0  0  0  0  0  0  0  0  0
   -7.7600    2.8020   -2.3140 C   0  0  0  0  0  0  0  0  0  0  0  0
   -8.3890    2.0730   -3.3150 C   0  0  0  0  0  0  0  0  0  0  0  0
   -7.9060    0.8290   -3.6700 C   0  0  0  0  0  0  0  0  0  0  0  0
   -6.8020    0.2620   -3.0630 C   0  0  0  0  0  0  0  0  0  0  0  0
   -3.7710    0.8200   -1.4930 C   0  0  0  0  0  0  0  0  0  0  0  0
   -3.3410    1.7990   -2.1320 O   0  0  0  0  0  0  0  0  0  0  0  0
    1.4250    0.6490    0.1070 C   0  0  0  0  0  0  0  0  0  0  0  0
    2.7980    0.7480    0.3670 C   0  0  0  0  0  0  0  0  0  0  0  0
    3.5370    1.7490   -0.1880 F   0  0  0  0  0  0  0  0  0  0  0  0
    5.4140   -0.4990   -0.8350 C   0  0  0  0  0  0  0  0  0  0  0  0
    6.4170   -0.6400   -1.7830 C   0  0  0  0  0  0  0  0  0  0  0  0
    7.6810   -0.5340   -1.3800 N   0  0  0  0  0  0  0  0  0  0  0  0
    8.0200   -0.2970   -0.0970 C   0  0  0  0  0  0  0  0  0  0  0  0
    9.3510   -0.1930    0.2870 C   0  0  0  0  0  0  0  0  0  0  0  0
  1  2  1  0
  2  3  1  0
  3  4  2  0
  3 40  1  0
  4  5  1  0
  5  6  2  0
  6  7  1  0
  6 39  1  0
  7  8  1  0
  7 36  2  0
  8  9  1  0
  9 10  2  0
  9 34  1  0
 10 11  1  0
 11 12  2  0
 12 13  1  0
 12 33  1  0
 13 14  1  0
 14 15  2  0
 14 16  1  0
 16 17  2  0
 16 31  1  0
 17 18  1  0
 17 19  1  0
 19 20  1  0
 19 24  1  0
 20 21  1  0
 21 22  1  1
 21 23  1  0
 24 25  1  0
 24 31  1  0
 25 26  2  0
 25 30  1  0
 26 27  1  0
 27 28  2  0
 28 29  1  0
 29 30  2  0
 31 32  2  0
 33 34  2  0
 34 35  1  0
 36 37  1  0
 37 38  2  0
 38 39  1  0
 39 40  2  0
M  END
