
     RDKit          3D

  8  7  0  0  0  0  0  0  0  0999 V2000
   -1.7200    0.2850   -1.0040 C   0  0  0  0  0  0  0  0  0  0  0  0
   -0.7010   -0.2310   -0.0450 C   0  0  2  0  0  0  0  0  0  0  0  0
   -0.6900    0.5080    1.2700 C   0  0  0  0  0  0  0  0  0  0  0  0
    0.6550   -0.1750   -0.6120 C   0  0  0  0  0  0  0  0  0  0  0  0
    0.7980    0.2790   -1.7860 O   0  0  0  0  0  0  0  0  0  0  0  0
    1.8500   -0.6080    0.0880 C   0  0  0  0  0  0  0  0  0  0  0  0
    1.7710   -1.0650    1.2470 O   0  0  0  0  0  0  0  0  0  0  0  0
    3.1100   -0.5380   -0.4860 O   0  0  0  0  0  0  0  0  0  0  0  0
  2  1  1  6
  2  3  1  0
  2  4  1  0
  4  5  2  0
  4  6  1  0
  6  7  2  0
  6  8  1  0
M  END
