
     RDKit          3D

  8  7  0  0  0  0  0  0  0  0999 V2000
    3.3420    0.5070   -0.2390 C   0  0  0  0  0  0  0  0  0  0  0  0
    1.9920    0.7660   -0.0530 O   0  0  0  0  0  0  0  0  0  0  0  0
    1.4620   -0.2940    0.6830 C   0  0  0  0  0  0  0  0  0  0  0  0
   -0.0220   -0.0650    0.9200 C   0  0  0  0  0  0  0  0  0  0  0  0
   -0.7070    0.0240   -0.2920 O   0  0  0  0  0  0  0  0  0  0  0  0
   -2.0520    0.2320   -0.0540 C   0  0  2  0  0  0  0  0  0  0  0  0
   -2.8270   -0.8650   -0.7510 C   0  0  0  0  0  0  0  0  0  0  0  0
   -2.3760    1.4790   -0.6140 O   0  0  0  0  0  0  0  0  0  0  0  0
  1  2  1  0
  2  3  1  0
  3  4  1  0
  4  5  1  0
  5  6  1  0
  6  7  1  6
  6  8  1  0
M  END
