
     RDKit          3D

  8  7  0  0  0  0  0  0  0  0999 V2000
   -0.5550   -1.3660   -0.5850 C   0  0  0  0  0  0  0  0  0  0  0  0
   -0.1070   -0.1310    0.1570 C   0  0  2  0  0  0  0  0  0  0  0  0
   -1.0020    0.1400    1.3720 C   0  0  0  0  0  0  0  0  0  0  0  0
   -0.2750    1.0390   -0.7920 C   0  0  0  0  0  0  0  0  0  0  0  0
    0.0070    2.2570   -0.1860 O   0  0  0  0  0  0  0  0  0  0  0  0
    1.1960   -0.2430    0.6650 O   0  0  0  0  0  0  0  0  0  0  0  0
    2.3350   -0.4550   -0.0630 C   0  0  0  0  0  0  0  0  0  0  0  0
    2.2070   -0.5610   -1.3100 O   0  0  0  0  0  0  0  0  0  0  0  0
  2  1  1  6
  2  3  1  0
  2  4  1  0
  2  6  1  0
  4  5  1  0
  6  7  1  0
  7  8  2  0
M  END
