
     RDKit          3D

 28 32  0  0  0  0  0  0  0  0999 V2000
    6.4430   -1.7650    0.0490 C   0  0  0  0  0  0  0  0  0  0  0  0
    5.3680   -1.5230   -1.0290 C   0  0  0  0  0  0  0  0  0  0  0  0
    4.1090   -2.1220   -0.5970 C   0  0  0  0  0  0  0  0  0  0  0  0
    2.9540   -1.5380   -0.3560 C   0  0  0  0  0  0  0  0  0  0  0  0
    2.7140   -0.1430   -0.4800 C   0  0  0  0  0  0  0  0  0  0  0  0
    3.6860    0.7880   -0.6750 N   0  0  0  0  0  0  0  0  0  0  0  0
    3.2000    2.0280   -0.7230 C   0  0  0  0  0  0  0  0  0  0  0  0
    1.8360    1.9430   -0.5570 C   0  0  0  0  0  0  0  0  0  0  0  0
    0.7840    2.8160   -0.4970 C   0  0  0  0  0  0  0  0  0  0  0  0
    1.0660    4.2680   -0.6500 C   0  0  0  0  0  0  0  0  0  0  0  0
    1.6630    4.7410    0.6570 C   0  0  0  0  0  0  0  0  0  0  0  0
   -0.4880    2.3990   -0.3040 N   0  0  0  0  0  0  0  0  0  0  0  0
   -0.8200    1.1290   -0.1610 N   0  0  0  0  0  0  0  0  0  0  0  0
    0.1830    0.1880   -0.2150 C   0  0  0  0  0  0  0  0  0  0  0  0
    1.4980    0.5120   -0.3980 C   0  0  0  0  0  0  0  0  0  0  0  0
   -0.1830   -1.1900   -0.2670 N   0  0  0  0  0  0  0  0  0  0  0  0
   -1.3560   -1.6010    0.4240 C   0  0  2  0  0  0  0  0  0  0  0  0
   -1.9400   -2.8930   -0.0400 C   0  0  0  0  0  0  0  0  0  0  0  0
   -3.3080   -2.7910   -0.6740 C   0  0  0  0  0  0  0  0  0  0  0  0
   -4.2690   -2.0780    0.1810 C   0  0  0  0  0  0  0  0  0  0  0  0
   -5.5450   -2.4660    0.4430 C   0  0  0  0  0  0  0  0  0  0  0  0
   -6.2910   -1.7040    1.2550 N   0  0  0  0  0  0  0  0  0  0  0  0
   -5.8230   -0.5670    1.8220 C   0  0  0  0  0  0  0  0  0  0  0  0
   -4.5220   -0.1170    1.5920 C   0  0  0  0  0  0  0  0  0  0  0  0
   -3.7590   -0.9000    0.7570 C   0  0  0  0  0  0  0  0  0  0  0  0
   -2.3970   -0.5110    0.4250 C   0  0  0  0  0  0  0  0  0  0  0  0
   -2.1570    0.7470    0.1670 C   0  0  0  0  0  0  0  0  0  0  0  0
   -3.2180    1.7650    0.1490 C   0  0  0  0  0  0  0  0  0  0  0  0
  1  2  1  0
  2  3  1  0
  3  4  2  3
  4  5  1  0
  5  6  2  0
  5 15  1  0
  6  7  1  0
  7  8  2  0
  8  9  1  0
  8 15  1  0
  9 10  1  0
  9 12  2  0
 10 11  1  0
 12 13  1  0
 13 14  1  0
 13 27  1  0
 14 15  2  0
 14 16  1  0
 16 17  1  0
 17 18  1  6
 17 26  1  0
 18 19  1  0
 19 20  1  0
 20 21  2  0
 20 25  1  0
 21 22  1  0
 22 23  2  0
 23 24  1  0
 24 25  2  0
 25 26  1  0
 26 27  2  0
 27 28  1  0
M  END
