
     RDKit          3D

  8  7  0  0  0  0  0  0  0  0999 V2000
    3.0990   -0.2190   -0.4900 C   0  0  0  0  0  0  0  0  0  0  0  0
    1.7400    0.3600   -0.0530 C   0  0  0  0  0  0  0  0  0  0  0  0
    1.1570   -0.5980    0.7190 O   0  0  0  0  0  0  0  0  0  0  0  0
   -0.0600   -0.3670    1.2570 C   0  0  0  0  0  0  0  0  0  0  0  0
   -1.1020   -0.1960    0.2290 C   0  0  0  0  0  0  0  0  0  0  0  0
   -0.9000   -0.3060   -1.0060 O   0  0  0  0  0  0  0  0  0  0  0  0
   -2.4160    0.1140    0.6600 O   0  0  0  0  0  0  0  0  0  0  0  0
   -3.3940    0.2730   -0.3380 C   0  0  0  0  0  0  0  0  0  0  0  0
  1  2  1  0
  2  3  1  0
  3  4  1  0
  4  5  1  0
  5  6  2  0
  5  7  1  0
  7  8  1  0
M  END
