
     RDKit          3D

  8  7  0  0  0  0  0  0  0  0999 V2000
   -1.9570   -0.4750    0.2230 C   0  0  0  0  0  0  0  0  0  0  0  0
   -0.6870    0.2370    0.6000 C   0  0  1  0  0  0  0  0  0  0  0  0
   -0.5050    1.4620   -0.2950 C   0  0  0  0  0  0  0  0  0  0  0  0
   -0.7070    0.6150    1.9290 O   0  0  0  0  0  0  0  0  0  0  0  0
    0.5070   -0.6660    0.3160 C   0  0  0  0  0  0  0  0  0  0  0  0
    1.6630    0.1010    0.6380 O   0  0  0  0  0  0  0  0  0  0  0  0
    2.9500   -0.4060    0.5010 C   0  0  0  0  0  0  0  0  0  0  0  0
    3.0180   -1.6000    0.0680 O   0  0  0  0  0  0  0  0  0  0  0  0
  2  1  1  6
  2  3  1  0
  2  4  1  0
  2  5  1  0
  5  6  1  0
  6  7  1  0
  7  8  2  0
M  END
