
     RDKit          3D

 26 27  0  0  0  0  0  0  0  0999 V2000
    5.7580    2.6780    2.5940 C   0  0  0  0  0  0  0  0  0  0  0  0
    4.9690    1.7550    1.9300 O   0  0  0  0  0  0  0  0  0  0  0  0
    5.6600    1.3460    0.8090 C   0  0  0  0  0  0  0  0  0  0  0  0
    4.8700    0.3220    0.0040 C   0  0  0  0  0  0  0  0  0  0  0  0
    5.3630   -0.1400   -1.0340 O   0  0  0  0  0  0  0  0  0  0  0  0
    3.6130   -0.0790    0.4420 N   0  0  0  0  0  0  0  0  0  0  0  0
    2.6770   -0.9960   -0.0960 C   0  0  0  0  0  0  0  0  0  0  0  0
    2.5530   -1.7790   -1.0930 C   0  0  0  0  0  0  0  0  0  0  0  0
    3.5870   -1.9150   -2.1040 N   0  0  0  0  0  0  0  0  0  0  0  0
    1.3310   -2.5850   -1.2500 C   0  0  0  0  0  0  0  0  0  0  0  0
    0.2020   -1.9730   -0.5020 C   0  0  2  0  0  0  0  0  0  0  0  0
   -0.8040   -2.8730   -0.0700 N   0  0  0  0  0  0  0  0  0  0  0  0
   -2.0900   -2.3650    0.2490 C   0  0  0  0  0  0  0  0  0  0  0  0
   -3.0460   -3.1370    0.4560 O   0  0  0  0  0  0  0  0  0  0  0  0
   -2.2860   -0.8680    0.3340 C   0  0  2  0  0  0  0  0  0  0  0  0
   -1.9210   -0.3570    1.6900 C   0  0  0  0  0  0  0  0  0  0  0  0
   -3.7560   -0.6090    0.0850 C   0  0  0  0  0  0  0  0  0  0  0  0
   -4.0670    0.8350    0.1560 C   0  0  0  0  0  0  0  0  0  0  0  0
   -3.2050    1.7060    0.4210 O   0  0  0  0  0  0  0  0  0  0  0  0
   -5.4000    1.2530   -0.0880 N   0  0  0  0  0  0  0  0  0  0  0  0
   -5.7140    2.6660   -0.0210 C   0  0  0  0  0  0  0  0  0  0  0  0
   -7.1240    2.8490   -0.3030 N   0  0  0  0  0  0  0  0  0  0  0  0
   -1.5490   -0.2230   -0.7460 N   0  0  0  0  0  0  0  0  0  0  0  0
   -0.4250   -0.8860   -1.2790 C   0  0  0  0  0  0  0  0  0  0  0  0
    0.0330   -0.5570   -2.3910 O   0  0  0  0  0  0  0  0  0  0  0  0
    1.1120   -1.2090    0.8670 S   0  0  0  0  0  0  0  0  0  0  0  0
  1  2  1  0
  2  3  1  0
  3  4  1  0
  4  5  2  0
  4  6  1  0
  6  7  1  0
  7  8  2  0
  7 26  1  0
  8  9  1  0
  8 10  1  0
 11 10  1  6
 11 12  1  0
 11 24  1  0
 11 26  1  0
 12 13  1  0
 13 14  2  0
 13 15  1  0
 15 16  1  1
 15 17  1  0
 15 23  1  0
 17 18  1  0
 18 19  2  0
 18 20  1  0
 20 21  1  0
 21 22  1  0
 23 24  1  0
 24 25  2  0
M  CHG  1   9   1
M  END
