
     RDKit          3D

 26 28  0  0  0  0  0  0  0  0999 V2000
    7.4230    0.4310   -1.5970 N   0  0  0  0  0  0  0  0  0  0  0  0
    6.0200    0.3740   -1.5880 C   0  0  0  0  0  0  0  0  0  0  0  0
    5.2540    0.5190   -2.6810 N   0  0  0  0  0  0  0  0  0  0  0  0
    3.9120    0.4580   -2.6220 C   0  0  0  0  0  0  0  0  0  0  0  0
    3.2700    0.2480   -1.4610 N   0  0  0  0  0  0  0  0  0  0  0  0
    4.0100    0.0980   -0.3420 C   0  0  0  0  0  0  0  0  0  0  0  0
    5.3900    0.1570   -0.3770 C   0  0  0  0  0  0  0  0  0  0  0  0
    5.8120   -0.0290    0.8890 N   0  0  0  0  0  0  0  0  0  0  0  0
    4.7320   -0.1940    1.6640 C   0  0  0  0  0  0  0  0  0  0  0  0
    3.6010   -0.1190    0.9170 N   0  0  0  0  0  0  0  0  0  0  0  0
    2.2950   -0.2560    1.4640 C   0  0  2  0  0  0  0  0  0  0  0  0
    1.3430   -0.7350    0.5400 O   0  0  0  0  0  0  0  0  0  0  0  0
    0.2070   -0.7520    1.3680 C   0  0  2  0  0  0  0  0  0  0  0  0
   -1.0480   -1.0060    0.6010 C   0  0  0  0  0  0  0  0  0  0  0  0
   -1.3980    0.2140   -0.6640 S   0  0  0  0  0  0  0  0  0  0  0  0
   -2.9680   -0.2790   -1.4750 C   0  0  0  0  0  0  0  0  0  0  0  0
   -4.1050   -0.1630   -0.4750 C   0  0  0  0  0  0  0  0  0  0  0  0
   -5.3810   -0.5720   -1.1640 C   0  0  2  0  0  0  0  0  0  0  0  0
   -5.6840    0.2500   -2.2960 N   0  0  0  0  0  0  0  0  0  0  0  0
   -6.5240   -0.6350   -0.2270 C   0  0  0  0  0  0  0  0  0  0  0  0
   -6.4960   -1.2900    0.8290 O   0  0  0  0  0  0  0  0  0  0  0  0
   -7.6950    0.0600   -0.5140 O   0  0  0  0  0  0  0  0  0  0  0  0
    0.1990    0.5660    2.1000 C   0  0  1  0  0  0  0  0  0  0  0  0
    0.0770    0.2960    3.4660 O   0  0  0  0  0  0  0  0  0  0  0  0
    1.6480    1.0310    1.8920 C   0  0  1  0  0  0  0  0  0  0  0  0
    2.1890    1.5650    3.0390 O   0  0  0  0  0  0  0  0  0  0  0  0
  1  2  1  0
  2  3  2  0
  2  7  1  0
  3  4  1  0
  4  5  2  0
  5  6  1  0
  6  7  2  0
  6 10  1  0
  7  8  1  0
  8  9  2  0
  9 10  1  0
 11 10  1  6
 11 12  1  0
 11 25  1  0
 12 13  1  0
 13 14  1  6
 13 23  1  0
 14 15  1  0
 15 16  1  0
 16 17  1  0
 17 18  1  0
 18 19  1  6
 18 20  1  0
 20 21  2  0
 20 22  1  0
 23 24  1  1
 23 25  1  0
 25 26  1  1
M  CHG  1  19   1
M  END
