
     RDKit          3D

 26 27  0  0  0  0  0  0  0  0999 V2000
    3.4840   -2.5840   -2.6810 N   0  0  0  0  0  0  0  0  0  0  0  0
    4.7560   -2.0120   -2.5050 C   0  0  0  0  0  0  0  0  0  0  0  0
    5.7230   -2.4570   -3.1680 O   0  0  0  0  0  0  0  0  0  0  0  0
    4.9520   -0.8990   -1.5470 C   0  0  0  0  0  0  0  0  0  0  0  0
    3.6960   -0.5760   -0.9310 N   0  0  0  0  0  0  0  0  0  0  0  0
    2.6720   -0.1600   -1.6750 C   0  0  0  0  0  0  0  0  0  0  0  0
    2.8140   -0.0410   -2.9660 O   0  0  0  0  0  0  0  0  0  0  0  0
    1.4330    0.1850   -1.3250 N   0  0  0  0  0  0  0  0  0  0  0  0
    0.2110    0.5160   -0.9140 C   0  0  0  0  0  0  0  0  0  0  0  0
   -0.5150    0.8840   -1.9320 O   0  0  0  0  0  0  0  0  0  0  0  0
   -0.3600    0.5250    0.3310 N   0  0  0  0  0  0  0  0  0  0  0  0
   -1.6960    0.9160    0.4890 C   0  0  0  0  0  0  0  0  0  0  0  0
   -2.5880    0.0570    0.8960 C   0  0  0  0  0  0  0  0  0  0  0  0
   -2.2950   -1.3150    1.2060 C   0  0  0  0  0  0  0  0  0  0  0  0
   -3.2860   -2.1060    1.6240 C   0  0  0  0  0  0  0  0  0  0  0  0
   -2.9870   -3.5310    1.9520 C   0  0  0  0  0  0  0  0  0  0  0  0
   -1.7810   -3.5910    2.8710 C   0  0  0  0  0  0  0  0  0  0  0  0
   -0.5590   -3.3820    2.1520 N   0  0  0  0  0  0  0  0  0  0  0  0
   -0.7080   -2.0580    1.0410 S   0  0  0  0  0  0  0  0  0  0  0  0
   -0.4870   -2.5540   -0.3960 O   0  0  0  0  0  0  0  0  0  0  0  0
   -2.1110    2.3070    0.2190 C   0  0  0  0  0  0  0  0  0  0  0  0
   -3.3030    2.6080    0.3660 O   0  0  0  0  0  0  0  0  0  0  0  0
   -1.2020    3.3150   -0.2030 N   0  0  0  0  0  0  0  0  0  0  0  0
   -1.6480    4.6750   -0.4630 C   0  0  2  0  0  0  0  0  0  0  0  0
   -1.1150    5.3980   -1.6620 C   0  0  0  0  0  0  0  0  0  0  0  0
   -0.7150    5.8170   -0.3110 C   0  0  0  0  0  0  0  0  0  0  0  0
  1  2  1  0
  2  3  2  0
  2  4  1  0
  4  5  1  0
  5  6  1  0
  6  7  2  0
  6  8  1  0
  8  9  1  0
  9 10  2  0
  9 11  1  0
 11 12  1  0
 12 13  2  3
 12 21  1  0
 13 14  1  0
 14 15  2  0
 14 19  1  0
 15 16  1  0
 16 17  1  0
 17 18  1  0
 19 18  1  1
 19 20  2  0
 21 22  2  0
 21 23  1  0
 24 23  1  6
 24 25  1  0
 24 26  1  0
 25 26  1  0
M  CHG  1  18   1
M  END
