
     RDKit          3D

 26 27  0  0  0  0  0  0  0  0999 V2000
    4.1160   -2.4720    0.6980 N   0  0  0  0  0  0  0  0  0  0  0  0
    3.6510   -1.2590    1.2270 C   0  0  0  0  0  0  0  0  0  0  0  0
    3.4390   -1.1470    2.4080 O   0  0  0  0  0  0  0  0  0  0  0  0
    3.3840   -0.1400    0.2490 C   0  0  2  0  0  0  0  0  0  0  0  0
    2.2300   -0.6820   -0.3670 N   0  0  0  0  0  0  0  0  0  0  0  0
    0.9090   -0.0560   -0.2550 C   0  0  0  0  0  0  0  0  0  0  0  0
    0.6840    0.9630    0.1030 O   0  0  0  0  0  0  0  0  0  0  0  0
   -0.0250   -1.1670   -0.6560 N   0  0  0  0  0  0  0  0  0  0  0  0
   -1.4000   -0.4400    0.0180 C   0  0  0  0  0  0  0  0  0  0  0  0
   -1.2450    0.6430    0.4630 O   0  0  0  0  0  0  0  0  0  0  0  0
   -2.5690   -1.1820    0.0010 N   0  0  0  0  0  0  0  0  0  0  0  0
   -3.0470   -2.2970   -0.6890 C   0  0  0  0  0  0  0  0  0  0  0  0
   -4.5630   -1.9160   -0.9510 C   0  0  0  0  0  0  0  0  0  0  0  0
   -4.5350   -0.5420   -1.2220 O   0  0  0  0  0  0  0  0  0  0  0  0
   -5.0600    0.2440   -0.2360 C   0  0  2  0  0  0  0  0  0  0  0  0
   -5.5500    1.5370   -0.7960 C   0  0  0  0  0  0  0  0  0  0  0  0
   -6.0240    2.3490    0.3190 N   0  0  0  0  0  0  0  0  0  0  0  0
   -4.0530    0.5450    0.8670 C   0  0  0  0  0  0  0  0  0  0  0  0
   -3.3060   -0.6590    1.2370 C   0  0  0  0  0  0  0  0  0  0  0  0
    4.4450    0.2480   -0.6320 C   0  0  2  0  0  0  0  0  0  0  0  0
    4.9210   -0.8470   -1.4290 N   0  0  0  0  0  0  0  0  0  0  0  0
    5.5340    1.0450    0.0340 C   0  0  0  0  0  0  0  0  0  0  0  0
    5.8840    1.1160    1.2810 C   0  0  0  0  0  0  0  0  0  0  0  0
    6.9210    1.9300    1.6130 O   0  0  0  0  0  0  0  0  0  0  0  0
    7.0700    3.0700    0.7780 C   0  0  0  0  0  0  0  0  0  0  0  0
    6.5780    2.2310   -0.7840 S   0  0  0  0  0  0  0  0  0  0  0  0
  1  2  1  0
  2  3  2  0
  2  4  1  0
  4  5  1  6
  4 20  1  0
  5  6  1  0
  6  7  2  0
  6  8  1  0
  8  9  1  0
  9 10  2  0
  9 11  1  0
 11 12  1  0
 11 19  1  0
 12 13  1  0
 13 14  1  0
 14 15  1  0
 15 16  1  6
 15 18  1  0
 16 17  1  0
 18 19  1  0
 20 21  1  1
 20 22  1  0
 22 23  2  0
 22 26  1  0
 23 24  1  0
 24 25  1  0
 25 26  1  0
M  CHG  1  17   1
M  END
