
     RDKit          3D

 26 27  0  0  0  0  0  0  0  0999 V2000
    4.1920   -0.2090    2.0250 C   0  0  0  0  0  0  0  0  0  0  0  0
    4.3270   -1.1380    0.8100 C   0  0  1  0  0  0  0  0  0  0  0  0
    3.3030   -0.4590   -0.5420 S   0  0  0  0  0  0  0  0  0  0  0  0
    1.6030   -0.5670   -0.0400 C   0  0  0  0  0  0  0  0  0  0  0  0
    0.6210   -0.0420   -1.0780 C   0  0  0  0  0  0  0  0  0  0  0  0
   -0.7140   -0.1070   -0.7010 N   0  0  0  0  0  0  0  0  0  0  0  0
   -1.5070   -1.3180   -0.8900 C   0  0  0  0  0  0  0  0  0  0  0  0
   -1.3340   -1.9760   -1.9240 O   0  0  0  0  0  0  0  0  0  0  0  0
   -2.5020   -1.7520    0.1430 C   0  0  2  0  0  0  0  0  0  0  0  0
   -3.7590   -2.1490   -0.4240 N   0  0  0  0  0  0  0  0  0  0  0  0
   -4.3140   -3.4560   -0.2430 C   0  0  0  0  0  0  0  0  0  0  0  0
   -5.5610   -3.8440   -0.8070 N   0  0  0  0  0  0  0  0  0  0  0  0
   -3.6690   -4.2770    0.4380 O   0  0  0  0  0  0  0  0  0  0  0  0
   -2.7330   -0.5900    1.1260 C   0  0  0  0  0  0  0  0  0  0  0  0
   -2.8330    0.6710    0.2840 C   0  0  1  0  0  0  0  0  0  0  0  0
   -3.5420    1.6780    0.8420 O   0  0  0  0  0  0  0  0  0  0  0  0
   -3.0540    2.9480    0.9590 C   0  0  0  0  0  0  0  0  0  0  0  0
   -3.7450    3.8650    1.4500 O   0  0  0  0  0  0  0  0  0  0  0  0
   -1.7450    3.2030    0.5110 N   0  0  0  0  0  0  0  0  0  0  0  0
   -0.8900    2.1690   -0.0740 C   0  0  0  0  0  0  0  0  0  0  0  0
    0.4550    2.4860   -0.5000 C   0  0  0  0  0  0  0  0  0  0  0  0
    0.5220    3.4420   -1.6100 N   0  0  0  0  0  0  0  0  0  0  0  0
   -1.4250    0.9840   -0.1540 C   0  0  0  0  0  0  0  0  0  0  0  0
    5.7480   -1.2070    0.4430 C   0  0  0  0  0  0  0  0  0  0  0  0
    6.5010   -0.0870    0.0750 N   0  0  0  0  0  0  0  0  0  0  0  0
    6.3210   -2.3270    0.4600 O   0  0  0  0  0  0  0  0  0  0  0  0
  2  1  1  1
  2  3  1  0
  2 24  1  0
  3  4  1  0
  4  5  1  0
  5  6  1  0
  6  7  1  0
  6 23  1  0
  7  8  2  0
  7  9  1  0
  9 10  1  6
  9 14  1  0
 10 11  1  0
 11 12  1  0
 11 13  2  0
 15 14  1  1
 15 16  1  0
 15 23  1  0
 16 17  1  0
 17 18  2  0
 17 19  1  0
 19 20  1  0
 20 21  1  0
 20 23  2  0
 21 22  1  0
 24 25  1  0
 24 26  2  0
M  CHG  1  22   1
M  END
