
     RDKit          3D

 26 27  0  0  0  0  0  0  0  0999 V2000
    7.9460   -0.9290    1.1830 C   0  0  0  0  0  0  0  0  0  0  0  0
    7.7580    0.1460    0.1430 C   0  0  1  0  0  0  0  0  0  0  0  0
    8.7490   -0.0500   -0.8430 O   0  0  0  0  0  0  0  0  0  0  0  0
    6.4390    0.0740   -0.5220 C   0  0  0  0  0  0  0  0  0  0  0  0
    6.3050    0.8430   -1.6910 C   0  0  0  0  0  0  0  0  0  0  0  0
    5.1290    0.8160   -2.3500 C   0  0  0  0  0  0  0  0  0  0  0  0
    4.0480    0.0230   -1.8670 C   0  0  0  0  0  0  0  0  0  0  0  0
    2.8570    0.0020   -2.6040 N   0  0  0  0  0  0  0  0  0  0  0  0
    1.5580   -0.0520   -2.2110 N   0  0  0  0  0  0  0  0  0  0  0  0
    0.9890    0.3000   -0.9500 C   0  0  0  0  0  0  0  0  0  0  0  0
    1.7470    0.6960   -0.0490 O   0  0  0  0  0  0  0  0  0  0  0  0
   -0.4440    0.1880   -0.7640 C   0  0  0  0  0  0  0  0  0  0  0  0
   -1.2050   -0.1110   -1.7590 O   0  0  0  0  0  0  0  0  0  0  0  0
   -1.0920    0.3970    0.4840 N   0  0  0  0  0  0  0  0  0  0  0  0
   -2.5320    0.3130    0.6040 C   0  0  1  0  0  0  0  0  0  0  0  0
   -3.0030   -1.0820    1.0250 C   0  0  0  0  0  0  0  0  0  0  0  0
   -3.2190    0.1120    1.8660 C   0  0  2  0  0  0  0  0  0  0  0  0
   -4.7500    0.7120    2.3370 S   0  0  0  0  0  0  0  0  0  0  0  0
   -4.8860    1.1850    3.7770 O   0  0  0  0  0  0  0  0  0  0  0  0
   -6.2340    0.3720    1.5150 C   0  0  2  0  0  0  0  0  0  0  0  0
   -6.5770   -1.0650    1.4770 C   0  0  0  0  0  0  0  0  0  0  0  0
   -7.8280   -1.3650    0.8100 N   0  0  0  0  0  0  0  0  0  0  0  0
   -6.3580    1.0720    0.1640 C   0  0  0  0  0  0  0  0  0  0  0  0
   -7.5270    0.8080   -0.5000 O   0  0  0  0  0  0  0  0  0  0  0  0
    4.2090   -0.6930   -0.7570 N   0  0  0  0  0  0  0  0  0  0  0  0
    5.3930   -0.6380   -0.1320 N   0  0  0  0  0  0  0  0  0  0  0  0
  2  1  1  1
  2  3  1  0
  2  4  1  0
  4  5  2  0
  4 26  1  0
  5  6  1  0
  6  7  2  0
  7  8  1  0
  7 25  1  0
  8  9  1  0
  9 10  1  0
 10 11  2  0
 10 12  1  0
 12 13  2  0
 12 14  1  0
 15 14  1  1
 15 16  1  0
 15 17  1  0
 17 16  1  6
 17 18  1  0
 18 19  2  0
 18 20  1  1
 20 21  1  6
 20 23  1  0
 21 22  1  0
 23 24  1  0
 25 26  2  0
M  CHG  1  25   1
M  END
