
     RDKit          3D

 26 27  0  0  0  0  0  0  0  0999 V2000
   -1.5340    1.8590   -1.4170 C   0  0  0  0  0  0  0  0  0  0  0  0
   -2.9200    1.4120   -0.9450 C   0  0  1  0  0  0  0  0  0  0  0  0
   -3.5420    2.6060   -0.2820 C   0  0  0  0  0  0  0  0  0  0  0  0
   -3.6530    1.1510   -2.1030 O   0  0  0  0  0  0  0  0  0  0  0  0
   -4.0280   -0.1610   -2.0900 C   0  0  0  0  0  0  0  0  0  0  0  0
   -3.6980   -0.7200   -0.8860 O   0  0  0  0  0  0  0  0  0  0  0  0
   -2.8900    0.1620   -0.1730 C   0  0  2  0  0  0  0  0  0  0  0  0
   -3.3260    0.2150    1.2490 C   0  0  0  0  0  0  0  0  0  0  0  0
   -4.6780    0.6380    1.4770 N   0  0  0  0  0  0  0  0  0  0  0  0
   -1.4650   -0.3450   -0.1600 C   0  0  0  0  0  0  0  0  0  0  0  0
   -0.5350    0.2470    0.5950 N   0  0  0  0  0  0  0  0  0  0  0  0
    0.6210   -0.4270    0.3980 C   0  0  0  0  0  0  0  0  0  0  0  0
    1.9230   -0.0910    1.0730 C   0  0  2  0  0  0  0  0  0  0  0  0
    1.6600    0.1310    2.4050 O   0  0  0  0  0  0  0  0  0  0  0  0
    2.4990    1.1610    0.4500 C   0  0  0  0  0  0  0  0  0  0  0  0
    4.0440    1.6380    1.2280 S   0  0  0  0  0  0  0  0  0  0  0  0
    5.3780    0.4550    0.9900 C   0  0  0  0  0  0  0  0  0  0  0  0
    5.8080    0.3440   -0.4210 C   0  0  0  0  0  0  0  0  0  0  0  0
    6.8590   -0.5500   -0.7830 N   0  0  0  0  0  0  0  0  0  0  0  0
    5.2420    1.0410   -1.2810 O   0  0  0  0  0  0  0  0  0  0  0  0
    0.3650   -1.4120   -0.4720 N   0  0  0  0  0  0  0  0  0  0  0  0
    1.2980   -2.3770   -0.9760 C   0  0  0  0  0  0  0  0  0  0  0  0
    1.3310   -3.5640   -0.0810 C   0  0  0  0  0  0  0  0  0  0  0  0
    0.5360   -3.5850    1.0820 N   0  0  0  0  0  0  0  0  0  0  0  0
    2.0570   -4.5330   -0.3590 O   0  0  0  0  0  0  0  0  0  0  0  0
   -0.9270   -1.3650   -0.8200 N   0  0  0  0  0  0  0  0  0  0  0  0
  2  1  1  6
  2  3  1  0
  2  4  1  0
  2  7  1  0
  4  5  1  0
  5  6  1  0
  6  7  1  0
  7  8  1  1
  7 10  1  0
  8  9  1  0
 10 11  1  0
 10 26  2  0
 11 12  2  0
 12 13  1  0
 12 21  1  0
 13 14  1  1
 13 15  1  0
 15 16  1  0
 16 17  1  0
 17 18  1  0
 18 19  1  0
 18 20  2  0
 21 22  1  0
 21 26  1  0
 22 23  1  0
 23 24  1  0
 23 25  2  0
M  CHG  1   9   1
M  END
