
     RDKit          3D

 26 27  0  0  0  0  0  0  0  0999 V2000
    5.0840    0.2520   -1.9290 C   0  0  0  0  0  0  0  0  0  0  0  0
    4.3030    0.2200   -0.6020 C   0  0  1  0  0  0  0  0  0  0  0  0
    5.3580   -0.0500    0.4430 C   0  0  0  0  0  0  0  0  0  0  0  0
    5.3690   -1.2600    1.1910 N   0  0  0  0  0  0  0  0  0  0  0  0
    6.2650    0.7850    0.6910 O   0  0  0  0  0  0  0  0  0  0  0  0
    3.7200    1.5600   -0.3990 C   0  0  0  0  0  0  0  0  0  0  0  0
    2.2670    1.7260   -0.6480 C   0  0  0  0  0  0  0  0  0  0  0  0
    1.4850    0.4820   -0.3640 C   0  0  1  0  0  0  0  0  0  0  0  0
    0.1140    0.5440   -0.7310 N   0  0  0  0  0  0  0  0  0  0  0  0
   -0.9500    0.2720    0.2190 C   0  0  0  0  0  0  0  0  0  0  0  0
   -0.5350   -0.0110    1.3480 O   0  0  0  0  0  0  0  0  0  0  0  0
   -2.2620    0.3550   -0.2230 N   0  0  0  0  0  0  0  0  0  0  0  0
   -3.4220    0.1510    0.6450 C   0  0  0  0  0  0  0  0  0  0  0  0
   -3.2120    0.4800    1.8550 C   0  0  0  0  0  0  0  0  0  0  0  0
   -3.9000    0.5060    3.0990 C   0  0  0  0  0  0  0  0  0  0  0  0
   -5.1840    0.1560    3.5240 N   0  0  0  0  0  0  0  0  0  0  0  0
   -3.1790    0.9730    4.1400 O   0  0  0  0  0  0  0  0  0  0  0  0
   -4.6160   -0.4030   -0.0470 C   0  0  0  0  0  0  0  0  0  0  0  0
   -4.5530   -0.6750   -1.3670 C   0  0  0  0  0  0  0  0  0  0  0  0
   -6.1240   -1.3100   -1.8630 S   0  0  0  0  0  0  0  0  0  0  0  0
   -5.9160   -2.7910   -2.2070 O   0  0  0  0  0  0  0  0  0  0  0  0
   -6.8710   -1.2210   -0.2910 C   0  0  0  0  0  0  0  0  0  0  0  0
   -8.0320   -1.5580   -0.0150 O   0  0  0  0  0  0  0  0  0  0  0  0
   -5.8500   -0.6900    0.5390 N   0  0  0  0  0  0  0  0  0  0  0  0
    2.1250   -0.6050   -1.2440 C   0  0  0  0  0  0  0  0  0  0  0  0
    3.4050   -0.8750   -0.6850 N   0  0  0  0  0  0  0  0  0  0  0  0
  2  1  1  6
  2  3  1  0
  2  6  1  0
  2 26  1  0
  3  4  1  0
  3  5  2  0
  6  7  1  0
  7  8  1  0
  8  9  1  6
  8 25  1  0
  9 10  1  0
 10 11  2  0
 10 12  1  0
 12 13  1  0
 13 14  2  3
 13 18  1  0
 14 15  1  0
 15 16  1  0
 15 17  2  0
 18 19  2  0
 18 24  1  0
 20 19  1  1
 20 21  2  0
 20 22  1  0
 22 23  2  0
 22 24  1  0
 25 26  1  0
M  CHG  1  26   1
M  END
