
     RDKit          3D

 27 29  0  0  0  0  0  0  0  0999 V2000
   -3.4990   -2.9400    1.9650 C   0  0  0  0  0  0  0  0  0  0  0  0
   -3.0320   -2.9390    0.5290 C   0  0  0  0  0  0  0  0  0  0  0  0
   -2.3080   -1.6510    0.1980 C   0  0  0  0  0  0  0  0  0  0  0  0
   -0.5550   -1.4470    0.0550 S   0  0  0  0  0  0  0  0  0  0  0  0
   -0.6020    0.3010   -0.3400 C   0  0  0  0  0  0  0  0  0  0  0  0
    0.6380    0.9780   -0.5170 N   0  0  0  0  0  0  0  0  0  0  0  0
    1.0070    2.0770   -1.2630 C   0  0  0  0  0  0  0  0  0  0  0  0
    0.2060    2.6760   -1.9990 O   0  0  0  0  0  0  0  0  0  0  0  0
    2.3860    2.6390   -1.2500 C   0  0  0  0  0  0  0  0  0  0  0  0
    3.2530    1.7770   -0.5780 O   0  0  0  0  0  0  0  0  0  0  0  0
    3.5890    0.5010   -0.9830 C   0  0  0  0  0  0  0  0  0  0  0  0
    3.0970    0.0490   -2.0360 O   0  0  0  0  0  0  0  0  0  0  0  0
    4.5090   -0.3610   -0.2260 C   0  0  0  0  0  0  0  0  0  0  0  0
    5.0580    0.0660    0.8930 C   0  0  0  0  0  0  0  0  0  0  0  0
    5.9920   -0.7650    1.6940 C   0  0  0  0  0  0  0  0  0  0  0  0
    6.2110   -2.0230    1.1330 O   0  0  0  0  0  0  0  0  0  0  0  0
    5.6570   -2.5030   -0.0310 C   0  0  0  0  0  0  0  0  0  0  0  0
    5.9030   -3.7610   -0.5530 O   0  0  0  0  0  0  0  0  0  0  0  0
    4.8350   -1.7030   -0.6890 C   0  0  0  0  0  0  0  0  0  0  0  0
   -1.9180    0.5780   -0.3220 C   0  0  0  0  0  0  0  0  0  0  0  0
   -2.8040   -0.3970   -0.0560 C   0  0  0  0  0  0  0  0  0  0  0  0
   -4.3000   -0.1150   -0.0770 C   0  0  0  0  0  0  0  0  0  0  0  0
   -4.6430    1.2020    0.5260 C   0  0  0  0  0  0  0  0  0  0  0  0
   -3.9170    2.1810   -0.2570 N   0  0  0  0  0  0  0  0  0  0  0  0
   -4.6170    3.3140   -0.8090 C   0  0  0  0  0  0  0  0  0  0  0  0
   -2.5190    1.9410   -0.4230 C   0  0  0  0  0  0  0  0  0  0  0  0
   -1.8650    2.9720   -0.6490 O   0  0  0  0  0  0  0  0  0  0  0  0
  1  2  1  0
  2  3  1  0
  3  4  1  0
  3 21  2  0
  4  5  1  0
  5  6  1  0
  5 20  2  0
  6  7  1  0
  7  8  2  0
  7  9  1  0
  9 10  1  0
 10 11  1  0
 11 12  2  0
 11 13  1  0
 13 14  2  0
 13 19  1  0
 14 15  1  0
 15 16  1  0
 16 17  1  0
 17 18  1  0
 17 19  2  0
 20 21  1  0
 20 26  1  0
 21 22  1  0
 22 23  1  0
 23 24  1  0
 24 25  1  0
 24 26  1  0
 26 27  2  0
M  END
