
     RDKit          3D

 27 29  0  0  0  0  0  0  0  0999 V2000
    2.8820    0.5810    1.4800 O   0  0  0  0  0  0  0  0  0  0  0  0
    3.4730    0.2910    0.4070 C   0  0  0  0  0  0  0  0  0  0  0  0
    2.7020   -0.2050   -0.6660 N   0  0  0  0  0  0  0  0  0  0  0  0
    1.3040   -0.4140   -0.6800 C   0  0  0  0  0  0  0  0  0  0  0  0
    0.7600   -1.1430   -1.7530 C   0  0  0  0  0  0  0  0  0  0  0  0
   -0.5680   -1.3860   -1.8640 C   0  0  0  0  0  0  0  0  0  0  0  0
   -1.4350   -0.8950   -0.8750 C   0  0  0  0  0  0  0  0  0  0  0  0
   -2.8550   -1.1610   -1.0070 C   0  0  0  0  0  0  0  0  0  0  0  0
   -3.2670   -1.8150   -1.9800 O   0  0  0  0  0  0  0  0  0  0  0  0
   -3.7350   -0.7020   -0.0770 O   0  0  0  0  0  0  0  0  0  0  0  0
   -5.1150   -0.8510   -0.0350 C   0  0  0  0  0  0  0  0  0  0  0  0
   -5.8970   -0.2540   -1.1500 C   0  0  0  0  0  0  0  0  0  0  0  0
   -5.5660   -0.7680   -2.3850 O   0  0  0  0  0  0  0  0  0  0  0  0
   -0.9650   -0.1880    0.1780 C   0  0  0  0  0  0  0  0  0  0  0  0
   -1.8080    0.3380    1.2210 N   0  0  0  0  0  0  0  0  0  0  0  0
   -2.1180   -0.4270    2.3900 C   0  0  0  0  0  0  0  0  0  0  0  0
   -3.5600    0.4340    3.0640 S   0  0  0  0  0  0  0  0  0  0  0  0
   -3.6090    1.8210    1.9020 C   0  0  0  0  0  0  0  0  0  0  0  0
   -2.3460    1.6320    1.1660 C   0  0  0  0  0  0  0  0  0  0  0  0
   -1.8300    2.6400    0.5360 O   0  0  0  0  0  0  0  0  0  0  0  0
    0.4160    0.0460    0.2610 C   0  0  0  0  0  0  0  0  0  0  0  0
    4.9340    0.4720    0.3010 C   0  0  0  0  0  0  0  0  0  0  0  0
    5.6600    0.9350    1.3080 C   0  0  0  0  0  0  0  0  0  0  0  0
    7.0750    1.0120    0.9240 C   0  0  0  0  0  0  0  0  0  0  0  0
    7.0920    0.5260   -0.4600 C   0  0  0  0  0  0  0  0  0  0  0  0
    5.8440    0.2230   -0.7900 C   0  0  0  0  0  0  0  0  0  0  0  0
    5.4550   -0.2780   -2.0460 O   0  0  0  0  0  0  0  0  0  0  0  0
  1  2  2  0
  2  3  1  0
  2 22  1  0
  3  4  1  0
  4  5  2  0
  4 21  1  0
  5  6  1  0
  6  7  2  0
  7  8  1  0
  7 14  1  0
  8  9  2  0
  8 10  1  0
 10 11  1  0
 11 12  1  0
 12 13  1  0
 14 15  1  0
 14 21  2  0
 15 16  1  0
 15 19  1  0
 16 17  1  0
 17 18  1  0
 18 19  1  0
 19 20  2  0
 22 23  2  0
 22 26  1  0
 23 24  1  0
 24 25  1  0
 25 26  2  0
 26 27  1  0
M  END
