
     RDKit          3D

 27 29  0  0  0  0  0  0  0  0999 V2000
   -3.9770    2.6700   -0.3770 C   0  0  0  0  0  0  0  0  0  0  0  0
   -5.0090    1.5480   -0.1620 C   0  0  0  0  0  0  0  0  0  0  0  0
   -4.7110    0.9950    1.2110 C   0  0  0  0  0  0  0  0  0  0  0  0
   -3.0280    0.3470    1.2230 S   0  0  0  0  0  0  0  0  0  0  0  0
   -2.9400   -1.1370    0.2490 C   0  0  0  0  0  0  0  0  0  0  0  0
   -4.0060   -1.7390   -0.3050 N   0  0  0  0  0  0  0  0  0  0  0  0
   -3.8330   -2.8550   -1.0400 C   0  0  0  0  0  0  0  0  0  0  0  0
   -4.8800   -3.3630   -1.5280 O   0  0  0  0  0  0  0  0  0  0  0  0
   -2.6240   -3.4450   -1.2760 C   0  0  0  0  0  0  0  0  0  0  0  0
   -1.5050   -2.8370   -0.7110 C   0  0  0  0  0  0  0  0  0  0  0  0
   -0.3090   -3.3500   -0.8960 O   0  0  0  0  0  0  0  0  0  0  0  0
    0.7230   -2.7560   -0.3520 C   0  0  0  0  0  0  0  0  0  0  0  0
    1.9060   -3.2120   -0.5010 O   0  0  0  0  0  0  0  0  0  0  0  0
    0.6140   -1.6410    0.3920 N   0  0  0  0  0  0  0  0  0  0  0  0
    1.8020   -1.0130    0.9840 C   0  0  0  0  0  0  0  0  0  0  0  0
    2.3360   -0.0270   -0.0010 C   0  0  1  0  0  0  0  0  0  0  0  0
    1.4370    0.9630   -0.3370 O   0  0  0  0  0  0  0  0  0  0  0  0
    3.6120    0.5980    0.4480 C   0  0  0  0  0  0  0  0  0  0  0  0
    4.2090    0.2280    1.6390 C   0  0  0  0  0  0  0  0  0  0  0  0
    5.4100    0.7900    2.0830 C   0  0  0  0  0  0  0  0  0  0  0  0
    6.0380    1.7580    1.3110 C   0  0  0  0  0  0  0  0  0  0  0  0
    5.4630    2.1440    0.1190 C   0  0  0  0  0  0  0  0  0  0  0  0
    6.1180    3.1130   -0.6290 O   0  0  0  0  0  0  0  0  0  0  0  0
    4.2660    1.5600   -0.2900 C   0  0  0  0  0  0  0  0  0  0  0  0
   -0.5870   -1.0740    0.6130 C   0  0  0  0  0  0  0  0  0  0  0  0
   -0.6960   -0.0290    1.3090 O   0  0  0  0  0  0  0  0  0  0  0  0
   -1.6860   -1.6950    0.0400 C   0  0  0  0  0  0  0  0  0  0  0  0
  1  2  1  0
  2  3  1  0
  3  4  1  0
  4  5  1  0
  5  6  1  0
  5 27  2  0
  6  7  1  0
  7  8  2  0
  7  9  1  0
  9 10  2  0
 10 11  1  0
 10 27  1  0
 11 12  1  0
 12 13  2  0
 12 14  1  0
 14 15  1  0
 14 25  1  0
 15 16  1  0
 16 17  1  1
 16 18  1  0
 18 19  2  0
 18 24  1  0
 19 20  1  0
 20 21  2  0
 21 22  1  0
 22 23  1  0
 22 24  2  0
 25 26  2  0
 25 27  1  0
M  END
