
     RDKit          3D

 27 29  0  0  0  0  0  0  0  0999 V2000
    0.6570   -2.6550    2.4710 C   0  0  0  0  0  0  0  0  0  0  0  0
   -0.3610   -1.9940    1.6370 C   0  0  0  0  0  0  0  0  0  0  0  0
   -0.1880   -1.0370    0.7900 C   0  0  0  0  0  0  0  0  0  0  0  0
    1.0000   -0.3550    0.4210 C   0  0  0  0  0  0  0  0  0  0  0  0
    0.8560    0.5740   -0.4750 O   0  0  0  0  0  0  0  0  0  0  0  0
    2.3160   -0.5420    0.8890 N   0  0  0  0  0  0  0  0  0  0  0  0
    3.3770    0.2640    0.3760 N   0  0  0  0  0  0  0  0  0  0  0  0
    4.7100    0.0640    0.7730 C   0  0  0  0  0  0  0  0  0  0  0  0
    4.9820   -0.8590    1.6120 O   0  0  0  0  0  0  0  0  0  0  0  0
    5.7950    0.8940    0.2440 C   0  0  2  0  0  0  0  0  0  0  0  0
    6.0380    0.7020   -1.2470 C   0  0  0  0  0  0  0  0  0  0  0  0
    7.3730    1.4220   -1.3810 C   0  0  0  0  0  0  0  0  0  0  0  0
    7.9770    1.1560   -0.0170 C   0  0  0  0  0  0  0  0  0  0  0  0
    7.0380    0.5320    0.7630 O   0  0  0  0  0  0  0  0  0  0  0  0
   -2.0750   -2.6420    1.8730 S   0  0  0  0  0  0  0  0  0  0  0  0
   -3.1620   -1.7630    0.7700 C   0  0  0  0  0  0  0  0  0  0  0  0
   -3.7690   -0.5810    1.2070 C   0  0  0  0  0  0  0  0  0  0  0  0
   -4.6290    0.0920    0.3400 C   0  0  0  0  0  0  0  0  0  0  0  0
   -4.8810   -0.3950   -0.9290 C   0  0  0  0  0  0  0  0  0  0  0  0
   -4.2650   -1.5460   -1.3010 C   0  0  0  0  0  0  0  0  0  0  0  0
   -3.4050   -2.2630   -0.4980 C   0  0  0  0  0  0  0  0  0  0  0  0
   -2.7800   -3.4390   -0.8870 O   0  0  0  0  0  0  0  0  0  0  0  0
   -5.7110    0.1560   -1.9110 O   0  0  0  0  0  0  0  0  0  0  0  0
   -6.1800    1.5070   -2.0240 C   0  0  0  0  0  0  0  0  0  0  0  0
   -6.8320    1.9520   -0.7480 C   0  0  0  0  0  0  0  0  0  0  0  0
   -5.8020    2.3670    0.2720 C   0  0  0  0  0  0  0  0  0  0  0  0
   -5.1700    1.2510    0.8860 O   0  0  0  0  0  0  0  0  0  0  0  0
  1  2  1  0
  2  3  2  3
  2 15  1  0
  3  4  1  0
  4  5  2  0
  4  6  1  0
  6  7  1  0
  7  8  1  0
  8  9  2  0
 10  8  1  1
 10 11  1  0
 10 14  1  0
 11 12  1  0
 12 13  1  0
 13 14  1  0
 15 16  1  0
 16 17  2  0
 16 21  1  0
 17 18  1  0
 18 19  2  0
 18 27  1  0
 19 20  1  0
 19 23  1  0
 20 21  2  0
 21 22  1  0
 23 24  1  0
 24 25  1  0
 25 26  1  0
 26 27  1  0
M  END
