
     RDKit          3D

 27 29  0  0  0  0  0  0  0  0999 V2000
   -7.8960   -0.3530    2.1300 C   0  0  0  0  0  0  0  0  0  0  0  0
   -7.8760    0.7000    1.0520 C   0  0  0  0  0  0  0  0  0  0  0  0
   -6.7430    0.4870    0.2250 O   0  0  0  0  0  0  0  0  0  0  0  0
   -5.5020    0.5340    0.7880 C   0  0  0  0  0  0  0  0  0  0  0  0
   -5.3930    0.7640    2.0180 O   0  0  0  0  0  0  0  0  0  0  0  0
   -4.3440    0.3140   -0.0620 C   0  0  0  0  0  0  0  0  0  0  0  0
   -2.6320    0.3410    0.5120 S   0  0  0  0  0  0  0  0  0  0  0  0
   -1.9910   -0.0220   -1.2180 C   0  0  0  0  0  0  0  0  0  0  0  0
   -0.5690   -0.1320   -1.4320 N   0  0  0  0  0  0  0  0  0  0  0  0
    0.3780    0.0190   -0.4040 C   0  0  0  0  0  0  0  0  0  0  0  0
   -0.0750    0.2620    0.7510 O   0  0  0  0  0  0  0  0  0  0  0  0
    1.8320   -0.0850   -0.5760 C   0  0  0  0  0  0  0  0  0  0  0  0
    2.4230   -0.3340   -1.7240 C   0  0  0  0  0  0  0  0  0  0  0  0
    3.8860   -0.4440   -1.9290 C   0  0  1  0  0  0  0  0  0  0  0  0
    4.2850    0.4550   -2.9150 O   0  0  0  0  0  0  0  0  0  0  0  0
    4.6360   -0.2390   -0.6690 C   0  0  0  0  0  0  0  0  0  0  0  0
    6.0360   -0.3080   -0.6710 C   0  0  0  0  0  0  0  0  0  0  0  0
    6.7600   -0.1220    0.4830 C   0  0  0  0  0  0  0  0  0  0  0  0
    8.1540   -0.1950    0.4570 O   0  0  0  0  0  0  0  0  0  0  0  0
    6.1510    0.1390    1.6910 C   0  0  0  0  0  0  0  0  0  0  0  0
    6.9670    0.3340    2.9180 C   0  0  0  0  0  0  0  0  0  0  0  0
    4.7760    0.2050    1.6860 C   0  0  0  0  0  0  0  0  0  0  0  0
    4.0280    0.0180    0.5200 C   0  0  0  0  0  0  0  0  0  0  0  0
    2.6480    0.0880    0.5330 O   0  0  0  0  0  0  0  0  0  0  0  0
   -2.9600   -0.0870   -1.8020 N   0  0  0  0  0  0  0  0  0  0  0  0
   -4.2050    0.0530   -1.3890 C   0  0  0  0  0  0  0  0  0  0  0  0
   -5.4140   -0.0590   -2.2840 C   0  0  0  0  0  0  0  0  0  0  0  0
  1  2  1  0
  2  3  1  0
  3  4  1  0
  4  5  2  0
  4  6  1  0
  6  7  1  0
  6 26  2  0
  7  8  1  0
  8  9  1  0
  8 25  2  0
  9 10  1  0
 10 11  2  0
 10 12  1  0
 12 13  2  0
 12 24  1  0
 13 14  1  0
 14 15  1  6
 14 16  1  0
 16 17  2  0
 16 23  1  0
 17 18  1  0
 18 19  1  0
 18 20  2  0
 20 21  1  0
 20 22  1  0
 22 23  2  0
 23 24  1  0
 25 26  1  0
 26 27  1  0
M  END
