
     RDKit          3D

 25 25  0  0  0  0  0  0  0  0999 V2000
   -0.6960   -0.8980    2.2660 N   0  0  0  0  0  0  0  0  0  0  0  0
   -1.8300   -1.0770    1.4350 C   0  0  1  0  0  0  0  0  0  0  0  0
   -3.0020   -0.5390    2.0470 O   0  0  0  0  0  0  0  0  0  0  0  0
   -1.7570   -0.7480   -0.0010 C   0  0  1  0  0  0  0  0  0  0  0  0
   -3.1850   -1.1350   -0.5100 C   0  0  0  0  0  0  0  0  0  0  0  0
   -4.1860   -0.4730    0.0970 O   0  0  0  0  0  0  0  0  0  0  0  0
   -1.4350    0.6200   -0.4550 C   0  0  0  0  0  0  0  0  0  0  0  0
   -2.1970    0.9630   -1.7630 C   0  0  0  0  0  0  0  0  0  0  0  0
   -1.8670    2.1970   -2.2550 O   0  0  0  0  0  0  0  0  0  0  0  0
   -0.6320    1.5390   -0.0580 C   0  0  0  0  0  0  0  0  0  0  0  0
    0.3570    1.7210    1.0060 C   0  0  2  0  0  0  0  0  0  0  0  0
   -0.1920    2.5380    2.0980 C   0  0  0  0  0  0  0  0  0  0  0  0
   -1.2160    2.1470    2.7590 O   0  0  0  0  0  0  0  0  0  0  0  0
    0.3870    3.7450    2.4340 O   0  0  0  0  0  0  0  0  0  0  0  0
    1.4850    2.4660    0.4830 O   0  0  0  0  0  0  0  0  0  0  0  0
    2.5830    1.6490    0.3600 C   0  0  0  0  0  0  0  0  0  0  0  0
    2.9330    1.2110   -1.0230 C   0  0  0  0  0  0  0  0  0  0  0  0
    2.1330    0.2770   -1.5930 O   0  0  0  0  0  0  0  0  0  0  0  0
    2.5550   -1.0230   -1.6300 C   0  0  1  0  0  0  0  0  0  0  0  0
    3.3720   -1.4790   -0.4560 C   0  0  0  0  0  0  0  0  0  0  0  0
    3.7100   -2.8370   -0.6740 O   0  0  0  0  0  0  0  0  0  0  0  0
    1.3690   -1.8100   -1.7380 O   0  0  0  0  0  0  0  0  0  0  0  0
    0.4570   -1.1120   -0.9870 C   0  0  0  0  0  0  0  0  0  0  0  0
   -0.8780   -1.7460   -0.7790 C   0  0  1  0  0  0  0  0  0  0  0  0
   -0.8810   -2.9540   -0.1500 O   0  0  0  0  0  0  0  0  0  0  0  0
  2  1  1  1
  2  3  1  0
  2  4  1  0
  4  5  1  6
  4  7  1  0
  4 24  1  0
  5  6  1  0
  7  8  1  0
  7 10  2  0
  8  9  1  0
 10 11  1  0
 11 12  1  1
 11 15  1  0
 12 13  2  0
 12 14  1  0
 15 16  1  0
 16 17  1  0
 17 18  1  0
 18 19  1  0
 19 20  1  1
 19 22  1  0
 20 21  1  0
 22 23  1  0
 23 24  1  0
 24 25  1  1
M  END
