
     RDKit          3D

 23 24  0  0  0  0  0  0  0  0999 V2000
   -2.7990    1.3160   -1.2180 C   0  0  0  0  0  0  0  0  0  0  0  0
   -1.7720    0.4710   -0.5070 C   0  0  0  0  0  0  0  0  0  0  0  0
   -0.5060    0.9390   -0.3400 C   0  0  0  0  0  0  0  0  0  0  0  0
   -0.2030    2.2340   -0.8780 C   0  0  0  0  0  0  0  0  0  0  0  0
    0.8340    2.9820   -0.8820 C   0  0  0  0  0  0  0  0  0  0  0  0
    0.7510    4.3460   -1.5970 C   0  0  0  0  0  0  0  0  0  0  0  0
    1.0110    5.3090   -0.6380 O   0  0  0  0  0  0  0  0  0  0  0  0
    0.4090    0.1670    0.5130 C   0  0  0  0  0  0  0  0  0  0  0  0
   -0.0060   -0.9210    1.1090 C   0  0  0  0  0  0  0  0  0  0  0  0
    0.8780   -1.7320    1.9740 C   0  0  0  0  0  0  0  0  0  0  0  0
    0.4980   -2.7880    2.5160 O   0  0  0  0  0  0  0  0  0  0  0  0
    2.2570   -1.2650    2.1960 C   0  0  0  0  0  0  0  0  0  0  0  0
    2.7380   -0.6000    0.9230 C   0  0  1  0  0  0  0  0  0  0  0  0
    4.1510   -0.1550    1.1520 C   0  0  0  0  0  0  0  0  0  0  0  0
    2.6630   -1.5350   -0.2440 C   0  0  0  0  0  0  0  0  0  0  0  0
    1.8490    0.6020    0.6070 C   0  0  0  0  0  0  0  0  0  0  0  0
   -1.4260   -1.4330    1.0550 C   0  0  1  0  0  0  0  0  0  0  0  0
   -2.0840   -1.0540    2.2400 O   0  0  0  0  0  0  0  0  0  0  0  0
   -2.1200   -0.8830   -0.1120 C   0  0  0  0  0  0  0  0  0  0  0  0
   -3.0020   -1.5850   -0.8270 C   0  0  0  0  0  0  0  0  0  0  0  0
   -3.6130   -1.0500   -1.9740 O   0  0  0  0  0  0  0  0  0  0  0  0
   -3.4260   -2.9690   -0.5030 C   0  0  0  0  0  0  0  0  0  0  0  0
   -3.0940   -3.8090   -1.5920 O   0  0  0  0  0  0  0  0  0  0  0  0
  1  2  1  0
  2  3  2  0
  2 19  1  0
  3  4  1  0
  3  8  1  0
  4  5  2  3
  5  6  1  0
  6  7  1  0
  8  9  2  0
  8 16  1  0
  9 10  1  0
  9 17  1  0
 10 11  2  0
 10 12  1  0
 12 13  1  0
 13 14  1  1
 13 15  1  0
 13 16  1  0
 17 18  1  1
 17 19  1  0
 19 20  2  3
 20 21  1  0
 20 22  1  0
 22 23  1  0
M  END
