
     RDKit          3D

 16 17  0  0  0  0  0  0  0  0999 V2000
    3.6920   -1.9160    0.6370 C   0  0  0  0  0  0  0  0  0  0  0  0
    4.3130   -0.5460    0.4950 C   0  0  0  0  0  0  0  0  0  0  0  0
    3.9740    0.0290   -0.7180 O   0  0  0  0  0  0  0  0  0  0  0  0
    2.7050    0.3370   -1.1670 C   0  0  0  0  0  0  0  0  0  0  0  0
    2.5870    0.9100   -2.4330 C   0  0  0  0  0  0  0  0  0  0  0  0
    1.4040    1.2440   -2.9570 N   0  0  0  0  0  0  0  0  0  0  0  0
    0.2810    1.0360   -2.2730 C   0  0  0  0  0  0  0  0  0  0  0  0
    0.3310    0.4750   -1.0200 C   0  0  0  0  0  0  0  0  0  0  0  0
   -0.8790    0.2660   -0.2820 N   0  0  0  0  0  0  0  0  0  0  0  0
   -0.7400   -0.6820    0.7950 C   0  0  0  0  0  0  0  0  0  0  0  0
   -2.0820   -1.4050    0.9380 C   0  0  0  0  0  0  0  0  0  0  0  0
   -2.9670   -0.4790    1.7450 C   0  0  0  0  0  0  0  0  0  0  0  0
   -3.7480    0.2530    0.7550 N   0  0  0  0  0  0  0  0  0  0  0  0
   -3.0290    1.3780    0.2570 C   0  0  0  0  0  0  0  0  0  0  0  0
   -1.9670    1.0530   -0.7640 C   0  0  0  0  0  0  0  0  0  0  0  0
    1.5570    0.1190   -0.4550 C   0  0  0  0  0  0  0  0  0  0  0  0
  1  2  1  0
  2  3  1  0
  3  4  1  0
  4  5  2  0
  4 16  1  0
  5  6  1  0
  6  7  2  0
  7  8  1  0
  8  9  1  0
  8 16  2  0
  9 10  1  0
  9 15  1  0
 10 11  1  0
 11 12  1  0
 12 13  1  0
 13 14  1  0
 14 15  1  0
M  CHG  1  13   1
M  END
