
     RDKit          3D

 25 26  0  0  0  0  0  0  0  0999 V2000
   -5.1690    0.9690   -1.1170 C   0  0  0  0  0  0  0  0  0  0  0  0
   -4.5570   -0.0770   -0.2490 C   0  0  2  0  0  0  0  0  0  0  0  0
   -3.2020    0.3270    0.2920 C   0  0  0  0  0  0  0  0  0  0  0  0
   -2.2720    0.4610   -0.7360 O   0  0  0  0  0  0  0  0  0  0  0  0
   -1.0420    0.8270   -0.2500 C   0  0  2  0  0  0  0  0  0  0  0  0
   -0.7350    2.1210   -0.7340 O   0  0  0  0  0  0  0  0  0  0  0  0
    0.0450   -0.0860   -0.6570 C   0  0  0  0  0  0  0  0  0  0  0  0
   -0.0270   -1.2920   -0.3280 O   0  0  0  0  0  0  0  0  0  0  0  0
    1.1730    0.3370   -1.4040 N   0  0  0  0  0  0  0  0  0  0  0  0
    2.2070   -0.5780   -1.7790 C   0  0  0  0  0  0  0  0  0  0  0  0
    2.8950   -1.2330   -0.6020 C   0  0  1  0  0  0  0  0  0  0  0  0
    3.8800   -2.1010   -1.0530 O   0  0  0  0  0  0  0  0  0  0  0  0
    5.0150   -1.3610   -1.3010 C   0  0  0  0  0  0  0  0  0  0  0  0
    4.8160   -0.1160   -0.4780 C   0  0  2  0  0  0  0  0  0  0  0  0
    5.9350    0.0910    0.5080 C   0  0  2  0  0  0  0  0  0  0  0  0
    6.0880   -0.9730    1.3840 O   0  0  0  0  0  0  0  0  0  0  0  0
    5.6610    1.3590    1.2890 C   0  0  0  0  0  0  0  0  0  0  0  0
    6.7050    1.6530    2.1600 O   0  0  0  0  0  0  0  0  0  0  0  0
    3.5900   -0.2800    0.1630 O   0  0  0  0  0  0  0  0  0  0  0  0
   -4.3840   -1.3070   -0.9050 O   0  0  0  0  0  0  0  0  0  0  0  0
   -4.5230   -2.2940    0.0490 C   0  0  0  0  0  0  0  0  0  0  0  0
   -5.1430   -1.7440    1.1480 O   0  0  0  0  0  0  0  0  0  0  0  0
   -5.5120   -0.4580    0.8440 C   0  0  1  0  0  0  0  0  0  0  0  0
   -5.4430    0.4760    2.0280 C   0  0  0  0  0  0  0  0  0  0  0  0
   -5.8160    1.7660    1.7090 O   0  0  0  0  0  0  0  0  0  0  0  0
  2  1  1  6
  2  3  1  0
  2 20  1  0
  2 23  1  0
  3  4  1  0
  4  5  1  0
  5  6  1  6
  5  7  1  0
  7  8  2  0
  7  9  1  0
  9 10  1  0
 11 10  1  6
 11 12  1  0
 11 19  1  0
 12 13  1  0
 14 13  1  1
 14 15  1  0
 14 19  1  0
 15 16  1  1
 15 17  1  0
 17 18  1  0
 20 21  1  0
 21 22  1  0
 22 23  1  0
 23 24  1  1
 24 25  1  0
M  END
