
     RDKit          3D

 25 26  0  0  0  0  0  0  0  0999 V2000
   -6.0650    1.4110   -0.5810 C   0  0  0  0  0  0  0  0  0  0  0  0
   -4.9110    1.2880    0.1520 O   0  0  0  0  0  0  0  0  0  0  0  0
   -4.3750    0.0250    0.1020 C   0  0  2  0  0  0  0  0  0  0  0  0
   -4.4270   -0.5120    1.3890 O   0  0  0  0  0  0  0  0  0  0  0  0
   -3.3390   -0.1910    2.1660 C   0  0  0  0  0  0  0  0  0  0  0  0
   -2.5140    0.9360    1.5860 C   0  0  0  0  0  0  0  0  0  0  0  0
   -2.1390    0.6510    0.1700 C   0  0  1  0  0  0  0  0  0  0  0  0
   -1.9450    1.9450   -0.6360 C   0  0  0  0  0  0  0  0  0  0  0  0
   -1.3910    1.4020   -1.7960 O   0  0  0  0  0  0  0  0  0  0  0  0
   -0.2810    0.7170   -1.2440 C   0  0  0  0  0  0  0  0  0  0  0  0
   -0.7990    0.0210   -0.0210 C   0  0  2  0  0  0  0  0  0  0  0  0
   -1.0140   -1.3460   -0.2730 O   0  0  0  0  0  0  0  0  0  0  0  0
    0.0770    0.1550    1.1810 C   0  0  0  0  0  0  0  0  0  0  0  0
    1.3990   -0.4470    1.0360 C   0  0  0  0  0  0  0  0  0  0  0  0
    2.2110   -0.3910    1.9880 O   0  0  0  0  0  0  0  0  0  0  0  0
    1.8490   -1.0970   -0.1010 O   0  0  0  0  0  0  0  0  0  0  0  0
    3.1220   -1.6590   -0.1970 C   0  0  1  0  0  0  0  0  0  0  0  0
    2.9800   -3.1540   -0.3900 C   0  0  0  0  0  0  0  0  0  0  0  0
    2.3020   -3.6990    0.6990 O   0  0  0  0  0  0  0  0  0  0  0  0
    3.9630   -1.0590   -1.2940 C   0  0  1  0  0  0  0  0  0  0  0  0
    3.3880   -1.2130   -2.5470 O   0  0  0  0  0  0  0  0  0  0  0  0
    4.3510    0.3560   -1.0410 C   0  0  0  0  0  0  0  0  0  0  0  0
    4.9220    0.5280    0.1950 O   0  0  0  0  0  0  0  0  0  0  0  0
    5.2570    1.8320    0.3800 N   0  0  0  0  0  0  0  0  0  0  0  0
   -3.1320   -0.0570   -0.4680 O   0  0  0  0  0  0  0  0  0  0  0  0
  1  2  1  0
  3  2  1  1
  3  4  1  0
  3 25  1  0
  4  5  1  0
  5  6  1  0
  7  6  1  1
  7  8  1  0
  7 11  1  0
  7 25  1  0
  8  9  1  0
  9 10  1  0
 10 11  1  0
 11 12  1  6
 11 13  1  0
 13 14  1  0
 14 15  2  0
 14 16  1  0
 16 17  1  0
 17 18  1  6
 17 20  1  0
 18 19  1  0
 20 21  1  6
 20 22  1  0
 22 23  1  0
 23 24  1  0
M  END
