
     RDKit          3D

 25 26  0  0  0  0  0  0  0  0999 V2000
   -2.5600   -2.1840   -0.8540 C   0  0  0  0  0  0  0  0  0  0  0  0
   -2.2750   -0.9930    0.0190 C   0  0  1  0  0  0  0  0  0  0  0  0
   -0.7940   -0.9760    0.3340 C   0  0  2  0  0  0  0  0  0  0  0  0
   -0.5660    0.0920    1.2150 O   0  0  0  0  0  0  0  0  0  0  0  0
   -0.0440   -0.7250   -0.9350 C   0  0  2  0  0  0  0  0  0  0  0  0
   -0.2820   -1.7120   -1.8860 O   0  0  0  0  0  0  0  0  0  0  0  0
    1.3810   -0.6030   -0.7940 N   0  0  0  0  0  0  0  0  0  0  0  0
    2.1270    0.5500   -1.1290 C   0  0  0  0  0  0  0  0  0  0  0  0
    1.4240    1.5180   -1.5860 O   0  0  0  0  0  0  0  0  0  0  0  0
    3.5580    0.7540   -1.0150 C   0  0  1  0  0  0  0  0  0  0  0  0
    4.0010    2.0120   -1.8090 C   0  0  0  0  0  0  0  0  0  0  0  0
    5.3850    1.9200   -1.8540 O   0  0  0  0  0  0  0  0  0  0  0  0
    6.0100    1.8380   -0.6420 C   0  0  0  0  0  0  0  0  0  0  0  0
    5.4780    0.9300    0.2580 O   0  0  0  0  0  0  0  0  0  0  0  0
    4.0870    1.0470    0.3720 C   0  0  2  0  0  0  0  0  0  0  0  0
    3.6580    0.0900    1.4080 C   0  0  0  0  0  0  0  0  0  0  0  0
    2.4670    0.0250    1.7640 O   0  0  0  0  0  0  0  0  0  0  0  0
    4.5450   -0.7850    2.0390 O   0  0  0  0  0  0  0  0  0  0  0  0
   -2.6070    0.2170   -0.5810 O   0  0  0  0  0  0  0  0  0  0  0  0
   -3.9530    0.2820   -0.9120 C   0  0  0  0  0  0  0  0  0  0  0  0
   -4.7930   -0.0260    0.3130 C   0  0  0  0  0  0  0  0  0  0  0  0
   -3.8200   -0.1060    1.4850 C   0  0  1  0  0  0  0  0  0  0  0  0
   -4.5710   -0.3880    2.7510 C   0  0  0  0  0  0  0  0  0  0  0  0
   -3.6280   -0.4680    3.7900 O   0  0  0  0  0  0  0  0  0  0  0  0
   -2.9230   -1.1340    1.2530 O   0  0  0  0  0  0  0  0  0  0  0  0
  2  1  1  6
  2  3  1  0
  2 19  1  0
  2 25  1  0
  3  4  1  1
  3  5  1  0
  5  6  1  6
  5  7  1  0
  7  8  1  0
  8  9  2  0
 10  8  1  1
 10 11  1  0
 10 15  1  0
 11 12  1  0
 12 13  1  0
 13 14  1  0
 14 15  1  0
 15 16  1  1
 16 17  2  0
 16 18  1  0
 19 20  1  0
 20 21  1  0
 21 22  1  0
 22 23  1  1
 22 25  1  0
 23 24  1  0
M  END
