
     RDKit          3D

 25 26  0  0  0  0  0  0  0  0999 V2000
    4.0650    0.2160   -0.1990 O   0  0  0  0  0  0  0  0  0  0  0  0
    3.0260    0.6870    0.3000 C   0  0  0  0  0  0  0  0  0  0  0  0
    3.0590    1.2290    1.5730 O   0  0  0  0  0  0  0  0  0  0  0  0
    4.2020    1.2930    2.3710 C   0  0  0  0  0  0  0  0  0  0  0  0
    3.8140    1.9580    3.6890 C   0  0  0  0  0  0  0  0  0  0  0  0
    3.3260    3.2350    3.4740 O   0  0  0  0  0  0  0  0  0  0  0  0
    1.7690    0.6730   -0.4470 C   0  0  2  0  0  0  0  0  0  0  0  0
    0.7440    1.2610    0.3490 O   0  0  0  0  0  0  0  0  0  0  0  0
    0.0510    0.2540    0.9750 N   0  0  0  0  0  0  0  0  0  0  0  0
   -0.8190   -0.3010   -0.0750 C   0  0  1  0  0  0  0  0  0  0  0  0
   -1.8190    0.6190   -0.2770 O   0  0  0  0  0  0  0  0  0  0  0  0
   -3.0840    0.1930    0.0020 C   0  0  2  0  0  0  0  0  0  0  0  0
   -4.0020    0.1740   -1.2000 C   0  0  0  0  0  0  0  0  0  0  0  0
   -5.3090   -0.4200   -0.7820 C   0  0  0  0  0  0  0  0  0  0  0  0
   -5.8570    0.1590    0.3480 O   0  0  0  0  0  0  0  0  0  0  0  0
   -5.0090    0.0990    1.4460 C   0  0  0  0  0  0  0  0  0  0  0  0
   -3.7900    0.9500    1.0850 C   0  0  2  0  0  0  0  0  0  0  0  0
   -4.3190    2.1210    0.5330 O   0  0  0  0  0  0  0  0  0  0  0  0
   -0.0540   -0.5290   -1.2260 O   0  0  0  0  0  0  0  0  0  0  0  0
    1.2740   -0.6860   -0.7910 C   0  0  1  0  0  0  0  0  0  0  0  0
    2.0900   -1.5040   -1.7110 C   0  0  2  0  0  0  0  0  0  0  0  0
    2.3340   -0.9750   -3.0750 C   0  0  0  0  0  0  0  0  0  0  0  0
    2.9950    0.2350   -3.0860 O   0  0  0  0  0  0  0  0  0  0  0  0
    1.4080   -2.8630   -1.8420 C   0  0  0  0  0  0  0  0  0  0  0  0
    2.1160   -3.6960   -2.6950 O   0  0  0  0  0  0  0  0  0  0  0  0
  1  2  2  0
  2  3  1  0
  7  2  1  1
  3  4  1  0
  4  5  1  0
  5  6  1  0
  7  8  1  0
  7 20  1  0
  8  9  1  0
  9 10  1  0
 10 11  1  6
 10 19  1  0
 12 11  1  6
 12 13  1  0
 12 17  1  0
 13 14  1  0
 14 15  1  0
 15 16  1  0
 16 17  1  0
 17 18  1  6
 20 19  1  6
 20 21  1  0
 21 22  1  6
 21 24  1  0
 22 23  1  0
 24 25  1  0
M  END
