
     RDKit          3D

 25 26  0  0  0  0  0  0  0  0999 V2000
   -2.1440   -2.9460    1.6300 C   0  0  0  0  0  0  0  0  0  0  0  0
   -1.9290   -2.6210    0.2730 O   0  0  0  0  0  0  0  0  0  0  0  0
   -0.6280   -2.2220    0.0800 C   0  0  1  0  0  0  0  0  0  0  0  0
   -0.0400   -3.2630   -0.6930 O   0  0  0  0  0  0  0  0  0  0  0  0
   -0.3940   -0.8980   -0.5440 C   0  0  1  0  0  0  0  0  0  0  0  0
   -1.0520   -0.9370   -1.9340 C   0  0  0  0  0  0  0  0  0  0  0  0
   -0.4770   -1.9530   -2.7130 O   0  0  0  0  0  0  0  0  0  0  0  0
   -0.9220    0.2170    0.2590 C   0  0  0  0  0  0  0  0  0  0  0  0
   -2.3740    0.2620    0.5020 C   0  0  0  0  0  0  0  0  0  0  0  0
   -3.2460   -0.4690   -0.0290 O   0  0  0  0  0  0  0  0  0  0  0  0
   -2.9260    1.2230    1.4370 N   0  0  0  0  0  0  0  0  0  0  0  0
   -4.2380    1.3030    1.6950 O   0  0  0  0  0  0  0  0  0  0  0  0
   -4.6300    2.6420    1.5250 C   0  0  0  0  0  0  0  0  0  0  0  0
   -5.9780    2.7090    1.7970 O   0  0  0  0  0  0  0  0  0  0  0  0
    1.0880   -0.7680   -0.8370 C   0  0  2  0  0  0  0  0  0  0  0  0
    1.4250   -1.8150   -1.7090 O   0  0  0  0  0  0  0  0  0  0  0  0
    1.9520   -0.8930    0.3740 C   0  0  0  0  0  0  0  0  0  0  0  0
    3.2280   -0.1920   -0.1200 C   0  0  2  0  0  0  0  0  0  0  0  0
    4.1540   -0.0050    0.8650 O   0  0  0  0  0  0  0  0  0  0  0  0
    2.5940    1.1010   -0.6270 C   0  0  2  0  0  0  0  0  0  0  0  0
    3.5340    1.9720   -1.3660 C   0  0  0  0  0  0  0  0  0  0  0  0
    3.8060    2.9860   -0.4270 O   0  0  0  0  0  0  0  0  0  0  0  0
    3.1980    2.6350    0.7550 C   0  0  0  0  0  0  0  0  0  0  0  0
    2.1320    1.7910    0.4690 O   0  0  0  0  0  0  0  0  0  0  0  0
    1.4790    0.5130   -1.4840 C   0  0  0  0  0  0  0  0  0  0  0  0
  1  2  1  0
  2  3  1  0
  3  4  1  6
  3  5  1  0
  5  6  1  6
  5  8  1  0
  5 15  1  0
  6  7  1  0
  8  9  1  0
  9 10  2  0
  9 11  1  0
 11 12  1  0
 12 13  1  0
 13 14  1  0
 15 16  1  6
 15 17  1  0
 15 25  1  0
 17 18  1  0
 18 19  1  1
 18 20  1  0
 20 21  1  6
 20 24  1  0
 20 25  1  0
 21 22  1  0
 22 23  1  0
 23 24  1  0
M  END
