
     RDKit          3D

 19 21  0  0  0  0  0  0  0  0999 V2000
    5.5760    1.3580    0.4660 C   0  0  0  0  0  0  0  0  0  0  0  0
    4.3500    2.0030    0.6280 C   0  0  0  0  0  0  0  0  0  0  0  0
    3.2060    1.3500    0.2560 C   0  0  0  0  0  0  0  0  0  0  0  0
    3.2240    0.0710   -0.2760 C   0  0  0  0  0  0  0  0  0  0  0  0
    1.9900   -0.5930   -0.6600 C   0  0  0  0  0  0  0  0  0  0  0  0
    1.9610   -1.4960   -1.7030 C   0  0  0  0  0  0  0  0  0  0  0  0
    0.8180   -2.0930   -2.0370 N   0  0  0  0  0  0  0  0  0  0  0  0
   -0.3170   -1.8100   -1.3500 C   0  0  0  0  0  0  0  0  0  0  0  0
   -0.3390   -0.9170   -0.3020 C   0  0  0  0  0  0  0  0  0  0  0  0
   -1.5500   -0.6380    0.4250 N   0  0  0  0  0  0  0  0  0  0  0  0
   -2.6780   -1.4910    0.2720 C   0  0  0  0  0  0  0  0  0  0  0  0
   -3.7120   -0.9880   -0.6890 C   0  0  0  0  0  0  0  0  0  0  0  0
   -4.3300    0.3180   -0.2800 C   0  0  0  0  0  0  0  0  0  0  0  0
   -3.3980    1.3200    0.1120 N   0  0  0  0  0  0  0  0  0  0  0  0
   -2.9000    1.0420    1.4470 C   0  0  0  0  0  0  0  0  0  0  0  0
   -1.4570    0.5470    1.2540 C   0  0  0  0  0  0  0  0  0  0  0  0
    0.8370   -0.3080    0.0350 C   0  0  0  0  0  0  0  0  0  0  0  0
    4.4570   -0.5520   -0.4290 C   0  0  0  0  0  0  0  0  0  0  0  0
    5.6130    0.0820   -0.0640 C   0  0  0  0  0  0  0  0  0  0  0  0
  1  2  2  0
  1 19  1  0
  2  3  1  0
  3  4  2  0
  4  5  1  0
  4 18  1  0
  5  6  2  0
  5 17  1  0
  6  7  1  0
  7  8  2  0
  8  9  1  0
  9 10  1  0
  9 17  2  0
 10 11  1  0
 10 16  1  0
 11 12  1  0
 12 13  1  0
 13 14  1  0
 14 15  1  0
 15 16  1  0
 18 19  2  0
M  CHG  1  14   1
M  END
