
     RDKit          3D

 16 16  0  0  0  0  0  0  0  0999 V2000
   -3.0540   -2.4900    1.0880 O   0  0  0  0  0  0  0  0  0  0  0  0
   -2.0640   -1.7180    1.0700 C   0  0  0  0  0  0  0  0  0  0  0  0
   -1.0430   -1.9780    1.9660 O   0  0  0  0  0  0  0  0  0  0  0  0
   -2.0090   -0.5980    0.1350 C   0  0  0  0  0  0  0  0  0  0  0  0
   -3.0240   -0.3640   -0.7360 N   0  0  0  0  0  0  0  0  0  0  0  0
   -2.9510    0.6680   -1.5840 C   0  0  0  0  0  0  0  0  0  0  0  0
   -3.9020    0.8590   -2.3770 O   0  0  0  0  0  0  0  0  0  0  0  0
   -1.8320    1.4650   -1.5410 C   0  0  0  0  0  0  0  0  0  0  0  0
   -1.7570    2.4340   -2.3320 O   0  0  0  0  0  0  0  0  0  0  0  0
   -0.8060    1.2510   -0.6790 N   0  0  0  0  0  0  0  0  0  0  0  0
   -0.8810    0.2120    0.1730 C   0  0  0  0  0  0  0  0  0  0  0  0
    0.4110   -0.1710    1.3400 S   0  0  0  0  0  0  0  0  0  0  0  0
    1.8470    0.8960    1.1940 C   0  0  0  0  0  0  0  0  0  0  0  0
    2.6490    0.6970   -0.0670 C   0  0  0  0  0  0  0  0  0  0  0  0
    3.1800   -0.7410   -0.1430 C   0  0  0  0  0  0  0  0  0  0  0  0
    3.9070   -0.8770   -1.3110 F   0  0  0  0  0  0  0  0  0  0  0  0
  1  2  2  0
  2  3  1  0
  2  4  1  0
  4  5  1  0
  4 11  2  0
  5  6  1  0
  6  7  2  0
  6  8  1  0
  8  9  2  0
  8 10  1  0
 10 11  1  0
 11 12  1  0
 12 13  1  0
 13 14  1  0
 14 15  1  0
 15 16  1  0
M  END
