
     RDKit          3D

 19 19  0  0  0  0  0  0  0  0999 V2000
    4.3120    2.9920    1.5130 C   0  0  0  0  0  0  0  0  0  0  0  0
    3.3360    1.8580    1.4760 C   0  0  0  0  0  0  0  0  0  0  0  0
    2.4440    1.8060    2.3530 O   0  0  0  0  0  0  0  0  0  0  0  0
    3.4060    0.8610    0.4810 N   0  0  0  0  0  0  0  0  0  0  0  0
    2.5620   -0.2390    0.3370 C   0  0  0  0  0  0  0  0  0  0  0  0
    1.5550   -0.5750    1.0710 C   0  0  0  0  0  0  0  0  0  0  0  0
    0.7540   -1.7530    0.8110 N   0  0  0  0  0  0  0  0  0  0  0  0
    0.1230   -1.9540   -0.4440 C   0  0  0  0  0  0  0  0  0  0  0  0
    0.4150   -2.7760   -1.4230 C   0  0  0  0  0  0  0  0  0  0  0  0
    1.5550   -3.7400   -1.4190 C   0  0  0  0  0  0  0  0  0  0  0  0
   -0.4790   -2.6580   -2.5150 N   0  0  0  0  0  0  0  0  0  0  0  0
   -1.4450   -1.6400   -2.1770 C   0  0  0  0  0  0  0  0  0  0  0  0
   -2.3880   -1.2860   -2.9380 O   0  0  0  0  0  0  0  0  0  0  0  0
   -1.0700   -1.1860   -0.8610 C   0  0  0  0  0  0  0  0  0  0  0  0
   -1.6810   -0.2500   -0.1480 C   0  0  0  0  0  0  0  0  0  0  0  0
   -2.8500    0.4700   -0.6110 C   0  0  0  0  0  0  0  0  0  0  0  0
   -3.4000    1.3950    0.1710 C   0  0  0  0  0  0  0  0  0  0  0  0
   -4.5920    2.1360   -0.2900 C   0  0  0  0  0  0  0  0  0  0  0  0
   -2.8290    1.6880    1.4970 C   0  0  0  0  0  0  0  0  0  0  0  0
  1  2  1  0
  2  3  2  0
  2  4  1  0
  4  5  1  0
  5  6  2  3
  6  7  1  0
  7  8  1  0
  8  9  2  0
  8 14  1  0
  9 10  1  0
  9 11  1  0
 11 12  1  0
 12 13  2  0
 12 14  1  0
 14 15  2  3
 15 16  1  0
 16 17  2  3
 17 18  1  0
 17 19  1  0
M  END
