
     RDKit          3D

 19 19  0  0  0  0  0  0  0  0999 V2000
   -3.1960   -1.7680   -1.8320 C   0  0  0  0  0  0  0  0  0  0  0  0
   -2.5570   -1.7550   -0.6690 C   0  0  0  0  0  0  0  0  0  0  0  0
   -3.2800   -1.6670    0.6270 C   0  0  0  0  0  0  0  0  0  0  0  0
   -2.1810   -1.6670    1.6950 C   0  0  0  0  0  0  0  0  0  0  0  0
   -1.3110   -0.4490    1.3210 C   0  0  0  0  0  0  0  0  0  0  0  0
   -0.3870   -0.8610    0.2380 C   0  0  2  0  0  0  0  0  0  0  0  0
    0.3330    0.1150   -0.4330 N   0  0  0  0  0  0  0  0  0  0  0  0
   -0.3130    1.1420   -1.1710 C   0  0  0  0  0  0  0  0  0  0  0  0
   -1.0280    2.1660   -0.3720 C   0  0  0  0  0  0  0  0  0  0  0  0
   -0.3480    2.8770    0.6890 N   0  0  0  0  0  0  0  0  0  0  0  0
   -2.2560    2.5210   -0.5560 N   0  0  0  0  0  0  0  0  0  0  0  0
   -2.8910    3.5360    0.2710 C   0  0  0  0  0  0  0  0  0  0  0  0
    1.7180    0.0700   -0.5570 C   0  0  0  0  0  0  0  0  0  0  0  0
    2.5550    0.3170    0.6890 C   0  0  1  0  0  0  0  0  0  0  0  0
    2.4050   -0.5730    1.6810 O   0  0  0  0  0  0  0  0  0  0  0  0
    3.9810    0.5140    0.2480 C   0  0  0  0  0  0  0  0  0  0  0  0
    4.6620   -0.4510   -0.3360 O   0  0  0  0  0  0  0  0  0  0  0  0
    4.9620   -1.6400    0.1770 C   0  0  0  0  0  0  0  0  0  0  0  0
   -1.0870   -1.8640   -0.6470 C   0  0  0  0  0  0  0  0  0  0  0  0
  1  2  2  0
  2  3  1  0
  2 19  1  0
  3  4  1  0
  4  5  1  0
  5  6  1  0
  6  7  1  6
  6 19  1  0
  7  8  1  0
  7 13  1  0
  8  9  1  0
  9 10  1  0
  9 11  2  3
 11 12  1  0
 13 14  1  0
 14 15  1  1
 14 16  1  0
 16 17  1  0
 17 18  1  0
M  END
