
     RDKit          3D

 17 18  0  0  0  0  0  0  0  0999 V2000
    5.3800   -0.9290   -0.7980 C   0  0  0  0  0  0  0  0  0  0  0  0
    3.9260   -0.5990   -0.5970 C   0  0  0  0  0  0  0  0  0  0  0  0
    3.7080    0.8030   -0.5610 O   0  0  0  0  0  0  0  0  0  0  0  0
    2.4610    1.3570   -0.3880 C   0  0  0  0  0  0  0  0  0  0  0  0
    1.3530    0.5530   -0.2390 C   0  0  0  0  0  0  0  0  0  0  0  0
    0.0930    1.1140   -0.0640 C   0  0  0  0  0  0  0  0  0  0  0  0
   -1.0430    0.2820    0.0830 N   0  0  0  0  0  0  0  0  0  0  0  0
   -2.2660    0.9780    0.4080 C   0  0  0  0  0  0  0  0  0  0  0  0
   -3.3250    0.0360    0.9960 C   0  0  0  0  0  0  0  0  0  0  0  0
   -4.0470   -0.6160   -0.1340 C   0  0  0  0  0  0  0  0  0  0  0  0
   -3.0900   -1.1330   -1.0770 N   0  0  0  0  0  0  0  0  0  0  0  0
   -2.1000   -1.8960   -0.3690 C   0  0  0  0  0  0  0  0  0  0  0  0
   -0.8340   -1.1100   -0.1100 C   0  0  0  0  0  0  0  0  0  0  0  0
   -0.0270    2.4910   -0.0420 C   0  0  0  0  0  0  0  0  0  0  0  0
    1.0700    3.2370   -0.1890 N   0  0  0  0  0  0  0  0  0  0  0  0
    2.2990    2.7250   -0.3600 C   0  0  0  0  0  0  0  0  0  0  0  0
    3.8420    3.8440   -0.5670 Br  0  0  0  0  0  0  0  0  0  0  0  0
  1  2  1  0
  2  3  1  0
  3  4  1  0
  4  5  2  0
  4 16  1  0
  5  6  1  0
  6  7  1  0
  6 14  2  0
  7  8  1  0
  7 13  1  0
  8  9  1  0
  9 10  1  0
 10 11  1  0
 11 12  1  0
 12 13  1  0
 14 15  1  0
 15 16  2  0
 16 17  1  0
M  CHG  1  11   1
M  END
