
     RDKit          3D

 17 18  0  0  0  0  0  0  0  0999 V2000
   -2.3030    1.3310   -0.8190 C   0  0  0  0  0  0  0  0  0  0  0  0
   -2.3530    0.0280   -0.2190 N   0  0  1  0  0  0  0  0  0  0  0  0
   -3.3170   -0.7780   -0.9960 C   0  0  0  0  0  0  0  0  0  0  0  0
   -1.1190   -0.7610   -0.1640 C   0  0  0  0  0  0  0  0  0  0  0  0
   -0.3760   -0.5870    1.1100 C   0  0  0  0  0  0  0  0  0  0  0  0
   -1.0330   -1.0410    2.2660 C   0  0  0  0  0  0  0  0  0  0  0  0
   -2.7270   -1.8380    2.2500 Br  0  0  0  0  0  0  0  0  0  0  0  0
   -0.4000   -0.8920    3.4600 N   0  0  0  0  0  0  0  0  0  0  0  0
    0.8060   -0.3320    3.5280 C   0  0  0  0  0  0  0  0  0  0  0  0
    1.4310    0.0940    2.4100 N   0  0  0  0  0  0  0  0  0  0  0  0
    0.8610   -0.0220    1.1640 C   0  0  0  0  0  0  0  0  0  0  0  0
    1.7790    0.2070    0.0460 C   0  0  0  0  0  0  0  0  0  0  0  0
    2.7550    1.1020    0.1350 C   0  0  0  0  0  0  0  0  0  0  0  0
    3.7280    1.3930   -0.9670 C   0  0  0  0  0  0  0  0  0  0  0  0
    3.7180    0.3690   -1.9350 O   0  0  0  0  0  0  0  0  0  0  0  0
    2.7160   -0.5610   -2.0490 C   0  0  0  0  0  0  0  0  0  0  0  0
    1.7830   -0.6570   -1.1180 C   0  0  0  0  0  0  0  0  0  0  0  0
  2  1  1  6
  2  3  1  0
  2  4  1  0
  4  5  1  0
  5  6  2  0
  5 11  1  0
  6  7  1  0
  6  8  1  0
  8  9  2  0
  9 10  1  0
 10 11  2  0
 11 12  1  0
 12 13  2  0
 12 17  1  0
 13 14  1  0
 14 15  1  0
 15 16  1  0
 16 17  2  0
M  CHG  1   2   1
M  END
