
     RDKit          3D

 17 18  0  0  0  0  0  0  0  0999 V2000
    5.4900   -0.0720   -0.6850 C   0  0  0  0  0  0  0  0  0  0  0  0
    4.0250   -0.5100   -0.7320 C   0  0  0  0  0  0  0  0  0  0  0  0
    3.1150    0.6690   -0.5000 C   0  0  0  0  0  0  0  0  0  0  0  0
    1.7420    0.2020   -0.5580 N   0  0  0  0  0  0  0  0  0  0  0  0
    1.3880   -0.6420    0.5210 C   0  0  0  0  0  0  0  0  0  0  0  0
   -0.0710   -1.0850    0.3270 C   0  0  0  0  0  0  0  0  0  0  0  0
   -0.8290    0.1000    0.6600 N   0  0  0  0  0  0  0  0  0  0  0  0
   -1.9220    0.0930    1.5640 C   0  0  0  0  0  0  0  0  0  0  0  0
   -3.2510   -0.1470    0.8940 C   0  0  0  0  0  0  0  0  0  0  0  0
   -4.0730   -1.1420    1.1400 C   0  0  0  0  0  0  0  0  0  0  0  0
   -5.2470   -1.0310    0.2980 C   0  0  0  0  0  0  0  0  0  0  0  0
   -6.7690   -2.1660    0.2060 Br  0  0  0  0  0  0  0  0  0  0  0  0
   -5.0740    0.0480   -0.4310 C   0  0  0  0  0  0  0  0  0  0  0  0
   -3.8410    0.6560   -0.1080 N   0  0  0  0  0  0  0  0  0  0  0  0
   -0.3920    1.2920    0.0260 C   0  0  0  0  0  0  0  0  0  0  0  0
   -0.9860    2.3960    0.1700 O   0  0  0  0  0  0  0  0  0  0  0  0
    0.8200    1.2350   -0.8480 C   0  0  0  0  0  0  0  0  0  0  0  0
  1  2  1  0
  2  3  1  0
  3  4  1  0
  4  5  1  0
  4 17  1  0
  5  6  1  0
  6  7  1  0
  7  8  1  0
  7 15  1  0
  8  9  1  0
  9 10  2  0
  9 14  1  0
 10 11  1  0
 11 12  1  0
 11 13  2  0
 13 14  1  0
 15 16  2  0
 15 17  1  0
M  CHG  1  14   1
M  END
