
     RDKit          3D

 17 18  0  0  0  0  0  0  0  0999 V2000
    3.3360   -1.8450    2.1470 C   0  0  0  0  0  0  0  0  0  0  0  0
    2.4340   -0.9470    1.3430 C   0  0  0  0  0  0  0  0  0  0  0  0
    1.1470   -1.3230    1.1040 N   0  0  0  0  0  0  0  0  0  0  0  0
    0.3270   -0.5360    0.3890 C   0  0  0  0  0  0  0  0  0  0  0  0
   -1.1010   -0.9050    0.1000 C   0  0  2  0  0  0  0  0  0  0  0  0
   -1.2610   -1.0580   -1.3890 C   0  0  0  0  0  0  0  0  0  0  0  0
   -1.8110    0.1470   -2.0710 C   0  0  0  0  0  0  0  0  0  0  0  0
   -3.3290    0.0350   -2.0530 C   0  0  0  0  0  0  0  0  0  0  0  0
   -3.7680    0.7300   -0.8610 N   0  0  0  0  0  0  0  0  0  0  0  0
   -3.4050    0.0160    0.3440 C   0  0  0  0  0  0  0  0  0  0  0  0
   -1.9560    0.1540    0.7060 C   0  0  0  0  0  0  0  0  0  0  0  0
    0.7920    0.6240   -0.0870 N   0  0  0  0  0  0  0  0  0  0  0  0
    2.0550    1.0450    0.1190 C   0  0  0  0  0  0  0  0  0  0  0  0
    2.8990    0.2510    0.8460 C   0  0  0  0  0  0  0  0  0  0  0  0
    4.1960    0.6500    1.0760 O   0  0  0  0  0  0  0  0  0  0  0  0
    4.7710    1.8430    0.6200 C   0  0  0  0  0  0  0  0  0  0  0  0
    4.7530    1.9700   -1.3080 Br  0  0  0  0  0  0  0  0  0  0  0  0
  1  2  1  0
  2  3  2  0
  2 14  1  0
  3  4  1  0
  5  4  1  6
  4 12  2  0
  5  6  1  0
  5 11  1  0
  6  7  1  0
  7  8  1  0
  8  9  1  0
  9 10  1  0
 10 11  1  0
 12 13  1  0
 13 14  2  0
 14 15  1  0
 15 16  1  0
 16 17  1  0
M  CHG  1   9   1
M  END
