
     RDKit          3D

 17 18  0  0  0  0  0  0  0  0999 V2000
   -4.5710   -0.4300    2.7780 C   0  0  0  0  0  0  0  0  0  0  0  0
   -3.6290   -0.0870    1.6490 C   0  0  0  0  0  0  0  0  0  0  0  0
   -2.3740    0.3100    1.6830 O   0  0  0  0  0  0  0  0  0  0  0  0
   -1.9210    0.5340    0.5060 C   0  0  0  0  0  0  0  0  0  0  0  0
   -0.6370    1.0150    0.0400 C   0  0  0  0  0  0  0  0  0  0  0  0
    0.0660    0.1410   -0.8990 N   0  0  0  0  0  0  0  0  0  0  0  0
    1.0390    0.8930   -1.6460 C   0  0  0  0  0  0  0  0  0  0  0  0
    2.4420    0.8070   -1.2800 C   0  0  0  0  0  0  0  0  0  0  0  0
    2.6240    0.0030   -0.0720 N   0  0  0  0  0  0  0  0  0  0  0  0
    4.0590   -0.0220    0.1570 C   0  0  0  0  0  0  0  0  0  0  0  0
    4.4380   -0.7530    1.3230 N   0  0  0  0  0  0  0  0  0  0  0  0
    2.0160   -1.2590   -0.3150 C   0  0  0  0  0  0  0  0  0  0  0  0
    0.5240   -1.0880   -0.3220 C   0  0  0  0  0  0  0  0  0  0  0  0
   -2.9190    0.2660   -0.4430 C   0  0  0  0  0  0  0  0  0  0  0  0
   -2.8640    0.2980   -1.9060 C   0  0  0  0  0  0  0  0  0  0  0  0
   -4.0180   -0.1350    0.3000 C   0  0  0  0  0  0  0  0  0  0  0  0
   -5.7350   -0.6420   -0.2870 Br  0  0  0  0  0  0  0  0  0  0  0  0
  1  2  1  0
  2  3  1  0
  2 16  2  0
  3  4  1  0
  4  5  1  0
  4 14  2  0
  5  6  1  0
  6  7  1  0
  6 13  1  0
  7  8  1  0
  8  9  1  0
  9 10  1  0
  9 12  1  0
 10 11  1  0
 12 13  1  0
 14 15  1  0
 14 16  1  0
 16 17  1  0
M  CHG  1  11   1
M  END
