
     RDKit          3D

 17 18  0  0  0  0  0  0  0  0999 V2000
    5.2750    1.5410   -0.1370 C   0  0  0  0  0  0  0  0  0  0  0  0
    4.6690    0.2860   -0.1140 O   0  0  0  0  0  0  0  0  0  0  0  0
    3.3160    0.0390   -0.0410 C   0  0  0  0  0  0  0  0  0  0  0  0
    2.3940    1.0620    0.0180 C   0  0  0  0  0  0  0  0  0  0  0  0
    1.0440    0.7550    0.0910 C   0  0  0  0  0  0  0  0  0  0  0  0
    0.6430   -0.5520    0.1020 C   0  0  0  0  0  0  0  0  0  0  0  0
   -0.7110   -0.9500    0.2000 N   0  0  0  0  0  0  0  0  0  0  0  0
   -1.7860   -0.0200    0.1260 C   0  0  0  0  0  0  0  0  0  0  0  0
   -1.8290    0.9110   -0.7830 N   0  0  0  0  0  0  0  0  0  0  0  0
   -3.0300    1.6990   -0.6080 C   0  0  0  0  0  0  0  0  0  0  0  0
   -3.8420    0.9920    0.3350 N   0  0  0  0  0  0  0  0  0  0  0  0
   -4.9040    0.2290   -0.3060 C   0  0  0  0  0  0  0  0  0  0  0  0
   -2.9860    0.0380    1.0090 C   0  0  0  0  0  0  0  0  0  0  0  0
    1.5940   -1.5750    0.0410 C   0  0  0  0  0  0  0  0  0  0  0  0
    1.1630   -2.9980    0.0560 C   0  0  0  0  0  0  0  0  0  0  0  0
    0.6510   -3.5330    1.8640 Br  0  0  0  0  0  0  0  0  0  0  0  0
    2.9410   -1.2960   -0.0310 C   0  0  0  0  0  0  0  0  0  0  0  0
  1  2  1  0
  2  3  1  0
  3  4  2  0
  3 17  1  0
  4  5  1  0
  5  6  2  0
  6  7  1  0
  6 14  1  0
  7  8  1  0
  8  9  2  0
  8 13  1  0
  9 10  1  0
 10 11  1  0
 11 12  1  0
 11 13  1  0
 14 15  1  0
 14 17  2  0
 15 16  1  0
M  CHG  1   9   1
M  END
