
     RDKit          3D

 16 17  0  0  0  0  0  0  0  0999 V2000
    4.1570   -0.1330   -1.7600 C   0  0  0  0  0  0  0  0  0  0  0  0
    3.1430   -0.2250   -0.6960 C   0  0  0  0  0  0  0  0  0  0  0  0
    2.1050   -1.0750   -0.6740 N   0  0  0  0  0  0  0  0  0  0  0  0
    1.3730   -0.8940    0.4430 C   0  0  0  0  0  0  0  0  0  0  0  0
    0.1500   -1.6460    0.8240 C   0  0  0  0  0  0  0  0  0  0  0  0
   -1.0230   -0.9900    0.3010 N   0  0  0  0  0  0  0  0  0  0  0  0
   -2.2200   -1.6880    0.6500 C   0  0  0  0  0  0  0  0  0  0  0  0
   -3.3690   -1.4390   -0.2770 C   0  0  0  0  0  0  0  0  0  0  0  0
   -4.1410   -0.1920    0.0650 C   0  0  0  0  0  0  0  0  0  0  0  0
   -3.3540    0.8730    0.4170 O   0  0  0  0  0  0  0  0  0  0  0  0
   -2.1950    0.9910   -0.3100 C   0  0  1  0  0  0  0  0  0  0  0  0
   -1.9160    2.4030   -0.7320 C   0  0  0  0  0  0  0  0  0  0  0  0
   -1.0600    0.4220    0.5480 C   0  0  0  0  0  0  0  0  0  0  0  0
    1.9660    0.0990    1.1460 N   0  0  0  0  0  0  0  0  0  0  0  0
    3.0480    0.5210    0.4670 C   0  0  0  0  0  0  0  0  0  0  0  0
    4.0150    1.5950    0.8440 C   0  0  0  0  0  0  0  0  0  0  0  0
  1  2  1  0
  2  3  1  0
  2 15  2  0
  3  4  1  0
  4  5  1  0
  4 14  2  0
  5  6  1  0
  6  7  1  0
  6 13  1  0
  7  8  1  0
  8  9  1  0
  9 10  1  0
 10 11  1  0
 11 12  1  1
 11 13  1  0
 14 15  1  0
 15 16  1  0
M  CHG  1  14   1
M  END
