
     RDKit          3D

 14 14  0  0  0  0  0  0  0  0999 V2000
    3.4710   -1.9290    0.0810 C   0  0  0  0  0  0  0  0  0  0  0  0
    2.6380   -0.8340   -0.5560 C   0  0  0  0  0  0  0  0  0  0  0  0
    1.3340   -0.7740    0.1850 C   0  0  0  0  0  0  0  0  0  0  0  0
    0.4020    0.2920   -0.3600 C   0  0  2  0  0  0  0  0  0  0  0  0
    1.1080    1.5980   -0.2200 C   0  0  0  0  0  0  0  0  0  0  0  0
    0.2100    2.8090   -0.3740 C   0  0  0  0  0  0  0  0  0  0  0  0
   -0.8130    2.6610    0.7620 C   0  0  0  0  0  0  0  0  0  0  0  0
   -1.6820    1.5240    0.3840 C   0  0  0  0  0  0  0  0  0  0  0  0
   -0.9650    0.2070    0.2080 C   0  0  2  0  0  0  0  0  0  0  0  0
   -0.9450   -0.4340    1.6060 C   0  0  0  0  0  0  0  0  0  0  0  0
   -1.9280   -0.6180   -0.6090 C   0  0  2  0  0  0  0  0  0  0  0  0
   -1.5660   -2.0230   -0.8140 C   0  0  0  0  0  0  0  0  0  0  0  0
   -2.1160    0.0240   -1.8160 O   0  0  0  0  0  0  0  0  0  0  0  0
   -3.5390   -0.5620    0.2680 S   0  0  0  0  0  0  0  0  0  0  0  0
  1  2  1  0
  2  3  1  0
  4  3  1  1
  4  5  1  0
  4  9  1  0
  5  6  1  0
  6  7  1  0
  7  8  1  0
  8  9  1  0
  9 10  1  1
  9 11  1  0
 11 12  1  6
 11 13  1  0
 11 14  1  0
M  END
