
     RDKit          3D

 16 17  0  0  0  0  0  0  0  0999 V2000
    4.6090    2.2720   -0.3000 F   0  0  0  0  0  0  0  0  0  0  0  0
    4.6200    0.8950   -0.2060 C   0  0  1  0  0  0  0  0  0  0  0  0
    5.1260    0.3730   -1.3780 F   0  0  0  0  0  0  0  0  0  0  0  0
    5.3800    0.5710    0.8960 O   0  0  0  0  0  0  0  0  0  0  0  0
    5.2810   -0.7770    1.1780 C   0  0  0  0  0  0  0  0  0  0  0  0
    3.4350   -0.9410    1.1150 S   0  0  0  0  0  0  0  0  0  0  0  0
    3.2340    0.4520    0.0200 C   0  0  0  0  0  0  0  0  0  0  0  0
    2.1300    0.9310   -0.4440 C   0  0  0  0  0  0  0  0  0  0  0  0
    0.7720    0.3230   -0.0880 C   0  0  0  0  0  0  0  0  0  0  0  0
    0.0920   -0.1350   -1.3440 C   0  0  0  0  0  0  0  0  0  0  0  0
   -1.2150   -0.7890   -1.1490 C   0  0  0  0  0  0  0  0  0  0  0  0
   -2.2940    0.0130   -0.5160 C   0  0  1  0  0  0  0  0  0  0  0  0
   -3.5810   -0.8580   -0.4470 C   0  0  0  0  0  0  0  0  0  0  0  0
   -4.4300   -0.0660    0.4930 C   0  0  0  0  0  0  0  0  0  0  0  0
   -3.4470    0.1830    1.6370 C   0  0  0  0  0  0  0  0  0  0  0  0
   -2.1150    0.3990    0.9030 C   0  0  0  0  0  0  0  0  0  0  0  0
  2  1  1  6
  2  3  1  0
  2  4  1  0
  2  7  1  0
  4  5  1  0
  5  6  1  0
  6  7  1  0
  7  8  2  3
  8  9  1  0
  9 10  1  0
 10 11  1  0
 12 11  1  1
 12 13  1  0
 12 16  1  0
 13 14  1  0
 14 15  1  0
 15 16  1  0
M  END
