
     RDKit          3D

 16 16  0  0  0  0  0  0  0  0999 V2000
    4.8440   -0.4180    0.1780 C   0  0  0  0  0  0  0  0  0  0  0  0
    4.2940    0.6620   -0.7220 C   0  0  0  0  0  0  0  0  0  0  0  0
    2.9810    1.2100   -0.2060 C   0  0  0  0  0  0  0  0  0  0  0  0
    1.9670    0.0960   -0.1280 C   0  0  0  0  0  0  0  0  0  0  0  0
    0.6180    0.6390    0.4010 C   0  0  0  0  0  0  0  0  0  0  0  0
   -0.2750   -0.5680    0.4240 C   0  0  0  0  0  0  0  0  0  0  0  0
   -1.6450   -0.4010    0.9230 C   0  0  2  0  0  0  0  0  0  0  0  0
   -2.4200   -1.7380    0.8840 C   0  0  0  0  0  0  0  0  0  0  0  0
   -3.4730   -1.6020   -0.1560 C   0  0  0  0  0  0  0  0  0  0  0  0
   -3.2060   -0.2860   -0.8410 C   0  0  2  0  0  0  0  0  0  0  0  0
   -2.3170   -0.5050   -2.0120 C   0  0  0  0  0  0  0  0  0  0  0  0
   -2.5880    0.5220    0.2810 C   0  0  1  0  0  0  0  0  0  0  0  0
   -3.6640    0.6610    1.2090 F   0  0  0  0  0  0  0  0  0  0  0  0
   -2.0280    2.1350   -0.1840 S   0  0  0  0  0  0  0  0  0  0  0  0
   -1.6530    3.0310    1.2310 O   0  0  0  0  0  0  0  0  0  0  0  0
   -1.8240    4.3370    0.9730 F   0  0  0  0  0  0  0  0  0  0  0  0
  1  2  1  0
  2  3  1  0
  3  4  1  0
  4  5  1  0
  5  6  1  0
  7  6  1  6
  7  8  1  0
  7 12  1  0
  8  9  1  0
  9 10  1  0
 10 11  1  6
 10 12  1  0
 12 13  1  1
 12 14  1  0
 14 15  1  0
 15 16  1  0
M  END
