
     RDKit          3D

 15 14  0  0  0  0  0  0  0  0999 V2000
   -5.3360    0.8340    0.6930 C   0  0  0  0  0  0  0  0  0  0  0  0
   -4.1250    0.0250    1.1080 C   0  0  0  0  0  0  0  0  0  0  0  0
   -3.0020    0.4020    0.1520 C   0  0  0  0  0  0  0  0  0  0  0  0
   -1.7280   -0.3770    0.5030 C   0  0  0  0  0  0  0  0  0  0  0  0
   -0.6800    0.0570   -0.4880 C   0  0  2  0  0  0  0  0  0  0  0  0
   -1.1590   -0.2740   -1.8710 C   0  0  0  0  0  0  0  0  0  0  0  0
    0.6440   -0.6180   -0.2750 C   0  0  1  0  0  0  0  0  0  0  0  0
    0.5540   -2.1220   -0.3960 C   0  0  0  0  0  0  0  0  0  0  0  0
    1.5050   -0.1780   -1.2620 F   0  0  0  0  0  0  0  0  0  0  0  0
    1.2310   -0.2500    0.9690 O   0  0  0  0  0  0  0  0  0  0  0  0
    2.4540   -0.7760    1.3340 C   0  0  0  0  0  0  0  0  0  0  0  0
    2.6440   -2.3770    1.5420 S   0  0  0  0  0  0  0  0  0  0  0  0
    3.6250    0.1060    1.5460 C   0  0  0  0  0  0  0  0  0  0  0  0
    3.9730    0.8880    0.2890 C   0  0  0  0  0  0  0  0  0  0  0  0
    5.1840    1.7510    0.6330 C   0  0  0  0  0  0  0  0  0  0  0  0
  1  2  1  0
  2  3  1  0
  3  4  1  0
  4  5  1  0
  5  6  1  6
  5  7  1  0
  7  8  1  1
  7  9  1  0
  7 10  1  0
 10 11  1  0
 11 12  2  0
 11 13  1  0
 13 14  1  0
 14 15  1  0
M  END
