
     RDKit          3D

 15 15  0  0  0  0  0  0  0  0999 V2000
    3.6980    0.6550   -0.8090 C   0  0  0  0  0  0  0  0  0  0  0  0
    2.3070    0.0590   -1.2080 C   0  0  0  0  0  0  0  0  0  0  0  0
    2.4160   -1.4070   -1.0650 C   0  0  0  0  0  0  0  0  0  0  0  0
    1.3110   -2.2980   -1.4400 C   0  0  0  0  0  0  0  0  0  0  0  0
    0.0210   -2.1310   -0.7780 C   0  0  1  0  0  0  0  0  0  0  0  0
   -0.6940   -0.8560   -1.0170 C   0  0  0  0  0  0  0  0  0  0  0  0
   -1.5300   -0.4960    0.1430 C   0  0  0  0  0  0  0  0  0  0  0  0
   -1.7820    0.8700    0.6330 C   0  0  1  0  0  0  0  0  0  0  0  0
   -2.9800    1.0210    1.5340 C   0  0  0  0  0  0  0  0  0  0  0  0
   -0.6620    1.6560    1.1710 C   0  0  0  0  0  0  0  0  0  0  0  0
   -1.2010    3.0270    1.6350 C   0  0  0  0  0  0  0  0  0  0  0  0
   -2.1740   -1.4620    0.7770 C   0  0  0  0  0  0  0  0  0  0  0  0
   -2.9770   -1.2790    1.8650 F   0  0  0  0  0  0  0  0  0  0  0  0
   -2.0540   -3.1450    0.1740 S   0  0  0  0  0  0  0  0  0  0  0  0
   -0.8530   -3.2210   -1.0790 O   0  0  0  0  0  0  0  0  0  0  0  0
  1  2  1  0
  2  3  1  0
  3  4  1  0
  5  4  1  6
  5  6  1  0
  5 15  1  0
  6  7  1  0
  7  8  1  0
  7 12  2  0
  8  9  1  1
  8 10  1  0
 10 11  1  0
 12 13  1  0
 12 14  1  0
 14 15  1  0
M  END
