
     RDKit          3D

 15 15  0  0  0  0  0  0  0  0999 V2000
   -3.6980   -0.8050   -1.7680 C   0  0  0  0  0  0  0  0  0  0  0  0
   -3.5460   -0.7240   -0.2430 C   0  0  2  0  0  0  0  0  0  0  0  0
   -4.9660   -0.6290    0.3070 C   0  0  0  0  0  0  0  0  0  0  0  0
   -2.8860    0.4460    0.0290 O   0  0  0  0  0  0  0  0  0  0  0  0
   -1.6820    0.2890    0.6930 C   0  0  1  0  0  0  0  0  0  0  0  0
   -0.6110    0.8630   -0.2230 C   0  0  0  0  0  0  0  0  0  0  0  0
    0.7800    0.7540    0.3930 C   0  0  1  0  0  0  0  0  0  0  0  0
    1.0880   -0.6950    0.6410 C   0  0  0  0  0  0  0  0  0  0  0  0
    2.5330   -0.9980    0.8560 C   0  0  0  0  0  0  0  0  0  0  0  0
    3.3750   -0.3240   -0.1800 C   0  0  2  0  0  0  0  0  0  0  0  0
    4.8360   -0.6300   -0.0440 C   0  0  0  0  0  0  0  0  0  0  0  0
    3.1510    1.1760   -0.0610 C   0  0  0  0  0  0  0  0  0  0  0  0
    1.7300    1.4160   -0.5610 C   0  0  0  0  0  0  0  0  0  0  0  0
   -1.6230    1.2330    2.2410 S   0  0  0  0  0  0  0  0  0  0  0  0
   -1.6520    2.9160    1.9620 F   0  0  0  0  0  0  0  0  0  0  0  0
  2  1  1  6
  2  3  1  0
  2  4  1  0
  4  5  1  0
  5  6  1  6
  5 14  1  0
  7  6  1  6
  7  8  1  0
  7 13  1  0
  8  9  1  0
  9 10  1  0
 10 11  1  1
 10 12  1  0
 12 13  1  0
 14 15  1  0
M  END
