
     RDKit          3D

 15 15  0  0  0  0  0  0  0  0999 V2000
    4.7870    0.6210    0.2150 C   0  0  0  0  0  0  0  0  0  0  0  0
    4.3410   -0.6460    0.2850 O   0  0  0  0  0  0  0  0  0  0  0  0
    3.0550   -0.9600    0.4850 C   0  0  0  0  0  0  0  0  0  0  0  0
    2.1140   -0.4900   -0.5740 C   0  0  2  0  0  0  0  0  0  0  0  0
    1.9900    1.0100   -0.5730 C   0  0  0  0  0  0  0  0  0  0  0  0
    0.5830    1.1980   -0.4860 O   0  0  0  0  0  0  0  0  0  0  0  0
    0.2330    0.1570    0.3230 C   0  0  1  0  0  0  0  0  0  0  0  0
   -1.1740    0.0040    0.7070 C   0  0  2  0  0  0  0  0  0  0  0  0
   -1.2450   -1.1850    1.5770 N   0  0  0  0  0  0  0  0  0  0  0  0
   -2.2120   -0.0480   -0.3350 C   0  0  2  0  0  0  0  0  0  0  0  0
   -3.5780   -0.2170    0.3530 C   0  0  0  0  0  0  0  0  0  0  0  0
   -2.0860   -1.1860   -1.3040 C   0  0  0  0  0  0  0  0  0  0  0  0
   -2.3200    1.2340   -1.1240 C   0  0  0  0  0  0  0  0  0  0  0  0
   -2.6290    2.3240   -0.3230 O   0  0  0  0  0  0  0  0  0  0  0  0
    0.7940   -0.9590   -0.2910 O   0  0  0  0  0  0  0  0  0  0  0  0
  1  2  1  0
  2  3  1  0
  4  3  1  1
  4  5  1  0
  4 15  1  0
  5  6  1  0
  7  6  1  6
  7  8  1  0
  7 15  1  0
  8  9  1  6
  8 10  1  0
 10 11  1  1
 10 12  1  0
 10 13  1  0
 13 14  1  0
M  CHG  1   9   1
M  END
