
     RDKit          3D

 15 15  0  0  0  0  0  0  0  0999 V2000
    5.6490    0.8180    0.4710 C   0  0  0  0  0  0  0  0  0  0  0  0
    5.2780   -0.6170    0.7690 C   0  0  0  0  0  0  0  0  0  0  0  0
    4.0730   -1.0140    0.1910 O   0  0  0  0  0  0  0  0  0  0  0  0
    2.8880   -0.3600    0.5110 C   0  0  0  0  0  0  0  0  0  0  0  0
    2.9440    0.5820    1.3250 O   0  0  0  0  0  0  0  0  0  0  0  0
    1.5830   -0.7430   -0.0750 C   0  0  0  0  0  0  0  0  0  0  0  0
    0.6070    0.0700    0.4230 O   0  0  0  0  0  0  0  0  0  0  0  0
   -0.6570   -0.1750   -0.0380 C   0  0  1  0  0  0  0  0  0  0  0  0
   -1.6600   -0.5180    0.9990 C   0  0  0  0  0  0  0  0  0  0  0  0
   -2.8110    0.4140    1.1090 C   0  0  0  0  0  0  0  0  0  0  0  0
   -3.3920    0.8700   -0.1790 C   0  0  2  0  0  0  0  0  0  0  0  0
   -4.6330    0.2010   -0.5190 N   0  0  0  0  0  0  0  0  0  0  0  0
   -2.4750    0.7620   -1.3570 C   0  0  2  0  0  0  0  0  0  0  0  0
   -2.5810   -0.4590   -2.0270 O   0  0  0  0  0  0  0  0  0  0  0  0
   -1.0720    1.0270   -0.8900 C   0  0  0  0  0  0  0  0  0  0  0  0
  1  2  1  0
  2  3  1  0
  3  4  1  0
  4  5  2  0
  4  6  1  0
  6  7  1  0
  8  7  1  1
  8  9  1  0
  8 15  1  0
  9 10  1  0
 10 11  1  0
 11 12  1  6
 11 13  1  0
 13 14  1  1
 13 15  1  0
M  CHG  1  12   1
M  END
