
     RDKit          3D

 15 15  0  0  0  0  0  0  0  0999 V2000
   -2.5110    1.7970    0.9190 C   0  0  0  0  0  0  0  0  0  0  0  0
   -1.8940    0.6340    1.3960 O   0  0  0  0  0  0  0  0  0  0  0  0
   -1.8740   -0.3480    0.4460 C   0  0  2  0  0  0  0  0  0  0  0  0
   -2.9020   -1.3950    0.9240 C   0  0  0  0  0  0  0  0  0  0  0  0
   -2.9870   -2.4510    0.0530 O   0  0  0  0  0  0  0  0  0  0  0  0
   -0.5770   -0.9780    0.1220 C   0  0  2  0  0  0  0  0  0  0  0  0
    0.0540   -1.6270    1.2580 N   0  0  0  0  0  0  0  0  0  0  0  0
    0.4420   -0.1410   -0.5690 C   0  0  1  0  0  0  0  0  0  0  0  0
   -0.0850    0.7170   -1.6680 C   0  0  0  0  0  0  0  0  0  0  0  0
    1.0990    0.7580    0.4870 C   0  0  0  0  0  0  0  0  0  0  0  0
    2.0650    1.7280   -0.0870 C   0  0  0  0  0  0  0  0  0  0  0  0
    3.3890    1.3150    0.0010 O   0  0  0  0  0  0  0  0  0  0  0  0
    3.5440   -0.0330   -0.3120 C   0  0  0  0  0  0  0  0  0  0  0  0
    2.5950   -0.4640   -1.4040 C   0  0  0  0  0  0  0  0  0  0  0  0
    1.4420   -1.0110   -0.9780 O   0  0  0  0  0  0  0  0  0  0  0  0
  1  2  1  0
  2  3  1  0
  3  4  1  1
  3  6  1  0
  4  5  1  0
  6  7  1  1
  6  8  1  0
  8  9  1  6
  8 10  1  0
  8 15  1  0
 10 11  1  0
 11 12  1  0
 12 13  1  0
 13 14  1  0
 14 15  1  0
M  CHG  1   7   1
M  END
