
     RDKit          3D

 15 15  0  0  0  0  0  0  0  0999 V2000
   -3.5880    2.3240   -0.2430 C   0  0  0  0  0  0  0  0  0  0  0  0
   -2.5230    1.4260    0.4010 C   0  0  0  0  0  0  0  0  0  0  0  0
   -2.0520    0.5380   -0.5310 O   0  0  0  0  0  0  0  0  0  0  0  0
   -1.0650   -0.3310   -0.0430 C   0  0  2  0  0  0  0  0  0  0  0  0
   -1.7550   -1.2630    0.9610 C   0  0  0  0  0  0  0  0  0  0  0  0
   -2.7880   -1.9650    0.2250 N   0  0  0  0  0  0  0  0  0  0  0  0
    0.0690    0.4060    0.5720 C   0  0  0  0  0  0  0  0  0  0  0  0
    1.4200   -0.1610    0.4010 C   0  0  2  0  0  0  0  0  0  0  0  0
    1.7440   -0.8670    1.5780 O   0  0  0  0  0  0  0  0  0  0  0  0
    2.5090    0.9030    0.2590 C   0  0  0  0  0  0  0  0  0  0  0  0
    3.7350    0.2450    0.1630 O   0  0  0  0  0  0  0  0  0  0  0  0
    4.7350    1.1900    0.0340 C   0  0  0  0  0  0  0  0  0  0  0  0
    1.5800   -1.1140   -0.7480 C   0  0  0  0  0  0  0  0  0  0  0  0
    0.3310   -1.9690   -0.9170 C   0  0  0  0  0  0  0  0  0  0  0  0
   -0.7260   -1.1350   -1.1280 O   0  0  0  0  0  0  0  0  0  0  0  0
  1  2  1  0
  2  3  1  0
  3  4  1  0
  4  5  1  1
  4  7  1  0
  4 15  1  0
  5  6  1  0
  7  8  1  0
  8  9  1  1
  8 10  1  0
  8 13  1  0
 10 11  1  0
 11 12  1  0
 13 14  1  0
 14 15  1  0
M  CHG  1   6   1
M  END
