
     RDKit          3D

 15 15  0  0  0  0  0  0  0  0999 V2000
   -5.1070   -0.1200    0.3200 C   0  0  0  0  0  0  0  0  0  0  0  0
   -4.0170    0.4210   -0.5380 C   0  0  0  0  0  0  0  0  0  0  0  0
   -2.6290   -0.0370   -0.0720 C   0  0  1  0  0  0  0  0  0  0  0  0
   -2.6210   -1.4860   -0.1360 N   0  0  0  0  0  0  0  0  0  0  0  0
   -1.6360    0.5340   -1.0260 C   0  0  0  0  0  0  0  0  0  0  0  0
   -0.3170    0.1810   -0.8490 O   0  0  0  0  0  0  0  0  0  0  0  0
    0.4340    0.4170    0.2690 C   0  0  0  0  0  0  0  0  0  0  0  0
   -0.1710    1.0080    1.1890 O   0  0  0  0  0  0  0  0  0  0  0  0
    1.8580    0.0160    0.4140 C   0  0  2  0  0  0  0  0  0  0  0  0
    2.3860    0.3650    1.6280 O   0  0  0  0  0  0  0  0  0  0  0  0
    3.5960   -0.3240    1.7860 C   0  0  0  0  0  0  0  0  0  0  0  0
    4.5960   -0.0070    0.7270 C   0  0  0  0  0  0  0  0  0  0  0  0
    4.0430    0.0560   -0.6570 C   0  0  0  0  0  0  0  0  0  0  0  0
    2.6830    0.7160   -0.6630 C   0  0  1  0  0  0  0  0  0  0  0  0
    2.0360    0.5310   -1.8860 O   0  0  0  0  0  0  0  0  0  0  0  0
  1  2  1  0
  2  3  1  0
  3  4  1  6
  3  5  1  0
  5  6  1  0
  6  7  1  0
  7  8  2  0
  9  7  1  1
  9 10  1  0
  9 14  1  0
 10 11  1  0
 11 12  1  0
 12 13  1  0
 13 14  1  0
 14 15  1  6
M  CHG  1   4   1
M  END
