
     RDKit          3D

 15 15  0  0  0  0  0  0  0  0999 V2000
    4.8490    0.7150    1.1500 C   0  0  0  0  0  0  0  0  0  0  0  0
    3.4940    0.3260    0.8880 O   0  0  0  0  0  0  0  0  0  0  0  0
    3.0980    0.0020   -0.3910 C   0  0  0  0  0  0  0  0  0  0  0  0
    3.9440    0.0540   -1.3130 O   0  0  0  0  0  0  0  0  0  0  0  0
    1.7170   -0.4140   -0.7760 C   0  0  0  0  0  0  0  0  0  0  0  0
    0.8560   -0.4480    0.2730 O   0  0  0  0  0  0  0  0  0  0  0  0
   -0.4260   -0.8080   -0.0850 C   0  0  1  0  0  0  0  0  0  0  0  0
   -0.4200   -2.1710   -0.7040 C   0  0  0  0  0  0  0  0  0  0  0  0
    0.0840   -3.1350    0.1380 O   0  0  0  0  0  0  0  0  0  0  0  0
   -1.3100   -0.9270    1.1720 C   0  0  0  0  0  0  0  0  0  0  0  0
   -2.7490   -0.5800    0.8770 C   0  0  0  0  0  0  0  0  0  0  0  0
   -2.9100    0.9020    0.5550 C   0  0  0  0  0  0  0  0  0  0  0  0
   -1.5750    1.3390   -0.0360 C   0  0  2  0  0  0  0  0  0  0  0  0
   -1.6780    2.5840   -0.7440 N   0  0  0  0  0  0  0  0  0  0  0  0
   -1.1330    0.2110   -0.9510 C   0  0  0  0  0  0  0  0  0  0  0  0
  1  2  1  0
  2  3  1  0
  3  4  2  0
  3  5  1  0
  5  6  1  0
  6  7  1  0
  7  8  1  6
  7 10  1  0
  7 15  1  0
  8  9  1  0
 10 11  1  0
 11 12  1  0
 12 13  1  0
 13 14  1  6
 13 15  1  0
M  CHG  1  14   1
M  END
