
     RDKit          3D

 15 15  0  0  0  0  0  0  0  0999 V2000
   -1.7370   -0.2770    1.7230 C   0  0  0  0  0  0  0  0  0  0  0  0
   -1.6860   -0.6440    0.4600 C   0  0  0  0  0  0  0  0  0  0  0  0
   -2.9760   -1.2270   -0.0930 C   0  0  0  0  0  0  0  0  0  0  0  0
   -0.5940   -0.5820   -0.4870 C   0  0  1  0  0  0  0  0  0  0  0  0
   -1.0200    0.4510   -1.5600 C   0  0  0  0  0  0  0  0  0  0  0  0
   -0.1090    1.5730   -1.4270 N   0  0  0  0  0  0  0  0  0  0  0  0
    0.4290    1.4420   -0.0580 C   0  0  2  0  0  0  0  0  0  0  0  0
    1.6290    2.2390    0.1260 C   0  0  0  0  0  0  0  0  0  0  0  0
    2.2030    2.2310    1.2410 O   0  0  0  0  0  0  0  0  0  0  0  0
    2.1860    3.0200   -0.8720 O   0  0  0  0  0  0  0  0  0  0  0  0
    0.7090   -0.0550   -0.1180 C   0  0  1  0  0  0  0  0  0  0  0  0
    1.5400   -0.6070    0.9220 C   0  0  0  0  0  0  0  0  0  0  0  0
    1.8940   -2.0170    0.6270 C   0  0  0  0  0  0  0  0  0  0  0  0
    1.5070   -2.5840   -0.4190 O   0  0  0  0  0  0  0  0  0  0  0  0
    2.6690   -2.7800    1.4930 O   0  0  0  0  0  0  0  0  0  0  0  0
  1  2  2  0
  2  3  1  0
  4  2  1  1
  4  5  1  0
  4 11  1  0
  5  6  1  0
  6  7  1  0
  7  8  1  6
  7 11  1  0
  8  9  2  0
  8 10  1  0
 11 12  1  1
 12 13  1  0
 13 14  2  0
 13 15  1  0
M  CHG  1   6   1
M  END
