
     RDKit          3D

 26 28  0  0  0  0  0  0  0  0999 V2000
    5.5410   -1.6830    1.2960 C   0  0  0  0  0  0  0  0  0  0  0  0
    4.2640   -2.4160    1.0310 C   0  0  0  0  0  0  0  0  0  0  0  0
    3.1240   -1.5220    0.6890 C   0  0  0  0  0  0  0  0  0  0  0  0
    2.1260   -1.2270    1.5880 C   0  0  0  0  0  0  0  0  0  0  0  0
    1.0540   -0.3850    1.2540 C   0  0  0  0  0  0  0  0  0  0  0  0
    0.9650    0.1710    0.0180 C   0  0  0  0  0  0  0  0  0  0  0  0
   -0.1150    1.0210   -0.4810 C   0  0  0  0  0  0  0  0  0  0  0  0
    0.2820    2.3150   -1.0350 C   0  0  0  0  0  0  0  0  0  0  0  0
    0.9450    3.2000    0.0350 C   0  0  1  0  0  0  0  0  0  0  0  0
    1.3090    4.4940   -0.6340 C   0  0  0  0  0  0  0  0  0  0  0  0
   -0.0490    3.5060    1.1360 C   0  0  0  0  0  0  0  0  0  0  0  0
   -1.3600    0.5520   -0.3990 C   0  0  0  0  0  0  0  0  0  0  0  0
   -1.7920   -0.7340    0.1390 C   0  0  0  0  0  0  0  0  0  0  0  0
   -3.2520   -0.8330   -0.1750 C   0  0  0  0  0  0  0  0  0  0  0  0
   -3.7020    0.3450   -0.7060 C   0  0  0  0  0  0  0  0  0  0  0  0
   -5.0490    0.5340   -1.0490 C   0  0  0  0  0  0  0  0  0  0  0  0
   -5.9160   -0.5240   -0.8320 C   0  0  0  0  0  0  0  0  0  0  0  0
   -5.4610   -1.7200   -0.2960 C   0  0  0  0  0  0  0  0  0  0  0  0
   -6.3980   -2.7430   -0.1060 O   0  0  0  0  0  0  0  0  0  0  0  0
   -4.1340   -1.8770    0.0330 C   0  0  0  0  0  0  0  0  0  0  0  0
   -3.6930   -3.1770    0.6030 C   0  0  0  0  0  0  0  0  0  0  0  0
   -2.5610    1.2400   -0.8600 C   0  0  0  0  0  0  0  0  0  0  0  0
   -2.6190    2.4170   -1.3190 O   0  0  0  0  0  0  0  0  0  0  0  0
    1.9920   -0.1420   -0.8790 C   0  0  0  0  0  0  0  0  0  0  0  0
    3.0460   -0.9660   -0.5590 C   0  0  0  0  0  0  0  0  0  0  0  0
    4.1120   -1.2670   -1.5550 C   0  0  0  0  0  0  0  0  0  0  0  0
  1  2  1  0
  2  3  1  0
  3  4  2  0
  3 25  1  0
  4  5  1  0
  5  6  2  0
  6  7  1  0
  6 24  1  0
  7  8  1  0
  7 12  2  3
  8  9  1  0
  9 10  1  6
  9 11  1  0
 12 13  1  0
 12 22  1  0
 13 14  1  0
 14 15  2  0
 14 20  1  0
 15 16  1  0
 15 22  1  0
 16 17  2  0
 17 18  1  0
 18 19  1  0
 18 20  2  0
 20 21  1  0
 22 23  2  0
 24 25  2  0
 25 26  1  0
M  END
