
     RDKit          3D

 12 11  0  0  0  0  0  0  0  0999 V2000
   -0.2240   -1.3250    0.3960 C   0  0  0  0  0  0  0  0  0  0  0  0
    0.4990   -0.2760    0.1860 C   0  0  0  0  0  0  0  0  0  0  0  0
   -0.1370    1.0210   -0.1040 C   0  0  0  0  0  0  0  0  0  0  0  0
   -1.6030    1.0170   -0.0390 C   0  0  0  0  0  0  0  0  0  0  0  0
   -2.1970    1.6660    0.8920 O   0  0  0  0  0  0  0  0  0  0  0  0
   -2.3500    0.3250   -0.9670 O   0  0  0  0  0  0  0  0  0  0  0  0
   -3.7600    0.3050   -0.9640 C   0  0  0  0  0  0  0  0  0  0  0  0
   -4.2590   -0.1970    0.3550 C   0  0  0  0  0  0  0  0  0  0  0  0
    1.9410   -0.3350    0.2270 C   0  0  0  0  0  0  0  0  0  0  0  0
    2.6730   -1.5770    0.5040 C   0  0  0  0  0  0  0  0  0  0  0  0
    2.6810    0.7510    0.0100 C   0  0  0  0  0  0  0  0  0  0  0  0
    4.1360    0.7400    0.0440 C   0  0  0  0  0  0  0  0  0  0  0  0
  1  2  2  0
  2  3  1  0
  2  9  1  0
  3  4  1  0
  4  5  2  0
  4  6  1  0
  6  7  1  0
  7  8  1  0
  9 10  1  0
  9 11  2  3
 11 12  1  0
M  END
