
     RDKit          3D

 12 11  0  0  0  0  0  0  0  0999 V2000
    4.4990   -1.1170   -0.2760 C   0  0  0  0  0  0  0  0  0  0  0  0
    3.2660   -0.2820    0.0880 C   0  0  1  0  0  0  0  0  0  0  0  0
    3.4960    1.0970   -0.4570 C   0  0  0  0  0  0  0  0  0  0  0  0
    2.0880   -0.9470   -0.5670 C   0  0  0  0  0  0  0  0  0  0  0  0
    0.8890   -0.3190   -0.3390 O   0  0  0  0  0  0  0  0  0  0  0  0
    0.5400   -0.2370    0.9880 C   0  0  0  0  0  0  0  0  0  0  0  0
   -0.8090    0.4830    1.0670 C   0  0  0  0  0  0  0  0  0  0  0  0
   -1.7870   -0.3440    0.2880 C   0  0  0  0  0  0  0  0  0  0  0  0
   -3.1730    0.2290    0.2660 C   0  0  1  0  0  0  0  0  0  0  0  0
   -3.2260    1.6040   -0.3500 C   0  0  0  0  0  0  0  0  0  0  0  0
   -4.0610   -0.6800   -0.5430 C   0  0  0  0  0  0  0  0  0  0  0  0
   -3.6610    0.3270    1.5660 O   0  0  0  0  0  0  0  0  0  0  0  0
  2  1  1  6
  2  3  1  0
  2  4  1  0
  4  5  1  0
  5  6  1  0
  6  7  1  0
  7  8  1  0
  8  9  1  0
  9 10  1  6
  9 11  1  0
  9 12  1  0
M  END
