
     RDKit          3D

 12 11  0  0  0  0  0  0  0  0999 V2000
   -1.6890    1.2380   -2.2180 C   0  0  0  0  0  0  0  0  0  0  0  0
   -1.9690    0.0860   -1.6850 C   0  0  0  0  0  0  0  0  0  0  0  0
   -1.8490   -0.2110   -0.2960 C   0  0  0  0  0  0  0  0  0  0  0  0
   -2.2100   -1.4530    0.1200 C   0  0  0  0  0  0  0  0  0  0  0  0
   -2.7070   -2.4590   -0.8300 C   0  0  0  0  0  0  0  0  0  0  0  0
   -1.3880    0.7100    0.7430 C   0  0  0  0  0  0  0  0  0  0  0  0
    0.0290    1.1510    0.6540 C   0  0  0  0  0  0  0  0  0  0  0  0
    1.0060   -0.0230    0.7370 C   0  0  0  0  0  0  0  0  0  0  0  0
    2.3680    0.5360    0.6380 C   0  0  0  0  0  0  0  0  0  0  0  0
    2.5160    1.7730    0.5130 O   0  0  0  0  0  0  0  0  0  0  0  0
    3.4850   -0.2870    0.6810 O   0  0  0  0  0  0  0  0  0  0  0  0
    4.7550    0.3310    0.5800 C   0  0  0  0  0  0  0  0  0  0  0  0
  1  2  2  0
  2  3  1  0
  3  4  2  3
  3  6  1  0
  4  5  1  0
  6  7  1  0
  7  8  1  0
  8  9  1  0
  9 10  2  0
  9 11  1  0
 11 12  1  0
M  END
