
     RDKit          3D

 12 12  0  0  0  0  0  0  0  0999 V2000
   -0.8970   -1.0070    1.8520 C   0  0  0  0  0  0  0  0  0  0  0  0
   -0.9060   -1.0680    0.3520 C   0  0  1  0  0  0  0  0  0  0  0  0
   -2.2730   -0.7410   -0.1510 C   0  0  0  0  0  0  0  0  0  0  0  0
   -2.7030    0.6330    0.2700 C   0  0  0  0  0  0  0  0  0  0  0  0
   -4.1100    0.8460   -0.3030 C   0  0  0  0  0  0  0  0  0  0  0  0
   -4.9590   -0.1250    0.2120 O   0  0  0  0  0  0  0  0  0  0  0  0
    0.0920   -0.1520   -0.2920 C   0  0  0  0  0  0  0  0  0  0  0  0
    1.5130   -0.4670    0.1240 C   0  0  0  0  0  0  0  0  0  0  0  0
    2.3670    0.4250   -0.5160 O   0  0  0  0  0  0  0  0  0  0  0  0
    3.6860    0.2100   -0.1940 C   0  0  1  0  0  0  0  0  0  0  0  0
    4.7030    0.4330   -1.2770 C   0  0  0  0  0  0  0  0  0  0  0  0
    4.5900    1.3640   -0.0990 C   0  0  0  0  0  0  0  0  0  0  0  0
  2  1  1  1
  2  3  1  0
  2  7  1  0
  3  4  1  0
  4  5  1  0
  5  6  1  0
  7  8  1  0
  8  9  1  0
 10  9  1  6
 10 11  1  0
 10 12  1  0
 11 12  1  0
M  END
