
     RDKit          3D

 12 11  0  0  0  0  0  0  0  0999 V2000
    4.9190    0.4540   -0.4700 C   0  0  0  0  0  0  0  0  0  0  0  0
    3.9400    0.8010    0.6490 C   0  0  0  0  0  0  0  0  0  0  0  0
    2.6350    0.0340    0.3880 C   0  0  0  0  0  0  0  0  0  0  0  0
    2.1670    0.4430   -0.8310 O   0  0  0  0  0  0  0  0  0  0  0  0
    0.9960   -0.1680   -1.2220 C   0  0  0  0  0  0  0  0  0  0  0  0
   -0.1610    0.0590   -0.2910 C   0  0  1  0  0  0  0  0  0  0  0  0
   -0.3930    1.4350   -0.2140 O   0  0  0  0  0  0  0  0  0  0  0  0
   -1.4070   -0.5830   -0.8640 C   0  0  0  0  0  0  0  0  0  0  0  0
   -2.6080   -0.4010    0.0120 C   0  0  2  0  0  0  0  0  0  0  0  0
   -2.9250    1.0660    0.2120 C   0  0  0  0  0  0  0  0  0  0  0  0
   -2.3860   -0.9940    1.3880 C   0  0  0  0  0  0  0  0  0  0  0  0
   -3.8110   -1.0370   -0.6290 C   0  0  0  0  0  0  0  0  0  0  0  0
  1  2  1  0
  2  3  1  0
  3  4  1  0
  4  5  1  0
  5  6  1  0
  6  7  1  6
  6  8  1  0
  8  9  1  0
  9 10  1  1
  9 11  1  0
  9 12  1  0
M  END
