
     RDKit          3D

 12 11  0  0  0  0  0  0  0  0999 V2000
    5.1840    0.6540    0.0490 C   0  0  0  0  0  0  0  0  0  0  0  0
    4.0010   -0.2980    0.0660 C   0  0  0  0  0  0  0  0  0  0  0  0
    2.8880    0.2130    0.8870 C   0  0  0  0  0  0  0  0  0  0  0  0
    1.6670    0.4730    0.4660 C   0  0  0  0  0  0  0  0  0  0  0  0
    1.1720    0.3020   -0.9240 C   0  0  0  0  0  0  0  0  0  0  0  0
    0.1070   -0.5890   -1.0600 O   0  0  0  0  0  0  0  0  0  0  0  0
   -1.1440   -0.3630   -0.4280 C   0  0  0  0  0  0  0  0  0  0  0  0
   -1.1760    0.6940    0.2360 O   0  0  0  0  0  0  0  0  0  0  0  0
   -2.2190   -1.3100   -0.5900 C   0  0  0  0  0  0  0  0  0  0  0  0
   -3.3890   -1.2250   -0.0760 C   0  0  0  0  0  0  0  0  0  0  0  0
   -3.8600   -0.1310    0.7850 C   0  0  0  0  0  0  0  0  0  0  0  0
   -5.0600    0.4860    0.0460 C   0  0  0  0  0  0  0  0  0  0  0  0
  1  2  1  0
  2  3  1  0
  3  4  2  3
  4  5  1  0
  5  6  1  0
  6  7  1  0
  7  8  2  0
  7  9  1  0
  9 10  2  3
 10 11  1  0
 11 12  1  0
M  END
