
     RDKit          3D

 36 38  0  0  0  0  0  0  0  0999 V2000
   -5.5120   -4.2990   -0.8380 C   0  0  0  0  0  0  0  0  0  0  0  0
   -4.0590   -4.1170   -1.0390 C   0  0  0  0  0  0  0  0  0  0  0  0
   -3.4770   -2.7700   -0.9370 C   0  0  0  0  0  0  0  0  0  0  0  0
   -3.4580   -2.0180    0.3230 C   0  0  1  0  0  0  0  0  0  0  0  0
   -2.8530   -0.6830    0.1320 N   0  0  0  0  0  0  0  0  0  0  0  0
   -3.4520    0.3470   -0.6490 C   0  0  0  0  0  0  0  0  0  0  0  0
   -4.7080    0.2500   -1.1900 C   0  0  0  0  0  0  0  0  0  0  0  0
   -5.2510    1.3010   -1.8900 C   0  0  0  0  0  0  0  0  0  0  0  0
   -4.5810    2.4840   -2.0840 C   0  0  0  0  0  0  0  0  0  0  0  0
   -3.3240    2.5590   -1.5350 C   0  0  0  0  0  0  0  0  0  0  0  0
   -2.7390    1.5180   -0.8210 C   0  0  0  0  0  0  0  0  0  0  0  0
   -1.3770    1.7030   -0.3290 C   0  0  0  0  0  0  0  0  0  0  0  0
   -0.3990    0.8170   -0.6660 C   0  0  0  0  0  0  0  0  0  0  0  0
    0.9130    0.9910   -0.2460 C   0  0  0  0  0  0  0  0  0  0  0  0
    1.9180    0.0180   -0.6510 C   0  0  0  0  0  0  0  0  0  0  0  0
    1.5780   -0.9620   -1.3840 O   0  0  0  0  0  0  0  0  0  0  0  0
    3.2360    0.0930   -0.2880 O   0  0  0  0  0  0  0  0  0  0  0  0
    4.1550   -0.8800   -0.7220 C   0  0  1  0  0  0  0  0  0  0  0  0
    5.2570   -0.2650   -1.5260 C   0  0  0  0  0  0  0  0  0  0  0  0
    6.5340   -0.0490   -0.8300 C   0  0  0  0  0  0  0  0  0  0  0  0
    6.7790   -0.7640    0.3050 O   0  0  0  0  0  0  0  0  0  0  0  0
    6.1190   -1.9790    0.3580 C   0  0  1  0  0  0  0  0  0  0  0  0
    6.3250   -2.8190   -0.8600 C   0  0  0  0  0  0  0  0  0  0  0  0
    6.5470   -2.7110    1.6010 C   0  0  0  0  0  0  0  0  0  0  0  0
    4.6390   -1.6410    0.4840 C   0  0  0  0  0  0  0  0  0  0  0  0
    1.2710    2.0640    0.5270 C   0  0  0  0  0  0  0  0  0  0  0  0
    2.6740    2.2160    0.9540 C   0  0  0  0  0  0  0  0  0  0  0  0
    0.2620    2.9720    0.8710 C   0  0  0  0  0  0  0  0  0  0  0  0
   -1.0450    2.8170    0.4610 C   0  0  0  0  0  0  0  0  0  0  0  0
   -2.0440    3.6760    0.7770 O   0  0  0  0  0  0  0  0  0  0  0  0
   -2.1190    4.8380    1.4890 C   0  0  0  0  0  0  0  0  0  0  0  0
   -1.3500    6.0170    1.0010 C   0  0  0  0  0  0  0  0  0  0  0  0
   -1.5700    7.0990    1.8790 O   0  0  0  0  0  0  0  0  0  0  0  0
   -4.6250   -1.9340    1.1870 C   0  0  0  0  0  0  0  0  0  0  0  0
   -5.3780   -3.0180    1.6840 N   0  0  0  0  0  0  0  0  0  0  0  0
   -5.0460   -0.7840    1.5680 O   0  0  0  0  0  0  0  0  0  0  0  0
  1  2  1  0
  2  3  1  0
  4  3  1  6
  4  5  1  0
  4 34  1  0
  5  6  1  0
  6  7  2  0
  6 11  1  0
  7  8  1  0
  8  9  2  0
  9 10  1  0
 10 11  2  0
 11 12  1  0
 12 13  2  0
 12 29  1  0
 13 14  1  0
 14 15  1  0
 14 26  2  0
 15 16  2  0
 15 17  1  0
 18 17  1  1
 18 19  1  0
 18 25  1  0
 19 20  1  0
 20 21  1  0
 21 22  1  0
 22 23  1  6
 22 24  1  0
 22 25  1  0
 26 27  1  0
 26 28  1  0
 28 29  2  0
 29 30  1  0
 30 31  1  0
 31 32  1  0
 32 33  1  0
 34 35  1  0
 34 36  2  0
M  END
