
     RDKit          3D

 36 38  0  0  0  0  0  0  0  0999 V2000
   -5.9160    0.3700   -1.5090 C   0  0  0  0  0  0  0  0  0  0  0  0
   -5.7180   -0.7690   -0.4350 C   0  0  1  0  0  0  0  0  0  0  0  0
   -6.9020   -0.5110    0.5100 C   0  0  0  0  0  0  0  0  0  0  0  0
   -6.8750    0.8400    0.9230 O   0  0  0  0  0  0  0  0  0  0  0  0
   -5.9550   -1.9920   -1.1970 C   0  0  0  0  0  0  0  0  0  0  0  0
   -5.8930   -3.2020   -0.5840 O   0  0  0  0  0  0  0  0  0  0  0  0
   -6.2790   -4.1660   -1.5950 C   0  0  0  0  0  0  0  0  0  0  0  0
   -5.9450   -5.4850   -0.9450 C   0  0  0  0  0  0  0  0  0  0  0  0
   -5.6360   -6.6730   -0.3600 N   0  0  0  0  0  0  0  0  0  0  0  0
   -4.5230   -0.5160    0.2530 N   0  0  0  0  0  0  0  0  0  0  0  0
   -4.0870   -1.2050    1.3730 C   0  0  0  0  0  0  0  0  0  0  0  0
   -2.7990   -1.9710    1.3320 C   0  0  1  0  0  0  0  0  0  0  0  0
   -2.8380   -3.1620    0.3540 C   0  0  0  0  0  0  0  0  0  0  0  0
   -2.9130   -2.8360   -0.9510 O   0  0  0  0  0  0  0  0  0  0  0  0
   -1.6830   -1.1350    0.9740 N   0  0  0  0  0  0  0  0  0  0  0  0
   -1.2970   -0.0130    1.7310 C   0  0  0  0  0  0  0  0  0  0  0  0
   -1.4370    0.0420    3.1240 C   0  0  0  0  0  0  0  0  0  0  0  0
   -1.0740    1.1810    3.7980 C   0  0  0  0  0  0  0  0  0  0  0  0
   -0.5840    2.2200    3.0670 C   0  0  0  0  0  0  0  0  0  0  0  0
   -0.4150    2.2230    1.7170 C   0  0  0  0  0  0  0  0  0  0  0  0
    0.1080    3.2900    1.0240 O   0  0  0  0  0  0  0  0  0  0  0  0
    1.3780    3.2780    0.5700 C   0  0  0  0  0  0  0  0  0  0  0  0
    2.1270    4.2540    0.0080 C   0  0  0  0  0  0  0  0  0  0  0  0
    3.4100    4.2230   -0.4520 C   0  0  0  0  0  0  0  0  0  0  0  0
    4.1170    2.9470   -0.3390 C   0  0  0  0  0  0  0  0  0  0  0  0
    5.3870    2.7410   -0.7530 O   0  0  0  0  0  0  0  0  0  0  0  0
    5.9740    1.4610   -0.7950 C   0  0  2  0  0  0  0  0  0  0  0  0
    6.5640    1.0410    0.5700 C   0  0  0  0  0  0  0  0  0  0  0  0
    6.6950   -0.4560    0.5050 C   0  0  0  0  0  0  0  0  0  0  0  0
    7.5510   -0.9200   -0.6370 C   0  0  0  0  0  0  0  0  0  0  0  0
    7.4150   -0.1500   -1.9170 C   0  0  0  0  0  0  0  0  0  0  0  0
    7.0970    1.2960   -1.7660 C   0  0  2  0  0  0  0  0  0  0  0  0
    8.3140    2.0080   -1.3710 N   0  0  0  0  0  0  0  0  0  0  0  0
    3.3280    1.9970    0.2370 C   0  0  0  0  0  0  0  0  0  0  0  0
    2.0690    2.0410    0.6890 C   0  0  0  0  0  0  0  0  0  0  0  0
   -0.7870    1.0670    1.0120 C   0  0  0  0  0  0  0  0  0  0  0  0
  2  1  1  6
  2  3  1  0
  2  5  1  0
  2 10  1  0
  3  4  1  0
  5  6  1  0
  6  7  1  0
  7  8  1  0
  8  9  3  0
 10 11  1  0
 12 11  1  6
 12 13  1  0
 12 15  1  0
 13 14  1  0
 15 16  1  0
 16 17  2  0
 16 36  1  0
 17 18  1  0
 18 19  2  0
 19 20  1  0
 20 21  1  0
 20 36  2  0
 21 22  1  0
 22 23  2  0
 22 35  1  0
 23 24  1  0
 24 25  2  0
 25 26  1  0
 25 34  1  0
 27 26  1  1
 27 28  1  0
 27 32  1  0
 28 29  1  0
 29 30  1  0
 30 31  1  0
 31 32  1  0
 32 33  1  1
 34 35  2  0
M  CHG  2  10   1  33   1
M  END
