
     RDKit          3D

 36 38  0  0  0  0  0  0  0  0999 V2000
    9.1620   -3.4240   -1.0980 N   0  0  0  0  0  0  0  0  0  0  0  0
    8.7890   -2.0430   -0.9080 C   0  0  0  0  0  0  0  0  0  0  0  0
    7.3000   -1.8830   -1.1900 C   0  0  0  0  0  0  0  0  0  0  0  0
    6.9230   -0.5010   -0.9850 N   0  0  0  0  0  0  0  0  0  0  0  0
    5.7130   -0.4180   -0.2450 C   0  0  1  0  0  0  0  0  0  0  0  0
    5.7990   -0.9630    1.1740 C   0  0  0  0  0  0  0  0  0  0  0  0
    4.6950   -0.3950    2.0180 C   0  0  0  0  0  0  0  0  0  0  0  0
    3.4470   -0.0300    1.1970 C   0  0  0  0  0  0  0  0  0  0  0  0
    3.7690    0.9810    0.1810 C   0  0  0  0  0  0  0  0  0  0  0  0
    2.9480    1.7700   -0.4210 C   0  0  0  0  0  0  0  0  0  0  0  0
    1.5420    1.9330   -0.3370 C   0  0  0  0  0  0  0  0  0  0  0  0
    1.0160    2.9110   -1.0380 O   0  0  0  0  0  0  0  0  0  0  0  0
    0.5920    1.1960    0.3900 N   0  0  0  0  0  0  0  0  0  0  0  0
   -0.7980    1.5230    0.3980 C   0  0  0  0  0  0  0  0  0  0  0  0
   -1.2000    2.8190    0.3770 C   0  0  0  0  0  0  0  0  0  0  0  0
   -2.5670    3.1510    0.3600 C   0  0  0  0  0  0  0  0  0  0  0  0
   -3.4950    2.1470    0.3650 C   0  0  0  0  0  0  0  0  0  0  0  0
   -4.8310    2.4050    0.3490 O   0  0  0  0  0  0  0  0  0  0  0  0
   -5.5110    3.6030    0.3140 C   0  0  0  0  0  0  0  0  0  0  0  0
   -5.3400    4.4770   -0.8810 C   0  0  2  0  0  0  0  0  0  0  0  0
   -6.1050    5.6450   -0.6280 O   0  0  0  0  0  0  0  0  0  0  0  0
   -6.0570    3.8160   -2.0710 C   0  0  0  0  0  0  0  0  0  0  0  0
   -6.0370    4.7500   -3.1890 N   0  0  0  0  0  0  0  0  0  0  0  0
   -3.0960    0.7990    0.3890 C   0  0  0  0  0  0  0  0  0  0  0  0
   -4.1200   -0.2100    0.4220 C   0  0  0  0  0  0  0  0  0  0  0  0
   -5.3220    0.1000    0.4480 O   0  0  0  0  0  0  0  0  0  0  0  0
   -3.7420   -1.6390    0.4260 C   0  0  0  0  0  0  0  0  0  0  0  0
   -4.8810   -2.4800    0.5620 O   0  0  0  0  0  0  0  0  0  0  0  0
   -4.7610   -3.8670    0.5640 C   0  0  0  0  0  0  0  0  0  0  0  0
   -3.5390   -4.5100    0.4320 C   0  0  0  0  0  0  0  0  0  0  0  0
   -3.4380   -5.8810    0.4340 C   0  0  0  0  0  0  0  0  0  0  0  0
   -4.5410   -6.6940    0.5660 C   0  0  0  0  0  0  0  0  0  0  0  0
   -5.7780   -6.0490    0.6980 C   0  0  0  0  0  0  0  0  0  0  0  0
   -5.8650   -4.6790    0.6950 C   0  0  0  0  0  0  0  0  0  0  0  0
   -1.7530    0.5380    0.4040 C   0  0  0  0  0  0  0  0  0  0  0  0
    5.2580    1.0300   -0.1910 C   0  0  0  0  0  0  0  0  0  0  0  0
  1  2  1  0
  2  3  1  0
  3  4  1  0
  5  4  1  1
  5  6  1  0
  5 36  1  0
  6  7  1  0
  7  8  1  0
  8  9  1  0
  9 10  2  3
  9 36  1  0
 10 11  1  0
 11 12  2  0
 11 13  1  0
 13 14  1  0
 14 15  2  0
 14 35  1  0
 15 16  1  0
 16 17  2  0
 17 18  1  0
 17 24  1  0
 18 19  1  0
 19 20  1  0
 20 21  1  1
 20 22  1  0
 22 23  1  0
 24 25  1  0
 24 35  2  0
 25 26  2  0
 25 27  1  0
 27 28  1  0
 28 29  1  0
 29 30  2  0
 29 34  1  0
 30 31  1  0
 31 32  2  0
 32 33  1  0
 33 34  2  0
M  CHG  2   4   1  23   1
M  END
