
     RDKit          3D

 36 38  0  0  0  0  0  0  0  0999 V2000
   -5.0600    3.2360    3.5780 C   0  0  0  0  0  0  0  0  0  0  0  0
   -5.3700    2.6690    2.2680 N   0  0  0  0  0  0  0  0  0  0  0  0
   -4.4580    2.7060    1.1870 C   0  0  0  0  0  0  0  0  0  0  0  0
   -3.3470    3.2570    1.4000 O   0  0  0  0  0  0  0  0  0  0  0  0
   -4.7400    2.1460   -0.1380 C   0  0  2  0  0  0  0  0  0  0  0  0
   -5.9960    1.4630   -0.1350 N   0  0  0  0  0  0  0  0  0  0  0  0
   -3.6080    1.4650   -0.7970 C   0  0  0  0  0  0  0  0  0  0  0  0
   -2.9910    0.3030   -0.1190 C   0  0  2  0  0  0  0  0  0  0  0  0
   -1.9000   -0.1910   -0.9570 N   0  0  0  0  0  0  0  0  0  0  0  0
   -0.7460    0.6400   -0.9080 C   0  0  0  0  0  0  0  0  0  0  0  0
   -0.1930    0.8020   -2.3370 C   0  0  1  0  0  0  0  0  0  0  0  0
    0.9100    1.6100   -2.3400 O   0  0  0  0  0  0  0  0  0  0  0  0
    0.1010   -0.5580   -2.8830 C   0  0  0  0  0  0  0  0  0  0  0  0
    1.0380   -1.3020   -2.2630 O   0  0  0  0  0  0  0  0  0  0  0  0
    2.3690   -1.2710   -2.0690 C   0  0  0  0  0  0  0  0  0  0  0  0
    3.2740   -0.3580   -2.5590 C   0  0  0  0  0  0  0  0  0  0  0  0
    4.6450   -0.4110   -2.2920 C   0  0  0  0  0  0  0  0  0  0  0  0
    5.1640   -1.4070   -1.5080 C   0  0  0  0  0  0  0  0  0  0  0  0
    6.6150   -1.5190   -1.2060 C   0  0  0  0  0  0  0  0  0  0  0  0
    6.8220   -2.0520   -0.0030 O   0  0  0  0  0  0  0  0  0  0  0  0
    6.3470   -1.4680    1.0980 C   0  0  0  0  0  0  0  0  0  0  0  0
    6.8250   -0.1070    1.4390 C   0  0  0  0  0  0  0  0  0  0  0  0
    7.4660    0.0220    2.6040 C   0  0  0  0  0  0  0  0  0  0  0  0
    7.9950    1.3170    3.0710 C   0  0  0  0  0  0  0  0  0  0  0  0
    7.6790    2.3820    2.2450 O   0  0  0  0  0  0  0  0  0  0  0  0
    7.0180    2.2750    1.0450 C   0  0  0  0  0  0  0  0  0  0  0  0
    6.6070    1.0760    0.6560 C   0  0  0  0  0  0  0  0  0  0  0  0
    4.2770   -2.3310   -1.0100 C   0  0  0  0  0  0  0  0  0  0  0  0
    2.9360   -2.2940   -1.2600 C   0  0  0  0  0  0  0  0  0  0  0  0
   -3.9080   -0.8720    0.0460 C   0  0  0  0  0  0  0  0  0  0  0  0
   -4.3160   -1.1830    1.3170 C   0  0  0  0  0  0  0  0  0  0  0  0
   -5.1620   -2.2520    1.5050 C   0  0  0  0  0  0  0  0  0  0  0  0
   -5.6270   -3.0410    0.4570 C   0  0  0  0  0  0  0  0  0  0  0  0
   -6.4960   -4.1340    0.6750 N   0  0  0  0  0  0  0  0  0  0  0  0
   -5.1820   -2.6800   -0.8040 C   0  0  0  0  0  0  0  0  0  0  0  0
   -4.3400   -1.6190   -1.0100 C   0  0  0  0  0  0  0  0  0  0  0  0
  1  2  1  0
  2  3  1  0
  3  4  2  0
  3  5  1  0
  5  6  1  1
  5  7  1  0
  8  7  1  6
  8  9  1  0
  8 30  1  0
  9 10  1  0
 10 11  1  0
 11 12  1  1
 11 13  1  0
 13 14  1  0
 14 15  1  0
 15 16  2  0
 15 29  1  0
 16 17  1  0
 17 18  2  0
 18 19  1  0
 18 28  1  0
 19 20  1  0
 20 21  1  0
 21 22  1  0
 22 23  2  0
 22 27  1  0
 23 24  1  0
 24 25  1  0
 25 26  1  0
 26 27  2  0
 28 29  2  0
 30 31  2  0
 30 36  1  0
 31 32  1  0
 32 33  2  0
 33 34  1  0
 33 35  1  0
 35 36  2  0
M  CHG  2   6   1   9   1
M  END
