
     RDKit          3D

 36 38  0  0  0  0  0  0  0  0999 V2000
   -1.1850    3.6290   -0.0140 C   0  0  0  0  0  0  0  0  0  0  0  0
   -1.4510    3.0780   -1.1720 C   0  0  0  0  0  0  0  0  0  0  0  0
   -1.3760    3.9090   -2.4020 C   0  0  0  0  0  0  0  0  0  0  0  0
   -0.3850    3.3430   -3.3030 N   0  0  0  0  0  0  0  0  0  0  0  0
   -1.7680    1.6530   -1.2980 C   0  0  2  0  0  0  0  0  0  0  0  0
   -2.8900    1.4450   -2.1240 O   0  0  0  0  0  0  0  0  0  0  0  0
   -2.0530    0.9370   -0.0430 C   0  0  0  0  0  0  0  0  0  0  0  0
   -1.2840   -0.2100    0.2290 C   0  0  0  0  0  0  0  0  0  0  0  0
   -0.3240   -0.5490   -0.6400 O   0  0  0  0  0  0  0  0  0  0  0  0
    0.6000   -1.5770   -0.7140 C   0  0  1  0  0  0  0  0  0  0  0  0
    1.6690   -1.4810    0.2820 C   0  0  0  0  0  0  0  0  0  0  0  0
    2.5160   -0.4090    0.2390 O   0  0  0  0  0  0  0  0  0  0  0  0
    1.8850    0.7800    0.3830 C   0  0  0  0  0  0  0  0  0  0  0  0
    2.8480    1.9620    0.4100 C   0  0  0  0  0  0  0  0  0  0  0  0
    3.8270    1.8660    1.5390 C   0  0  0  0  0  0  0  0  0  0  0  0
    4.7080    3.0610    1.4700 C   0  0  0  0  0  0  0  0  0  0  0  0
    4.6720    4.1060    0.5460 C   0  0  0  0  0  0  0  0  0  0  0  0
    5.6750    4.9890    0.8700 C   0  0  0  0  0  0  0  0  0  0  0  0
    6.2880    4.4490    1.9830 C   0  0  0  0  0  0  0  0  0  0  0  0
    5.6870    3.3250    2.2930 O   0  0  0  0  0  0  0  0  0  0  0  0
   -0.0020   -2.9160   -0.9590 C   0  0  0  0  0  0  0  0  0  0  0  0
    0.8890   -4.0150   -1.0430 N   0  0  2  0  0  0  0  0  0  0  0  0
    1.8650   -3.8250   -2.0990 C   0  0  0  0  0  0  0  0  0  0  0  0
    2.8430   -4.9890   -2.0110 C   0  0  0  0  0  0  0  0  0  0  0  0
    2.1270   -6.2090   -2.5140 C   0  0  0  0  0  0  0  0  0  0  0  0
    0.6600   -5.9300   -2.5760 C   0  0  0  0  0  0  0  0  0  0  0  0
    0.1200   -5.1980   -1.3870 C   0  0  0  0  0  0  0  0  0  0  0  0
   -1.6010   -0.8790    1.3810 C   0  0  0  0  0  0  0  0  0  0  0  0
   -2.5960   -0.4650    2.2120 N   0  0  0  0  0  0  0  0  0  0  0  0
   -3.3250    0.6300    1.9440 C   0  0  0  0  0  0  0  0  0  0  0  0
   -4.4150    1.0840    2.8540 C   0  0  2  0  0  0  0  0  0  0  0  0
   -4.1520    2.3320    3.4060 O   0  0  0  0  0  0  0  0  0  0  0  0
   -4.4930    0.0930    4.0140 C   0  0  0  0  0  0  0  0  0  0  0  0
   -4.7670   -1.2450    3.5320 N   0  0  0  0  0  0  0  0  0  0  0  0
   -3.0460    1.3520    0.7800 C   0  0  0  0  0  0  0  0  0  0  0  0
   -3.9220    2.5180    0.5000 C   0  0  0  0  0  0  0  0  0  0  0  0
  1  2  2  0
  2  3  1  0
  2  5  1  0
  3  4  1  0
  5  6  1  6
  5  7  1  0
  7  8  2  0
  7 35  1  0
  8  9  1  0
  8 28  1  0
  9 10  1  0
 10 11  1  1
 10 21  1  0
 11 12  1  0
 12 13  1  0
 13 14  1  0
 14 15  1  0
 15 16  1  0
 16 17  2  0
 16 20  1  0
 17 18  1  0
 18 19  2  0
 19 20  1  0
 22 21  1  6
 22 23  1  0
 22 27  1  0
 23 24  1  0
 24 25  1  0
 25 26  1  0
 26 27  1  0
 28 29  2  0
 29 30  1  0
 30 31  1  0
 30 35  2  0
 31 32  1  1
 31 33  1  0
 33 34  1  0
 35 36  1  0
M  CHG  3   4   1  22   1  34   1
M  END
