
     RDKit          3D

 36 38  0  0  0  0  0  0  0  0999 V2000
    6.1260    1.1670    2.1120 C   0  0  0  0  0  0  0  0  0  0  0  0
    6.5160    1.7580    0.9980 C   0  0  0  0  0  0  0  0  0  0  0  0
    7.8020    2.3490    1.0180 O   0  0  0  0  0  0  0  0  0  0  0  0
    8.3290    3.0010   -0.0600 C   0  0  0  0  0  0  0  0  0  0  0  0
    7.5920    3.0790   -1.1740 C   0  0  0  0  0  0  0  0  0  0  0  0
    6.2860    2.4990   -1.2490 C   0  0  0  0  0  0  0  0  0  0  0  0
    5.7280    1.8420   -0.2050 C   0  0  0  0  0  0  0  0  0  0  0  0
    4.3870    1.2810   -0.3730 C   0  0  0  0  0  0  0  0  0  0  0  0
    4.2750   -0.2280   -0.2920 C   0  0  2  0  0  0  0  0  0  0  0  0
    5.1430   -0.8930   -1.3300 C   0  0  0  0  0  0  0  0  0  0  0  0
    4.8330   -0.4010   -2.6020 O   0  0  0  0  0  0  0  0  0  0  0  0
    2.8640   -0.5720   -0.6790 N   0  0  0  0  0  0  0  0  0  0  0  0
    1.8970   -0.7930    0.3430 C   0  0  0  0  0  0  0  0  0  0  0  0
    2.3240   -0.6740    1.5300 O   0  0  0  0  0  0  0  0  0  0  0  0
    0.4970   -1.1240    0.0870 C   0  0  0  0  0  0  0  0  0  0  0  0
   -0.4970   -0.5150    0.8580 C   0  0  0  0  0  0  0  0  0  0  0  0
   -1.8620   -0.7080    0.6110 C   0  0  0  0  0  0  0  0  0  0  0  0
   -2.7190   -0.0530    1.4360 O   0  0  0  0  0  0  0  0  0  0  0  0
   -3.6670    0.8930    1.1480 C   0  0  0  0  0  0  0  0  0  0  0  0
   -5.0250    0.7120    1.2350 C   0  0  0  0  0  0  0  0  0  0  0  0
   -5.9600    1.6760    0.9410 C   0  0  0  0  0  0  0  0  0  0  0  0
   -5.5440    2.9190    0.5260 C   0  0  0  0  0  0  0  0  0  0  0  0
   -6.4600    3.9100    0.2230 O   0  0  0  0  0  0  0  0  0  0  0  0
   -5.9710    5.1900   -0.2020 C   0  0  0  0  0  0  0  0  0  0  0  0
   -4.1840    3.1470    0.4230 C   0  0  0  0  0  0  0  0  0  0  0  0
   -3.2640    2.1740    0.7230 C   0  0  0  0  0  0  0  0  0  0  0  0
   -2.2460   -1.5190   -0.4150 C   0  0  0  0  0  0  0  0  0  0  0  0
   -3.6760   -1.7730   -0.7490 C   0  0  0  0  0  0  0  0  0  0  0  0
   -4.2110   -2.6850    0.2930 C   0  0  0  0  0  0  0  0  0  0  0  0
   -4.7460   -3.8520    0.0030 C   0  0  0  0  0  0  0  0  0  0  0  0
   -5.2810   -4.7770    0.9730 C   0  0  0  0  0  0  0  0  0  0  0  0
   -5.8410   -6.0050    0.5920 N   0  0  0  0  0  0  0  0  0  0  0  0
   -5.2360   -4.4610    2.1870 O   0  0  0  0  0  0  0  0  0  0  0  0
   -1.2570   -2.1200   -1.1730 C   0  0  0  0  0  0  0  0  0  0  0  0
    0.1130   -1.9330   -0.9340 C   0  0  0  0  0  0  0  0  0  0  0  0
    1.0470   -2.6970   -1.8240 C   0  0  0  0  0  0  0  0  0  0  0  0
  1  2  2  0
  2  3  1  0
  2  7  1  0
  3  4  1  0
  4  5  2  0
  5  6  1  0
  6  7  2  0
  7  8  1  0
  9  8  1  6
  9 10  1  0
  9 12  1  0
 10 11  1  0
 12 13  1  0
 13 14  2  0
 13 15  1  0
 15 16  2  0
 15 35  1  0
 16 17  1  0
 17 18  1  0
 17 27  2  0
 18 19  1  0
 19 20  2  0
 19 26  1  0
 20 21  1  0
 21 22  2  0
 22 23  1  0
 22 25  1  0
 23 24  1  0
 25 26  2  0
 27 28  1  0
 27 34  1  0
 28 29  1  0
 29 30  2  3
 30 31  1  0
 31 32  1  0
 31 33  2  0
 34 35  2  0
 35 36  1  0
M  END
