
     RDKit          3D

 36 37  0  0  0  0  0  0  0  0999 V2000
   -6.6740    4.7080    0.1390 C   0  0  0  0  0  0  0  0  0  0  0  0
   -5.1720    4.7620    0.3630 C   0  0  0  0  0  0  0  0  0  0  0  0
   -4.7390    3.4170    0.9270 C   0  0  0  0  0  0  0  0  0  0  0  0
   -5.0550    2.3280   -0.0030 C   0  0  0  0  0  0  0  0  0  0  0  0
   -6.1840    1.8970   -0.1410 O   0  0  0  0  0  0  0  0  0  0  0  0
   -3.8910    1.7470   -0.8080 C   0  0  0  0  0  0  0  0  0  0  0  0
   -2.6500    2.3560   -0.4230 C   0  0  0  0  0  0  0  0  0  0  0  0
   -1.5430    1.9560    0.0710 C   0  0  0  0  0  0  0  0  0  0  0  0
   -1.0260    0.6860    0.4770 C   0  0  0  0  0  0  0  0  0  0  0  0
   -1.6620   -0.4150    0.4120 N   0  0  0  0  0  0  0  0  0  0  0  0
   -1.1040   -1.6720    0.8180 C   0  0  0  0  0  0  0  0  0  0  0  0
   -1.9640   -2.8550    0.6840 C   0  0  2  0  0  0  0  0  0  0  0  0
   -1.2660   -3.9860    0.3760 O   0  0  0  0  0  0  0  0  0  0  0  0
   -3.1540   -2.6890   -0.2090 C   0  0  0  0  0  0  0  0  0  0  0  0
   -3.9680   -3.9750   -0.2880 C   0  0  0  0  0  0  0  0  0  0  0  0
   -3.2350   -5.0880   -0.8050 N   0  0  0  0  0  0  0  0  0  0  0  0
    0.1080   -1.8050    1.2750 C   0  0  0  0  0  0  0  0  0  0  0  0
    0.7230   -3.0470    1.7200 C   0  0  0  0  0  0  0  0  0  0  0  0
    0.2460   -4.0440    2.5480 C   0  0  0  0  0  0  0  0  0  0  0  0
    1.2470   -4.9870    2.6280 C   0  0  0  0  0  0  0  0  0  0  0  0
    2.3000   -4.5470    1.8570 C   0  0  0  0  0  0  0  0  0  0  0  0
    3.6190   -5.2370    1.6320 C   0  0  0  0  0  0  0  0  0  0  0  0
    1.9410   -3.4170    1.3540 O   0  0  0  0  0  0  0  0  0  0  0  0
    1.0240   -0.6140    1.2730 C   0  0  1  0  0  0  0  0  0  0  0  0
    1.9670   -0.7310    0.0990 C   0  0  0  0  0  0  0  0  0  0  0  0
    1.8130   -1.6240   -0.8360 C   0  0  0  0  0  0  0  0  0  0  0  0
    2.7390   -1.7020   -1.9400 N   0  0  0  0  0  0  0  0  0  0  0  0
    3.0630    0.2320   -0.0130 C   0  0  0  0  0  0  0  0  0  0  0  0
    3.2140    1.0900    0.8790 O   0  0  0  0  0  0  0  0  0  0  0  0
    3.9410    0.2220   -1.0800 O   0  0  0  0  0  0  0  0  0  0  0  0
    4.9990    1.1350   -1.2190 C   0  0  0  0  0  0  0  0  0  0  0  0
    4.4690    2.5140   -1.3340 C   0  0  0  0  0  0  0  0  0  0  0  0
    5.5340    3.5700   -1.4830 C   0  0  2  0  0  0  0  0  0  0  0  0
    6.4830    3.6000   -0.3120 C   0  0  0  0  0  0  0  0  0  0  0  0
    4.8210    4.9090   -1.5220 C   0  0  0  0  0  0  0  0  0  0  0  0
    0.2850    0.6150    1.1030 N   0  0  0  0  0  0  0  0  0  0  0  0
  1  2  1  0
  2  3  1  0
  3  4  1  0
  4  5  2  0
  4  6  1  0
  6  7  1  0
  7  8  2  3
  8  9  1  0
  9 10  2  0
  9 36  1  0
 10 11  1  0
 11 12  1  0
 11 17  2  0
 12 13  1  6
 12 14  1  0
 14 15  1  0
 15 16  1  0
 17 18  1  0
 17 24  1  0
 18 19  2  0
 18 23  1  0
 19 20  1  0
 20 21  2  0
 21 22  1  0
 21 23  1  0
 24 25  1  6
 24 36  1  0
 25 26  2  3
 25 28  1  0
 26 27  1  0
 28 29  2  0
 28 30  1  0
 30 31  1  0
 31 32  1  0
 32 33  1  0
 33 34  1  1
 33 35  1  0
M  CHG  2  10   1  16   1
M  END
