
     RDKit          3D

 36 38  0  0  0  0  0  0  0  0999 V2000
   -2.7470    2.9340    2.2440 C   0  0  0  0  0  0  0  0  0  0  0  0
   -4.2130    3.0110    1.9160 C   0  0  0  0  0  0  0  0  0  0  0  0
   -4.6720    1.8220    1.0770 C   0  0  2  0  0  0  0  0  0  0  0  0
   -4.4430    0.5380    1.8080 C   0  0  0  0  0  0  0  0  0  0  0  0
   -4.0310    1.8570   -0.2620 C   0  0  0  0  0  0  0  0  0  0  0  0
   -4.3890    0.7890   -1.2060 C   0  0  0  0  0  0  0  0  0  0  0  0
   -4.0620   -0.5800   -0.8240 N   0  0  0  0  0  0  0  0  0  0  0  0
   -2.7040   -0.9710   -0.5900 C   0  0  0  0  0  0  0  0  0  0  0  0
   -1.8880    0.0190   -0.7740 O   0  0  0  0  0  0  0  0  0  0  0  0
   -2.1660   -2.2190   -0.2010 C   0  0  0  0  0  0  0  0  0  0  0  0
   -0.7050   -2.4000   -0.0440 C   0  0  0  0  0  0  0  0  0  0  0  0
    0.3300   -1.6950   -0.2440 C   0  0  0  0  0  0  0  0  0  0  0  0
    0.2980   -0.3980   -0.7360 O   0  0  0  0  0  0  0  0  0  0  0  0
    1.6660   -2.2840    0.0570 C   0  0  0  0  0  0  0  0  0  0  0  0
    1.8410   -3.6010    0.3920 C   0  0  0  0  0  0  0  0  0  0  0  0
    3.1100   -4.1220    0.7010 C   0  0  0  0  0  0  0  0  0  0  0  0
    4.2070   -3.3010    0.6690 C   0  0  0  0  0  0  0  0  0  0  0  0
    4.0160   -1.9790    0.3300 C   0  0  0  0  0  0  0  0  0  0  0  0
    2.7520   -1.4480    0.0200 C   0  0  0  0  0  0  0  0  0  0  0  0
    2.6010   -0.0360   -0.2460 C   0  0  0  0  0  0  0  0  0  0  0  0
    3.1320    0.6520   -1.2220 C   0  0  0  0  0  0  0  0  0  0  0  0
    3.9780    0.0020   -2.2050 C   0  0  0  0  0  0  0  0  0  0  0  0
    4.2510   -1.2090   -2.2340 O   0  0  0  0  0  0  0  0  0  0  0  0
    2.9210    2.1350   -1.3790 C   0  0  2  0  0  0  0  0  0  0  0  0
    4.2690    2.8200   -1.3170 C   0  0  0  0  0  0  0  0  0  0  0  0
    4.0920    4.3140   -1.4550 C   0  0  0  0  0  0  0  0  0  0  0  0
    3.3050    4.8400   -0.2760 C   0  0  0  0  0  0  0  0  0  0  0  0
    1.9990    4.1390   -0.2620 C   0  0  0  0  0  0  0  0  0  0  0  0
    0.9110    4.6460   -0.2500 O   0  0  0  0  0  0  0  0  0  0  0  0
    2.0650    2.6250   -0.2630 C   0  0  0  0  0  0  0  0  0  0  0  0
    5.3500   -4.0490    1.0120 O   0  0  0  0  0  0  0  0  0  0  0  0
    5.0100   -5.4030    0.7890 C   0  0  0  0  0  0  0  0  0  0  0  0
    3.5990   -5.3650    1.0640 O   0  0  0  0  0  0  0  0  0  0  0  0
   -2.9150   -3.2780    0.1230 C   0  0  0  0  0  0  0  0  0  0  0  0
   -4.3570   -3.4170    0.1620 C   0  0  0  0  0  0  0  0  0  0  0  0
   -2.1400   -4.4770    0.4880 N   0  0  0  0  0  0  0  0  0  0  0  0
  1  2  1  0
  2  3  1  0
  3  4  1  1
  3  5  1  0
  5  6  1  0
  6  7  1  0
  7  8  1  0
  8  9  2  0
  8 10  1  0
 10 11  1  0
 10 34  2  3
 11 12  2  3
 12 13  1  0
 12 14  1  0
 14 15  2  0
 14 19  1  0
 15 16  1  0
 16 17  2  0
 16 33  1  0
 17 18  1  0
 17 31  1  0
 18 19  2  0
 19 20  1  0
 20 21  2  3
 21 22  1  0
 24 21  1  1
 22 23  2  0
 24 25  1  0
 24 30  1  0
 25 26  1  0
 26 27  1  0
 27 28  1  0
 28 29  2  0
 28 30  1  0
 31 32  1  0
 32 33  1  0
 34 35  1  0
 34 36  1  0
M  END
