
     RDKit          3D

 36 37  0  0  0  0  0  0  0  0999 V2000
    5.9150    2.8410   -0.9870 C   0  0  0  0  0  0  0  0  0  0  0  0
    6.2850    1.7770   -0.3770 C   0  0  0  0  0  0  0  0  0  0  0  0
    5.5750    0.7020    0.1860 C   0  0  0  0  0  0  0  0  0  0  0  0
    6.3030   -0.2850    0.7820 C   0  0  0  0  0  0  0  0  0  0  0  0
    7.7890   -0.1970    0.8190 C   0  0  0  0  0  0  0  0  0  0  0  0
    4.1400    0.5120    0.2360 C   0  0  0  0  0  0  0  0  0  0  0  0
    3.1850    1.2670   -0.3810 C   0  0  0  0  0  0  0  0  0  0  0  0
    1.9240    0.7560   -0.0340 C   0  0  0  0  0  0  0  0  0  0  0  0
    0.6510    1.2820   -0.4690 C   0  0  0  0  0  0  0  0  0  0  0  0
    0.5940    2.2840   -1.2690 O   0  0  0  0  0  0  0  0  0  0  0  0
   -0.5380    0.7820   -0.0830 O   0  0  0  0  0  0  0  0  0  0  0  0
   -1.8070    1.2820   -0.5000 C   0  0  1  0  0  0  0  0  0  0  0  0
   -2.6000    0.2590   -1.2380 C   0  0  0  0  0  0  0  0  0  0  0  0
   -1.9400   -0.2450   -2.4760 C   0  0  2  0  0  0  0  0  0  0  0  0
   -1.6790    0.8500   -3.4870 C   0  0  0  0  0  0  0  0  0  0  0  0
   -2.6560   -1.2980   -3.1350 N   0  0  2  0  0  0  0  0  0  0  0  0
   -3.6380   -1.9450   -2.3110 C   0  0  0  0  0  0  0  0  0  0  0  0
   -1.6880   -2.2660   -3.6180 C   0  0  0  0  0  0  0  0  0  0  0  0
   -2.2920   -3.6130   -3.8990 C   0  0  0  0  0  0  0  0  0  0  0  0
   -1.2820   -4.4550   -4.3520 O   0  0  0  0  0  0  0  0  0  0  0  0
   -2.5630    1.9010    0.6210 C   0  0  0  0  0  0  0  0  0  0  0  0
   -2.6780    1.3350    1.8700 C   0  0  0  0  0  0  0  0  0  0  0  0
   -3.3880    1.9380    2.8850 C   0  0  0  0  0  0  0  0  0  0  0  0
   -4.0240    3.1520    2.6910 C   0  0  0  0  0  0  0  0  0  0  0  0
   -4.7760    3.8160    3.7330 C   0  0  0  0  0  0  0  0  0  0  0  0
   -5.4530    5.0330    3.4680 N   0  0  0  0  0  0  0  0  0  0  0  0
   -4.8280    3.3020    4.8990 O   0  0  0  0  0  0  0  0  0  0  0  0
   -3.9200    3.7240    1.4610 C   0  0  0  0  0  0  0  0  0  0  0  0
   -3.2090    3.1200    0.4460 C   0  0  0  0  0  0  0  0  0  0  0  0
    2.1640   -0.2980    0.7860 C   0  0  0  0  0  0  0  0  0  0  0  0
    1.2130   -1.2090    1.4500 C   0  0  0  0  0  0  0  0  0  0  0  0
   -0.0230   -1.1230    1.3300 O   0  0  0  0  0  0  0  0  0  0  0  0
    1.6990   -2.3150    2.3270 C   0  0  0  0  0  0  0  0  0  0  0  0
    0.5650   -3.1060    2.8990 C   0  0  0  0  0  0  0  0  0  0  0  0
    1.0820   -4.1590    3.7360 N   0  0  0  0  0  0  0  0  0  0  0  0
    3.4930   -0.4530    0.9550 N   0  0  0  0  0  0  0  0  0  0  0  0
  1  2  2  0
  2  3  1  0
  3  4  2  3
  3  6  1  0
  4  5  1  0
  6  7  2  0
  6 36  1  0
  7  8  1  0
  8  9  1  0
  8 30  2  0
  9 10  2  0
  9 11  1  0
 11 12  1  0
 12 13  1  1
 12 21  1  0
 13 14  1  0
 14 15  1  6
 14 16  1  0
 16 17  1  1
 16 18  1  0
 18 19  1  0
 19 20  1  0
 21 22  2  0
 21 29  1  0
 22 23  1  0
 23 24  2  0
 24 25  1  0
 24 28  1  0
 25 26  1  0
 25 27  2  0
 28 29  2  0
 30 31  1  0
 30 36  1  0
 31 32  2  0
 31 33  1  0
 33 34  1  0
 34 35  1  0
M  CHG  2  16   1  35   1
M  END
