
     RDKit          3D

 13 13  0  0  0  0  0  0  0  0999 V2000
    2.0600    2.1030   -0.1630 O   0  0  0  0  0  0  0  0  0  0  0  0
    2.3640    0.9840    0.2050 C   0  0  0  0  0  0  0  0  0  0  0  0
    4.1200    0.6310    0.5860 S   0  0  0  0  0  0  0  0  0  0  0  0
    1.4570   -0.0640    0.3590 N   0  0  0  0  0  0  0  0  0  0  0  0
    0.0980   -0.0440    0.1170 N   0  0  0  0  0  0  0  0  0  0  0  0
   -0.6100   -1.1480    0.5610 C   0  0  0  0  0  0  0  0  0  0  0  0
    0.0500   -2.0410    1.1670 O   0  0  0  0  0  0  0  0  0  0  0  0
   -1.9190   -1.3070    0.3830 N   0  0  0  0  0  0  0  0  0  0  0  0
   -2.6480   -0.3880   -0.2510 C   0  0  0  0  0  0  0  0  0  0  0  0
   -3.8890   -0.5030   -0.4380 O   0  0  0  0  0  0  0  0  0  0  0  0
   -2.0100    0.6900   -0.6960 N   0  0  0  0  0  0  0  0  0  0  0  0
   -0.6560    0.8500   -0.5100 C   0  0  0  0  0  0  0  0  0  0  0  0
   -0.0030    2.1790   -1.1560 S   0  0  0  0  0  0  0  0  0  0  0  0
  1  2  2  0
  2  3  1  0
  2  4  1  0
  4  5  1  0
  5  6  1  0
  5 12  1  0
  6  7  2  0
  6  8  1  0
  8  9  1  0
  9 10  2  0
  9 11  1  0
 11 12  1  0
 12 13  2  0
M  END
