
     RDKit          3D

 13 13  0  0  0  0  0  0  0  0999 V2000
   -3.7940   -0.6170    0.1020 N   0  0  0  0  0  0  0  0  0  0  0  0
   -3.3000    0.7120   -0.0080 C   0  0  0  0  0  0  0  0  0  0  0  0
   -4.1480    1.6590   -0.0760 O   0  0  0  0  0  0  0  0  0  0  0  0
   -1.8790    1.0610   -0.0470 C   0  0  0  0  0  0  0  0  0  0  0  0
   -1.0600   -0.1310    0.0410 N   0  0  0  0  0  0  0  0  0  0  0  0
    0.3700   -0.0090    0.0190 C   0  0  0  0  0  0  0  0  0  0  0  0
    0.8550    1.1390   -0.0770 O   0  0  0  0  0  0  0  0  0  0  0  0
    1.2080   -1.1140    0.0990 O   0  0  0  0  0  0  0  0  0  0  0  0
    2.6110   -0.9570    0.0750 C   0  0  0  0  0  0  0  0  0  0  0  0
    3.1730    0.1330   -0.0170 N   0  0  0  0  0  0  0  0  0  0  0  0
    4.5000    0.3340   -0.0440 N   0  0  0  0  0  0  0  0  0  0  0  0
    5.4580   -1.1540   -0.1550 S   0  0  0  0  0  0  0  0  0  0  0  0
    3.6950   -2.3810    0.1790 S   0  0  0  0  0  0  0  0  0  0  0  0
  1  2  1  0
  2  3  2  0
  2  4  1  0
  4  5  1  0
  5  6  1  0
  6  7  2  0
  6  8  1  0
  8  9  1  0
  9 10  2  0
  9 13  1  0
 10 11  1  0
 11 12  1  0
 12 13  1  0
M  END
