
     RDKit          3D

 20 22  0  0  0  0  0  0  0  0999 V2000
   -5.1350    1.7070    0.2780 N   0  0  0  0  0  0  0  0  0  0  0  0
   -3.7890    1.2660    0.2560 C   0  0  0  0  0  0  0  0  0  0  0  0
   -2.7210    2.1360    0.1170 C   0  0  0  0  0  0  0  0  0  0  0  0
   -1.4520    1.6860    0.0990 N   0  0  0  0  0  0  0  0  0  0  0  0
   -1.1660    0.3820    0.2150 C   0  0  0  0  0  0  0  0  0  0  0  0
    0.2150   -0.1060    0.1960 C   0  0  0  0  0  0  0  0  0  0  0  0
    0.4630   -1.4540    0.3190 C   0  0  0  0  0  0  0  0  0  0  0  0
    1.7340   -1.9470    0.3060 C   0  0  0  0  0  0  0  0  0  0  0  0
    2.7940   -1.0970    0.1690 C   0  0  0  0  0  0  0  0  0  0  0  0
    4.0980   -1.5830    0.1540 C   0  0  0  0  0  0  0  0  0  0  0  0
    4.4250   -3.4510    0.3240 Br  0  0  0  0  0  0  0  0  0  0  0  0
    5.1330   -0.6930    0.0140 C   0  0  0  0  0  0  0  0  0  0  0  0
    4.9000    0.6470   -0.1080 C   0  0  0  0  0  0  0  0  0  0  0  0
    6.3960    1.8150   -0.2980 Br  0  0  0  0  0  0  0  0  0  0  0  0
    3.6060    1.1000   -0.0900 C   0  0  0  0  0  0  0  0  0  0  0  0
    2.5040    0.2480    0.0490 C   0  0  0  0  0  0  0  0  0  0  0  0
    1.2510    0.7270    0.0630 N   0  0  0  0  0  0  0  0  0  0  0  0
   -2.1840   -0.4720    0.3510 N   0  0  0  0  0  0  0  0  0  0  0  0
   -3.4750   -0.0800    0.3750 C   0  0  0  0  0  0  0  0  0  0  0  0
   -4.5610   -0.9820    0.5180 N   0  0  0  0  0  0  0  0  0  0  0  0
  1  2  1  0
  2  3  2  0
  2 19  1  0
  3  4  1  0
  4  5  2  0
  5  6  1  0
  5 18  1  0
  6  7  2  0
  6 17  1  0
  7  8  1  0
  8  9  2  0
  9 10  1  0
  9 16  1  0
 10 11  1  0
 10 12  2  0
 12 13  1  0
 13 14  1  0
 13 15  2  0
 15 16  1  0
 16 17  2  0
 18 19  2  0
 19 20  1  0
M  END
