
     RDKit          3D

 12 12  0  0  0  0  0  0  0  0999 V2000
   -2.5640    2.5270    0.4850 O   0  0  0  0  0  0  0  0  0  0  0  0
   -2.1210    1.3560    0.3620 C   0  0  0  0  0  0  0  0  0  0  0  0
   -0.9620    0.9330    0.8920 N   0  0  0  0  0  0  0  0  0  0  0  0
   -0.4890   -0.3230    0.7580 C   0  0  0  0  0  0  0  0  0  0  0  0
    1.0360   -0.8810    1.4540 S   0  0  0  0  0  0  0  0  0  0  0  0
    2.4290   -0.6420    0.3120 C   0  0  0  0  0  0  0  0  0  0  0  0
    2.6490    1.1490    0.1190 S   0  0  0  0  0  0  0  0  0  0  0  0
    3.9230    1.5420   -0.9310 O   0  0  0  0  0  0  0  0  0  0  0  0
   -1.2340   -1.1900    0.0490 N   0  0  0  0  0  0  0  0  0  0  0  0
   -2.4010   -0.8210   -0.5030 C   0  0  0  0  0  0  0  0  0  0  0  0
   -3.0590   -1.6800   -1.1590 O   0  0  0  0  0  0  0  0  0  0  0  0
   -2.8330    0.4380   -0.3450 N   0  0  0  0  0  0  0  0  0  0  0  0
  1  2  2  0
  2  3  1  0
  2 12  1  0
  3  4  2  0
  4  5  1  0
  4  9  1  0
  5  6  1  0
  6  7  1  0
  7  8  1  0
  9 10  1  0
 10 11  2  0
 10 12  1  0
M  END
