
     RDKit          3D

 12 12  0  0  0  0  0  0  0  0999 V2000
   -4.2670   -0.1790   -0.5580 N   0  0  0  0  0  0  0  0  0  0  0  0
   -3.3390    0.5520    0.0620 O   0  0  0  0  0  0  0  0  0  0  0  0
   -2.0370    0.0630   -0.1320 C   0  0  0  0  0  0  0  0  0  0  0  0
   -0.9140    1.1390    0.7530 S   0  0  0  0  0  0  0  0  0  0  0  0
    0.7880    0.5800    0.5540 C   0  0  0  0  0  0  0  0  0  0  0  0
    1.8090    1.2360    1.1320 N   0  0  0  0  0  0  0  0  0  0  0  0
    3.0720    0.8750    1.0230 N   0  0  0  0  0  0  0  0  0  0  0  0
    3.3410   -0.2180    0.2850 C   0  0  0  0  0  0  0  0  0  0  0  0
    4.9080   -0.6600    0.1540 S   0  0  0  0  0  0  0  0  0  0  0  0
    2.3590   -0.9130   -0.3160 N   0  0  0  0  0  0  0  0  0  0  0  0
    1.0740   -0.5260   -0.1910 C   0  0  0  0  0  0  0  0  0  0  0  0
    0.1270   -1.1540   -0.7410 O   0  0  0  0  0  0  0  0  0  0  0  0
  1  2  1  0
  2  3  1  0
  3  4  1  0
  4  5  1  0
  5  6  2  0
  5 11  1  0
  6  7  1  0
  7  8  1  0
  8  9  2  0
  8 10  1  0
 10 11  1  0
 11 12  2  0
M  END
