
     RDKit          3D

 12 12  0  0  0  0  0  0  0  0999 V2000
   -3.7980   -0.5050    0.0000 O   0  0  0  0  0  0  0  0  0  0  0  0
   -2.5620   -0.3080   -0.1320 C   0  0  0  0  0  0  0  0  0  0  0  0
   -1.7930   -1.2290   -0.7420 N   0  0  0  0  0  0  0  0  0  0  0  0
   -0.4730   -1.0270   -0.8870 C   0  0  0  0  0  0  0  0  0  0  0  0
    0.2320   -1.8970   -1.4590 O   0  0  0  0  0  0  0  0  0  0  0  0
    0.0930    0.1020   -0.4230 N   0  0  0  0  0  0  0  0  0  0  0  0
    1.5210    0.3630   -0.5590 C   0  0  0  0  0  0  0  0  0  0  0  0
    2.3370   -0.3100    0.9140 S   0  0  0  0  0  0  0  0  0  0  0  0
    4.0200   -0.0700    0.8800 O   0  0  0  0  0  0  0  0  0  0  0  0
   -0.7060    1.0130    0.1870 C   0  0  0  0  0  0  0  0  0  0  0  0
   -0.0290    2.3870    0.7550 S   0  0  0  0  0  0  0  0  0  0  0  0
   -2.0270    0.8340    0.3450 N   0  0  0  0  0  0  0  0  0  0  0  0
  1  2  2  0
  2  3  1  0
  2 12  1  0
  3  4  1  0
  4  5  2  0
  4  6  1  0
  6  7  1  0
  6 10  1  0
  7  8  1  0
  8  9  1  0
 10 11  2  0
 10 12  1  0
M  END
