
     RDKit          3D

 13 13  0  0  0  0  0  0  0  0999 V2000
   -4.4160   -0.3390   -0.3720 C   0  0  0  0  0  0  0  0  0  0  0  0
   -2.9670   -0.7170   -0.2420 C   0  0  0  0  0  0  0  0  0  0  0  0
   -2.6580   -1.9160   -0.2360 O   0  0  0  0  0  0  0  0  0  0  0  0
   -1.9960    0.2860   -0.1310 N   0  0  0  0  0  0  0  0  0  0  0  0
   -0.6430   -0.1380   -0.0110 C   0  0  0  0  0  0  0  0  0  0  0  0
    0.0540   -1.1160    0.0360 N   0  0  0  0  0  0  0  0  0  0  0  0
    1.3420   -1.0960    0.1580 N   0  0  0  0  0  0  0  0  0  0  0  0
    2.0250   -0.1410    0.2410 C   0  0  0  0  0  0  0  0  0  0  0  0
    3.6190    0.5140    0.4000 S   0  0  2  0  0  0  0  0  0  0  0  0
    4.3190    0.7930   -1.1640 N   0  0  0  0  0  0  0  0  0  0  0  0
    4.4460   -0.4500    1.1960 O   0  0  0  0  0  0  0  0  0  0  0  0
    3.6530    1.8200    1.1400 O   0  0  0  0  0  0  0  0  0  0  0  0
    0.6620    1.1790    0.1370 S   0  0  0  0  0  0  0  0  0  0  0  0
  1  2  1  0
  2  3  2  0
  2  4  1  0
  4  5  1  0
  5  6  2  0
  5 13  1  0
  6  7  1  0
  7  8  2  0
  8  9  1  0
  8 13  1  0
  9 10  1  6
  9 11  2  0
  9 12  2  0
M  END
