
     RDKit          3D

  7  6  0  0  0  0  0  0  0  0999 V2000
   -1.8300    1.1110    0.8550 C   0  0  0  0  0  0  0  0  0  0  0  0
   -0.9460    0.2620    0.3760 C   0  0  0  0  0  0  0  0  0  0  0  0
   -1.3220   -1.1210   -0.0340 C   0  0  0  0  0  0  0  0  0  0  0  0
    0.4450    0.6340    0.2220 C   0  0  0  0  0  0  0  0  0  0  0  0
    1.2940   -0.2380   -0.2580 C   0  0  0  0  0  0  0  0  0  0  0  0
    2.7230    0.1000   -0.4310 C   0  0  0  0  0  0  0  0  0  0  0  0
    3.5280   -0.7200   -0.8840 O   0  0  0  0  0  0  0  0  0  0  0  0
  1  2  2  0
  2  3  1  0
  2  4  1  0
  4  5  2  3
  5  6  1  0
  6  7  2  0
M  END
