
     RDKit          3D

  7  7  0  0  0  0  0  0  0  0999 V2000
   -0.2300   -2.3010    1.1050 O   0  0  0  0  0  0  0  0  0  0  0  0
   -0.1140   -1.3830    0.3470 C   0  0  0  0  0  0  0  0  0  0  0  0
   -1.2930   -0.7680   -0.2750 C   0  0  0  0  0  0  0  0  0  0  0  0
   -1.2180    0.7280   -0.0390 C   0  0  0  0  0  0  0  0  0  0  0  0
    0.1470    1.2480   -0.4000 C   0  0  0  0  0  0  0  0  0  0  0  0
    1.2160    0.6030    0.4640 C   0  0  0  0  0  0  0  0  0  0  0  0
    1.2310   -0.8730    0.0430 C   0  0  0  0  0  0  0  0  0  0  0  0
  1  2  2  0
  2  3  1  0
  2  7  1  0
  3  4  1  0
  4  5  1  0
  5  6  1  0
  6  7  1  0
M  END
