
     RDKit          3D

  7  7  0  0  0  0  0  0  0  0999 V2000
   -1.2090    2.3280    0.1160 O   0  0  0  0  0  0  0  0  0  0  0  0
   -0.5870    1.1900    0.0650 C   0  0  0  0  0  0  0  0  0  0  0  0
    0.8570    1.1730    0.2000 C   0  0  0  0  0  0  0  0  0  0  0  0
    1.5690    0.0690    0.1610 C   0  0  0  0  0  0  0  0  0  0  0  0
    0.7970   -1.1630   -0.0310 C   0  0  0  0  0  0  0  0  0  0  0  0
   -0.5010   -1.2290   -0.1600 C   0  0  0  0  0  0  0  0  0  0  0  0
   -1.3500   -0.0410   -0.1250 C   0  0  0  0  0  0  0  0  0  0  0  0
  1  2  2  0
  2  3  1  0
  2  7  1  0
  3  4  2  0
  4  5  1  0
  5  6  2  0
  6  7  1  0
M  END
