
     RDKit          3D

 28 30  0  0  0  0  0  0  0  0999 V2000
   -3.9070    3.7710   -1.8570 C   0  0  0  0  0  0  0  0  0  0  0  0
   -3.1370    3.6450   -0.5700 C   0  0  0  0  0  0  0  0  0  0  0  0
   -3.1870    2.2830    0.0590 C   0  0  0  0  0  0  0  0  0  0  0  0
   -2.7270    1.1050   -0.6180 C   0  0  0  0  0  0  0  0  0  0  0  0
   -1.4240    0.7400   -1.1730 C   0  0  2  0  0  0  0  0  0  0  0  0
   -1.0860    1.6840   -2.2610 C   0  0  0  0  0  0  0  0  0  0  0  0
   -1.7270   -0.4400   -1.9220 O   0  0  0  0  0  0  0  0  0  0  0  0
   -0.3100    0.3150   -0.2160 C   0  0  2  0  0  0  0  0  0  0  0  0
   -0.8420   -0.8160    0.5690 C   0  0  1  0  0  0  0  0  0  0  0  0
   -1.2680   -2.1000   -0.0250 C   0  0  0  0  0  0  0  0  0  0  0  0
   -2.5110   -2.6150    0.7040 C   0  0  0  0  0  0  0  0  0  0  0  0
   -2.2440   -2.7570    2.0000 C   0  0  0  0  0  0  0  0  0  0  0  0
   -0.8620   -2.4040    2.4260 C   0  0  0  0  0  0  0  0  0  0  0  0
   -0.4620   -0.9730    2.0130 C   0  0  2  0  0  0  0  0  0  0  0  0
   -1.2540   -0.1850    3.0220 C   0  0  0  0  0  0  0  0  0  0  0  0
   -0.6640   -0.5250    4.3830 C   0  0  0  0  0  0  0  0  0  0  0  0
   -0.0120    1.4500    0.7320 C   0  0  0  0  0  0  0  0  0  0  0  0
    0.9950    2.3700    0.0950 C   0  0  0  0  0  0  0  0  0  0  0  0
    1.5740    1.6180   -1.0300 C   0  0  1  0  0  0  0  0  0  0  0  0
    3.0400    1.8500   -0.9920 C   0  0  0  0  0  0  0  0  0  0  0  0
    3.9220    0.7940   -1.5120 C   0  0  0  0  0  0  0  0  0  0  0  0
    3.0430   -0.3660   -1.8340 C   0  0  0  0  0  0  0  0  0  0  0  0
    2.1280   -0.6340   -0.6250 C   0  0  2  0  0  0  0  0  0  0  0  0
    2.9360   -0.4410    0.6430 C   0  0  0  0  0  0  0  0  0  0  0  0
    1.9970   -2.1290   -0.6970 C   0  0  0  0  0  0  0  0  0  0  0  0
    3.2350   -2.9490   -0.6110 C   0  0  0  0  0  0  0  0  0  0  0  0
    2.8300   -4.4520   -0.6750 C   0  0  0  0  0  0  0  0  0  0  0  0
    1.0140    0.2190   -0.8850 C   0  0  1  0  0  0  0  0  0  0  0  0
  1  2  1  0
  2  3  1  0
  3  4  1  0
  4  5  1  0
  5  6  1  6
  5  7  1  0
  5  8  1  0
  8  9  1  0
  8 17  1  1
  8 28  1  0
  9 10  1  6
  9 14  1  0
 10 11  1  0
 11 12  2  0
 12 13  1  0
 13 14  1  0
 14 15  1  1
 15 16  1  0
 17 18  1  0
 19 18  1  1
 19 20  1  0
 19 28  1  0
 20 21  1  0
 21 22  1  0
 22 23  1  0
 23 24  1  1
 23 25  1  0
 28 23  1  1
 25 26  1  0
 26 27  1  0
M  END
