
     RDKit          3D

  7  7  0  0  0  0  0  0  0  0999 V2000
    2.2200    0.5350   -0.2790 C   0  0  0  0  0  0  0  0  0  0  0  0
    1.3280   -0.6260   -0.0010 C   0  0  0  0  0  0  0  0  0  0  0  0
   -0.1150   -0.2600    0.0440 C   0  0  0  0  0  0  0  0  0  0  0  0
   -0.6810    0.9270   -0.1250 C   0  0  0  0  0  0  0  0  0  0  0  0
   -2.1630    0.7610    0.0190 C   0  0  0  0  0  0  0  0  0  0  0  0
   -2.3550   -0.6110   -0.1430 O   0  0  0  0  0  0  0  0  0  0  0  0
   -1.2130   -1.2230    0.3060 C   0  0  0  0  0  0  0  0  0  0  0  0
  1  2  1  0
  2  3  1  0
  3  4  2  0
  3  7  1  0
  4  5  1  0
  5  6  1  0
  6  7  1  0
M  END
