
     RDKit          3D

 30 33  0  0  0  0  0  0  0  0999 V2000
    8.4830   -3.0230   -0.9860 C   0  0  0  0  0  0  0  0  0  0  0  0
    7.9020   -1.6520   -0.7870 C   0  0  0  0  0  0  0  0  0  0  0  0
    7.5950   -1.0680   -2.1520 C   0  0  0  0  0  0  0  0  0  0  0  0
    7.0100    0.3050   -2.0240 C   0  0  0  0  0  0  0  0  0  0  0  0
    5.7390    0.3000   -1.2430 C   0  0  0  0  0  0  0  0  0  0  0  0
    4.5240    0.1270   -1.8690 C   0  0  0  0  0  0  0  0  0  0  0  0
    3.3370    0.1210   -1.1540 C   0  0  0  0  0  0  0  0  0  0  0  0
    3.3210    0.2870    0.2160 C   0  0  0  0  0  0  0  0  0  0  0  0
    2.0540    0.2790    0.9730 C   0  0  0  0  0  0  0  0  0  0  0  0
    1.4610    1.6730    1.0880 C   0  0  0  0  0  0  0  0  0  0  0  0
    0.1830    1.5760    1.8690 C   0  0  0  0  0  0  0  0  0  0  0  0
   -0.2120    0.4500    2.3050 O   0  0  0  0  0  0  0  0  0  0  0  0
   -0.5790    2.7420    2.1190 N   0  0  0  0  0  0  0  0  0  0  0  0
   -1.8590    2.7090    1.9660 C   0  0  0  0  0  0  0  0  0  0  0  0
   -2.6880    3.7710    2.1790 N   0  0  0  0  0  0  0  0  0  0  0  0
   -3.9370    3.3750    1.9260 N   0  0  0  0  0  0  0  0  0  0  0  0
   -3.9310    2.0870    1.5580 C   0  0  0  0  0  0  0  0  0  0  0  0
   -5.0820    1.2740    1.1980 C   0  0  0  0  0  0  0  0  0  0  0  0
   -5.1300   -0.0450    0.8180 C   0  0  0  0  0  0  0  0  0  0  0  0
   -6.3220   -0.5810    0.5330 C   0  0  0  0  0  0  0  0  0  0  0  0
   -7.4470    0.2360    0.6390 C   0  0  0  0  0  0  0  0  0  0  0  0
   -6.7610    1.7670    1.1510 S   0  0  0  0  0  0  0  0  0  0  0  0
   -8.8730   -0.0380    0.4030 C   0  0  0  0  0  0  0  0  0  0  0  0
   -8.9970   -1.4180    0.2500 O   0  0  0  0  0  0  0  0  0  0  0  0
   -8.5950   -1.8390   -1.0130 C   0  0  0  0  0  0  0  0  0  0  0  0
   -7.1810   -2.0240   -1.1370 N   0  0  0  0  0  0  0  0  0  0  0  0
   -6.4680   -2.0410    0.1030 C   0  0  0  0  0  0  0  0  0  0  0  0
   -2.6570    1.6840    1.5840 N   0  0  0  0  0  0  0  0  0  0  0  0
    4.5510    0.4600    0.8360 C   0  0  0  0  0  0  0  0  0  0  0  0
    5.7340    0.4670    0.1260 C   0  0  0  0  0  0  0  0  0  0  0  0
  1  2  1  0
  2  3  1  0
  3  4  1  0
  4  5  1  0
  5  6  2  0
  5 30  1  0
  6  7  1  0
  7  8  2  0
  8  9  1  0
  8 29  1  0
  9 10  1  0
 10 11  1  0
 11 12  2  0
 11 13  1  0
 13 14  2  3
 14 15  1  0
 14 28  1  0
 15 16  1  0
 16 17  2  0
 17 18  1  0
 17 28  1  0
 18 19  2  0
 18 22  1  0
 19 20  1  0
 20 21  2  0
 20 27  1  0
 21 22  1  0
 21 23  1  0
 23 24  1  0
 24 25  1  0
 25 26  1  0
 26 27  1  0
 29 30  2  0
M  CHG  1  26   1
M  END
