
     RDKit          3D

 30 33  0  0  0  0  0  0  0  0999 V2000
   -3.9110   -0.6620    1.5970 C   0  0  0  0  0  0  0  0  0  0  0  0
   -4.6310   -0.9080    0.3670 N   0  0  2  0  0  0  0  0  0  0  0  0
   -3.9070   -1.7200   -0.5610 C   0  0  0  0  0  0  0  0  0  0  0  0
   -2.4160   -1.5050   -0.5320 C   0  0  0  0  0  0  0  0  0  0  0  0
   -2.0730   -0.1330   -0.8480 N   0  0  0  0  0  0  0  0  0  0  0  0
   -0.9140    0.3640   -0.7160 C   0  0  0  0  0  0  0  0  0  0  0  0
   -0.5750    1.7140   -1.0270 N   0  0  0  0  0  0  0  0  0  0  0  0
    0.6870    2.0550   -0.3850 C   0  0  0  0  0  0  0  0  0  0  0  0
    1.3640    0.7240   -0.2790 C   0  0  0  0  0  0  0  0  0  0  0  0
    2.5350    0.1070   -0.2070 C   0  0  0  0  0  0  0  0  0  0  0  0
    3.7840    0.7850   -0.2180 N   0  0  0  0  0  0  0  0  0  0  0  0
    5.0240    0.0790   -0.1390 C   0  0  0  0  0  0  0  0  0  0  0  0
    5.0010   -1.1680   -0.0600 O   0  0  0  0  0  0  0  0  0  0  0  0
    6.2750    0.7370   -0.1480 N   0  0  0  0  0  0  0  0  0  0  0  0
    7.5500    0.1630   -0.0720 C   0  0  0  0  0  0  0  0  0  0  0  0
    7.8390   -1.1500    0.1360 C   0  0  0  0  0  0  0  0  0  0  0  0
    9.1610   -1.6340    0.1860 C   0  0  0  0  0  0  0  0  0  0  0  0
   10.1990   -0.7720    0.0220 C   0  0  0  0  0  0  0  0  0  0  0  0
   11.4910   -1.2760    0.0760 O   0  0  0  0  0  0  0  0  0  0  0  0
    9.9550    0.5650   -0.1920 C   0  0  0  0  0  0  0  0  0  0  0  0
    8.6530    1.0070   -0.2350 C   0  0  0  0  0  0  0  0  0  0  0  0
    2.3200   -1.3540   -0.1120 C   0  0  0  0  0  0  0  0  0  0  0  0
    0.8480   -1.4750    0.2360 C   0  0  0  0  0  0  0  0  0  0  0  0
    0.3120   -0.2320   -0.2520 N   0  0  0  0  0  0  0  0  0  0  0  0
   -5.1130    0.2870   -0.2640 C   0  0  2  0  0  0  0  0  0  0  0  0
   -5.2380    1.4600    0.6510 C   0  0  0  0  0  0  0  0  0  0  0  0
   -6.5740    1.6250    1.2840 C   0  0  0  0  0  0  0  0  0  0  0  0
   -7.7080    1.5080    0.2820 C   0  0  0  0  0  0  0  0  0  0  0  0
   -7.6180    0.0690   -0.2430 C   0  0  0  0  0  0  0  0  0  0  0  0
   -6.3580   -0.0390   -1.0230 C   0  0  0  0  0  0  0  0  0  0  0  0
  2  1  1  1
  2  3  1  0
  2 25  1  0
  3  4  1  0
  4  5  1  0
  5  6  2  3
  6  7  1  0
  6 24  1  0
  7  8  1  0
  8  9  1  0
  9 10  2  0
  9 24  1  0
 10 11  1  0
 10 22  1  0
 11 12  1  0
 12 13  2  0
 12 14  1  0
 14 15  1  0
 15 16  2  0
 15 21  1  0
 16 17  1  0
 17 18  2  0
 18 19  1  0
 18 20  1  0
 20 21  2  0
 22 23  1  0
 23 24  1  0
 25 26  1  1
 25 30  1  0
 26 27  1  0
 27 28  1  0
 28 29  1  0
 29 30  1  0
M  CHG  1   2   1
M  END
