
     RDKit          3D

 30 33  0  0  0  0  0  0  0  0999 V2000
   -1.0820    6.0570   -0.1480 C   0  0  0  0  0  0  0  0  0  0  0  0
   -0.9170    5.0750    0.9980 C   0  0  0  0  0  0  0  0  0  0  0  0
   -1.2090    3.6860    0.6240 C   0  0  0  0  0  0  0  0  0  0  0  0
   -0.2980    2.7390    0.4450 C   0  0  0  0  0  0  0  0  0  0  0  0
   -0.6830    1.4400    0.0900 C   0  0  0  0  0  0  0  0  0  0  0  0
    0.2490    0.4830   -0.1000 N   0  0  0  0  0  0  0  0  0  0  0  0
    1.5260    0.7690    0.0470 C   0  0  0  0  0  0  0  0  0  0  0  0
    2.5820   -0.2660   -0.1560 C   0  0  0  0  0  0  0  0  0  0  0  0
    2.4930   -1.5630   -0.4920 C   0  0  0  0  0  0  0  0  0  0  0  0
    3.5940   -2.2500   -0.6030 N   0  0  0  0  0  0  0  0  0  0  0  0
    4.7290   -1.7950   -0.4230 C   0  0  0  0  0  0  0  0  0  0  0  0
    6.1280   -2.2440   -0.4560 C   0  0  0  0  0  0  0  0  0  0  0  0
    7.1780   -1.4000   -0.1800 C   0  0  0  0  0  0  0  0  0  0  0  0
    8.4910   -1.8120   -0.2100 C   0  0  0  0  0  0  0  0  0  0  0  0
    8.7640   -3.1120   -0.5260 N   0  0  0  0  0  0  0  0  0  0  0  0
    7.7570   -3.9570   -0.8000 C   0  0  0  0  0  0  0  0  0  0  0  0
    6.4430   -3.5440   -0.7700 C   0  0  0  0  0  0  0  0  0  0  0  0
    4.2910   -0.0290    0.0020 S   0  0  0  0  0  0  0  0  0  0  0  0
    1.9190    2.0290    0.3900 N   0  0  0  0  0  0  0  0  0  0  0  0
    1.0360    3.0130    0.5900 C   0  0  0  0  0  0  0  0  0  0  0  0
    1.4340    4.1360    0.8960 O   0  0  0  0  0  0  0  0  0  0  0  0
   -1.9320    1.0630   -0.0870 C   0  0  0  0  0  0  0  0  0  0  0  0
   -2.2740   -0.3460   -0.4660 C   0  0  0  0  0  0  0  0  0  0  0  0
   -3.1160   -0.9990    0.4840 N   0  0  0  0  0  0  0  0  0  0  0  0
   -4.4840   -0.9380    0.0070 C   0  0  0  0  0  0  0  0  0  0  0  0
   -5.1280   -2.3060   -0.0640 C   0  0  2  0  0  0  0  0  0  0  0  0
   -5.1090   -2.8760    1.3370 C   0  0  0  0  0  0  0  0  0  0  0  0
   -4.4500   -3.1920   -1.0600 C   0  0  0  0  0  0  0  0  0  0  0  0
   -3.0160    2.0450    0.0890 C   0  0  0  0  0  0  0  0  0  0  0  0
   -2.5210    3.2860    0.4270 O   0  0  0  0  0  0  0  0  0  0  0  0
  1  2  1  0
  2  3  1  0
  3  4  2  0
  3 30  1  0
  4  5  1  0
  4 20  1  0
  5  6  1  0
  5 22  2  0
  6  7  2  0
  7  8  1  0
  7 19  1  0
  8  9  2  0
  8 18  1  0
  9 10  1  0
 10 11  2  0
 11 12  1  0
 11 18  1  0
 12 13  2  0
 12 17  1  0
 13 14  1  0
 14 15  2  0
 15 16  1  0
 16 17  2  0
 19 20  1  0
 20 21  2  0
 22 23  1  0
 22 29  1  0
 23 24  1  0
 24 25  1  0
 25 26  1  0
 26 27  1  1
 26 28  1  0
 29 30  1  0
M  CHG  1  24   1
M  END
