
     RDKit          3D

 30 32  0  0  0  0  0  0  0  0999 V2000
   -8.7450    0.2820    0.7860 C   0  0  0  0  0  0  0  0  0  0  0  0
   -7.4080    0.5680    0.2140 C   0  0  0  0  0  0  0  0  0  0  0  0
   -7.1440    1.8300   -0.0740 C   0  0  0  0  0  0  0  0  0  0  0  0
   -5.9290    2.4240   -0.6410 C   0  0  0  0  0  0  0  0  0  0  0  0
   -4.7980    1.8230   -1.0030 C   0  0  0  0  0  0  0  0  0  0  0  0
   -4.4510    0.3960   -0.9340 C   0  0  0  0  0  0  0  0  0  0  0  0
   -3.2410    0.1380   -1.3780 C   0  0  0  0  0  0  0  0  0  0  0  0
   -2.6830   -1.2070   -1.4060 C   0  0  0  0  0  0  0  0  0  0  0  0
   -1.3360   -1.5010   -1.8990 C   0  0  0  0  0  0  0  0  0  0  0  0
   -0.2970   -0.8250   -1.1720 N   0  0  0  0  0  0  0  0  0  0  0  0
   -0.0530   -0.9760    0.2000 C   0  0  0  0  0  0  0  0  0  0  0  0
   -0.8040   -1.7670    0.8480 O   0  0  0  0  0  0  0  0  0  0  0  0
    0.9940   -0.2670    0.8190 N   0  0  0  0  0  0  0  0  0  0  0  0
    1.3290   -0.3540    2.2370 C   0  0  0  0  0  0  0  0  0  0  0  0
    2.7240   -0.8890    2.3200 C   0  0  0  0  0  0  0  0  0  0  0  0
    3.7050   -0.0290    1.5400 C   0  0  1  0  0  0  0  0  0  0  0  0
    4.4150   -0.9260    0.5870 C   0  0  0  0  0  0  0  0  0  0  0  0
    5.4250   -0.2940   -0.2640 C   0  0  0  0  0  0  0  0  0  0  0  0
    5.9740   -1.0610   -1.1270 O   0  0  0  0  0  0  0  0  0  0  0  0
    5.8510    1.0030   -0.2490 O   0  0  0  0  0  0  0  0  0  0  0  0
    6.8300    1.5430   -1.1000 C   0  0  0  0  0  0  0  0  0  0  0  0
    8.1690    0.8600   -0.9620 C   0  0  0  0  0  0  0  0  0  0  0  0
    8.8400    0.9720    0.6810 S   0  0  0  0  0  0  0  0  0  0  0  0
    8.9950    2.4320    1.0430 O   0  0  0  0  0  0  0  0  0  0  0  0
    2.9890    1.1190    0.8550 C   0  0  0  0  0  0  0  0  0  0  0  0
    1.8190    0.6180    0.0280 C   0  0  0  0  0  0  0  0  0  0  0  0
   -3.4400   -2.1950   -0.9610 C   0  0  0  0  0  0  0  0  0  0  0  0
   -4.7990   -2.0620   -0.4400 C   0  0  0  0  0  0  0  0  0  0  0  0
   -5.3010   -0.6730   -0.4420 C   0  0  0  0  0  0  0  0  0  0  0  0
   -6.5600   -0.6000    0.0470 C   0  0  0  0  0  0  0  0  0  0  0  0
  1  2  1  0
  2  3  2  0
  2 30  1  0
  3  4  1  0
  4  5  2  0
  5  6  1  0
  6  7  2  0
  6 29  1  0
  7  8  1  0
  8  9  1  0
  8 27  2  0
  9 10  1  0
 10 11  1  0
 11 12  2  0
 11 13  1  0
 13 14  1  0
 13 26  1  0
 14 15  1  0
 15 16  1  0
 16 17  1  6
 16 25  1  0
 17 18  1  0
 18 19  2  0
 18 20  1  0
 20 21  1  0
 21 22  1  0
 22 23  1  0
 23 24  2  0
 25 26  1  0
 27 28  1  0
 28 29  1  0
 29 30  2  0
M  END
