
     RDKit          3D

 29 32  0  0  0  0  0  0  0  0999 V2000
    8.2820    1.6550    1.9090 C   0  0  0  0  0  0  0  0  0  0  0  0
    7.4970    1.3150    0.7830 O   0  0  0  0  0  0  0  0  0  0  0  0
    6.3390    0.5640    0.9200 C   0  0  0  0  0  0  0  0  0  0  0  0
    5.9090    0.1220    2.1520 C   0  0  0  0  0  0  0  0  0  0  0  0
    4.7360   -0.6350    2.2630 C   0  0  0  0  0  0  0  0  0  0  0  0
    3.9990   -0.9500    1.1670 C   0  0  0  0  0  0  0  0  0  0  0  0
    2.7780   -1.7360    1.2800 C   0  0  0  0  0  0  0  0  0  0  0  0
    2.2670   -2.2150    2.4260 N   0  0  0  0  0  0  0  0  0  0  0  0
    1.1700   -2.8710    2.1520 O   0  0  0  0  0  0  0  0  0  0  0  0
    0.9380   -2.8420    0.8640 C   0  0  0  0  0  0  0  0  0  0  0  0
   -0.2320   -3.4910    0.1970 C   0  0  0  0  0  0  0  0  0  0  0  0
   -1.6210   -2.3280    0.1110 S   0  0  0  0  0  0  0  0  0  0  0  0
   -1.2230   -0.9820   -0.9560 C   0  0  0  0  0  0  0  0  0  0  0  0
   -0.0440   -0.8300   -1.6250 N   0  0  0  0  0  0  0  0  0  0  0  0
   -0.0930    0.2810   -2.3230 N   0  0  0  0  0  0  0  0  0  0  0  0
   -1.2830    0.8200   -2.0990 C   0  0  0  0  0  0  0  0  0  0  0  0
   -1.7680    2.0930   -2.6920 C   0  0  0  0  0  0  0  0  0  0  0  0
   -2.0140    0.0690   -1.2580 N   0  0  0  0  0  0  0  0  0  0  0  0
   -3.3320    0.2900   -0.7650 C   0  0  0  0  0  0  0  0  0  0  0  0
   -3.6050    0.3050    0.5880 C   0  0  0  0  0  0  0  0  0  0  0  0
   -4.8760    0.5180    1.0830 C   0  0  0  0  0  0  0  0  0  0  0  0
   -5.9410    0.7270    0.2340 C   0  0  0  0  0  0  0  0  0  0  0  0
   -7.2340    0.9440    0.7060 O   0  0  0  0  0  0  0  0  0  0  0  0
   -8.3040    1.1550   -0.2050 C   0  0  0  0  0  0  0  0  0  0  0  0
   -5.6750    0.7130   -1.1190 C   0  0  0  0  0  0  0  0  0  0  0  0
   -4.4020    0.5000   -1.6110 C   0  0  0  0  0  0  0  0  0  0  0  0
    1.9370   -2.1350    0.3090 N   0  0  0  0  0  0  0  0  0  0  0  0
    4.4470   -0.4970   -0.0630 C   0  0  0  0  0  0  0  0  0  0  0  0
    5.5920    0.2470   -0.2070 C   0  0  0  0  0  0  0  0  0  0  0  0
  1  2  1  0
  2  3  1  0
  3  4  2  0
  3 29  1  0
  4  5  1  0
  5  6  2  0
  6  7  1  0
  6 28  1  0
  7  8  2  0
  7 27  1  0
  8  9  1  0
  9 10  1  0
 10 11  1  0
 10 27  2  0
 11 12  1  0
 12 13  1  0
 13 14  2  0
 13 18  1  0
 14 15  1  0
 15 16  2  0
 16 17  1  0
 16 18  1  0
 18 19  1  0
 19 20  2  0
 19 26  1  0
 20 21  1  0
 21 22  2  0
 22 23  1  0
 22 25  1  0
 23 24  1  0
 25 26  2  0
 28 29  2  0
M  END
