
     RDKit          3D

 30 33  0  0  0  0  0  0  0  0999 V2000
   -6.5220    1.0930   -1.0090 C   0  0  0  0  0  0  0  0  0  0  0  0
   -5.9210   -0.2970   -1.0810 C   0  0  0  0  0  0  0  0  0  0  0  0
   -4.4790   -0.3090   -1.0100 N   0  0  0  0  0  0  0  0  0  0  0  0
   -4.0320   -1.6560   -1.2510 C   0  0  0  0  0  0  0  0  0  0  0  0
   -4.6560   -2.5970   -0.3020 C   0  0  0  0  0  0  0  0  0  0  0  0
   -4.5670   -2.1760    1.0350 N   0  0  0  0  0  0  0  0  0  0  0  0
   -4.3210   -0.8310    1.3660 C   0  0  0  0  0  0  0  0  0  0  0  0
   -3.9930    0.1470    0.3090 C   0  0  1  0  0  0  0  0  0  0  0  0
   -2.5540    0.4790    0.1540 C   0  0  0  0  0  0  0  0  0  0  0  0
   -2.1520    1.6500   -0.4970 C   0  0  0  0  0  0  0  0  0  0  0  0
   -3.1890    2.5990   -0.9840 C   0  0  0  0  0  0  0  0  0  0  0  0
   -0.8580    1.9630   -0.7070 N   0  0  0  0  0  0  0  0  0  0  0  0
    0.1480    1.1730   -0.3050 C   0  0  0  0  0  0  0  0  0  0  0  0
    1.4320    1.4570   -0.5150 N   0  0  0  0  0  0  0  0  0  0  0  0
    2.4050    0.6060   -0.0980 C   0  0  0  0  0  0  0  0  0  0  0  0
    2.1390   -0.5700    0.5510 C   0  0  0  0  0  0  0  0  0  0  0  0
    3.2160   -1.5080    0.9960 C   0  0  0  0  0  0  0  0  0  0  0  0
    4.3520   -1.3100    0.8240 N   0  0  0  0  0  0  0  0  0  0  0  0
    5.5120   -0.8120    0.4870 C   0  0  0  0  0  0  0  0  0  0  0  0
    6.1310    0.4020    0.5350 C   0  0  0  0  0  0  0  0  0  0  0  0
    7.3600    0.6000    0.1000 C   0  0  0  0  0  0  0  0  0  0  0  0
    8.1070    1.9420    0.1310 C   0  0  0  0  0  0  0  0  0  0  0  0
    8.0540   -0.4710   -0.4290 C   0  0  0  0  0  0  0  0  0  0  0  0
    9.4170   -0.5840   -0.9870 C   0  0  0  0  0  0  0  0  0  0  0  0
    6.8830   -1.8240   -0.2940 S   0  0  0  0  0  0  0  0  0  0  0  0
    0.8150   -0.8650    0.7700 C   0  0  0  0  0  0  0  0  0  0  0  0
    0.5160   -1.9480    1.3700 O   0  0  0  0  0  0  0  0  0  0  0  0
   -0.1660    0.0050    0.3420 C   0  0  0  0  0  0  0  0  0  0  0  0
   -1.5060   -0.3160    0.5580 C   0  0  0  0  0  0  0  0  0  0  0  0
   -1.7070   -1.3890    1.1470 O   0  0  0  0  0  0  0  0  0  0  0  0
  1  2  1  0
  2  3  1  0
  3  4  1  0
  3  8  1  0
  4  5  1  0
  5  6  1  0
  6  7  1  0
  7  8  1  0
  8  9  1  6
  9 10  2  0
  9 29  1  0
 10 11  1  0
 10 12  1  0
 12 13  1  0
 13 14  1  0
 13 28  2  0
 14 15  1  0
 15 16  2  0
 16 17  1  0
 16 26  1  0
 17 18  2  3
 18 19  1  0
 19 20  2  0
 19 25  1  0
 20 21  1  0
 21 22  1  0
 21 23  2  0
 23 24  1  0
 23 25  1  0
 26 27  2  0
 26 28  1  0
 28 29  1  0
 29 30  2  0
M  CHG  1   6   1
M  END
