
     RDKit          3D

 20 21  0  0  0  0  0  0  0  0999 V2000
   -0.5330    1.6280    0.8630 N   0  0  0  0  0  0  0  0  0  0  0  0
   -0.4670    0.8140   -0.3200 C   0  0  2  0  0  0  0  0  0  0  0  0
   -0.8670    1.6560   -1.5050 C   0  0  0  0  0  0  0  0  0  0  0  0
   -0.8290    0.9040   -2.6970 O   0  0  0  0  0  0  0  0  0  0  0  0
   -1.5080   -0.3280   -0.2690 C   0  0  2  0  0  0  0  0  0  0  0  0
   -2.8340    0.1170    0.2110 C   0  0  0  0  0  0  0  0  0  0  0  0
   -2.8710    0.6290    1.4830 O   0  0  0  0  0  0  0  0  0  0  0  0
   -4.1400    0.9680    1.7250 O   0  0  0  0  0  0  0  0  0  0  0  0
   -0.9210   -1.4730    0.5260 C   0  0  1  0  0  0  0  0  0  0  0  0
   -1.9560   -2.5070    0.8110 C   0  0  0  0  0  0  0  0  0  0  0  0
   -2.9670   -2.1110    1.6770 O   0  0  0  0  0  0  0  0  0  0  0  0
    0.0550   -2.0740   -0.2850 O   0  0  0  0  0  0  0  0  0  0  0  0
    0.6650   -1.2120   -1.1570 C   0  0  0  0  0  0  0  0  0  0  0  0
    0.8660    0.1370   -0.5280 C   0  0  1  0  0  0  0  0  0  0  0  0
    1.8100    0.9990   -1.3470 C   0  0  0  0  0  0  0  0  0  0  0  0
    3.0270    0.3620   -1.1040 O   0  0  0  0  0  0  0  0  0  0  0  0
    3.0420    0.4460    0.3100 C   0  0  2  0  0  0  0  0  0  0  0  0
    4.1420   -0.4500    0.7810 C   0  0  0  0  0  0  0  0  0  0  0  0
    4.2830   -0.4740    2.1540 O   0  0  0  0  0  0  0  0  0  0  0  0
    1.6650   -0.0750    0.7240 C   0  0  0  0  0  0  0  0  0  0  0  0
  2  1  1  1
  2  3  1  0
  2  5  1  0
  2 14  1  0
  3  4  1  0
  5  6  1  1
  5  9  1  0
  6  7  1  0
  7  8  1  0
  9 10  1  6
  9 12  1  0
 10 11  1  0
 12 13  1  0
 14 13  1  6
 14 15  1  0
 14 20  1  0
 15 16  1  0
 16 17  1  0
 17 18  1  1
 17 20  1  0
 18 19  1  0
M  CHG  1   1   1
M  END
