
     RDKit          3D

 20 21  0  0  0  0  0  0  0  0999 V2000
   -3.8860   -1.4850    0.0560 N   0  0  0  0  0  0  0  0  0  0  0  0
   -2.5530   -0.9430    0.3630 C   0  0  1  0  0  0  0  0  0  0  0  0
   -1.5710   -1.9210   -0.2680 C   0  0  2  0  0  0  0  0  0  0  0  0
   -2.0660   -3.2110    0.0340 O   0  0  0  0  0  0  0  0  0  0  0  0
   -0.2030   -1.8280    0.3230 C   0  0  0  0  0  0  0  0  0  0  0  0
    0.6300   -0.9830   -0.4460 O   0  0  0  0  0  0  0  0  0  0  0  0
    1.9070   -1.1570    0.0160 C   0  0  1  0  0  0  0  0  0  0  0  0
    2.6330   -2.0580   -0.9950 C   0  0  0  0  0  0  0  0  0  0  0  0
    4.0720   -1.6260   -0.6810 C   0  0  0  0  0  0  0  0  0  0  0  0
    3.9320   -0.2430   -0.6920 O   0  0  0  0  0  0  0  0  0  0  0  0
    2.7650    0.0720   -0.0390 C   0  0  1  0  0  0  0  0  0  0  0  0
    2.1080    1.1790   -0.5660 O   0  0  0  0  0  0  0  0  0  0  0  0
    2.2500    2.3020    0.2260 C   0  0  0  0  0  0  0  0  0  0  0  0
    1.0740    3.2320    0.1760 C   0  0  1  0  0  0  0  0  0  0  0  0
    0.5180    3.2400   -1.1240 O   0  0  0  0  0  0  0  0  0  0  0  0
   -0.0680    2.7510    1.0840 C   0  0  0  0  0  0  0  0  0  0  0  0
   -0.6560    1.6940    0.4420 O   0  0  0  0  0  0  0  0  0  0  0  0
   -1.9690    1.4700    0.7460 C   0  0  0  0  0  0  0  0  0  0  0  0
   -2.4880    0.4190   -0.2450 C   0  0  2  0  0  0  0  0  0  0  0  0
   -3.7220    0.8540   -0.7120 O   0  0  0  0  0  0  0  0  0  0  0  0
  2  1  1  6
  2  3  1  0
  2 19  1  0
  3  4  1  1
  3  5  1  0
  5  6  1  0
  6  7  1  0
  7  8  1  6
  7 11  1  0
  8  9  1  0
  9 10  1  0
 11 10  1  6
 11 12  1  0
 12 13  1  0
 13 14  1  0
 14 15  1  6
 14 16  1  0
 16 17  1  0
 17 18  1  0
 18 19  1  0
 19 20  1  1
M  CHG  1   1   1
M  END
