
     RDKit          3D

 20 21  0  0  0  0  0  0  0  0999 V2000
   -1.3290    0.7090   -2.6970 C   0  0  0  0  0  0  0  0  0  0  0  0
   -1.0990    0.3530   -1.2110 C   0  0  2  0  0  0  0  0  0  0  0  0
    0.2200    0.0200   -1.1280 O   0  0  0  0  0  0  0  0  0  0  0  0
    0.7000   -0.3790    0.0950 C   0  0  1  0  0  0  0  0  0  0  0  0
    1.2770   -1.6560    0.0300 O   0  0  0  0  0  0  0  0  0  0  0  0
    2.1800   -1.7420    1.0640 C   0  0  0  0  0  0  0  0  0  0  0  0
    2.6550   -0.3630    1.3770 C   0  0  1  0  0  0  0  0  0  0  0  0
    4.1510   -0.2120    1.2800 C   0  0  0  0  0  0  0  0  0  0  0  0
    4.7720   -1.0790    2.1780 O   0  0  0  0  0  0  0  0  0  0  0  0
    1.9060    0.4850    0.4050 C   0  0  1  0  0  0  0  0  0  0  0  0
    2.5980    0.7030   -0.8470 N   0  0  0  0  0  0  0  0  0  0  0  0
   -2.0480   -0.7470   -0.8870 C   0  0  0  0  0  0  0  0  0  0  0  0
   -3.2690   -0.1640   -0.2090 C   0  0  1  0  0  0  0  0  0  0  0  0
   -4.2310   -1.2810    0.1460 C   0  0  0  0  0  0  0  0  0  0  0  0
   -3.5250   -2.2280    0.8720 O   0  0  0  0  0  0  0  0  0  0  0  0
   -2.8010    0.3530    1.0460 O   0  0  0  0  0  0  0  0  0  0  0  0
   -1.7930    1.3250    0.9140 C   0  0  0  0  0  0  0  0  0  0  0  0
   -1.2570    1.8640    1.9270 O   0  0  0  0  0  0  0  0  0  0  0  0
   -1.4150    1.6600   -0.4800 C   0  0  1  0  0  0  0  0  0  0  0  0
   -0.4040    2.5770   -0.5960 O   0  0  0  0  0  0  0  0  0  0  0  0
  2  1  1  6
  2  3  1  0
  2 12  1  0
  2 19  1  0
  4  3  1  6
  4  5  1  0
  4 10  1  0
  5  6  1  0
  6  7  1  0
  7  8  1  6
  7 10  1  0
  8  9  1  0
 10 11  1  6
 12 13  1  0
 13 14  1  1
 13 16  1  0
 14 15  1  0
 16 17  1  0
 17 18  2  0
 17 19  1  0
 19 20  1  1
M  CHG  1  11   1
M  END
