
     RDKit          3D

 14 16  0  0  0  0  0  0  0  0999 V2000
   -1.5170   -2.3160   -1.4070 O   0  0  0  0  0  0  0  0  0  0  0  0
   -0.5550   -1.6510   -0.9110 C   0  0  0  0  0  0  0  0  0  0  0  0
    0.8220   -2.0280   -0.9160 N   0  0  0  0  0  0  0  0  0  0  0  0
    1.5720   -1.0120   -0.2600 C   0  0  0  0  0  0  0  0  0  0  0  0
    2.9530   -0.9600   -0.0340 C   0  0  0  0  0  0  0  0  0  0  0  0
    3.5060    0.1260    0.6310 C   0  0  0  0  0  0  0  0  0  0  0  0
    2.6690    1.1320    1.0540 C   0  0  0  0  0  0  0  0  0  0  0  0
    1.3120    1.0560    0.8170 C   0  0  0  0  0  0  0  0  0  0  0  0
    0.7350   -0.0070    0.1610 C   0  0  0  0  0  0  0  0  0  0  0  0
   -0.6390   -0.3590   -0.2260 C   0  0  2  0  0  0  0  0  0  0  0  0
   -1.5890   -0.3760    0.9480 C   0  0  0  0  0  0  0  0  0  0  0  0
   -2.4480    0.8380    0.6740 C   0  0  0  0  0  0  0  0  0  0  0  0
   -2.5570    0.8370   -0.7730 N   0  0  0  0  0  0  0  0  0  0  0  0
   -1.1890    0.7060   -1.1830 C   0  0  0  0  0  0  0  0  0  0  0  0
  1  2  2  0
  2  3  1  0
  2 10  1  0
  3  4  1  0
  4  5  2  0
  4  9  1  0
  5  6  1  0
  6  7  2  0
  7  8  1  0
  8  9  2  0
  9 10  1  0
 10 11  1  1
 10 14  1  0
 11 12  1  0
 12 13  1  0
 13 14  1  0
M  CHG  1  13   1
M  END
