
     RDKit          3D

 21 23  0  0  0  0  0  0  0  0999 V2000
   -3.8070   -1.8480   -2.3740 Cl  0  0  0  0  0  0  0  0  0  0  0  0
   -5.3370   -1.3180   -1.7150 C   0  0  0  0  0  0  0  0  0  0  0  0
   -5.2440   -0.5440   -0.5080 C   0  0  0  0  0  0  0  0  0  0  0  0
   -4.2480   -0.1530    0.2030 C   0  0  0  0  0  0  0  0  0  0  0  0
   -2.8440   -0.3880   -0.0120 C   0  0  0  0  0  0  0  0  0  0  0  0
   -1.9510    0.1110    0.8560 C   0  0  0  0  0  0  0  0  0  0  0  0
   -0.4940   -0.1330    0.6310 C   0  0  0  0  0  0  0  0  0  0  0  0
    0.2140    1.1260    0.4790 N   0  0  0  0  0  0  0  0  0  0  0  0
    1.6150    1.1870    0.2540 C   0  0  0  0  0  0  0  0  0  0  0  0
    2.2220    2.4130    0.1190 C   0  0  0  0  0  0  0  0  0  0  0  0
    3.5980    2.5260   -0.1030 C   0  0  0  0  0  0  0  0  0  0  0  0
    4.3540    1.3870   -0.1880 C   0  0  0  0  0  0  0  0  0  0  0  0
    3.7790    0.1530   -0.0580 C   0  0  0  0  0  0  0  0  0  0  0  0
    4.6150   -1.0270   -0.1550 C   0  0  0  0  0  0  0  0  0  0  0  0
    5.8520   -1.2770   -0.3440 N   0  0  0  0  0  0  0  0  0  0  0  0
    5.6020   -2.6570   -0.2620 C   0  0  0  0  0  0  0  0  0  0  0  0
    4.3290   -2.4550   -0.0650 C   0  0  0  0  0  0  0  0  0  0  0  0
    2.4080    0.0680    0.1630 C   0  0  0  0  0  0  0  0  0  0  0  0
   -2.3490    0.8870    2.0150 C   0  0  0  0  0  0  0  0  0  0  0  0
   -3.6330    1.1180    2.2360 C   0  0  0  0  0  0  0  0  0  0  0  0
   -4.5510    0.6160    1.3620 O   0  0  0  0  0  0  0  0  0  0  0  0
  1  2  1  0
  2  3  1  0
  3  4  2  3
  4  5  1  0
  4 21  1  0
  5  6  2  0
  6  7  1  0
  6 19  1  0
  7  8  1  0
  8  9  1  0
  9 10  2  0
  9 18  1  0
 10 11  1  0
 11 12  2  0
 12 13  1  0
 13 14  1  0
 13 18  2  0
 14 15  2  0
 14 17  1  0
 15 16  1  0
 16 17  2  0
 19 20  2  0
 20 21  1  0
M  END
