
     RDKit          3D

 20 21  0  0  0  0  0  0  0  0999 V2000
   -1.4530    1.5370    1.9320 N   0  0  0  0  0  0  0  0  0  0  0  0
   -2.5570    1.2400    1.0930 C   0  0  0  0  0  0  0  0  0  0  0  0
   -2.2820    0.2370    0.0110 C   0  0  2  0  0  0  0  0  0  0  0  0
   -3.5060   -0.0160   -0.8490 C   0  0  1  0  0  0  0  0  0  0  0  0
   -3.2540   -0.9840   -1.8160 O   0  0  0  0  0  0  0  0  0  0  0  0
   -4.6800   -0.5040   -0.0310 C   0  0  0  0  0  0  0  0  0  0  0  0
   -5.7500   -0.6440   -0.9480 O   0  0  0  0  0  0  0  0  0  0  0  0
   -1.7820   -1.0730    0.5020 C   0  0  0  0  0  0  0  0  0  0  0  0
   -0.3990   -0.9800    0.3680 O   0  0  0  0  0  0  0  0  0  0  0  0
   -0.1820   -0.1410   -0.7210 C   0  0  2  0  0  0  0  0  0  0  0  0
    1.0340    0.7330   -0.5300 C   0  0  0  0  0  0  0  0  0  0  0  0
    2.3110   -0.0070   -0.3430 C   0  0  1  0  0  0  0  0  0  0  0  0
    2.6970   -0.8990   -1.4790 C   0  0  0  0  0  0  0  0  0  0  0  0
    1.8960   -2.0330   -1.6100 O   0  0  0  0  0  0  0  0  0  0  0  0
    3.4220    1.0490   -0.2410 C   0  0  0  0  0  0  0  0  0  0  0  0
    4.4670    0.3120    0.5290 C   0  0  1  0  0  0  0  0  0  0  0  0
    5.0680    1.2080    1.4090 O   0  0  0  0  0  0  0  0  0  0  0  0
    3.7010   -0.7720    1.2310 C   0  0  0  0  0  0  0  0  0  0  0  0
    2.3810   -0.6660    0.8570 O   0  0  0  0  0  0  0  0  0  0  0  0
   -1.2760    0.6720   -0.8430 O   0  0  0  0  0  0  0  0  0  0  0  0
  1  2  1  0
  3  2  1  1
  3  4  1  0
  3  8  1  0
  3 20  1  0
  4  5  1  6
  4  6  1  0
  6  7  1  0
  8  9  1  0
  9 10  1  0
 10 11  1  1
 10 20  1  0
 12 11  1  6
 12 13  1  0
 12 15  1  0
 12 19  1  0
 13 14  1  0
 15 16  1  0
 16 17  1  1
 16 18  1  0
 18 19  1  0
M  CHG  1   1   1
M  END
