
     RDKit          3D

 21 23  0  0  0  0  0  0  0  0999 V2000
   -0.4880   -3.8560    1.3310 O   0  0  0  0  0  0  0  0  0  0  0  0
   -0.3480   -2.6740    0.8520 C   0  0  0  0  0  0  0  0  0  0  0  0
    0.9830   -2.1070    0.7950 C   0  0  0  0  0  0  0  0  0  0  0  0
    1.2180   -0.9710    0.1650 C   0  0  0  0  0  0  0  0  0  0  0  0
    2.5370   -0.4270    0.1120 N   0  0  0  0  0  0  0  0  0  0  0  0
    2.9900    0.3340    1.2620 C   0  0  0  0  0  0  0  0  0  0  0  0
    3.5180    1.6570    0.7130 C   0  0  0  0  0  0  0  0  0  0  0  0
    4.7860    1.3130   -0.0570 C   0  0  0  0  0  0  0  0  0  0  0  0
    4.7970   -0.0930   -0.5570 C   0  0  0  0  0  0  0  0  0  0  0  0
    3.4300   -0.5840   -0.9950 C   0  0  0  0  0  0  0  0  0  0  0  0
    0.0720   -0.3030   -0.4120 C   0  0  0  0  0  0  0  0  0  0  0  0
   -1.1950   -0.7320   -0.3540 C   0  0  0  0  0  0  0  0  0  0  0  0
   -2.1350    0.1220   -1.0220 N   0  0  0  0  0  0  0  0  0  0  0  0
   -3.4460    0.4490   -0.6850 C   0  0  0  0  0  0  0  0  0  0  0  0
   -3.9410    1.6830   -1.1720 C   0  0  0  0  0  0  0  0  0  0  0  0
   -5.2150    2.1230   -0.9390 C   0  0  0  0  0  0  0  0  0  0  0  0
   -6.0690    1.3360   -0.1950 C   0  0  0  0  0  0  0  0  0  0  0  0
   -5.5820    0.1190    0.2840 C   0  0  0  0  0  0  0  0  0  0  0  0
   -6.6590   -0.9050    1.2390 Cl  0  0  0  0  0  0  0  0  0  0  0  0
   -4.3070   -0.3270    0.0540 C   0  0  0  0  0  0  0  0  0  0  0  0
   -1.5380   -1.9440    0.3810 C   0  0  0  0  0  0  0  0  0  0  0  0
  1  2  2  0
  2  3  1  0
  2 21  1  0
  3  4  2  0
  4  5  1  0
  4 11  1  0
  5  6  1  0
  5 10  1  0
  6  7  1  0
  7  8  1  0
  8  9  1  0
  9 10  1  0
 11 12  2  0
 12 13  1  0
 12 21  1  0
 13 14  1  0
 14 15  2  0
 14 20  1  0
 15 16  1  0
 16 17  2  0
 17 18  1  0
 18 19  1  0
 18 20  2  0
M  END
