
     RDKit          3D

 20 21  0  0  0  0  0  0  0  0999 V2000
   -4.2610   -1.5600   -0.1340 O   0  0  0  0  0  0  0  0  0  0  0  0
   -4.4000   -0.2030   -0.0200 C   0  0  0  0  0  0  0  0  0  0  0  0
   -3.1690    0.5520    0.3610 C   0  0  1  0  0  0  0  0  0  0  0  0
   -3.5570    2.0260    0.4270 C   0  0  0  0  0  0  0  0  0  0  0  0
   -4.0180    2.4250   -0.8090 O   0  0  0  0  0  0  0  0  0  0  0  0
   -2.7490    0.1600    1.7590 C   0  0  0  0  0  0  0  0  0  0  0  0
   -1.5160   -0.6760    1.5000 C   0  0  1  0  0  0  0  0  0  0  0  0
   -1.9550   -1.9260    1.0640 O   0  0  0  0  0  0  0  0  0  0  0  0
   -0.8490    0.1020    0.3960 C   0  0  1  0  0  0  0  0  0  0  0  0
    0.2650   -0.5640   -0.1890 N   0  0  0  0  0  0  0  0  0  0  0  0
    1.4840    0.2450   -0.0790 C   0  0  0  0  0  0  0  0  0  0  0  0
    2.6420   -0.7140   -0.2330 C   0  0  1  0  0  0  0  0  0  0  0  0
    2.4930   -1.3020   -1.5090 O   0  0  0  0  0  0  0  0  0  0  0  0
    3.9770   -0.0260   -0.2350 C   0  0  2  0  0  0  0  0  0  0  0  0
    4.9500   -0.9770   -0.4720 O   0  0  0  0  0  0  0  0  0  0  0  0
    5.9290   -0.8370    0.4950 C   0  0  0  0  0  0  0  0  0  0  0  0
    5.6740    0.5990    0.9640 C   0  0  0  0  0  0  0  0  0  0  0  0
    4.2770    0.6290    0.9320 O   0  0  0  0  0  0  0  0  0  0  0  0
   -2.0020    0.3340   -0.5390 C   0  0  1  0  0  0  0  0  0  0  0  0
   -2.1670   -0.6340   -1.4870 O   0  0  0  0  0  0  0  0  0  0  0  0
  1  2  1  0
  3  2  1  6
  3  4  1  0
  3  6  1  0
  3 19  1  0
  4  5  1  0
  6  7  1  0
  7  8  1  6
  7  9  1  0
  9 10  1  6
  9 19  1  0
 10 11  1  0
 11 12  1  0
 12 13  1  6
 12 14  1  0
 14 15  1  1
 14 18  1  0
 15 16  1  0
 16 17  1  0
 17 18  1  0
 19 20  1  6
M  CHG  1  10   1
M  END
