
     RDKit          3D

 25 28  0  0  0  0  0  0  0  0999 V2000
   -7.1930   -0.0330    1.5530 C   0  0  0  0  0  0  0  0  0  0  0  0
   -5.8520    0.5870    1.3270 C   0  0  0  0  0  0  0  0  0  0  0  0
   -5.3580    1.7330    1.8070 N   0  0  0  0  0  0  0  0  0  0  0  0
   -4.1390    1.9390    1.3820 N   0  0  0  0  0  0  0  0  0  0  0  0
   -3.7370    0.9060    0.5690 C   0  0  0  0  0  0  0  0  0  0  0  0
   -2.4220    0.8640   -0.0470 C   0  0  0  0  0  0  0  0  0  0  0  0
   -1.5880    1.8150    0.1970 O   0  0  0  0  0  0  0  0  0  0  0  0
   -1.9260   -0.1290   -0.9150 N   0  0  0  0  0  0  0  0  0  0  0  0
   -0.5670   -0.0640   -1.4670 C   0  0  0  0  0  0  0  0  0  0  0  0
    0.4810   -0.1850   -0.4510 C   0  0  0  0  0  0  0  0  0  0  0  0
    0.2660   -0.3960    0.8840 C   0  0  0  0  0  0  0  0  0  0  0  0
    1.3210   -0.5110    1.7370 C   0  0  0  0  0  0  0  0  0  0  0  0
    2.6620   -0.4240    1.3180 C   0  0  0  0  0  0  0  0  0  0  0  0
    3.7360   -0.5630    2.3260 C   0  0  0  0  0  0  0  0  0  0  0  0
    2.8720   -0.2120   -0.0220 C   0  0  0  0  0  0  0  0  0  0  0  0
    4.1880   -0.1170   -0.4990 C   0  0  0  0  0  0  0  0  0  0  0  0
    4.3630    0.0970   -1.8550 C   0  0  0  0  0  0  0  0  0  0  0  0
    3.3160    0.2130   -2.7190 C   0  0  0  0  0  0  0  0  0  0  0  0
    2.0540    0.1170   -2.2310 C   0  0  0  0  0  0  0  0  0  0  0  0
    1.7880   -0.0940   -0.8980 C   0  0  0  0  0  0  0  0  0  0  0  0
    5.8320    0.1590   -2.1010 C   0  0  0  0  0  0  0  0  0  0  0  0
    6.4270   -0.0340   -0.7930 C   0  0  0  0  0  0  0  0  0  0  0  0
    5.4780   -0.1950    0.1460 C   0  0  0  0  0  0  0  0  0  0  0  0
   -4.8130    0.0660    0.5400 C   0  0  0  0  0  0  0  0  0  0  0  0
   -4.9000   -1.2030   -0.1940 C   0  0  0  0  0  0  0  0  0  0  0  0
  1  2  1  0
  2  3  2  0
  2 24  1  0
  3  4  1  0
  4  5  1  0
  5  6  1  0
  5 24  2  0
  6  7  2  0
  6  8  1  0
  8  9  1  0
  9 10  1  0
 10 11  2  0
 10 20  1  0
 11 12  1  0
 12 13  2  0
 13 14  1  0
 13 15  1  0
 15 16  2  0
 15 20  1  0
 16 17  1  0
 16 23  1  0
 17 18  2  0
 17 21  1  0
 18 19  1  0
 19 20  2  0
 21 22  1  0
 22 23  2  0
 24 25  1  0
M  END
