
     RDKit          3D

 25 28  0  0  0  0  0  0  0  0999 V2000
   -3.4910   -2.7410    1.8740 C   0  0  0  0  0  0  0  0  0  0  0  0
   -2.6280   -2.1840    0.8280 C   0  0  0  0  0  0  0  0  0  0  0  0
   -2.8310   -0.9590    0.3620 C   0  0  0  0  0  0  0  0  0  0  0  0
   -3.8920   -0.0940    0.8340 N   0  0  0  0  0  0  0  0  0  0  0  0
   -3.8060    1.1230    0.1260 C   0  0  0  0  0  0  0  0  0  0  0  0
   -4.4080    2.3840   -0.0060 C   0  0  0  0  0  0  0  0  0  0  0  0
   -3.7420    3.1100   -0.9620 C   0  0  0  0  0  0  0  0  0  0  0  0
   -2.7340    2.2910   -1.4130 C   0  0  0  0  0  0  0  0  0  0  0  0
   -1.7270    2.6060   -2.4530 C   0  0  0  0  0  0  0  0  0  0  0  0
   -2.8040    1.0930   -0.7300 N   0  0  0  0  0  0  0  0  0  0  0  0
   -2.1280   -0.1820   -0.6570 C   0  0  1  0  0  0  0  0  0  0  0  0
   -0.7160   -0.0110   -0.4620 N   0  0  0  0  0  0  0  0  0  0  0  0
    0.2630   -0.9440   -0.7850 C   0  0  0  0  0  0  0  0  0  0  0  0
    0.0380   -2.1200   -1.4680 C   0  0  0  0  0  0  0  0  0  0  0  0
    1.0620   -2.9770   -1.7830 C   0  0  0  0  0  0  0  0  0  0  0  0
    2.3650   -2.7080   -1.4330 C   0  0  0  0  0  0  0  0  0  0  0  0
    2.6190   -1.5380   -0.7480 C   0  0  0  0  0  0  0  0  0  0  0  0
    1.5970   -0.6760   -0.4310 C   0  0  0  0  0  0  0  0  0  0  0  0
    1.8740    0.5130    0.2670 O   0  0  0  0  0  0  0  0  0  0  0  0
    3.1920    0.7650    0.6100 C   0  0  0  0  0  0  0  0  0  0  0  0
    3.6970    0.3210    1.8180 C   0  0  0  0  0  0  0  0  0  0  0  0
    5.0190    0.5620    2.1850 C   0  0  0  0  0  0  0  0  0  0  0  0
    5.8540    1.2530    1.3440 C   0  0  0  0  0  0  0  0  0  0  0  0
    5.3720    1.7020    0.1400 C   0  0  0  0  0  0  0  0  0  0  0  0
    4.0580    1.4590   -0.2180 C   0  0  0  0  0  0  0  0  0  0  0  0
  1  2  1  0
  2  3  2  3
  3  4  1  0
  3 11  1  0
  4  5  1  0
  5  6  2  0
  5 10  1  0
  6  7  1  0
  7  8  2  0
  8  9  1  0
  8 10  1  0
 10 11  1  0
 11 12  1  1
 12 13  1  0
 13 14  2  0
 13 18  1  0
 14 15  1  0
 15 16  2  0
 16 17  1  0
 17 18  2  0
 18 19  1  0
 19 20  1  0
 20 21  2  0
 20 25  1  0
 21 22  1  0
 22 23  2  0
 23 24  1  0
 24 25  2  0
M  END
