
     RDKit          3D

 14 13  0  0  0  0  0  0  0  0999 V2000
   -4.7510    2.1210   -0.7320 C   0  0  0  0  0  0  0  0  0  0  0  0
   -4.5560    0.8880    0.1100 C   0  0  0  0  0  0  0  0  0  0  0  0
   -3.0690    0.5090    0.0420 C   0  0  0  0  0  0  0  0  0  0  0  0
   -2.8290   -0.7210    0.8730 C   0  0  0  0  0  0  0  0  0  0  0  0
   -1.3930   -1.1650    0.8740 C   0  0  0  0  0  0  0  0  0  0  0  0
   -0.9530   -1.4840   -0.5320 C   0  0  0  0  0  0  0  0  0  0  0  0
    0.4860   -1.9530   -0.5540 C   0  0  0  0  0  0  0  0  0  0  0  0
    1.4420   -0.8880   -0.0080 C   0  0  0  0  0  0  0  0  0  0  0  0
    2.8280   -1.4480   -0.0840 C   0  0  0  0  0  0  0  0  0  0  0  0
    3.8590   -0.4870    0.4420 C   0  0  0  0  0  0  0  0  0  0  0  0
    3.8270    0.7740   -0.3710 C   0  0  0  0  0  0  0  0  0  0  0  0
    4.8230    1.7670    0.0730 C   0  0  0  0  0  0  0  0  0  0  0  0
    5.5830    1.5290    1.0270 O   0  0  0  0  0  0  0  0  0  0  0  0
    4.9090    2.9760   -0.5830 O   0  0  0  0  0  0  0  0  0  0  0  0
  1  2  1  0
  2  3  1  0
  3  4  1  0
  4  5  1  0
  5  6  1  0
  6  7  1  0
  7  8  1  0
  8  9  1  0
  9 10  1  0
 10 11  1  0
 11 12  1  0
 12 13  2  0
 12 14  1  0
M  END
