
     RDKit          3D

 10  9  0  0  0  0  0  0  0  0999 V2000
   -2.8460    1.0230    0.8880 N   0  0  0  0  0  0  0  0  0  0  0  0
   -2.6280   -0.1750    0.1590 C   0  0  0  0  0  0  0  0  0  0  0  0
   -3.6620   -0.7950   -0.2230 O   0  0  0  0  0  0  0  0  0  0  0  0
   -1.2920   -0.6730   -0.1370 C   0  0  0  0  0  0  0  0  0  0  0  0
   -1.1240   -1.8340   -0.8420 O   0  0  0  0  0  0  0  0  0  0  0  0
   -0.2560    0.0330    0.2980 C   0  0  0  0  0  0  0  0  0  0  0  0
    1.0970   -0.3940    0.0440 C   0  0  0  0  0  0  0  0  0  0  0  0
    2.1140    0.3100    0.4780 C   0  0  0  0  0  0  0  0  0  0  0  0
    3.4670   -0.0480    0.2660 N   0  0  0  0  0  0  0  0  0  0  0  0
    1.8430    1.4820    1.1890 O   0  0  0  0  0  0  0  0  0  0  0  0
  1  2  1  0
  2  3  2  0
  2  4  1  0
  4  5  1  0
  4  6  2  3
  6  7  1  0
  7  8  2  3
  8  9  1  0
  8 10  1  0
M  END
