
     RDKit          3D

 25 28  0  0  0  0  0  0  0  0999 V2000
   -6.6180    1.4140   -2.1760 C   0  0  0  0  0  0  0  0  0  0  0  0
   -5.1610    1.3200   -2.1030 C   0  0  0  0  0  0  0  0  0  0  0  0
   -4.5020    0.7680   -1.0960 C   0  0  0  0  0  0  0  0  0  0  0  0
   -5.1890    0.1980    0.0390 C   0  0  0  0  0  0  0  0  0  0  0  0
   -4.5430   -0.3580    1.0540 C   0  0  0  0  0  0  0  0  0  0  0  0
   -5.2450   -0.9490    2.2310 C   0  0  0  0  0  0  0  0  0  0  0  0
   -3.0720   -0.4010    1.0300 C   0  0  0  0  0  0  0  0  0  0  0  0
   -2.3780   -0.9740    2.0730 C   0  0  0  0  0  0  0  0  0  0  0  0
   -1.0010   -0.9910    2.0050 C   0  0  0  0  0  0  0  0  0  0  0  0
   -0.2880   -0.4650    0.9510 C   0  0  0  0  0  0  0  0  0  0  0  0
    1.1890   -0.5070    0.9260 C   0  0  0  0  0  0  0  0  0  0  0  0
    1.8870    0.0220   -0.1350 C   0  0  0  0  0  0  0  0  0  0  0  0
    3.2640   -0.0090   -0.1750 C   0  0  0  0  0  0  0  0  0  0  0  0
    3.9990    0.5110   -1.2180 O   0  0  0  0  0  0  0  0  0  0  0  0
    5.4060    0.4140   -1.1350 C   0  0  0  0  0  0  0  0  0  0  0  0
    6.1300   -0.4960   -1.7170 C   0  0  0  0  0  0  0  0  0  0  0  0
    7.5520   -0.2610   -1.3920 C   0  0  0  0  0  0  0  0  0  0  0  0
    7.5120    0.9230   -0.5380 C   0  0  0  0  0  0  0  0  0  0  0  0
    6.2670    1.3120   -0.3910 C   0  0  0  0  0  0  0  0  0  0  0  0
    3.9060   -0.5910    0.8890 C   0  0  0  0  0  0  0  0  0  0  0  0
    3.2130   -1.1260    1.9590 C   0  0  0  0  0  0  0  0  0  0  0  0
    1.8760   -1.0640    1.9380 N   0  0  0  0  0  0  0  0  0  0  0  0
   -0.9850    0.0890   -0.0550 N   0  0  0  0  0  0  0  0  0  0  0  0
   -2.3400    0.1200   -0.0160 C   0  0  0  0  0  0  0  0  0  0  0  0
   -3.0830    0.7160   -1.1000 N   0  0  0  0  0  0  0  0  0  0  0  0
  1  2  1  0
  2  3  2  3
  3  4  1  0
  3 25  1  0
  4  5  2  0
  5  6  1  0
  5  7  1  0
  7  8  2  0
  7 24  1  0
  8  9  1  0
  9 10  2  0
 10 11  1  0
 10 23  1  0
 11 12  2  0
 11 22  1  0
 12 13  1  0
 13 14  1  0
 13 20  2  0
 14 15  1  0
 15 16  2  0
 15 19  1  0
 16 17  1  0
 17 18  1  0
 18 19  2  0
 20 21  1  0
 21 22  2  0
 23 24  2  0
 24 25  1  0
M  END
