
     RDKit          3D

 10  9  0  0  0  0  0  0  0  0999 V2000
   -2.1910   -1.3740   -0.5950 N   0  0  0  0  0  0  0  0  0  0  0  0
   -1.0460   -0.4660   -0.4070 C   0  0  0  0  0  0  0  0  0  0  0  0
    0.0560   -1.0190   -0.0750 C   0  0  0  0  0  0  0  0  0  0  0  0
    1.3870   -0.6200    0.2130 C   0  0  0  0  0  0  0  0  0  0  0  0
    2.2160   -1.5670    0.5160 O   0  0  0  0  0  0  0  0  0  0  0  0
    1.9430    0.6570    0.2190 N   0  0  0  0  0  0  0  0  0  0  0  0
    3.3420    0.8670    0.5420 C   0  0  0  0  0  0  0  0  0  0  0  0
    4.0390   -0.1240    0.8150 O   0  0  0  0  0  0  0  0  0  0  0  0
   -1.3900    0.9250   -0.6460 C   0  0  0  0  0  0  0  0  0  0  0  0
   -2.4170    1.3560    0.2580 O   0  0  0  0  0  0  0  0  0  0  0  0
  1  2  1  0
  2  3  2  3
  2  9  1  0
  3  4  1  0
  4  5  2  0
  4  6  1  0
  6  7  1  0
  7  8  2  0
  9 10  1  0
M  END
