
     RDKit          3D

 25 28  0  0  0  0  0  0  0  0999 V2000
    8.2090   -0.2260   -0.4340 C   0  0  0  0  0  0  0  0  0  0  0  0
    6.7480   -0.2060   -0.2430 C   0  0  0  0  0  0  0  0  0  0  0  0
    6.0080   -0.9740    0.6470 C   0  0  0  0  0  0  0  0  0  0  0  0
    4.6780   -0.6360    0.4960 C   0  0  0  0  0  0  0  0  0  0  0  0
    3.5130   -1.0650    1.1020 C   0  0  0  0  0  0  0  0  0  0  0  0
    2.3060   -0.5120    0.7130 C   0  0  0  0  0  0  0  0  0  0  0  0
    1.1390   -0.9270    1.3060 C   0  0  0  0  0  0  0  0  0  0  0  0
   -0.0810   -0.3770    0.9220 C   0  0  0  0  0  0  0  0  0  0  0  0
   -0.2040    0.5800   -0.0360 C   0  0  0  0  0  0  0  0  0  0  0  0
   -1.3580    1.1960   -0.5290 N   0  0  0  0  0  0  0  0  0  0  0  0
   -2.7060    0.6700   -0.3840 C   0  0  0  0  0  0  0  0  0  0  0  0
   -2.7010   -0.4300    0.2430 O   0  0  0  0  0  0  0  0  0  0  0  0
   -3.8410    1.3500   -0.9070 C   0  0  0  0  0  0  0  0  0  0  0  0
   -5.0890    1.1760   -0.9180 C   0  0  0  0  0  0  0  0  0  0  0  0
   -5.9690    0.1850   -0.3820 C   0  0  0  0  0  0  0  0  0  0  0  0
   -7.2570    0.0590   -0.9120 C   0  0  0  0  0  0  0  0  0  0  0  0
   -8.1510   -0.8210   -0.3790 C   0  0  0  0  0  0  0  0  0  0  0  0
   -7.8550   -1.6070    0.6700 N   0  0  0  0  0  0  0  0  0  0  0  0
   -6.6510   -1.5070    1.1870 C   0  0  0  0  0  0  0  0  0  0  0  0
   -5.6960   -0.6210    0.6810 C   0  0  0  0  0  0  0  0  0  0  0  0
    1.0110    0.9850   -0.6250 C   0  0  0  0  0  0  0  0  0  0  0  0
    2.2270    0.4570   -0.2620 C   0  0  0  0  0  0  0  0  0  0  0  0
    3.3890    0.8890   -0.8720 C   0  0  0  0  0  0  0  0  0  0  0  0
    4.6110    0.3330   -0.4820 C   0  0  0  0  0  0  0  0  0  0  0  0
    5.8490    0.5660   -0.8990 N   0  0  0  0  0  0  0  0  0  0  0  0
  1  2  1  0
  2  3  2  0
  2 25  1  0
  3  4  1  0
  4  5  2  0
  4 24  1  0
  5  6  1  0
  6  7  2  0
  6 22  1  0
  7  8  1  0
  8  9  2  0
  9 10  1  0
  9 21  1  0
 10 11  1  0
 11 12  2  0
 11 13  1  0
 13 14  2  3
 14 15  1  0
 15 16  2  0
 15 20  1  0
 16 17  1  0
 17 18  2  0
 18 19  1  0
 19 20  2  0
 21 22  2  0
 22 23  1  0
 23 24  2  0
 24 25  1  0
M  END
