
     RDKit          3D

 25 28  0  0  0  0  0  0  0  0999 V2000
   -5.8320   -2.6840   -0.5150 C   0  0  0  0  0  0  0  0  0  0  0  0
   -4.9340   -1.5600   -0.2560 N   0  0  0  0  0  0  0  0  0  0  0  0
   -3.5780   -1.6210   -0.1410 C   0  0  0  0  0  0  0  0  0  0  0  0
   -3.1010   -0.3550    0.1910 C   0  0  0  0  0  0  0  0  0  0  0  0
   -1.8070    0.0360    0.6610 C   0  0  0  0  0  0  0  0  0  0  0  0
   -0.7490    0.3540   -0.2740 N   0  0  0  0  0  0  0  0  0  0  0  0
    0.5620    0.3180    0.2360 C   0  0  0  0  0  0  0  0  0  0  0  0
    0.7100   -0.0670    1.4630 O   0  0  0  0  0  0  0  0  0  0  0  0
    1.7470    0.6530   -0.4520 N   0  0  0  0  0  0  0  0  0  0  0  0
    3.0820    0.5270    0.0470 C   0  0  0  0  0  0  0  0  0  0  0  0
    3.3730    0.2160    1.3440 C   0  0  0  0  0  0  0  0  0  0  0  0
    4.6850   -0.0680    1.7270 C   0  0  0  0  0  0  0  0  0  0  0  0
    5.6870   -0.0350    0.8060 C   0  0  0  0  0  0  0  0  0  0  0  0
    6.9640   -0.3620    1.1750 C   0  0  0  0  0  0  0  0  0  0  0  0
    7.9850   -0.3950    0.2740 C   0  0  0  0  0  0  0  0  0  0  0  0
    7.7270   -0.0790   -1.0730 C   0  0  0  0  0  0  0  0  0  0  0  0
    6.4660    0.2620   -1.4800 C   0  0  0  0  0  0  0  0  0  0  0  0
    5.4260    0.2850   -0.5400 C   0  0  0  0  0  0  0  0  0  0  0  0
    4.1310    0.5580   -0.8820 C   0  0  0  0  0  0  0  0  0  0  0  0
   -4.2400    0.4540    0.2660 C   0  0  0  0  0  0  0  0  0  0  0  0
   -4.3130    1.8060    0.4990 C   0  0  0  0  0  0  0  0  0  0  0  0
   -5.5650    2.4190    0.4370 C   0  0  0  0  0  0  0  0  0  0  0  0
   -6.6850    1.6530    0.1480 C   0  0  0  0  0  0  0  0  0  0  0  0
   -6.5950    0.3110   -0.0770 C   0  0  0  0  0  0  0  0  0  0  0  0
   -5.3490   -0.2870   -0.0150 C   0  0  0  0  0  0  0  0  0  0  0  0
  1  2  1  0
  2  3  1  0
  2 25  1  0
  3  4  2  0
  4  5  1  0
  4 20  1  0
  5  6  1  0
  6  7  1  0
  7  8  2  0
  7  9  1  0
  9 10  1  0
 10 11  2  0
 10 19  1  0
 11 12  1  0
 12 13  2  0
 13 14  1  0
 13 18  1  0
 14 15  2  0
 15 16  1  0
 16 17  2  0
 17 18  1  0
 18 19  2  0
 20 21  2  0
 20 25  1  0
 21 22  1  0
 22 23  2  0
 23 24  1  0
 24 25  2  0
M  END
