
     RDKit          3D

 25 28  0  0  0  0  0  0  0  0999 V2000
   -2.7210    2.5700   -0.3770 C   0  0  0  0  0  0  0  0  0  0  0  0
   -3.2280    1.3920   -0.6690 C   0  0  0  0  0  0  0  0  0  0  0  0
   -4.5640    0.9720   -0.1650 C   0  0  0  0  0  0  0  0  0  0  0  0
   -4.4740   -0.4790    0.1800 C   0  0  0  0  0  0  0  0  0  0  0  0
   -3.0540   -0.9160    0.5660 C   0  0  0  0  0  0  0  0  0  0  0  0
   -2.1040   -0.7670   -0.6100 C   0  0  2  0  0  0  0  0  0  0  0  0
   -0.7880   -0.5020   -0.1150 N   0  0  0  0  0  0  0  0  0  0  0  0
    0.0000   -1.5150    0.5360 C   0  0  0  0  0  0  0  0  0  0  0  0
   -0.4110   -2.8230    0.5970 C   0  0  0  0  0  0  0  0  0  0  0  0
    0.3510   -3.8240    1.2040 C   0  0  0  0  0  0  0  0  0  0  0  0
    1.5580   -3.4510    1.7520 C   0  0  0  0  0  0  0  0  0  0  0  0
    1.9890   -2.1520    1.7030 C   0  0  0  0  0  0  0  0  0  0  0  0
    1.2180   -1.1940    1.1010 C   0  0  0  0  0  0  0  0  0  0  0  0
    1.6330    0.2120    1.0590 C   0  0  0  0  0  0  0  0  0  0  0  0
    0.9080    1.1820    1.6090 N   0  0  0  0  0  0  0  0  0  0  0  0
    1.2880    2.4390    1.5670 N   0  0  0  0  0  0  0  0  0  0  0  0
    2.4380    2.8120    0.9610 C   0  0  0  0  0  0  0  0  0  0  0  0
    2.8230    4.0180    0.9100 O   0  0  0  0  0  0  0  0  0  0  0  0
    3.2400    1.8510    0.3680 C   0  0  0  0  0  0  0  0  0  0  0  0
    4.4290    2.2340   -0.2680 C   0  0  0  0  0  0  0  0  0  0  0  0
    5.2140    1.2690   -0.8620 C   0  0  0  0  0  0  0  0  0  0  0  0
    4.7910   -0.0350   -0.8040 C   0  0  0  0  0  0  0  0  0  0  0  0
    3.6120   -0.4190   -0.1740 C   0  0  0  0  0  0  0  0  0  0  0  0
    2.8140    0.5330    0.4270 C   0  0  0  0  0  0  0  0  0  0  0  0
   -2.5150    0.3870   -1.5180 C   0  0  0  0  0  0  0  0  0  0  0  0
  1  2  2  0
  2  3  1  0
  2 25  1  0
  3  4  1  0
  4  5  1  0
  5  6  1  0
  6  7  1  1
  6 25  1  0
  7  8  1  0
  8  9  2  0
  8 13  1  0
  9 10  1  0
 10 11  2  0
 11 12  1  0
 12 13  2  0
 13 14  1  0
 14 15  2  0
 14 24  1  0
 15 16  1  0
 16 17  1  0
 17 18  2  0
 17 19  1  0
 19 20  2  0
 19 24  1  0
 20 21  1  0
 21 22  2  0
 22 23  1  0
 23 24  2  0
M  END
