
     RDKit          3D

 16 16  0  0  0  0  0  0  0  0999 V2000
    5.7730   -0.1960   -1.0820 C   0  0  0  0  0  0  0  0  0  0  0  0
    4.5800   -0.8540   -0.4710 C   0  0  0  0  0  0  0  0  0  0  0  0
    3.6680    0.1310    0.2490 C   0  0  0  0  0  0  0  0  0  0  0  0
    2.5260   -0.6700    0.8050 C   0  0  0  0  0  0  0  0  0  0  0  0
    1.7720   -1.3420   -0.1110 O   0  0  0  0  0  0  0  0  0  0  0  0
    1.1200   -0.5950   -1.0530 C   0  0  0  0  0  0  0  0  0  0  0  0
    0.1500    0.3370   -0.4220 C   0  0  0  0  0  0  0  0  0  0  0  0
    0.3560    1.6870   -0.2480 C   0  0  0  0  0  0  0  0  0  0  0  0
   -0.6170    2.4870    0.3630 C   0  0  0  0  0  0  0  0  0  0  0  0
   -1.7880    1.8940    0.7880 C   0  0  0  0  0  0  0  0  0  0  0  0
   -2.0380    0.5460    0.6350 C   0  0  0  0  0  0  0  0  0  0  0  0
   -3.3200   -0.0440    1.1130 C   0  0  0  0  0  0  0  0  0  0  0  0
   -4.3000    0.0320   -0.0180 C   0  0  0  0  0  0  0  0  0  0  0  0
   -5.6510   -0.5400    0.3450 C   0  0  0  0  0  0  0  0  0  0  0  0
   -6.4990   -0.4320   -0.7570 O   0  0  0  0  0  0  0  0  0  0  0  0
   -1.0580   -0.2100    0.0300 C   0  0  0  0  0  0  0  0  0  0  0  0
  1  2  1  0
  2  3  1  0
  3  4  1  0
  4  5  1  0
  5  6  1  0
  6  7  1  0
  7  8  2  0
  7 16  1  0
  8  9  1  0
  9 10  2  0
 10 11  1  0
 11 12  1  0
 11 16  2  0
 12 13  1  0
 13 14  1  0
 14 15  1  0
M  END
