
     RDKit          3D

 18 18  0  0  0  0  0  0  0  0999 V2000
    3.9260    2.5080    0.8180 C   0  0  0  0  0  0  0  0  0  0  0  0
    2.7240    1.7790    0.2320 C   0  0  0  0  0  0  0  0  0  0  0  0
    3.1580    1.1870   -1.0740 C   0  0  0  0  0  0  0  0  0  0  0  0
    2.0480    0.4290   -1.7640 C   0  0  0  0  0  0  0  0  0  0  0  0
    1.5470   -0.6950   -0.9340 C   0  0  0  0  0  0  0  0  0  0  0  0
    2.2600   -1.9040   -0.8150 C   0  0  0  0  0  0  0  0  0  0  0  0
    3.5400   -2.2600   -1.4460 C   0  0  0  0  0  0  0  0  0  0  0  0
    1.5690   -2.6680   -0.0320 O   0  0  0  0  0  0  0  0  0  0  0  0
    0.4540   -2.0550    0.3770 C   0  0  0  0  0  0  0  0  0  0  0  0
   -0.5610   -2.6250    1.2710 C   0  0  0  0  0  0  0  0  0  0  0  0
    0.3990   -0.7910   -0.1750 C   0  0  0  0  0  0  0  0  0  0  0  0
   -0.6100    0.2260   -0.0170 C   0  0  0  0  0  0  0  0  0  0  0  0
   -0.4610    1.3450   -0.6310 O   0  0  0  0  0  0  0  0  0  0  0  0
   -1.8270    0.1600    0.7770 C   0  0  0  0  0  0  0  0  0  0  0  0
   -3.0480   -0.2220   -0.0380 C   0  0  2  0  0  0  0  0  0  0  0  0
   -3.3300    0.7550   -1.1460 C   0  0  0  0  0  0  0  0  0  0  0  0
   -4.2660   -0.3050    0.8480 C   0  0  0  0  0  0  0  0  0  0  0  0
   -4.6110    0.9660    1.5480 C   0  0  0  0  0  0  0  0  0  0  0  0
  1  2  1  0
  2  3  1  0
  3  4  1  0
  4  5  1  0
  5  6  2  0
  5 11  1  0
  6  7  1  0
  6  8  1  0
  8  9  1  0
  9 10  1  0
  9 11  2  0
 11 12  1  0
 12 13  2  0
 12 14  1  0
 14 15  1  0
 15 16  1  6
 15 17  1  0
 17 18  1  0
M  END
