
     RDKit          3D

 18 18  0  0  0  0  0  0  0  0999 V2000
    5.6120    2.1380    0.0640 C   0  0  0  0  0  0  0  0  0  0  0  0
    5.4350    0.9320    0.5430 C   0  0  0  0  0  0  0  0  0  0  0  0
    5.2210   -0.2200   -0.3780 C   0  0  0  0  0  0  0  0  0  0  0  0
    3.8700   -0.8060   -0.0440 C   0  0  0  0  0  0  0  0  0  0  0  0
    2.7580    0.1950   -0.2240 C   0  0  0  0  0  0  0  0  0  0  0  0
    1.4570   -0.5720    0.1590 C   0  0  0  0  0  0  0  0  0  0  0  0
    0.3060    0.3130    0.0190 C   0  0  0  0  0  0  0  0  0  0  0  0
    0.5410    1.5460   -0.3110 O   0  0  0  0  0  0  0  0  0  0  0  0
   -1.0750   -0.0570    0.2080 C   0  0  0  0  0  0  0  0  0  0  0  0
   -2.0640    0.7970   -0.3570 C   0  0  0  0  0  0  0  0  0  0  0  0
   -3.3970    0.5140   -0.2670 C   0  0  0  0  0  0  0  0  0  0  0  0
   -4.3620    1.4280   -0.8670 C   0  0  0  0  0  0  0  0  0  0  0  0
   -5.7970    1.0760   -0.7400 C   0  0  0  0  0  0  0  0  0  0  0  0
   -3.7920   -0.6250    0.3850 C   0  0  0  0  0  0  0  0  0  0  0  0
   -5.1320   -0.9090    0.4740 O   0  0  0  0  0  0  0  0  0  0  0  0
   -2.8780   -1.4880    0.9520 C   0  0  0  0  0  0  0  0  0  0  0  0
   -1.5130   -1.1820    0.8520 C   0  0  0  0  0  0  0  0  0  0  0  0
   -0.5860   -2.1110    1.5060 C   0  0  0  0  0  0  0  0  0  0  0  0
  1  2  2  0
  2  3  1  0
  3  4  1  0
  4  5  1  0
  5  6  1  0
  6  7  1  0
  7  8  2  0
  7  9  1  0
  9 10  2  0
  9 17  1  0
 10 11  1  0
 11 12  1  0
 11 14  2  0
 12 13  1  0
 14 15  1  0
 14 16  1  0
 16 17  2  0
 17 18  1  0
M  END
