
     RDKit          3D

 18 18  0  0  0  0  0  0  0  0999 V2000
    4.2530    2.5650   -0.8100 C   0  0  0  0  0  0  0  0  0  0  0  0
    4.7220    1.4670   -0.2100 C   0  0  0  0  0  0  0  0  0  0  0  0
    3.9830    0.1820   -0.1640 C   0  0  0  0  0  0  0  0  0  0  0  0
    2.6560    0.2640   -0.8720 C   0  0  0  0  0  0  0  0  0  0  0  0
    1.9120   -1.0380   -0.8250 C   0  0  0  0  0  0  0  0  0  0  0  0
    1.6010   -1.5070    0.5740 C   0  0  0  0  0  0  0  0  0  0  0  0
    0.7300   -0.5670    1.3540 C   0  0  0  0  0  0  0  0  0  0  0  0
   -0.5970   -0.3430    0.7710 C   0  0  0  0  0  0  0  0  0  0  0  0
   -0.8920    0.8320    0.1320 C   0  0  0  0  0  0  0  0  0  0  0  0
   -2.1480    1.0880   -0.4300 C   0  0  0  0  0  0  0  0  0  0  0  0
   -2.4280    2.3730   -1.1220 C   0  0  0  0  0  0  0  0  0  0  0  0
   -1.3010    3.2040   -1.0890 O   0  0  0  0  0  0  0  0  0  0  0  0
   -3.1110    0.1160   -0.3290 C   0  0  0  0  0  0  0  0  0  0  0  0
   -4.4650    0.3510   -0.9090 C   0  0  0  0  0  0  0  0  0  0  0  0
   -2.8130   -1.0740    0.3170 C   0  0  0  0  0  0  0  0  0  0  0  0
   -1.5720   -1.3050    0.8630 C   0  0  0  0  0  0  0  0  0  0  0  0
   -1.3600   -2.5280    1.4940 O   0  0  0  0  0  0  0  0  0  0  0  0
   -2.3390   -3.5160    1.5960 C   0  0  0  0  0  0  0  0  0  0  0  0
  1  2  2  0
  2  3  1  0
  3  4  1  0
  4  5  1  0
  5  6  1  0
  6  7  1  0
  7  8  1  0
  8  9  2  0
  8 16  1  0
  9 10  1  0
 10 11  1  0
 10 13  2  0
 11 12  1  0
 13 14  1  0
 13 15  1  0
 15 16  2  0
 16 17  1  0
 17 18  1  0
M  END
