
     RDKit          3D

 18 18  0  0  0  0  0  0  0  0999 V2000
    4.9070    0.2060   -1.0270 C   0  0  0  0  0  0  0  0  0  0  0  0
    3.5620   -0.4320   -1.2520 C   0  0  0  0  0  0  0  0  0  0  0  0
    3.0460   -1.2270   -0.0840 C   0  0  0  0  0  0  0  0  0  0  0  0
    2.8260   -0.4770    1.1710 C   0  0  0  0  0  0  0  0  0  0  0  0
    1.8280    0.6170    1.1720 C   0  0  0  0  0  0  0  0  0  0  0  0
    0.4510    0.2020    0.8160 C   0  0  0  0  0  0  0  0  0  0  0  0
    0.0350   -1.0650    1.1570 C   0  0  0  0  0  0  0  0  0  0  0  0
   -1.2200   -1.5170    0.8390 C   0  0  0  0  0  0  0  0  0  0  0  0
   -1.6240   -2.9030    1.2060 C   0  0  0  0  0  0  0  0  0  0  0  0
   -2.1320   -0.7130    0.1590 C   0  0  0  0  0  0  0  0  0  0  0  0
   -3.3770   -1.2210   -0.1240 O   0  0  0  0  0  0  0  0  0  0  0  0
   -4.4130   -0.5390   -0.7910 C   0  0  0  0  0  0  0  0  0  0  0  0
   -5.6370   -1.4350   -0.9340 C   0  0  0  0  0  0  0  0  0  0  0  0
   -1.7120    0.5500   -0.1790 C   0  0  0  0  0  0  0  0  0  0  0  0
   -0.4210    0.9940    0.1550 C   0  0  0  0  0  0  0  0  0  0  0  0
   -0.0760    2.3740   -0.2370 C   0  0  0  0  0  0  0  0  0  0  0  0
   -0.2210    3.2380    0.9860 C   0  0  0  0  0  0  0  0  0  0  0  0
    0.0700    4.5680    0.7880 O   0  0  0  0  0  0  0  0  0  0  0  0
  1  2  1  0
  2  3  1  0
  3  4  1  0
  4  5  1  0
  5  6  1  0
  6  7  2  0
  6 15  1  0
  7  8  1  0
  8  9  1  0
  8 10  2  0
 10 11  1  0
 10 14  1  0
 11 12  1  0
 12 13  1  0
 14 15  2  0
 15 16  1  0
 16 17  1  0
 17 18  1  0
M  END
