
     RDKit          3D

 18 17  0  0  0  0  0  0  0  0999 V2000
   -7.2220    0.3920   -0.0740 C   0  0  0  0  0  0  0  0  0  0  0  0
   -5.9160   -0.3300   -0.3010 C   0  0  0  0  0  0  0  0  0  0  0  0
   -5.0390    0.5400   -1.1590 C   0  0  0  0  0  0  0  0  0  0  0  0
   -3.7120   -0.0730   -1.4580 C   0  0  0  0  0  0  0  0  0  0  0  0
   -2.8970   -0.3760   -0.2180 C   0  0  0  0  0  0  0  0  0  0  0  0
   -2.6190    0.8730    0.5820 C   0  0  0  0  0  0  0  0  0  0  0  0
   -1.8200    0.5070    1.7990 C   0  0  0  0  0  0  0  0  0  0  0  0
   -0.5240   -0.1450    1.3930 C   0  0  0  0  0  0  0  0  0  0  0  0
    0.3100    0.7490    0.5500 C   0  0  0  0  0  0  0  0  0  0  0  0
    1.5950    0.0190    0.1720 C   0  0  0  0  0  0  0  0  0  0  0  0
    2.3480   -0.3350    1.4010 C   0  0  0  0  0  0  0  0  0  0  0  0
    3.6240   -1.0520    1.0400 C   0  0  0  0  0  0  0  0  0  0  0  0
    4.4900   -0.1760    0.2010 C   0  0  0  0  0  0  0  0  0  0  0  0
    5.7970   -0.8950   -0.1500 C   0  0  0  0  0  0  0  0  0  0  0  0
    6.6510    0.0050   -0.9930 C   0  0  0  0  0  0  0  0  0  0  0  0
    5.9670    0.3020   -2.2600 C   0  0  0  0  0  0  0  0  0  0  0  0
    6.3410    1.2590   -2.9820 O   0  0  0  0  0  0  0  0  0  0  0  0
    4.9070   -0.4680   -2.6760 O   0  0  0  0  0  0  0  0  0  0  0  0
  1  2  1  0
  2  3  1  0
  3  4  1  0
  4  5  1  0
  5  6  1  0
  6  7  1  0
  7  8  1  0
  8  9  1  0
  9 10  1  0
 10 11  1  0
 11 12  1  0
 12 13  1  0
 13 14  1  0
 14 15  1  0
 15 16  1  0
 16 17  2  0
 16 18  1  0
M  END
