
     RDKit          3D

 18 18  0  0  0  0  0  0  0  0999 V2000
   -3.2490    2.2230    0.6210 C   0  0  0  0  0  0  0  0  0  0  0  0
   -2.0470    1.3760    1.0640 C   0  0  0  0  0  0  0  0  0  0  0  0
   -2.0660    0.0550    0.2790 C   0  0  1  0  0  0  0  0  0  0  0  0
   -3.4100   -0.5690    0.6630 C   0  0  0  0  0  0  0  0  0  0  0  0
   -3.6270   -1.8920   -0.0110 C   0  0  0  0  0  0  0  0  0  0  0  0
   -2.0360    0.3980   -1.1630 C   0  0  0  0  0  0  0  0  0  0  0  0
   -1.3710   -0.5770   -2.0690 C   0  0  0  0  0  0  0  0  0  0  0  0
    0.0830   -0.3220   -2.3150 C   0  0  0  0  0  0  0  0  0  0  0  0
    0.9870   -0.9890   -1.3010 C   0  0  0  0  0  0  0  0  0  0  0  0
    1.2510   -0.1010   -0.1500 C   0  0  2  0  0  0  0  0  0  0  0  0
    1.0320    1.2230   -0.6240 O   0  0  0  0  0  0  0  0  0  0  0  0
    2.6870   -0.1040    0.3060 C   0  0  0  0  0  0  0  0  0  0  0  0
    3.6730    0.3460   -0.7090 C   0  0  0  0  0  0  0  0  0  0  0  0
    5.0750    0.3380   -0.2070 C   0  0  0  0  0  0  0  0  0  0  0  0
    5.4770   -0.0700    1.1620 C   0  0  0  0  0  0  0  0  0  0  0  0
    5.9620    0.6870   -0.9630 O   0  0  0  0  0  0  0  0  0  0  0  0
    0.3370   -0.2630    1.0210 C   0  0  0  0  0  0  0  0  0  0  0  0
   -0.9930   -0.8470    0.7800 C   0  0  0  0  0  0  0  0  0  0  0  0
  1  2  1  0
  3  2  1  1
  3  4  1  0
  3  6  1  0
  3 18  1  0
  4  5  1  0
  6  7  1  0
  7  8  1  0
  8  9  1  0
  9 10  1  0
 10 11  1  6
 10 12  1  0
 10 17  1  0
 12 13  1  0
 13 14  1  0
 14 15  1  0
 14 16  2  0
 17 18  1  0
M  END
