
     RDKit          3D

 20 20  0  0  0  0  0  0  0  0999 V2000
   -1.2740    3.2810   -0.5110 C   0  0  0  0  0  0  0  0  0  0  0  0
   -2.3440    2.5110   -0.6260 C   0  0  0  0  0  0  0  0  0  0  0  0
   -2.5760    1.4430    0.3570 C   0  0  0  0  0  0  0  0  0  0  0  0
   -2.6280    0.0690   -0.2460 C   0  0  1  0  0  0  0  0  0  0  0  0
   -3.6980   -0.1180   -1.2580 C   0  0  0  0  0  0  0  0  0  0  0  0
   -5.0350    0.1280   -0.6340 C   0  0  0  0  0  0  0  0  0  0  0  0
   -5.9790   -0.7720   -0.5720 C   0  0  0  0  0  0  0  0  0  0  0  0
   -1.3280   -0.3730   -0.7980 C   0  0  0  0  0  0  0  0  0  0  0  0
   -1.2690   -0.6370   -1.9850 O   0  0  0  0  0  0  0  0  0  0  0  0
   -0.0900   -0.5160   -0.0040 C   0  0  0  0  0  0  0  0  0  0  0  0
    1.0680   -0.9810   -0.8500 C   0  0  0  0  0  0  0  0  0  0  0  0
    2.3110   -1.1340   -0.0910 C   0  0  0  0  0  0  0  0  0  0  0  0
    2.8270   -2.3580    0.2990 C   0  0  0  0  0  0  0  0  0  0  0  0
    4.0100   -2.4530    1.0180 C   0  0  0  0  0  0  0  0  0  0  0  0
    4.7180   -1.3250    1.3720 C   0  0  0  0  0  0  0  0  0  0  0  0
    5.9680   -1.4260    2.1310 C   0  0  0  0  0  0  0  0  0  0  0  0
    6.4360   -2.5310    2.4840 O   0  0  0  0  0  0  0  0  0  0  0  0
    4.2130   -0.1030    0.9890 C   0  0  0  0  0  0  0  0  0  0  0  0
    3.0310   -0.0190    0.2700 C   0  0  0  0  0  0  0  0  0  0  0  0
    2.5720    1.3300   -0.0960 C   0  0  0  0  0  0  0  0  0  0  0  0
  1  2  2  0
  2  3  1  0
  4  3  1  6
  4  5  1  0
  4  8  1  0
  5  6  1  0
  6  7  2  0
  8  9  2  0
  8 10  1  0
 10 11  1  0
 11 12  1  0
 12 13  2  0
 12 19  1  0
 13 14  1  0
 14 15  2  0
 15 16  1  0
 15 18  1  0
 16 17  2  0
 18 19  2  0
 19 20  1  0
M  END
