
     RDKit          3D

 20 20  0  0  0  0  0  0  0  0999 V2000
   -0.9510    3.6940    1.5710 C   0  0  0  0  0  0  0  0  0  0  0  0
    0.1610    3.0910    1.2360 C   0  0  0  0  0  0  0  0  0  0  0  0
    0.4120    2.6870   -0.1590 C   0  0  0  0  0  0  0  0  0  0  0  0
    0.6840    1.2440   -0.3400 C   0  0  0  0  0  0  0  0  0  0  0  0
    2.0190    0.8400   -0.4490 C   0  0  0  0  0  0  0  0  0  0  0  0
    2.4150   -0.4630   -0.5860 C   0  0  0  0  0  0  0  0  0  0  0  0
    3.7520   -0.9610   -0.7010 C   0  0  0  0  0  0  0  0  0  0  0  0
    3.8490   -2.2630   -0.8280 O   0  0  0  0  0  0  0  0  0  0  0  0
    5.0130   -0.3010   -0.7040 C   0  0  0  0  0  0  0  0  0  0  0  0
    5.3880    0.9280   -0.6070 C   0  0  0  0  0  0  0  0  0  0  0  0
    1.3820   -1.4130   -0.6130 C   0  0  0  0  0  0  0  0  0  0  0  0
    0.0510   -1.0160   -0.5050 C   0  0  0  0  0  0  0  0  0  0  0  0
   -0.9060   -2.0040   -0.5420 O   0  0  0  0  0  0  0  0  0  0  0  0
   -0.6850   -3.3600   -0.6580 C   0  0  0  0  0  0  0  0  0  0  0  0
    0.0920   -3.9490    0.4840 C   0  0  0  0  0  0  0  0  0  0  0  0
   -0.3230    0.3050   -0.3680 C   0  0  0  0  0  0  0  0  0  0  0  0
   -1.7060    0.7460   -0.2950 C   0  0  0  0  0  0  0  0  0  0  0  0
   -2.7410   -0.0130   -0.2530 C   0  0  0  0  0  0  0  0  0  0  0  0
   -4.1060    0.6200   -0.1790 C   0  0  0  0  0  0  0  0  0  0  0  0
   -4.8320    0.1890    1.0720 C   0  0  0  0  0  0  0  0  0  0  0  0
  1  2  2  0
  2  3  1  0
  3  4  1  0
  4  5  2  0
  4 16  1  0
  5  6  1  0
  6  7  1  0
  6 11  2  0
  7  8  2  0
  7  9  1  0
  9 10  2  0
 11 12  1  0
 12 13  1  0
 12 16  2  0
 13 14  1  0
 14 15  1  0
 16 17  1  0
 17 18  2  3
 18 19  1  0
 19 20  1  0
M  END
