
     RDKit          3D

 20 20  0  0  0  0  0  0  0  0999 V2000
    3.7190   -1.7800    1.9680 C   0  0  0  0  0  0  0  0  0  0  0  0
    3.3400   -0.4220    1.4090 C   0  0  0  0  0  0  0  0  0  0  0  0
    3.1540   -0.4650   -0.0760 C   0  0  0  0  0  0  0  0  0  0  0  0
    2.7850    0.8850   -0.6180 C   0  0  0  0  0  0  0  0  0  0  0  0
    3.7590    1.9060   -0.5290 C   0  0  0  0  0  0  0  0  0  0  0  0
    4.9230    1.6960    0.0020 O   0  0  0  0  0  0  0  0  0  0  0  0
    1.5660    1.0220   -1.1470 C   0  0  0  0  0  0  0  0  0  0  0  0
    1.2370    2.3480   -1.6760 C   0  0  0  0  0  0  0  0  0  0  0  0
    0.9160    2.2900   -3.1760 C   0  0  0  0  0  0  0  0  0  0  0  0
    0.7170   -0.0350   -1.1700 O   0  0  0  0  0  0  0  0  0  0  0  0
   -0.1500   -0.7450   -0.5000 C   0  0  0  0  0  0  0  0  0  0  0  0
   -1.4880   -0.5410   -0.0070 C   0  0  0  0  0  0  0  0  0  0  0  0
   -1.9360   -1.5930    0.8600 C   0  0  0  0  0  0  0  0  0  0  0  0
   -1.0160   -2.7000    1.2210 C   0  0  0  0  0  0  0  0  0  0  0  0
   -3.2090   -1.5450    1.3490 C   0  0  0  0  0  0  0  0  0  0  0  0
   -4.0970   -0.5360    1.0550 C   0  0  0  0  0  0  0  0  0  0  0  0
   -5.4770   -0.4850    1.5900 C   0  0  0  0  0  0  0  0  0  0  0  0
   -3.6650    0.4640    0.2250 C   0  0  0  0  0  0  0  0  0  0  0  0
   -2.3590    0.4420   -0.2970 C   0  0  0  0  0  0  0  0  0  0  0  0
   -2.0060    1.5070   -1.2800 C   0  0  0  0  0  0  0  0  0  0  0  0
  1  2  1  0
  2  3  1  0
  3  4  1  0
  4  5  1  0
  4  7  2  3
  5  6  2  0
  7  8  1  0
  7 10  1  0
  8  9  1  0
 10 11  1  0
 11 12  1  0
 12 13  2  0
 12 19  1  0
 13 14  1  0
 13 15  1  0
 15 16  2  0
 16 17  1  0
 16 18  1  0
 18 19  2  0
 19 20  1  0
M  END
