
     RDKit          3D

 20 20  0  0  0  0  0  0  0  0999 V2000
   -2.6890    3.0340   -2.0430 C   0  0  0  0  0  0  0  0  0  0  0  0
   -2.1980    1.9970   -1.2400 O   0  0  0  0  0  0  0  0  0  0  0  0
   -2.9880    0.9970   -0.7160 C   0  0  0  0  0  0  0  0  0  0  0  0
   -4.3400    0.8610   -0.8930 C   0  0  0  0  0  0  0  0  0  0  0  0
   -5.0850   -0.1470   -0.3540 C   0  0  0  0  0  0  0  0  0  0  0  0
   -6.5480   -0.2840   -0.5500 C   0  0  0  0  0  0  0  0  0  0  0  0
   -4.4260   -1.0820    0.4160 C   0  0  0  0  0  0  0  0  0  0  0  0
   -5.2020   -2.2040    1.0250 C   0  0  0  0  0  0  0  0  0  0  0  0
   -3.0500   -1.0150    0.6450 C   0  0  0  0  0  0  0  0  0  0  0  0
   -2.3600    0.0290    0.0690 C   0  0  0  0  0  0  0  0  0  0  0  0
   -0.8840    0.1080    0.3020 C   0  0  0  0  0  0  0  0  0  0  0  0
   -0.1940   -0.3750   -0.9340 C   0  0  0  0  0  0  0  0  0  0  0  0
    1.2990   -0.3140   -0.8030 C   0  0  0  0  0  0  0  0  0  0  0  0
    1.7860   -1.1540    0.3250 C   0  0  0  0  0  0  0  0  0  0  0  0
    3.2980   -1.1180    0.4550 C   0  0  0  0  0  0  0  0  0  0  0  0
    3.7670    0.2810    0.6930 C   0  0  0  0  0  0  0  0  0  0  0  0
    5.2970    0.2250    0.8190 C   0  0  2  0  0  0  0  0  0  0  0  0
    5.7710    1.6330    1.0550 C   0  0  0  0  0  0  0  0  0  0  0  0
    5.8350   -0.4030   -0.4250 C   0  0  0  0  0  0  0  0  0  0  0  0
    5.5740   -0.5220    1.9650 O   0  0  0  0  0  0  0  0  0  0  0  0
  1  2  1  0
  2  3  1  0
  3  4  2  0
  3 10  1  0
  4  5  1  0
  5  6  1  0
  5  7  2  0
  7  8  1  0
  7  9  1  0
  9 10  2  0
 10 11  1  0
 11 12  1  0
 12 13  1  0
 13 14  1  0
 14 15  1  0
 15 16  1  0
 16 17  1  0
 17 18  1  1
 17 19  1  0
 17 20  1  0
M  END
