
     RDKit          3D

 20 20  0  0  0  0  0  0  0  0999 V2000
   -3.6270   -3.0850   -3.2600 C   0  0  0  0  0  0  0  0  0  0  0  0
   -2.9020   -2.2620   -2.2220 C   0  0  0  0  0  0  0  0  0  0  0  0
   -3.3160   -0.8010   -2.3390 C   0  0  0  0  0  0  0  0  0  0  0  0
   -2.5900   -0.0090   -1.3040 C   0  0  0  0  0  0  0  0  0  0  0  0
   -3.0990    0.2040   -0.0350 C   0  0  0  0  0  0  0  0  0  0  0  0
   -2.3840    0.9370    0.8920 C   0  0  0  0  0  0  0  0  0  0  0  0
   -2.9640    1.1410    2.2350 C   0  0  0  0  0  0  0  0  0  0  0  0
   -3.8220    2.3750    2.3240 C   0  0  0  0  0  0  0  0  0  0  0  0
   -1.1700    1.4350    0.5070 C   0  0  0  0  0  0  0  0  0  0  0  0
   -0.6260    1.2470   -0.7470 C   0  0  0  0  0  0  0  0  0  0  0  0
    0.6990    1.7760   -1.1690 C   0  0  0  0  0  0  0  0  0  0  0  0
    1.6350    0.7470   -1.2620 O   0  0  0  0  0  0  0  0  0  0  0  0
    1.8120    0.0990   -0.0400 C   0  0  1  0  0  0  0  0  0  0  0  0
    1.3030   -1.3320   -0.2700 C   0  0  0  0  0  0  0  0  0  0  0  0
    3.2770    0.0350    0.2550 C   0  0  1  0  0  0  0  0  0  0  0  0
    3.7640    1.3620    0.3050 O   0  0  0  0  0  0  0  0  0  0  0  0
    3.5780   -0.5880    1.5920 C   0  0  0  0  0  0  0  0  0  0  0  0
    5.0560   -0.6490    1.8670 C   0  0  0  0  0  0  0  0  0  0  0  0
    5.6660    0.7150    1.8710 C   0  0  0  0  0  0  0  0  0  0  0  0
   -1.3580    0.5130   -1.6540 C   0  0  0  0  0  0  0  0  0  0  0  0
  1  2  1  0
  2  3  1  0
  3  4  1  0
  4  5  2  0
  4 20  1  0
  5  6  1  0
  6  7  1  0
  6  9  2  0
  7  8  1  0
  9 10  1  0
 10 11  1  0
 10 20  2  0
 11 12  1  0
 12 13  1  0
 13 14  1  6
 13 15  1  0
 15 16  1  1
 15 17  1  0
 17 18  1  0
 18 19  1  0
M  END
