
     RDKit          3D

 20 19  0  0  0  0  0  0  0  0999 V2000
   -7.2010    0.5180   -0.4480 C   0  0  0  0  0  0  0  0  0  0  0  0
   -6.2270   -0.4160   -1.0910 C   0  0  0  0  0  0  0  0  0  0  0  0
   -5.1540    0.2940   -1.8720 C   0  0  0  0  0  0  0  0  0  0  0  0
   -4.3250    1.2220   -1.0470 C   0  0  0  0  0  0  0  0  0  0  0  0
   -3.6360    0.4230    0.0600 C   0  0  0  0  0  0  0  0  0  0  0  0
   -2.7850    1.3160    0.9210 C   0  0  0  0  0  0  0  0  0  0  0  0
   -2.1420    0.4950    2.0010 C   0  0  0  0  0  0  0  0  0  0  0  0
   -1.2600   -0.5970    1.4750 C   0  0  0  0  0  0  0  0  0  0  0  0
   -0.1370   -0.0780    0.6200 C   0  0  0  0  0  0  0  0  0  0  0  0
    0.7290    0.8660    1.3960 C   0  0  0  0  0  0  0  0  0  0  0  0
    1.3360    0.2190    2.6040 C   0  0  0  0  0  0  0  0  0  0  0  0
    2.1720   -0.9610    2.2360 C   0  0  0  0  0  0  0  0  0  0  0  0
    3.2910   -0.5440    1.3160 C   0  0  0  0  0  0  0  0  0  0  0  0
    4.1690   -1.7290    0.9430 C   0  0  0  0  0  0  0  0  0  0  0  0
    5.2710   -1.2530    0.0310 C   0  0  0  0  0  0  0  0  0  0  0  0
    4.7740   -0.6370   -1.2460 C   0  0  0  0  0  0  0  0  0  0  0  0
    5.9590   -0.1930   -2.1070 C   0  0  0  0  0  0  0  0  0  0  0  0
    5.4570    0.4130   -3.3650 C   0  0  0  0  0  0  0  0  0  0  0  0
    4.2180    0.4850   -3.5630 O   0  0  0  0  0  0  0  0  0  0  0  0
    6.3110    0.9030   -4.3290 O   0  0  0  0  0  0  0  0  0  0  0  0
  1  2  1  0
  2  3  1  0
  3  4  1  0
  4  5  1  0
  5  6  1  0
  6  7  1  0
  7  8  1  0
  8  9  1  0
  9 10  1  0
 10 11  1  0
 11 12  1  0
 12 13  1  0
 13 14  1  0
 14 15  1  0
 15 16  1  0
 16 17  1  0
 17 18  1  0
 18 19  2  0
 18 20  1  0
M  END
