
     RDKit          3D

 28 29  0  0  0  0  0  0  0  0999 V2000
   -5.8530    3.9170   -1.7140 N   0  0  0  0  0  0  0  0  0  0  0  0
   -6.7680    3.2840   -1.5290 C   0  0  0  0  0  0  0  0  0  0  0  0
   -8.0030    2.4560   -1.2960 C   0  0  0  0  0  0  0  0  0  0  0  0
   -7.5690    1.0070   -1.1090 C   0  0  0  0  0  0  0  0  0  0  0  0
   -6.7070    0.9550    0.0240 N   0  0  0  0  0  0  0  0  0  0  0  0
   -5.6600   -0.0380   -0.0420 C   0  0  1  0  0  0  0  0  0  0  0  0
   -6.0330   -1.3220   -0.6850 C   0  0  0  0  0  0  0  0  0  0  0  0
   -5.0450   -1.5440   -1.7910 C   0  0  0  0  0  0  0  0  0  0  0  0
   -3.8380   -0.7380   -1.3590 C   0  0  1  0  0  0  0  0  0  0  0  0
   -2.9590   -0.3960   -2.5370 C   0  0  0  0  0  0  0  0  0  0  0  0
   -1.7650    0.4150   -2.2310 C   0  0  0  0  0  0  0  0  0  0  0  0
   -0.7890   -0.2130   -1.3010 C   0  0  2  0  0  0  0  0  0  0  0  0
   -1.2890   -0.5260   -0.0420 O   0  0  0  0  0  0  0  0  0  0  0  0
    0.3560    0.7710   -1.0490 C   0  0  0  0  0  0  0  0  0  0  0  0
    1.3720    0.1440   -0.1060 C   0  0  2  0  0  0  0  0  0  0  0  0
    0.7340   -0.1740    1.1070 O   0  0  0  0  0  0  0  0  0  0  0  0
    2.3600    1.2430    0.2390 C   0  0  0  0  0  0  0  0  0  0  0  0
    3.3260    0.9060    1.1700 O   0  0  0  0  0  0  0  0  0  0  0  0
    4.2080   -0.1310    0.9210 C   0  0  0  0  0  0  0  0  0  0  0  0
    4.0940   -0.7450   -0.1650 O   0  0  0  0  0  0  0  0  0  0  0  0
    5.2620   -0.5340    1.8730 C   0  0  2  0  0  0  0  0  0  0  0  0
    6.1920    0.6550    2.0680 C   0  0  0  0  0  0  0  0  0  0  0  0
    7.2530    0.3320    3.0960 C   0  0  0  0  0  0  0  0  0  0  0  0
    8.4290   -0.3430    2.4620 C   0  0  0  0  0  0  0  0  0  0  0  0
    8.2510   -1.8160    2.2750 C   0  0  0  0  0  0  0  0  0  0  0  0
    6.8250   -2.2790    2.3130 C   0  0  0  0  0  0  0  0  0  0  0  0
    5.9660   -1.6730    1.3450 N   0  0  0  0  0  0  0  0  0  0  0  0
   -4.4370    0.4800   -0.7230 C   0  0  0  0  0  0  0  0  0  0  0  0
  1  2  3  0
  2  3  1  0
  3  4  1  0
  4  5  1  0
  6  5  1  6
  6  7  1  0
  6 28  1  0
  7  8  1  0
  8  9  1  0
  9 10  1  6
  9 28  1  0
 10 11  1  0
 11 12  1  0
 12 13  1  1
 12 14  1  0
 14 15  1  0
 15 16  1  1
 15 17  1  0
 17 18  1  0
 18 19  1  0
 19 20  2  0
 21 19  1  6
 21 22  1  0
 21 27  1  0
 22 23  1  0
 23 24  1  0
 24 25  1  0
 25 26  1  0
 26 27  1  0
M  CHG  2   5   1  27   1
M  END
