
     RDKit          3D

 29 29  0  0  0  0  0  0  0  0999 V2000
    8.2150   -2.4930    1.3620 C   0  0  0  0  0  0  0  0  0  0  0  0
    7.3750   -1.4450    0.9380 O   0  0  0  0  0  0  0  0  0  0  0  0
    7.3970   -0.9790   -0.3610 C   0  0  0  0  0  0  0  0  0  0  0  0
    8.1940   -1.5180   -1.1630 O   0  0  0  0  0  0  0  0  0  0  0  0
    6.5140    0.1140   -0.7800 C   0  0  2  0  0  0  0  0  0  0  0  0
    7.2990    1.2790   -1.3410 C   0  0  0  0  0  0  0  0  0  0  0  0
    5.7270    0.5380    0.2990 O   0  0  0  0  0  0  0  0  0  0  0  0
    4.3580    0.4960    0.2790 C   0  0  0  0  0  0  0  0  0  0  0  0
    3.7810    0.0580   -0.7490 O   0  0  0  0  0  0  0  0  0  0  0  0
    3.5730    0.9640    1.4650 C   0  0  0  0  0  0  0  0  0  0  0  0
    2.1830    0.8250    1.2100 O   0  0  0  0  0  0  0  0  0  0  0  0
    1.5750    1.4800    0.1580 C   0  0  0  0  0  0  0  0  0  0  0  0
    2.2780    2.2170   -0.5890 O   0  0  0  0  0  0  0  0  0  0  0  0
    0.2060    1.3620   -0.1200 O   0  0  0  0  0  0  0  0  0  0  0  0
   -0.3500    2.0510   -1.2000 C   0  0  0  0  0  0  0  0  0  0  0  0
   -1.8040    1.7440   -1.2550 C   0  0  0  0  0  0  0  0  0  0  0  0
   -2.5230    2.2590   -2.1590 O   0  0  0  0  0  0  0  0  0  0  0  0
   -2.4140    0.8850   -0.3200 N   0  0  0  0  0  0  0  0  0  0  0  0
   -3.8570    0.6190   -0.4260 C   0  0  2  0  0  0  0  0  0  0  0  0
   -4.5250    1.0850    0.8420 C   0  0  0  0  0  0  0  0  0  0  0  0
   -5.7500    0.2530    1.0890 C   0  0  0  0  0  0  0  0  0  0  0  0
   -6.9320    0.8030    1.1900 C   0  0  0  0  0  0  0  0  0  0  0  0
   -8.0570   -0.0340    1.4250 N   0  0  0  0  0  0  0  0  0  0  0  0
   -7.0620    2.1700    1.0680 O   0  0  0  0  0  0  0  0  0  0  0  0
   -5.5090   -1.2030    1.2050 C   0  0  0  0  0  0  0  0  0  0  0  0
   -4.7830   -1.6460   -0.0130 C   0  0  0  0  0  0  0  0  0  0  0  0
   -4.0550   -0.8190   -0.7220 C   0  0  0  0  0  0  0  0  0  0  0  0
   -3.2110   -1.4730   -2.1920 S   0  0  0  0  0  0  0  0  0  0  0  0
   -3.5710   -3.2360   -2.3860 C   0  0  0  0  0  0  0  0  0  0  0  0
  1  2  1  0
  2  3  1  0
  3  4  2  0
  3  5  1  0
  5  6  1  1
  5  7  1  0
  7  8  1  0
  8  9  2  0
  8 10  1  0
 10 11  1  0
 11 12  1  0
 12 13  2  0
 12 14  1  0
 14 15  1  0
 15 16  1  0
 16 17  2  0
 16 18  1  0
 19 18  1  1
 19 20  1  0
 19 27  1  0
 20 21  1  0
 21 22  2  3
 21 25  1  0
 22 23  1  0
 22 24  1  0
 25 26  1  0
 26 27  2  0
 27 28  1  0
 28 29  1  0
M  END
