
     RDKit          3D

 29 30  0  0  0  0  0  0  0  0999 V2000
   -5.4540    0.2630   -2.2990 C   0  0  0  0  0  0  0  0  0  0  0  0
   -4.1750   -0.5510   -2.0380 C   0  0  0  0  0  0  0  0  0  0  0  0
   -3.4590    0.0910   -0.9640 N   0  0  0  0  0  0  0  0  0  0  0  0
   -2.2800    0.5820   -0.9900 C   0  0  0  0  0  0  0  0  0  0  0  0
   -1.4690    0.5370   -2.2130 C   0  0  0  0  0  0  0  0  0  0  0  0
   -0.2320   -0.4510   -2.0590 C   0  0  2  0  0  0  0  0  0  0  0  0
    0.3270   -0.3100   -3.3530 O   0  0  0  0  0  0  0  0  0  0  0  0
   -0.8050   -1.7730   -1.8590 C   0  0  0  0  0  0  0  0  0  0  0  0
   -0.0310   -2.9460   -1.9890 N   0  0  0  0  0  0  0  0  0  0  0  0
    0.6960    0.1710   -1.1110 C   0  0  0  0  0  0  0  0  0  0  0  0
    1.9980   -0.1310   -1.0410 O   0  0  0  0  0  0  0  0  0  0  0  0
    2.5120   -1.3250   -0.7890 C   0  0  0  0  0  0  0  0  0  0  0  0
    4.0520   -1.1340   -0.6890 C   0  0  2  0  0  0  0  0  0  0  0  0
    4.6350   -2.3710   -0.4230 O   0  0  0  0  0  0  0  0  0  0  0  0
    5.1910   -2.3640    0.8350 C   0  0  0  0  0  0  0  0  0  0  0  0
    5.8010   -3.3020    1.4300 O   0  0  0  0  0  0  0  0  0  0  0  0
    4.9810   -1.0640    1.4450 C   0  0  0  0  0  0  0  0  0  0  0  0
    5.3530   -0.5620    2.6910 C   0  0  0  0  0  0  0  0  0  0  0  0
    5.0170    0.7360    3.0060 C   0  0  0  0  0  0  0  0  0  0  0  0
    4.3240    1.4870    2.0700 C   0  0  0  0  0  0  0  0  0  0  0  0
    3.9540    2.8590    2.3680 C   0  0  0  0  0  0  0  0  0  0  0  0
    4.2750    3.3430    3.4810 O   0  0  0  0  0  0  0  0  0  0  0  0
    3.9660    0.9810    0.8510 C   0  0  0  0  0  0  0  0  0  0  0  0
    4.2990   -0.3270    0.5210 C   0  0  0  0  0  0  0  0  0  0  0  0
   -1.7800    1.1740    0.1970 N   0  0  0  0  0  0  0  0  0  0  0  0
   -2.0830    0.7880    1.5100 C   0  0  2  0  0  0  0  0  0  0  0  0
   -1.9790   -0.7030    1.8090 C   0  0  0  0  0  0  0  0  0  0  0  0
   -3.2450    1.3720    2.2160 C   0  0  0  0  0  0  0  0  0  0  0  0
   -3.1380    2.8950    2.3400 C   0  0  0  0  0  0  0  0  0  0  0  0
  1  2  1  0
  2  3  1  0
  3  4  2  3
  4  5  1  0
  4 25  1  0
  5  6  1  0
  6  7  1  6
  6  8  1  0
  6 10  1  0
  8  9  1  0
 10 11  1  0
 11 12  1  0
 13 12  1  1
 13 14  1  0
 13 24  1  0
 14 15  1  0
 15 16  2  0
 15 17  1  0
 17 18  2  0
 17 24  1  0
 18 19  1  0
 19 20  2  0
 20 21  1  0
 20 23  1  0
 21 22  2  0
 23 24  2  0
 25 26  1  0
 26 27  1  6
 26 28  1  0
 28 29  1  0
M  CHG  2   3   1   9   1
M  END
