
     RDKit          3D

 29 30  0  0  0  0  0  0  0  0999 V2000
   -5.8850   -2.0720   -0.2570 C   0  0  0  0  0  0  0  0  0  0  0  0
   -4.5770   -2.7430    0.0480 C   0  0  0  0  0  0  0  0  0  0  0  0
   -3.5790   -2.6920   -1.0480 C   0  0  1  0  0  0  0  0  0  0  0  0
   -4.1550   -3.3420   -2.2210 N   0  0  0  0  0  0  0  0  0  0  0  0
   -2.9520   -1.3940   -1.3670 C   0  0  1  0  0  0  0  0  0  0  0  0
   -3.8300   -0.3320   -1.7650 N   0  0  0  0  0  0  0  0  0  0  0  0
   -1.9410   -0.9170   -0.3890 C   0  0  0  0  0  0  0  0  0  0  0  0
   -2.2210   -0.7030    0.9370 O   0  0  0  0  0  0  0  0  0  0  0  0
   -3.1600    0.1850    1.4750 C   0  0  0  0  0  0  0  0  0  0  0  0
   -2.9300    1.6080    1.1080 C   0  0  0  0  0  0  0  0  0  0  0  0
   -3.8470    2.5010    1.6320 O   0  0  0  0  0  0  0  0  0  0  0  0
   -5.1360    2.2440    1.2290 C   0  0  0  0  0  0  0  0  0  0  0  0
   -0.6750   -0.6690   -0.7750 C   0  0  0  0  0  0  0  0  0  0  0  0
   -0.3850   -0.8790   -2.1060 O   0  0  0  0  0  0  0  0  0  0  0  0
    0.7650   -0.2400   -2.6290 C   0  0  0  0  0  0  0  0  0  0  0  0
    1.8840   -0.1860   -1.6530 C   0  0  0  0  0  0  0  0  0  0  0  0
    1.5590    0.0260   -0.2560 C   0  0  0  0  0  0  0  0  0  0  0  0
    2.5890    0.4910    0.7050 C   0  0  0  0  0  0  0  0  0  0  0  0
    3.8020    0.7100    0.2470 C   0  0  0  0  0  0  0  0  0  0  0  0
    4.8180    1.1730    1.2150 C   0  0  0  0  0  0  0  0  0  0  0  0
    4.4910    1.3300    2.4090 O   0  0  0  0  0  0  0  0  0  0  0  0
    6.1400    1.4320    0.7780 N   0  0  0  0  0  0  0  0  0  0  0  0
    7.2060    1.8790    1.6520 C   0  0  0  0  0  0  0  0  0  0  0  0
    8.3450    2.2180    0.6980 C   0  0  0  0  0  0  0  0  0  0  0  0
    8.1290    1.1290   -0.3570 C   0  0  0  0  0  0  0  0  0  0  0  0
    6.6250    1.2950   -0.5890 C   0  0  0  0  0  0  0  0  0  0  0  0
    0.3240   -0.1970    0.2100 C   0  0  0  0  0  0  0  0  0  0  0  0
   -0.0730   -0.0350    1.4500 O   0  0  0  0  0  0  0  0  0  0  0  0
    0.1260    0.2740    2.7190 C   0  0  0  0  0  0  0  0  0  0  0  0
  1  2  1  0
  2  3  1  0
  3  4  1  6
  3  5  1  0
  5  6  1  1
  5  7  1  0
  7  8  1  0
  7 13  2  3
  8  9  1  0
  9 10  1  0
 10 11  1  0
 11 12  1  0
 13 14  1  0
 13 27  1  0
 14 15  1  0
 15 16  1  0
 16 17  1  0
 17 18  1  0
 17 27  2  0
 18 19  2  3
 19 20  1  0
 20 21  2  0
 20 22  1  0
 22 23  1  0
 22 26  1  0
 23 24  1  0
 24 25  1  0
 25 26  1  0
 27 28  1  0
 28 29  1  0
M  CHG  2   4   1   6   1
M  END
