
     RDKit          3D

 29 30  0  0  0  0  0  0  0  0999 V2000
   -5.3910    1.5790    1.8530 C   0  0  0  0  0  0  0  0  0  0  0  0
   -4.8120    1.3420    0.4720 C   0  0  2  0  0  0  0  0  0  0  0  0
   -5.3490    0.1160   -0.0860 N   0  0  0  0  0  0  0  0  0  0  0  0
   -6.7700    0.2900   -0.2640 C   0  0  1  0  0  0  0  0  0  0  0  0
   -7.0900    0.2370   -1.7370 C   0  0  0  0  0  0  0  0  0  0  0  0
   -8.0470   -0.9220   -1.8710 C   0  0  0  0  0  0  0  0  0  0  0  0
   -7.9190   -1.6850   -0.7340 O   0  0  0  0  0  0  0  0  0  0  0  0
   -7.5240   -0.8670    0.3000 C   0  0  2  0  0  0  0  0  0  0  0  0
   -8.6930   -0.3950    1.1390 C   0  0  0  0  0  0  0  0  0  0  0  0
   -3.3280    1.2410    0.6430 C   0  0  0  0  0  0  0  0  0  0  0  0
   -2.7390    2.2220    1.1120 O   0  0  0  0  0  0  0  0  0  0  0  0
   -2.5940    0.0820    0.2920 N   0  0  0  0  0  0  0  0  0  0  0  0
   -1.1810   -0.0270    0.4500 C   0  0  0  0  0  0  0  0  0  0  0  0
   -0.3960    0.9800   -0.3150 C   0  0  0  0  0  0  0  0  0  0  0  0
    1.0870    0.7940   -0.0930 C   0  0  0  0  0  0  0  0  0  0  0  0
    1.9130    1.5470   -0.6520 O   0  0  0  0  0  0  0  0  0  0  0  0
    1.5160   -0.1680    0.6960 O   0  0  0  0  0  0  0  0  0  0  0  0
    2.6820   -0.6980    1.1760 C   0  0  0  0  0  0  0  0  0  0  0  0
    3.6150   -1.2290    0.1850 C   0  0  1  0  0  0  0  0  0  0  0  0
    2.9250   -2.1910   -0.6460 N   0  0  0  0  0  0  0  0  0  0  0  0
    4.5860   -0.4430   -0.5700 C   0  0  2  0  0  0  0  0  0  0  0  0
    5.2300   -1.5270   -1.4810 C   0  0  0  0  0  0  0  0  0  0  0  0
    5.7590   -2.5060   -0.6910 O   0  0  0  0  0  0  0  0  0  0  0  0
    5.6170    0.3460    0.1270 C   0  0  2  0  0  0  0  0  0  0  0  0
    5.0490    1.3940    1.0680 C   0  0  0  0  0  0  0  0  0  0  0  0
    6.5420    1.1120   -0.7910 C   0  0  0  0  0  0  0  0  0  0  0  0
    7.9440    1.0100   -0.2890 C   0  0  0  0  0  0  0  0  0  0  0  0
    7.7590    0.5940    1.1520 C   0  0  0  0  0  0  0  0  0  0  0  0
    6.6380   -0.4740    0.9300 C   0  0  0  0  0  0  0  0  0  0  0  0
  2  1  1  1
  2  3  1  0
  2 10  1  0
  4  3  1  6
  4  5  1  0
  4  8  1  0
  5  6  1  0
  6  7  1  0
  7  8  1  0
  8  9  1  6
 10 11  2  0
 10 12  1  0
 12 13  1  0
 13 14  1  0
 14 15  1  0
 15 16  2  0
 15 17  1  0
 17 18  1  0
 18 19  1  0
 19 20  1  6
 19 21  1  0
 21 22  1  6
 21 24  1  0
 22 23  1  0
 24 25  1  1
 24 26  1  0
 24 29  1  0
 26 27  1  0
 27 28  1  0
 28 29  1  0
M  CHG  2   3   1  20   1
M  END
