
     RDKit          3D

 31 34  0  0  0  0  0  0  0  0999 V2000
   -1.2870   -4.7010   -0.7780 C   0  0  0  0  0  0  0  0  0  0  0  0
   -1.1280   -3.3740   -0.3570 O   0  0  0  0  0  0  0  0  0  0  0  0
    0.0980   -2.7520   -0.2570 C   0  0  0  0  0  0  0  0  0  0  0  0
    1.2420   -3.4380   -0.5770 C   0  0  0  0  0  0  0  0  0  0  0  0
    2.4700   -2.7940   -0.4690 C   0  0  0  0  0  0  0  0  0  0  0  0
    3.5910   -3.4680   -0.7820 N   0  0  0  0  0  0  0  0  0  0  0  0
    4.7810   -2.8800   -0.6880 C   0  0  0  0  0  0  0  0  0  0  0  0
    4.8200   -1.6230   -0.2800 N   0  0  0  0  0  0  0  0  0  0  0  0
    3.7630   -0.8660    0.0540 C   0  0  0  0  0  0  0  0  0  0  0  0
    3.8820    0.4670    0.4540 N   0  0  0  0  0  0  0  0  0  0  0  0
    5.1270    1.1450    0.6000 C   0  0  0  0  0  0  0  0  0  0  0  0
    6.3400    0.5310    0.7240 C   0  0  0  0  0  0  0  0  0  0  0  0
    7.5120    1.2800    0.8410 C   0  0  0  0  0  0  0  0  0  0  0  0
    7.5160    2.6540    0.8390 C   0  0  0  0  0  0  0  0  0  0  0  0
    8.6640    3.3470    0.9540 F   0  0  0  0  0  0  0  0  0  0  0  0
    6.2970    3.2710    0.7150 C   0  0  0  0  0  0  0  0  0  0  0  0
    6.2510    5.0210    0.7090 Cl  0  0  0  0  0  0  0  0  0  0  0  0
    5.1400    2.5500    0.6000 C   0  0  0  0  0  0  0  0  0  0  0  0
    2.5190   -1.4730   -0.0420 C   0  0  0  0  0  0  0  0  0  0  0  0
    1.3660   -0.8010    0.2750 C   0  0  0  0  0  0  0  0  0  0  0  0
    0.1410   -1.4480    0.1660 C   0  0  0  0  0  0  0  0  0  0  0  0
   -1.0130   -0.7660    0.4860 O   0  0  0  0  0  0  0  0  0  0  0  0
   -0.9360    0.5670    0.9150 C   0  0  0  0  0  0  0  0  0  0  0  0
   -2.3390    1.0710    1.1980 C   0  0  0  0  0  0  0  0  0  0  0  0
   -3.1240    0.9700   -0.0690 C   0  0  0  0  0  0  0  0  0  0  0  0
   -4.4880    1.4210    0.0580 N   0  0  2  0  0  0  0  0  0  0  0  0
   -5.3620    0.4680    0.6550 C   0  0  0  0  0  0  0  0  0  0  0  0
   -6.7920    0.5780    0.1660 C   0  0  0  0  0  0  0  0  0  0  0  0
   -7.1130    1.8760   -0.2050 O   0  0  0  0  0  0  0  0  0  0  0  0
   -6.3430    2.3710   -1.2280 C   0  0  0  0  0  0  0  0  0  0  0  0
   -4.9540    1.8190   -1.2800 C   0  0  0  0  0  0  0  0  0  0  0  0
  1  2  1  0
  2  3  1  0
  3  4  2  0
  3 21  1  0
  4  5  1  0
  5  6  2  0
  5 19  1  0
  6  7  1  0
  7  8  2  0
  8  9  1  0
  9 10  1  0
  9 19  2  0
 10 11  1  0
 11 12  2  0
 11 18  1  0
 12 13  1  0
 13 14  2  0
 14 15  1  0
 14 16  1  0
 16 17  1  0
 16 18  2  0
 19 20  1  0
 20 21  2  0
 21 22  1  0
 22 23  1  0
 23 24  1  0
 24 25  1  0
 26 25  1  6
 26 27  1  0
 26 31  1  0
 27 28  1  0
 28 29  1  0
 29 30  1  0
 30 31  1  0
M  CHG  1  26   1
M  END
