
     RDKit          3D

 22 24  0  0  0  0  0  0  0  0999 V2000
    3.9320   -2.5140   -0.7430 N   0  0  0  0  0  0  0  0  0  0  0  0
    3.1060   -1.4550   -0.2650 C   0  0  0  0  0  0  0  0  0  0  0  0
    1.8900   -1.2030   -0.8840 C   0  0  0  0  0  0  0  0  0  0  0  0
    1.0520   -0.1980   -0.4680 C   0  0  0  0  0  0  0  0  0  0  0  0
   -0.2010    0.0300   -1.1400 N   0  0  0  0  0  0  0  0  0  0  0  0
   -1.0740    1.0630   -0.7210 C   0  0  0  0  0  0  0  0  0  0  0  0
   -0.8890    2.3460   -1.2540 C   0  0  0  0  0  0  0  0  0  0  0  0
    0.1660    2.5360   -2.2040 N   0  0  0  0  0  0  0  0  0  0  0  0
   -1.7050    3.3700   -0.8610 C   0  0  0  0  0  0  0  0  0  0  0  0
   -2.6790    3.1610    0.0260 N   0  0  0  0  0  0  0  0  0  0  0  0
   -2.8870    1.9690    0.5500 C   0  0  0  0  0  0  0  0  0  0  0  0
   -2.0830    0.8750    0.1870 C   0  0  0  0  0  0  0  0  0  0  0  0
   -2.3950   -0.4270    0.7860 C   0  0  0  0  0  0  0  0  0  0  0  0
   -3.3120   -0.6400    1.7530 N   0  0  0  0  0  0  0  0  0  0  0  0
   -3.3640   -1.9210    2.1070 C   0  0  0  0  0  0  0  0  0  0  0  0
   -2.4310   -2.5640    1.3260 C   0  0  0  0  0  0  0  0  0  0  0  0
   -1.8660   -1.6050    0.5360 N   0  0  0  0  0  0  0  0  0  0  0  0
    1.4440    0.5780    0.5990 C   0  0  0  0  0  0  0  0  0  0  0  0
    2.6530    0.3350    1.2230 C   0  0  0  0  0  0  0  0  0  0  0  0
    3.1730    1.3220    2.5970 Cl  0  0  0  0  0  0  0  0  0  0  0  0
    3.4910   -0.6760    0.8020 C   0  0  0  0  0  0  0  0  0  0  0  0
    5.0360   -0.9870    1.5980 Cl  0  0  0  0  0  0  0  0  0  0  0  0
  1  2  1  0
  2  3  2  0
  2 21  1  0
  3  4  1  0
  4  5  1  0
  4 18  2  0
  5  6  1  0
  6  7  2  0
  6 12  1  0
  7  8  1  0
  7  9  1  0
  9 10  2  0
 10 11  1  0
 11 12  2  0
 12 13  1  0
 13 14  2  0
 13 17  1  0
 14 15  1  0
 15 16  2  0
 16 17  1  0
 18 19  1  0
 19 20  1  0
 19 21  2  0
 21 22  1  0
M  END
