
     RDKit          3D

 22 24  0  0  0  0  0  0  0  0999 V2000
    5.2140    2.0740    1.4380 N   0  0  0  0  0  0  0  0  0  0  0  0
    4.4500    1.1740    0.6080 C   0  0  0  0  0  0  0  0  0  0  0  0
    5.0820    0.3760   -0.3200 C   0  0  0  0  0  0  0  0  0  0  0  0
    4.4190   -0.5000   -1.1420 C   0  0  0  0  0  0  0  0  0  0  0  0
    3.0590   -0.6020   -1.0510 C   0  0  0  0  0  0  0  0  0  0  0  0
    2.3390   -1.4440   -1.8290 N   0  0  0  0  0  0  0  0  0  0  0  0
    1.0060   -1.5150   -1.7100 C   0  0  0  0  0  0  0  0  0  0  0  0
    0.1640   -2.6330   -2.7590 Cl  0  0  0  0  0  0  0  0  0  0  0  0
    0.2930   -0.7340   -0.7890 C   0  0  0  0  0  0  0  0  0  0  0  0
   -1.1090   -0.8600   -0.7170 N   0  0  0  0  0  0  0  0  0  0  0  0
   -1.9980   -0.1810    0.1230 C   0  0  0  0  0  0  0  0  0  0  0  0
   -1.6320    0.7880    1.0320 C   0  0  0  0  0  0  0  0  0  0  0  0
   -2.5740    1.4430    1.8380 C   0  0  0  0  0  0  0  0  0  0  0  0
   -3.8700    1.1150    1.7180 N   0  0  0  0  0  0  0  0  0  0  0  0
   -4.2810    0.1900    0.8590 C   0  0  0  0  0  0  0  0  0  0  0  0
   -5.6650   -0.1220    0.7680 N   0  0  0  0  0  0  0  0  0  0  0  0
   -3.3500   -0.4570    0.0640 C   0  0  0  0  0  0  0  0  0  0  0  0
   -3.8520   -1.4830   -0.8620 C   0  0  0  0  0  0  0  0  0  0  0  0
   -3.8280   -0.8610   -2.5500 Cl  0  0  0  0  0  0  0  0  0  0  0  0
    1.0510    0.0830   -0.0430 N   0  0  0  0  0  0  0  0  0  0  0  0
    2.3930    0.1810   -0.1340 C   0  0  0  0  0  0  0  0  0  0  0  0
    3.0820    1.0710    0.6980 C   0  0  0  0  0  0  0  0  0  0  0  0
  1  2  1  0
  2  3  2  0
  2 22  1  0
  3  4  1  0
  4  5  2  0
  5  6  1  0
  5 21  1  0
  6  7  2  0
  7  8  1  0
  7  9  1  0
  9 10  1  0
  9 20  2  0
 10 11  1  0
 11 12  2  0
 11 17  1  0
 12 13  1  0
 13 14  2  0
 14 15  1  0
 15 16  1  0
 15 17  2  0
 17 18  1  0
 18 19  1  0
 20 21  1  0
 21 22  2  0
M  END
