
     RDKit          3D

 22 24  0  0  0  0  0  0  0  0999 V2000
   -4.3950    1.7950   -1.6370 N   0  0  0  0  0  0  0  0  0  0  0  0
   -3.2600    1.2750   -1.3860 C   0  0  0  0  0  0  0  0  0  0  0  0
   -2.1810    1.4580   -2.2500 N   0  0  0  0  0  0  0  0  0  0  0  0
   -3.1660    0.4820   -0.1430 C   0  0  0  0  0  0  0  0  0  0  0  0
   -4.1910    0.3150    0.6680 C   0  0  0  0  0  0  0  0  0  0  0  0
   -4.0850   -0.4520    1.8620 N   0  0  0  0  0  0  0  0  0  0  0  0
   -2.8550   -1.0690    2.2220 C   0  0  0  0  0  0  0  0  0  0  0  0
   -1.7540   -0.9540    1.4580 C   0  0  0  0  0  0  0  0  0  0  0  0
   -0.4850   -1.6040    1.8500 C   0  0  0  0  0  0  0  0  0  0  0  0
    0.5340   -1.3330    0.8700 N   0  0  0  0  0  0  0  0  0  0  0  0
    0.3640   -0.6230   -0.1900 C   0  0  0  0  0  0  0  0  0  0  0  0
    1.4930   -0.4710   -1.0370 N   0  0  0  0  0  0  0  0  0  0  0  0
    2.7950   -0.1780   -0.5760 C   0  0  0  0  0  0  0  0  0  0  0  0
    3.0190    0.0460    0.7560 C   0  0  0  0  0  0  0  0  0  0  0  0
    4.2980    0.3500    1.2490 C   0  0  0  0  0  0  0  0  0  0  0  0
    4.5810    0.6360    2.9530 Cl  0  0  0  0  0  0  0  0  0  0  0  0
    5.3700    0.4310    0.3940 C   0  0  0  0  0  0  0  0  0  0  0  0
    5.1170    0.2020   -0.9390 C   0  0  0  0  0  0  0  0  0  0  0  0
    3.8770   -0.0950   -1.4330 C   0  0  0  0  0  0  0  0  0  0  0  0
    3.5930   -0.3810   -3.1370 Cl  0  0  0  0  0  0  0  0  0  0  0  0
   -0.8990   -0.0090   -0.5280 N   0  0  0  0  0  0  0  0  0  0  0  0
   -1.8980   -0.1620    0.2420 C   0  0  0  0  0  0  0  0  0  0  0  0
  1  2  2  0
  2  3  1  0
  2  4  1  0
  4  5  2  0
  4 22  1  0
  5  6  1  0
  6  7  1  0
  7  8  2  0
  8  9  1  0
  8 22  1  0
  9 10  1  0
 10 11  2  0
 11 12  1  0
 11 21  1  0
 12 13  1  0
 13 14  2  0
 13 19  1  0
 14 15  1  0
 15 16  1  0
 15 17  2  0
 17 18  1  0
 18 19  2  0
 19 20  1  0
 21 22  2  0
M  END
