
     RDKit          3D

 22 24  0  0  0  0  0  0  0  0999 V2000
   -6.1600    1.3780   -0.6190 C   0  0  0  0  0  0  0  0  0  0  0  0
   -5.3240    0.4390   -1.0240 C   0  0  0  0  0  0  0  0  0  0  0  0
   -4.8140   -0.6380   -0.1080 C   0  0  0  0  0  0  0  0  0  0  0  0
   -3.3460   -0.5160   -0.0640 C   0  0  0  0  0  0  0  0  0  0  0  0
   -2.5870   -1.3750   -0.7390 N   0  0  0  0  0  0  0  0  0  0  0  0
   -1.2250   -1.2780   -0.7110 C   0  0  0  0  0  0  0  0  0  0  0  0
   -0.5890   -0.2940    0.0110 C   0  0  0  0  0  0  0  0  0  0  0  0
    0.8720   -0.1820    0.0470 C   0  0  0  0  0  0  0  0  0  0  0  0
    1.7990   -0.9810   -0.5880 C   0  0  0  0  0  0  0  0  0  0  0  0
    3.0290   -0.5300   -0.2890 N   0  0  0  0  0  0  0  0  0  0  0  0
    4.3640   -0.6860   -0.4520 C   0  0  0  0  0  0  0  0  0  0  0  0
    4.9560   -1.7110   -1.2460 N   0  0  0  0  0  0  0  0  0  0  0  0
    5.0630    0.2740    0.2490 C   0  0  0  0  0  0  0  0  0  0  0  0
    6.5500    0.4070    0.3000 C   0  0  2  0  0  0  0  0  0  0  0  0
    7.1320    0.7120   -1.3720 Cl  0  0  0  0  0  0  0  0  0  0  0  0
    7.2140   -1.1410    0.8400 Cl  0  0  0  0  0  0  0  0  0  0  0  0
    4.1320    1.0280    0.8510 N   0  0  0  0  0  0  0  0  0  0  0  0
    2.9150    0.5510    0.5320 C   0  0  0  0  0  0  0  0  0  0  0  0
    1.5960    0.7340    0.7140 N   0  0  0  0  0  0  0  0  0  0  0  0
   -1.3850    0.5890    0.7060 C   0  0  0  0  0  0  0  0  0  0  0  0
   -2.7750    0.4830    0.6730 C   0  0  0  0  0  0  0  0  0  0  0  0
   -3.6010    1.3970    1.3910 N   0  0  0  0  0  0  0  0  0  0  0  0
  1  2  2  0
  2  3  1  0
  3  4  1  0
  4  5  2  0
  4 21  1  0
  5  6  1  0
  6  7  2  0
  7  8  1  0
  7 20  1  0
  8  9  2  0
  8 19  1  0
  9 10  1  0
 10 11  1  0
 10 18  1  0
 11 12  1  0
 11 13  2  0
 13 14  1  0
 13 17  1  0
 14 15  1  6
 14 16  1  0
 17 18  2  0
 18 19  1  0
 20 21  2  0
 21 22  1  0
M  END
