
     RDKit          3D

 25 28  0  0  0  0  0  0  0  0999 V2000
   -3.0910   -1.9610   -0.9750 C   0  0  0  0  0  0  0  0  0  0  0  0
   -3.0190   -0.8140   -1.8800 C   0  0  0  0  0  0  0  0  0  0  0  0
   -2.0440    0.1010   -1.9680 C   0  0  0  0  0  0  0  0  0  0  0  0
   -2.1300    1.2010   -2.9340 N   0  0  0  0  0  0  0  0  0  0  0  0
   -1.2020    2.1810   -2.4730 C   0  0  0  0  0  0  0  0  0  0  0  0
   -0.8440    3.5270   -2.6850 C   0  0  0  0  0  0  0  0  0  0  0  0
    0.0070    3.8730   -1.6650 C   0  0  0  0  0  0  0  0  0  0  0  0
    0.1850    2.7650   -0.8290 C   0  0  0  0  0  0  0  0  0  0  0  0
    1.0280    2.7890    0.3710 C   0  0  0  0  0  0  0  0  0  0  0  0
   -0.5700    1.7790   -1.3820 N   0  0  0  0  0  0  0  0  0  0  0  0
   -0.7990    0.3550   -1.2740 C   0  0  1  0  0  0  0  0  0  0  0  0
   -0.4610   -0.2910   -0.0890 N   0  0  0  0  0  0  0  0  0  0  0  0
   -0.0050   -1.6340   -0.0240 C   0  0  0  0  0  0  0  0  0  0  0  0
    0.1970   -2.3730   -1.1970 C   0  0  0  0  0  0  0  0  0  0  0  0
    0.6080   -3.6940   -1.0970 C   0  0  0  0  0  0  0  0  0  0  0  0
    0.8180   -4.2820    0.1190 C   0  0  0  0  0  0  0  0  0  0  0  0
    0.6280   -3.5740    1.2980 C   0  0  0  0  0  0  0  0  0  0  0  0
    0.2190   -2.2580    1.1970 C   0  0  0  0  0  0  0  0  0  0  0  0
    0.0220   -1.5320    2.3560 O   0  0  0  0  0  0  0  0  0  0  0  0
    0.9010   -0.4980    2.6340 C   0  0  0  0  0  0  0  0  0  0  0  0
    2.0550   -0.2930    1.8950 C   0  0  0  0  0  0  0  0  0  0  0  0
    2.9450    0.7340    2.1660 C   0  0  0  0  0  0  0  0  0  0  0  0
    2.6670    1.5820    3.2080 C   0  0  0  0  0  0  0  0  0  0  0  0
    1.5350    1.4050    3.9540 C   0  0  0  0  0  0  0  0  0  0  0  0
    0.6460    0.3670    3.6740 C   0  0  0  0  0  0  0  0  0  0  0  0
  1  2  1  0
  2  3  2  3
  3  4  1  0
  3 11  1  0
  4  5  1  0
  5  6  2  0
  5 10  1  0
  6  7  1  0
  7  8  2  0
  8  9  1  0
  8 10  1  0
 10 11  1  0
 11 12  1  1
 12 13  1  0
 13 14  2  0
 13 18  1  0
 14 15  1  0
 15 16  2  0
 16 17  1  0
 17 18  2  0
 18 19  1  0
 19 20  1  0
 20 21  2  0
 20 25  1  0
 21 22  1  0
 22 23  2  0
 23 24  1  0
 24 25  2  0
M  END
