
     RDKit          3D

 25 28  0  0  0  0  0  0  0  0999 V2000
    7.3170    0.9160   -0.4460 C   0  0  0  0  0  0  0  0  0  0  0  0
    6.3080   -0.0280    0.0710 C   0  0  0  0  0  0  0  0  0  0  0  0
    6.4720   -1.1830    0.7160 N   0  0  0  0  0  0  0  0  0  0  0  0
    5.3290   -1.7370    1.0150 N   0  0  0  0  0  0  0  0  0  0  0  0
    4.3070   -0.9480    0.5680 C   0  0  0  0  0  0  0  0  0  0  0  0
    2.9340   -1.3070    0.7570 C   0  0  0  0  0  0  0  0  0  0  0  0
    2.6320   -2.3990    1.3580 O   0  0  0  0  0  0  0  0  0  0  0  0
    1.7980   -0.5600    0.3380 N   0  0  0  0  0  0  0  0  0  0  0  0
    0.4670   -1.0290    0.5880 C   0  0  0  0  0  0  0  0  0  0  0  0
   -0.5930   -0.1290    0.0790 C   0  0  0  0  0  0  0  0  0  0  0  0
   -0.3820    1.0420   -0.6010 C   0  0  0  0  0  0  0  0  0  0  0  0
   -1.4230    1.8260   -1.0580 C   0  0  0  0  0  0  0  0  0  0  0  0
   -2.7550    1.4710   -0.8540 C   0  0  0  0  0  0  0  0  0  0  0  0
   -3.8290    2.3700   -1.3770 C   0  0  0  0  0  0  0  0  0  0  0  0
   -2.9850    0.3050   -0.1770 C   0  0  0  0  0  0  0  0  0  0  0  0
   -4.3060   -0.1250    0.0750 C   0  0  0  0  0  0  0  0  0  0  0  0
   -4.4740   -1.3110    0.7670 C   0  0  0  0  0  0  0  0  0  0  0  0
   -3.4390   -2.0910    1.2230 C   0  0  0  0  0  0  0  0  0  0  0  0
   -2.1500   -1.6620    0.9720 C   0  0  0  0  0  0  0  0  0  0  0  0
   -1.9350   -0.4850    0.2840 C   0  0  0  0  0  0  0  0  0  0  0  0
   -5.9650   -1.5110    0.8840 C   0  0  0  0  0  0  0  0  0  0  0  0
   -6.5290   -0.3610    0.2120 C   0  0  0  0  0  0  0  0  0  0  0  0
   -5.5600    0.4480   -0.2600 C   0  0  0  0  0  0  0  0  0  0  0  0
    4.9170    0.1220   -0.0230 C   0  0  0  0  0  0  0  0  0  0  0  0
    4.2460    1.2570   -0.6600 C   0  0  0  0  0  0  0  0  0  0  0  0
  1  2  1  0
  2  3  2  0
  2 24  1  0
  3  4  1  0
  4  5  1  0
  5  6  1  0
  5 24  2  0
  6  7  2  0
  6  8  1  0
  8  9  1  0
  9 10  1  0
 10 11  2  0
 10 20  1  0
 11 12  1  0
 12 13  2  0
 13 14  1  0
 13 15  1  0
 15 16  2  0
 15 20  1  0
 16 17  1  0
 16 23  1  0
 17 18  2  0
 17 21  1  0
 18 19  1  0
 19 20  2  0
 21 22  1  0
 22 23  2  0
 24 25  1  0
M  END
