
     RDKit          3D

 24 27  0  0  0  0  0  0  0  0999 V2000
   -6.6110    1.1700    0.0460 C   0  0  0  0  0  0  0  0  0  0  0  0
   -5.2490    0.5770   -0.0070 C   0  0  0  0  0  0  0  0  0  0  0  0
   -5.1170   -0.7580    0.3150 C   0  0  0  0  0  0  0  0  0  0  0  0
   -3.8840   -1.3370    0.2780 C   0  0  0  0  0  0  0  0  0  0  0  0
   -3.7230   -2.7560    0.6180 C   0  0  0  0  0  0  0  0  0  0  0  0
   -2.7450   -0.5880   -0.0850 C   0  0  0  0  0  0  0  0  0  0  0  0
   -2.8480    0.7260   -0.4060 C   0  0  0  0  0  0  0  0  0  0  0  0
   -1.7690    1.5410   -0.7600 N   0  0  0  0  0  0  0  0  0  0  0  0
   -0.3880    1.2610   -0.6190 C   0  0  0  0  0  0  0  0  0  0  0  0
    0.0080    0.0950   -0.0480 N   0  0  0  0  0  0  0  0  0  0  0  0
    1.2670   -0.2730    0.1550 C   0  0  0  0  0  0  0  0  0  0  0  0
    1.8880   -1.3510    0.6880 N   0  0  0  0  0  0  0  0  0  0  0  0
    3.2210   -1.2030    0.6430 C   0  0  0  0  0  0  0  0  0  0  0  0
    3.4440    0.0200    0.0570 C   0  0  0  0  0  0  0  0  0  0  0  0
    2.2290    0.6370   -0.2650 C   0  0  0  0  0  0  0  0  0  0  0  0
    1.8960    1.8230   -0.8450 C   0  0  0  0  0  0  0  0  0  0  0  0
    0.5430    2.1720   -1.0400 C   0  0  0  0  0  0  0  0  0  0  0  0
    0.2600    3.4560   -1.6730 C   0  0  0  0  0  0  0  0  0  0  0  0
   -0.8230    3.9580   -1.9470 O   0  0  0  0  0  0  0  0  0  0  0  0
    4.8260    0.5550   -0.1740 C   0  0  0  0  0  0  0  0  0  0  0  0
    5.6620   -0.6850   -0.5270 C   0  0  0  0  0  0  0  0  0  0  0  0
    5.6810   -1.5300    0.7040 C   0  0  0  0  0  0  0  0  0  0  0  0
    4.3500   -2.0670    1.0830 C   0  0  0  0  0  0  0  0  0  0  0  0
   -4.1350    1.2750   -0.3530 C   0  0  0  0  0  0  0  0  0  0  0  0
  1  2  1  0
  2  3  2  0
  2 24  1  0
  3  4  1  0
  4  5  1  0
  4  6  2  0
  6  7  1  0
  7  8  1  0
  7 24  2  0
  8  9  1  0
  9 10  2  0
  9 17  1  0
 10 11  1  0
 11 12  1  0
 11 15  2  0
 12 13  1  0
 13 14  2  0
 13 23  1  0
 14 15  1  0
 14 20  1  0
 15 16  1  0
 16 17  2  0
 17 18  1  0
 18 19  2  0
 20 21  1  0
 21 22  1  0
 22 23  1  0
M  END
