
     RDKit          3D

 25 28  0  0  0  0  0  0  0  0999 V2000
    8.2510    1.3370    0.7640 C   0  0  0  0  0  0  0  0  0  0  0  0
    6.8570    0.8760    0.6110 C   0  0  0  0  0  0  0  0  0  0  0  0
    6.4210   -0.4190    0.5340 C   0  0  0  0  0  0  0  0  0  0  0  0
    5.0340   -0.3560    0.3960 C   0  0  0  0  0  0  0  0  0  0  0  0
    4.0470   -1.3090    0.2720 C   0  0  0  0  0  0  0  0  0  0  0  0
    2.7170   -0.9690    0.1460 C   0  0  0  0  0  0  0  0  0  0  0  0
    1.7100   -1.9000    0.0210 C   0  0  0  0  0  0  0  0  0  0  0  0
    0.3690   -1.5690   -0.1060 C   0  0  0  0  0  0  0  0  0  0  0  0
   -0.0030   -0.2540   -0.1100 C   0  0  0  0  0  0  0  0  0  0  0  0
   -1.3410    0.2100   -0.2220 N   0  0  0  0  0  0  0  0  0  0  0  0
   -2.5120   -0.5540   -0.2130 C   0  0  0  0  0  0  0  0  0  0  0  0
   -2.4440   -1.7940   -0.0930 O   0  0  0  0  0  0  0  0  0  0  0  0
   -3.8590    0.0580   -0.3420 C   0  0  0  0  0  0  0  0  0  0  0  0
   -4.9070   -0.7300   -0.3250 C   0  0  0  0  0  0  0  0  0  0  0  0
   -6.2550   -0.2030   -0.4460 C   0  0  0  0  0  0  0  0  0  0  0  0
   -7.3430   -1.0900   -0.4210 C   0  0  0  0  0  0  0  0  0  0  0  0
   -8.5930   -0.5990   -0.5340 C   0  0  0  0  0  0  0  0  0  0  0  0
   -8.8510    0.7160   -0.6710 N   0  0  0  0  0  0  0  0  0  0  0  0
   -7.8510    1.6020   -0.7000 C   0  0  0  0  0  0  0  0  0  0  0  0
   -6.5640    1.1340   -0.5880 C   0  0  0  0  0  0  0  0  0  0  0  0
    0.9940    0.7130    0.0150 C   0  0  0  0  0  0  0  0  0  0  0  0
    2.3140    0.3620    0.1390 C   0  0  0  0  0  0  0  0  0  0  0  0
    3.3240    1.3040    0.2660 C   0  0  0  0  0  0  0  0  0  0  0  0
    4.6540    0.9670    0.3910 C   0  0  0  0  0  0  0  0  0  0  0  0
    5.7780    1.6710    0.5230 N   0  0  0  0  0  0  0  0  0  0  0  0
  1  2  1  0
  2  3  2  0
  2 25  1  0
  3  4  1  0
  4  5  2  0
  4 24  1  0
  5  6  1  0
  6  7  2  0
  6 22  1  0
  7  8  1  0
  8  9  2  0
  9 10  1  0
  9 21  1  0
 10 11  1  0
 11 12  2  0
 11 13  1  0
 13 14  2  3
 14 15  1  0
 15 16  2  0
 15 20  1  0
 16 17  1  0
 17 18  2  0
 18 19  1  0
 19 20  2  0
 21 22  2  0
 22 23  1  0
 23 24  2  0
 24 25  1  0
M  END
