
     RDKit          3D

 14 13  0  0  0  0  0  0  0  0999 V2000
   -3.9760    1.8230   -0.8110 C   0  0  0  0  0  0  0  0  0  0  0  0
   -4.6670    0.6080   -0.2240 C   0  0  0  0  0  0  0  0  0  0  0  0
   -3.6760   -0.5360   -0.2700 C   0  0  0  0  0  0  0  0  0  0  0  0
   -2.4790   -0.1040    0.5620 C   0  0  0  0  0  0  0  0  0  0  0  0
   -1.4090   -1.2020    0.5800 C   0  0  0  0  0  0  0  0  0  0  0  0
   -0.2810   -0.6640    1.4280 C   0  0  0  0  0  0  0  0  0  0  0  0
    0.8470   -1.6410    1.5390 C   0  0  0  0  0  0  0  0  0  0  0  0
    1.4380   -1.9860    0.2110 C   0  0  0  0  0  0  0  0  0  0  0  0
    2.0010   -0.8120   -0.5380 C   0  0  0  0  0  0  0  0  0  0  0  0
    3.1160   -0.1310    0.2590 C   0  0  0  0  0  0  0  0  0  0  0  0
    3.6120    1.0280   -0.5730 C   0  0  0  0  0  0  0  0  0  0  0  0
    4.7020    1.7690    0.1010 C   0  0  0  0  0  0  0  0  0  0  0  0
    5.0880    1.3900    1.2300 O   0  0  0  0  0  0  0  0  0  0  0  0
    5.2660    2.8580   -0.5290 O   0  0  0  0  0  0  0  0  0  0  0  0
  1  2  1  0
  2  3  1  0
  3  4  1  0
  4  5  1  0
  5  6  1  0
  6  7  1  0
  7  8  1  0
  8  9  1  0
  9 10  1  0
 10 11  1  0
 11 12  1  0
 12 13  2  0
 12 14  1  0
M  END
