
     RDKit          3D

 27 27  0  0  0  0  0  0  0  0999 V2000
    4.9400   -3.1640    0.5740 O   0  0  0  0  0  0  0  0  0  0  0  0
    3.9130   -2.3660    0.4550 C   0  0  0  0  0  0  0  0  0  0  0  0
    4.2720   -1.0180    0.5300 N   0  0  0  0  0  0  0  0  0  0  0  0
    3.7380    0.0210    1.3960 C   0  0  0  0  0  0  0  0  0  0  0  0
    3.5610    1.3390    0.6810 C   0  0  0  0  0  0  0  0  0  0  0  0
    4.0620    1.3390   -0.6120 O   0  0  0  0  0  0  0  0  0  0  0  0
    3.1070    1.6810   -1.5690 C   0  0  0  0  0  0  0  0  0  0  0  0
    3.0480    0.5560   -2.5180 C   0  0  0  0  0  0  0  0  0  0  0  0
    1.7250    0.1030   -2.9470 C   0  0  0  0  0  0  0  0  0  0  0  0
    1.0240    0.7130   -3.8070 O   0  0  0  0  0  0  0  0  0  0  0  0
    1.2370   -1.0550   -2.3690 O   0  0  0  0  0  0  0  0  0  0  0  0
    1.0870   -1.2470   -0.9500 C   0  0  1  0  0  0  0  0  0  0  0  0
   -0.3430   -1.1880   -0.7840 O   0  0  0  0  0  0  0  0  0  0  0  0
   -0.8380   -0.1910    0.0330 C   0  0  0  0  0  0  0  0  0  0  0  0
   -0.0520    0.6150    0.5950 O   0  0  0  0  0  0  0  0  0  0  0  0
   -2.1910   -0.0120    0.2870 O   0  0  0  0  0  0  0  0  0  0  0  0
   -2.6330    1.0440    1.1460 C   0  0  0  0  0  0  0  0  0  0  0  0
   -4.0870    1.0650    1.2850 C   0  0  0  0  0  0  0  0  0  0  0  0
   -4.6400    1.9290    2.0060 O   0  0  0  0  0  0  0  0  0  0  0  0
   -4.8920    0.1460    0.6350 O   0  0  0  0  0  0  0  0  0  0  0  0
   -6.3030    0.1260    0.7380 C   0  0  0  0  0  0  0  0  0  0  0  0
   -6.7060   -0.0590    2.0620 O   0  0  0  0  0  0  0  0  0  0  0  0
   -7.9960   -0.0800    2.1780 O   0  0  0  0  0  0  0  0  0  0  0  0
   -8.6010    0.9770    1.7200 O   0  0  0  0  0  0  0  0  0  0  0  0
    1.5660   -2.6120   -0.5660 C   0  0  0  0  0  0  0  0  0  0  0  0
    0.8090   -3.4750   -1.1570 O   0  0  0  0  0  0  0  0  0  0  0  0
    2.6300   -2.9430    0.2730 N   0  0  0  0  0  0  0  0  0  0  0  0
  1  2  2  0
  2  3  1  0
  2 27  1  0
  3  4  1  0
  4  5  1  0
  5  6  1  0
  6  7  1  0
  7  8  1  0
  8  9  1  0
  9 10  2  0
  9 11  1  0
 11 12  1  0
 12 13  1  6
 12 25  1  0
 13 14  1  0
 14 15  2  0
 14 16  1  0
 16 17  1  0
 17 18  1  0
 18 19  2  0
 18 20  1  0
 20 21  1  0
 21 22  1  0
 22 23  1  0
 23 24  1  0
 25 26  2  0
 25 27  1  0
M  END
