
     RDKit          3D

 27 27  0  0  0  0  0  0  0  0999 V2000
   -4.0570   -2.1740   -2.8990 O   0  0  0  0  0  0  0  0  0  0  0  0
   -4.0570   -1.1300   -2.1500 C   0  0  0  0  0  0  0  0  0  0  0  0
   -4.8950   -1.0680   -1.0040 N   0  0  0  0  0  0  0  0  0  0  0  0
   -5.6120    0.1130   -0.5710 C   0  0  0  0  0  0  0  0  0  0  0  0
   -5.9470    0.0840    0.8840 C   0  0  0  0  0  0  0  0  0  0  0  0
   -5.2850    1.1250    1.5130 O   0  0  0  0  0  0  0  0  0  0  0  0
   -4.3060    0.7210    2.2930 O   0  0  0  0  0  0  0  0  0  0  0  0
   -3.1080    0.7720    1.5440 C   0  0  0  0  0  0  0  0  0  0  0  0
   -2.5800   -0.6010    1.2870 C   0  0  0  0  0  0  0  0  0  0  0  0
   -2.2710   -0.8880   -0.0170 O   0  0  0  0  0  0  0  0  0  0  0  0
   -1.4720    0.0130   -0.6690 C   0  0  2  0  0  0  0  0  0  0  0  0
   -0.9820    0.9400    0.2090 O   0  0  0  0  0  0  0  0  0  0  0  0
    0.3780    1.0340    0.3150 C   0  0  0  0  0  0  0  0  0  0  0  0
    0.9470   -0.2790    0.7950 C   0  0  0  0  0  0  0  0  0  0  0  0
    2.3640   -0.2430    0.9240 O   0  0  0  0  0  0  0  0  0  0  0  0
    3.2440    0.0010   -0.1000 C   0  0  0  0  0  0  0  0  0  0  0  0
    2.7870    0.2110   -1.2510 O   0  0  0  0  0  0  0  0  0  0  0  0
    4.6300    0.0270    0.0790 O   0  0  0  0  0  0  0  0  0  0  0  0
    5.4470    0.2920   -1.0600 C   0  0  0  0  0  0  0  0  0  0  0  0
    6.8950    0.2810   -0.6830 C   0  0  0  0  0  0  0  0  0  0  0  0
    7.2080    1.2370    0.2780 O   0  0  0  0  0  0  0  0  0  0  0  0
    8.4790    1.1800    0.5650 O   0  0  0  0  0  0  0  0  0  0  0  0
    8.6780    1.0020    1.8490 O   0  0  0  0  0  0  0  0  0  0  0  0
    8.4430   -0.2600    2.1720 O   0  0  0  0  0  0  0  0  0  0  0  0
   -2.3290    0.6570   -1.7330 C   0  0  0  0  0  0  0  0  0  0  0  0
   -2.2440    1.9040   -1.8490 O   0  0  0  0  0  0  0  0  0  0  0  0
   -3.1800   -0.0880   -2.5570 N   0  0  0  0  0  0  0  0  0  0  0  0
  1  2  2  0
  2  3  1  0
  2 27  1  0
  3  4  1  0
  4  5  1  0
  5  6  1  0
  6  7  1  0
  7  8  1  0
  8  9  1  0
  9 10  1  0
 10 11  1  0
 11 12  1  1
 11 25  1  0
 12 13  1  0
 13 14  1  0
 14 15  1  0
 15 16  1  0
 16 17  2  0
 16 18  1  0
 18 19  1  0
 19 20  1  0
 20 21  1  0
 21 22  1  0
 22 23  1  0
 23 24  1  0
 25 26  2  0
 25 27  1  0
M  END
