
     RDKit          3D

 11 10  0  0  0  0  0  0  0  0999 V2000
   -2.9940    0.5440    0.6880 C   0  0  0  0  0  0  0  0  0  0  0  0
   -1.8990    0.0030   -0.1260 N   0  0  2  0  0  0  0  0  0  0  0  0
   -1.9650    0.7000   -1.4000 C   0  0  0  0  0  0  0  0  0  0  0  0
   -2.1620   -1.3930   -0.3070 C   0  0  0  0  0  0  0  0  0  0  0  0
   -0.6810    0.2910    0.5720 C   0  0  0  0  0  0  0  0  0  0  0  0
    0.5560   -0.0770   -0.1990 C   0  0  0  0  0  0  0  0  0  0  0  0
    1.6540    0.2360    0.5490 O   0  0  0  0  0  0  0  0  0  0  0  0
    3.1220   -0.0410   -0.0080 P   0  0  0  0  0  0  0  0  0  0  0  0
    3.7800   -0.2780    1.3540 O   0  0  0  0  0  0  0  0  0  0  0  0
    4.2110    1.2700   -0.2210 O   0  0  0  0  0  0  0  0  0  0  0  0
    3.5980   -1.5230   -0.5610 O   0  0  0  0  0  0  0  0  0  0  0  0
  2  1  1  1
  2  3  1  0
  2  4  1  0
  2  5  1  0
  5  6  1  0
  6  7  1  0
  7  8  1  0
  8  9  1  0
  8 10  1  0
  8 11  1  0
M  CHG  1   2   1
M  END
