
     RDKit          3D

 28 28  0  0  0  0  0  0  0  0999 V2000
    2.7140   -3.7020    0.6270 O   0  0  0  0  0  0  0  0  0  0  0  0
    2.1440   -3.9340   -0.4520 C   0  0  0  0  0  0  0  0  0  0  0  0
    1.5410   -5.1850   -0.6060 O   0  0  0  0  0  0  0  0  0  0  0  0
    2.1380   -2.9670   -1.4180 O   0  0  0  0  0  0  0  0  0  0  0  0
    2.7140   -1.7020   -1.3380 C   0  0  0  0  0  0  0  0  0  0  0  0
    2.1600   -0.8530   -0.2270 C   0  0  2  0  0  0  0  0  0  0  0  0
    0.7980   -0.6100   -0.3160 O   0  0  0  0  0  0  0  0  0  0  0  0
   -0.1540   -0.9760    0.6050 C   0  0  0  0  0  0  0  0  0  0  0  0
    0.2440   -1.5890    1.6280 O   0  0  0  0  0  0  0  0  0  0  0  0
   -1.5410   -0.6980    0.4560 N   0  0  0  0  0  0  0  0  0  0  0  0
   -2.4830   -1.1170    1.4740 C   0  0  0  0  0  0  0  0  0  0  0  0
   -3.3160    0.0740    1.8910 C   0  0  0  0  0  0  0  0  0  0  0  0
   -3.9590    0.7740    0.7480 C   0  0  1  0  0  0  0  0  0  0  0  0
   -4.4240    2.0200    1.2270 O   0  0  0  0  0  0  0  0  0  0  0  0
   -5.7130    2.1360    1.0890 O   0  0  0  0  0  0  0  0  0  0  0  0
   -3.0130    1.0870   -0.3840 C   0  0  2  0  0  0  0  0  0  0  0  0
   -3.8330    1.3710   -1.5820 C   0  0  0  0  0  0  0  0  0  0  0  0
   -3.6890    0.6500   -2.5970 O   0  0  0  0  0  0  0  0  0  0  0  0
   -4.7650    2.4080   -1.6420 O   0  0  0  0  0  0  0  0  0  0  0  0
   -2.0520   -0.0030   -0.6900 C   0  0  0  0  0  0  0  0  0  0  0  0
    2.8840    0.4320   -0.0900 C   0  0  0  0  0  0  0  0  0  0  0  0
    2.2180    1.4940   -0.0750 O   0  0  0  0  0  0  0  0  0  0  0  0
    4.2990    0.5100    0.0240 N   0  0  0  0  0  0  0  0  0  0  0  0
    4.8830    1.7980    0.1500 C   0  0  0  0  0  0  0  0  0  0  0  0
    4.1740    2.8360    0.1600 O   0  0  0  0  0  0  0  0  0  0  0  0
    6.2590    1.9240    0.2640 O   0  0  0  0  0  0  0  0  0  0  0  0
    6.8170    3.1200    0.3820 O   0  0  0  0  0  0  0  0  0  0  0  0
    6.4320    3.8550   -0.6520 O   0  0  0  0  0  0  0  0  0  0  0  0
  1  2  2  0
  2  3  1  0
  2  4  1  0
  4  5  1  0
  6  5  1  6
  6  7  1  0
  6 21  1  0
  7  8  1  0
  8  9  2  0
  8 10  1  0
 10 11  1  0
 10 20  1  0
 11 12  1  0
 12 13  1  0
 13 14  1  1
 13 16  1  0
 14 15  1  0
 16 17  1  6
 16 20  1  0
 17 18  2  0
 17 19  1  0
 21 22  2  0
 21 23  1  0
 23 24  1  0
 24 25  2  0
 24 26  1  0
 26 27  1  0
 27 28  1  0
M  END
