
     RDKit          3D

 27 27  0  0  0  0  0  0  0  0999 V2000
   -6.1630   -2.2640    1.2390 O   0  0  0  0  0  0  0  0  0  0  0  0
   -4.9650   -1.9610    1.0990 C   0  0  0  0  0  0  0  0  0  0  0  0
   -4.2750   -2.4170   -0.0100 O   0  0  0  0  0  0  0  0  0  0  0  0
   -4.3020   -1.1280    2.1080 C   0  0  0  0  0  0  0  0  0  0  0  0
   -2.9230   -0.9220    1.7150 N   0  0  0  0  0  0  0  0  0  0  0  0
   -1.9370   -1.7650    2.1000 O   0  0  0  0  0  0  0  0  0  0  0  0
   -0.9090   -1.6160    1.1790 C   0  0  0  0  0  0  0  0  0  0  0  0
   -0.9020   -0.0780    0.9620 C   0  0  1  0  0  0  0  0  0  0  0  0
   -0.3930    0.6170    2.1580 C   0  0  0  0  0  0  0  0  0  0  0  0
   -0.3550    1.9950    2.1190 O   0  0  0  0  0  0  0  0  0  0  0  0
    0.3650    2.8210    1.3470 C   0  0  0  0  0  0  0  0  0  0  0  0
    1.1600    2.3510    0.5060 O   0  0  0  0  0  0  0  0  0  0  0  0
    0.2760    4.2240    1.4300 O   0  0  0  0  0  0  0  0  0  0  0  0
   -0.2820    0.1480   -0.3290 C   0  0  0  0  0  0  0  0  0  0  0  0
   -0.8790    0.8680   -1.1850 O   0  0  0  0  0  0  0  0  0  0  0  0
    0.9450   -0.3710   -0.7270 O   0  0  0  0  0  0  0  0  0  0  0  0
    1.5130   -0.1280   -1.9910 C   0  0  2  0  0  0  0  0  0  0  0  0
    1.6070   -1.4070   -2.8160 C   0  0  0  0  0  0  0  0  0  0  0  0
    2.1660   -1.1090   -4.0350 O   0  0  0  0  0  0  0  0  0  0  0  0
    2.8590    0.4450   -1.9540 C   0  0  0  0  0  0  0  0  0  0  0  0
    3.4010    0.6960   -3.0730 O   0  0  0  0  0  0  0  0  0  0  0  0
    3.6110    0.7450   -0.8040 N   0  0  0  0  0  0  0  0  0  0  0  0
    4.9180    1.3060   -0.8910 C   0  0  0  0  0  0  0  0  0  0  0  0
    5.4530    1.5560   -2.0190 O   0  0  0  0  0  0  0  0  0  0  0  0
    5.6800    1.6110    0.2210 O   0  0  0  0  0  0  0  0  0  0  0  0
   -2.3990    0.1230    0.9150 C   0  0  0  0  0  0  0  0  0  0  0  0
   -3.0350    1.0200    0.3010 O   0  0  0  0  0  0  0  0  0  0  0  0
  1  2  2  0
  2  3  1  0
  2  4  1  0
  4  5  1  0
  5  6  1  0
  5 26  1  0
  6  7  1  0
  7  8  1  0
  8  9  1  1
  8 14  1  0
  8 26  1  0
  9 10  1  0
 10 11  1  0
 11 12  2  0
 11 13  1  0
 14 15  2  0
 14 16  1  0
 16 17  1  0
 17 18  1  6
 17 20  1  0
 18 19  1  0
 20 21  2  0
 20 22  1  0
 22 23  1  0
 23 24  2  0
 23 25  1  0
 26 27  2  0
M  END
