
     RDKit          3D

 28 28  0  0  0  0  0  0  0  0999 V2000
   -2.7250   -2.7610    0.9530 O   0  0  0  0  0  0  0  0  0  0  0  0
   -2.1870   -2.3310    1.9870 C   0  0  0  0  0  0  0  0  0  0  0  0
   -1.6280   -3.2600    2.8570 O   0  0  0  0  0  0  0  0  0  0  0  0
   -2.1670   -0.9780    2.2270 O   0  0  0  0  0  0  0  0  0  0  0  0
   -2.7060    0.0220    1.4010 C   0  0  0  0  0  0  0  0  0  0  0  0
   -2.0630    0.0280    0.0630 C   0  0  2  0  0  0  0  0  0  0  0  0
   -0.6720    0.2540    0.0970 O   0  0  0  0  0  0  0  0  0  0  0  0
    0.2640   -0.6470   -0.3780 C   0  0  0  0  0  0  0  0  0  0  0  0
   -0.2100   -1.7230   -0.8630 O   0  0  0  0  0  0  0  0  0  0  0  0
    1.6530   -0.4110   -0.3390 N   0  0  0  0  0  0  0  0  0  0  0  0
    2.5500   -1.3880   -0.8480 C   0  0  0  0  0  0  0  0  0  0  0  0
    3.9970   -1.1040   -0.7570 C   0  0  0  0  0  0  0  0  0  0  0  0
    4.4250    0.1170   -0.0400 C   0  0  1  0  0  0  0  0  0  0  0  0
    4.5570    1.2260   -0.8710 O   0  0  0  0  0  0  0  0  0  0  0  0
    5.7370    1.7690   -0.7260 O   0  0  0  0  0  0  0  0  0  0  0  0
    3.3900    0.4950    1.0050 C   0  0  2  0  0  0  0  0  0  0  0  0
    3.2030   -0.6750    1.8910 C   0  0  0  0  0  0  0  0  0  0  0  0
    2.1020   -1.2620    2.0420 O   0  0  0  0  0  0  0  0  0  0  0  0
    4.2950   -1.1590    2.5970 O   0  0  0  0  0  0  0  0  0  0  0  0
    2.1450    0.8240    0.2210 C   0  0  0  0  0  0  0  0  0  0  0  0
   -2.7340    0.9940   -0.8800 C   0  0  0  0  0  0  0  0  0  0  0  0
   -2.0830    1.8510   -1.5050 O   0  0  0  0  0  0  0  0  0  0  0  0
   -4.1410    0.9410   -1.0720 N   0  0  0  0  0  0  0  0  0  0  0  0
   -4.8360    1.8200   -1.9420 C   0  0  0  0  0  0  0  0  0  0  0  0
   -4.2170    2.6880   -2.5790 O   0  0  0  0  0  0  0  0  0  0  0  0
   -6.2090    1.6990   -2.0710 O   0  0  0  0  0  0  0  0  0  0  0  0
   -6.9410    2.4790   -2.8620 O   0  0  0  0  0  0  0  0  0  0  0  0
   -7.0250    3.6850   -2.3830 O   0  0  0  0  0  0  0  0  0  0  0  0
  1  2  2  0
  2  3  1  0
  2  4  1  0
  4  5  1  0
  6  5  1  1
  6  7  1  0
  6 21  1  0
  7  8  1  0
  8  9  2  0
  8 10  1  0
 10 11  1  0
 10 20  1  0
 11 12  1  0
 12 13  1  0
 13 14  1  6
 13 16  1  0
 14 15  1  0
 16 17  1  1
 16 20  1  0
 17 18  2  0
 17 19  1  0
 21 22  2  0
 21 23  1  0
 23 24  1  0
 24 25  2  0
 24 26  1  0
 26 27  1  0
 27 28  1  0
M  END
