
     RDKit          3D

 27 28  0  0  0  0  0  0  0  0999 V2000
    1.8480   -1.2400    2.5120 N   0  0  0  0  0  0  0  0  0  0  0  0
    2.4580   -0.6760    1.3210 C   0  0  1  0  0  0  0  0  0  0  0  0
    3.7390   -1.4010    1.0730 C   0  0  0  0  0  0  0  0  0  0  0  0
    4.4220   -0.9510   -0.0460 O   0  0  0  0  0  0  0  0  0  0  0  0
    5.5270   -1.5590   -0.2820 O   0  0  0  0  0  0  0  0  0  0  0  0
    6.5280   -0.7750   -0.6020 O   0  0  0  0  0  0  0  0  0  0  0  0
    6.0410    0.4550   -0.6480 O   0  0  0  0  0  0  0  0  0  0  0  0
    6.9410    1.3530   -0.9020 O   0  0  0  0  0  0  0  0  0  0  0  0
    1.5460   -0.8200    0.2820 O   0  0  0  0  0  0  0  0  0  0  0  0
    1.0830    0.3810   -0.2060 C   0  0  0  0  0  0  0  0  0  0  0  0
    0.1090    0.0720   -1.3200 C   0  0  1  0  0  0  0  0  0  0  0  0
   -1.0580   -0.6960   -0.7610 C   0  0  0  0  0  0  0  0  0  0  0  0
   -1.6790    0.0880    0.1870 O   0  0  0  0  0  0  0  0  0  0  0  0
   -2.7500   -0.5960    0.7110 C   0  0  0  0  0  0  0  0  0  0  0  0
   -3.4700    0.2340    1.7680 C   0  0  2  0  0  0  0  0  0  0  0  0
   -4.5440   -0.5400    2.2460 O   0  0  0  0  0  0  0  0  0  0  0  0
   -5.7760   -0.4200    1.6530 C   0  0  0  0  0  0  0  0  0  0  0  0
   -6.7640   -1.1320    1.9890 O   0  0  0  0  0  0  0  0  0  0  0  0
   -5.9900    0.5710    0.5790 C   0  0  0  0  0  0  0  0  0  0  0  0
   -5.1530    1.7180    0.7280 O   0  0  0  0  0  0  0  0  0  0  0  0
   -3.8970    1.5400    1.2730 C   0  0  0  0  0  0  0  0  0  0  0  0
   -3.1240    2.5210    1.3370 O   0  0  0  0  0  0  0  0  0  0  0  0
   -0.3070    1.3050   -2.0710 C   0  0  0  0  0  0  0  0  0  0  0  0
    0.9070    1.5890   -2.8500 N   0  0  0  0  0  0  0  0  0  0  0  0
    1.5500    0.3220   -3.0050 C   0  0  0  0  0  0  0  0  0  0  0  0
    2.6130    0.1410   -3.6720 O   0  0  0  0  0  0  0  0  0  0  0  0
    0.8180   -0.6510   -2.3100 O   0  0  0  0  0  0  0  0  0  0  0  0
  2  1  1  1
  2  3  1  0
  2  9  1  0
  3  4  1  0
  4  5  1  0
  5  6  1  0
  6  7  1  0
  7  8  1  0
  9 10  1  0
 11 10  1  1
 11 12  1  0
 11 23  1  0
 11 27  1  0
 12 13  1  0
 13 14  1  0
 15 14  1  6
 15 16  1  0
 15 21  1  0
 16 17  1  0
 17 18  2  0
 17 19  1  0
 19 20  1  0
 20 21  1  0
 21 22  2  0
 23 24  1  0
 24 25  1  0
 25 26  2  0
 25 27  1  0
M  END
