
     RDKit          3D

 27 27  0  0  0  0  0  0  0  0999 V2000
   -1.3090    3.1950   -1.3640 O   0  0  0  0  0  0  0  0  0  0  0  0
   -1.3580    2.1740   -0.6140 C   0  0  0  0  0  0  0  0  0  0  0  0
   -0.3860    1.2100   -0.5390 O   0  0  0  0  0  0  0  0  0  0  0  0
    0.3020    0.7310    0.5000 C   0  0  0  0  0  0  0  0  0  0  0  0
    1.5780    0.0220   -0.0290 C   0  0  1  0  0  0  0  0  0  0  0  0
    2.8360    0.8000    0.0230 C   0  0  0  0  0  0  0  0  0  0  0  0
    2.8950    2.0300   -0.3990 O   0  0  0  0  0  0  0  0  0  0  0  0
    3.9600    0.1270    0.6230 N   0  0  0  0  0  0  0  0  0  0  0  0
    5.1370    0.8090    0.8980 C   0  0  0  0  0  0  0  0  0  0  0  0
    6.0790    1.1950   -0.2220 C   0  0  0  0  0  0  0  0  0  0  0  0
    6.2810    0.0370   -0.9760 O   0  0  0  0  0  0  0  0  0  0  0  0
    7.4590   -0.4690   -0.9650 O   0  0  0  0  0  0  0  0  0  0  0  0
    8.2480   -0.4260    0.0250 O   0  0  0  0  0  0  0  0  0  0  0  0
    1.6990   -1.1870    0.5550 O   0  0  0  0  0  0  0  0  0  0  0  0
    0.6970   -1.9910    0.3810 O   0  0  0  0  0  0  0  0  0  0  0  0
   -0.1200   -1.7630   -0.6370 O   0  0  0  0  0  0  0  0  0  0  0  0
   -1.4110   -2.0670   -0.2740 C   0  0  2  0  0  0  0  0  0  0  0  0
   -1.7530   -3.5550   -0.5890 C   0  0  0  0  0  0  0  0  0  0  0  0
   -0.9970   -4.3730    0.2000 O   0  0  0  0  0  0  0  0  0  0  0  0
   -2.5450   -1.1810   -0.8020 C   0  0  0  0  0  0  0  0  0  0  0  0
   -2.9850   -0.3320    0.3490 N   0  0  0  0  0  0  0  0  0  0  0  0
   -3.4460    1.0660    0.2850 C   0  0  0  0  0  0  0  0  0  0  0  0
   -4.6980    1.1200    0.3460 C   0  0  0  0  0  0  0  0  0  0  0  0
   -6.0830    1.3350    0.4000 C   0  0  0  0  0  0  0  0  0  0  0  0
   -7.3050    1.4500    0.6430 O   0  0  0  0  0  0  0  0  0  0  0  0
   -7.9520    1.9220   -0.4040 O   0  0  0  0  0  0  0  0  0  0  0  0
   -2.4820    2.0030    0.2160 O   0  0  0  0  0  0  0  0  0  0  0  0
  1  2  2  0
  2  3  1  0
  2 27  1  0
  3  4  1  0
  4  5  1  0
  5  6  1  1
  5 14  1  0
  6  7  2  0
  6  8  1  0
  8  9  1  0
  9 10  1  0
 10 11  1  0
 11 12  1  0
 12 13  1  0
 14 15  1  0
 15 16  1  0
 16 17  1  0
 17 18  1  6
 17 20  1  0
 18 19  1  0
 20 21  1  0
 21 22  1  0
 22 23  2  3
 22 27  1  0
 23 24  1  0
 24 25  1  0
 25 26  1  0
M  END
