
     RDKit          3D

 28 28  0  0  0  0  0  0  0  0999 V2000
   -1.6290    4.9700    1.3450 O   0  0  0  0  0  0  0  0  0  0  0  0
   -1.8990    4.0940    2.2390 C   0  0  0  0  0  0  0  0  0  0  0  0
   -2.6870    4.4670    3.3050 O   0  0  0  0  0  0  0  0  0  0  0  0
   -1.3600    2.8310    2.0440 O   0  0  0  0  0  0  0  0  0  0  0  0
   -0.5700    2.5410    0.9460 C   0  0  0  0  0  0  0  0  0  0  0  0
   -0.3690    3.5050    0.1260 O   0  0  0  0  0  0  0  0  0  0  0  0
    0.0340    1.2000    0.6980 C   0  0  2  0  0  0  0  0  0  0  0  0
    0.8430    1.3530   -0.4540 O   0  0  0  0  0  0  0  0  0  0  0  0
    2.1360    1.7790   -0.4790 C   0  0  0  0  0  0  0  0  0  0  0  0
    2.5080    2.6880   -1.2370 O   0  0  0  0  0  0  0  0  0  0  0  0
    3.1260    1.1440    0.4230 C   0  0  0  0  0  0  0  0  0  0  0  0
    3.4720   -0.0500   -0.1570 O   0  0  0  0  0  0  0  0  0  0  0  0
    3.9610   -1.0160    0.6860 C   0  0  0  0  0  0  0  0  0  0  0  0
    4.5540   -2.0940   -0.2050 C   0  0  0  0  0  0  0  0  0  0  0  0
    3.4080   -2.5530   -1.1140 C   0  0  0  0  0  0  0  0  0  0  0  0
    2.6700   -1.4770   -1.5550 O   0  0  0  0  0  0  0  0  0  0  0  0
    1.2890   -1.7130   -1.5470 C   0  0  0  0  0  0  0  0  0  0  0  0
    0.5550   -0.6220   -1.1310 O   0  0  0  0  0  0  0  0  0  0  0  0
   -0.5330   -0.9400   -0.3320 C   0  0  0  0  0  0  0  0  0  0  0  0
   -1.1550    0.2730    0.2810 C   0  0  2  0  0  0  0  0  0  0  0  0
   -1.9070    1.0130   -0.6090 N   0  0  0  0  0  0  0  0  0  0  0  0
   -3.0870    0.7040   -1.1170 N   0  0  0  0  0  0  0  0  0  0  0  0
   -3.9410   -0.3400   -0.6990 C   0  0  0  0  0  0  0  0  0  0  0  0
   -3.5960   -1.0680    0.2290 O   0  0  0  0  0  0  0  0  0  0  0  0
   -5.1770   -0.5770   -1.3100 O   0  0  0  0  0  0  0  0  0  0  0  0
   -6.0180   -1.5340   -0.9580 O   0  0  0  0  0  0  0  0  0  0  0  0
   -5.5220   -2.5360   -0.3160 O   0  0  0  0  0  0  0  0  0  0  0  0
   -6.3930   -3.5330   -0.4490 O   0  0  0  0  0  0  0  0  0  0  0  0
  1  2  2  0
  2  3  1  0
  2  4  1  0
  4  5  1  0
  5  6  2  0
  7  5  1  6
  7  8  1  0
  7 20  1  0
  8  9  1  0
  9 10  2  0
  9 11  1  0
 11 12  1  0
 12 13  1  0
 13 14  1  0
 14 15  1  0
 15 16  1  0
 16 17  1  0
 17 18  1  0
 18 19  1  0
 19 20  1  0
 20 21  1  6
 21 22  1  0
 22 23  1  0
 23 24  2  0
 23 25  1  0
 25 26  1  0
 26 27  1  0
 27 28  1  0
M  END
