
     RDKit          3D

 27 27  0  0  0  0  0  0  0  0999 V2000
   -4.4570   -0.5090    0.6030 O   0  0  0  0  0  0  0  0  0  0  0  0
   -4.3370   -1.7060    0.2890 C   0  0  0  0  0  0  0  0  0  0  0  0
   -5.4360   -2.5350    0.2420 O   0  0  0  0  0  0  0  0  0  0  0  0
   -3.0000   -2.2420   -0.0350 C   0  0  0  0  0  0  0  0  0  0  0  0
   -2.0010   -1.1980    0.0780 N   0  0  0  0  0  0  0  0  0  0  0  0
   -1.2940   -0.8850    1.2110 O   0  0  0  0  0  0  0  0  0  0  0  0
   -1.3140    0.5170    1.2360 C   0  0  0  0  0  0  0  0  0  0  0  0
   -1.0100    0.8790   -0.1920 C   0  0  1  0  0  0  0  0  0  0  0  0
   -1.6820    2.1680   -0.6040 C   0  0  0  0  0  0  0  0  0  0  0  0
   -3.0850    2.0520   -0.4770 O   0  0  0  0  0  0  0  0  0  0  0  0
   -3.8610    3.1530   -0.8160 C   0  0  0  0  0  0  0  0  0  0  0  0
   -3.3060    4.2060   -1.2200 O   0  0  0  0  0  0  0  0  0  0  0  0
   -5.2400    3.1220   -0.7200 O   0  0  0  0  0  0  0  0  0  0  0  0
    0.4490    0.9630   -0.4140 C   0  0  0  0  0  0  0  0  0  0  0  0
    0.9590    2.0530   -0.8030 O   0  0  0  0  0  0  0  0  0  0  0  0
    1.3040   -0.1020   -0.2160 O   0  0  0  0  0  0  0  0  0  0  0  0
    2.6860   -0.0810   -0.4080 C   0  0  2  0  0  0  0  0  0  0  0  0
    3.1140   -1.1290   -1.4270 C   0  0  0  0  0  0  0  0  0  0  0  0
    2.7370   -2.3690   -0.9510 O   0  0  0  0  0  0  0  0  0  0  0  0
    3.4420   -0.3370    0.8450 C   0  0  0  0  0  0  0  0  0  0  0  0
    2.9030   -0.5480    1.9490 O   0  0  0  0  0  0  0  0  0  0  0  0
    4.8690   -0.3330    0.7430 N   0  0  0  0  0  0  0  0  0  0  0  0
    5.6840   -0.5670    1.8790 C   0  0  0  0  0  0  0  0  0  0  0  0
    5.1360   -0.7790    2.9860 O   0  0  0  0  0  0  0  0  0  0  0  0
    7.0610   -0.5610    1.7640 O   0  0  0  0  0  0  0  0  0  0  0  0
   -1.5450   -0.3000   -0.9150 C   0  0  0  0  0  0  0  0  0  0  0  0
   -1.6040   -0.5060   -2.1480 O   0  0  0  0  0  0  0  0  0  0  0  0
  1  2  2  0
  2  3  1  0
  2  4  1  0
  4  5  1  0
  5  6  1  0
  5 26  1  0
  6  7  1  0
  7  8  1  0
  8  9  1  6
  8 14  1  0
  8 26  1  0
  9 10  1  0
 10 11  1  0
 11 12  2  0
 11 13  1  0
 14 15  2  0
 14 16  1  0
 16 17  1  0
 17 18  1  6
 17 20  1  0
 18 19  1  0
 20 21  2  0
 20 22  1  0
 22 23  1  0
 23 24  2  0
 23 25  1  0
 26 27  2  0
M  END
