
     RDKit          3D

 28 28  0  0  0  0  0  0  0  0999 V2000
   -4.7460   -0.8030    2.7230 C   0  0  0  0  0  0  0  0  0  0  0  0
   -4.3970   -0.2130    1.4860 O   0  0  0  0  0  0  0  0  0  0  0  0
   -3.1090    0.1160    1.1270 C   0  0  0  0  0  0  0  0  0  0  0  0
   -2.1770   -0.1130    1.9280 O   0  0  0  0  0  0  0  0  0  0  0  0
   -2.8230    0.7340   -0.1930 C   0  0  1  0  0  0  0  0  0  0  0  0
   -1.9310   -0.1670   -1.0030 C   0  0  0  0  0  0  0  0  0  0  0  0
   -0.6640   -0.3480   -0.3750 O   0  0  0  0  0  0  0  0  0  0  0  0
    0.2790   -1.1710   -1.0230 C   0  0  0  0  0  0  0  0  0  0  0  0
   -0.0780   -1.8440   -2.0580 N   0  0  0  0  0  0  0  0  0  0  0  0
    0.8990   -2.6630   -2.6860 C   0  0  0  0  0  0  0  0  0  0  0  0
    0.6320   -3.3660   -3.7230 O   0  0  0  0  0  0  0  0  0  0  0  0
    2.2190   -2.7330   -2.1830 N   0  0  0  0  0  0  0  0  0  0  0  0
    2.3720   -2.4600   -0.7400 C   0  0  1  0  0  0  0  0  0  0  0  0
    3.6780   -2.5650   -0.3660 O   0  0  0  0  0  0  0  0  0  0  0  0
    1.6630   -1.2130   -0.4570 C   0  0  0  0  0  0  0  0  0  0  0  0
    2.0340   -0.1500    0.2000 C   0  0  0  0  0  0  0  0  0  0  0  0
    3.2640    0.1500    0.8630 C   0  0  0  0  0  0  0  0  0  0  0  0
    4.2190   -0.6260    0.9050 O   0  0  0  0  0  0  0  0  0  0  0  0
    3.4750    1.3800    1.5280 O   0  0  0  0  0  0  0  0  0  0  0  0
    4.6870    1.6410    2.1640 C   0  0  0  0  0  0  0  0  0  0  0  0
    5.5860    0.7900    2.1470 O   0  0  0  0  0  0  0  0  0  0  0  0
    4.9300    2.8360    2.8260 O   0  0  0  0  0  0  0  0  0  0  0  0
    6.0920    3.0900    3.4380 O   0  0  0  0  0  0  0  0  0  0  0  0
   -4.0340    0.8690   -0.8650 O   0  0  0  0  0  0  0  0  0  0  0  0
   -4.3880    2.1240   -1.0200 O   0  0  0  0  0  0  0  0  0  0  0  0
   -3.6050    3.0490   -1.6650 C   0  0  0  0  0  0  0  0  0  0  0  0
   -2.4940    2.7510   -2.1490 O   0  0  0  0  0  0  0  0  0  0  0  0
   -4.0090    4.3870   -1.8160 O   0  0  0  0  0  0  0  0  0  0  0  0
  1  2  1  0
  2  3  1  0
  3  4  2  0
  3  5  1  0
  5  6  1  6
  5 24  1  0
  6  7  1  0
  7  8  1  0
  8  9  2  0
  8 15  1  0
  9 10  1  0
 10 11  2  0
 10 12  1  0
 12 13  1  0
 13 14  1  6
 13 15  1  0
 15 16  2  3
 16 17  1  0
 17 18  2  0
 17 19  1  0
 19 20  1  0
 20 21  2  0
 20 22  1  0
 22 23  1  0
 24 25  1  0
 25 26  1  0
 26 27  2  0
 26 28  1  0
M  END
