
     RDKit          3D

 27 28  0  0  0  0  0  0  0  0999 V2000
    1.8260    0.2880    2.6340 N   0  0  0  0  0  0  0  0  0  0  0  0
    2.4940    0.3420    1.3270 C   0  0  1  0  0  0  0  0  0  0  0  0
    4.0000    0.2880    1.7220 C   0  0  0  0  0  0  0  0  0  0  0  0
    4.7940    0.3300    0.6040 O   0  0  0  0  0  0  0  0  0  0  0  0
    6.0410    0.2820    1.0020 O   0  0  0  0  0  0  0  0  0  0  0  0
    6.7960   -0.3810    0.1510 O   0  0  0  0  0  0  0  0  0  0  0  0
    7.9370    0.2350   -0.0620 O   0  0  0  0  0  0  0  0  0  0  0  0
    7.6740    1.4980   -0.3430 O   0  0  0  0  0  0  0  0  0  0  0  0
    2.1380   -0.6440    0.5550 O   0  0  0  0  0  0  0  0  0  0  0  0
    1.6590   -0.7510   -0.6450 C   0  0  0  0  0  0  0  0  0  0  0  0
    0.2680   -0.1330   -0.8500 C   0  0  1  0  0  0  0  0  0  0  0  0
   -0.6180   -0.7640    0.1620 C   0  0  0  0  0  0  0  0  0  0  0  0
   -1.9330   -0.4330    0.1850 O   0  0  0  0  0  0  0  0  0  0  0  0
   -2.6980   -0.7890   -0.8590 C   0  0  0  0  0  0  0  0  0  0  0  0
   -4.1520   -0.3620   -0.6630 C   0  0  2  0  0  0  0  0  0  0  0  0
   -4.2650    1.0350   -0.5170 O   0  0  0  0  0  0  0  0  0  0  0  0
   -5.4490    1.5260    0.0220 C   0  0  0  0  0  0  0  0  0  0  0  0
   -5.5470    2.7540    0.2670 O   0  0  0  0  0  0  0  0  0  0  0  0
   -6.5850    0.5810    0.2990 C   0  0  0  0  0  0  0  0  0  0  0  0
   -5.9830   -0.5450    0.9520 O   0  0  0  0  0  0  0  0  0  0  0  0
   -4.7250   -0.9830    0.5610 C   0  0  0  0  0  0  0  0  0  0  0  0
   -4.0780   -1.8600    1.1910 O   0  0  0  0  0  0  0  0  0  0  0  0
    0.4050    1.3550   -0.7660 C   0  0  0  0  0  0  0  0  0  0  0  0
   -0.4350    1.8320   -1.8840 N   0  0  0  0  0  0  0  0  0  0  0  0
   -0.2080    0.8410   -2.8810 C   0  0  0  0  0  0  0  0  0  0  0  0
   -0.1050    1.0690   -4.1050 O   0  0  0  0  0  0  0  0  0  0  0  0
   -0.1330   -0.3880   -2.2010 O   0  0  0  0  0  0  0  0  0  0  0  0
  2  1  1  1
  2  3  1  0
  2  9  1  0
  3  4  1  0
  4  5  1  0
  5  6  1  0
  6  7  1  0
  7  8  1  0
  9 10  1  0
 11 10  1  6
 11 12  1  0
 11 23  1  0
 11 27  1  0
 12 13  1  0
 13 14  1  0
 15 14  1  1
 15 16  1  0
 15 21  1  0
 16 17  1  0
 17 18  2  0
 17 19  1  0
 19 20  1  0
 20 21  1  0
 21 22  2  0
 23 24  1  0
 24 25  1  0
 25 26  2  0
 25 27  1  0
M  END
