
     RDKit          3D

 27 27  0  0  0  0  0  0  0  0999 V2000
   -0.4280   -1.9420    2.2770 O   0  0  0  0  0  0  0  0  0  0  0  0
   -1.3130   -1.1080    1.8870 C   0  0  0  0  0  0  0  0  0  0  0  0
   -2.3090   -1.6170    1.0170 N   0  0  0  0  0  0  0  0  0  0  0  0
   -3.7130   -1.1930    1.1050 C   0  0  0  0  0  0  0  0  0  0  0  0
   -4.1960   -1.0140   -0.3070 C   0  0  0  0  0  0  0  0  0  0  0  0
   -3.2330   -0.2130   -0.9600 O   0  0  0  0  0  0  0  0  0  0  0  0
   -3.8280    0.9020   -1.5380 C   0  0  0  0  0  0  0  0  0  0  0  0
   -3.9350    2.0710   -0.6040 C   0  0  0  0  0  0  0  0  0  0  0  0
   -2.7210    2.9290   -0.5990 C   0  0  0  0  0  0  0  0  0  0  0  0
   -2.9220    4.1800   -0.5130 O   0  0  0  0  0  0  0  0  0  0  0  0
   -1.5010    2.3500   -0.6840 O   0  0  0  0  0  0  0  0  0  0  0  0
   -0.7960    1.5330    0.1850 C   0  0  1  0  0  0  0  0  0  0  0  0
    0.5300    2.0730    0.2520 O   0  0  0  0  0  0  0  0  0  0  0  0
    1.6280    1.3760   -0.1640 C   0  0  0  0  0  0  0  0  0  0  0  0
    1.4570    0.2220   -0.6210 O   0  0  0  0  0  0  0  0  0  0  0  0
    2.9290    1.8480   -0.1220 O   0  0  0  0  0  0  0  0  0  0  0  0
    3.9970    1.0740   -0.5670 C   0  0  0  0  0  0  0  0  0  0  0  0
    4.1500   -0.2010    0.1730 C   0  0  0  0  0  0  0  0  0  0  0  0
    3.3340   -0.4490    1.0920 O   0  0  0  0  0  0  0  0  0  0  0  0
    5.1340   -1.1370   -0.0840 O   0  0  0  0  0  0  0  0  0  0  0  0
    5.2870   -2.3470    0.6110 C   0  0  0  0  0  0  0  0  0  0  0  0
    6.3980   -3.0110    0.0540 O   0  0  0  0  0  0  0  0  0  0  0  0
    6.1940   -3.2400   -1.2160 O   0  0  0  0  0  0  0  0  0  0  0  0
    7.0130   -2.5740   -1.9970 O   0  0  0  0  0  0  0  0  0  0  0  0
   -1.3840    1.3820    1.5290 C   0  0  0  0  0  0  0  0  0  0  0  0
   -2.0680    2.3490    1.9820 O   0  0  0  0  0  0  0  0  0  0  0  0
   -1.2330    0.2290    2.3410 N   0  0  0  0  0  0  0  0  0  0  0  0
  1  2  2  0
  2  3  1  0
  2 27  1  0
  3  4  1  0
  4  5  1  0
  5  6  1  0
  6  7  1  0
  7  8  1  0
  8  9  1  0
  9 10  2  0
  9 11  1  0
 11 12  1  0
 12 13  1  1
 12 25  1  0
 13 14  1  0
 14 15  2  0
 14 16  1  0
 16 17  1  0
 17 18  1  0
 18 19  2  0
 18 20  1  0
 20 21  1  0
 21 22  1  0
 22 23  1  0
 23 24  1  0
 25 26  2  0
 25 27  1  0
M  END
