
     RDKit          3D

 27 27  0  0  0  0  0  0  0  0999 V2000
   -5.0240   -2.5530   -0.9210 O   0  0  0  0  0  0  0  0  0  0  0  0
   -4.4050   -1.6600   -0.2410 C   0  0  0  0  0  0  0  0  0  0  0  0
   -4.7140   -0.3160   -0.5540 N   0  0  0  0  0  0  0  0  0  0  0  0
   -4.8440    0.7360    0.4520 C   0  0  0  0  0  0  0  0  0  0  0  0
   -5.2260    2.0170   -0.2520 C   0  0  0  0  0  0  0  0  0  0  0  0
   -4.3580    3.0700    0.0590 O   0  0  0  0  0  0  0  0  0  0  0  0
   -3.2230    2.5030    0.4470 O   0  0  0  0  0  0  0  0  0  0  0  0
   -2.4930    2.2990   -0.7420 C   0  0  0  0  0  0  0  0  0  0  0  0
   -1.4930    1.1940   -0.6150 C   0  0  0  0  0  0  0  0  0  0  0  0
   -1.9850   -0.0610   -0.8690 O   0  0  0  0  0  0  0  0  0  0  0  0
   -1.3280   -1.0440   -0.1120 C   0  0  2  0  0  0  0  0  0  0  0  0
   -0.8260   -2.0440   -0.9230 O   0  0  0  0  0  0  0  0  0  0  0  0
    0.5380   -2.1710   -0.9380 C   0  0  0  0  0  0  0  0  0  0  0  0
    1.1510   -2.4970    0.3900 C   0  0  0  0  0  0  0  0  0  0  0  0
    2.5420   -2.6280    0.3800 O   0  0  0  0  0  0  0  0  0  0  0  0
    3.3940   -1.5990    0.0250 C   0  0  0  0  0  0  0  0  0  0  0  0
    2.9010   -0.5120   -0.2960 O   0  0  0  0  0  0  0  0  0  0  0  0
    4.7520   -1.7350    0.0140 O   0  0  0  0  0  0  0  0  0  0  0  0
    5.7290   -0.8090   -0.3080 C   0  0  0  0  0  0  0  0  0  0  0  0
    5.8050    0.4090    0.5600 C   0  0  0  0  0  0  0  0  0  0  0  0
    4.6540    1.1410    0.5540 O   0  0  0  0  0  0  0  0  0  0  0  0
    4.7710    2.1920    1.3250 O   0  0  0  0  0  0  0  0  0  0  0  0
    6.0200    2.6230    1.3370 O   0  0  0  0  0  0  0  0  0  0  0  0
    6.2900    3.3280    0.2550 O   0  0  0  0  0  0  0  0  0  0  0  0
   -2.1980   -1.5590    0.9630 C   0  0  0  0  0  0  0  0  0  0  0  0
   -1.7730   -1.5280    2.1450 O   0  0  0  0  0  0  0  0  0  0  0  0
   -3.4960   -2.0920    0.7310 N   0  0  0  0  0  0  0  0  0  0  0  0
  1  2  2  0
  2  3  1  0
  2 27  1  0
  3  4  1  0
  4  5  1  0
  5  6  1  0
  6  7  1  0
  7  8  1  0
  8  9  1  0
  9 10  1  0
 10 11  1  0
 11 12  1  6
 11 25  1  0
 12 13  1  0
 13 14  1  0
 14 15  1  0
 15 16  1  0
 16 17  2  0
 16 18  1  0
 18 19  1  0
 19 20  1  0
 20 21  1  0
 21 22  1  0
 22 23  1  0
 23 24  1  0
 25 26  2  0
 25 27  1  0
M  END
