
     RDKit          3D

 27 27  0  0  0  0  0  0  0  0999 V2000
   -0.8210   -0.2460   -3.8930 O   0  0  0  0  0  0  0  0  0  0  0  0
   -0.7970    0.0790   -2.6780 C   0  0  0  0  0  0  0  0  0  0  0  0
    0.1610   -0.5300   -1.8970 O   0  0  0  0  0  0  0  0  0  0  0  0
    0.7020    0.0250   -0.7060 C   0  0  0  0  0  0  0  0  0  0  0  0
    1.3200   -1.0150    0.1780 C   0  0  1  0  0  0  0  0  0  0  0  0
    2.7340   -0.6550    0.4500 C   0  0  0  0  0  0  0  0  0  0  0  0
    3.1150   -0.6200    1.6420 O   0  0  0  0  0  0  0  0  0  0  0  0
    3.5620   -0.3730   -0.6640 N   0  0  0  0  0  0  0  0  0  0  0  0
    4.9430   -0.0130   -0.4620 C   0  0  0  0  0  0  0  0  0  0  0  0
    5.0310    1.2430    0.3330 C   0  0  0  0  0  0  0  0  0  0  0  0
    6.3740    1.5840    0.5210 O   0  0  0  0  0  0  0  0  0  0  0  0
    6.3880    2.6940    1.2250 O   0  0  0  0  0  0  0  0  0  0  0  0
    7.5600    2.7970    1.8070 O   0  0  0  0  0  0  0  0  0  0  0  0
    0.6510   -1.2570    1.3400 O   0  0  0  0  0  0  0  0  0  0  0  0
   -0.4740   -1.9080    1.2060 O   0  0  0  0  0  0  0  0  0  0  0  0
   -1.1360   -1.5610    0.1280 O   0  0  0  0  0  0  0  0  0  0  0  0
   -2.4800   -1.9150    0.1830 C   0  0  2  0  0  0  0  0  0  0  0  0
   -2.5320   -3.4290    0.2100 C   0  0  0  0  0  0  0  0  0  0  0  0
   -1.8550   -3.9230    1.3250 O   0  0  0  0  0  0  0  0  0  0  0  0
   -3.1340   -1.4580   -1.0910 C   0  0  0  0  0  0  0  0  0  0  0  0
   -3.5890   -0.1140   -1.0860 N   0  0  0  0  0  0  0  0  0  0  0  0
   -2.6810    0.9670   -1.2770 C   0  0  0  0  0  0  0  0  0  0  0  0
   -2.8680    2.0530   -0.5020 C   0  0  0  0  0  0  0  0  0  0  0  0
   -3.9270    2.1870    0.5050 C   0  0  0  0  0  0  0  0  0  0  0  0
   -4.7120    3.2930    0.1320 O   0  0  0  0  0  0  0  0  0  0  0  0
   -5.6920    3.4700    1.0050 O   0  0  0  0  0  0  0  0  0  0  0  0
   -1.6610    0.9740   -2.1710 O   0  0  0  0  0  0  0  0  0  0  0  0
  1  2  2  0
  2  3  1  0
  2 27  1  0
  3  4  1  0
  4  5  1  0
  5  6  1  1
  5 14  1  0
  6  7  2  0
  6  8  1  0
  8  9  1  0
  9 10  1  0
 10 11  1  0
 11 12  1  0
 12 13  1  0
 14 15  1  0
 15 16  1  0
 16 17  1  0
 17 18  1  6
 17 20  1  0
 18 19  1  0
 20 21  1  0
 21 22  1  0
 22 23  2  3
 22 27  1  0
 23 24  1  0
 24 25  1  0
 25 26  1  0
M  END
