
     RDKit          3D

 28 28  0  0  0  0  0  0  0  0999 V2000
   -4.9170   -1.7350    0.8210 O   0  0  0  0  0  0  0  0  0  0  0  0
   -4.5930   -2.9260    0.9040 C   0  0  0  0  0  0  0  0  0  0  0  0
   -5.5870   -3.9030    0.7780 O   0  0  0  0  0  0  0  0  0  0  0  0
   -3.3110   -3.3190    1.1130 O   0  0  0  0  0  0  0  0  0  0  0  0
   -2.1830   -2.5370    1.2400 C   0  0  0  0  0  0  0  0  0  0  0  0
   -1.6030   -1.8860    0.0350 C   0  0  2  0  0  0  0  0  0  0  0  0
   -0.4930   -1.0450    0.4790 O   0  0  0  0  0  0  0  0  0  0  0  0
    0.7960   -1.3340    0.1270 C   0  0  0  0  0  0  0  0  0  0  0  0
    1.0290   -2.3390   -0.5890 O   0  0  0  0  0  0  0  0  0  0  0  0
    1.8300   -0.4700    0.5950 N   0  0  0  0  0  0  0  0  0  0  0  0
    1.6060    0.6750    1.4060 C   0  0  0  0  0  0  0  0  0  0  0  0
    2.4620    1.8550    1.0970 C   0  0  0  0  0  0  0  0  0  0  0  0
    3.7690    1.5310    0.4430 C   0  0  1  0  0  0  0  0  0  0  0  0
    4.6800    1.1660    1.4290 O   0  0  0  0  0  0  0  0  0  0  0  0
    5.7230    1.9630    1.4550 O   0  0  0  0  0  0  0  0  0  0  0  0
    3.6920    0.4160   -0.5540 C   0  0  2  0  0  0  0  0  0  0  0  0
    2.8040    0.7260   -1.6990 C   0  0  0  0  0  0  0  0  0  0  0  0
    3.2090    0.7530   -2.8920 O   0  0  0  0  0  0  0  0  0  0  0  0
    1.4750    0.9990   -1.4680 O   0  0  0  0  0  0  0  0  0  0  0  0
    3.1900   -0.7980    0.2080 C   0  0  0  0  0  0  0  0  0  0  0  0
   -2.4340   -1.0690   -0.8230 C   0  0  0  0  0  0  0  0  0  0  0  0
   -3.3410   -1.5420   -1.5520 O   0  0  0  0  0  0  0  0  0  0  0  0
   -2.2640    0.3660   -0.8930 N   0  0  0  0  0  0  0  0  0  0  0  0
   -3.0820    1.1600   -1.7360 C   0  0  0  0  0  0  0  0  0  0  0  0
   -3.9800    0.6470   -2.4500 O   0  0  0  0  0  0  0  0  0  0  0  0
   -2.9050    2.5340   -1.7890 O   0  0  0  0  0  0  0  0  0  0  0  0
   -3.6850    3.2460   -2.5860 O   0  0  0  0  0  0  0  0  0  0  0  0
   -4.1220    4.2780   -1.8920 O   0  0  0  0  0  0  0  0  0  0  0  0
  1  2  2  0
  2  3  1  0
  2  4  1  0
  4  5  1  0
  6  5  1  1
  6  7  1  0
  6 21  1  0
  7  8  1  0
  8  9  2  0
  8 10  1  0
 10 11  1  0
 10 20  1  0
 11 12  1  0
 12 13  1  0
 13 14  1  1
 13 16  1  0
 14 15  1  0
 16 17  1  6
 16 20  1  0
 17 18  2  0
 17 19  1  0
 21 22  2  0
 21 23  1  0
 23 24  1  0
 24 25  2  0
 24 26  1  0
 26 27  1  0
 27 28  1  0
M  END
