
     RDKit          3D

 27 27  0  0  0  0  0  0  0  0999 V2000
   -4.0260    2.6490    3.3340 O   0  0  0  0  0  0  0  0  0  0  0  0
   -3.5810    1.9020    2.4370 C   0  0  0  0  0  0  0  0  0  0  0  0
   -4.3810    0.8880    1.9590 O   0  0  0  0  0  0  0  0  0  0  0  0
   -2.2270    2.0860    1.8880 C   0  0  0  0  0  0  0  0  0  0  0  0
   -1.9470    1.1060    0.8600 N   0  0  0  0  0  0  0  0  0  0  0  0
   -2.2040    1.2900   -0.4860 O   0  0  0  0  0  0  0  0  0  0  0  0
   -2.5010   -0.0610   -0.9000 C   0  0  0  0  0  0  0  0  0  0  0  0
   -1.2440   -0.6900   -0.3560 C   0  0  1  0  0  0  0  0  0  0  0  0
   -1.0640   -2.1360   -0.4800 C   0  0  0  0  0  0  0  0  0  0  0  0
   -1.9920   -2.9780    0.0840 O   0  0  0  0  0  0  0  0  0  0  0  0
   -3.2700   -3.2070   -0.3070 C   0  0  0  0  0  0  0  0  0  0  0  0
   -3.7480   -2.6360   -1.3130 O   0  0  0  0  0  0  0  0  0  0  0  0
   -4.1410   -4.0740    0.3580 O   0  0  0  0  0  0  0  0  0  0  0  0
   -0.0820    0.0660   -0.9470 C   0  0  0  0  0  0  0  0  0  0  0  0
   -0.2820    1.0060   -1.7200 O   0  0  0  0  0  0  0  0  0  0  0  0
    1.1810   -0.3300   -0.5930 O   0  0  0  0  0  0  0  0  0  0  0  0
    2.3350    0.2920   -1.0750 C   0  0  2  0  0  0  0  0  0  0  0  0
    3.1730   -0.6940   -1.8890 C   0  0  0  0  0  0  0  0  0  0  0  0
    2.3890   -1.1340   -2.9550 O   0  0  0  0  0  0  0  0  0  0  0  0
    3.1350    0.8170    0.0670 C   0  0  0  0  0  0  0  0  0  0  0  0
    2.7290    0.6610    1.2490 O   0  0  0  0  0  0  0  0  0  0  0  0
    4.3590    1.4980   -0.1140 N   0  0  0  0  0  0  0  0  0  0  0  0
    5.1400    2.0060    0.9520 C   0  0  0  0  0  0  0  0  0  0  0  0
    4.7460    1.8580    2.1420 O   0  0  0  0  0  0  0  0  0  0  0  0
    6.3390    2.6730    0.7610 O   0  0  0  0  0  0  0  0  0  0  0  0
   -1.3660   -0.1770    1.0590 C   0  0  0  0  0  0  0  0  0  0  0  0
   -1.0380   -0.7500    2.0900 O   0  0  0  0  0  0  0  0  0  0  0  0
  1  2  2  0
  2  3  1  0
  2  4  1  0
  4  5  1  0
  5  6  1  0
  5 26  1  0
  6  7  1  0
  7  8  1  0
  8  9  1  1
  8 14  1  0
  8 26  1  0
  9 10  1  0
 10 11  1  0
 11 12  2  0
 11 13  1  0
 14 15  2  0
 14 16  1  0
 16 17  1  0
 17 18  1  1
 17 20  1  0
 18 19  1  0
 20 21  2  0
 20 22  1  0
 22 23  1  0
 23 24  2  0
 23 25  1  0
 26 27  2  0
M  END
