
     RDKit          3D

 12 13  0  0  0  0  0  0  0  0999 V2000
    3.2600    0.7430   -0.1280 C   0  0  0  0  0  0  0  0  0  0  0  0
    3.6640    0.1350    0.9090 N   0  0  0  0  0  0  0  0  0  0  0  0
    2.8690   -0.5580    1.8060 N   0  0  0  0  0  0  0  0  0  0  0  0
    1.6120   -0.5960    1.5800 C   0  0  0  0  0  0  0  0  0  0  0  0
    1.0520    0.0470    0.4550 N   0  0  0  0  0  0  0  0  0  0  0  0
   -0.3890   -0.0380    0.2610 C   0  0  0  0  0  0  0  0  0  0  0  0
   -0.7580   -0.4790   -0.9230 C   0  0  0  0  0  0  0  0  0  0  0  0
   -2.2020   -0.6040   -1.2260 C   0  0  0  0  0  0  0  0  0  0  0  0
   -3.0090   -0.2010   -0.1180 N   0  0  0  0  0  0  0  0  0  0  0  0
   -2.5340    0.2630    1.1240 C   0  0  0  0  0  0  0  0  0  0  0  0
   -1.2660    0.3410    1.3070 N   0  0  0  0  0  0  0  0  0  0  0  0
    1.8480    0.7740   -0.4940 C   0  0  0  0  0  0  0  0  0  0  0  0
  1  2  2  0
  1 12  1  0
  2  3  1  0
  3  4  2  0
  4  5  1  0
  5  6  1  0
  5 12  1  0
  6  7  2  0
  6 11  1  0
  7  8  1  0
  8  9  1  0
  9 10  1  0
 10 11  2  0
M  END
