
     RDKit          3D

 12 13  0  0  0  0  0  0  0  0999 V2000
   -3.4370   -0.1980    0.1800 C   0  0  0  0  0  0  0  0  0  0  0  0
   -2.0770   -0.7700    0.2970 C   0  0  0  0  0  0  0  0  0  0  0  0
   -0.9990   -0.0610    0.1020 C   0  0  0  0  0  0  0  0  0  0  0  0
   -1.1680    1.3830   -0.2530 C   0  0  0  0  0  0  0  0  0  0  0  0
    0.3150   -0.5950    0.2100 N   0  0  0  0  0  0  0  0  0  0  0  0
    0.6900   -1.8500    0.5140 C   0  0  0  0  0  0  0  0  0  0  0  0
    2.0310   -1.9530    0.5150 N   0  0  0  0  0  0  0  0  0  0  0  0
    2.5310   -0.7400    0.2060 C   0  0  0  0  0  0  0  0  0  0  0  0
    3.6620   -0.0300    0.0090 N   0  0  0  0  0  0  0  0  0  0  0  0
    3.2880    1.2030   -0.2900 N   0  0  0  0  0  0  0  0  0  0  0  0
    1.9810    1.3140   -0.2930 N   0  0  0  0  0  0  0  0  0  0  0  0
    1.4630    0.0870    0.0200 C   0  0  0  0  0  0  0  0  0  0  0  0
  1  2  1  0
  2  3  2  3
  3  4  1  0
  3  5  1  0
  5  6  1  0
  5 12  1  0
  6  7  2  0
  7  8  1  0
  8  9  1  0
  8 12  2  0
  9 10  1  0
 10 11  2  0
 11 12  1  0
M  CHG  1  10   1
M  END
