
     RDKit          3D

 12 13  0  0  0  0  0  0  0  0999 V2000
   -1.2900    2.3430    0.1210 C   0  0  0  0  0  0  0  0  0  0  0  0
   -0.1660    1.3720    0.1140 C   0  0  0  0  0  0  0  0  0  0  0  0
    1.1650    1.6230    0.2410 N   0  0  0  0  0  0  0  0  0  0  0  0
    1.8500    0.4850    0.1840 N   0  0  0  0  0  0  0  0  0  0  0  0
    3.2830    0.3460    0.2810 C   0  0  0  0  0  0  0  0  0  0  0  0
    1.0120   -0.5570    0.0180 C   0  0  0  0  0  0  0  0  0  0  0  0
    1.1180   -1.8900   -0.1030 N   0  0  0  0  0  0  0  0  0  0  0  0
    0.0530   -2.6970   -0.2640 C   0  0  0  0  0  0  0  0  0  0  0  0
   -1.1780   -2.1570   -0.3070 N   0  0  0  0  0  0  0  0  0  0  0  0
   -1.3320   -0.8230   -0.1890 C   0  0  0  0  0  0  0  0  0  0  0  0
   -2.6200   -0.2430   -0.2330 N   0  0  0  0  0  0  0  0  0  0  0  0
   -0.2410   -0.0010   -0.0250 C   0  0  0  0  0  0  0  0  0  0  0  0
  1  2  1  0
  2  3  2  0
  2 12  1  0
  3  4  1  0
  4  5  1  0
  4  6  1  0
  6  7  2  0
  6 12  1  0
  7  8  1  0
  8  9  2  0
  9 10  1  0
 10 11  1  0
 10 12  2  0
M  CHG  1   9   1
M  END
