
     RDKit          3D

 12 13  0  0  0  0  0  0  0  0999 V2000
    2.9800   -1.1520    0.2050 N   0  0  0  0  0  0  0  0  0  0  0  0
    1.9240   -0.2040    0.1140 C   0  0  0  0  0  0  0  0  0  0  0  0
    2.1360    1.1430    0.0600 C   0  0  0  0  0  0  0  0  0  0  0  0
    1.0600    1.9760   -0.0260 C   0  0  0  0  0  0  0  0  0  0  0  0
   -0.2130    1.5150   -0.0600 N   0  0  0  0  0  0  0  0  0  0  0  0
   -0.4370    0.1890   -0.0070 C   0  0  0  0  0  0  0  0  0  0  0  0
   -1.7690   -0.3400   -0.0410 N   0  0  0  0  0  0  0  0  0  0  0  0
   -2.3010   -1.2000   -0.9280 C   0  0  0  0  0  0  0  0  0  0  0  0
   -3.5840   -1.4550   -0.6170 N   0  0  0  0  0  0  0  0  0  0  0  0
   -3.8430   -0.7520    0.4620 N   0  0  0  0  0  0  0  0  0  0  0  0
   -2.7450   -0.0560    0.8400 C   0  0  0  0  0  0  0  0  0  0  0  0
    0.6370   -0.6820    0.0800 C   0  0  0  0  0  0  0  0  0  0  0  0
  1  2  1  0
  2  3  2  0
  2 12  1  0
  3  4  1  0
  4  5  2  0
  5  6  1  0
  6  7  1  0
  6 12  2  0
  7  8  1  0
  7 11  1  0
  8  9  2  0
  9 10  1  0
 10 11  2  0
M  CHG  1   5   1
M  END
