
     RDKit          3D

 12 13  0  0  0  0  0  0  0  0999 V2000
    2.5060    0.3080    1.3200 C   0  0  0  0  0  0  0  0  0  0  0  0
    2.3170    0.2630   -0.1340 C   0  0  0  0  0  0  0  0  0  0  0  0
    3.3120    0.3620   -1.0580 N   0  0  0  0  0  0  0  0  0  0  0  0
    2.7410    0.2770   -2.2660 C   0  0  0  0  0  0  0  0  0  0  0  0
    1.4310    0.1300   -2.0660 N   0  0  0  0  0  0  0  0  0  0  0  0
    1.1490    0.1180   -0.7750 N   0  0  0  0  0  0  0  0  0  0  0  0
   -0.1600   -0.0240   -0.2390 C   0  0  0  0  0  0  0  0  0  0  0  0
   -1.2110   -0.1570   -1.0080 C   0  0  0  0  0  0  0  0  0  0  0  0
   -2.5730   -0.3050   -0.5020 C   0  0  0  0  0  0  0  0  0  0  0  0
   -2.7530   -0.3020    0.8940 N   0  0  0  0  0  0  0  0  0  0  0  0
   -1.5860   -0.1560    1.6470 C   0  0  0  0  0  0  0  0  0  0  0  0
   -0.4080   -0.0290    1.1680 N   0  0  0  0  0  0  0  0  0  0  0  0
  1  2  1  0
  2  3  2  0
  2  6  1  0
  3  4  1  0
  4  5  2  0
  5  6  1  0
  6  7  1  0
  7  8  2  0
  7 12  1  0
  8  9  1  0
  9 10  1  0
 10 11  1  0
 11 12  2  0
M  CHG  1  10   1
M  END
