
     RDKit          3D

 12 13  0  0  0  0  0  0  0  0999 V2000
    3.9620   -0.8980    0.3420 N   0  0  0  0  0  0  0  0  0  0  0  0
    3.1760   -0.5050   -0.5830 C   0  0  0  0  0  0  0  0  0  0  0  0
    1.8020   -0.8540   -0.5090 N   0  0  0  0  0  0  0  0  0  0  0  0
    0.9680    0.0740   -0.2070 C   0  0  0  0  0  0  0  0  0  0  0  0
    1.3830    1.4080    0.0490 N   0  0  0  0  0  0  0  0  0  0  0  0
    0.4940    2.2750    0.3430 C   0  0  0  0  0  0  0  0  0  0  0  0
   -0.8860    2.0490    0.4450 N   0  0  0  0  0  0  0  0  0  0  0  0
   -1.3710    0.8700    0.2320 C   0  0  0  0  0  0  0  0  0  0  0  0
   -2.7020    0.3800    0.2690 N   0  0  0  0  0  0  0  0  0  0  0  0
   -2.6260   -1.0300   -0.0580 C   0  0  0  0  0  0  0  0  0  0  0  0
   -1.1860   -1.3040   -0.2800 C   0  0  0  0  0  0  0  0  0  0  0  0
   -0.4640   -0.2170   -0.1140 C   0  0  0  0  0  0  0  0  0  0  0  0
  1  2  2  0
  2  3  1  0
  3  4  2  3
  4  5  1  0
  4 12  1  0
  5  6  2  0
  6  7  1  0
  7  8  2  0
  8  9  1  0
  8 12  1  0
  9 10  1  0
 10 11  1  0
 11 12  2  0
M  END
