
     RDKit          3D

  8  7  0  0  0  0  0  0  0  0999 V2000
    2.9080    0.3290   -0.7780 C   0  0  0  0  0  0  0  0  0  0  0  0
    2.3540    0.4650    0.5780 C   0  0  0  0  0  0  0  0  0  0  0  0
    1.1470    0.2620    0.9250 C   0  0  0  0  0  0  0  0  0  0  0  0
    0.0040   -0.1410    0.1640 C   0  0  0  0  0  0  0  0  0  0  0  0
    0.0510   -0.4390   -1.2560 C   0  0  0  0  0  0  0  0  0  0  0  0
   -1.1500   -0.2590    0.8250 C   0  0  0  0  0  0  0  0  0  0  0  0
   -2.4520   -0.6440    0.3110 C   0  0  0  0  0  0  0  0  0  0  0  0
   -3.3700    0.4870    0.5860 N   0  0  0  0  0  0  0  0  0  0  0  0
  1  2  1  0
  2  3  2  3
  3  4  1  0
  4  5  1  0
  4  6  2  3
  6  7  1  0
  7  8  1  0
M  END
