
     RDKit          3D

 12 12  0  0  0  0  0  0  0  0999 V2000
   -2.1500    2.2100   -0.4420 C   0  0  0  0  0  0  0  0  0  0  0  0
   -1.5230    1.0770   -1.0620 O   0  0  0  0  0  0  0  0  0  0  0  0
   -0.3580    0.6310   -0.4600 C   0  0  0  0  0  0  0  0  0  0  0  0
    0.7200    1.2810   -0.8620 C   0  0  0  0  0  0  0  0  0  0  0  0
    2.1030    1.0060   -0.3780 C   0  0  0  0  0  0  0  0  0  0  0  0
    2.4350   -0.4400   -0.3450 C   0  0  0  0  0  0  0  0  0  0  0  0
    1.9160   -1.1830    0.8470 C   0  0  0  0  0  0  0  0  0  0  0  0
    0.4700   -1.1760    1.0010 C   0  0  0  0  0  0  0  0  0  0  0  0
   -0.1290   -2.4050    2.1230 Cl  0  0  0  0  0  0  0  0  0  0  0  0
   -0.5260   -0.4560    0.4930 C   0  0  0  0  0  0  0  0  0  0  0  0
   -1.8190   -0.7740    0.9090 O   0  0  0  0  0  0  0  0  0  0  0  0
   -2.4740   -1.8040    0.1870 C   0  0  0  0  0  0  0  0  0  0  0  0
  1  2  1  0
  2  3  1  0
  3  4  2  0
  3 10  1  0
  4  5  1  0
  5  6  1  0
  6  7  1  0
  7  8  1  0
  8  9  1  0
  8 10  2  0
 10 11  1  0
 11 12  1  0
M  END
