
     RDKit          3D

 12 12  0  0  0  0  0  0  0  0999 V2000
    3.1650   -0.1360    1.3850 C   0  0  0  0  0  0  0  0  0  0  0  0
    2.7560    0.2620    0.0220 C   0  0  0  0  0  0  0  0  0  0  0  0
    3.1090    1.4380   -0.4390 C   0  0  0  0  0  0  0  0  0  0  0  0
    4.0580    2.5650    0.5110 Cl  0  0  0  0  0  0  0  0  0  0  0  0
    2.0250   -0.5820   -0.7360 O   0  0  0  0  0  0  0  0  0  0  0  0
    0.8210   -1.1890   -0.4980 C   0  0  0  0  0  0  0  0  0  0  0  0
   -0.3470   -0.2770   -0.2580 C   0  0  2  0  0  0  0  0  0  0  0  0
   -1.5290   -1.1970    0.0790 C   0  0  0  0  0  0  0  0  0  0  0  0
   -2.6870   -0.3850    0.5570 C   0  0  0  0  0  0  0  0  0  0  0  0
   -2.8210    0.8260   -0.3060 C   0  0  0  0  0  0  0  0  0  0  0  0
   -1.9540    0.7960   -1.5350 C   0  0  0  0  0  0  0  0  0  0  0  0
   -0.6300    0.5660   -1.2910 O   0  0  0  0  0  0  0  0  0  0  0  0
  1  2  1  0
  2  3  2  3
  2  5  1  0
  3  4  1  0
  5  6  1  0
  7  6  1  6
  7  8  1  0
  7 12  1  0
  8  9  1  0
  9 10  1  0
 10 11  1  0
 11 12  1  0
M  END
