
     RDKit          3D

 12 12  0  0  0  0  0  0  0  0999 V2000
    1.7490   -0.3070    1.6480 O   0  0  0  0  0  0  0  0  0  0  0  0
    1.3100   -0.6100    0.3460 C   0  0  2  0  0  0  0  0  0  0  0  0
    2.0460    0.3270   -0.5810 C   0  0  0  0  0  0  0  0  0  0  0  0
    3.5370    0.0410   -0.3860 C   0  0  0  0  0  0  0  0  0  0  0  0
    4.5390    1.0660   -1.4100 Cl  0  0  0  0  0  0  0  0  0  0  0  0
   -0.1700   -0.4130    0.3210 C   0  0  1  0  0  0  0  0  0  0  0  0
   -0.7290   -1.2810    1.2640 O   0  0  0  0  0  0  0  0  0  0  0  0
   -0.5250    0.9960    0.7630 C   0  0  0  0  0  0  0  0  0  0  0  0
   -2.0370    0.9600    1.0050 C   0  0  0  0  0  0  0  0  0  0  0  0
   -2.6400    0.8420   -0.3990 C   0  0  0  0  0  0  0  0  0  0  0  0
   -2.2700   -0.4900   -0.9610 C   0  0  0  0  0  0  0  0  0  0  0  0
   -0.7910   -0.7440   -1.0090 C   0  0  0  0  0  0  0  0  0  0  0  0
  2  1  1  1
  2  3  1  0
  2  6  1  0
  3  4  1  0
  4  5  1  0
  6  7  1  1
  6  8  1  0
  6 12  1  0
  8  9  1  0
  9 10  1  0
 10 11  1  0
 11 12  1  0
M  END
