
     RDKit          3D

 12 12  0  0  0  0  0  0  0  0999 V2000
    3.1610    2.1860   -0.2620 O   0  0  0  0  0  0  0  0  0  0  0  0
    3.2240    0.8560    0.1200 C   0  0  0  0  0  0  0  0  0  0  0  0
    1.9630    0.1320   -0.2920 C   0  0  1  0  0  0  0  0  0  0  0  0
    2.0840   -1.3370    0.0310 C   0  0  0  0  0  0  0  0  0  0  0  0
    3.4630   -2.0020   -0.8510 Cl  0  0  0  0  0  0  0  0  0  0  0  0
    0.8780    0.7490    0.3330 O   0  0  0  0  0  0  0  0  0  0  0  0
   -0.4430    0.3560    0.1900 C   0  0  0  0  0  0  0  0  0  0  0  0
   -0.9170   -0.5310    1.0390 C   0  0  0  0  0  0  0  0  0  0  0  0
   -2.2980   -1.0230    0.9900 C   0  0  0  0  0  0  0  0  0  0  0  0
   -2.9830   -0.7410   -0.3170 C   0  0  0  0  0  0  0  0  0  0  0  0
   -2.6950    0.6690   -0.8050 C   0  0  0  0  0  0  0  0  0  0  0  0
   -1.2360    0.9530   -0.9000 C   0  0  0  0  0  0  0  0  0  0  0  0
  1  2  1  0
  3  2  1  1
  3  4  1  0
  3  6  1  0
  4  5  1  0
  6  7  1  0
  7  8  2  0
  7 12  1  0
  8  9  1  0
  9 10  1  0
 10 11  1  0
 11 12  1  0
M  END
