
     RDKit          3D

 12 11  0  0  0  0  0  0  0  0999 V2000
   -2.7240    1.0590    0.3860 C   0  0  0  0  0  0  0  0  0  0  0  0
   -1.8060    0.0260   -0.3240 C   0  0  1  0  0  0  0  0  0  0  0  0
   -2.2800   -1.3020    0.1760 C   0  0  0  0  0  0  0  0  0  0  0  0
   -2.1860    0.2020   -1.8070 C   0  0  0  0  0  0  0  0  0  0  0  0
   -0.4150    0.3590   -0.1200 C   0  0  0  0  0  0  0  0  0  0  0  0
   -0.0160    1.6260   -0.5950 O   0  0  0  0  0  0  0  0  0  0  0  0
    0.4830   -0.3870    0.4490 C   0  0  0  0  0  0  0  0  0  0  0  0
    0.1430   -1.9800    1.0870 Cl  0  0  0  0  0  0  0  0  0  0  0  0
    1.8840    0.0990    0.5850 C   0  0  0  0  0  0  0  0  0  0  0  0
    2.7540   -0.6820    1.1630 C   0  0  0  0  0  0  0  0  0  0  0  0
    4.1680   -0.2920    1.3470 C   0  0  0  0  0  0  0  0  0  0  0  0
    4.4090    0.9860    0.8270 O   0  0  0  0  0  0  0  0  0  0  0  0
  2  1  1  1
  2  3  1  0
  2  4  1  0
  2  5  1  0
  5  6  1  0
  5  7  2  3
  7  8  1  0
  7  9  1  0
  9 10  2  3
 10 11  1  0
 11 12  1  0
M  END
