
     RDKit          3D

 12 12  0  0  0  0  0  0  0  0999 V2000
   -3.3220   -1.0800   -0.4600 C   0  0  0  0  0  0  0  0  0  0  0  0
   -2.1610   -0.2780   -1.0460 C   0  0  0  0  0  0  0  0  0  0  0  0
   -1.5590    0.6260   -0.0570 C   0  0  0  0  0  0  0  0  0  0  0  0
   -0.3370    0.5980    0.4090 C   0  0  0  0  0  0  0  0  0  0  0  0
    0.1140    1.6120    1.4210 C   0  0  0  0  0  0  0  0  0  0  0  0
    1.5480    1.9830    1.2270 C   0  0  0  0  0  0  0  0  0  0  0  0
    2.1620    1.2940    0.1260 O   0  0  0  0  0  0  0  0  0  0  0  0
    1.8970   -0.0440   -0.1340 C   0  0  0  0  0  0  0  0  0  0  0  0
    2.9050   -1.0280   -0.5400 C   0  0  0  0  0  0  0  0  0  0  0  0
    2.3050   -2.2690   -0.7190 O   0  0  0  0  0  0  0  0  0  0  0  0
    0.6320   -0.4100    0.0060 C   0  0  0  0  0  0  0  0  0  0  0  0
    0.1590   -2.0740   -0.2750 Cl  0  0  0  0  0  0  0  0  0  0  0  0
  1  2  1  0
  2  3  1  0
  3  4  2  3
  4  5  1  0
  4 11  1  0
  5  6  1  0
  6  7  1  0
  7  8  1  0
  8  9  1  0
  8 11  2  0
  9 10  1  0
 11 12  1  0
M  END
