
     RDKit          3D

 12 12  0  0  0  0  0  0  0  0999 V2000
   -3.8630   -0.2280    0.0140 C   0  0  0  0  0  0  0  0  0  0  0  0
   -2.7280   -1.0630   -0.5380 C   0  0  0  0  0  0  0  0  0  0  0  0
   -1.4230   -0.6500    0.0370 C   0  0  0  0  0  0  0  0  0  0  0  0
   -1.2870   -0.7460    1.4050 O   0  0  0  0  0  0  0  0  0  0  0  0
   -0.4450   -0.2160   -0.7050 C   0  0  0  0  0  0  0  0  0  0  0  0
    0.8740    0.2160   -0.2400 C   0  0  0  0  0  0  0  0  0  0  0  0
    1.7370    0.6210   -1.1600 C   0  0  0  0  0  0  0  0  0  0  0  0
    1.3210    0.6440   -2.8840 Cl  0  0  0  0  0  0  0  0  0  0  0  0
    3.0970    1.0550   -0.7340 C   0  0  0  0  0  0  0  0  0  0  0  0
    3.4230    0.4070    0.6010 C   0  0  0  0  0  0  0  0  0  0  0  0
    2.4550    0.7530    1.5050 O   0  0  0  0  0  0  0  0  0  0  0  0
    1.2240    0.2100    1.2000 C   0  0  0  0  0  0  0  0  0  0  0  0
  1  2  1  0
  2  3  1  0
  3  4  1  0
  3  5  2  3
  5  6  1  0
  6  7  2  0
  6 12  1  0
  7  8  1  0
  7  9  1  0
  9 10  1  0
 10 11  1  0
 11 12  1  0
M  END
