
     RDKit          3D

  9  8  0  0  0  0  0  0  0  0999 V2000
    2.5570    1.1000    0.6800 C   0  0  0  0  0  0  0  0  0  0  0  0
    2.0380   -0.0650   -0.0570 C   0  0  0  0  0  0  0  0  0  0  0  0
    0.8000   -0.4300   -0.2760 C   0  0  0  0  0  0  0  0  0  0  0  0
    0.6760   -1.7090   -1.0890 C   0  0  0  0  0  0  0  0  0  0  0  0
   -0.4180    0.1820    0.1170 C   0  0  0  0  0  0  0  0  0  0  0  0
   -0.3730    1.4600    0.9040 C   0  0  0  0  0  0  0  0  0  0  0  0
   -1.6250   -0.2650   -0.1490 C   0  0  0  0  0  0  0  0  0  0  0  0
   -2.7550    0.5130    0.3460 N   0  0  0  0  0  0  0  0  0  0  0  0
   -2.0060   -1.4120   -0.8570 N   0  0  0  0  0  0  0  0  0  0  0  0
  1  2  1  0
  2  3  2  3
  3  4  1  0
  3  5  1  0
  5  6  1  0
  5  7  2  3
  7  8  1  0
  7  9  1  0
M  END
