
     RDKit          3D

 31 34  0  0  0  0  0  0  0  0999 V2000
    7.0380   -3.0450   -0.4830 C   0  0  0  0  0  0  0  0  0  0  0  0
    6.5450   -1.8650   -0.8350 C   0  0  0  0  0  0  0  0  0  0  0  0
    6.0190   -1.6710   -2.2000 C   0  0  0  0  0  0  0  0  0  0  0  0
    6.4990   -0.7130    0.1040 C   0  0  0  0  0  0  0  0  0  0  0  0
    5.1420   -0.2530    0.3210 N   0  0  0  0  0  0  0  0  0  0  0  0
    4.9770    0.8630    1.2130 C   0  0  0  0  0  0  0  0  0  0  0  0
    5.9250    1.5420    1.8800 N   0  0  0  0  0  0  0  0  0  0  0  0
    5.3610    2.5010    2.5950 N   0  0  0  0  0  0  0  0  0  0  0  0
    4.0360    2.4500    2.3960 C   0  0  0  0  0  0  0  0  0  0  0  0
    2.9850    3.1830    2.8680 N   0  0  0  0  0  0  0  0  0  0  0  0
    1.7210    2.9190    2.5020 C   0  0  0  0  0  0  0  0  0  0  0  0
    0.7330    3.5980    2.9370 O   0  0  0  0  0  0  0  0  0  0  0  0
    1.4770    1.8830    1.6280 C   0  0  0  0  0  0  0  0  0  0  0  0
    0.1500    1.6000    1.2370 N   0  0  0  0  0  0  0  0  0  0  0  0
   -0.2180    0.5340    0.3240 C   0  0  0  0  0  0  0  0  0  0  0  0
   -1.6630    0.4660    0.0940 C   0  0  0  0  0  0  0  0  0  0  0  0
   -2.5620    1.3030    0.6750 N   0  0  0  0  0  0  0  0  0  0  0  0
   -3.8800    1.2000    0.4340 C   0  0  0  0  0  0  0  0  0  0  0  0
   -4.7900    2.1550    1.1130 C   0  0  0  0  0  0  0  0  0  0  0  0
   -6.2350    1.9010    0.7330 C   0  0  0  0  0  0  0  0  0  0  0  0
   -7.1120    2.9000    1.4530 C   0  0  0  0  0  0  0  0  0  0  0  0
   -4.3340    0.2580   -0.3960 N   0  0  0  0  0  0  0  0  0  0  0  0
   -3.5140   -0.6110   -1.0140 C   0  0  0  0  0  0  0  0  0  0  0  0
   -2.1500   -0.5010   -0.7600 C   0  0  0  0  0  0  0  0  0  0  0  0
   -1.0780   -1.3180   -1.3090 C   0  0  0  0  0  0  0  0  0  0  0  0
   -1.6570   -2.4420   -2.0210 N   0  0  0  0  0  0  0  0  0  0  0  0
   -2.5230   -3.1430   -1.0960 C   0  0  0  0  0  0  0  0  0  0  0  0
   -3.9850   -2.9670   -1.4580 C   0  0  0  0  0  0  0  0  0  0  0  0
   -4.2850   -1.5450   -1.8760 C   0  0  0  0  0  0  0  0  0  0  0  0
    2.5610    1.1450    1.1550 C   0  0  0  0  0  0  0  0  0  0  0  0
    3.8080    1.4420    1.5460 N   0  0  0  0  0  0  0  0  0  0  0  0
  1  2  2  0
  2  3  1  0
  2  4  1  0
  4  5  1  0
  5  6  1  0
  6  7  2  0
  6 31  1  0
  7  8  1  0
  8  9  2  0
  9 10  1  0
  9 31  1  0
 10 11  1  0
 11 12  2  0
 11 13  1  0
 13 14  1  0
 13 30  2  0
 14 15  1  0
 15 16  1  0
 16 17  2  0
 16 24  1  0
 17 18  1  0
 18 19  1  0
 18 22  2  0
 19 20  1  0
 20 21  1  0
 22 23  1  0
 23 24  2  0
 23 29  1  0
 24 25  1  0
 25 26  1  0
 26 27  1  0
 27 28  1  0
 28 29  1  0
 30 31  1  0
M  CHG  1  26   1
M  END
