
     RDKit          3D

 31 34  0  0  0  0  0  0  0  0999 V2000
    6.9470   -3.7050   -0.4600 C   0  0  0  0  0  0  0  0  0  0  0  0
    7.0890   -2.2790    0.0190 C   0  0  1  0  0  0  0  0  0  0  0  0
    7.3770   -1.3220   -1.1000 C   0  0  0  0  0  0  0  0  0  0  0  0
    5.8440   -1.8180    0.6990 C   0  0  0  0  0  0  0  0  0  0  0  0
    5.7260   -1.4220    1.9790 N   0  0  0  0  0  0  0  0  0  0  0  0
    4.4980   -1.0900    2.2250 O   0  0  0  0  0  0  0  0  0  0  0  0
    3.7750   -1.2510    1.1430 C   0  0  0  0  0  0  0  0  0  0  0  0
    2.3020   -0.9730    1.0220 C   0  0  0  0  0  0  0  0  0  0  0  0
    2.0860    0.4150    0.6220 N   0  0  0  0  0  0  0  0  0  0  0  0
    0.7610    0.8610    0.4620 C   0  0  0  0  0  0  0  0  0  0  0  0
   -0.2660    0.0330    0.6720 N   0  0  0  0  0  0  0  0  0  0  0  0
   -1.5530    0.4170    0.5320 C   0  0  0  0  0  0  0  0  0  0  0  0
   -2.5790   -0.5250    0.7740 N   0  0  0  0  0  0  0  0  0  0  0  0
   -2.2410   -1.8710    1.1610 C   0  0  0  0  0  0  0  0  0  0  0  0
   -3.4880   -2.6650    1.3560 C   0  0  0  0  0  0  0  0  0  0  0  0
   -4.2950   -2.7430    0.1720 N   0  0  0  0  0  0  0  0  0  0  0  0
   -5.5370   -3.4620    0.1460 C   0  0  0  0  0  0  0  0  0  0  0  0
   -6.2310   -3.8890    1.1880 C   0  0  0  0  0  0  0  0  0  0  0  0
   -7.4510   -4.5840    0.7310 C   0  0  0  0  0  0  0  0  0  0  0  0
   -7.3670   -4.5000   -0.7360 C   0  0  0  0  0  0  0  0  0  0  0  0
   -6.2630   -3.8540   -1.0510 C   0  0  0  0  0  0  0  0  0  0  0  0
   -1.7780    1.6840    0.1690 N   0  0  0  0  0  0  0  0  0  0  0  0
   -0.7850    2.5610   -0.0560 C   0  0  0  0  0  0  0  0  0  0  0  0
   -1.0600    3.9650   -0.4590 C   0  0  1  0  0  0  0  0  0  0  0  0
   -0.4080    4.9470    0.4940 C   0  0  0  0  0  0  0  0  0  0  0  0
    0.5220    5.8780   -0.2500 C   0  0  0  0  0  0  0  0  0  0  0  0
   -0.2040    6.5220   -1.3220 N   0  0  0  0  0  0  0  0  0  0  0  0
   -0.5440    5.5440   -2.3340 C   0  0  0  0  0  0  0  0  0  0  0  0
   -0.4470    4.1380   -1.8450 C   0  0  0  0  0  0  0  0  0  0  0  0
    0.5010    2.1240    0.0990 N   0  0  0  0  0  0  0  0  0  0  0  0
    4.6050   -1.7040    0.1880 N   0  0  0  0  0  0  0  0  0  0  0  0
  2  1  1  6
  2  3  1  0
  2  4  1  0
  4  5  2  0
  4 31  1  0
  5  6  1  0
  6  7  1  0
  7  8  1  0
  7 31  2  0
  8  9  1  0
  9 10  1  0
 10 11  2  0
 10 30  1  0
 11 12  1  0
 12 13  1  0
 12 22  2  0
 13 14  1  0
 14 15  1  0
 15 16  1  0
 16 17  1  0
 17 18  2  0
 17 21  1  0
 18 19  1  0
 19 20  1  0
 20 21  2  0
 22 23  1  0
 24 23  1  1
 23 30  2  0
 24 25  1  0
 24 29  1  0
 25 26  1  0
 26 27  1  0
 27 28  1  0
 28 29  1  0
M  CHG  1  27   1
M  END
