
     RDKit          3D

 31 34  0  0  0  0  0  0  0  0999 V2000
   -9.7870    0.1120    0.5660 C   0  0  0  0  0  0  0  0  0  0  0  0
   -8.5520    0.4810   -0.2200 C   0  0  0  0  0  0  0  0  0  0  0  0
   -7.4990   -0.5830    0.0580 C   0  0  0  0  0  0  0  0  0  0  0  0
   -6.2280   -0.2940   -0.6930 C   0  0  0  0  0  0  0  0  0  0  0  0
   -5.2320   -1.4110   -0.3900 C   0  0  1  0  0  0  0  0  0  0  0  0
   -4.0060   -1.1960   -1.0820 N   0  0  0  0  0  0  0  0  0  0  0  0
   -2.8910   -1.0180   -0.5130 C   0  0  0  0  0  0  0  0  0  0  0  0
   -1.6950   -0.8010   -1.3020 N   0  0  0  0  0  0  0  0  0  0  0  0
   -1.8830   -0.3020   -2.6370 C   0  0  0  0  0  0  0  0  0  0  0  0
   -0.5510   -0.1250   -3.3040 C   0  0  0  0  0  0  0  0  0  0  0  0
    0.3170    0.8010   -2.6200 N   0  0  0  0  0  0  0  0  0  0  0  0
    0.3160    2.1300   -2.8690 C   0  0  0  0  0  0  0  0  0  0  0  0
    1.2630    2.7460   -2.0650 C   0  0  0  0  0  0  0  0  0  0  0  0
    1.8570    1.7650   -1.3060 C   0  0  0  0  0  0  0  0  0  0  0  0
    2.9120    1.9240   -0.3050 C   0  0  0  0  0  0  0  0  0  0  0  0
    3.4580    3.0930    0.0560 N   0  0  0  0  0  0  0  0  0  0  0  0
    4.3830    2.8900    0.9750 N   0  0  0  0  0  0  0  0  0  0  0  0
    4.4430    1.5480    1.2210 C   0  0  0  0  0  0  0  0  0  0  0  0
    5.3550    0.9780    2.1830 C   0  0  0  0  0  0  0  0  0  0  0  0
    5.9860   -0.1420    1.9540 C   0  0  0  0  0  0  0  0  0  0  0  0
    5.8200   -0.9230    0.6870 C   0  0  0  0  0  0  0  0  0  0  0  0
    7.1950   -1.4960    0.3010 C   0  0  0  0  0  0  0  0  0  0  0  0
    8.2940   -0.6530    0.9150 C   0  0  0  0  0  0  0  0  0  0  0  0
    8.2300   -0.6210    2.4070 C   0  0  0  0  0  0  0  0  0  0  0  0
    6.8940   -0.7240    2.8980 N   0  0  0  0  0  0  0  0  0  0  0  0
    3.5230    0.9880    0.4150 N   0  0  0  0  0  0  0  0  0  0  0  0
    1.2450    0.5760   -1.6790 C   0  0  0  0  0  0  0  0  0  0  0  0
   -2.7090   -1.0650    0.9020 N   0  0  0  0  0  0  0  0  0  0  0  0
   -3.8610   -1.3360    1.6780 C   0  0  0  0  0  0  0  0  0  0  0  0
   -3.8180   -1.3970    2.9440 O   0  0  0  0  0  0  0  0  0  0  0  0
   -5.0980   -1.5460    1.0280 N   0  0  0  0  0  0  0  0  0  0  0  0
  1  2  1  0
  2  3  1  0
  3  4  1  0
  5  4  1  1
  5  6  1  0
  5 31  1  0
  6  7  2  0
  7  8  1  0
  7 28  1  0
  8  9  1  0
  9 10  1  0
 10 11  1  0
 11 12  1  0
 11 27  1  0
 12 13  2  0
 13 14  1  0
 14 15  1  0
 14 27  2  0
 15 16  2  0
 15 26  1  0
 16 17  1  0
 17 18  1  0
 18 19  1  0
 18 26  2  0
 19 20  2  3
 20 21  1  0
 20 25  1  0
 21 22  1  0
 22 23  1  0
 23 24  1  0
 24 25  1  0
 28 29  1  0
 29 30  2  0
 29 31  1  0
M  CHG  1  25   1
M  END
