
     RDKit          3D

 30 33  0  0  0  0  0  0  0  0999 V2000
   -4.1110   -0.3380    0.7370 C   0  0  0  0  0  0  0  0  0  0  0  0
   -4.4310    0.5990   -0.4020 C   0  0  1  0  0  0  0  0  0  0  0  0
   -4.4600    2.0100    0.1360 C   0  0  0  0  0  0  0  0  0  0  0  0
   -3.4030    0.4430   -1.5050 C   0  0  0  0  0  0  0  0  0  0  0  0
   -2.0550    0.7330   -1.0690 N   0  0  0  0  0  0  0  0  0  0  0  0
   -1.2250   -0.4510   -1.1680 C   0  0  0  0  0  0  0  0  0  0  0  0
    0.1940   -0.1820   -0.8370 C   0  0  0  0  0  0  0  0  0  0  0  0
    0.6050    1.0820   -0.4790 C   0  0  0  0  0  0  0  0  0  0  0  0
    1.9070    1.3140   -0.1770 N   0  0  0  0  0  0  0  0  0  0  0  0
    2.8470    0.3460   -0.2100 C   0  0  0  0  0  0  0  0  0  0  0  0
    4.2120    0.6310    0.1070 N   0  0  0  0  0  0  0  0  0  0  0  0
    5.1500   -0.4780    0.0540 C   0  0  2  0  0  0  0  0  0  0  0  0
    4.8550   -1.5550    1.0540 C   0  0  0  0  0  0  0  0  0  0  0  0
    5.4840   -1.3430    2.4010 C   0  0  0  0  0  0  0  0  0  0  0  0
    6.2480   -0.0520    2.5270 C   0  0  0  0  0  0  0  0  0  0  0  0
    7.1260    0.1460    1.3550 C   0  0  0  0  0  0  0  0  0  0  0  0
    8.4430    0.5170    1.2040 C   0  0  0  0  0  0  0  0  0  0  0  0
    8.6600    0.5200   -0.1320 N   0  0  0  0  0  0  0  0  0  0  0  0
    7.5530    0.1720   -0.8020 C   0  0  0  0  0  0  0  0  0  0  0  0
    6.5540   -0.0730    0.1150 C   0  0  0  0  0  0  0  0  0  0  0  0
    2.4360   -0.8840   -0.5600 N   0  0  0  0  0  0  0  0  0  0  0  0
    1.1600   -1.1650   -0.8680 C   0  0  0  0  0  0  0  0  0  0  0  0
    0.7760   -2.4760   -1.2290 N   0  0  0  0  0  0  0  0  0  0  0  0
   -5.7640    0.2980   -0.9980 C   0  0  0  0  0  0  0  0  0  0  0  0
   -6.9090    0.4150   -0.0770 C   0  0  0  0  0  0  0  0  0  0  0  0
   -8.1530    0.1010   -0.6380 C   0  0  0  0  0  0  0  0  0  0  0  0
   -9.2500    0.1990    0.1640 C   0  0  0  0  0  0  0  0  0  0  0  0
   -9.1390    0.5830    1.4510 N   0  0  0  0  0  0  0  0  0  0  0  0
   -7.9510    0.8660    1.9280 N   0  0  0  0  0  0  0  0  0  0  0  0
   -6.8680    0.7850    1.1880 N   0  0  0  0  0  0  0  0  0  0  0  0
  2  1  1  1
  2  3  1  0
  2  4  1  0
  2 24  1  0
  4  5  1  0
  5  6  1  0
  6  7  1  0
  7  8  2  0
  7 22  1  0
  8  9  1  0
  9 10  2  0
 10 11  1  0
 10 21  1  0
 12 11  1  1
 12 13  1  0
 12 20  1  0
 13 14  1  0
 14 15  1  0
 15 16  1  0
 16 17  2  0
 16 20  1  0
 17 18  1  0
 18 19  1  0
 19 20  2  0
 21 22  2  0
 22 23  1  0
 24 25  1  0
 25 26  2  0
 25 30  1  0
 26 27  1  0
 27 28  2  0
 28 29  1  0
 29 30  2  0
M  CHG  1   5   1
M  END
