
     RDKit          3D

 31 34  0  0  0  0  0  0  0  0999 V2000
    0.4420   -0.4130    2.7960 C   0  0  0  0  0  0  0  0  0  0  0  0
    0.1020   -0.2320    1.3700 C   0  0  0  0  0  0  0  0  0  0  0  0
   -0.8560    0.4770    0.9720 C   0  0  0  0  0  0  0  0  0  0  0  0
   -1.6120    1.0050   -0.0160 N   0  0  0  0  0  0  0  0  0  0  0  0
   -1.0470    2.1060   -0.8650 C   0  0  0  0  0  0  0  0  0  0  0  0
   -2.9030    0.6500   -0.2550 N   0  0  0  0  0  0  0  0  0  0  0  0
   -3.4360   -0.4430   -0.4710 C   0  0  0  0  0  0  0  0  0  0  0  0
   -4.8770   -0.5900   -0.6840 C   0  0  0  0  0  0  0  0  0  0  0  0
   -5.6730    0.4630   -0.5800 C   0  0  0  0  0  0  0  0  0  0  0  0
   -4.9500    1.7490   -0.2470 C   0  0  1  0  0  0  0  0  0  0  0  0
   -5.9380    2.9400   -0.0440 C   0  0  0  0  0  0  0  0  0  0  0  0
   -5.2550    2.3270    1.0910 C   0  0  0  0  0  0  0  0  0  0  0  0
   -7.0550    0.5610   -0.6420 N   0  0  0  0  0  0  0  0  0  0  0  0
   -7.9900   -0.1640   -1.2110 N   0  0  0  0  0  0  0  0  0  0  0  0
   -7.6370   -1.3150   -1.9320 N   0  0  0  0  0  0  0  0  0  0  0  0
   -6.6090   -2.2280   -1.7140 N   0  0  0  0  0  0  0  0  0  0  0  0
   -5.3380   -1.9420   -1.0660 C   0  0  0  0  0  0  0  0  0  0  0  0
   -4.5760   -2.8810   -0.8080 O   0  0  0  0  0  0  0  0  0  0  0  0
    0.9680   -0.9170    0.3250 C   0  0  0  0  0  0  0  0  0  0  0  0
    2.2250   -0.2030    0.4300 N   0  0  0  0  0  0  0  0  0  0  0  0
    3.5050   -0.7510    0.4180 C   0  0  0  0  0  0  0  0  0  0  0  0
    3.8710   -2.0210    0.3070 N   0  0  0  0  0  0  0  0  0  0  0  0
    5.2130   -2.0810    0.3470 N   0  0  0  0  0  0  0  0  0  0  0  0
    5.7250   -0.8710    0.4810 C   0  0  0  0  0  0  0  0  0  0  0  0
    7.1520   -0.4580    0.5590 C   0  0  1  0  0  0  0  0  0  0  0  0
    8.1540   -1.5600    0.4750 C   0  0  0  0  0  0  0  0  0  0  0  0
    8.6200   -1.0400   -0.8560 C   0  0  0  0  0  0  0  0  0  0  0  0
    7.6680    0.1030   -0.7490 C   0  0  0  0  0  0  0  0  0  0  0  0
    4.6530    0.0090    0.5340 C   0  0  0  0  0  0  0  0  0  0  0  0
    4.7700    1.4000    0.7030 C   0  0  0  0  0  0  0  0  0  0  0  0
    4.8820    2.5930    0.8300 N   0  0  0  0  0  0  0  0  0  0  0  0
  1  2  1  0
  2  3  2  3
  2 19  1  0
  3  4  1  0
  4  5  1  0
  4  6  1  0
  6  7  2  3
  7  8  1  0
  8  9  2  0
  8 17  1  0
 10  9  1  1
  9 13  1  0
 10 11  1  0
 10 12  1  0
 11 12  1  0
 13 14  2  0
 14 15  1  0
 15 16  1  0
 16 17  1  0
 17 18  2  0
 19 20  1  0
 20 21  1  0
 21 22  1  0
 21 29  2  0
 22 23  1  0
 23 24  2  0
 25 24  1  6
 24 29  1  0
 25 26  1  0
 25 28  1  0
 26 27  1  0
 27 28  1  0
 29 30  1  0
 30 31  3  0
M  CHG  1  14   1
M  END
