
     RDKit          3D

 30 32  0  0  0  0  0  0  0  0999 V2000
   -6.3350   -1.0250    1.6410 C   0  0  0  0  0  0  0  0  0  0  0  0
   -5.5140   -2.0340    0.8900 C   0  0  0  0  0  0  0  0  0  0  0  0
   -5.5630   -1.8410   -0.5890 C   0  0  0  0  0  0  0  0  0  0  0  0
   -5.0010   -0.5570   -1.0950 C   0  0  0  0  0  0  0  0  0  0  0  0
   -3.6020   -0.3660   -0.8270 N   0  0  0  0  0  0  0  0  0  0  0  0
   -2.6520   -0.9140   -1.8040 C   0  0  0  0  0  0  0  0  0  0  0  0
   -3.1240    0.3060    0.3020 C   0  0  0  0  0  0  0  0  0  0  0  0
   -3.8910    0.8350    1.1340 O   0  0  0  0  0  0  0  0  0  0  0  0
   -1.6930    0.4200    0.5660 N   0  0  0  0  0  0  0  0  0  0  0  0
   -1.2840    1.1130    1.7320 C   0  0  0  0  0  0  0  0  0  0  0  0
   -2.0770    1.7310    2.6440 N   0  0  0  0  0  0  0  0  0  0  0  0
   -1.3430    2.2760    3.5900 N   0  0  0  0  0  0  0  0  0  0  0  0
   -0.0380    2.0510    3.3620 C   0  0  0  0  0  0  0  0  0  0  0  0
    1.2190    2.2330    3.7940 N   0  0  0  0  0  0  0  0  0  0  0  0
    2.0170    1.6400    2.9280 N   0  0  0  0  0  0  0  0  0  0  0  0
    1.3090    1.0690    1.9350 C   0  0  0  0  0  0  0  0  0  0  0  0
    1.9410    0.3180    0.8190 C   0  0  2  0  0  0  0  0  0  0  0  0
    1.6630    0.8720   -0.5190 C   0  0  0  0  0  0  0  0  0  0  0  0
    1.3300   -1.0910    0.8630 C   0  0  0  0  0  0  0  0  0  0  0  0
    3.4070    0.1280    1.0880 C   0  0  0  0  0  0  0  0  0  0  0  0
    4.1140   -0.5920    0.0810 N   0  0  0  0  0  0  0  0  0  0  0  0
    4.4750   -0.1520   -1.2130 C   0  0  0  0  0  0  0  0  0  0  0  0
    4.4140   -0.9930   -2.2050 C   0  0  0  0  0  0  0  0  0  0  0  0
    3.9850   -2.3770   -2.0200 C   0  0  0  0  0  0  0  0  0  0  0  0
    3.6450   -3.4410   -1.8950 N   0  0  0  0  0  0  0  0  0  0  0  0
    4.7870   -0.5620   -3.5370 C   0  0  0  0  0  0  0  0  0  0  0  0
    5.1910    0.6600   -3.8000 C   0  0  0  0  0  0  0  0  0  0  0  0
    5.2940    1.6870   -2.7650 C   0  0  0  0  0  0  0  0  0  0  0  0
    4.9440    1.1550   -1.4790 N   0  0  0  0  0  0  0  0  0  0  0  0
   -0.0010    1.3070    2.1720 C   0  0  0  0  0  0  0  0  0  0  0  0
  1  2  1  0
  2  3  1  0
  3  4  1  0
  4  5  1  0
  5  6  1  0
  5  7  1  0
  7  8  2  0
  7  9  1  0
  9 10  1  0
 10 11  2  0
 10 30  1  0
 11 12  1  0
 12 13  1  0
 13 14  1  0
 13 30  2  0
 14 15  1  0
 15 16  2  0
 16 17  1  0
 16 30  1  0
 17 18  1  6
 17 19  1  0
 17 20  1  0
 20 21  1  0
 21 22  1  0
 22 23  2  0
 22 29  1  0
 23 24  1  0
 23 26  1  0
 24 25  3  0
 26 27  2  0
 27 28  1  0
 28 29  1  0
M  CHG  1  15   1
M  END
