
     RDKit          3D

 31 34  0  0  0  0  0  0  0  0999 V2000
    9.5850    0.4590   -0.8660 C   0  0  0  0  0  0  0  0  0  0  0  0
    8.4030    1.0640   -0.6860 C   0  0  0  0  0  0  0  0  0  0  0  0
    8.2430    2.0480    0.3210 N   0  0  0  0  0  0  0  0  0  0  0  0
    8.5070    1.8750    1.5660 C   0  0  0  0  0  0  0  0  0  0  0  0
    8.9950    0.6330    2.0270 N   0  0  0  0  0  0  0  0  0  0  0  0
    7.3520    0.6710   -1.5500 N   0  0  0  0  0  0  0  0  0  0  0  0
    6.1350    0.1440   -1.0570 C   0  0  0  0  0  0  0  0  0  0  0  0
    5.0950   -0.2460   -1.8470 N   0  0  0  0  0  0  0  0  0  0  0  0
    4.0800   -0.7030   -1.0870 C   0  0  0  0  0  0  0  0  0  0  0  0
    2.8510   -1.1900   -1.3540 N   0  0  0  0  0  0  0  0  0  0  0  0
    2.0060   -1.5770   -0.3880 C   0  0  0  0  0  0  0  0  0  0  0  0
    0.6600   -2.0860   -0.7380 C   0  0  0  0  0  0  0  0  0  0  0  0
   -0.3750   -1.1460   -0.3080 N   0  0  0  0  0  0  0  0  0  0  0  0
   -1.7350   -1.3260   -0.6900 C   0  0  0  0  0  0  0  0  0  0  0  0
   -2.0390   -2.3000   -1.4100 O   0  0  0  0  0  0  0  0  0  0  0  0
   -2.7270   -0.4310   -0.2740 N   0  0  0  0  0  0  0  0  0  0  0  0
   -4.0970   -0.5370   -0.6280 C   0  0  0  0  0  0  0  0  0  0  0  0
   -4.7020   -1.4520   -1.4480 C   0  0  0  0  0  0  0  0  0  0  0  0
   -6.0040   -1.1700   -1.5010 N   0  0  0  0  0  0  0  0  0  0  0  0
   -6.2970   -0.0930   -0.7440 N   0  0  0  0  0  0  0  0  0  0  0  0
   -7.6560    0.4590   -0.6430 C   0  0  1  0  0  0  0  0  0  0  0  0
   -8.2400    0.5360   -2.0770 C   0  0  0  0  0  0  0  0  0  0  0  0
   -8.5100   -0.4640    0.1550 C   0  0  0  0  0  0  0  0  0  0  0  0
   -5.1480    0.3070   -0.2020 C   0  0  0  0  0  0  0  0  0  0  0  0
   -4.8790    1.4460    0.6770 C   0  0  1  0  0  0  0  0  0  0  0  0
   -5.9460    2.1030    1.5210 C   0  0  0  0  0  0  0  0  0  0  0  0
   -4.8030    1.3570    2.1740 C   0  0  0  0  0  0  0  0  0  0  0  0
    2.4230   -1.4700    0.9230 C   0  0  0  0  0  0  0  0  0  0  0  0
    3.6720   -0.9770    1.2420 C   0  0  0  0  0  0  0  0  0  0  0  0
    4.5030   -0.5910    0.2120 C   0  0  0  0  0  0  0  0  0  0  0  0
    5.7650   -0.0720    0.2160 N   0  0  0  0  0  0  0  0  0  0  0  0
  1  2  2  0
  2  3  1  0
  2  6  1  0
  3  4  2  3
  4  5  1  0
  6  7  1  0
  7  8  2  0
  7 31  1  0
  8  9  1  0
  9 10  2  0
  9 30  1  0
 10 11  1  0
 11 12  1  0
 11 28  2  0
 12 13  1  0
 13 14  1  0
 14 15  2  0
 14 16  1  0
 16 17  1  0
 17 18  1  0
 17 24  2  0
 18 19  2  0
 19 20  1  0
 20 21  1  0
 20 24  1  0
 21 22  1  6
 21 23  1  0
 25 24  1  6
 25 26  1  0
 25 27  1  0
 26 27  1  0
 28 29  1  0
 29 30  2  0
 30 31  1  0
M  CHG  1   5   1
M  END
