
     RDKit          3D

  8  7  0  0  0  0  0  0  0  0999 V2000
   -0.1170    2.5770    0.0960 N   0  0  0  0  0  0  0  0  0  0  0  0
    0.1480    1.4370   -0.0300 C   0  0  0  0  0  0  0  0  0  0  0  0
    0.4900    0.0550   -0.1970 C   0  0  0  0  0  0  0  0  0  0  0  0
   -0.4670   -0.8430   -0.2440 C   0  0  0  0  0  0  0  0  0  0  0  0
   -1.9060   -0.5000   -0.1330 C   0  0  0  0  0  0  0  0  0  0  0  0
   -2.1490    0.8390    0.0240 O   0  0  0  0  0  0  0  0  0  0  0  0
    1.9100   -0.4010   -0.3190 C   0  0  0  0  0  0  0  0  0  0  0  0
    2.5440   -0.0060    0.8640 O   0  0  0  0  0  0  0  0  0  0  0  0
  1  2  3  0
  2  3  1  0
  3  4  2  3
  3  7  1  0
  4  5  1  0
  5  6  1  0
  7  8  1  0
M  END
