
     RDKit          3D

  8  8  0  0  0  0  0  0  0  0999 V2000
    2.1040    0.9160   -0.4300 C   0  0  0  0  0  0  0  0  0  0  0  0
    1.9840   -0.3450    0.2520 N   0  0  0  0  0  0  0  0  0  0  0  0
    0.7770   -1.0320   -0.0860 C   0  0  0  0  0  0  0  0  0  0  0  0
   -0.4160   -0.3210    0.4570 C   0  0  2  0  0  0  0  0  0  0  0  0
   -1.7050   -0.9920    0.0620 C   0  0  0  0  0  0  0  0  0  0  0  0
   -2.5230    0.0600   -0.3300 O   0  0  0  0  0  0  0  0  0  0  0  0
   -1.9150    1.2040    0.1520 C   0  0  0  0  0  0  0  0  0  0  0  0
   -0.5680    0.9790   -0.0170 O   0  0  0  0  0  0  0  0  0  0  0  0
  1  2  1  0
  2  3  1  0
  4  3  1  6
  4  5  1  0
  4  8  1  0
  5  6  1  0
  6  7  1  0
  7  8  1  0
M  END
