
     RDKit          3D

  8  7  0  0  0  0  0  0  0  0999 V2000
   -2.9340    0.7120    0.2760 C   0  0  0  0  0  0  0  0  0  0  0  0
   -2.0560   -0.4930   -0.0620 C   0  0  0  0  0  0  0  0  0  0  0  0
   -0.6840   -0.0130   -0.0110 N   0  0  0  0  0  0  0  0  0  0  0  0
    0.1610   -1.1150   -0.4290 C   0  0  0  0  0  0  0  0  0  0  0  0
    1.5800   -0.6870   -0.4570 C   0  0  0  0  0  0  0  0  0  0  0  0
    2.4340   -1.5360   -0.8010 O   0  0  0  0  0  0  0  0  0  0  0  0
    2.0040    0.5810   -0.1290 O   0  0  0  0  0  0  0  0  0  0  0  0
    3.3840    0.8940   -0.1870 C   0  0  0  0  0  0  0  0  0  0  0  0
  1  2  1  0
  2  3  1  0
  3  4  1  0
  4  5  1  0
  5  6  2  0
  5  7  1  0
  7  8  1  0
M  CHG  1   3   1
M  END
