
     RDKit          3D

  8  7  0  0  0  0  0  0  0  0999 V2000
   -3.2940    0.2840    0.2430 C   0  0  0  0  0  0  0  0  0  0  0  0
   -2.1640   -0.6210    0.0510 N   0  0  0  0  0  0  0  0  0  0  0  0
   -0.9520   -0.0980    0.6070 C   0  0  0  0  0  0  0  0  0  0  0  0
    0.1740   -0.3960   -0.3790 C   0  0  0  0  0  0  0  0  0  0  0  0
    1.3550    0.1320    0.1990 O   0  0  0  0  0  0  0  0  0  0  0  0
    2.5900    0.0680   -0.3800 C   0  0  0  0  0  0  0  0  0  0  0  0
    3.8250    0.6260    0.2380 C   0  0  0  0  0  0  0  0  0  0  0  0
    2.7000   -0.4960   -1.5040 O   0  0  0  0  0  0  0  0  0  0  0  0
  1  2  1  0
  2  3  1  0
  3  4  1  0
  4  5  1  0
  5  6  1  0
  6  7  1  0
  6  8  2  0
M  CHG  1   2   1
M  END
