
     RDKit          3D

  8  7  0  0  0  0  0  0  0  0999 V2000
   -2.9360    0.2540    0.5590 C   0  0  0  0  0  0  0  0  0  0  0  0
   -1.5370   -0.3010    0.3750 C   0  0  0  0  0  0  0  0  0  0  0  0
   -0.9790    0.0020   -0.9020 N   0  0  0  0  0  0  0  0  0  0  0  0
    0.3970    0.3980   -0.7030 C   0  0  0  0  0  0  0  0  0  0  0  0
    0.5380    1.4320   -0.0840 O   0  0  0  0  0  0  0  0  0  0  0  0
    1.5260   -0.3710   -1.1990 C   0  0  0  0  0  0  0  0  0  0  0  0
    2.7450    0.1480   -0.8450 O   0  0  0  0  0  0  0  0  0  0  0  0
    2.9870    0.1640    0.5080 C   0  0  0  0  0  0  0  0  0  0  0  0
  1  2  1  0
  2  3  1  0
  3  4  1  0
  4  5  2  0
  4  6  1  0
  6  7  1  0
  7  8  1  0
M  CHG  1   3   1
M  END
