
     RDKit          3D

  8  7  0  0  0  0  0  0  0  0999 V2000
   -0.0210    2.3830    0.6120 C   0  0  0  0  0  0  0  0  0  0  0  0
   -0.1210    1.0870    0.5110 C   0  0  0  0  0  0  0  0  0  0  0  0
   -1.1300    0.3310    1.1720 N   0  0  0  0  0  0  0  0  0  0  0  0
   -1.9840   -0.5810    0.4540 C   0  0  0  0  0  0  0  0  0  0  0  0
    0.8320    0.3500   -0.3110 C   0  0  0  0  0  0  0  0  0  0  0  0
    1.7530    0.9590   -0.9260 O   0  0  0  0  0  0  0  0  0  0  0  0
    0.7900   -1.0190   -0.4670 O   0  0  0  0  0  0  0  0  0  0  0  0
    1.7510   -1.7040   -1.2870 C   0  0  0  0  0  0  0  0  0  0  0  0
  1  2  2  0
  2  3  1  0
  2  5  1  0
  3  4  1  0
  5  6  2  0
  5  7  1  0
  7  8  1  0
M  END
