
     RDKit          3D

  8  8  0  0  0  0  0  0  0  0999 V2000
   -1.8870    0.3670    0.1070 C   0  0  0  0  0  0  0  0  0  0  0  0
   -0.4830    0.1670   -0.1450 N   0  0  0  0  0  0  0  0  0  0  0  0
    0.4270    1.2590   -0.0630 C   0  0  0  0  0  0  0  0  0  0  0  0
    1.7060    1.0530    0.2090 C   0  0  0  0  0  0  0  0  0  0  0  0
    2.1340   -0.2510    0.4120 O   0  0  0  0  0  0  0  0  0  0  0  0
    1.2640   -1.3260    0.3370 C   0  0  0  0  0  0  0  0  0  0  0  0
    1.4780   -2.4230    0.9320 O   0  0  0  0  0  0  0  0  0  0  0  0
    0.0410   -1.1400   -0.4860 C   0  0  0  0  0  0  0  0  0  0  0  0
  1  2  1  0
  2  3  1  0
  2  8  1  0
  3  4  2  0
  4  5  1  0
  5  6  1  0
  6  7  2  0
  6  8  1  0
M  END
