
     RDKit          3D

  8  7  0  0  0  0  0  0  0  0999 V2000
   -2.3770    1.6740    0.1770 C   0  0  0  0  0  0  0  0  0  0  0  0
   -2.4540    0.4410   -0.1650 N   0  0  0  0  0  0  0  0  0  0  0  0
   -1.4210   -0.5030    0.0650 C   0  0  0  0  0  0  0  0  0  0  0  0
   -1.7110   -1.6580    0.7680 O   0  0  0  0  0  0  0  0  0  0  0  0
   -0.2020   -0.2640   -0.3970 C   0  0  0  0  0  0  0  0  0  0  0  0
    0.8920   -1.2280   -0.1730 C   0  0  0  0  0  0  0  0  0  0  0  0
    1.9570   -0.6850    0.5420 O   0  0  0  0  0  0  0  0  0  0  0  0
    2.5270    0.4020   -0.1060 C   0  0  0  0  0  0  0  0  0  0  0  0
  1  2  2  0
  2  3  1  0
  3  4  1  0
  3  5  2  3
  5  6  1  0
  6  7  1  0
  7  8  1  0
M  END
