
     RDKit          3D

 28 30  0  0  0  0  0  0  0  0999 V2000
   -3.4190   -1.5520    1.2100 O   0  0  0  0  0  0  0  0  0  0  0  0
   -2.7950   -0.6750    0.5510 C   0  0  0  0  0  0  0  0  0  0  0  0
   -3.4760    0.3210   -0.1480 N   0  0  0  0  0  0  0  0  0  0  0  0
   -4.9120    0.3920   -0.1680 C   0  0  0  0  0  0  0  0  0  0  0  0
   -5.5080    1.4100    0.4780 C   0  0  0  0  0  0  0  0  0  0  0  0
   -4.7290    2.4380    1.1930 C   0  0  0  0  0  0  0  0  0  0  0  0
   -5.0940    2.4260    2.5370 F   0  0  0  0  0  0  0  0  0  0  0  0
   -5.7500   -0.5630   -0.8470 C   0  0  0  0  0  0  0  0  0  0  0  0
   -7.1330   -0.4060   -0.7790 O   0  0  0  0  0  0  0  0  0  0  0  0
   -5.2880   -1.5800   -1.5310 C   0  0  0  0  0  0  0  0  0  0  0  0
   -3.9550   -1.7880   -1.6400 F   0  0  0  0  0  0  0  0  0  0  0  0
   -6.1480   -2.4610   -2.1560 F   0  0  0  0  0  0  0  0  0  0  0  0
   -1.3190   -0.7670    0.5650 C   0  0  0  0  0  0  0  0  0  0  0  0
   -0.5510   -1.7150    1.2260 C   0  0  0  0  0  0  0  0  0  0  0  0
    0.7820   -1.4690    1.0000 C   0  0  0  0  0  0  0  0  0  0  0  0
    1.9500   -2.0160    1.3550 N   0  0  0  0  0  0  0  0  0  0  0  0
    3.1000   -1.5330    0.9640 N   0  0  0  0  0  0  0  0  0  0  0  0
    3.2100   -0.4300    0.1590 C   0  0  0  0  0  0  0  0  0  0  0  0
    4.5760   -0.0090   -0.1960 C   0  0  0  0  0  0  0  0  0  0  0  0
    5.6580   -0.7370    0.2940 C   0  0  0  0  0  0  0  0  0  0  0  0
    6.9550   -0.4070    0.0080 C   0  0  0  0  0  0  0  0  0  0  0  0
    7.2060    0.6860   -0.7940 C   0  0  0  0  0  0  0  0  0  0  0  0
    6.1810    1.4350   -1.3020 C   0  0  0  0  0  0  0  0  0  0  0  0
    4.8750    1.0640   -0.9850 C   0  0  0  0  0  0  0  0  0  0  0  0
    3.8730    1.8440   -1.5170 O   0  0  0  0  0  0  0  0  0  0  0  0
    2.0700    0.1760   -0.2410 C   0  0  0  0  0  0  0  0  0  0  0  0
    0.8130   -0.2920    0.1440 C   0  0  0  0  0  0  0  0  0  0  0  0
   -0.4500    0.0630   -0.0690 N   0  0  0  0  0  0  0  0  0  0  0  0
  1  2  2  0
  2  3  1  0
  2 13  1  0
  3  4  1  0
  4  5  2  3
  4  8  1  0
  5  6  1  0
  6  7  1  0
  8  9  1  0
  8 10  2  3
 10 11  1  0
 10 12  1  0
 13 14  1  0
 13 28  2  0
 14 15  2  0
 15 16  1  0
 15 27  1  0
 16 17  1  0
 17 18  2  0
 18 19  1  0
 18 26  1  0
 19 20  2  0
 19 24  1  0
 20 21  1  0
 21 22  2  0
 22 23  1  0
 23 24  2  0
 24 25  1  0
 26 27  2  0
 27 28  1  0
M  END
