
     RDKit          3D

 27 29  0  0  0  0  0  0  0  0999 V2000
    8.8550   -0.3350   -0.0810 C   0  0  0  0  0  0  0  0  0  0  0  0
    7.5170    0.0920    0.0630 O   0  0  0  0  0  0  0  0  0  0  0  0
    6.4250   -0.6750   -0.2550 C   0  0  0  0  0  0  0  0  0  0  0  0
    6.6070   -1.8340   -0.7040 O   0  0  0  0  0  0  0  0  0  0  0  0
    5.0590   -0.1960   -0.0910 C   0  0  0  0  0  0  0  0  0  0  0  0
    3.8970   -0.8680   -0.3740 C   0  0  0  0  0  0  0  0  0  0  0  0
    2.8000   -0.0510   -0.0740 C   0  0  0  0  0  0  0  0  0  0  0  0
    1.4320   -0.4200   -0.2410 N   0  0  0  0  0  0  0  0  0  0  0  0
    0.3410    0.4310    0.0730 C   0  0  0  0  0  0  0  0  0  0  0  0
    0.5540    1.5690    0.5220 O   0  0  0  0  0  0  0  0  0  0  0  0
   -1.0140    0.0100   -0.1140 N   0  0  0  0  0  0  0  0  0  0  0  0
   -2.1490    0.7970    0.1710 C   0  0  0  0  0  0  0  0  0  0  0  0
   -2.1580    2.1680    0.3480 C   0  0  0  0  0  0  0  0  0  0  0  0
   -3.4610    2.5590    0.4870 C   0  0  0  0  0  0  0  0  0  0  0  0
   -3.8440    3.9890    0.6960 C   0  0  0  0  0  0  0  0  0  0  0  0
   -4.2490    1.5100    0.4060 N   0  0  0  0  0  0  0  0  0  0  0  0
   -3.4510    0.3870    0.2100 C   0  0  0  0  0  0  0  0  0  0  0  0
   -4.0100   -0.9390    0.0540 C   0  0  0  0  0  0  0  0  0  0  0  0
   -5.3510   -1.0450   -0.3190 C   0  0  0  0  0  0  0  0  0  0  0  0
   -5.9740   -2.2680   -0.4220 C   0  0  0  0  0  0  0  0  0  0  0  0
   -5.2950   -3.4410   -0.1590 C   0  0  0  0  0  0  0  0  0  0  0  0
   -5.9150   -4.6560   -0.2630 F   0  0  0  0  0  0  0  0  0  0  0  0
   -3.9790   -3.3530    0.2090 C   0  0  0  0  0  0  0  0  0  0  0  0
   -3.3040   -4.4920    0.4690 F   0  0  0  0  0  0  0  0  0  0  0  0
   -3.3580   -2.0940    0.3100 C   0  0  0  0  0  0  0  0  0  0  0  0
    3.3410    1.1240    0.3940 C   0  0  0  0  0  0  0  0  0  0  0  0
    4.6830    1.0050    0.3710 N   0  0  0  0  0  0  0  0  0  0  0  0
  1  2  1  0
  2  3  1  0
  3  4  2  0
  3  5  1  0
  5  6  2  0
  5 27  1  0
  6  7  1  0
  7  8  1  0
  7 26  2  0
  8  9  1  0
  9 10  2  0
  9 11  1  0
 11 12  1  0
 12 13  1  0
 12 17  2  0
 13 14  2  0
 14 15  1  0
 14 16  1  0
 16 17  1  0
 17 18  1  0
 18 19  2  0
 18 25  1  0
 19 20  1  0
 20 21  2  0
 21 22  1  0
 21 23  1  0
 23 24  1  0
 23 25  2  0
 26 27  1  0
M  END
