
     RDKit          3D

 28 30  0  0  0  0  0  0  0  0999 V2000
   -3.4430   -1.3560   -3.6570 C   0  0  0  0  0  0  0  0  0  0  0  0
   -3.3610   -1.0530   -2.2800 O   0  0  0  0  0  0  0  0  0  0  0  0
   -2.1520   -0.7750   -1.6540 C   0  0  0  0  0  0  0  0  0  0  0  0
   -1.0050   -0.8060   -2.4450 C   0  0  0  0  0  0  0  0  0  0  0  0
    0.1810   -0.5280   -1.8060 C   0  0  0  0  0  0  0  0  0  0  0  0
    0.2790   -0.2300   -0.4650 C   0  0  0  0  0  0  0  0  0  0  0  0
    1.5880    0.0550    0.1380 C   0  0  0  0  0  0  0  0  0  0  0  0
    1.7110    0.3480    1.4440 N   0  0  0  0  0  0  0  0  0  0  0  0
    2.8970    0.6140    2.0250 C   0  0  0  0  0  0  0  0  0  0  0  0
    4.0340    0.5830    1.2410 C   0  0  0  0  0  0  0  0  0  0  0  0
    5.2910    0.8440    1.7570 C   0  0  0  0  0  0  0  0  0  0  0  0
    5.3900    1.1370    3.0790 F   0  0  0  0  0  0  0  0  0  0  0  0
    6.3820    0.7950    0.9150 C   0  0  0  0  0  0  0  0  0  0  0  0
    6.2650    0.4970   -0.4210 C   0  0  0  0  0  0  0  0  0  0  0  0
    7.2980    0.4680   -1.1380 O   0  0  0  0  0  0  0  0  0  0  0  0
    5.0330    0.2460   -0.9040 N   0  0  0  0  0  0  0  0  0  0  0  0
    3.9340    0.2850   -0.1030 C   0  0  0  0  0  0  0  0  0  0  0  0
    2.7030    0.0340   -0.5900 N   0  0  0  0  0  0  0  0  0  0  0  0
   -0.8820   -0.2120    0.2740 C   0  0  0  0  0  0  0  0  0  0  0  0
   -2.0920   -0.4820   -0.3130 C   0  0  0  0  0  0  0  0  0  0  0  0
   -3.2450   -0.4630    0.4240 O   0  0  0  0  0  0  0  0  0  0  0  0
   -3.2980   -0.1800    1.7800 C   0  0  0  0  0  0  0  0  0  0  0  0
   -3.8620    1.0520    2.2830 C   0  0  0  0  0  0  0  0  0  0  0  0
   -4.3440    1.9430    1.4400 C   0  0  0  0  0  0  0  0  0  0  0  0
   -4.3020    1.6790    0.0600 N   0  0  0  0  0  0  0  0  0  0  0  0
   -2.8180   -1.0660    2.6200 C   0  0  0  0  0  0  0  0  0  0  0  0
   -2.8720   -0.7850    3.9540 F   0  0  0  0  0  0  0  0  0  0  0  0
   -2.2860   -2.2270    2.1630 F   0  0  0  0  0  0  0  0  0  0  0  0
  1  2  1  0
  2  3  1  0
  3  4  2  0
  3 20  1  0
  4  5  1  0
  5  6  2  0
  6  7  1  0
  6 19  1  0
  7  8  2  0
  7 18  1  0
  8  9  1  0
  9 10  2  0
 10 11  1  0
 10 17  1  0
 11 12  1  0
 11 13  2  0
 13 14  1  0
 14 15  2  0
 14 16  1  0
 16 17  1  0
 17 18  2  0
 19 20  2  0
 20 21  1  0
 21 22  1  0
 22 23  1  0
 22 26  2  3
 23 24  2  3
 24 25  1  0
 26 27  1  0
 26 28  1  0
M  END
