
     RDKit          3D

 28 30  0  0  0  0  0  0  0  0999 V2000
    0.6860    1.4530    0.7010 C   0  0  0  0  0  0  0  0  0  0  0  0
    0.9000    0.1080    0.1630 N   0  0  0  0  0  0  0  0  0  0  0  0
   -0.2510   -0.6950   -0.1390 C   0  0  0  0  0  0  0  0  0  0  0  0
   -0.0580   -1.7700   -0.7140 O   0  0  0  0  0  0  0  0  0  0  0  0
   -1.5210   -0.2540    0.2160 N   0  0  0  0  0  0  0  0  0  0  0  0
   -2.7360   -0.9280   -0.0170 C   0  0  0  0  0  0  0  0  0  0  0  0
   -2.8050   -2.2180   -0.4970 C   0  0  0  0  0  0  0  0  0  0  0  0
   -4.0130   -2.8900   -0.6620 C   0  0  0  0  0  0  0  0  0  0  0  0
   -5.1930   -2.2860   -0.3510 C   0  0  0  0  0  0  0  0  0  0  0  0
   -5.1340   -0.9780    0.1350 C   0  0  0  0  0  0  0  0  0  0  0  0
   -6.3370   -0.3820    0.4420 O   0  0  0  0  0  0  0  0  0  0  0  0
   -3.9550   -0.3130    0.3000 C   0  0  0  0  0  0  0  0  0  0  0  0
   -3.9900    1.0590    0.7510 C   0  0  0  0  0  0  0  0  0  0  0  0
   -3.6700    2.2420   -0.0630 C   0  0  0  0  0  0  0  0  0  0  0  0
   -4.5250    2.2000   -1.1660 F   0  0  0  0  0  0  0  0  0  0  0  0
   -4.4160    1.2710    2.0130 C   0  0  0  0  0  0  0  0  0  0  0  0
   -4.4630    2.5300    2.4730 F   0  0  0  0  0  0  0  0  0  0  0  0
   -4.7770    0.2580    2.8240 F   0  0  0  0  0  0  0  0  0  0  0  0
    2.2220   -0.3700   -0.0610 C   0  0  0  0  0  0  0  0  0  0  0  0
    3.3870    0.3670   -0.0600 C   0  0  0  0  0  0  0  0  0  0  0  0
    4.4890   -0.4660   -0.2960 C   0  0  0  0  0  0  0  0  0  0  0  0
    5.8870   -0.0500   -0.3510 C   0  0  0  0  0  0  0  0  0  0  0  0
    6.3340    1.2480   -0.2180 C   0  0  0  0  0  0  0  0  0  0  0  0
    7.7090    1.2260   -0.3130 C   0  0  0  0  0  0  0  0  0  0  0  0
    8.0790   -0.0360   -0.4960 O   0  0  0  0  0  0  0  0  0  0  0  0
    7.0100   -0.8190   -0.5220 C   0  0  0  0  0  0  0  0  0  0  0  0
    3.9480   -1.6880   -0.4340 N   0  0  0  0  0  0  0  0  0  0  0  0
    2.6250   -1.6310   -0.2970 N   0  0  0  0  0  0  0  0  0  0  0  0
  1  2  1  0
  2  3  1  0
  2 19  1  0
  3  4  2  0
  3  5  1  0
  5  6  1  0
  6  7  2  0
  6 12  1  0
  7  8  1  0
  8  9  2  0
  9 10  1  0
 10 11  1  0
 10 12  2  0
 12 13  1  0
 13 14  1  0
 13 16  2  3
 14 15  1  0
 16 17  1  0
 16 18  1  0
 19 20  1  0
 19 28  2  0
 20 21  2  0
 21 22  1  0
 21 27  1  0
 22 23  1  0
 22 26  2  0
 23 24  2  0
 24 25  1  0
 25 26  1  0
 27 28  1  0
M  END
