
     RDKit          3D

 28 30  0  0  0  0  0  0  0  0999 V2000
   -6.4340    3.0090   -0.2870 C   0  0  0  0  0  0  0  0  0  0  0  0
   -6.4370    1.6210   -0.4130 O   0  0  0  0  0  0  0  0  0  0  0  0
   -5.3000    0.8310   -0.3500 C   0  0  0  0  0  0  0  0  0  0  0  0
   -4.0500    1.3810   -0.1530 C   0  0  0  0  0  0  0  0  0  0  0  0
   -2.9100    0.5740   -0.0910 C   0  0  0  0  0  0  0  0  0  0  0  0
   -3.0000   -0.7840   -0.2240 C   0  0  0  0  0  0  0  0  0  0  0  0
   -1.9270   -1.7010   -0.1800 N   0  0  0  0  0  0  0  0  0  0  0  0
   -0.5610   -1.4010    0.0080 C   0  0  0  0  0  0  0  0  0  0  0  0
   -0.2320   -0.2270    0.1530 O   0  0  0  0  0  0  0  0  0  0  0  0
    0.4450   -2.3960    0.0370 N   0  0  0  0  0  0  0  0  0  0  0  0
    1.8220   -2.2030    0.2140 C   0  0  0  0  0  0  0  0  0  0  0  0
    2.5900   -3.3650    0.3750 C   0  0  0  0  0  0  0  0  0  0  0  0
    3.9440   -3.2720    0.5440 C   0  0  0  0  0  0  0  0  0  0  0  0
    4.5510   -2.0360    0.5570 C   0  0  0  0  0  0  0  0  0  0  0  0
    5.8570   -1.6790    0.7070 N   0  0  0  0  0  0  0  0  0  0  0  0
    5.9760   -0.3550    0.6520 C   0  0  0  0  0  0  0  0  0  0  0  0
    4.7110    0.1670    0.4610 C   0  0  0  0  0  0  0  0  0  0  0  0
    4.3410    1.5910    0.3370 C   0  0  0  0  0  0  0  0  0  0  0  0
    5.4560    2.3840    0.4390 O   0  0  0  0  0  0  0  0  0  0  0  0
    5.1100    3.7350    0.3220 C   0  0  1  0  0  0  0  0  0  0  0  0
    4.5080    3.9360   -0.9270 F   0  0  0  0  0  0  0  0  0  0  0  0
    4.1910    4.0670    1.2990 F   0  0  0  0  0  0  0  0  0  0  0  0
    6.2280    4.5430    0.3920 F   0  0  0  0  0  0  0  0  0  0  0  0
    3.8250   -0.8810    0.4020 C   0  0  0  0  0  0  0  0  0  0  0  0
    2.4400   -0.9780    0.2280 C   0  0  0  0  0  0  0  0  0  0  0  0
   -4.2460   -1.2860   -0.4170 N   0  0  0  0  0  0  0  0  0  0  0  0
   -5.3580   -0.5420   -0.4810 C   0  0  0  0  0  0  0  0  0  0  0  0
   -6.6970   -1.1510   -0.6940 C   0  0  0  0  0  0  0  0  0  0  0  0
  1  2  1  0
  2  3  1  0
  3  4  2  0
  3 27  1  0
  4  5  1  0
  5  6  2  0
  6  7  1  0
  6 26  1  0
  7  8  1  0
  8  9  2  0
  8 10  1  0
 10 11  1  0
 11 12  2  0
 11 25  1  0
 12 13  1  0
 13 14  2  0
 14 15  1  0
 14 24  1  0
 15 16  1  0
 16 17  2  0
 17 18  1  0
 17 24  1  0
 18 19  1  0
 19 20  1  0
 20 21  1  6
 20 22  1  0
 20 23  1  0
 24 25  2  0
 26 27  2  0
 27 28  1  0
M  END
