
     RDKit          3D

 35 35  0  0  0  0  0  0  0  0999 V2000
   -5.0080    5.4480   -1.7890 C   0  0  0  0  0  0  0  0  0  0  0  0
   -5.7870    4.5270   -2.7150 C   0  0  0  0  0  0  0  0  0  0  0  0
   -5.1680    3.2340   -2.6640 O   0  0  0  0  0  0  0  0  0  0  0  0
   -5.1380    2.6270   -1.3710 C   0  0  0  0  0  0  0  0  0  0  0  0
   -5.6250    3.2130   -0.4030 O   0  0  0  0  0  0  0  0  0  0  0  0
   -4.5340    1.3750   -1.3170 N   0  0  0  0  0  0  0  0  0  0  0  0
   -4.3280    0.5320   -0.1760 C   0  0  0  0  0  0  0  0  0  0  0  0
   -3.3500    1.0170    0.7870 C   0  0  1  0  0  0  0  0  0  0  0  0
   -3.6920    2.3610    1.4190 C   0  0  0  0  0  0  0  0  0  0  0  0
   -2.7590    0.1350    1.8010 C   0  0  0  0  0  0  0  0  0  0  0  0
   -1.9470   -1.0100    1.5370 N   0  0  0  0  0  0  0  0  0  0  0  0
   -2.2210   -2.3880    1.6910 C   0  0  0  0  0  0  0  0  0  0  0  0
   -2.3970   -3.2530    0.5470 C   0  0  2  0  0  0  0  0  0  0  0  0
   -3.4790   -3.0590   -0.4390 C   0  0  0  0  0  0  0  0  0  0  0  0
   -2.4850   -4.7190    1.0010 C   0  0  0  0  0  0  0  0  0  0  0  0
   -3.5190   -5.3810    0.7540 O   0  0  0  0  0  0  0  0  0  0  0  0
   -1.4120   -5.3330    1.6990 N   0  0  0  0  0  0  0  0  0  0  0  0
   -1.5060   -6.7340    2.1280 C   0  0  0  0  0  0  0  0  0  0  0  0
   -0.5230   -0.6970    1.2890 C   0  0  0  0  0  0  0  0  0  0  0  0
   -0.1160    0.4920    1.3110 O   0  0  0  0  0  0  0  0  0  0  0  0
    0.6380   -2.0320    0.9550 P   0  0  0  0  0  0  0  0  0  0  0  0
    1.2710   -2.6490    2.4430 O   0  0  0  0  0  0  0  0  0  0  0  0
    1.4910   -1.6470    3.3980 C   0  0  0  0  0  0  0  0  0  0  0  0
    1.8850   -1.5670   -0.1570 O   0  0  0  0  0  0  0  0  0  0  0  0
    2.7350   -0.7050    0.5320 C   0  0  0  0  0  0  0  0  0  0  0  0
    3.8300   -0.2960   -0.4600 C   0  0  0  0  0  0  0  0  0  0  0  0
    4.7350    0.6310    0.2610 C   0  0  0  0  0  0  0  0  0  0  0  0
    4.5180    0.9570    1.4540 O   0  0  0  0  0  0  0  0  0  0  0  0
    5.8880    1.1460   -0.4820 C   0  0  0  0  0  0  0  0  0  0  0  0
    6.1710    0.7900   -1.7790 C   0  0  0  0  0  0  0  0  0  0  0  0
    7.2660    1.2840   -2.4630 C   0  0  0  0  0  0  0  0  0  0  0  0
    8.1170    2.1670   -1.8410 C   0  0  0  0  0  0  0  0  0  0  0  0
    9.3100    2.7000   -2.5940 C   0  0  0  0  0  0  0  0  0  0  0  0
    7.8560    2.5400   -0.5420 C   0  0  0  0  0  0  0  0  0  0  0  0
    6.7440    2.0300    0.1310 C   0  0  0  0  0  0  0  0  0  0  0  0
  1  2  1  0
  2  3  1  0
  3  4  1  0
  4  5  2  0
  4  6  1  0
  6  7  1  0
  7  8  1  0
  8  9  1  1
  8 10  1  0
 10 11  1  0
 11 12  1  0
 11 19  1  0
 12 13  1  0
 13 14  1  1
 13 15  1  0
 15 16  2  0
 15 17  1  0
 17 18  1  0
 19 20  2  0
 19 21  1  0
 21 22  1  0
 21 24  1  0
 22 23  1  0
 24 25  1  0
 25 26  1  0
 26 27  1  0
 27 28  2  0
 27 29  1  0
 29 30  2  0
 29 35  1  0
 30 31  1  0
 31 32  2  0
 32 33  1  0
 32 34  1  0
 34 35  2  0
M  END
