
     RDKit          3D

 35 35  0  0  0  0  0  0  0  0999 V2000
    7.5410   -0.4320    2.6430 C   0  0  0  0  0  0  0  0  0  0  0  0
    6.4300   -0.0290    1.6920 C   0  0  0  0  0  0  0  0  0  0  0  0
    5.4910   -1.0200    1.6750 O   0  0  0  0  0  0  0  0  0  0  0  0
    4.1470   -0.7940    0.6590 P   0  0  0  0  0  0  0  0  0  0  0  0
    4.3020   -1.7240   -0.8100 O   0  0  0  0  0  0  0  0  0  0  0  0
    5.6510   -1.7920   -1.2150 C   0  0  0  0  0  0  0  0  0  0  0  0
    3.8720    0.9740    0.1500 C   0  0  1  0  0  0  0  0  0  0  0  0
    5.1650    1.5600    0.0990 O   0  0  0  0  0  0  0  0  0  0  0  0
    3.3500    1.0340   -1.2460 C   0  0  0  0  0  0  0  0  0  0  0  0
    1.9980    0.4710   -1.3670 N   0  0  0  0  0  0  0  0  0  0  0  0
    1.0360    1.2790   -0.7300 C   0  0  0  0  0  0  0  0  0  0  0  0
   -0.3620    0.8500   -0.6600 C   0  0  0  0  0  0  0  0  0  0  0  0
   -1.2710    1.7710   -0.0860 C   0  0  0  0  0  0  0  0  0  0  0  0
   -0.7540    3.0340    0.4570 C   0  0  0  0  0  0  0  0  0  0  0  0
   -2.6210    1.5260    0.0060 C   0  0  0  0  0  0  0  0  0  0  0  0
   -3.4120    2.4680    0.5560 C   0  0  0  0  0  0  0  0  0  0  0  0
   -4.8320    2.3190    0.7020 C   0  0  0  0  0  0  0  0  0  0  0  0
   -5.6220    3.2030    1.2290 C   0  0  0  0  0  0  0  0  0  0  0  0
   -5.2460    4.4820    1.7630 C   0  0  0  0  0  0  0  0  0  0  0  0
   -6.3360    5.3870    2.3460 C   0  0  0  0  0  0  0  0  0  0  0  0
   -4.0810    4.9380    1.7990 O   0  0  0  0  0  0  0  0  0  0  0  0
   -3.0970    0.3320   -0.4810 C   0  0  0  0  0  0  0  0  0  0  0  0
   -2.2670   -0.6010   -1.0440 C   0  0  0  0  0  0  0  0  0  0  0  0
   -2.8470   -1.8290   -1.5260 C   0  0  0  0  0  0  0  0  0  0  0  0
   -3.2120   -1.8440   -2.7440 O   0  0  0  0  0  0  0  0  0  0  0  0
   -3.0390   -3.0050   -0.7440 N   0  0  0  0  0  0  0  0  0  0  0  0
   -3.6510   -4.1930   -1.3360 C   0  0  0  0  0  0  0  0  0  0  0  0
   -2.6520   -3.0720    0.6140 C   0  0  0  0  0  0  0  0  0  0  0  0
   -2.8470   -4.3000    1.4230 C   0  0  0  0  0  0  0  0  0  0  0  0
   -2.1290   -2.0580    1.1340 O   0  0  0  0  0  0  0  0  0  0  0  0
   -0.9000   -0.3200   -1.1210 C   0  0  0  0  0  0  0  0  0  0  0  0
   -0.1430   -1.2980   -1.5610 C   0  0  0  0  0  0  0  0  0  0  0  0
   -0.7260   -2.5290   -2.0530 N   0  0  0  0  0  0  0  0  0  0  0  0
   -0.1380   -3.2010   -2.9790 C   0  0  0  0  0  0  0  0  0  0  0  0
   -0.7200   -4.3640   -3.4220 O   0  0  0  0  0  0  0  0  0  0  0  0
  1  2  1  0
  2  3  1  0
  3  4  1  0
  4  5  1  0
  4  7  1  0
  5  6  1  0
  7  8  1  6
  7  9  1  0
  9 10  1  0
 10 11  1  0
 11 12  1  0
 12 13  2  0
 12 31  1  0
 13 14  1  0
 13 15  1  0
 15 16  2  3
 15 22  1  0
 16 17  1  0
 17 18  2  3
 18 19  1  0
 19 20  1  0
 19 21  2  0
 22 23  2  0
 23 24  1  0
 23 31  1  0
 24 25  2  0
 24 26  1  0
 26 27  1  0
 26 28  1  0
 28 29  1  0
 28 30  2  0
 31 32  2  3
 32 33  1  0
 33 34  2  3
 34 35  1  0
M  END
