
     RDKit          3D

 39 41  0  0  0  0  0  0  0  0999 V2000
   -6.5460   -0.1710   -3.5340 C   0  0  0  0  0  0  0  0  0  0  0  0
   -5.8070   -0.7690   -2.3960 C   0  0  0  0  0  0  0  0  0  0  0  0
   -5.3370   -1.9170   -2.4710 O   0  0  0  0  0  0  0  0  0  0  0  0
   -5.5920   -0.0810   -1.1700 N   0  0  0  0  0  0  0  0  0  0  0  0
   -4.8860   -0.6270   -0.0550 C   0  0  1  0  0  0  0  0  0  0  0  0
   -3.6400    0.2320    0.1510 C   0  0  1  0  0  0  0  0  0  0  0  0
   -2.8050   -0.0300   -0.8890 O   0  0  0  0  0  0  0  0  0  0  0  0
   -1.3730   -0.5750   -0.6990 P   0  0  0  0  0  0  0  0  0  0  0  0
   -2.0450   -2.0990   -0.4820 O   0  0  0  0  0  0  0  0  0  0  0  0
    0.0090   -1.2200   -0.6980 O   0  0  0  0  0  0  0  0  0  0  0  0
   -1.0810    0.3710    0.5760 O   0  0  0  0  0  0  0  0  0  0  0  0
    0.0510    0.1700    1.5920 P   0  0  0  0  0  0  0  0  0  0  0  0
   -0.4700    1.5170    2.4220 O   0  0  0  0  0  0  0  0  0  0  0  0
   -0.6940   -1.3070    1.9850 O   0  0  0  0  0  0  0  0  0  0  0  0
    1.2630    0.2380    0.5720 O   0  0  0  0  0  0  0  0  0  0  0  0
    2.5640    0.3250    0.9740 C   0  0  0  0  0  0  0  0  0  0  0  0
    3.5500    0.3810   -0.1700 C   0  0  1  0  0  0  0  0  0  0  0  0
    4.8460    0.4700    0.3330 O   0  0  0  0  0  0  0  0  0  0  0  0
    5.6200    0.1110   -0.7620 C   0  0  1  0  0  0  0  0  0  0  0  0
    7.0080   -0.0130   -0.4600 N   0  0  0  0  0  0  0  0  0  0  0  0
    7.5170   -1.0260    0.2590 C   0  0  0  0  0  0  0  0  0  0  0  0
    8.8660   -1.1480    0.5530 C   0  0  0  0  0  0  0  0  0  0  0  0
    9.7230   -0.1820    0.0840 C   0  0  0  0  0  0  0  0  0  0  0  0
   10.9630   -0.2580    0.3310 O   0  0  0  0  0  0  0  0  0  0  0  0
    9.2050    0.8270   -0.6350 N   0  0  0  0  0  0  0  0  0  0  0  0
    7.8930    0.9140   -0.9010 C   0  0  0  0  0  0  0  0  0  0  0  0
    7.4440    1.8670   -1.5730 O   0  0  0  0  0  0  0  0  0  0  0  0
    4.9790   -1.1750   -1.2390 C   0  0  2  0  0  0  0  0  0  0  0  0
    5.1910   -1.3380   -2.6210 O   0  0  0  0  0  0  0  0  0  0  0  0
    3.5090   -0.8900   -0.9930 C   0  0  2  0  0  0  0  0  0  0  0  0
    2.8030   -0.7480   -2.1710 O   0  0  0  0  0  0  0  0  0  0  0  0
   -4.0940    1.5500    0.1850 O   0  0  0  0  0  0  0  0  0  0  0  0
   -5.0060    1.7800    1.1950 C   0  0  2  0  0  0  0  0  0  0  0  0
   -4.3720    2.7890    2.1680 C   0  0  0  0  0  0  0  0  0  0  0  0
   -4.0790    3.9810    1.5130 O   0  0  0  0  0  0  0  0  0  0  0  0
   -5.3380    0.5720    2.0060 C   0  0  1  0  0  0  0  0  0  0  0  0
   -6.4700    0.8660    2.7790 O   0  0  0  0  0  0  0  0  0  0  0  0
   -5.6010   -0.6740    1.2320 C   0  0  2  0  0  0  0  0  0  0  0  0
   -5.0230   -1.7300    1.9860 O   0  0  0  0  0  0  0  0  0  0  0  0
  1  2  1  0
  2  3  2  0
  2  4  1  0
  5  4  1  6
  5  6  1  0
  5 38  1  0
  6  7  1  6
  6 32  1  0
  7  8  1  0
  8  9  1  0
  8 10  1  0
  8 11  1  0
 11 12  1  0
 12 13  1  0
 12 14  1  0
 12 15  1  0
 15 16  1  0
 17 16  1  1
 17 18  1  0
 17 30  1  0
 18 19  1  0
 19 20  1  1
 19 28  1  0
 20 21  1  0
 20 26  1  0
 21 22  2  0
 22 23  1  0
 23 24  2  0
 23 25  1  0
 25 26  1  0
 26 27  2  0
 28 29  1  6
 28 30  1  0
 30 31  1  6
 32 33  1  0
 33 34  1  1
 33 36  1  0
 34 35  1  0
 36 37  1  6
 36 38  1  0
 38 39  1  1
M  END
