
     RDKit          3D

 35 35  0  0  0  0  0  0  0  0999 V2000
   -4.3910    2.0880    1.5750 C   0  0  0  0  0  0  0  0  0  0  0  0
   -5.3140    1.6150    0.4990 C   0  0  0  0  0  0  0  0  0  0  0  0
   -4.6290    0.9530   -0.5200 C   0  0  0  0  0  0  0  0  0  0  0  0
   -5.4310    0.6170   -1.6100 C   0  0  0  0  0  0  0  0  0  0  0  0
   -6.8140    0.9170   -1.6510 C   0  0  0  0  0  0  0  0  0  0  0  0
   -3.3520    0.2580   -0.4950 C   0  0  0  0  0  0  0  0  0  0  0  0
   -2.9670   -0.0050   -1.7430 O   0  0  0  0  0  0  0  0  0  0  0  0
   -2.5570   -0.1180    0.5660 N   0  0  0  0  0  0  0  0  0  0  0  0
   -3.0120   -0.5510    1.8410 C   0  0  0  0  0  0  0  0  0  0  0  0
   -2.0540   -0.4750    2.7450 O   0  0  0  0  0  0  0  0  0  0  0  0
   -4.2690   -1.0480    2.2810 C   0  0  0  0  0  0  0  0  0  0  0  0
   -4.4150   -1.2510    3.6210 C   0  0  0  0  0  0  0  0  0  0  0  0
   -5.3740   -1.5930    1.4830 C   0  0  0  0  0  0  0  0  0  0  0  0
   -6.3010   -2.2300    2.3780 O   0  0  0  0  0  0  0  0  0  0  0  0
   -1.0490   -0.2070    0.3830 C   0  0  1  0  0  0  0  0  0  0  0  0
   -0.8870   -1.4760   -0.4810 C   0  0  0  0  0  0  0  0  0  0  0  0
   -1.4320   -2.6960    0.2110 C   0  0  0  0  0  0  0  0  0  0  0  0
   -1.2950   -3.9010   -0.7100 C   0  0  0  0  0  0  0  0  0  0  0  0
   -0.5750    0.9250   -0.4090 C   0  0  0  0  0  0  0  0  0  0  0  0
    0.8150    1.0530   -0.6690 N   0  0  0  0  0  0  0  0  0  0  0  0
    1.9460    1.2530    0.1040 C   0  0  0  0  0  0  0  0  0  0  0  0
    1.5950    1.3310    1.4040 O   0  0  0  0  0  0  0  0  0  0  0  0
    3.2760    1.3970   -0.1760 C   0  0  0  0  0  0  0  0  0  0  0  0
    2.9070    2.3850   -1.5690 C   0  0  0  0  0  0  0  0  0  0  0  0
    3.8060    2.8670   -2.3360 C   0  0  0  0  0  0  0  0  0  0  0  0
    5.1450    2.7420   -2.2550 C   0  0  0  0  0  0  0  0  0  0  0  0
    5.6190    1.9490   -1.1460 C   0  0  0  0  0  0  0  0  0  0  0  0
    6.9580    1.6870   -1.0170 C   0  0  0  0  0  0  0  0  0  0  0  0
    7.7230    2.3440   -1.9890 O   0  0  0  0  0  0  0  0  0  0  0  0
    7.8740    0.9670   -0.2630 N   0  0  0  0  0  0  0  0  0  0  0  0
    9.1940    0.8890   -0.4150 O   0  0  0  0  0  0  0  0  0  0  0  0
    9.6280   -0.4190   -0.1680 C   0  0  0  0  0  0  0  0  0  0  0  0
    4.5370    1.5370   -0.4740 C   0  0  0  0  0  0  0  0  0  0  0  0
    5.0800    0.6810    0.7310 O   0  0  0  0  0  0  0  0  0  0  0  0
    4.9630   -0.7100    0.4780 C   0  0  0  0  0  0  0  0  0  0  0  0
  1  2  2  0
  2  3  1  0
  3  4  2  3
  3  6  1  0
  4  5  1  0
  6  7  2  0
  6  8  1  0
  8  9  1  0
  8 15  1  0
  9 10  2  0
  9 11  1  0
 11 12  2  0
 11 13  1  0
 13 14  1  0
 15 16  1  6
 15 19  1  0
 16 17  1  0
 17 18  1  0
 19 20  1  0
 20 21  1  0
 21 22  2  0
 21 23  1  0
 23 24  2  0
 23 33  1  0
 24 25  1  0
 25 26  2  0
 26 27  1  0
 27 28  1  0
 27 33  2  0
 28 29  2  0
 28 30  1  0
 30 31  1  0
 31 32  1  0
 33 34  1  0
 34 35  1  0
M  END
