
     RDKit          3D

 35 35  0  0  0  0  0  0  0  0999 V2000
    1.8400    1.3830    4.8540 C   0  0  0  0  0  0  0  0  0  0  0  0
    2.2300    1.6620    3.6240 C   0  0  0  0  0  0  0  0  0  0  0  0
    3.3360    0.9570    3.0250 C   0  0  0  0  0  0  0  0  0  0  0  0
    3.7230    1.2430    1.7870 C   0  0  0  0  0  0  0  0  0  0  0  0
    3.0350    2.2370    1.0790 N   0  0  0  0  0  0  0  0  0  0  0  0
    2.2820    2.1740   -0.1070 C   0  0  0  0  0  0  0  0  0  0  0  0
    0.9980    1.3910    0.0030 C   0  0  0  0  0  0  0  0  0  0  0  0
    0.6310    0.8340    1.0510 O   0  0  0  0  0  0  0  0  0  0  0  0
    0.1430    1.2610   -1.1170 N   0  0  0  0  0  0  0  0  0  0  0  0
   -1.1160    0.5080   -1.0510 C   0  0  0  0  0  0  0  0  0  0  0  0
   -2.1670    1.2140   -1.2220 C   0  0  0  0  0  0  0  0  0  0  0  0
   -2.0530    2.6850   -1.4600 C   0  0  0  0  0  0  0  0  0  0  0  0
   -0.9620    3.2920   -1.4930 O   0  0  0  0  0  0  0  0  0  0  0  0
   -3.2410    3.4620   -1.6650 N   0  0  0  0  0  0  0  0  0  0  0  0
   -4.5110    2.7820   -1.6340 C   0  0  0  0  0  0  0  0  0  0  0  0
   -3.1810    4.8830   -1.8950 C   0  0  0  0  0  0  0  0  0  0  0  0
   -0.9660   -0.8870   -0.8150 C   0  0  0  0  0  0  0  0  0  0  0  0
    0.3530   -1.2600   -0.6970 O   0  0  0  0  0  0  0  0  0  0  0  0
   -1.7730   -2.0450   -0.6610 C   0  0  0  0  0  0  0  0  0  0  0  0
   -1.0840   -3.1930   -0.4560 C   0  0  0  0  0  0  0  0  0  0  0  0
   -1.5830   -4.5140   -0.2730 C   0  0  0  0  0  0  0  0  0  0  0  0
   -1.1650   -5.3250    0.7930 C   0  0  0  0  0  0  0  0  0  0  0  0
   -1.8110   -6.5330    0.6990 C   0  0  0  0  0  0  0  0  0  0  0  0
   -2.6040   -6.4310   -0.4170 C   0  0  0  0  0  0  0  0  0  0  0  0
   -2.4360   -5.2500   -0.9400 O   0  0  0  0  0  0  0  0  0  0  0  0
   -3.1850   -2.1610   -0.6290 C   0  0  0  0  0  0  0  0  0  0  0  0
   -3.7240   -3.3190   -0.3920 O   0  0  0  0  0  0  0  0  0  0  0  0
   -4.1040   -1.1540   -0.8270 O   0  0  0  0  0  0  0  0  0  0  0  0
   -5.4940   -1.3580   -0.7780 C   0  0  0  0  0  0  0  0  0  0  0  0
    4.8400    0.5210    1.2500 C   0  0  0  0  0  0  0  0  0  0  0  0
    5.3840    0.6680    0.0590 C   0  0  0  0  0  0  0  0  0  0  0  0
    6.5160   -0.1130   -0.3970 C   0  0  0  0  0  0  0  0  0  0  0  0
    6.9990    0.0980   -1.6060 C   0  0  0  0  0  0  0  0  0  0  0  0
    5.6580   -0.7760    2.3020 P   0  0  0  0  0  0  0  0  0  0  0  0
    5.8600   -2.2190    1.8100 O   0  0  0  0  0  0  0  0  0  0  0  0
  1  2  2  0
  2  3  1  0
  3  4  2  3
  4  5  1  0
  4 30  1  0
  5  6  1  0
  6  7  1  0
  7  8  2  0
  7  9  1  0
  9 10  1  0
 10 11  2  3
 10 17  1  0
 11 12  1  0
 12 13  2  0
 12 14  1  0
 14 15  1  0
 14 16  1  0
 17 18  2  0
 17 19  1  0
 19 20  2  3
 19 26  1  0
 20 21  1  0
 21 22  2  0
 21 25  1  0
 22 23  1  0
 23 24  2  0
 24 25  1  0
 26 27  2  0
 26 28  1  0
 28 29  1  0
 30 31  2  3
 30 34  1  0
 31 32  1  0
 32 33  2  0
 34 35  2  0
M  END
