
     RDKit          3D

 16 16  0  0  0  0  0  0  0  0999 V2000
    5.8990   -0.1570   -1.2450 C   0  0  0  0  0  0  0  0  0  0  0  0
    4.9780   -0.5120   -0.1340 C   0  0  0  0  0  0  0  0  0  0  0  0
    3.7030   -0.7990   -0.3660 C   0  0  0  0  0  0  0  0  0  0  0  0
    2.7710   -1.1550    0.7340 C   0  0  0  0  0  0  0  0  0  0  0  0
    1.6560   -0.1610    0.7590 C   0  0  1  0  0  0  0  0  0  0  0  0
    0.8400   -0.0820   -0.4870 C   0  0  0  0  0  0  0  0  0  0  0  0
   -0.0520    1.1350   -0.4020 C   0  0  0  0  0  0  0  0  0  0  0  0
   -0.8730    1.2120    0.8370 C   0  0  1  0  0  0  0  0  0  0  0  0
   -2.0960    0.3580    0.7280 C   0  0  0  0  0  0  0  0  0  0  0  0
   -2.3410   -0.5910    1.5090 O   0  0  0  0  0  0  0  0  0  0  0  0
   -3.0190    0.6050   -0.2710 O   0  0  0  0  0  0  0  0  0  0  0  0
   -4.1710   -0.1580   -0.4150 C   0  0  1  0  0  0  0  0  0  0  0  0
   -5.3830    0.7130   -0.1810 C   0  0  0  0  0  0  0  0  0  0  0  0
   -4.2880   -0.8420   -1.7510 C   0  0  0  0  0  0  0  0  0  0  0  0
   -0.1030    0.8660    2.0900 C   0  0  0  0  0  0  0  0  0  0  0  0
    0.7010   -0.4050    1.9250 C   0  0  0  0  0  0  0  0  0  0  0  0
  1  2  1  0
  2  3  2  3
  3  4  1  0
  5  4  1  6
  5  6  1  0
  5 16  1  0
  6  7  1  0
  7  8  1  0
  8  9  1  6
  8 15  1  0
  9 10  2  0
  9 11  1  0
 11 12  1  0
 12 13  1  6
 12 14  1  0
 15 16  1  0
M  END
