
     RDKit          3D

 16 16  0  0  0  0  0  0  0  0999 V2000
   -2.7450   -1.5990    0.7210 C   0  0  0  0  0  0  0  0  0  0  0  0
   -4.1440   -1.1970    0.3140 C   0  0  0  0  0  0  0  0  0  0  0  0
   -4.3590    0.2610    0.7110 C   0  0  0  0  0  0  0  0  0  0  0  0
   -3.3780    1.1690    0.0370 C   0  0  0  0  0  0  0  0  0  0  0  0
   -2.0560    0.8640    0.3520 O   0  0  0  0  0  0  0  0  0  0  0  0
   -1.2610    1.7840   -0.3420 C   0  0  0  0  0  0  0  0  0  0  0  0
    0.1780    1.5870   -0.1070 C   0  0  0  0  0  0  0  0  0  0  0  0
    0.7700    2.2560    0.9440 C   0  0  0  0  0  0  0  0  0  0  0  0
    2.1170    2.1150    1.2190 C   0  0  0  0  0  0  0  0  0  0  0  0
    2.8700    1.2840    0.4160 C   0  0  0  0  0  0  0  0  0  0  0  0
    2.3210    0.5950   -0.6460 C   0  0  0  0  0  0  0  0  0  0  0  0
    3.1650   -0.2910   -1.4890 C   0  0  0  0  0  0  0  0  0  0  0  0
    3.2060   -1.7000   -0.9740 C   0  0  0  0  0  0  0  0  0  0  0  0
    3.7670   -1.7840    0.4300 C   0  0  0  0  0  0  0  0  0  0  0  0
    3.7730   -3.1170    0.8350 O   0  0  0  0  0  0  0  0  0  0  0  0
    0.9600    0.7690   -0.8840 C   0  0  0  0  0  0  0  0  0  0  0  0
  1  2  1  0
  2  3  1  0
  3  4  1  0
  4  5  1  0
  5  6  1  0
  6  7  1  0
  7  8  2  0
  7 16  1  0
  8  9  1  0
  9 10  2  0
 10 11  1  0
 11 12  1  0
 11 16  2  0
 12 13  1  0
 13 14  1  0
 14 15  1  0
M  END
