
     RDKit          3D

 16 16  0  0  0  0  0  0  0  0999 V2000
    5.8080    1.1650    0.1900 C   0  0  0  0  0  0  0  0  0  0  0  0
    5.6800   -0.2780   -0.2300 C   0  0  0  0  0  0  0  0  0  0  0  0
    4.3060   -0.5500   -0.8350 C   0  0  0  0  0  0  0  0  0  0  0  0
    3.2900   -0.2330    0.2160 C   0  0  0  0  0  0  0  0  0  0  0  0
    1.9840   -0.4370   -0.2050 O   0  0  0  0  0  0  0  0  0  0  0  0
    1.1010   -0.1320    0.7970 C   0  0  1  0  0  0  0  0  0  0  0  0
    0.1670    1.0070    0.4250 C   0  0  0  0  0  0  0  0  0  0  0  0
   -1.1370    0.9260    1.2230 C   0  0  0  0  0  0  0  0  0  0  0  0
   -1.9420   -0.2690    0.8420 C   0  0  1  0  0  0  0  0  0  0  0  0
   -2.9890   -0.0420   -0.1940 C   0  0  1  0  0  0  0  0  0  0  0  0
   -3.6830   -1.3860   -0.4300 C   0  0  0  0  0  0  0  0  0  0  0  0
   -4.0500    0.9480    0.2880 C   0  0  1  0  0  0  0  0  0  0  0  0
   -5.0890    1.1470   -0.7920 C   0  0  0  0  0  0  0  0  0  0  0  0
   -4.6480    0.3950    1.4220 O   0  0  0  0  0  0  0  0  0  0  0  0
   -0.9690   -1.3060    0.2710 C   0  0  0  0  0  0  0  0  0  0  0  0
    0.2320   -1.2880    1.2160 C   0  0  0  0  0  0  0  0  0  0  0  0
  1  2  1  0
  2  3  1  0
  3  4  1  0
  4  5  1  0
  6  5  1  6
  6  7  1  0
  6 16  1  0
  7  8  1  0
  9  8  1  6
  9 10  1  0
  9 15  1  0
 10 11  1  1
 10 12  1  0
 12 13  1  6
 12 14  1  0
 15 16  1  0
M  END
