
     RDKit          3D

 15 15  0  0  0  0  0  0  0  0999 V2000
    2.3970    0.6460   -2.2910 C   0  0  0  0  0  0  0  0  0  0  0  0
    2.3090    0.0370   -1.1260 C   0  0  0  0  0  0  0  0  0  0  0  0
    3.3580    0.2520   -0.0960 C   0  0  0  0  0  0  0  0  0  0  0  0
    2.7820    0.8630    1.1560 C   0  0  0  0  0  0  0  0  0  0  0  0
    3.8290    1.0520    2.0920 O   0  0  0  0  0  0  0  0  0  0  0  0
    1.1750   -0.8380   -0.8120 C   0  0  0  0  0  0  0  0  0  0  0  0
   -0.0100   -0.7730   -1.7110 C   0  0  0  0  0  0  0  0  0  0  0  0
   -0.7470    0.5370   -1.7100 C   0  0  0  0  0  0  0  0  0  0  0  0
   -1.2740    0.9490   -0.5190 O   0  0  0  0  0  0  0  0  0  0  0  0
   -2.1930    0.5090    0.3490 C   0  0  0  0  0  0  0  0  0  0  0  0
   -2.9360   -0.6340    0.1910 C   0  0  0  0  0  0  0  0  0  0  0  0
   -3.8760   -1.0250    1.1500 C   0  0  0  0  0  0  0  0  0  0  0  0
   -4.0680   -0.2550    2.2770 C   0  0  0  0  0  0  0  0  0  0  0  0
   -3.3350    0.8990    2.4590 C   0  0  0  0  0  0  0  0  0  0  0  0
   -2.4160    1.2740    1.5140 C   0  0  0  0  0  0  0  0  0  0  0  0
  1  2  2  0
  2  3  1  0
  2  6  1  0
  3  4  1  0
  4  5  1  0
  6  7  1  0
  7  8  1  0
  8  9  1  0
  9 10  1  0
 10 11  2  0
 10 15  1  0
 11 12  1  0
 12 13  2  0
 13 14  1  0
 14 15  2  0
M  END
