
     RDKit          3D

 14 14  0  0  0  0  0  0  0  0999 V2000
    4.2110    0.1170    1.2780 C   0  0  0  0  0  0  0  0  0  0  0  0
    3.5290   -0.2750   -0.0160 C   0  0  2  0  0  0  0  0  0  0  0  0
    4.2820    0.3840   -1.1510 C   0  0  0  0  0  0  0  0  0  0  0  0
    2.1990    0.2400    0.0650 O   0  0  0  0  0  0  0  0  0  0  0  0
    1.0800   -0.5420    0.0130 C   0  0  0  0  0  0  0  0  0  0  0  0
    1.2070   -1.7800   -0.1120 O   0  0  0  0  0  0  0  0  0  0  0  0
   -0.2740    0.0740    0.1040 C   0  0  0  0  0  0  0  0  0  0  0  0
   -1.2970   -0.8780    0.0330 O   0  0  0  0  0  0  0  0  0  0  0  0
   -2.6160   -0.3960    0.1100 C   0  0  0  0  0  0  0  0  0  0  0  0
   -3.6080   -1.1800   -0.2480 C   0  0  0  0  0  0  0  0  0  0  0  0
   -5.0110   -0.7300   -0.1900 C   0  0  0  0  0  0  0  0  0  0  0  0
   -5.1880    0.5760    0.2700 O   0  0  0  0  0  0  0  0  0  0  0  0
   -4.1510    1.3970    0.6440 C   0  0  0  0  0  0  0  0  0  0  0  0
   -2.9080    0.9520    0.5760 C   0  0  0  0  0  0  0  0  0  0  0  0
  2  1  1  1
  2  3  1  0
  2  4  1  0
  4  5  1  0
  5  6  2  0
  5  7  1  0
  7  8  1  0
  8  9  1  0
  9 10  2  0
  9 14  1  0
 10 11  1  0
 11 12  1  0
 12 13  1  0
 13 14  2  0
M  END
