
     RDKit          3D

 16 16  0  0  0  0  0  0  0  0999 V2000
   -5.6280   -0.8120    0.7280 C   0  0  0  0  0  0  0  0  0  0  0  0
   -4.1300   -0.7380    0.3990 C   0  0  0  0  0  0  0  0  0  0  0  0
   -3.8170    0.7340    0.3090 C   0  0  0  0  0  0  0  0  0  0  0  0
   -2.3430    0.9940   -0.0060 C   0  0  0  0  0  0  0  0  0  0  0  0
   -1.9500    0.3970   -1.2980 C   0  0  0  0  0  0  0  0  0  0  0  0
   -0.5710    0.5750   -1.7490 C   0  0  0  0  0  0  0  0  0  0  0  0
    0.5920   -0.0350   -1.0810 C   0  0  0  0  0  0  0  0  0  0  0  0
    0.7780    0.3260    0.3390 C   0  0  0  0  0  0  0  0  0  0  0  0
    1.9790   -0.1740    0.9010 O   0  0  0  0  0  0  0  0  0  0  0  0
    3.2610    0.1020    0.5870 C   0  0  0  0  0  0  0  0  0  0  0  0
    3.7350    0.9810   -0.3580 C   0  0  0  0  0  0  0  0  0  0  0  0
    5.0800    1.1770   -0.5930 C   0  0  0  0  0  0  0  0  0  0  0  0
    6.0050    0.4740    0.1360 C   0  0  0  0  0  0  0  0  0  0  0  0
    5.5730   -0.4120    1.0890 C   0  0  0  0  0  0  0  0  0  0  0  0
    4.2360   -0.5950    1.3100 C   0  0  0  0  0  0  0  0  0  0  0  0
    3.8790   -1.5170    2.2990 O   0  0  0  0  0  0  0  0  0  0  0  0
  1  2  1  0
  2  3  1  0
  3  4  1  0
  4  5  1  0
  5  6  1  0
  6  7  1  0
  7  8  1  0
  8  9  1  0
  9 10  1  0
 10 11  2  0
 10 15  1  0
 11 12  1  0
 12 13  2  0
 13 14  1  0
 14 15  2  0
 15 16  1  0
M  END
