
     RDKit          3D

 16 16  0  0  0  0  0  0  0  0999 V2000
    2.0720    1.1090   -2.5530 C   0  0  0  0  0  0  0  0  0  0  0  0
    2.7280    0.5830   -1.5680 C   0  0  0  0  0  0  0  0  0  0  0  0
    2.2910    0.3550   -0.2280 C   0  0  0  0  0  0  0  0  0  0  0  0
    3.2530   -0.1800    0.5840 C   0  0  0  0  0  0  0  0  0  0  0  0
    2.9520   -0.4640    1.9810 C   0  0  0  0  0  0  0  0  0  0  0  0
    1.0290    0.6170    0.3800 C   0  0  0  0  0  0  0  0  0  0  0  0
   -0.2300   -0.0530    0.0210 C   0  0  2  0  0  0  0  0  0  0  0  0
   -1.2670    0.5420    0.9930 C   0  0  0  0  0  0  0  0  0  0  0  0
   -1.8890   -0.1820    1.7910 O   0  0  0  0  0  0  0  0  0  0  0  0
   -1.5040    1.9010    0.9730 O   0  0  0  0  0  0  0  0  0  0  0  0
   -2.4530    2.5210    1.8480 C   0  0  0  0  0  0  0  0  0  0  0  0
   -0.1880   -1.5430    0.2130 C   0  0  0  0  0  0  0  0  0  0  0  0
   -1.4530   -2.2650   -0.0660 C   0  0  0  0  0  0  0  0  0  0  0  0
   -2.2570   -1.7680   -1.2110 C   0  0  0  0  0  0  0  0  0  0  0  0
   -2.2780   -0.2520   -1.2620 C   0  0  0  0  0  0  0  0  0  0  0  0
   -0.8310    0.2470   -1.3150 C   0  0  0  0  0  0  0  0  0  0  0  0
  1  2  2  0
  2  3  1  0
  3  4  2  3
  3  6  1  0
  4  5  1  0
  7  6  1  6
  7  8  1  0
  7 12  1  0
  7 16  1  0
  8  9  2  0
  8 10  1  0
 10 11  1  0
 12 13  1  0
 13 14  1  0
 14 15  1  0
 15 16  1  0
M  END
