
     RDKit          3D

 16 16  0  0  0  0  0  0  0  0999 V2000
    5.6240    1.2520   -0.4550 C   0  0  0  0  0  0  0  0  0  0  0  0
    4.9490    1.0780    0.6570 C   0  0  0  0  0  0  0  0  0  0  0  0
    3.6560    0.3030    0.6430 C   0  0  0  0  0  0  0  0  0  0  0  0
    3.3580   -0.1530   -0.7530 C   0  0  0  0  0  0  0  0  0  0  0  0
    2.0770   -0.9380   -0.7680 C   0  0  2  0  0  0  0  0  0  0  0  0
    1.7760   -1.3830   -2.0660 O   0  0  0  0  0  0  0  0  0  0  0  0
    0.8810   -0.0970   -0.3460 C   0  0  0  0  0  0  0  0  0  0  0  0
   -0.2310   -0.9760   -0.4110 O   0  0  0  0  0  0  0  0  0  0  0  0
   -1.5190   -0.5730   -0.0950 C   0  0  0  0  0  0  0  0  0  0  0  0
   -2.5220   -1.5150   -0.1950 C   0  0  0  0  0  0  0  0  0  0  0  0
   -3.8380   -1.1600    0.1130 C   0  0  0  0  0  0  0  0  0  0  0  0
   -4.9430   -2.1420    0.0180 C   0  0  0  0  0  0  0  0  0  0  0  0
   -4.0640    0.1400    0.5060 C   0  0  0  0  0  0  0  0  0  0  0  0
   -3.0560    1.0730    0.6020 C   0  0  0  0  0  0  0  0  0  0  0  0
   -3.2840    2.4810    1.0260 C   0  0  0  0  0  0  0  0  0  0  0  0
   -1.7640    0.7130    0.2980 C   0  0  0  0  0  0  0  0  0  0  0  0
  1  2  2  0
  2  3  1  0
  3  4  1  0
  4  5  1  0
  5  6  1  6
  5  7  1  0
  7  8  1  0
  8  9  1  0
  9 10  2  0
  9 16  1  0
 10 11  1  0
 11 12  1  0
 11 13  2  0
 13 14  1  0
 14 15  1  0
 14 16  2  0
M  END
