
     RDKit          3D

 16 15  0  0  0  0  0  0  0  0999 V2000
    6.4130   -1.6080   -0.6330 C   0  0  0  0  0  0  0  0  0  0  0  0
    4.8900   -1.4780   -0.6210 C   0  0  0  0  0  0  0  0  0  0  0  0
    4.5870   -0.0360   -0.3260 C   0  0  0  0  0  0  0  0  0  0  0  0
    3.1110    0.2660   -0.2790 C   0  0  0  0  0  0  0  0  0  0  0  0
    2.4890   -0.5660    0.7970 C   0  0  0  0  0  0  0  0  0  0  0  0
    0.9890   -0.3310    0.9230 C   0  0  0  0  0  0  0  0  0  0  0  0
    0.6390    1.0540    1.2430 C   0  0  0  0  0  0  0  0  0  0  0  0
   -0.7720    1.4500    1.4010 C   0  0  0  0  0  0  0  0  0  0  0  0
   -1.7320    1.4430    0.3030 C   0  0  0  0  0  0  0  0  0  0  0  0
   -1.9760    0.1610   -0.4050 C   0  0  0  0  0  0  0  0  0  0  0  0
   -3.0680    0.2530   -1.4740 C   0  0  0  0  0  0  0  0  0  0  0  0
   -4.3740    0.6450   -0.8570 C   0  0  0  0  0  0  0  0  0  0  0  0
   -4.7370   -0.4100    0.1840 C   0  0  0  0  0  0  0  0  0  0  0  0
   -6.0240   -0.0900    0.8410 C   0  0  0  0  0  0  0  0  0  0  0  0
   -6.0440    0.8020    1.7080 O   0  0  0  0  0  0  0  0  0  0  0  0
   -7.1760   -0.7780    0.4900 O   0  0  0  0  0  0  0  0  0  0  0  0
  1  2  1  0
  2  3  1  0
  3  4  1  0
  4  5  1  0
  5  6  1  0
  6  7  1  0
  7  8  1  0
  8  9  1  0
  9 10  1  0
 10 11  1  0
 11 12  1  0
 12 13  1  0
 13 14  1  0
 14 15  2  0
 14 16  1  0
M  END
