
     RDKit          3D

 26 26  0  0  0  0  0  0  0  0999 V2000
   -2.6470    1.0010   -0.2540 C   0  0  0  0  0  0  0  0  0  0  0  0
   -1.7670   -0.1750   -0.7650 C   0  0  2  0  0  0  0  0  0  0  0  0
   -1.2310    0.4440   -2.0610 C   0  0  0  0  0  0  0  0  0  0  0  0
   -2.6930   -1.2430   -1.3230 C   0  0  2  0  0  0  0  0  0  0  0  0
   -3.3990   -0.6960   -2.4370 F   0  0  0  0  0  0  0  0  0  0  0  0
   -3.6590   -1.6660   -0.4190 F   0  0  0  0  0  0  0  0  0  0  0  0
   -2.0910   -2.3570   -1.8000 F   0  0  0  0  0  0  0  0  0  0  0  0
   -0.7960   -0.6560    0.1990 C   0  0  1  0  0  0  0  0  0  0  0  0
    0.0080   -1.7220   -0.3170 O   0  0  0  0  0  0  0  0  0  0  0  0
    0.1670    0.3220    0.7380 C   0  0  0  0  0  0  0  0  0  0  0  0
    1.2210    0.7580   -0.0670 C   0  0  0  0  0  0  0  0  0  0  0  0
    1.7600    0.0790   -1.6630 S   0  0  0  0  0  0  0  0  0  0  0  0
    3.0080   -1.1980   -1.4330 C   0  0  0  0  0  0  0  0  0  0  0  0
    4.2890   -0.5680   -0.8950 C   0  0  0  0  0  0  0  0  0  0  0  0
    5.2170   -1.5740   -0.7290 O   0  0  0  0  0  0  0  0  0  0  0  0
    1.8030    1.7380    0.6140 N   0  0  0  0  0  0  0  0  0  0  0  0
    1.1930    1.9270    1.7580 N   0  0  0  0  0  0  0  0  0  0  0  0
    0.1340    1.0540    1.9040 C   0  0  0  0  0  0  0  0  0  0  0  0
   -0.7380    1.0670    3.0610 C   0  0  2  0  0  0  0  0  0  0  0  0
   -0.8820    0.0480    3.8940 F   0  0  0  0  0  0  0  0  0  0  0  0
   -1.9750    1.7210    2.7820 F   0  0  0  0  0  0  0  0  0  0  0  0
   -0.2710    2.0620    3.9730 F   0  0  0  0  0  0  0  0  0  0  0  0
   -1.5590   -1.4390    1.2680 C   0  0  2  0  0  0  0  0  0  0  0  0
   -0.6240   -1.9550    2.2020 F   0  0  0  0  0  0  0  0  0  0  0  0
   -1.9470   -2.7070    0.7570 F   0  0  0  0  0  0  0  0  0  0  0  0
   -2.6700   -0.9430    1.7480 F   0  0  0  0  0  0  0  0  0  0  0  0
  2  1  1  1
  2  3  1  0
  2  4  1  0
  2  8  1  0
  4  5  1  6
  4  6  1  0
  4  7  1  0
  8  9  1  6
  8 10  1  0
  8 23  1  0
 10 11  1  0
 10 18  2  0
 11 12  1  0
 11 16  2  0
 12 13  1  0
 13 14  1  0
 14 15  1  0
 16 17  1  0
 17 18  1  0
 18 19  1  0
 19 20  1  1
 19 21  1  0
 19 22  1  0
 23 24  1  1
 23 25  1  0
 23 26  1  0
M  END
