
     RDKit          3D

 27 26  0  0  0  0  0  0  0  0999 V2000
   -3.8220   -1.7860   -1.6450 C   0  0  0  0  0  0  0  0  0  0  0  0
   -4.4270   -0.4430   -1.5620 C   0  0  0  0  0  0  0  0  0  0  0  0
   -3.8010    0.5910   -0.9220 C   0  0  0  0  0  0  0  0  0  0  0  0
   -2.5360    0.2980   -0.3430 C   0  0  0  0  0  0  0  0  0  0  0  0
   -1.6440    0.9550    0.3250 C   0  0  0  0  0  0  0  0  0  0  0  0
   -0.4560    0.1710    0.7120 N   0  0  0  0  0  0  0  0  0  0  0  0
    0.8050    0.6090    0.2360 C   0  0  0  0  0  0  0  0  0  0  0  0
    0.8990    1.6250   -0.4870 O   0  0  0  0  0  0  0  0  0  0  0  0
    2.0490   -0.1730    0.6130 C   0  0  1  0  0  0  0  0  0  0  0  0
    2.0370   -0.1280    2.1350 C   0  0  0  0  0  0  0  0  0  0  0  0
    1.7890   -1.5880    0.2090 C   0  0  0  0  0  0  0  0  0  0  0  0
    3.1330    0.4680    0.0210 N   0  0  0  0  0  0  0  0  0  0  0  0
    4.7040   -0.0030    0.2180 S   0  0  2  0  0  0  0  0  0  0  0  0
    5.2150    0.1430    1.6270 O   0  0  0  0  0  0  0  0  0  0  0  0
    5.5780    0.9580   -0.5930 O   0  0  0  0  0  0  0  0  0  0  0  0
    5.1610   -1.6130   -0.3320 C   0  0  1  0  0  0  0  0  0  0  0  0
    6.5340   -1.8030   -0.0830 F   0  0  0  0  0  0  0  0  0  0  0  0
    4.5670   -2.6270    0.4360 F   0  0  0  0  0  0  0  0  0  0  0  0
    4.9910   -1.8120   -1.6740 F   0  0  0  0  0  0  0  0  0  0  0  0
   -1.6030    2.3430    0.7470 C   0  0  2  0  0  0  0  0  0  0  0  0
   -0.6380    2.4830    1.7910 F   0  0  0  0  0  0  0  0  0  0  0  0
   -2.7270    2.8640    1.3110 F   0  0  0  0  0  0  0  0  0  0  0  0
   -1.1550    3.1860   -0.2400 F   0  0  0  0  0  0  0  0  0  0  0  0
   -4.5700    1.8480   -0.9480 C   0  0  1  0  0  0  0  0  0  0  0  0
   -3.8730    2.9490   -1.3490 F   0  0  0  0  0  0  0  0  0  0  0  0
   -5.5940    1.7360   -1.9530 F   0  0  0  0  0  0  0  0  0  0  0  0
   -5.1980    2.0590    0.2360 F   0  0  0  0  0  0  0  0  0  0  0  0
  1  2  1  0
  2  3  2  3
  3  4  1  0
  3 24  1  0
  4  5  2  3
  5  6  1  0
  5 20  1  0
  6  7  1  0
  7  8  2  0
  7  9  1  0
  9 10  1  1
  9 11  1  0
  9 12  1  0
 13 12  1  1
 13 14  2  0
 13 15  2  0
 13 16  1  0
 16 17  1  6
 16 18  1  0
 16 19  1  0
 20 21  1  1
 20 22  1  0
 20 23  1  0
 24 25  1  6
 24 26  1  0
 24 27  1  0
M  END
