
     RDKit          3D

 26 25  0  0  0  0  0  0  0  0999 V2000
    4.2780   -3.0610   -0.2710 C   0  0  0  0  0  0  0  0  0  0  0  0
    2.8390   -2.5420   -0.2530 C   0  0  1  0  0  0  0  0  0  0  0  0
    2.3410   -2.8900   -1.5100 F   0  0  0  0  0  0  0  0  0  0  0  0
    2.2320   -3.2580    0.7720 F   0  0  0  0  0  0  0  0  0  0  0  0
    2.8660   -1.0890   -0.0310 C   0  0  0  0  0  0  0  0  0  0  0  0
    4.0000   -0.5610    0.1010 O   0  0  0  0  0  0  0  0  0  0  0  0
    1.6910   -0.2020    0.0510 C   0  0  0  0  0  0  0  0  0  0  0  0
    0.3950   -0.8130   -0.1020 C   0  0  0  0  0  0  0  0  0  0  0  0
    0.3200   -2.0930   -0.2990 O   0  0  0  0  0  0  0  0  0  0  0  0
   -0.8010   -0.0900   -0.0470 N   0  0  0  0  0  0  0  0  0  0  0  0
   -2.0580   -0.8140   -0.2150 C   0  0  0  0  0  0  0  0  0  0  0  0
   -3.2580    0.0540   -0.1390 C   0  0  2  0  0  0  0  0  0  0  0  0
   -3.2220    1.1020   -1.2040 C   0  0  0  0  0  0  0  0  0  0  0  0
   -3.5060    0.6770    1.1950 C   0  0  2  0  0  0  0  0  0  0  0  0
   -3.6850   -0.2920    2.1780 F   0  0  0  0  0  0  0  0  0  0  0  0
   -4.7300    1.3420    1.1100 F   0  0  0  0  0  0  0  0  0  0  0  0
   -2.5760    1.6010    1.5660 F   0  0  0  0  0  0  0  0  0  0  0  0
   -4.4680   -0.8440   -0.4340 C   0  0  1  0  0  0  0  0  0  0  0  0
   -5.6390   -0.1350   -0.3890 F   0  0  0  0  0  0  0  0  0  0  0  0
   -4.3170   -1.4410   -1.6700 F   0  0  0  0  0  0  0  0  0  0  0  0
   -4.5080   -1.8740    0.4990 F   0  0  0  0  0  0  0  0  0  0  0  0
    1.9250    1.0810    0.2570 C   0  0  0  0  0  0  0  0  0  0  0  0
    0.9880    2.1150    0.3710 N   0  0  0  0  0  0  0  0  0  0  0  0
    3.6540    1.6090    0.4160 S   0  0  0  0  0  0  0  0  0  0  0  0
    3.7560    3.3930    0.6990 C   0  0  0  0  0  0  0  0  0  0  0  0
    3.3230    4.1010   -0.4060 F   0  0  0  0  0  0  0  0  0  0  0  0
  2  1  1  6
  2  3  1  0
  2  4  1  0
  2  5  1  0
  5  6  2  0
  5  7  1  0
  7  8  1  0
  7 22  2  3
  8  9  2  0
  8 10  1  0
 10 11  1  0
 11 12  1  0
 12 13  1  6
 12 14  1  0
 12 18  1  0
 14 15  1  1
 14 16  1  0
 14 17  1  0
 18 19  1  6
 18 20  1  0
 18 21  1  0
 22 23  1  0
 22 24  1  0
 24 25  1  0
 25 26  1  0
M  END
