
     RDKit          3D

 27 26  0  0  0  0  0  0  0  0999 V2000
    0.6680   -1.1630    0.2860 O   0  0  0  0  0  0  0  0  0  0  0  0
   -0.4020   -0.5260    0.2720 C   0  0  0  0  0  0  0  0  0  0  0  0
   -1.7180   -1.2220    0.0750 C   0  0  0  0  0  0  0  0  0  0  0  0
   -2.7150   -0.2610    0.1090 O   0  0  0  0  0  0  0  0  0  0  0  0
   -4.0960   -0.5040   -0.0340 C   0  0  0  0  0  0  0  0  0  0  0  0
   -4.9610    0.4600    0.1620 C   0  0  0  0  0  0  0  0  0  0  0  0
   -6.4190    0.3540    0.0490 C   0  0  2  0  0  0  0  0  0  0  0  0
   -6.9800   -0.4940    0.9990 F   0  0  0  0  0  0  0  0  0  0  0  0
   -6.8500    0.0250   -1.2350 F   0  0  0  0  0  0  0  0  0  0  0  0
   -7.0220    1.5980    0.3110 F   0  0  0  0  0  0  0  0  0  0  0  0
   -4.4490   -1.8940   -0.4120 C   0  0  2  0  0  0  0  0  0  0  0  0
   -3.9660   -2.8020    0.5430 F   0  0  0  0  0  0  0  0  0  0  0  0
   -3.8140   -2.2310   -1.6120 F   0  0  0  0  0  0  0  0  0  0  0  0
   -5.7900   -2.1330   -0.5010 F   0  0  0  0  0  0  0  0  0  0  0  0
   -0.3280    0.8810    0.4480 N   0  0  0  0  0  0  0  0  0  0  0  0
    0.8750    1.5680    0.6330 N   0  0  0  0  0  0  0  0  0  0  0  0
    2.0020    1.4240   -0.2110 C   0  0  0  0  0  0  0  0  0  0  0  0
    1.9230    0.6420   -1.1750 O   0  0  0  0  0  0  0  0  0  0  0  0
    3.2800    2.1900    0.0320 C   0  0  0  0  0  0  0  0  0  0  0  0
    4.4490    1.7280   -1.2390 S   0  0  0  0  0  0  0  0  0  0  0  0
    4.9450    0.0450   -1.0910 C   0  0  0  0  0  0  0  0  0  0  0  0
    5.5530   -0.5190    0.0830 C   0  0  0  0  0  0  0  0  0  0  0  0
    5.9700    0.0710    1.1620 C   0  0  0  0  0  0  0  0  0  0  0  0
    5.9110    1.3700    1.3910 F   0  0  0  0  0  0  0  0  0  0  0  0
    4.6420   -0.7740   -2.1170 C   0  0  0  0  0  0  0  0  0  0  0  0
    3.9920   -0.2650   -3.1730 F   0  0  0  0  0  0  0  0  0  0  0  0
    4.9850   -2.0730   -2.0780 F   0  0  0  0  0  0  0  0  0  0  0  0
  1  2  2  0
  2  3  1  0
  2 15  1  0
  3  4  1  0
  4  5  1  0
  5  6  2  3
  5 11  1  0
  6  7  1  0
  7  8  1  1
  7  9  1  0
  7 10  1  0
 11 12  1  1
 11 13  1  0
 11 14  1  0
 15 16  1  0
 16 17  1  0
 17 18  2  0
 17 19  1  0
 19 20  1  0
 20 21  1  0
 21 22  1  0
 21 25  2  3
 22 23  2  3
 23 24  1  0
 25 26  1  0
 25 27  1  0
M  END
