
     RDKit          3D

 27 26  0  0  0  0  0  0  0  0999 V2000
   -4.1780    1.0250    1.6590 C   0  0  0  0  0  0  0  0  0  0  0  0
   -3.7670    0.7310    0.2800 C   0  0  0  0  0  0  0  0  0  0  0  0
   -2.4630    0.5260   -0.0320 C   0  0  0  0  0  0  0  0  0  0  0  0
   -2.1560    0.2510   -1.3970 C   0  0  0  0  0  0  0  0  0  0  0  0
   -1.2330   -0.0180   -2.2280 C   0  0  0  0  0  0  0  0  0  0  0  0
   -1.8720   -0.1570   -3.5930 F   0  0  0  0  0  0  0  0  0  0  0  0
    0.1280   -0.2820   -2.4070 C   0  0  0  0  0  0  0  0  0  0  0  0
    0.4780   -0.4690   -3.6900 O   0  0  0  0  0  0  0  0  0  0  0  0
    1.2910   -0.4140   -1.5690 C   0  0  0  0  0  0  0  0  0  0  0  0
    1.2720   -0.3500   -0.3260 O   0  0  0  0  0  0  0  0  0  0  0  0
    2.6060   -0.6350   -2.1010 N   0  0  0  0  0  0  0  0  0  0  0  0
    3.7810   -0.7720   -1.3510 C   0  0  0  0  0  0  0  0  0  0  0  0
    5.2210   -1.0260   -2.1760 S   0  0  0  0  0  0  0  0  0  0  0  0
    3.9340   -0.7260    0.0510 N   0  0  0  0  0  0  0  0  0  0  0  0
    5.2150   -0.8840    0.6980 C   0  0  0  0  0  0  0  0  0  0  0  0
    6.2200   -1.0670   -0.0020 O   0  0  0  0  0  0  0  0  0  0  0  0
    5.3510   -0.8320    2.1650 C   0  0  1  0  0  0  0  0  0  0  0  0
    6.6720   -1.0110    2.5160 F   0  0  0  0  0  0  0  0  0  0  0  0
    4.8880    0.3690    2.6900 F   0  0  0  0  0  0  0  0  0  0  0  0
    4.6130   -1.8470    2.7800 F   0  0  0  0  0  0  0  0  0  0  0  0
   -1.4480    0.6220    1.0320 C   0  0  2  0  0  0  0  0  0  0  0  0
   -0.4780    1.5580    0.7320 F   0  0  0  0  0  0  0  0  0  0  0  0
   -1.0020   -0.6480    1.2880 F   0  0  0  0  0  0  0  0  0  0  0  0
   -1.9730    1.0550    2.2570 F   0  0  0  0  0  0  0  0  0  0  0  0
   -4.8270    0.6650   -0.7540 C   0  0  1  0  0  0  0  0  0  0  0  0
   -6.0500    0.5660   -0.0590 F   0  0  0  0  0  0  0  0  0  0  0  0
   -4.9120    1.7470   -1.5620 F   0  0  0  0  0  0  0  0  0  0  0  0
  1  2  1  0
  2  3  2  3
  2 25  1  0
  3  4  1  0
  3 21  1  0
  4  5  2  3
  5  6  1  0
  5  7  1  0
  7  8  2  0
  7  9  1  0
  9 10  2  0
  9 11  1  0
 11 12  1  0
 12 13  2  0
 12 14  1  0
 14 15  1  0
 15 16  2  0
 15 17  1  0
 17 18  1  6
 17 19  1  0
 17 20  1  0
 21 22  1  6
 21 23  1  0
 21 24  1  0
 25 26  1  1
 25 27  1  0
M  END
