
     RDKit          3D

 27 27  0  0  0  0  0  0  0  0999 V2000
    3.4060   -1.1310   -0.8900 O   0  0  0  0  0  0  0  0  0  0  0  0
    3.0170   -0.4980    0.1260 C   0  0  0  0  0  0  0  0  0  0  0  0
    3.9360    0.3040    0.8650 N   0  0  0  0  0  0  0  0  0  0  0  0
    5.3400    0.4300    0.5050 C   0  0  0  0  0  0  0  0  0  0  0  0
    5.5040    0.9960   -0.8720 C   0  0  0  0  0  0  0  0  0  0  0  0
    6.8740    1.0800   -1.1300 O   0  0  0  0  0  0  0  0  0  0  0  0
    1.6650   -0.5960    0.5150 N   0  0  0  0  0  0  0  0  0  0  0  0
    0.6930   -1.3770   -0.1770 C   0  0  2  0  0  0  0  0  0  0  0  0
   -0.5900   -0.6880   -0.1940 C   0  0  0  0  0  0  0  0  0  0  0  0
   -0.8940    0.5330   -0.7460 C   0  0  0  0  0  0  0  0  0  0  0  0
   -2.1490    1.0010   -0.5820 C   0  0  0  0  0  0  0  0  0  0  0  0
   -3.0420    0.2300    0.1230 C   0  0  0  0  0  0  0  0  0  0  0  0
   -4.4500    0.5390    0.4450 C   0  0  1  0  0  0  0  0  0  0  0  0
   -4.6140    0.5990    1.8270 O   0  0  0  0  0  0  0  0  0  0  0  0
   -4.8190    1.8420   -0.1660 C   0  0  1  0  0  0  0  0  0  0  0  0
   -4.6830    1.8120   -1.5330 F   0  0  0  0  0  0  0  0  0  0  0  0
   -6.1390    2.1990    0.1070 F   0  0  0  0  0  0  0  0  0  0  0  0
   -4.0560    2.8960    0.3120 F   0  0  0  0  0  0  0  0  0  0  0  0
   -5.3100   -0.5950   -0.0830 C   0  0  2  0  0  0  0  0  0  0  0  0
   -6.6570   -0.4050    0.1750 F   0  0  0  0  0  0  0  0  0  0  0  0
   -4.8170   -1.7570    0.4650 F   0  0  0  0  0  0  0  0  0  0  0  0
   -5.0720   -0.6440   -1.4530 F   0  0  0  0  0  0  0  0  0  0  0  0
   -2.1060   -1.1610    0.5540 S   0  0  0  0  0  0  0  0  0  0  0  0
    0.5220   -2.7560    0.4470 C   0  0  1  0  0  0  0  0  0  0  0  0
   -0.4190   -3.4630   -0.2630 F   0  0  0  0  0  0  0  0  0  0  0  0
    1.7430   -3.4020    0.4350 F   0  0  0  0  0  0  0  0  0  0  0  0
    0.1600   -2.5640    1.7660 F   0  0  0  0  0  0  0  0  0  0  0  0
  1  2  2  0
  2  3  1  0
  2  7  1  0
  3  4  1  0
  4  5  1  0
  5  6  1  0
  8  7  1  1
  8  9  1  0
  8 24  1  0
  9 10  2  0
  9 23  1  0
 10 11  1  0
 11 12  2  0
 12 13  1  0
 12 23  1  0
 13 14  1  1
 13 15  1  0
 13 19  1  0
 15 16  1  6
 15 17  1  0
 15 18  1  0
 19 20  1  6
 19 21  1  0
 19 22  1  0
 24 25  1  6
 24 26  1  0
 24 27  1  0
M  END
