
     RDKit          3D

 27 27  0  0  0  0  0  0  0  0999 V2000
   -5.5190   -1.7960    0.5920 N   0  0  0  0  0  0  0  0  0  0  0  0
   -4.1530   -1.4370    0.5440 C   0  0  0  0  0  0  0  0  0  0  0  0
   -3.3390   -1.8720    1.3990 O   0  0  0  0  0  0  0  0  0  0  0  0
   -3.6170   -0.5370   -0.5120 C   0  0  0  0  0  0  0  0  0  0  0  0
   -2.2460   -0.3040   -0.3690 O   0  0  0  0  0  0  0  0  0  0  0  0
   -1.2500   -1.2320   -0.3880 C   0  0  0  0  0  0  0  0  0  0  0  0
   -1.6620   -2.4390   -0.5580 O   0  0  0  0  0  0  0  0  0  0  0  0
    0.1370   -0.9310   -0.2370 C   0  0  0  0  0  0  0  0  0  0  0  0
    1.0030   -2.0340   -0.3190 C   0  0  0  0  0  0  0  0  0  0  0  0
    2.3450   -1.8890   -0.2160 C   0  0  0  0  0  0  0  0  0  0  0  0
    3.1640   -2.9730   -0.2990 F   0  0  0  0  0  0  0  0  0  0  0  0
    2.8590   -0.6320   -0.0270 C   0  0  0  0  0  0  0  0  0  0  0  0
    4.6300   -0.4690    0.1100 S   0  0  0  0  0  0  0  0  0  0  0  0
    5.0470   -0.6520    1.8760 C   0  0  2  0  0  0  0  0  0  0  0  0
    4.7850   -1.9150    2.3190 F   0  0  0  0  0  0  0  0  0  0  0  0
    4.2110    0.2220    2.5810 F   0  0  0  0  0  0  0  0  0  0  0  0
    6.3610   -0.2860    2.0320 F   0  0  0  0  0  0  0  0  0  0  0  0
    2.0070    0.4490    0.0550 C   0  0  0  0  0  0  0  0  0  0  0  0
    0.6110    0.3380   -0.0480 C   0  0  0  0  0  0  0  0  0  0  0  0
   -0.2010    1.4800    0.0880 N   0  0  0  0  0  0  0  0  0  0  0  0
    0.2400    2.8500    0.1070 C   0  0  1  0  0  0  0  0  0  0  0  0
   -0.8580    3.6900    0.4560 F   0  0  0  0  0  0  0  0  0  0  0  0
    1.2310    3.0990    0.9880 F   0  0  0  0  0  0  0  0  0  0  0  0
    0.5860    3.3620   -1.2900 C   0  0  1  0  0  0  0  0  0  0  0  0
   -0.5550    3.2780   -2.1020 F   0  0  0  0  0  0  0  0  0  0  0  0
    0.8280    4.7300   -1.1490 F   0  0  0  0  0  0  0  0  0  0  0  0
    1.6070    2.7080   -1.8830 F   0  0  0  0  0  0  0  0  0  0  0  0
  1  2  1  0
  2  3  2  0
  2  4  1  0
  4  5  1  0
  5  6  1  0
  6  7  2  0
  6  8  1  0
  8  9  2  0
  8 19  1  0
  9 10  1  0
 10 11  1  0
 10 12  2  0
 12 13  1  0
 12 18  1  0
 13 14  1  0
 14 15  1  1
 14 16  1  0
 14 17  1  0
 18 19  2  0
 19 20  1  0
 20 21  1  0
 21 22  1  1
 21 23  1  0
 21 24  1  0
 24 25  1  6
 24 26  1  0
 24 27  1  0
M  END
