
     RDKit          3D

 26 25  0  0  0  0  0  0  0  0999 V2000
    0.1210    0.7990   -0.9760 O   0  0  0  0  0  0  0  0  0  0  0  0
    0.6480    0.0750   -0.2250 C   0  0  0  0  0  0  0  0  0  0  0  0
    2.0030   -0.0620    0.2980 C   0  0  0  0  0  0  0  0  0  0  0  0
    2.8700    0.8600   -0.3700 O   0  0  0  0  0  0  0  0  0  0  0  0
    4.2010    0.8910    0.0050 C   0  0  0  0  0  0  0  0  0  0  0  0
    4.5920    1.9200    0.9840 C   0  0  0  0  0  0  0  0  0  0  0  0
    3.6900    2.7560    1.4410 C   0  0  0  0  0  0  0  0  0  0  0  0
    2.4210    2.6640    1.0140 F   0  0  0  0  0  0  0  0  0  0  0  0
    4.0830    3.7060    2.3510 F   0  0  0  0  0  0  0  0  0  0  0  0
    5.0940    0.0750   -0.4570 C   0  0  0  0  0  0  0  0  0  0  0  0
    4.9530   -1.0150   -1.4270 C   0  0  1  0  0  0  0  0  0  0  0  0
    5.0300   -2.2390   -0.7630 F   0  0  0  0  0  0  0  0  0  0  0  0
    3.7660   -0.9800   -2.1000 F   0  0  0  0  0  0  0  0  0  0  0  0
    6.0120   -0.9980   -2.3200 F   0  0  0  0  0  0  0  0  0  0  0  0
   -0.4180   -1.1240    0.4330 N   0  0  0  0  0  0  0  0  0  0  0  0
   -1.5510   -0.7310   -0.2110 C   0  0  0  0  0  0  0  0  0  0  0  0
   -1.8490    0.1150   -0.9990 O   0  0  0  0  0  0  0  0  0  0  0  0
   -2.6930   -1.6340    0.2200 N   0  0  0  0  0  0  0  0  0  0  0  0
   -3.9760   -1.4360   -0.2370 C   0  0  0  0  0  0  0  0  0  0  0  0
   -4.6490   -0.2280    0.2670 C   0  0  0  0  0  0  0  0  0  0  0  0
   -4.2610    0.6020    1.1900 C   0  0  0  0  0  0  0  0  0  0  0  0
   -2.7660    0.4590    2.1080 S   0  0  0  0  0  0  0  0  0  0  0  0
   -5.9840    0.1060   -0.4080 C   0  0  2  0  0  0  0  0  0  0  0  0
   -5.6640    0.7240   -1.5940 F   0  0  0  0  0  0  0  0  0  0  0  0
   -6.7800    0.8690    0.3790 F   0  0  0  0  0  0  0  0  0  0  0  0
   -6.6150   -1.1170   -0.6710 F   0  0  0  0  0  0  0  0  0  0  0  0
  1  2  2  0
  2  3  1  0
  2 15  1  0
  3  4  1  0
  4  5  1  0
  5  6  1  0
  5 10  2  3
  6  7  2  3
  7  8  1  0
  7  9  1  0
 10 11  1  0
 11 12  1  1
 11 13  1  0
 11 14  1  0
 15 16  1  0
 16 17  2  0
 16 18  1  0
 18 19  1  0
 19 20  1  0
 20 21  2  3
 20 23  1  0
 21 22  1  0
 23 24  1  6
 23 25  1  0
 23 26  1  0
M  END
