
     RDKit          3D

 27 30  0  0  0  0  0  0  0  0999 V2000
    5.5820    1.9780   -1.8030 C   0  0  0  0  0  0  0  0  0  0  0  0
    4.6090    1.1100   -1.2860 O   0  0  0  0  0  0  0  0  0  0  0  0
    3.4080    1.4930   -0.7640 C   0  0  0  0  0  0  0  0  0  0  0  0
    3.2300    2.7800   -0.7860 O   0  0  0  0  0  0  0  0  0  0  0  0
    2.3370    0.6810   -0.2060 C   0  0  0  0  0  0  0  0  0  0  0  0
    1.2080    1.3230    0.2970 C   0  0  0  0  0  0  0  0  0  0  0  0
    0.1930    0.6160    0.8280 C   0  0  0  0  0  0  0  0  0  0  0  0
    0.1950   -0.7940    0.9130 C   0  0  0  0  0  0  0  0  0  0  0  0
   -0.9340   -1.4650    1.5400 C   0  0  0  0  0  0  0  0  0  0  0  0
   -2.0090   -0.6200    1.9490 N   0  0  0  0  0  0  0  0  0  0  0  0
   -2.9250    0.1390    1.2590 C   0  0  0  0  0  0  0  0  0  0  0  0
   -3.8280    0.9520    1.9810 C   0  0  0  0  0  0  0  0  0  0  0  0
   -3.7630    0.9970    3.7280 Cl  0  0  0  0  0  0  0  0  0  0  0  0
   -4.7810    1.7320    1.3860 C   0  0  0  0  0  0  0  0  0  0  0  0
   -4.8950    1.7510    0.0040 C   0  0  0  0  0  0  0  0  0  0  0  0
   -4.0410    0.9790   -0.7190 C   0  0  0  0  0  0  0  0  0  0  0  0
   -3.0720    0.1860   -0.1110 C   0  0  0  0  0  0  0  0  0  0  0  0
   -2.3940   -0.4640   -1.2170 C   0  0  0  0  0  0  0  0  0  0  0  0
   -2.8780   -0.1180   -2.3640 N   0  0  0  0  0  0  0  0  0  0  0  0
   -3.9410    0.8060   -2.1830 C   0  0  0  0  0  0  0  0  0  0  0  0
    1.2960   -1.4320    0.4220 C   0  0  0  0  0  0  0  0  0  0  0  0
    1.3780   -2.8020    0.4580 C   0  0  0  0  0  0  0  0  0  0  0  0
    0.1060   -3.8130    1.1060 Cl  0  0  0  0  0  0  0  0  0  0  0  0
    2.5100   -3.4610   -0.0520 C   0  0  0  0  0  0  0  0  0  0  0  0
    3.5360   -2.7590   -0.5870 C   0  0  0  0  0  0  0  0  0  0  0  0
    3.4690   -1.3620   -0.6320 C   0  0  0  0  0  0  0  0  0  0  0  0
    2.3770   -0.6860   -0.1420 C   0  0  0  0  0  0  0  0  0  0  0  0
  1  2  1  0
  2  3  1  0
  3  4  2  0
  3  5  1  0
  5  6  2  0
  5 27  1  0
  6  7  1  0
  7  8  2  0
  8  9  1  0
  8 21  1  0
  9 10  1  0
 10 11  1  0
 11 12  2  0
 11 17  1  0
 12 13  1  0
 12 14  1  0
 14 15  2  0
 15 16  1  0
 16 17  2  0
 16 20  1  0
 17 18  1  0
 18 19  2  0
 19 20  1  0
 21 22  2  0
 21 27  1  0
 22 23  1  0
 22 24  1  0
 24 25  2  0
 25 26  1  0
 26 27  2  0
M  END
