
     RDKit          3D

 27 30  0  0  0  0  0  0  0  0999 V2000
   -7.4340    0.2180   -0.1670 C   0  0  0  0  0  0  0  0  0  0  0  0
   -5.9990   -0.0850   -0.2940 C   0  0  0  0  0  0  0  0  0  0  0  0
   -5.4990   -1.0960   -1.0790 C   0  0  0  0  0  0  0  0  0  0  0  0
   -4.1390   -1.3450   -1.1730 C   0  0  0  0  0  0  0  0  0  0  0  0
   -3.2320   -0.5630   -0.4610 C   0  0  0  0  0  0  0  0  0  0  0  0
   -3.7240    0.4500    0.3260 C   0  0  0  0  0  0  0  0  0  0  0  0
   -5.0900    0.6940    0.4150 C   0  0  0  0  0  0  0  0  0  0  0  0
   -2.7470    1.2520    1.0600 C   0  0  0  0  0  0  0  0  0  0  0  0
   -3.1900    2.1390    1.8320 O   0  0  0  0  0  0  0  0  0  0  0  0
   -1.2950    1.0710    0.9360 C   0  0  1  0  0  0  0  0  0  0  0  0
   -0.7620    0.3600    2.1520 C   0  0  0  0  0  0  0  0  0  0  0  0
    0.6840    0.0790    1.8810 C   0  0  0  0  0  0  0  0  0  0  0  0
    1.3920   -0.2530    2.8670 O   0  0  0  0  0  0  0  0  0  0  0  0
    1.2520    0.1740    0.5970 N   0  0  0  0  0  0  0  0  0  0  0  0
    2.6450    0.2180    0.3610 C   0  0  0  0  0  0  0  0  0  0  0  0
    3.4470    1.0260    1.1330 C   0  0  0  0  0  0  0  0  0  0  0  0
    4.8270    1.0770    0.9070 C   0  0  0  0  0  0  0  0  0  0  0  0
    5.3980    0.3340   -0.0760 C   0  0  0  0  0  0  0  0  0  0  0  0
    6.8710    0.4450   -0.2530 C   0  0  0  0  0  0  0  0  0  0  0  0
    4.6330   -0.4770   -0.8600 C   0  0  0  0  0  0  0  0  0  0  0  0
    5.2520   -1.2870   -1.9310 C   0  0  2  0  0  0  0  0  0  0  0  0
    6.3840   -2.4740   -1.3000 Cl  0  0  0  0  0  0  0  0  0  0  0  0
    5.9280   -0.2950   -3.2440 Cl  0  0  0  0  0  0  0  0  0  0  0  0
    3.2670   -0.5170   -0.6230 C   0  0  0  0  0  0  0  0  0  0  0  0
    0.3830    0.2260   -0.5620 C   0  0  0  0  0  0  0  0  0  0  0  0
   -1.0040    0.3600   -0.2590 N   0  0  0  0  0  0  0  0  0  0  0  0
   -1.7860   -0.7940   -0.5340 C   0  0  0  0  0  0  0  0  0  0  0  0
  1  2  1  0
  2  3  2  0
  2  7  1  0
  3  4  1  0
  4  5  2  0
  5  6  1  0
  5 27  1  0
  6  7  2  0
  6  8  1  0
  8  9  2  0
  8 10  1  0
 10 11  1  1
 10 26  1  0
 11 12  1  0
 12 13  2  0
 12 14  1  0
 14 15  1  0
 14 25  1  0
 15 16  2  0
 15 24  1  0
 16 17  1  0
 17 18  2  0
 18 19  1  0
 18 20  1  0
 20 21  1  0
 20 24  2  0
 21 22  1  1
 21 23  1  0
 25 26  1  0
 26 27  1  0
M  END
