
     RDKit          3D

 27 30  0  0  0  0  0  0  0  0999 V2000
   -4.8120    2.4370   -0.3900 C   0  0  0  0  0  0  0  0  0  0  0  0
   -4.6340    1.1230    0.2940 C   0  0  0  0  0  0  0  0  0  0  0  0
   -3.6020    0.2970    0.1780 C   0  0  0  0  0  0  0  0  0  0  0  0
   -2.4780    0.5600   -0.6460 N   0  0  0  0  0  0  0  0  0  0  0  0
   -1.3630   -0.3050   -0.7870 C   0  0  0  0  0  0  0  0  0  0  0  0
   -1.3840   -1.3810   -0.1280 O   0  0  0  0  0  0  0  0  0  0  0  0
   -0.2410    0.0670   -1.6730 C   0  0  0  0  0  0  0  0  0  0  0  0
    1.0520    0.0130   -1.0090 N   0  0  0  0  0  0  0  0  0  0  0  0
    1.5230    1.1290   -0.3820 C   0  0  0  0  0  0  0  0  0  0  0  0
    0.7700    2.1580   -0.4260 O   0  0  0  0  0  0  0  0  0  0  0  0
    2.7280    1.1490    0.2550 C   0  0  0  0  0  0  0  0  0  0  0  0
    3.1710    2.2860    0.8760 C   0  0  0  0  0  0  0  0  0  0  0  0
    4.3900    2.3220    1.5280 C   0  0  0  0  0  0  0  0  0  0  0  0
    5.1700    1.1960    1.5510 C   0  0  0  0  0  0  0  0  0  0  0  0
    4.7180    0.0300    0.9150 C   0  0  0  0  0  0  0  0  0  0  0  0
    3.5130    0.0060    0.2760 C   0  0  0  0  0  0  0  0  0  0  0  0
    3.0710   -1.1550   -0.3500 C   0  0  0  0  0  0  0  0  0  0  0  0
    3.8070   -2.3170   -0.3600 C   0  0  0  0  0  0  0  0  0  0  0  0
    3.2940   -3.4190   -1.0030 C   0  0  0  0  0  0  0  0  0  0  0  0
    4.2800   -4.8880   -0.9900 Cl  0  0  0  0  0  0  0  0  0  0  0  0
    2.0680   -3.3910   -1.6330 C   0  0  0  0  0  0  0  0  0  0  0  0
    1.5070   -4.8460   -2.4200 Cl  0  0  0  0  0  0  0  0  0  0  0  0
    1.3330   -2.2240   -1.6200 C   0  0  0  0  0  0  0  0  0  0  0  0
    1.8240   -1.0830   -0.9780 C   0  0  0  0  0  0  0  0  0  0  0  0
   -3.8910   -0.8410    1.0350 C   0  0  0  0  0  0  0  0  0  0  0  0
   -5.0530   -0.7160    1.6490 C   0  0  0  0  0  0  0  0  0  0  0  0
   -5.6380    0.5730    1.2200 C   0  0  0  0  0  0  0  0  0  0  0  0
  1  2  1  0
  2  3  2  0
  2 27  1  0
  3  4  1  0
  3 25  1  0
  4  5  1  0
  5  6  2  0
  5  7  1  0
  7  8  1  0
  8  9  1  0
  8 24  1  0
  9 10  2  0
  9 11  1  0
 11 12  2  0
 11 16  1  0
 12 13  1  0
 13 14  2  0
 14 15  1  0
 15 16  2  0
 16 17  1  0
 17 18  2  0
 17 24  1  0
 18 19  1  0
 19 20  1  0
 19 21  2  0
 21 22  1  0
 21 23  1  0
 23 24  2  0
 25 26  2  0
 26 27  1  0
M  END
