
     RDKit          3D

 27 30  0  0  0  0  0  0  0  0999 V2000
   -1.7100    5.6830    0.4730 C   0  0  0  0  0  0  0  0  0  0  0  0
   -1.9960    4.3020    0.4070 O   0  0  0  0  0  0  0  0  0  0  0  0
   -1.0260    3.3170    0.3420 C   0  0  0  0  0  0  0  0  0  0  0  0
    0.1890    3.6360    0.3400 O   0  0  0  0  0  0  0  0  0  0  0  0
   -1.4100    1.9080    0.2750 C   0  0  0  0  0  0  0  0  0  0  0  0
   -2.7390    1.5620    0.2820 C   0  0  0  0  0  0  0  0  0  0  0  0
   -3.0660    0.2350    0.2140 C   0  0  0  0  0  0  0  0  0  0  0  0
   -2.0490   -0.7320    0.1390 C   0  0  0  0  0  0  0  0  0  0  0  0
   -2.4480   -2.1200    0.0320 C   0  0  0  0  0  0  0  0  0  0  0  0
   -2.0250   -2.9630   -0.9640 C   0  0  0  0  0  0  0  0  0  0  0  0
   -2.4580   -4.2920   -1.0440 C   0  0  0  0  0  0  0  0  0  0  0  0
   -3.3360   -4.8040   -0.1130 C   0  0  0  0  0  0  0  0  0  0  0  0
   -3.8560   -6.4790   -0.2410 Cl  0  0  0  0  0  0  0  0  0  0  0  0
   -3.7690   -3.9750    0.8900 C   0  0  0  0  0  0  0  0  0  0  0  0
   -3.3410   -2.6710    0.9650 C   0  0  0  0  0  0  0  0  0  0  0  0
   -3.8860   -1.5840    2.2460 Cl  0  0  0  0  0  0  0  0  0  0  0  0
   -0.7400   -0.3680    0.1360 C   0  0  0  0  0  0  0  0  0  0  0  0
    0.3010   -1.3100    0.0930 N   0  0  0  0  0  0  0  0  0  0  0  0
    1.6960   -0.9630    0.0800 C   0  0  1  0  0  0  0  0  0  0  0  0
    2.0950   -0.0250   -1.0410 C   0  0  0  0  0  0  0  0  0  0  0  0
    3.4780    0.3770   -0.5700 C   0  0  0  0  0  0  0  0  0  0  0  0
    4.6330    0.8260   -1.0460 C   0  0  0  0  0  0  0  0  0  0  0  0
    5.5670    0.9880    0.1110 C   0  0  0  0  0  0  0  0  0  0  0  0
    4.7460    0.5620    1.2620 C   0  0  0  0  0  0  0  0  0  0  0  0
    3.5390    0.2070    0.8790 C   0  0  0  0  0  0  0  0  0  0  0  0
    2.1960   -0.3050    1.3390 C   0  0  0  0  0  0  0  0  0  0  0  0
   -0.4770    0.9540    0.2050 N   0  0  0  0  0  0  0  0  0  0  0  0
  1  2  1  0
  2  3  1  0
  3  4  2  0
  3  5  1  0
  5  6  2  0
  5 27  1  0
  6  7  1  0
  7  8  2  0
  8  9  1  0
  8 17  1  0
  9 10  2  0
  9 15  1  0
 10 11  1  0
 11 12  2  0
 12 13  1  0
 12 14  1  0
 14 15  2  0
 15 16  1  0
 17 18  1  0
 17 27  2  0
 19 18  1  1
 19 20  1  0
 19 26  1  0
 20 21  1  0
 21 22  2  0
 21 25  1  0
 22 23  1  0
 23 24  1  0
 24 25  2  0
 25 26  1  0
M  END
