
     RDKit          3D

 12 12  0  0  0  0  0  0  0  0999 V2000
    4.5300    0.2580   -0.8840 O   0  0  0  0  0  0  0  0  0  0  0  0
    3.4080    0.9640   -0.4470 C   0  0  0  0  0  0  0  0  0  0  0  0
    2.2480    0.0110   -0.4430 C   0  0  0  0  0  0  0  0  0  0  0  0
    1.0640    0.5990   -0.0240 O   0  0  0  0  0  0  0  0  0  0  0  0
    0.0800   -0.3880   -0.0690 C   0  0  0  0  0  0  0  0  0  0  0  0
   -1.2630    0.1500    0.3720 C   0  0  1  0  0  0  0  0  0  0  0  0
   -1.2260    0.6290    1.6640 O   0  0  0  0  0  0  0  0  0  0  0  0
   -1.7720    1.0900   -0.4960 O   0  0  0  0  0  0  0  0  0  0  0  0
   -3.0830    0.7460   -0.7740 C   0  0  0  0  0  0  0  0  0  0  0  0
   -3.4610   -0.2260    0.1530 O   0  0  0  0  0  0  0  0  0  0  0  0
   -2.2710   -0.9870    0.2040 C   0  0  1  0  0  0  0  0  0  0  0  0
   -2.0810   -1.5080   -1.0570 O   0  0  0  0  0  0  0  0  0  0  0  0
  1  2  1  0
  2  3  1  0
  3  4  1  0
  4  5  1  0
  5  6  1  0
  6  7  1  1
  6  8  1  0
  6 11  1  0
  8  9  1  0
  9 10  1  0
 10 11  1  0
 11 12  1  6
M  END
