
     RDKit          3D

 13 13  0  0  0  0  0  0  0  0999 V2000
    3.3410   -0.5070    0.2140 O   0  0  0  0  0  0  0  0  0  0  0  0
    2.5790    0.3640   -0.2690 C   0  0  0  0  0  0  0  0  0  0  0  0
    3.1110    1.3430   -1.0600 O   0  0  0  0  0  0  0  0  0  0  0  0
    1.1520    0.3140    0.0210 C   0  0  1  0  0  0  0  0  0  0  0  0
    0.4180    1.3270   -0.5680 O   0  0  0  0  0  0  0  0  0  0  0  0
   -0.8150    1.3950    0.0670 C   0  0  1  0  0  0  0  0  0  0  0  0
   -1.5320    2.5200   -0.3430 O   0  0  0  0  0  0  0  0  0  0  0  0
   -1.6350    0.1250   -0.1580 C   0  0  2  0  0  0  0  0  0  0  0  0
   -2.8250    0.2440    0.5070 O   0  0  0  0  0  0  0  0  0  0  0  0
   -0.8190   -1.0280    0.4050 C   0  0  1  0  0  0  0  0  0  0  0  0
   -1.4560   -2.2360    0.3190 O   0  0  0  0  0  0  0  0  0  0  0  0
    0.4980   -0.9990   -0.3770 C   0  0  2  0  0  0  0  0  0  0  0  0
    1.2800   -2.0940   -0.1340 O   0  0  0  0  0  0  0  0  0  0  0  0
  1  2  2  0
  2  3  1  0
  4  2  1  6
  4  5  1  0
  4 12  1  0
  5  6  1  0
  6  7  1  6
  6  8  1  0
  8  9  1  1
  8 10  1  0
 10 11  1  6
 10 12  1  0
 12 13  1  1
M  END
