
     RDKit          3D

 27 30  0  0  0  0  0  0  0  0999 V2000
    0.8080   -2.3340    1.5050 C   0  0  0  0  0  0  0  0  0  0  0  0
    0.3900   -1.1410    0.7420 C   0  0  0  0  0  0  0  0  0  0  0  0
   -0.9720   -0.9400    0.4970 C   0  0  0  0  0  0  0  0  0  0  0  0
   -1.3880    0.1600   -0.2090 C   0  0  0  0  0  0  0  0  0  0  0  0
   -2.7230    0.4980   -0.5350 N   0  0  0  0  0  0  0  0  0  0  0  0
   -3.8890   -0.2270   -0.2000 C   0  0  0  0  0  0  0  0  0  0  0  0
   -3.7860   -1.2880    0.4540 O   0  0  0  0  0  0  0  0  0  0  0  0
   -5.2310    0.2400   -0.6050 C   0  0  0  0  0  0  0  0  0  0  0  0
   -5.4630    1.3390   -1.2940 C   0  0  0  0  0  0  0  0  0  0  0  0
   -6.9060    1.5030   -1.5250 C   0  0  0  0  0  0  0  0  0  0  0  0
   -7.5560    2.5430   -1.7490 O   0  0  0  0  0  0  0  0  0  0  0  0
   -7.4170    0.0870   -1.4230 C   0  0  0  0  0  0  0  0  0  0  0  0
   -6.5250   -0.4130   -0.3140 C   0  0  2  0  0  0  0  0  0  0  0  0
   -7.1130    0.2090    1.2420 Cl  0  0  0  0  0  0  0  0  0  0  0  0
   -6.4010   -2.1800   -0.3120 Cl  0  0  0  0  0  0  0  0  0  0  0  0
   -0.4430    1.0430   -0.6600 N   0  0  0  0  0  0  0  0  0  0  0  0
    0.8570    0.8340   -0.4160 C   0  0  0  0  0  0  0  0  0  0  0  0
    1.8120    1.7370   -0.8780 C   0  0  0  0  0  0  0  0  0  0  0  0
    3.1560    1.5420   -0.6380 C   0  0  0  0  0  0  0  0  0  0  0  0
    3.6140    0.4510    0.0660 C   0  0  0  0  0  0  0  0  0  0  0  0
    5.0360    0.2300    0.3300 C   0  0  0  0  0  0  0  0  0  0  0  0
    6.0420    0.9890   -0.0400 C   0  0  0  0  0  0  0  0  0  0  0  0
    7.3400    0.4160    0.4250 C   0  0  0  0  0  0  0  0  0  0  0  0
    6.9060   -0.8050    1.1280 C   0  0  0  0  0  0  0  0  0  0  0  0
    5.5940   -0.8950    1.0630 C   0  0  0  0  0  0  0  0  0  0  0  0
    2.6750   -0.4470    0.5270 C   0  0  0  0  0  0  0  0  0  0  0  0
    1.3190   -0.2570    0.2890 C   0  0  0  0  0  0  0  0  0  0  0  0
  1  2  1  0
  2  3  2  0
  2 27  1  0
  3  4  1  0
  4  5  1  0
  4 16  2  0
  5  6  1  0
  6  7  2  0
  6  8  1  0
  8  9  2  0
  8 13  1  0
  9 10  1  0
 10 11  2  0
 10 12  1  0
 12 13  1  0
 13 14  1  1
 13 15  1  0
 16 17  1  0
 17 18  2  0
 17 27  1  0
 18 19  1  0
 19 20  2  0
 20 21  1  0
 20 26  1  0
 21 22  2  0
 21 25  1  0
 22 23  1  0
 23 24  1  0
 24 25  2  0
 26 27  2  0
M  END
