
     RDKit          3D

 27 30  0  0  0  0  0  0  0  0999 V2000
   -5.0760    2.5200    1.7180 C   0  0  0  0  0  0  0  0  0  0  0  0
   -4.1310    1.6310    0.9690 C   0  0  0  0  0  0  0  0  0  0  0  0
   -2.8700    2.1030    0.6550 C   0  0  0  0  0  0  0  0  0  0  0  0
   -2.0250    1.2490   -0.0540 C   0  0  0  0  0  0  0  0  0  0  0  0
   -2.4150   -0.0210   -0.4360 C   0  0  0  0  0  0  0  0  0  0  0  0
   -3.6850   -0.4530   -0.1020 C   0  0  0  0  0  0  0  0  0  0  0  0
   -4.5450    0.3840    0.6050 C   0  0  0  0  0  0  0  0  0  0  0  0
   -4.0920   -1.7280   -0.4720 O   0  0  0  0  0  0  0  0  0  0  0  0
   -3.5580   -2.3660   -1.6040 C   0  0  0  0  0  0  0  0  0  0  0  0
   -2.0410   -2.1530   -1.5380 C   0  0  0  0  0  0  0  0  0  0  0  0
   -1.2570   -3.0550   -1.8100 O   0  0  0  0  0  0  0  0  0  0  0  0
   -1.5730   -0.8610   -1.1550 N   0  0  0  0  0  0  0  0  0  0  0  0
   -0.1750   -0.5570   -1.4680 C   0  0  2  0  0  0  0  0  0  0  0  0
    0.2010   -1.2920   -2.7050 C   0  0  0  0  0  0  0  0  0  0  0  0
    0.6620   -1.1590   -0.3280 C   0  0  0  0  0  0  0  0  0  0  0  0
    0.4190   -2.1590    0.5330 C   0  0  0  0  0  0  0  0  0  0  0  0
    1.4120   -2.1480    1.4910 N   0  0  0  0  0  0  0  0  0  0  0  0
    2.2820   -1.1630    1.2600 C   0  0  0  0  0  0  0  0  0  0  0  0
    3.4520   -0.7420    1.8460 C   0  0  0  0  0  0  0  0  0  0  0  0
    4.1830    0.3130    1.2910 C   0  0  0  0  0  0  0  0  0  0  0  0
    5.4520    0.7570    1.9230 C   0  0  0  0  0  0  0  0  0  0  0  0
    3.7560    0.9570    0.1540 C   0  0  0  0  0  0  0  0  0  0  0  0
    4.5280    2.0480   -0.5310 C   0  0  1  0  0  0  0  0  0  0  0  0
    4.8990    1.5530   -2.2150 Cl  0  0  0  0  0  0  0  0  0  0  0  0
    3.4980    3.4910   -0.5810 Cl  0  0  0  0  0  0  0  0  0  0  0  0
    2.5720    0.5060   -0.4040 C   0  0  0  0  0  0  0  0  0  0  0  0
    1.8130   -0.5440    0.1190 C   0  0  0  0  0  0  0  0  0  0  0  0
  1  2  1  0
  2  3  2  0
  2  7  1  0
  3  4  1  0
  4  5  2  0
  5  6  1  0
  5 12  1  0
  6  7  2  0
  6  8  1  0
  8  9  1  0
  9 10  1  0
 10 11  2  0
 10 12  1  0
 12 13  1  0
 13 14  1  6
 13 15  1  0
 15 16  2  0
 15 27  1  0
 16 17  1  0
 17 18  1  0
 18 19  2  0
 18 27  1  0
 19 20  1  0
 20 21  1  0
 20 22  2  0
 22 23  1  0
 22 26  1  0
 23 24  1  6
 23 25  1  0
 26 27  2  0
M  END
