
     RDKit          3D

 27 30  0  0  0  0  0  0  0  0999 V2000
    7.0820    2.2810   -0.3310 C   0  0  0  0  0  0  0  0  0  0  0  0
    5.9620    1.3380   -0.1510 C   0  0  0  0  0  0  0  0  0  0  0  0
    4.7880    1.7040    0.4720 C   0  0  0  0  0  0  0  0  0  0  0  0
    3.7440    0.8330    0.6290 C   0  0  0  0  0  0  0  0  0  0  0  0
    3.8230   -0.4460    0.1680 C   0  0  0  0  0  0  0  0  0  0  0  0
    2.7790   -1.3770    0.2610 N   0  0  0  0  0  0  0  0  0  0  0  0
    1.3950   -1.0890    0.1950 C   0  0  0  0  0  0  0  0  0  0  0  0
    0.8560    0.0970   -0.2140 C   0  0  0  0  0  0  0  0  0  0  0  0
   -0.5230    0.3020   -0.2830 C   0  0  0  0  0  0  0  0  0  0  0  0
   -1.4160   -0.6800    0.0550 C   0  0  0  0  0  0  0  0  0  0  0  0
   -2.8310   -0.4650   -0.0140 N   0  0  0  0  0  0  0  0  0  0  0  0
   -3.4670    0.6650   -0.5780 C   0  0  0  0  0  0  0  0  0  0  0  0
   -2.9600    1.7010   -1.1290 O   0  0  0  0  0  0  0  0  0  0  0  0
   -4.9160    0.4550   -0.4280 C   0  0  0  0  0  0  0  0  0  0  0  0
   -6.0100    1.2380   -0.8030 C   0  0  0  0  0  0  0  0  0  0  0  0
   -7.3060    0.8090   -0.5470 C   0  0  0  0  0  0  0  0  0  0  0  0
   -7.5630   -0.3970    0.0810 C   0  0  0  0  0  0  0  0  0  0  0  0
   -9.1930   -0.9470    0.4010 Cl  0  0  0  0  0  0  0  0  0  0  0  0
   -6.4600   -1.1450    0.4380 C   0  0  0  0  0  0  0  0  0  0  0  0
   -5.1660   -0.7380    0.1940 C   0  0  0  0  0  0  0  0  0  0  0  0
   -3.8350   -1.3180    0.4560 C   0  0  0  0  0  0  0  0  0  0  0  0
   -3.7170   -2.4440    1.0370 O   0  0  0  0  0  0  0  0  0  0  0  0
   -0.8990   -1.8840    0.4670 C   0  0  0  0  0  0  0  0  0  0  0  0
    0.4620   -2.0850    0.5360 C   0  0  0  0  0  0  0  0  0  0  0  0
    1.0560   -3.6200    1.0600 Cl  0  0  0  0  0  0  0  0  0  0  0  0
    4.9970   -0.8410   -0.4640 C   0  0  0  0  0  0  0  0  0  0  0  0
    6.0260    0.0390   -0.6090 C   0  0  0  0  0  0  0  0  0  0  0  0
  1  2  1  0
  2  3  2  0
  2 27  1  0
  3  4  1  0
  4  5  2  0
  5  6  1  0
  5 26  1  0
  6  7  1  0
  7  8  2  0
  7 24  1  0
  8  9  1  0
  9 10  2  0
 10 11  1  0
 10 23  1  0
 11 12  1  0
 11 21  1  0
 12 13  2  0
 12 14  1  0
 14 15  2  0
 14 20  1  0
 15 16  1  0
 16 17  2  0
 17 18  1  0
 17 19  1  0
 19 20  2  0
 20 21  1  0
 21 22  2  0
 23 24  2  0
 24 25  1  0
 26 27  2  0
M  END
