
     RDKit          3D

  8  8  0  0  0  0  0  0  0  0999 V2000
    2.5980    0.2530    0.3170 C   0  0  0  0  0  0  0  0  0  0  0  0
    1.3490    0.8840   -0.1860 C   0  0  0  0  0  0  0  0  0  0  0  0
    0.1490   -0.0180   -0.1790 C   0  0  2  0  0  0  0  0  0  0  0  0
    0.3900   -1.1750   -1.0130 N   0  0  0  0  0  0  0  0  0  0  0  0
   -1.0020    0.7770   -0.7900 C   0  0  0  0  0  0  0  0  0  0  0  0
   -2.1870   -0.0310   -0.3400 C   0  0  0  0  0  0  0  0  0  0  0  0
   -1.8760   -0.1970    1.1420 C   0  0  0  0  0  0  0  0  0  0  0  0
   -0.3670   -0.3540    1.1720 C   0  0  0  0  0  0  0  0  0  0  0  0
  1  2  1  0
  2  3  1  0
  3  4  1  6
  3  5  1  0
  3  8  1  0
  5  6  1  0
  6  7  1  0
  7  8  1  0
M  CHG  1   4   1
M  END
