
     RDKit          3D

  8  9  0  0  0  0  0  0  0  0999 V2000
    2.2260   -0.1150   -0.0940 C   0  0  0  0  0  0  0  0  0  0  0  0
    1.6370    0.9940    0.3000 C   0  0  0  0  0  0  0  0  0  0  0  0
    0.1800    0.7520    0.2600 C   0  0  0  0  0  0  0  0  0  0  0  0
   -1.0160    1.2740    0.4720 C   0  0  0  0  0  0  0  0  0  0  0  0
   -2.0290    0.3300    0.1800 N   0  0  0  0  0  0  0  0  0  0  0  0
   -1.4180   -0.8950   -0.2530 C   0  0  0  0  0  0  0  0  0  0  0  0
    0.0240   -0.6170   -0.2000 C   0  0  0  0  0  0  0  0  0  0  0  0
    1.2500   -1.1410   -0.4140 C   0  0  0  0  0  0  0  0  0  0  0  0
  1  2  2  0
  1  8  1  0
  2  3  1  0
  3  4  2  0
  3  7  1  0
  4  5  1  0
  5  6  1  0
  6  7  1  0
  7  8  2  0
M  END
