
     RDKit          3D

  8  8  0  0  0  0  0  0  0  0999 V2000
    2.1380   -1.1330    0.2970 N   0  0  0  0  0  0  0  0  0  0  0  0
    2.0300   -0.4230   -0.9290 C   0  0  0  0  0  0  0  0  0  0  0  0
    0.9710    0.2510   -1.2900 C   0  0  0  0  0  0  0  0  0  0  0  0
   -0.2380    0.3500   -0.4580 C   0  0  0  0  0  0  0  0  0  0  0  0
   -1.3250    1.0180   -0.7850 C   0  0  0  0  0  0  0  0  0  0  0  0
   -2.3160    0.8990    0.2690 C   0  0  0  0  0  0  0  0  0  0  0  0
   -1.8290    0.1560    1.2380 C   0  0  0  0  0  0  0  0  0  0  0  0
   -0.4680   -0.2560    0.8590 C   0  0  0  0  0  0  0  0  0  0  0  0
  1  2  1  0
  2  3  2  3
  3  4  1  0
  4  5  2  0
  4  8  1  0
  5  6  1  0
  6  7  2  0
  7  8  1  0
M  END
