
     RDKit          3D

  8  9  0  0  0  0  0  0  0  0999 V2000
    2.2970   -0.3070   -0.0490 C   0  0  0  0  0  0  0  0  0  0  0  0
    1.7170    0.8590    0.1850 C   0  0  0  0  0  0  0  0  0  0  0  0
    0.2740    0.6920    0.1380 C   0  0  0  0  0  0  0  0  0  0  0  0
   -0.9090    1.2550    0.2430 C   0  0  0  0  0  0  0  0  0  0  0  0
   -2.0080    0.2880    0.0350 C   0  0  0  0  0  0  0  0  0  0  0  0
   -1.3590   -0.9790   -0.2180 N   0  0  0  0  0  0  0  0  0  0  0  0
    0.0410   -0.7280   -0.1550 C   0  0  0  0  0  0  0  0  0  0  0  0
    1.2330   -1.2730   -0.2560 C   0  0  0  0  0  0  0  0  0  0  0  0
  1  2  2  0
  1  8  1  0
  2  3  1  0
  3  4  2  0
  3  7  1  0
  4  5  1  0
  5  6  1  0
  6  7  1  0
  7  8  2  0
M  END
