
     RDKit          3D

  8  8  0  0  0  0  0  0  0  0999 V2000
   -1.7200   -1.4020    0.4690 C   0  0  0  0  0  0  0  0  0  0  0  0
   -0.4530   -0.6540    0.1610 C   0  0  0  0  0  0  0  0  0  0  0  0
   -0.5810    0.5960   -0.2030 C   0  0  0  0  0  0  0  0  0  0  0  0
   -1.8440    1.2010   -0.2980 N   0  0  0  0  0  0  0  0  0  0  0  0
    0.6270    1.4350   -0.5340 C   0  0  0  0  0  0  0  0  0  0  0  0
    1.7620    0.8610    0.2890 C   0  0  0  0  0  0  0  0  0  0  0  0
    1.9690   -0.5650   -0.2380 C   0  0  0  0  0  0  0  0  0  0  0  0
    0.8380   -1.3870    0.2930 C   0  0  0  0  0  0  0  0  0  0  0  0
  1  2  1  0
  2  3  2  0
  2  8  1  0
  3  4  1  0
  3  5  1  0
  5  6  1  0
  6  7  1  0
  7  8  1  0
M  CHG  1   4   1
M  END
