
     RDKit          3D

  8  8  0  0  0  0  0  0  0  0999 V2000
    2.6120   -0.1200    0.0750 C   0  0  0  0  0  0  0  0  0  0  0  0
    1.4190   -0.9580   -0.0950 C   0  0  0  0  0  0  0  0  0  0  0  0
    0.2220   -0.4100   -0.0370 C   0  0  0  0  0  0  0  0  0  0  0  0
   -0.9930   -1.1980   -0.2000 C   0  0  0  0  0  0  0  0  0  0  0  0
   -2.2150   -0.7120   -0.1530 C   0  0  0  0  0  0  0  0  0  0  0  0
   -2.3430    0.7290    0.0820 C   0  0  0  0  0  0  0  0  0  0  0  0
   -1.2700    1.4950    0.2370 C   0  0  0  0  0  0  0  0  0  0  0  0
    0.0520    0.9970    0.1900 N   0  0  0  0  0  0  0  0  0  0  0  0
  1  2  1  0
  2  3  2  3
  3  4  1  0
  3  8  1  0
  4  5  2  0
  5  6  1  0
  6  7  2  0
  7  8  1  0
M  END
