
     RDKit          3D

  8  8  0  0  0  0  0  0  0  0999 V2000
    3.2850   -0.5700    0.2990 C   0  0  0  0  0  0  0  0  0  0  0  0
    1.8450   -0.6070   -0.0270 C   0  0  0  0  0  0  0  0  0  0  0  0
    1.0650    0.3490    0.4370 C   0  0  0  0  0  0  0  0  0  0  0  0
   -0.3950    0.3460    0.1300 C   0  0  0  0  0  0  0  0  0  0  0  0
   -1.2740    1.2340    0.5290 C   0  0  0  0  0  0  0  0  0  0  0  0
   -2.6180    0.8960    0.0270 C   0  0  0  0  0  0  0  0  0  0  0  0
   -2.3460   -0.0580   -1.0330 N   0  0  0  0  0  0  0  0  0  0  0  0
   -1.1000   -0.6700   -0.6820 C   0  0  0  0  0  0  0  0  0  0  0  0
  1  2  1  0
  2  3  2  3
  3  4  1  0
  4  5  2  0
  4  8  1  0
  5  6  1  0
  6  7  1  0
  7  8  1  0
M  END
