
     RDKit          3D

  8  8  0  0  0  0  0  0  0  0999 V2000
   -1.2520    1.5710    1.1380 C   0  0  0  0  0  0  0  0  0  0  0  0
   -0.3870    0.7940    0.5380 C   0  0  0  0  0  0  0  0  0  0  0  0
    1.0540    0.9510    0.4360 C   0  0  0  0  0  0  0  0  0  0  0  0
    1.5490   -0.0830   -0.2710 C   0  0  0  0  0  0  0  0  0  0  0  0
    2.9160   -0.2850   -0.5850 N   0  0  0  0  0  0  0  0  0  0  0  0
    0.4130   -0.9250   -0.6340 C   0  0  0  0  0  0  0  0  0  0  0  0
   -0.7220   -0.4290   -0.1710 C   0  0  0  0  0  0  0  0  0  0  0  0
   -2.0580   -1.0500   -0.3700 C   0  0  0  0  0  0  0  0  0  0  0  0
  1  2  2  0
  2  3  1  0
  2  7  1  0
  3  4  2  0
  4  5  1  0
  4  6  1  0
  6  7  2  0
  7  8  1  0
M  END
