
     RDKit          3D

 24 26  0  0  0  0  0  0  0  0999 V2000
    5.4360   -1.8860   -1.8590 C   0  0  0  0  0  0  0  0  0  0  0  0
    5.6070   -0.3940   -2.0100 C   0  0  0  0  0  0  0  0  0  0  0  0
    4.3100    0.3510   -1.9330 C   0  0  0  0  0  0  0  0  0  0  0  0
    3.5890    0.1520   -0.6200 C   0  0  1  0  0  0  0  0  0  0  0  0
    4.4750    0.6440    0.5400 C   0  0  0  0  0  0  0  0  0  0  0  0
    3.5630    1.8610    0.7520 C   0  0  0  0  0  0  0  0  0  0  0  0
    2.6280    1.2140   -0.1850 C   0  0  2  0  0  0  0  0  0  0  0  0
    1.2320    0.9220    0.0550 C   0  0  0  0  0  0  0  0  0  0  0  0
    0.7170   -0.0020    0.9690 N   0  0  1  0  0  0  0  0  0  0  0  0
    1.2890   -0.1280    2.2740 C   0  0  0  0  0  0  0  0  0  0  0  0
    0.4720    0.6460    3.2460 C   0  0  0  0  0  0  0  0  0  0  0  0
   -0.6780    1.1090    2.3360 C   0  0  0  0  0  0  0  0  0  0  0  0
   -0.6890    0.0460    1.2170 C   0  0  2  0  0  0  0  0  0  0  0  0
   -1.0440   -1.2670    1.8730 C   0  0  0  0  0  0  0  0  0  0  0  0
   -0.7750   -2.4730    1.2040 N   0  0  0  0  0  0  0  0  0  0  0  0
   -1.6980    0.4290    0.2420 C   0  0  2  0  0  0  0  0  0  0  0  0
   -1.6010    1.7970   -0.3830 C   0  0  0  0  0  0  0  0  0  0  0  0
   -3.0780    0.4650    0.9210 C   0  0  0  0  0  0  0  0  0  0  0  0
   -4.0760   -0.4830    0.3180 C   0  0  0  0  0  0  0  0  0  0  0  0
   -4.2530   -0.2500   -1.1850 C   0  0  2  0  0  0  0  0  0  0  0  0
   -5.2070    0.8890   -1.4590 C   0  0  0  0  0  0  0  0  0  0  0  0
   -4.9370   -1.5130   -1.7060 C   0  0  0  0  0  0  0  0  0  0  0  0
   -2.9380   -0.1070   -1.8920 C   0  0  0  0  0  0  0  0  0  0  0  0
   -1.8730   -0.5560   -0.8900 C   0  0  0  0  0  0  0  0  0  0  0  0
  1  2  1  0
  2  3  1  0
  4  3  1  6
  4  5  1  0
  4  7  1  0
  5  6  1  0
  6  7  1  0
  7  8  1  1
  9  8  1  1
  9 10  1  0
  9 13  1  0
 10 11  1  0
 11 12  1  0
 12 13  1  0
 13 14  1  1
 13 16  1  0
 14 15  1  0
 16 17  1  6
 16 18  1  0
 16 24  1  0
 18 19  1  0
 19 20  1  0
 20 21  1  1
 20 22  1  0
 20 23  1  0
 23 24  1  0
M  CHG  2   9   1  15   1
M  END
