
     RDKit          3D

 24 26  0  0  0  0  0  0  0  0999 V2000
    7.5100    0.7920   -0.2170 C   0  0  0  0  0  0  0  0  0  0  0  0
    6.2130    0.0790   -0.4570 C   0  0  0  0  0  0  0  0  0  0  0  0
    6.1750   -1.2620    0.2760 C   0  0  0  0  0  0  0  0  0  0  0  0
    4.8940   -1.9170    0.0160 N   0  0  0  0  0  0  0  0  0  0  0  0
    3.8110   -1.2270    0.6500 C   0  0  0  0  0  0  0  0  0  0  0  0
    2.7420   -0.7400   -0.3000 C   0  0  1  0  0  0  0  0  0  0  0  0
    2.1500   -1.9240   -1.0270 C   0  0  0  0  0  0  0  0  0  0  0  0
    1.2940   -2.4910    0.0430 C   0  0  0  0  0  0  0  0  0  0  0  0
    0.9550   -1.5670    0.9230 C   0  0  0  0  0  0  0  0  0  0  0  0
    1.5580   -0.2840    0.5180 C   0  0  2  0  0  0  0  0  0  0  0  0
    0.6240    0.4640   -0.3770 C   0  0  0  0  0  0  0  0  0  0  0  0
   -0.6180    1.0000    0.2630 C   0  0  2  0  0  0  0  0  0  0  0  0
   -0.2700    1.9520    1.3770 C   0  0  0  0  0  0  0  0  0  0  0  0
   -1.3680    2.8630    1.5830 N   0  0  0  0  0  0  0  0  0  0  0  0
   -2.5340    2.2240    2.1300 C   0  0  0  0  0  0  0  0  0  0  0  0
   -3.4560    1.6680    1.0730 C   0  0  0  0  0  0  0  0  0  0  0  0
   -3.0460    0.3520    0.5250 C   0  0  1  0  0  0  0  0  0  0  0  0
   -3.8820   -0.7560    1.1190 C   0  0  0  0  0  0  0  0  0  0  0  0
   -5.3330   -0.6890    0.7970 C   0  0  0  0  0  0  0  0  0  0  0  0
   -5.4760   -0.8380   -0.7080 C   0  0  0  0  0  0  0  0  0  0  0  0
   -4.7520    0.3070   -1.3330 C   0  0  2  0  0  0  0  0  0  0  0  0
   -4.8400    0.1740   -2.8380 C   0  0  0  0  0  0  0  0  0  0  0  0
   -3.2910    0.3580   -0.9680 C   0  0  0  0  0  0  0  0  0  0  0  0
   -1.5970    0.0080    0.7440 C   0  0  0  0  0  0  0  0  0  0  0  0
  1  2  1  0
  2  3  1  0
  3  4  1  0
  4  5  1  0
  6  5  1  1
  6  7  1  0
  6 10  1  0
  7  8  1  0
  8  9  2  0
  9 10  1  0
 10 11  1  6
 12 11  1  1
 12 13  1  0
 12 24  1  0
 13 14  1  0
 14 15  1  0
 15 16  1  0
 17 16  1  1
 17 18  1  0
 17 23  1  0
 17 24  1  0
 18 19  1  0
 19 20  1  0
 20 21  1  0
 21 22  1  6
 21 23  1  0
M  CHG  2   4   1  14   1
M  END
