
     RDKit          3D

 24 26  0  0  0  0  0  0  0  0999 V2000
   -2.2620    1.4390   -2.8800 C   0  0  0  0  0  0  0  0  0  0  0  0
   -3.1020    0.2600   -3.2070 C   0  0  0  0  0  0  0  0  0  0  0  0
   -2.8480   -0.9880   -2.4110 C   0  0  0  0  0  0  0  0  0  0  0  0
   -3.0450   -0.8740   -0.9370 C   0  0  2  0  0  0  0  0  0  0  0  0
   -4.4530   -0.4450   -0.5870 C   0  0  0  0  0  0  0  0  0  0  0  0
   -4.7380   -0.6220    0.8830 C   0  0  0  0  0  0  0  0  0  0  0  0
   -3.7110    0.2210    1.6160 C   0  0  1  0  0  0  0  0  0  0  0  0
   -3.9880    0.3010    3.0280 N   0  0  0  0  0  0  0  0  0  0  0  0
   -4.1890   -1.0000    3.6000 C   0  0  0  0  0  0  0  0  0  0  0  0
   -2.3760   -0.4250    1.3280 C   0  0  0  0  0  0  0  0  0  0  0  0
   -2.0600   -0.1220   -0.1380 C   0  0  1  0  0  0  0  0  0  0  0  0
   -0.6820   -0.4590   -0.4280 N   0  0  0  0  0  0  0  0  0  0  0  0
    0.2560    0.5770   -0.1660 C   0  0  0  0  0  0  0  0  0  0  0  0
    1.2800    0.0760    0.8110 C   0  0  1  0  0  0  0  0  0  0  0  0
    1.9960   -1.1350    0.2000 C   0  0  0  0  0  0  0  0  0  0  0  0
    3.2420   -0.2710   -0.0490 C   0  0  1  0  0  0  0  0  0  0  0  0
    4.4360   -0.9760    0.4980 C   0  0  0  0  0  0  0  0  0  0  0  0
    5.7470   -0.4230    0.0970 C   0  0  0  0  0  0  0  0  0  0  0  0
    5.7400    0.3740   -1.1710 C   0  0  0  0  0  0  0  0  0  0  0  0
    4.6950   -0.2240   -2.0890 C   0  0  0  0  0  0  0  0  0  0  0  0
    3.3410    0.1160   -1.4810 C   0  0  0  0  0  0  0  0  0  0  0  0
    2.6020    0.7570    0.8640 C   0  0  2  0  0  0  0  0  0  0  0  0
    3.2400    0.7360    2.2610 C   0  0  0  0  0  0  0  0  0  0  0  0
    2.6250    2.1760    0.3580 C   0  0  0  0  0  0  0  0  0  0  0  0
  1  2  1  0
  2  3  1  0
  4  3  1  6
  4  5  1  0
  4 11  1  0
  5  6  1  0
  6  7  1  0
  7  8  1  1
  7 10  1  0
  8  9  1  0
 10 11  1  0
 11 12  1  6
 12 13  1  0
 14 13  1  6
 14 15  1  0
 14 22  1  0
 16 15  1  6
 16 17  1  0
 16 21  1  0
 16 22  1  0
 17 18  1  0
 18 19  1  0
 19 20  1  0
 20 21  1  0
 22 23  1  1
 22 24  1  0
M  CHG  2   8   1  12   1
M  END
