
     RDKit          3D

 27 27  0  0  0  0  0  0  0  0999 V2000
    6.7880   -0.7110    0.2060 C   0  0  0  0  0  0  0  0  0  0  0  0
    6.2480   -1.4440    1.3940 C   0  0  0  0  0  0  0  0  0  0  0  0
    4.7370   -1.3090    1.4630 C   0  0  0  0  0  0  0  0  0  0  0  0
    4.4190    0.1600    1.5770 C   0  0  0  0  0  0  0  0  0  0  0  0
    2.9320    0.4140    1.6530 C   0  0  0  0  0  0  0  0  0  0  0  0
    2.1920   -0.0800    0.4590 C   0  0  2  0  0  0  0  0  0  0  0  0
    2.6270    0.5430   -0.8280 C   0  0  0  0  0  0  0  0  0  0  0  0
    2.4710    1.9980   -0.8900 C   0  0  0  0  0  0  0  0  0  0  0  0
    1.9990    2.6550    0.0710 O   0  0  0  0  0  0  0  0  0  0  0  0
    2.8540    2.7120   -2.0570 N   0  0  0  0  0  0  0  0  0  0  0  0
    2.7290    4.0580   -2.1650 O   0  0  0  0  0  0  0  0  0  0  0  0
    0.7430    0.1920    0.6290 C   0  0  0  0  0  0  0  0  0  0  0  0
    0.3580    0.7710    1.6970 O   0  0  0  0  0  0  0  0  0  0  0  0
   -0.2010   -0.1790   -0.3650 N   0  0  0  0  0  0  0  0  0  0  0  0
   -1.6390    0.1240   -0.1300 C   0  0  2  0  0  0  0  0  0  0  0  0
   -2.4180   -1.1170   -0.1660 C   0  0  0  0  0  0  0  0  0  0  0  0
   -1.6940   -2.1870   -0.3520 O   0  0  0  0  0  0  0  0  0  0  0  0
   -3.8000   -1.3380   -0.0360 N   0  0  0  0  0  0  0  0  0  0  0  0
   -4.2930   -2.7440   -0.1240 C   0  0  0  0  0  0  0  0  0  0  0  0
   -5.5270   -2.6990    0.7220 C   0  0  0  0  0  0  0  0  0  0  0  0
   -6.1840   -1.4710    0.0530 C   0  0  0  0  0  0  0  0  0  0  0  0
   -4.9600   -0.5340    0.1460 C   0  0  1  0  0  0  0  0  0  0  0  0
   -5.0930    0.2440    1.4050 C   0  0  0  0  0  0  0  0  0  0  0  0
   -4.0800    1.1590    1.5340 O   0  0  0  0  0  0  0  0  0  0  0  0
   -2.1090    1.0520   -1.2210 C   0  0  1  0  0  0  0  0  0  0  0  0
   -1.2950    2.3500   -1.2160 C   0  0  0  0  0  0  0  0  0  0  0  0
   -2.0800    0.3900   -2.5630 C   0  0  0  0  0  0  0  0  0  0  0  0
  1  2  1  0
  2  3  1  0
  3  4  1  0
  4  5  1  0
  6  5  1  1
  6  7  1  0
  6 12  1  0
  7  8  1  0
  8  9  2  0
  8 10  1  0
 10 11  1  0
 12 13  2  0
 12 14  1  0
 15 14  1  6
 15 16  1  0
 15 25  1  0
 16 17  2  0
 16 18  1  0
 18 19  1  0
 18 22  1  0
 19 20  1  0
 20 21  1  0
 21 22  1  0
 22 23  1  1
 23 24  1  0
 25 26  1  6
 25 27  1  0
M  END
