
     RDKit          3D

 24 26  0  0  0  0  0  0  0  0999 V2000
   -2.6350    2.7170    0.3610 C   0  0  0  0  0  0  0  0  0  0  0  0
   -2.4730    2.1190   -0.7870 C   0  0  0  0  0  0  0  0  0  0  0  0
   -3.1730    2.7140   -1.9910 C   0  0  0  0  0  0  0  0  0  0  0  0
   -3.9680    3.9430   -1.6510 C   0  0  0  0  0  0  0  0  0  0  0  0
   -1.6840    0.9160   -1.0650 C   0  0  0  0  0  0  0  0  0  0  0  0
   -1.0460    0.3780    0.0690 N   0  0  1  0  0  0  0  0  0  0  0  0
   -1.8420   -0.3500    0.9900 C   0  0  0  0  0  0  0  0  0  0  0  0
   -3.1370   -0.9130    0.5120 C   0  0  2  0  0  0  0  0  0  0  0  0
   -3.8740   -1.6370    1.6540 C   0  0  0  0  0  0  0  0  0  0  0  0
   -3.2520   -2.9880    1.7650 C   0  0  0  0  0  0  0  0  0  0  0  0
   -2.9180   -3.3460    0.3490 C   0  0  0  0  0  0  0  0  0  0  0  0
   -2.9680   -2.0640   -0.4520 C   0  0  0  0  0  0  0  0  0  0  0  0
    0.2410   -0.2790   -0.1940 C   0  0  1  0  0  0  0  0  0  0  0  0
    0.4570   -0.7340   -1.5790 C   0  0  0  0  0  0  0  0  0  0  0  0
    1.5850   -0.0750   -2.3150 C   0  0  0  0  0  0  0  0  0  0  0  0
    2.8670   -0.0330   -1.5520 C   0  0  0  0  0  0  0  0  0  0  0  0
    2.7290    0.2010   -0.0920 C   0  0  2  0  0  0  0  0  0  0  0  0
    3.5950    1.4390    0.2290 C   0  0  0  0  0  0  0  0  0  0  0  0
    4.0650    1.4240    1.6490 C   0  0  0  0  0  0  0  0  0  0  0  0
    5.1530    0.3900    1.8010 C   0  0  0  0  0  0  0  0  0  0  0  0
    4.8340   -0.7420    0.8200 C   0  0  0  0  0  0  0  0  0  0  0  0
    3.3170   -0.8890    0.7730 C   0  0  2  0  0  0  0  0  0  0  0  0
    2.9020   -2.2100    0.4780 N   0  0  0  0  0  0  0  0  0  0  0  0
    1.3650    0.5270    0.3890 C   0  0  0  0  0  0  0  0  0  0  0  0
  1  2  2  0
  2  3  1  0
  2  5  1  0
  3  4  1  0
  6  5  1  6
  6  7  1  0
  6 13  1  0
  8  7  1  1
  8  9  1  0
  8 12  1  0
  9 10  1  0
 10 11  1  0
 11 12  1  0
 13 14  1  6
 13 24  1  0
 14 15  1  0
 15 16  1  0
 17 16  1  6
 17 18  1  0
 17 22  1  0
 17 24  1  0
 18 19  1  0
 19 20  1  0
 20 21  1  0
 21 22  1  0
 22 23  1  6
M  CHG  2   6   1  23   1
M  END
