
     RDKit          3D

 24 25  0  0  0  0  0  0  0  0999 V2000
   -4.1560    3.1520    0.8610 C   0  0  0  0  0  0  0  0  0  0  0  0
   -3.4810    1.7780    1.0770 C   0  0  0  0  0  0  0  0  0  0  0  0
   -2.3960    1.6600    0.0640 C   0  0  1  0  0  0  0  0  0  0  0  0
   -1.4680    2.8610    0.3410 C   0  0  0  0  0  0  0  0  0  0  0  0
   -0.8720    2.8620    1.6940 C   0  0  0  0  0  0  0  0  0  0  0  0
   -1.5630    0.4220    0.1030 C   0  0  2  0  0  0  0  0  0  0  0  0
   -0.5750    0.5000   -0.9590 N   0  0  0  0  0  0  0  0  0  0  0  0
    0.7740    0.6850   -0.5620 C   0  0  0  0  0  0  0  0  0  0  0  0
    1.8100    0.1860   -1.5440 C   0  0  2  0  0  0  0  0  0  0  0  0
    1.6420    0.9120   -2.8930 C   0  0  0  0  0  0  0  0  0  0  0  0
    1.7080   -1.2650   -1.8550 C   0  0  0  0  0  0  0  0  0  0  0  0
    3.2000    0.5430   -1.1050 C   0  0  0  0  0  0  0  0  0  0  0  0
    3.6470    0.0500    0.2210 C   0  0  1  0  0  0  0  0  0  0  0  0
    3.6780   -1.4130    0.4210 C   0  0  0  0  0  0  0  0  0  0  0  0
    4.8580   -1.5790    1.3850 C   0  0  0  0  0  0  0  0  0  0  0  0
    5.7970   -0.5500    1.0590 N   0  0  0  0  0  0  0  0  0  0  0  0
    5.0880    0.5100    0.4140 C   0  0  0  0  0  0  0  0  0  0  0  0
   -2.2270   -0.8830    0.2550 C   0  0  2  0  0  0  0  0  0  0  0  0
   -3.2120   -1.3380   -0.7070 C   0  0  0  0  0  0  0  0  0  0  0  0
   -2.8470   -1.5090   -2.1310 C   0  0  0  0  0  0  0  0  0  0  0  0
   -2.6930   -1.1320    1.6670 C   0  0  0  0  0  0  0  0  0  0  0  0
   -2.7810   -2.6670    1.7800 C   0  0  0  0  0  0  0  0  0  0  0  0
   -1.7660   -3.1810    0.8220 C   0  0  0  0  0  0  0  0  0  0  0  0
   -1.0780   -1.9330    0.2410 C   0  0  0  0  0  0  0  0  0  0  0  0
  1  2  1  0
  3  2  1  1
  3  4  1  0
  3  6  1  0
  4  5  1  0
  6  7  1  6
  6 18  1  0
  7  8  1  0
  8  9  1  0
  9 10  1  6
  9 11  1  0
  9 12  1  0
 13 12  1  6
 13 14  1  0
 13 17  1  0
 14 15  1  0
 15 16  1  0
 16 17  1  0
 18 19  1  6
 18 21  1  0
 18 24  1  0
 19 20  1  0
 21 22  1  0
 22 23  1  0
 23 24  1  0
M  CHG  2   7   1  16   1
M  END
