
     RDKit          3D

 24 26  0  0  0  0  0  0  0  0999 V2000
    4.3860   -1.9460   -1.0050 C   0  0  0  0  0  0  0  0  0  0  0  0
    4.3160   -0.5440   -0.5020 C   0  0  2  0  0  0  0  0  0  0  0  0
    5.6440   -0.2370    0.1820 C   0  0  0  0  0  0  0  0  0  0  0  0
    3.2200   -0.2950    0.4800 C   0  0  2  0  0  0  0  0  0  0  0  0
    3.3110   -1.1250    1.7170 C   0  0  0  0  0  0  0  0  0  0  0  0
    2.3770   -0.6070    2.7590 C   0  0  0  0  0  0  0  0  0  0  0  0
    1.4090    0.4530    2.1880 C   0  0  0  0  0  0  0  0  0  0  0  0
    0.8090   -0.1610    0.9870 C   0  0  1  0  0  0  0  0  0  0  0  0
   -0.4250    0.4730    0.4170 C   0  0  2  0  0  0  0  0  0  0  0  0
   -0.8390   -0.3660   -0.7300 N   0  0  0  0  0  0  0  0  0  0  0  0
   -1.4630   -1.5980   -0.2450 C   0  0  2  0  0  0  0  0  0  0  0  0
   -0.8330   -2.8260   -0.8870 C   0  0  0  0  0  0  0  0  0  0  0  0
   -1.8700   -3.6300   -1.6730 C   0  0  0  0  0  0  0  0  0  0  0  0
   -3.0520   -4.0170   -0.8440 C   0  0  0  0  0  0  0  0  0  0  0  0
   -3.4940   -2.8940    0.0800 C   0  0  0  0  0  0  0  0  0  0  0  0
   -2.9740   -1.5990   -0.5220 C   0  0  0  0  0  0  0  0  0  0  0  0
   -0.3330    1.8930    0.0210 C   0  0  2  0  0  0  0  0  0  0  0  0
   -0.0120    2.8550    1.1050 C   0  0  0  0  0  0  0  0  0  0  0  0
   -1.4440    2.3920   -0.8830 C   0  0  0  0  0  0  0  0  0  0  0  0
   -2.7540    2.3050   -0.3600 N   0  0  0  0  0  0  0  0  0  0  0  0
   -3.5100    3.5090   -0.2520 C   0  0  2  0  0  0  0  0  0  0  0  0
   -3.7210    4.3820   -1.4600 C   0  0  0  0  0  0  0  0  0  0  0  0
   -3.0170    4.8710   -0.2010 C   0  0  0  0  0  0  0  0  0  0  0  0
    1.8470   -0.4210   -0.1050 C   0  0  0  0  0  0  0  0  0  0  0  0
  2  1  1  1
  2  3  1  0
  2  4  1  0
  4  5  1  1
  4 24  1  0
  5  6  1  0
  6  7  1  0
  8  7  1  1
  8  9  1  0
  8 24  1  0
  9 10  1  6
  9 17  1  0
 11 10  1  6
 11 12  1  0
 11 16  1  0
 12 13  1  0
 13 14  1  0
 14 15  1  0
 15 16  1  0
 17 18  1  1
 17 19  1  0
 19 20  1  0
 21 20  1  6
 21 22  1  0
 21 23  1  0
 22 23  1  0
M  CHG  2  10   1  20   1
M  END
