
     RDKit          3D

 21 23  0  0  0  0  0  0  0  0999 V2000
    4.9310    1.1830    1.1100 C   0  0  0  0  0  0  0  0  0  0  0  0
    4.3340    0.5610   -0.0260 O   0  0  0  0  0  0  0  0  0  0  0  0
    2.9990    0.2040   -0.0530 C   0  0  0  0  0  0  0  0  0  0  0  0
    2.1600    0.4260    1.0150 C   0  0  0  0  0  0  0  0  0  0  0  0
    0.8290    0.0540    0.9500 C   0  0  0  0  0  0  0  0  0  0  0  0
    0.3230   -0.5520   -0.2040 C   0  0  0  0  0  0  0  0  0  0  0  0
    1.1790   -0.7660   -1.2640 C   0  0  0  0  0  0  0  0  0  0  0  0
    2.5130   -0.3930   -1.1970 C   0  0  0  0  0  0  0  0  0  0  0  0
    3.3180   -0.6380   -2.2990 O   0  0  0  0  0  0  0  0  0  0  0  0
    0.3320   -1.4200   -2.3260 C   0  0  0  0  0  0  0  0  0  0  0  0
   -0.9470   -0.9000   -2.0100 O   0  0  0  0  0  0  0  0  0  0  0  0
   -0.9920   -1.0690   -0.6270 C   0  0  1  0  0  0  0  0  0  0  0  0
   -1.0060   -2.4480   -0.4040 O   0  0  0  0  0  0  0  0  0  0  0  0
   -2.1230   -0.3840   -0.0020 C   0  0  0  0  0  0  0  0  0  0  0  0
   -3.0150   -1.0960    0.7700 C   0  0  0  0  0  0  0  0  0  0  0  0
   -4.1040   -0.4860    1.3830 C   0  0  0  0  0  0  0  0  0  0  0  0
   -4.3040    0.8660    1.2170 C   0  0  0  0  0  0  0  0  0  0  0  0
   -3.4260    1.6010    0.4490 C   0  0  0  0  0  0  0  0  0  0  0  0
   -3.6360    2.9560    0.2900 O   0  0  0  0  0  0  0  0  0  0  0  0
   -2.3440    0.9650   -0.1520 C   0  0  0  0  0  0  0  0  0  0  0  0
   -1.2350    1.8990   -1.1240 Cl  0  0  0  0  0  0  0  0  0  0  0  0
  1  2  1  0
  2  3  1  0
  3  4  2  0
  3  8  1  0
  4  5  1  0
  5  6  2  0
  6  7  1  0
  6 12  1  0
  7  8  2  0
  7 10  1  0
  8  9  1  0
 10 11  1  0
 11 12  1  0
 12 13  1  6
 12 14  1  0
 14 15  2  0
 14 20  1  0
 15 16  1  0
 16 17  2  0
 17 18  1  0
 18 19  1  0
 18 20  2  0
 20 21  1  0
M  END
