
     RDKit          3D

 21 23  0  0  0  0  0  0  0  0999 V2000
    4.5810    1.9390    0.9690 C   0  0  0  0  0  0  0  0  0  0  0  0
    4.1610    0.7710    0.3410 O   0  0  0  0  0  0  0  0  0  0  0  0
    2.8470    0.3970    0.1580 C   0  0  0  0  0  0  0  0  0  0  0  0
    1.8300    1.1890    0.6050 C   0  0  0  0  0  0  0  0  0  0  0  0
    0.4940    0.8260    0.4270 C   0  0  0  0  0  0  0  0  0  0  0  0
    0.1680   -0.3500   -0.2090 C   0  0  0  0  0  0  0  0  0  0  0  0
    1.1910   -1.1760   -0.6710 C   0  0  0  0  0  0  0  0  0  0  0  0
    2.5320   -0.8080   -0.4920 C   0  0  0  0  0  0  0  0  0  0  0  0
    3.5290   -1.6100   -0.9440 O   0  0  0  0  0  0  0  0  0  0  0  0
    0.8560   -2.4690   -1.2720 C   0  0  0  0  0  0  0  0  0  0  0  0
    1.7140   -3.2400   -1.7030 O   0  0  0  0  0  0  0  0  0  0  0  0
   -0.5220   -2.7940   -1.3360 O   0  0  0  0  0  0  0  0  0  0  0  0
   -1.3420   -2.2460   -0.2670 C   0  0  0  0  0  0  0  0  0  0  0  0
   -1.2180   -0.7580   -0.4710 C   0  0  2  0  0  0  0  0  0  0  0  0
   -1.3390   -0.6130   -1.9060 O   0  0  0  0  0  0  0  0  0  0  0  0
   -2.2540    0.0460    0.1710 C   0  0  0  0  0  0  0  0  0  0  0  0
   -3.0600   -0.3800    1.1590 C   0  0  0  0  0  0  0  0  0  0  0  0
   -3.9590    0.7160    1.5350 C   0  0  0  0  0  0  0  0  0  0  0  0
   -3.5860    1.8300    0.6610 C   0  0  0  0  0  0  0  0  0  0  0  0
   -2.5860    1.4120   -0.1300 C   0  0  0  0  0  0  0  0  0  0  0  0
   -1.9120    2.5090   -1.3450 Cl  0  0  0  0  0  0  0  0  0  0  0  0
  1  2  1  0
  2  3  1  0
  3  4  2  0
  3  8  1  0
  4  5  1  0
  5  6  2  0
  6  7  1  0
  6 14  1  0
  7  8  2  0
  7 10  1  0
  8  9  1  0
 10 11  2  0
 10 12  1  0
 12 13  1  0
 13 14  1  0
 14 15  1  6
 14 16  1  0
 16 17  2  0
 16 20  1  0
 17 18  1  0
 18 19  1  0
 19 20  2  0
 20 21  1  0
M  END
