
     RDKit          3D

 21 23  0  0  0  0  0  0  0  0999 V2000
    2.7010   -0.7840    2.3260 O   0  0  0  0  0  0  0  0  0  0  0  0
    2.9190   -0.3100    1.0430 C   0  0  0  0  0  0  0  0  0  0  0  0
    1.8910    0.4170    0.4550 C   0  0  0  0  0  0  0  0  0  0  0  0
    2.0330    0.9210   -0.8200 C   0  0  0  0  0  0  0  0  0  0  0  0
    0.9100    1.7110   -1.4550 C   0  0  0  0  0  0  0  0  0  0  0  0
   -0.3000    1.5290   -0.7510 O   0  0  0  0  0  0  0  0  0  0  0  0
   -0.9060    0.2930   -0.6100 C   0  0  0  0  0  0  0  0  0  0  0  0
   -0.3730   -0.8540   -1.1560 C   0  0  0  0  0  0  0  0  0  0  0  0
   -1.0320   -2.0760   -0.9800 C   0  0  0  0  0  0  0  0  0  0  0  0
   -2.2080   -2.1010   -0.2600 C   0  0  0  0  0  0  0  0  0  0  0  0
   -2.8400   -3.3360   -0.1030 O   0  0  0  0  0  0  0  0  0  0  0  0
   -2.7350   -0.9350    0.2860 C   0  0  0  0  0  0  0  0  0  0  0  0
   -2.0910    0.2690    0.1170 C   0  0  0  0  0  0  0  0  0  0  0  0
   -2.8770    1.3020    0.7930 C   0  0  2  0  0  0  0  0  0  0  0  0
   -2.0760    2.2410    1.4290 O   0  0  0  0  0  0  0  0  0  0  0  0
   -3.7210    0.5140    1.7660 C   0  0  0  0  0  0  0  0  0  0  0  0
   -3.8990   -0.7110    1.0470 O   0  0  0  0  0  0  0  0  0  0  0  0
    3.2020    0.6930   -1.4930 C   0  0  0  0  0  0  0  0  0  0  0  0
    4.2070   -0.0270   -0.8960 C   0  0  0  0  0  0  0  0  0  0  0  0
    4.0960   -0.5430    0.3730 C   0  0  0  0  0  0  0  0  0  0  0  0
    5.3910   -1.4510    1.0960 Cl  0  0  0  0  0  0  0  0  0  0  0  0
  1  2  1  0
  2  3  2  0
  2 20  1  0
  3  4  1  0
  4  5  1  0
  4 18  2  0
  5  6  1  0
  6  7  1  0
  7  8  2  0
  7 13  1  0
  8  9  1  0
  9 10  2  0
 10 11  1  0
 10 12  1  0
 12 13  2  0
 12 17  1  0
 13 14  1  0
 14 15  1  1
 14 16  1  0
 16 17  1  0
 18 19  1  0
 19 20  2  0
 20 21  1  0
M  END
