
     RDKit          3D

 20 22  0  0  0  0  0  0  0  0999 V2000
    5.6220   -1.7120    1.3280 O   0  0  0  0  0  0  0  0  0  0  0  0
    4.6710   -0.9000    1.3640 C   0  0  0  0  0  0  0  0  0  0  0  0
    4.5020    0.1520    2.2380 O   0  0  0  0  0  0  0  0  0  0  0  0
    3.2960    0.8360    1.9540 C   0  0  0  0  0  0  0  0  0  0  0  0
    2.8610    1.8230    2.5590 O   0  0  0  0  0  0  0  0  0  0  0  0
    2.7170    0.1340    0.8320 C   0  0  0  0  0  0  0  0  0  0  0  0
    1.5280    0.3680    0.1300 C   0  0  0  0  0  0  0  0  0  0  0  0
    0.6590    1.4560    0.4950 C   0  0  0  0  0  0  0  0  0  0  0  0
   -0.4340    1.8160   -0.0110 C   0  0  0  0  0  0  0  0  0  0  0  0
   -1.1440    1.2850   -1.0710 N   0  0  0  0  0  0  0  0  0  0  0  0
   -2.2800    0.4410   -0.8530 C   0  0  0  0  0  0  0  0  0  0  0  0
   -3.0320    0.6480    0.2010 C   0  0  0  0  0  0  0  0  0  0  0  0
   -4.2090   -0.1890    0.4700 C   0  0  0  0  0  0  0  0  0  0  0  0
   -4.3790   -1.1610   -0.5020 O   0  0  0  0  0  0  0  0  0  0  0  0
   -3.5880   -1.3700   -1.5990 C   0  0  0  0  0  0  0  0  0  0  0  0
   -2.5390   -0.6050   -1.8170 C   0  0  0  0  0  0  0  0  0  0  0  0
    1.2290   -0.4720   -0.9040 C   0  0  0  0  0  0  0  0  0  0  0  0
    2.0730   -1.5020   -1.2320 N   0  0  0  0  0  0  0  0  0  0  0  0
    3.2100   -1.7540   -0.5880 C   0  0  0  0  0  0  0  0  0  0  0  0
    3.5220   -0.9100    0.4600 C   0  0  0  0  0  0  0  0  0  0  0  0
  1  2  2  0
  2  3  1  0
  2 20  1  0
  3  4  1  0
  4  5  2  0
  4  6  1  0
  6  7  2  0
  6 20  1  0
  7  8  1  0
  7 17  1  0
  8  9  2  3
  9 10  1  0
 10 11  1  0
 11 12  2  0
 11 16  1  0
 12 13  1  0
 13 14  1  0
 14 15  1  0
 15 16  2  0
 17 18  2  0
 18 19  1  0
 19 20  2  0
M  END
