
     RDKit          3D

 20 22  0  0  0  0  0  0  0  0999 V2000
    4.5810   -2.5400   -1.1340 C   0  0  0  0  0  0  0  0  0  0  0  0
    4.0290   -1.1730   -0.8060 C   0  0  0  0  0  0  0  0  0  0  0  0
    4.7030   -0.0360   -0.6590 N   0  0  0  0  0  0  0  0  0  0  0  0
    3.8390    0.9470   -0.3710 C   0  0  0  0  0  0  0  0  0  0  0  0
    2.5710    0.3730   -0.3430 C   0  0  0  0  0  0  0  0  0  0  0  0
    1.3160    1.0650   -0.0690 C   0  0  0  0  0  0  0  0  0  0  0  0
    1.2530    2.4050    0.2000 C   0  0  0  0  0  0  0  0  0  0  0  0
    0.0180    2.9570    0.4430 C   0  0  0  0  0  0  0  0  0  0  0  0
   -1.1210    2.1620    0.4120 C   0  0  0  0  0  0  0  0  0  0  0  0
   -1.0870    0.8360    0.1500 N   0  0  0  0  0  0  0  0  0  0  0  0
   -2.2340   -0.0020    0.2020 C   0  0  0  0  0  0  0  0  0  0  0  0
   -2.2940   -1.1800   -0.4060 C   0  0  0  0  0  0  0  0  0  0  0  0
   -3.4980   -2.0810   -0.3590 C   0  0  0  0  0  0  0  0  0  0  0  0
   -4.5090   -1.6200    0.4440 O   0  0  0  0  0  0  0  0  0  0  0  0
   -4.4710   -0.4140    1.0830 C   0  0  0  0  0  0  0  0  0  0  0  0
   -3.3920    0.3880    0.9880 C   0  0  0  0  0  0  0  0  0  0  0  0
   -3.4270    1.5850    1.6630 O   0  0  0  0  0  0  0  0  0  0  0  0
    0.1480    0.3330   -0.0830 C   0  0  0  0  0  0  0  0  0  0  0  0
    0.2900   -0.8850   -0.3310 O   0  0  0  0  0  0  0  0  0  0  0  0
    2.7670   -0.8920   -0.6120 O   0  0  0  0  0  0  0  0  0  0  0  0
  1  2  1  0
  2  3  2  0
  2 20  1  0
  3  4  1  0
  4  5  2  0
  5  6  1  0
  5 20  1  0
  6  7  2  0
  6 18  1  0
  7  8  1  0
  8  9  2  0
  9 10  1  0
 10 11  1  0
 10 18  1  0
 11 12  2  0
 11 16  1  0
 12 13  1  0
 13 14  1  0
 14 15  1  0
 15 16  2  0
 16 17  1  0
 18 19  2  0
M  END
