
     RDKit          3D

 20 22  0  0  0  0  0  0  0  0999 V2000
   -1.6470   -2.5420    0.4600 C   0  0  0  0  0  0  0  0  0  0  0  0
   -2.2040   -1.1980    0.2470 N   0  0  0  0  0  0  0  0  0  0  0  0
   -1.4280   -0.1540   -0.0090 C   0  0  0  0  0  0  0  0  0  0  0  0
    0.0170   -0.1730   -0.0240 C   0  0  0  0  0  0  0  0  0  0  0  0
    0.8950   -1.0530    0.2810 C   0  0  0  0  0  0  0  0  0  0  0  0
    2.3500   -0.7360    0.1420 C   0  0  0  0  0  0  0  0  0  0  0  0
    2.8510    0.4370   -0.2900 C   0  0  0  0  0  0  0  0  0  0  0  0
    4.2500    0.3060   -0.2660 C   0  0  0  0  0  0  0  0  0  0  0  0
    5.4610    0.9010   -0.5020 C   0  0  0  0  0  0  0  0  0  0  0  0
    6.4160   -0.0460   -0.1760 C   0  0  0  0  0  0  0  0  0  0  0  0
    5.8030   -1.1340    0.2280 O   0  0  0  0  0  0  0  0  0  0  0  0
    4.4900   -0.9610    0.1870 C   0  0  0  0  0  0  0  0  0  0  0  0
    3.3400   -1.5380    0.4150 O   0  0  0  0  0  0  0  0  0  0  0  0
   -2.0410    1.0670   -0.2390 N   0  0  0  0  0  0  0  0  0  0  0  0
   -3.3510    1.2370   -0.2130 C   0  0  0  0  0  0  0  0  0  0  0  0
   -4.0210    2.5420   -0.4570 C   0  0  0  0  0  0  0  0  0  0  0  0
   -4.2030    3.2740    0.6990 O   0  0  0  0  0  0  0  0  0  0  0  0
   -4.1280    0.1320    0.0580 C   0  0  0  0  0  0  0  0  0  0  0  0
   -3.5710   -1.0900    0.2890 C   0  0  0  0  0  0  0  0  0  0  0  0
   -4.2630   -2.1210    0.5400 O   0  0  0  0  0  0  0  0  0  0  0  0
  1  2  1  0
  2  3  1  0
  2 19  1  0
  3  4  1  0
  3 14  2  0
  4  5  2  3
  5  6  1  0
  6  7  2  0
  6 13  1  0
  7  8  1  0
  8  9  1  0
  8 12  2  0
  9 10  2  0
 10 11  1  0
 11 12  1  0
 12 13  1  0
 14 15  1  0
 15 16  1  0
 15 18  2  0
 16 17  1  0
 18 19  1  0
 19 20  2  0
M  END
