
     RDKit          3D

 20 21  0  0  0  0  0  0  0  0999 V2000
   -4.9770   -2.2520   -0.2830 C   0  0  0  0  0  0  0  0  0  0  0  0
   -4.5020   -1.1600    0.5080 O   0  0  0  0  0  0  0  0  0  0  0  0
   -3.2130   -0.7110    0.2540 C   0  0  0  0  0  0  0  0  0  0  0  0
   -2.2150   -1.3890    0.7340 C   0  0  0  0  0  0  0  0  0  0  0  0
   -0.8400   -0.9250    0.4730 C   0  0  0  0  0  0  0  0  0  0  0  0
    0.1170   -1.5770    0.9340 O   0  0  0  0  0  0  0  0  0  0  0  0
   -0.5870    0.2630   -0.3020 C   0  0  0  0  0  0  0  0  0  0  0  0
    0.5810    0.7770   -0.6020 C   0  0  0  0  0  0  0  0  0  0  0  0
    1.9040    0.3510   -0.2780 C   0  0  0  0  0  0  0  0  0  0  0  0
    2.9460    1.0890   -0.7300 C   0  0  0  0  0  0  0  0  0  0  0  0
    2.7160    2.5300   -1.6870 Cl  0  0  0  0  0  0  0  0  0  0  0  0
    4.3000    0.5900   -0.3600 C   0  0  2  0  0  0  0  0  0  0  0  0
    4.6490   -0.6630   -1.1340 C   0  0  0  0  0  0  0  0  0  0  0  0
    4.3870    0.2550    1.1180 C   0  0  0  0  0  0  0  0  0  0  0  0
    3.2500   -0.6710    1.5180 C   0  0  0  0  0  0  0  0  0  0  0  0
    2.2930   -0.7560    0.4640 O   0  0  0  0  0  0  0  0  0  0  0  0
   -1.7960    0.9720   -0.8080 C   0  0  0  0  0  0  0  0  0  0  0  0
   -2.9870    0.4890   -0.5300 C   0  0  0  0  0  0  0  0  0  0  0  0
   -4.0980    1.1680   -1.0140 O   0  0  0  0  0  0  0  0  0  0  0  0
   -4.5220    2.3940   -0.4390 C   0  0  0  0  0  0  0  0  0  0  0  0
  1  2  1  0
  2  3  1  0
  3  4  2  0
  3 18  1  0
  4  5  1  0
  5  6  2  0
  5  7  1  0
  7  8  2  3
  7 17  1  0
  8  9  1  0
  9 10  2  0
  9 16  1  0
 10 11  1  0
 10 12  1  0
 12 13  1  6
 12 14  1  0
 14 15  1  0
 15 16  1  0
 17 18  2  0
 18 19  1  0
 19 20  1  0
M  END
