
     RDKit          3D

 10 10  0  0  0  0  0  0  0  0999 V2000
   -3.3930   -0.4650   -0.5590 O   0  0  0  0  0  0  0  0  0  0  0  0
   -2.3370   -0.6990    0.3150 C   0  0  0  0  0  0  0  0  0  0  0  0
   -1.6600    0.5860    0.7410 C   0  0  0  0  0  0  0  0  0  0  0  0
   -1.1400    1.2860   -0.3230 O   0  0  0  0  0  0  0  0  0  0  0  0
   -0.1900    0.6290   -1.0610 C   0  0  0  0  0  0  0  0  0  0  0  0
    1.0270    0.2480   -0.3150 C   0  0  0  0  0  0  0  0  0  0  0  0
    1.8740   -0.7760   -0.7400 C   0  0  0  0  0  0  0  0  0  0  0  0
    2.9180   -0.8680    0.1760 C   0  0  0  0  0  0  0  0  0  0  0  0
    2.6860    0.0940    1.1330 C   0  0  0  0  0  0  0  0  0  0  0  0
    1.5460    0.7370    0.7990 N   0  0  0  0  0  0  0  0  0  0  0  0
  1  2  1  0
  2  3  1  0
  3  4  1  0
  4  5  1  0
  5  6  1  0
  6  7  2  0
  6 10  1  0
  7  8  1  0
  8  9  2  0
  9 10  1  0
M  END
