
     RDKit          3D

 10  9  0  0  0  0  0  0  0  0999 V2000
   -2.6800    1.6180   -0.1230 C   0  0  0  0  0  0  0  0  0  0  0  0
   -2.7900    0.1790    0.2170 C   0  0  0  0  0  0  0  0  0  0  0  0
   -1.7250   -0.5700    0.1720 C   0  0  0  0  0  0  0  0  0  0  0  0
   -1.8190   -2.0230    0.5120 C   0  0  0  0  0  0  0  0  0  0  0  0
   -0.4660   -0.0270   -0.1960 N   0  0  0  0  0  0  0  0  0  0  0  0
    0.7180   -0.5140    0.4410 C   0  0  0  0  0  0  0  0  0  0  0  0
    1.9100    0.1850   -0.0900 C   0  0  0  0  0  0  0  0  0  0  0  0
    1.7820    1.0670   -0.9760 O   0  0  0  0  0  0  0  0  0  0  0  0
    3.1920   -0.0940    0.3550 O   0  0  0  0  0  0  0  0  0  0  0  0
    4.2760    0.6110   -0.1960 C   0  0  0  0  0  0  0  0  0  0  0  0
  1  2  1  0
  2  3  2  3
  3  4  1  0
  3  5  1  0
  5  6  1  0
  6  7  1  0
  7  8  2  0
  7  9  1  0
  9 10  1  0
M  END
