
     RDKit          3D

 10 10  0  0  0  0  0  0  0  0999 V2000
    2.7210    0.0890    0.5680 N   0  0  0  0  0  0  0  0  0  0  0  0
    1.8050    0.0260   -0.5120 C   0  0  0  0  0  0  0  0  0  0  0  0
    2.2750    0.2980   -1.7810 O   0  0  0  0  0  0  0  0  0  0  0  0
    0.5620   -0.2810   -0.2860 C   0  0  0  0  0  0  0  0  0  0  0  0
    0.1090   -0.5640    1.0940 C   0  0  0  0  0  0  0  0  0  0  0  0
   -1.3360   -0.2370    1.3450 C   0  0  0  0  0  0  0  0  0  0  0  0
   -1.8300    0.6500    0.2430 C   0  0  0  0  0  0  0  0  0  0  0  0
   -1.8130   -0.1140   -1.0850 C   0  0  0  0  0  0  0  0  0  0  0  0
   -0.3790   -0.3490   -1.3930 C   0  0  0  0  0  0  0  0  0  0  0  0
    0.0190   -0.6000   -2.5720 O   0  0  0  0  0  0  0  0  0  0  0  0
  1  2  1  0
  2  3  1  0
  2  4  2  3
  4  5  1  0
  4  9  1  0
  5  6  1  0
  6  7  1  0
  7  8  1  0
  8  9  1  0
  9 10  2  0
M  END
