
     RDKit          3D

 10 10  0  0  0  0  0  0  0  0999 V2000
   -2.4890   -0.9090    0.8020 C   0  0  0  0  0  0  0  0  0  0  0  0
   -1.3380   -0.1740    0.2090 C   0  0  0  0  0  0  0  0  0  0  0  0
   -0.0480   -0.7070    0.2870 C   0  0  0  0  0  0  0  0  0  0  0  0
    0.9810    0.0080   -0.2760 C   0  0  0  0  0  0  0  0  0  0  0  0
    2.3680   -0.5410   -0.2050 C   0  0  0  0  0  0  0  0  0  0  0  0
    2.9400   -0.0630    0.9640 O   0  0  0  0  0  0  0  0  0  0  0  0
    0.7610    1.1800   -0.8810 N   0  0  0  0  0  0  0  0  0  0  0  0
   -0.4730    1.6900   -0.9550 C   0  0  0  0  0  0  0  0  0  0  0  0
   -0.6640    2.7860   -1.5230 O   0  0  0  0  0  0  0  0  0  0  0  0
   -1.5410    1.0290   -0.4160 C   0  0  0  0  0  0  0  0  0  0  0  0
  1  2  1  0
  2  3  1  0
  2 10  2  0
  3  4  2  0
  4  5  1  0
  4  7  1  0
  5  6  1  0
  7  8  1  0
  8  9  2  0
  8 10  1  0
M  END
