
     RDKit          3D

 10 10  0  0  0  0  0  0  0  0999 V2000
   -0.8030    2.9550   -0.4570 O   0  0  0  0  0  0  0  0  0  0  0  0
   -0.4140    1.7850   -0.3370 C   0  0  0  0  0  0  0  0  0  0  0  0
   -1.5180    0.8150   -0.4300 C   0  0  0  0  0  0  0  0  0  0  0  0
   -1.2850   -0.2850    0.6090 C   0  0  1  0  0  0  0  0  0  0  0  0
   -2.5540   -0.5820    1.1620 O   0  0  0  0  0  0  0  0  0  0  0  0
   -0.7290   -1.4690   -0.0690 C   0  0  0  0  0  0  0  0  0  0  0  0
    0.7240   -1.5180   -0.2940 C   0  0  0  0  0  0  0  0  0  0  0  0
    1.5850   -0.6180    0.4990 C   0  0  0  0  0  0  0  0  0  0  0  0
    1.9640    0.6630   -0.2300 C   0  0  0  0  0  0  0  0  0  0  0  0
    0.9820    1.6880   -0.1430 N   0  0  0  0  0  0  0  0  0  0  0  0
  1  2  2  0
  2  3  1  0
  2 10  1  0
  3  4  1  0
  4  5  1  6
  4  6  1  0
  6  7  1  0
  7  8  1  0
  8  9  1  0
  9 10  1  0
M  END
