
     RDKit          3D

 10 10  0  0  0  0  0  0  0  0999 V2000
    2.5820   -1.2060    0.1920 C   0  0  0  0  0  0  0  0  0  0  0  0
    1.4130   -0.2850    0.0010 C   0  0  0  0  0  0  0  0  0  0  0  0
    1.6470    1.0560    0.3040 C   0  0  0  0  0  0  0  0  0  0  0  0
    0.5810    1.8680    0.2870 N   0  0  0  0  0  0  0  0  0  0  0  0
   -0.6400    1.4430    0.0010 C   0  0  0  0  0  0  0  0  0  0  0  0
   -1.7280    2.3740    0.0220 O   0  0  0  0  0  0  0  0  0  0  0  0
   -0.8850    0.1200   -0.3090 C   0  0  0  0  0  0  0  0  0  0  0  0
   -2.2430   -0.2180   -0.7290 C   0  0  0  0  0  0  0  0  0  0  0  0
   -2.9580   -0.8930    0.2900 O   0  0  0  0  0  0  0  0  0  0  0  0
    0.1800   -0.7700   -0.3110 C   0  0  0  0  0  0  0  0  0  0  0  0
  1  2  1  0
  2  3  2  0
  2 10  1  0
  3  4  1  0
  4  5  2  0
  5  6  1  0
  5  7  1  0
  7  8  1  0
  7 10  2  0
  8  9  1  0
M  END
