
     RDKit          3D

 21 22  0  0  0  0  0  0  0  0999 V2000
    5.3760    0.2870   -0.4440 N   0  0  0  0  0  0  0  0  0  0  0  0
    3.9600    0.5390   -0.3550 C   0  0  1  0  0  0  0  0  0  0  0  0
    3.2490    0.3090   -1.6730 C   0  0  0  0  0  0  0  0  0  0  0  0
    1.8090    0.2260   -1.2490 C   0  0  0  0  0  0  0  0  0  0  0  0
    1.7980   -0.1340    0.2220 C   0  0  2  0  0  0  0  0  0  0  0  0
    1.0420   -1.2410    0.4980 O   0  0  0  0  0  0  0  0  0  0  0  0
   -0.3190   -0.9850    0.6310 C   0  0  2  0  0  0  0  0  0  0  0  0
   -1.1470   -1.8180   -0.3000 C   0  0  0  0  0  0  0  0  0  0  0  0
   -2.4880   -1.6650   -0.2080 O   0  0  0  0  0  0  0  0  0  0  0  0
   -3.0510   -0.4500   -0.4390 C   0  0  0  0  0  0  0  0  0  0  0  0
   -4.5890   -0.5990   -0.3180 C   0  0  1  0  0  0  0  0  0  0  0  0
   -4.9220   -1.0370    0.9450 O   0  0  0  0  0  0  0  0  0  0  0  0
   -5.1760    0.7790   -0.5600 C   0  0  1  0  0  0  0  0  0  0  0  0
   -6.5590    0.7260   -0.4470 O   0  0  0  0  0  0  0  0  0  0  0  0
   -4.6070    1.7330    0.2680 O   0  0  0  0  0  0  0  0  0  0  0  0
   -0.6090    0.3570    0.4220 O   0  0  0  0  0  0  0  0  0  0  0  0
    0.0410    1.0640    1.4540 C   0  0  0  0  0  0  0  0  0  0  0  0
    1.5050    1.0560    1.0850 C   0  0  1  0  0  0  0  0  0  0  0  0
    2.2480    1.0920    2.2510 O   0  0  0  0  0  0  0  0  0  0  0  0
    3.2590   -0.5170    0.5100 C   0  0  1  0  0  0  0  0  0  0  0  0
    3.5080   -1.7620   -0.0380 O   0  0  0  0  0  0  0  0  0  0  0  0
  2  1  1  6
  2  3  1  0
  2 20  1  0
  3  4  1  0
  5  4  1  6
  5  6  1  0
  5 18  1  0
  5 20  1  0
  6  7  1  0
  7  8  1  6
  7 16  1  0
  8  9  1  0
  9 10  1  0
 10 11  1  0
 11 12  1  1
 11 13  1  0
 13 14  1  1
 13 15  1  0
 16 17  1  0
 17 18  1  0
 18 19  1  1
 20 21  1  6
M  CHG  1   1   1
M  END
