
     RDKit          3D

 10 11  0  0  0  0  0  0  0  0999 V2000
    3.2930   -0.7370   -0.2170 O   0  0  0  0  0  0  0  0  0  0  0  0
    1.9780   -0.2730   -0.1480 C   0  0  0  0  0  0  0  0  0  0  0  0
    1.7080    1.0000    0.2820 C   0  0  0  0  0  0  0  0  0  0  0  0
    0.4030    1.4520    0.3480 C   0  0  0  0  0  0  0  0  0  0  0  0
   -0.6410    0.6300   -0.0180 C   0  0  0  0  0  0  0  0  0  0  0  0
   -0.3660   -0.6620   -0.4550 C   0  0  0  0  0  0  0  0  0  0  0  0
    0.9420   -1.1080   -0.5180 C   0  0  0  0  0  0  0  0  0  0  0  0
   -1.5840   -1.2840   -0.7630 O   0  0  0  0  0  0  0  0  0  0  0  0
   -2.5660   -0.6030    0.0230 C   0  0  0  0  0  0  0  0  0  0  0  0
   -2.0650    0.7680   -0.0720 N   0  0  0  0  0  0  0  0  0  0  0  0
  1  2  1  0
  2  3  2  0
  2  7  1  0
  3  4  1  0
  4  5  2  0
  5  6  1  0
  5 10  1  0
  6  7  2  0
  6  8  1  0
  8  9  1  0
  9 10  1  0
M  END
