
     RDKit          3D

 10 10  0  0  0  0  0  0  0  0999 V2000
    2.9870    1.4450   -0.0560 C   0  0  0  0  0  0  0  0  0  0  0  0
    1.7620    0.7600    0.2520 O   0  0  0  0  0  0  0  0  0  0  0  0
    1.5390   -0.5380   -0.1710 C   0  0  0  0  0  0  0  0  0  0  0  0
    2.4640   -1.0540   -0.8570 O   0  0  0  0  0  0  0  0  0  0  0  0
    0.3490   -1.3430    0.1110 C   0  0  0  0  0  0  0  0  0  0  0  0
   -0.9380   -0.6260    0.1190 C   0  0  0  0  0  0  0  0  0  0  0  0
   -1.1880    0.6980    0.4410 C   0  0  0  0  0  0  0  0  0  0  0  0
   -2.5710    0.8830    0.3660 C   0  0  0  0  0  0  0  0  0  0  0  0
   -3.1000   -0.3160    0.0060 C   0  0  0  0  0  0  0  0  0  0  0  0
   -2.1200   -1.1880   -0.1380 N   0  0  0  0  0  0  0  0  0  0  0  0
  1  2  1  0
  2  3  1  0
  3  4  2  0
  3  5  1  0
  5  6  1  0
  6  7  2  0
  6 10  1  0
  7  8  1  0
  8  9  2  0
  9 10  1  0
M  END
