
     RDKit          3D

 24 27  0  0  0  0  0  0  0  0999 V2000
   -6.3490   -0.1920   -0.8320 C   0  0  0  0  0  0  0  0  0  0  0  0
   -4.8900    0.0060   -0.5350 C   0  0  0  0  0  0  0  0  0  0  0  0
   -4.0250   -0.9960   -0.9070 C   0  0  0  0  0  0  0  0  0  0  0  0
   -2.6910   -0.8510   -0.6530 C   0  0  0  0  0  0  0  0  0  0  0  0
   -2.2340    0.3090   -0.0220 C   0  0  0  0  0  0  0  0  0  0  0  0
   -3.0760    1.3070    0.3520 C   0  0  0  0  0  0  0  0  0  0  0  0
   -4.4380    1.1490    0.0870 C   0  0  0  0  0  0  0  0  0  0  0  0
   -5.3750    2.2300    0.4890 C   0  0  0  0  0  0  0  0  0  0  0  0
   -0.8040    0.2080    0.0980 N   0  0  0  0  0  0  0  0  0  0  0  0
    0.4410    0.7810    0.1120 N   0  0  0  0  0  0  0  0  0  0  0  0
    1.4210   -0.2910    0.1430 C   0  0  0  0  0  0  0  0  0  0  0  0
    2.8520   -0.0060    0.1400 C   0  0  0  0  0  0  0  0  0  0  0  0
    3.8410   -0.8290    0.1670 C   0  0  0  0  0  0  0  0  0  0  0  0
    3.6600   -2.7480    0.2200 Br  0  0  0  0  0  0  0  0  0  0  0  0
    5.2510   -0.3340    0.1570 C   0  0  0  0  0  0  0  0  0  0  0  0
    6.2390   -1.2130    0.1850 C   0  0  0  0  0  0  0  0  0  0  0  0
    7.9180   -0.7130    0.1770 S   0  0  0  0  0  0  0  0  0  0  0  0
    8.6040   -1.2120    1.4440 O   0  0  0  0  0  0  0  0  0  0  0  0
    7.9610    1.0000    0.1280 O   0  0  0  0  0  0  0  0  0  0  0  0
    6.7430    1.6400    0.1060 C   0  0  0  0  0  0  0  0  0  0  0  0
    5.5510    1.0770    0.1180 C   0  0  0  0  0  0  0  0  0  0  0  0
    0.7860   -1.4140    0.1720 N   0  0  0  0  0  0  0  0  0  0  0  0
   -0.6080   -1.2510    0.1890 C   0  0  2  0  0  0  0  0  0  0  0  0
   -1.4770   -1.7380   -0.9170 C   0  0  0  0  0  0  0  0  0  0  0  0
  1  2  1  0
  2  3  2  0
  2  7  1  0
  3  4  1  0
  4  5  2  0
  4 24  1  0
  5  6  1  0
  5  9  1  0
  6  7  2  0
  7  8  1  0
  9 10  1  0
  9 23  1  0
 10 11  1  0
 11 12  1  0
 11 22  2  0
 12 13  2  3
 13 14  1  0
 13 15  1  0
 15 16  2  0
 15 21  1  0
 16 17  1  0
 17 18  2  0
 17 19  1  1
 19 20  1  0
 20 21  2  0
 22 23  1  0
 23 24  1  6
M  CHG  1  22   1
M  END
