
     RDKit          3D

 24 26  0  0  0  0  0  0  0  0999 V2000
    5.8080   -0.8830    0.2830 C   0  0  0  0  0  0  0  0  0  0  0  0
    4.9660    0.1060    0.4440 C   0  0  0  0  0  0  0  0  0  0  0  0
    3.5290   -0.1140    0.5870 C   0  0  0  0  0  0  0  0  0  0  0  0
    2.6390    0.8350    0.7440 C   0  0  0  0  0  0  0  0  0  0  0  0
    0.9050    0.5960    0.9260 S   0  0  0  0  0  0  0  0  0  0  0  0
    0.1710   -0.9100    0.4070 C   0  0  0  0  0  0  0  0  0  0  0  0
   -0.1040   -1.0810   -1.0160 C   0  0  0  0  0  0  0  0  0  0  0  0
   -1.2620   -1.1250   -1.6250 C   0  0  0  0  0  0  0  0  0  0  0  0
   -2.5890   -1.0200   -1.2020 N   0  0  0  0  0  0  0  0  0  0  0  0
   -3.1990   -0.8000    0.0230 C   0  0  0  0  0  0  0  0  0  0  0  0
   -2.5480   -0.6250    1.0400 O   0  0  0  0  0  0  0  0  0  0  0  0
   -4.7180   -0.7650    0.1700 C   0  0  1  0  0  0  0  0  0  0  0  0
   -5.2670   -0.9780    1.5140 C   0  0  0  0  0  0  0  0  0  0  0  0
   -5.1550    0.4210    1.0320 C   0  0  2  0  0  0  0  0  0  0  0  0
   -6.4110    1.1580    0.5940 C   0  0  0  0  0  0  0  0  0  0  0  0
   -0.9650   -1.3330   -3.0760 C   0  0  0  0  0  0  0  0  0  0  0  0
   -2.2690   -1.4790   -4.4910 Br  0  0  0  0  0  0  0  0  0  0  0  0
    0.2860   -1.4020   -3.2740 N   0  0  0  0  0  0  0  0  0  0  0  0
    0.9470   -1.2580   -2.0420 C   0  0  0  0  0  0  0  0  0  0  0  0
    2.1790   -1.2820   -1.8950 O   0  0  0  0  0  0  0  0  0  0  0  0
    3.1370    2.2030    0.7860 C   0  0  0  0  0  0  0  0  0  0  0  0
    4.3980    2.5040    0.6710 C   0  0  0  0  0  0  0  0  0  0  0  0
    5.4390    1.4790    0.4870 C   0  0  0  0  0  0  0  0  0  0  0  0
    6.6580    1.8360    0.3800 N   0  0  0  0  0  0  0  0  0  0  0  0
  1  2  2  0
  2  3  1  0
  2 23  1  0
  3  4  2  0
  4  5  1  0
  4 21  1  0
  5  6  1  0
  6  7  1  0
  7  8  2  0
  7 19  1  0
  8  9  1  0
  8 16  1  0
  9 10  1  0
 10 11  2  0
 12 10  1  1
 12 13  1  0
 12 14  1  0
 13 14  1  0
 14 15  1  6
 16 17  1  0
 16 18  2  0
 18 19  1  0
 19 20  2  0
 21 22  2  0
 22 23  1  0
 23 24  2  0
M  CHG  1  24   1
M  END
