
     RDKit          3D

 24 26  0  0  0  0  0  0  0  0999 V2000
   -1.4150    3.5110   -1.9880 S   0  0  0  0  0  0  0  0  0  0  0  0
   -2.4120    2.5000   -1.1490 C   0  0  0  0  0  0  0  0  0  0  0  0
   -3.8120    2.8860   -1.2310 C   0  0  0  0  0  0  0  0  0  0  0  0
   -4.6310    2.3640   -0.1910 N   0  0  0  0  0  0  0  0  0  0  0  0
   -4.6400    0.9060   -0.3940 C   0  0  0  0  0  0  0  0  0  0  0  0
   -3.7190    0.3410    0.6260 C   0  0  0  0  0  0  0  0  0  0  0  0
   -2.2710    0.2730    0.1830 C   0  0  1  0  0  0  0  0  0  0  0  0
   -1.4760    0.0860    1.4590 C   0  0  0  0  0  0  0  0  0  0  0  0
   -0.3300   -0.8510    1.3650 C   0  0  0  0  0  0  0  0  0  0  0  0
    0.7380   -0.4820    0.3830 C   0  0  0  0  0  0  0  0  0  0  0  0
    0.2830   -0.8600   -0.9400 N   0  0  0  0  0  0  0  0  0  0  0  0
    1.4010   -1.1000   -1.8660 C   0  0  0  0  0  0  0  0  0  0  0  0
    2.6040   -1.1910   -1.5980 C   0  0  0  0  0  0  0  0  0  0  0  0
    3.8260   -1.2340   -0.9860 C   0  0  0  0  0  0  0  0  0  0  0  0
    4.9450   -1.2930   -0.5210 C   0  0  0  0  0  0  0  0  0  0  0  0
    5.1710   -0.9840    0.9640 C   0  0  0  0  0  0  0  0  0  0  0  0
    6.3150   -1.0350    1.5950 C   0  0  0  0  0  0  0  0  0  0  0  0
    7.9640   -1.5170    0.8140 Br  0  0  0  0  0  0  0  0  0  0  0  0
    6.0390   -0.5910    2.9920 C   0  0  0  0  0  0  0  0  0  0  0  0
    4.8310    0.1180    2.8340 O   0  0  0  0  0  0  0  0  0  0  0  0
    4.1910   -0.6020    1.8460 O   0  0  0  0  0  0  0  0  0  0  0  0
   -0.9930   -1.0880   -1.5420 C   0  0  0  0  0  0  0  0  0  0  0  0
   -2.1950   -0.9210   -0.7120 C   0  0  0  0  0  0  0  0  0  0  0  0
   -1.8050    1.4270   -0.4780 N   0  0  0  0  0  0  0  0  0  0  0  0
  1  2  2  0
  2  3  1  0
  2 24  1  0
  3  4  1  0
  4  5  1  0
  5  6  1  0
  7  6  1  1
  7  8  1  0
  7 23  1  0
  7 24  1  0
  8  9  1  0
  9 10  1  0
 10 11  1  0
 11 12  1  0
 11 22  1  0
 12 13  2  3
 13 14  1  0
 14 15  2  3
 15 16  1  0
 16 17  2  0
 16 21  1  0
 17 18  1  0
 17 19  1  0
 19 20  1  0
 20 21  1  0
 22 23  1  0
M  CHG  1   4   1
M  END
