
     RDKit          3D

 27 28  0  0  0  0  0  0  0  0999 V2000
   -1.8820   -3.1880    0.0960 C   0  0  0  0  0  0  0  0  0  0  0  0
   -2.9060   -2.7790   -0.7650 O   0  0  0  0  0  0  0  0  0  0  0  0
   -2.9330   -1.5020   -1.3370 C   0  0  0  0  0  0  0  0  0  0  0  0
   -1.9320   -0.5980   -1.0610 C   0  0  0  0  0  0  0  0  0  0  0  0
   -1.9460    0.6520   -1.6140 C   0  0  0  0  0  0  0  0  0  0  0  0
   -0.9600    1.5960   -1.3670 O   0  0  0  0  0  0  0  0  0  0  0  0
    0.1120    1.2810   -0.5200 C   0  0  0  0  0  0  0  0  0  0  0  0
    0.8200    0.1940   -1.0440 O   0  0  0  0  0  0  0  0  0  0  0  0
    1.9390   -0.2940   -0.3570 C   0  0  0  0  0  0  0  0  0  0  0  0
    2.3500    0.2890    0.8340 C   0  0  0  0  0  0  0  0  0  0  0  0
    3.4460   -0.1710    1.5300 C   0  0  0  0  0  0  0  0  0  0  0  0
    3.8720    0.4670    2.8070 C   0  0  2  0  0  0  0  0  0  0  0  0
    4.8440   -0.3220    3.4400 O   0  0  0  0  0  0  0  0  0  0  0  0
    2.7360    0.7310    3.7130 C   0  0  0  0  0  0  0  0  0  0  0  0
    2.1410    1.8900    3.6860 C   0  0  0  0  0  0  0  0  0  0  0  0
    1.0330    2.2230    4.5320 N   0  0  0  0  0  0  0  0  0  0  0  0
    4.1240   -1.2430    0.9900 C   0  0  0  0  0  0  0  0  0  0  0  0
    5.5260   -1.8450    1.8620 Cl  0  0  0  0  0  0  0  0  0  0  0  0
    3.7230   -1.8270   -0.1920 C   0  0  0  0  0  0  0  0  0  0  0  0
    2.6140   -1.3620   -0.8940 C   0  0  0  0  0  0  0  0  0  0  0  0
    2.2180   -1.9610   -2.0890 O   0  0  0  0  0  0  0  0  0  0  0  0
   -2.9700    1.0530   -2.4720 C   0  0  0  0  0  0  0  0  0  0  0  0
   -2.9640    2.3410   -3.0280 O   0  0  0  0  0  0  0  0  0  0  0  0
   -4.0090    2.7080   -3.8850 C   0  0  0  0  0  0  0  0  0  0  0  0
   -3.9630    0.1460   -2.7410 C   0  0  0  0  0  0  0  0  0  0  0  0
   -3.9460   -1.1130   -2.1830 C   0  0  0  0  0  0  0  0  0  0  0  0
   -4.9670   -2.0110   -2.4750 O   0  0  0  0  0  0  0  0  0  0  0  0
  1  2  1  0
  2  3  1  0
  3  4  2  0
  3 26  1  0
  4  5  1  0
  5  6  1  0
  5 22  2  0
  6  7  1  0
  7  8  1  0
  8  9  1  0
  9 10  2  0
  9 20  1  0
 10 11  1  0
 11 12  1  0
 11 17  2  0
 12 13  1  1
 12 14  1  0
 14 15  2  3
 15 16  1  0
 17 18  1  0
 17 19  1  0
 19 20  2  0
 20 21  1  0
 22 23  1  0
 22 25  1  0
 23 24  1  0
 25 26  2  0
 26 27  1  0
M  END
