
     RDKit          3D

 17 18  0  0  0  0  0  0  0  0999 V2000
    4.3330    0.6570   -1.2020 C   0  0  0  0  0  0  0  0  0  0  0  0
    3.1670    0.1260   -0.4500 C   0  0  0  0  0  0  0  0  0  0  0  0
    1.8610    0.4620   -0.7310 C   0  0  0  0  0  0  0  0  0  0  0  0
    0.8110   -0.0270   -0.0410 N   0  0  0  0  0  0  0  0  0  0  0  0
   -0.5310    0.3640   -0.3850 C   0  0  1  0  0  0  0  0  0  0  0  0
   -1.3400   -0.7390   -0.9770 C   0  0  0  0  0  0  0  0  0  0  0  0
   -2.6550   -0.6290   -0.1970 C   0  0  2  0  0  0  0  0  0  0  0  0
   -3.7530   -0.8480   -0.9900 O   0  0  0  0  0  0  0  0  0  0  0  0
   -2.5400    0.8100    0.2810 C   0  0  1  0  0  0  0  0  0  0  0  0
   -3.5320    1.1150    1.3760 C   0  0  0  0  0  0  0  0  0  0  0  0
   -3.3230    0.2920    2.4650 F   0  0  0  0  0  0  0  0  0  0  0  0
   -1.2270    0.8250    0.7480 O   0  0  0  0  0  0  0  0  0  0  0  0
    1.0630   -0.8860    0.9730 C   0  0  0  0  0  0  0  0  0  0  0  0
    0.0960   -1.3570    1.6350 O   0  0  0  0  0  0  0  0  0  0  0  0
    2.3270   -1.2190    1.2540 N   0  0  0  0  0  0  0  0  0  0  0  0
    3.3910   -0.7520    0.5880 C   0  0  0  0  0  0  0  0  0  0  0  0
    4.5310   -1.1340    0.9410 O   0  0  0  0  0  0  0  0  0  0  0  0
  1  2  1  0
  2  3  2  0
  2 16  1  0
  3  4  1  0
  5  4  1  1
  4 13  1  0
  5  6  1  0
  5 12  1  0
  6  7  1  0
  7  8  1  6
  7  9  1  0
  9 10  1  1
  9 12  1  0
 10 11  1  0
 13 14  2  0
 13 15  1  0
 15 16  1  0
 16 17  2  0
M  END
