
     RDKit          3D

 24 26  0  0  0  0  0  0  0  0999 V2000
    7.3680    1.7130   -1.5360 C   0  0  0  0  0  0  0  0  0  0  0  0
    6.2790    0.8750   -0.9510 C   0  0  0  0  0  0  0  0  0  0  0  0
    6.4040   -0.1830   -0.0820 C   0  0  0  0  0  0  0  0  0  0  0  0
    5.1550   -0.6510    0.1890 C   0  0  0  0  0  0  0  0  0  0  0  0
    4.2810    0.1340   -0.5240 C   0  0  0  0  0  0  0  0  0  0  0  0
    2.8180    0.0600   -0.5900 C   0  0  0  0  0  0  0  0  0  0  0  0
    2.0730   -0.2100    0.4680 C   0  0  0  0  0  0  0  0  0  0  0  0
    2.6390   -0.4360    1.6890 O   0  0  0  0  0  0  0  0  0  0  0  0
    0.6330   -0.2630    0.3010 C   0  0  0  0  0  0  0  0  0  0  0  0
   -0.1030   -0.5290    1.3670 C   0  0  0  0  0  0  0  0  0  0  0  0
    0.2920   -0.7800    2.6910 N   0  0  0  0  0  0  0  0  0  0  0  0
   -0.7260   -0.9990    3.4420 C   0  0  0  0  0  0  0  0  0  0  0  0
   -1.9350   -0.8930    2.5720 C   0  0  0  0  0  0  0  0  0  0  0  0
   -3.7010   -1.1420    3.2780 Br  0  0  0  0  0  0  0  0  0  0  0  0
   -1.5880   -0.6160    1.3420 C   0  0  0  0  0  0  0  0  0  0  0  0
   -2.3640   -0.4160    0.1090 C   0  0  0  0  0  0  0  0  0  0  0  0
   -3.7870   -0.5390    0.1780 N   0  0  2  0  0  0  0  0  0  0  0  0
   -4.3280   -1.1070   -1.0640 C   0  0  0  0  0  0  0  0  0  0  0  0
   -4.4230   -0.1280   -2.1800 C   0  0  0  0  0  0  0  0  0  0  0  0
   -5.0370    1.1140   -1.7980 N   0  0  0  0  0  0  0  0  0  0  0  0
   -4.8600    1.5770   -0.4780 C   0  0  0  0  0  0  0  0  0  0  0  0
   -5.1090    3.1470   -0.1110 S   0  0  0  0  0  0  0  0  0  0  0  0
   -4.4500    0.6580    0.5900 C   0  0  0  0  0  0  0  0  0  0  0  0
    4.9920    1.0240   -1.1850 O   0  0  0  0  0  0  0  0  0  0  0  0
  1  2  1  0
  2  3  2  0
  2 24  1  0
  3  4  1  0
  4  5  2  0
  5  6  1  0
  5 24  1  0
  6  7  2  3
  7  8  1  0
  7  9  1  0
  9 10  2  3
 10 11  1  0
 10 15  1  0
 11 12  2  0
 12 13  1  0
 13 14  1  0
 13 15  2  0
 15 16  1  0
 17 16  1  6
 17 18  1  0
 17 23  1  0
 18 19  1  0
 19 20  1  0
 20 21  1  0
 21 22  2  0
 21 23  1  0
M  CHG  1  17   1
M  END
