
     RDKit          3D

 19 19  0  0  0  0  0  0  0  0999 V2000
   -4.2330   -1.4160    1.1590 C   0  0  0  0  0  0  0  0  0  0  0  0
   -3.1540   -0.8240    0.4140 N   0  0  0  0  0  0  0  0  0  0  0  0
   -3.3340    0.2440   -0.5430 C   0  0  0  0  0  0  0  0  0  0  0  0
   -4.4500    0.8530   -0.5640 N   0  0  0  0  0  0  0  0  0  0  0  0
   -4.8130    1.9170   -1.4220 C   0  0  0  0  0  0  0  0  0  0  0  0
   -6.3880    2.6820   -1.3590 Cl  0  0  0  0  0  0  0  0  0  0  0  0
   -3.9200    2.2950   -2.2580 N   0  0  0  0  0  0  0  0  0  0  0  0
   -2.6520    1.7090   -2.3380 C   0  0  0  0  0  0  0  0  0  0  0  0
   -1.7710    2.1070   -3.1860 O   0  0  0  0  0  0  0  0  0  0  0  0
   -2.2480    0.6060   -1.4620 C   0  0  1  0  0  0  0  0  0  0  0  0
   -1.1450    1.1090   -0.6750 O   0  0  0  0  0  0  0  0  0  0  0  0
    0.0750    0.4570   -0.7690 C   0  0  0  0  0  0  0  0  0  0  0  0
    0.1980   -0.5560   -1.5380 O   0  0  0  0  0  0  0  0  0  0  0  0
    1.2070    0.8360   -0.0710 O   0  0  0  0  0  0  0  0  0  0  0  0
    2.4200    0.1170   -0.2220 C   0  0  1  0  0  0  0  0  0  0  0  0
    3.5120    1.0340   -0.7180 C   0  0  0  0  0  0  0  0  0  0  0  0
    2.8200   -0.3750    1.1600 C   0  0  0  0  0  0  0  0  0  0  0  0
    4.1150   -1.1620    1.1060 C   0  0  0  0  0  0  0  0  0  0  0  0
    4.4220   -1.5900    2.4480 N   0  0  0  0  0  0  0  0  0  0  0  0
  1  2  1  0
  2  3  1  0
  3  4  2  0
  3 10  1  0
  4  5  1  0
  5  6  1  0
  5  7  2  0
  7  8  1  0
  8  9  2  0
  8 10  1  0
 10 11  1  1
 11 12  1  0
 12 13  2  0
 12 14  1  0
 14 15  1  0
 15 16  1  1
 15 17  1  0
 17 18  1  0
 18 19  1  0
M  END
