
     RDKit          3D

 19 20  0  0  0  0  0  0  0  0999 V2000
    3.5050    1.9110    0.7590 C   0  0  0  0  0  0  0  0  0  0  0  0
    2.8150    0.6650    0.8110 O   0  0  0  0  0  0  0  0  0  0  0  0
    1.5910    0.4580    0.2220 C   0  0  0  0  0  0  0  0  0  0  0  0
    1.0390    1.3900   -0.3920 O   0  0  0  0  0  0  0  0  0  0  0  0
    0.9170   -0.8520    0.3030 C   0  0  2  0  0  0  0  0  0  0  0  0
    1.8850   -1.9050   -0.1330 C   0  0  0  0  0  0  0  0  0  0  0  0
    1.6470   -2.4470   -1.4670 C   0  0  0  0  0  0  0  0  0  0  0  0
    2.6200   -2.9890   -2.0870 O   0  0  0  0  0  0  0  0  0  0  0  0
    0.3930   -2.4160   -2.1350 N   0  0  0  0  0  0  0  0  0  0  0  0
   -0.6210   -1.6050   -1.5570 C   0  0  0  0  0  0  0  0  0  0  0  0
   -1.7340   -1.5720   -2.1430 O   0  0  0  0  0  0  0  0  0  0  0  0
   -0.3440   -0.8790   -0.3670 N   0  0  0  0  0  0  0  0  0  0  0  0
   -1.4140   -0.1260    0.1920 C   0  0  0  0  0  0  0  0  0  0  0  0
   -2.0000    0.8400   -0.4930 C   0  0  0  0  0  0  0  0  0  0  0  0
   -3.1050    1.6870   -0.0390 C   0  0  2  0  0  0  0  0  0  0  0  0
   -2.5350    3.3860    0.0140 Cl  0  0  0  0  0  0  0  0  0  0  0  0
   -3.5200    1.3560    1.2960 N   0  0  0  0  0  0  0  0  0  0  0  0
   -2.8790    0.3210    2.0070 C   0  0  0  0  0  0  0  0  0  0  0  0
   -1.9150   -0.3560    1.4990 N   0  0  0  0  0  0  0  0  0  0  0  0
  1  2  1  0
  2  3  1  0
  3  4  2  0
  5  3  1  6
  5  6  1  0
  5 12  1  0
  6  7  1  0
  7  8  2  0
  7  9  1  0
  9 10  1  0
 10 11  2  0
 10 12  1  0
 12 13  1  0
 13 14  2  0
 13 19  1  0
 14 15  1  0
 15 16  1  1
 15 17  1  0
 17 18  1  0
 18 19  2  0
M  END
