
     RDKit          3D

 19 20  0  0  0  0  0  0  0  0999 V2000
    4.0930   -0.7090    1.5130 C   0  0  0  0  0  0  0  0  0  0  0  0
    3.5320    0.2040    0.4620 C   0  0  2  0  0  0  0  0  0  0  0  0
    2.1260   -0.0710    0.2940 N   0  0  0  0  0  0  0  0  0  0  0  0
    1.1030    0.8730    0.5270 C   0  0  0  0  0  0  0  0  0  0  0  0
    1.4060    2.0220    0.9020 O   0  0  0  0  0  0  0  0  0  0  0  0
   -0.2830    0.4980    0.3300 C   0  0  0  0  0  0  0  0  0  0  0  0
   -1.3830    1.2880    0.5100 N   0  0  0  0  0  0  0  0  0  0  0  0
   -2.4980    0.5880    0.2270 C   0  0  0  0  0  0  0  0  0  0  0  0
   -2.1170   -0.6270   -0.1280 N   0  0  0  0  0  0  0  0  0  0  0  0
   -0.7970   -0.6820   -0.0680 N   0  0  0  0  0  0  0  0  0  0  0  0
   -3.0590   -1.6870   -0.5130 C   0  0  0  0  0  0  0  0  0  0  0  0
   -4.3680   -1.3310    0.1900 C   0  0  0  0  0  0  0  0  0  0  0  0
   -4.7800    0.0240   -0.3640 C   0  0  0  0  0  0  0  0  0  0  0  0
   -3.9090    1.0540    0.2900 C   0  0  2  0  0  0  0  0  0  0  0  0
   -4.0580    2.3190   -0.2720 O   0  0  0  0  0  0  0  0  0  0  0  0
    4.2560   -0.0450   -0.8510 C   0  0  2  0  0  0  0  0  0  0  0  0
    4.0270   -1.7240   -1.3840 Cl  0  0  0  0  0  0  0  0  0  0  0  0
    5.6100    0.2050   -0.7410 O   0  0  0  0  0  0  0  0  0  0  0  0
    6.0410    1.1310   -1.5420 O   0  0  0  0  0  0  0  0  0  0  0  0
  2  1  1  1
  2  3  1  0
  2 16  1  0
  3  4  1  0
  4  5  2  0
  4  6  1  0
  6  7  1  0
  6 10  2  0
  7  8  2  0
  8  9  1  0
  8 14  1  0
  9 10  1  0
  9 11  1  0
 11 12  1  0
 12 13  1  0
 13 14  1  0
 14 15  1  6
 16 17  1  1
 16 18  1  0
 18 19  1  0
M  END
