
     RDKit          3D

 19 20  0  0  0  0  0  0  0  0999 V2000
   -4.1670    1.4570   -0.1910 C   0  0  0  0  0  0  0  0  0  0  0  0
   -3.7430    0.0320   -0.2640 C   0  0  0  0  0  0  0  0  0  0  0  0
   -2.4700   -0.3240   -0.1960 C   0  0  0  0  0  0  0  0  0  0  0  0
   -1.5120    0.6700   -0.0530 O   0  0  0  0  0  0  0  0  0  0  0  0
   -0.2170    0.4240    0.4500 C   0  0  2  0  0  0  0  0  0  0  0  0
    0.7640    0.8530   -0.6230 C   0  0  0  0  0  0  0  0  0  0  0  0
    2.1400    0.6460   -0.2170 N   0  0  0  0  0  0  0  0  0  0  0  0
    2.8160    1.6140    0.4260 C   0  0  0  0  0  0  0  0  0  0  0  0
    2.2120    2.6900    0.6560 O   0  0  0  0  0  0  0  0  0  0  0  0
    4.0920    1.4700    0.8220 N   0  0  0  0  0  0  0  0  0  0  0  0
    4.7520    0.3220    0.5820 C   0  0  0  0  0  0  0  0  0  0  0  0
    4.0850   -0.6530   -0.0610 N   0  0  0  0  0  0  0  0  0  0  0  0
    2.7920   -0.5040   -0.4610 C   0  0  0  0  0  0  0  0  0  0  0  0
    2.1660   -1.4140   -1.0620 O   0  0  0  0  0  0  0  0  0  0  0  0
   -0.0180   -0.9710    0.8580 C   0  0  0  0  0  0  0  0  0  0  0  0
    0.8230   -1.2790    1.7450 O   0  0  0  0  0  0  0  0  0  0  0  0
   -0.7740   -1.9990    0.2560 N   0  0  0  0  0  0  0  0  0  0  0  0
   -2.0880   -1.7350   -0.2710 C   0  0  1  0  0  0  0  0  0  0  0  0
   -3.2460   -2.6520    0.7530 Cl  0  0  0  0  0  0  0  0  0  0  0  0
  1  2  1  0
  2  3  2  3
  3  4  1  0
  3 18  1  0
  4  5  1  0
  5  6  1  6
  5 15  1  0
  6  7  1  0
  7  8  1  0
  7 13  1  0
  8  9  2  0
  8 10  1  0
 10 11  2  0
 11 12  1  0
 12 13  1  0
 13 14  2  0
 15 16  2  0
 15 17  1  0
 17 18  1  0
 18 19  1  1
M  END
