
     RDKit          3D

 19 20  0  0  0  0  0  0  0  0999 V2000
   -2.1320   -2.5000   -0.5510 C   0  0  0  0  0  0  0  0  0  0  0  0
   -1.3870   -1.2950   -1.1220 C   0  0  1  0  0  0  0  0  0  0  0  0
   -2.1140   -0.1560   -0.7830 O   0  0  0  0  0  0  0  0  0  0  0  0
   -1.7580    0.7850    0.1620 C   0  0  0  0  0  0  0  0  0  0  0  0
   -2.5630    1.7760    0.4900 C   0  0  0  0  0  0  0  0  0  0  0  0
   -3.8830    1.9280   -0.1360 C   0  0  0  0  0  0  0  0  0  0  0  0
   -4.2080    0.6570   -1.3250 Cl  0  0  0  0  0  0  0  0  0  0  0  0
   -0.4410    0.6600    0.8080 C   0  0  0  0  0  0  0  0  0  0  0  0
   -0.1240    1.5130    1.6600 O   0  0  0  0  0  0  0  0  0  0  0  0
    0.4130   -0.4050    0.4490 N   0  0  0  0  0  0  0  0  0  0  0  0
    1.7200   -0.5560    1.0680 C   0  0  0  0  0  0  0  0  0  0  0  0
    2.7680    0.1670    0.3140 C   0  0  0  0  0  0  0  0  0  0  0  0
    3.1830    1.4360    0.4710 N   0  0  0  0  0  0  0  0  0  0  0  0
    4.1350    1.7270   -0.3840 N   0  0  0  0  0  0  0  0  0  0  0  0
    4.3680    0.6350   -1.1310 C   0  0  0  0  0  0  0  0  0  0  0  0
    5.2260    0.5220   -2.0730 O   0  0  0  0  0  0  0  0  0  0  0  0
    3.5220   -0.3120   -0.6900 N   0  0  0  0  0  0  0  0  0  0  0  0
   -0.0300   -1.3220   -0.5260 C   0  0  0  0  0  0  0  0  0  0  0  0
    0.7550   -2.2200   -0.9240 O   0  0  0  0  0  0  0  0  0  0  0  0
  2  1  1  1
  2  3  1  0
  2 18  1  0
  3  4  1  0
  4  5  2  3
  4  8  1  0
  5  6  1  0
  6  7  1  0
  8  9  2  0
  8 10  1  0
 10 11  1  0
 10 18  1  0
 11 12  1  0
 12 13  2  0
 12 17  1  0
 13 14  1  0
 14 15  1  0
 15 16  2  0
 15 17  1  0
 18 19  2  0
M  END
