
     RDKit          3D

 19 20  0  0  0  0  0  0  0  0999 V2000
    2.8340    0.8570    0.7790 O   0  0  0  0  0  0  0  0  0  0  0  0
    2.6880   -0.2850    0.2770 C   0  0  0  0  0  0  0  0  0  0  0  0
    1.4740   -1.0400    0.5450 N   0  0  0  0  0  0  0  0  0  0  0  0
    0.3340   -0.5650    0.1220 C   0  0  0  0  0  0  0  0  0  0  0  0
    0.2510    0.5950   -0.5490 N   0  0  0  0  0  0  0  0  0  0  0  0
   -0.9040    1.1060   -0.9940 N   0  0  0  0  0  0  0  0  0  0  0  0
   -2.0570    0.4650   -0.7840 C   0  0  0  0  0  0  0  0  0  0  0  0
   -1.9810   -0.7460   -0.0840 C   0  0  0  0  0  0  0  0  0  0  0  0
   -0.8100   -1.2350    0.3510 N   0  0  0  0  0  0  0  0  0  0  0  0
   -3.2770   -1.4420    0.1400 C   0  0  0  0  0  0  0  0  0  0  0  0
   -4.2970   -0.4760    0.6450 C   0  0  0  0  0  0  0  0  0  0  0  0
   -4.4110    0.7950   -0.1230 C   0  0  1  0  0  0  0  0  0  0  0  0
   -4.1550    1.8640    0.7660 O   0  0  0  0  0  0  0  0  0  0  0  0
   -3.3960    0.9210   -1.2230 C   0  0  0  0  0  0  0  0  0  0  0  0
    3.6840   -0.7820   -0.5090 O   0  0  0  0  0  0  0  0  0  0  0  0
    4.8740   -0.2140   -0.8460 C   0  0  0  0  0  0  0  0  0  0  0  0
    5.8870    0.0660    0.1980 C   0  0  1  0  0  0  0  0  0  0  0  0
    7.0370    0.6300   -0.4270 O   0  0  0  0  0  0  0  0  0  0  0  0
    5.4420    1.1530    1.4860 Cl  0  0  0  0  0  0  0  0  0  0  0  0
  1  2  2  0
  2  3  1  0
  2 15  1  0
  3  4  2  3
  4  5  1  0
  4  9  1  0
  5  6  2  0
  6  7  1  0
  7  8  2  0
  7 14  1  0
  8  9  1  0
  8 10  1  0
 10 11  1  0
 11 12  1  0
 12 13  1  1
 12 14  1  0
 15 16  1  0
 16 17  1  0
 17 18  1  6
 17 19  1  0
M  END
