
     RDKit          3D

 19 20  0  0  0  0  0  0  0  0999 V2000
   -4.1840    1.7680    1.1270 C   0  0  0  0  0  0  0  0  0  0  0  0
   -4.3200    0.6850    0.0840 C   0  0  1  0  0  0  0  0  0  0  0  0
   -3.9510    1.3960   -1.5130 Cl  0  0  0  0  0  0  0  0  0  0  0  0
   -3.3540   -0.4270    0.2920 C   0  0  0  0  0  0  0  0  0  0  0  0
   -2.0250   -0.2250    0.3860 N   0  0  0  0  0  0  0  0  0  0  0  0
   -1.1350   -1.1920    0.5710 C   0  0  0  0  0  0  0  0  0  0  0  0
    0.3000   -0.9810    0.6740 C   0  0  0  0  0  0  0  0  0  0  0  0
    1.0730   -1.9520    0.8500 O   0  0  0  0  0  0  0  0  0  0  0  0
    0.9010    0.3080    0.5840 N   0  0  0  0  0  0  0  0  0  0  0  0
    2.3120    0.5400    0.6830 C   0  0  0  0  0  0  0  0  0  0  0  0
    3.1220   -0.1600   -0.3640 C   0  0  2  0  0  0  0  0  0  0  0  0
    4.5670    0.2910   -0.2110 C   0  0  0  0  0  0  0  0  0  0  0  0
    4.6600    1.3030   -1.1360 O   0  0  0  0  0  0  0  0  0  0  0  0
    3.7000    1.1250   -2.0970 C   0  0  0  0  0  0  0  0  0  0  0  0
    2.7580    0.2390   -1.6430 O   0  0  0  0  0  0  0  0  0  0  0  0
   -1.5900   -2.4520    0.6710 N   0  0  0  0  0  0  0  0  0  0  0  0
   -2.9210   -2.7380    0.5850 C   0  0  0  0  0  0  0  0  0  0  0  0
   -3.3350   -3.9260    0.6800 O   0  0  0  0  0  0  0  0  0  0  0  0
   -3.7730   -1.7050    0.3960 N   0  0  0  0  0  0  0  0  0  0  0  0
  2  1  1  1
  2  3  1  0
  2  4  1  0
  4  5  1  0
  4 19  2  0
  5  6  2  0
  6  7  1  0
  6 16  1  0
  7  8  2  0
  7  9  1  0
  9 10  1  0
 11 10  1  1
 11 12  1  0
 11 15  1  0
 12 13  1  0
 13 14  1  0
 14 15  1  0
 16 17  1  0
 17 18  2  0
 17 19  1  0
M  END
