
     RDKit          3D

 21 22  0  0  0  0  0  0  0  0999 V2000
   -4.8550    1.0750   -1.3280 N   0  0  0  0  0  0  0  0  0  0  0  0
   -3.5790    0.5480   -0.9220 C   0  0  0  0  0  0  0  0  0  0  0  0
   -2.4990    0.5410   -1.7720 C   0  0  0  0  0  0  0  0  0  0  0  0
   -1.2690    0.0460   -1.4160 C   0  0  0  0  0  0  0  0  0  0  0  0
   -0.1610    0.0620   -2.3650 C   0  0  0  0  0  0  0  0  0  0  0  0
    1.0880   -0.2610   -1.8500 O   0  0  0  0  0  0  0  0  0  0  0  0
    1.7090    0.4510   -0.8490 C   0  0  0  0  0  0  0  0  0  0  0  0
    1.1340    1.4430   -0.3660 O   0  0  0  0  0  0  0  0  0  0  0  0
    3.0690    0.0130   -0.3590 C   0  0  0  0  0  0  0  0  0  0  0  0
    3.7130   -1.1030   -0.9030 C   0  0  0  0  0  0  0  0  0  0  0  0
    5.2190   -1.1750   -0.0080 S   0  0  0  0  0  0  0  0  0  0  0  0
    4.8430    0.3530    1.0570 C   0  0  0  0  0  0  0  0  0  0  0  0
    5.7840    0.8280    2.0600 C   0  0  0  0  0  0  0  0  0  0  0  0
    6.9390    0.0160    2.1010 O   0  0  0  0  0  0  0  0  0  0  0  0
    3.7160    0.6150    0.5660 N   0  0  0  0  0  0  0  0  0  0  0  0
   -1.1100   -0.4640   -0.1570 C   0  0  0  0  0  0  0  0  0  0  0  0
   -2.1960   -0.4660    0.7220 C   0  0  0  0  0  0  0  0  0  0  0  0
   -3.4220    0.0310    0.3600 C   0  0  0  0  0  0  0  0  0  0  0  0
   -4.5580    0.0350    1.2640 C   0  0  0  0  0  0  0  0  0  0  0  0
   -4.5450   -0.4200    2.4910 C   0  0  0  0  0  0  0  0  0  0  0  0
   -5.6670   -0.3760    3.2760 F   0  0  0  0  0  0  0  0  0  0  0  0
  1  2  1  0
  2  3  2  0
  2 18  1  0
  3  4  1  0
  4  5  1  0
  4 16  2  0
  5  6  1  0
  6  7  1  0
  7  8  2  0
  7  9  1  0
  9 10  2  0
  9 15  1  0
 10 11  1  0
 11 12  1  0
 12 13  1  0
 12 15  2  0
 13 14  1  0
 16 17  1  0
 17 18  2  0
 18 19  1  0
 19 20  2  3
 20 21  1  0
M  END
