
     RDKit          3D

 21 22  0  0  0  0  0  0  0  0999 V2000
    0.7180   -0.8340   -2.7620 C   0  0  0  0  0  0  0  0  0  0  0  0
    1.3040   -0.1370   -1.5820 C   0  0  0  0  0  0  0  0  0  0  0  0
    2.6370    0.1710   -1.5780 C   0  0  0  0  0  0  0  0  0  0  0  0
    3.2360    0.8050   -0.5340 C   0  0  0  0  0  0  0  0  0  0  0  0
    4.6790    1.1260   -0.5580 C   0  0  0  0  0  0  0  0  0  0  0  0
    2.4450    1.1320    0.5400 C   0  0  0  0  0  0  0  0  0  0  0  0
    3.1410    1.9620    1.9540 S   0  0  0  0  0  0  0  0  0  0  0  0
    3.7040    0.6630    3.1180 C   0  0  0  0  0  0  0  0  0  0  0  0
    4.7620   -0.0500    2.5510 F   0  0  0  0  0  0  0  0  0  0  0  0
    1.0760    0.8220    0.5490 C   0  0  0  0  0  0  0  0  0  0  0  0
    0.4660    0.1850   -0.4980 C   0  0  0  0  0  0  0  0  0  0  0  0
   -0.9050   -0.1630   -0.5700 N   0  0  0  0  0  0  0  0  0  0  0  0
   -1.8690    0.0710    0.4020 C   0  0  0  0  0  0  0  0  0  0  0  0
   -1.5410    0.6500    1.4770 O   0  0  0  0  0  0  0  0  0  0  0  0
   -3.3050   -0.3180    0.2730 C   0  0  0  0  0  0  0  0  0  0  0  0
   -3.8840   -0.9200   -0.7320 C   0  0  0  0  0  0  0  0  0  0  0  0
   -3.2800   -1.3400   -1.9280 O   0  0  0  0  0  0  0  0  0  0  0  0
   -5.2870   -1.1270   -0.4870 N   0  0  0  0  0  0  0  0  0  0  0  0
   -5.5610   -0.5930    0.7900 C   0  0  0  0  0  0  0  0  0  0  0  0
   -6.7110   -0.5880    1.3680 O   0  0  0  0  0  0  0  0  0  0  0  0
   -4.3080   -0.0520    1.3310 C   0  0  0  0  0  0  0  0  0  0  0  0
  1  2  1  0
  2  3  2  0
  2 11  1  0
  3  4  1  0
  4  5  1  0
  4  6  2  0
  6  7  1  0
  6 10  1  0
  7  8  1  0
  8  9  1  0
 10 11  2  0
 11 12  1  0
 12 13  1  0
 13 14  2  0
 13 15  1  0
 15 16  2  0
 15 21  1  0
 16 17  1  0
 16 18  1  0
 18 19  1  0
 19 20  2  0
 19 21  1  0
M  END
