
     RDKit          3D

 21 22  0  0  0  0  0  0  0  0999 V2000
    4.4300   -1.0850    0.3110 C   0  0  0  0  0  0  0  0  0  0  0  0
    3.3940   -0.1310   -0.1810 C   0  0  0  0  0  0  0  0  0  0  0  0
    2.2340   -0.6260   -0.7460 C   0  0  0  0  0  0  0  0  0  0  0  0
    1.2750    0.2540   -1.2020 C   0  0  0  0  0  0  0  0  0  0  0  0
   -0.2590   -0.3180   -1.9490 S   0  0  0  0  0  0  0  0  0  0  0  0
   -1.5250   -0.5320   -0.6950 C   0  0  0  0  0  0  0  0  0  0  0  0
   -2.3680    0.5250   -0.3630 C   0  0  0  0  0  0  0  0  0  0  0  0
   -3.3310    0.3370    0.6030 C   0  0  0  0  0  0  0  0  0  0  0  0
   -4.2530    1.4080    1.0000 C   0  0  0  0  0  0  0  0  0  0  0  0
   -4.2080    2.6940    0.4190 N   0  0  0  0  0  0  0  0  0  0  0  0
   -5.1230    1.2070    1.8860 O   0  0  0  0  0  0  0  0  0  0  0  0
   -3.4050   -0.9060    1.1910 C   0  0  0  0  0  0  0  0  0  0  0  0
   -4.3010   -1.0590    2.0800 O   0  0  0  0  0  0  0  0  0  0  0  0
   -2.5700   -1.9160    0.8480 N   0  0  0  0  0  0  0  0  0  0  0  0
   -1.6160   -1.7690   -0.0910 C   0  0  0  0  0  0  0  0  0  0  0  0
   -0.7140   -2.9060   -0.4440 C   0  0  0  0  0  0  0  0  0  0  0  0
    1.4660    1.6250   -1.0970 C   0  0  0  0  0  0  0  0  0  0  0  0
    2.6300    2.1000   -0.5290 C   0  0  0  0  0  0  0  0  0  0  0  0
    2.8270    3.4340   -0.4220 F   0  0  0  0  0  0  0  0  0  0  0  0
    3.5810    1.2360   -0.0780 C   0  0  0  0  0  0  0  0  0  0  0  0
    4.7620    1.6750    0.4970 O   0  0  0  0  0  0  0  0  0  0  0  0
  1  2  1  0
  2  3  2  0
  2 20  1  0
  3  4  1  0
  4  5  1  0
  4 17  2  0
  5  6  1  0
  6  7  1  0
  6 15  2  0
  7  8  2  0
  8  9  1  0
  8 12  1  0
  9 10  1  0
  9 11  2  0
 12 13  2  0
 12 14  1  0
 14 15  1  0
 15 16  1  0
 17 18  1  0
 18 19  1  0
 18 20  2  0
 20 21  1  0
M  END
