
     RDKit          3D

 21 22  0  0  0  0  0  0  0  0999 V2000
    2.0640    0.5410   -0.4950 O   0  0  0  0  0  0  0  0  0  0  0  0
    1.9360   -0.1050    0.5570 C   0  0  0  0  0  0  0  0  0  0  0  0
    3.1560   -0.5470    1.1740 N   0  0  0  0  0  0  0  0  0  0  0  0
    4.4390   -0.2350    0.5670 C   0  0  0  0  0  0  0  0  0  0  0  0
    5.1770   -1.2380    0.2270 C   0  0  0  0  0  0  0  0  0  0  0  0
    6.5020   -1.1760   -0.3980 C   0  0  0  0  0  0  0  0  0  0  0  0
    7.0770    0.4940   -0.6820 S   0  0  0  0  0  0  0  0  0  0  0  0
    5.8390    1.6330   -0.1080 C   0  0  0  0  0  0  0  0  0  0  0  0
    4.7360    1.1730    0.4160 C   0  0  0  0  0  0  0  0  0  0  0  0
    0.6700   -0.3860    1.1120 N   0  0  0  0  0  0  0  0  0  0  0  0
   -0.5830    0.0090    0.5770 C   0  0  0  0  0  0  0  0  0  0  0  0
   -1.7140   -0.3860    1.2680 C   0  0  0  0  0  0  0  0  0  0  0  0
   -2.9640   -0.0360    0.8050 C   0  0  0  0  0  0  0  0  0  0  0  0
   -3.1980    0.7020   -0.3330 C   0  0  0  0  0  0  0  0  0  0  0  0
   -4.4140    1.0760   -0.8320 O   0  0  0  0  0  0  0  0  0  0  0  0
   -5.6680    0.8010   -0.3640 C   0  0  0  0  0  0  0  0  0  0  0  0
   -6.1260   -0.6150   -0.3560 C   0  0  0  0  0  0  0  0  0  0  0  0
   -7.4230   -0.7520    0.1490 O   0  0  0  0  0  0  0  0  0  0  0  0
   -2.0210    1.0840   -1.0070 C   0  0  0  0  0  0  0  0  0  0  0  0
   -2.2050    1.8210   -2.1450 F   0  0  0  0  0  0  0  0  0  0  0  0
   -0.7690    0.7440   -0.5580 C   0  0  0  0  0  0  0  0  0  0  0  0
  1  2  2  0
  2  3  1  0
  2 10  1  0
  3  4  1  0
  4  5  2  0
  4  9  1  0
  5  6  1  0
  6  7  1  0
  7  8  1  0
  8  9  2  0
 10 11  1  0
 11 12  2  0
 11 21  1  0
 12 13  1  0
 13 14  2  0
 14 15  1  0
 14 19  1  0
 15 16  1  0
 16 17  1  0
 17 18  1  0
 19 20  1  0
 19 21  2  0
M  END
