
     RDKit          3D

 20 21  0  0  0  0  0  0  0  0999 V2000
   -5.5210    0.9190    0.2250 C   0  0  0  0  0  0  0  0  0  0  0  0
   -4.9150   -0.2110   -0.6140 C   0  0  0  0  0  0  0  0  0  0  0  0
   -3.4530   -0.1560   -0.5660 C   0  0  0  0  0  0  0  0  0  0  0  0
   -2.6490   -1.0730   -0.1420 C   0  0  0  0  0  0  0  0  0  0  0  0
   -3.1200   -2.3720    0.3780 C   0  0  0  0  0  0  0  0  0  0  0  0
   -2.6950   -2.5210    1.7060 O   0  0  0  0  0  0  0  0  0  0  0  0
   -1.1750   -0.9040   -0.1420 C   0  0  0  0  0  0  0  0  0  0  0  0
   -0.4600   -1.8730    0.2970 O   0  0  0  0  0  0  0  0  0  0  0  0
   -0.5160    0.2420   -0.5900 N   0  0  0  0  0  0  0  0  0  0  0  0
    0.8920    0.4640   -0.6110 C   0  0  0  0  0  0  0  0  0  0  0  0
    1.3860    1.5780   -1.3120 C   0  0  0  0  0  0  0  0  0  0  0  0
    2.7140    1.9020   -1.3920 C   0  0  0  0  0  0  0  0  0  0  0  0
    3.6500    1.0830   -0.7410 C   0  0  0  0  0  0  0  0  0  0  0  0
    3.1840   -0.0040   -0.0550 C   0  0  0  0  0  0  0  0  0  0  0  0
    1.8200   -0.3130    0.0120 C   0  0  0  0  0  0  0  0  0  0  0  0
    4.3610   -1.0640    0.7850 S   0  0  0  0  0  0  0  0  0  0  0  0
    5.8540   -0.0290    1.0460 C   0  0  0  0  0  0  0  0  0  0  0  0
    6.0450    0.7000   -0.2330 C   0  0  0  0  0  0  0  0  0  0  0  0
    7.1730    0.6410   -0.7830 O   0  0  0  0  0  0  0  0  0  0  0  0
    5.0190    1.4450   -0.8430 N   0  0  0  0  0  0  0  0  0  0  0  0
  1  2  1  0
  2  3  1  0
  3  4  2  3
  4  5  1  0
  4  7  1  0
  5  6  1  0
  7  8  2  0
  7  9  1  0
  9 10  1  0
 10 11  2  0
 10 15  1  0
 11 12  1  0
 12 13  2  0
 13 14  1  0
 13 20  1  0
 14 15  2  0
 14 16  1  0
 16 17  1  0
 17 18  1  0
 18 19  2  0
 18 20  1  0
M  END
