
     RDKit          3D

 20 21  0  0  0  0  0  0  0  0999 V2000
   -2.2770    5.4040   -1.3330 N   0  0  0  0  0  0  0  0  0  0  0  0
   -1.8860    4.3080   -1.8080 C   0  0  0  0  0  0  0  0  0  0  0  0
   -1.4350    3.1030   -2.3190 C   0  0  0  0  0  0  0  0  0  0  0  0
   -1.2250    2.8990   -3.6570 C   0  0  0  0  0  0  0  0  0  0  0  0
   -0.8190    1.6130   -4.0230 C   0  0  0  0  0  0  0  0  0  0  0  0
   -0.6030    1.3730   -5.3830 O   0  0  0  0  0  0  0  0  0  0  0  0
   -0.6280    0.5880   -3.1180 C   0  0  0  0  0  0  0  0  0  0  0  0
   -0.2250   -0.6450   -3.5860 O   0  0  0  0  0  0  0  0  0  0  0  0
   -0.8320    0.7770   -1.7690 C   0  0  0  0  0  0  0  0  0  0  0  0
   -0.6130   -0.2380   -0.7270 C   0  0  0  0  0  0  0  0  0  0  0  0
   -0.2100   -1.3720   -1.0040 O   0  0  0  0  0  0  0  0  0  0  0  0
   -0.8540    0.0940    0.6170 N   0  0  0  0  0  0  0  0  0  0  0  0
   -0.6380   -0.7470    1.7880 C   0  0  0  0  0  0  0  0  0  0  0  0
    0.8130   -1.0950    1.7340 C   0  0  0  0  0  0  0  0  0  0  0  0
    1.3700   -1.6670    2.9120 C   0  0  0  0  0  0  0  0  0  0  0  0
    1.4590   -2.9090    3.5050 C   0  0  0  0  0  0  0  0  0  0  0  0
    2.1690   -3.0940    4.6000 C   0  0  0  0  0  0  0  0  0  0  0  0
    2.8430   -2.0040    5.1630 C   0  0  0  0  0  0  0  0  0  0  0  0
    2.3890   -0.6990    4.0280 S   0  0  0  0  0  0  0  0  0  0  0  0
   -1.2340    2.0450   -1.4220 C   0  0  0  0  0  0  0  0  0  0  0  0
  1  2  3  0
  2  3  1  0
  3  4  2  0
  3 20  1  0
  4  5  1  0
  5  6  1  0
  5  7  2  0
  7  8  1  0
  7  9  1  0
  9 10  1  0
  9 20  2  0
 10 11  2  0
 10 12  1  0
 12 13  1  0
 13 14  1  0
 14 15  1  0
 15 16  2  0
 15 19  1  0
 16 17  1  0
 17 18  2  0
 18 19  1  0
M  END
