
     RDKit          3D

 20 21  0  0  0  0  0  0  0  0999 V2000
   -0.6590    1.0210   -0.5990 O   0  0  0  0  0  0  0  0  0  0  0  0
   -0.2960   -0.1670   -0.4120 C   0  0  0  0  0  0  0  0  0  0  0  0
   -1.2510   -1.1940   -0.2960 N   0  0  0  0  0  0  0  0  0  0  0  0
   -2.6750   -0.9520   -0.3820 C   0  0  0  0  0  0  0  0  0  0  0  0
   -3.1750   -0.0040    0.6890 C   0  0  0  0  0  0  0  0  0  0  0  0
   -4.5940    0.2490    0.6210 C   0  0  0  0  0  0  0  0  0  0  0  0
   -5.7140   -0.3080    1.1430 C   0  0  0  0  0  0  0  0  0  0  0  0
   -6.9270    0.1720    0.8870 C   0  0  0  0  0  0  0  0  0  0  0  0
   -7.0290    1.2540    0.0770 C   0  0  0  0  0  0  0  0  0  0  0  0
   -5.3610    1.6310   -0.3570 S   0  0  0  0  0  0  0  0  0  0  0  0
    1.1460   -0.4740   -0.3150 C   0  0  0  0  0  0  0  0  0  0  0  0
    1.4990   -1.6550   -0.1290 O   0  0  0  0  0  0  0  0  0  0  0  0
    2.1180    0.5440   -0.4290 N   0  0  0  0  0  0  0  0  0  0  0  0
    3.5210    0.3870   -0.3570 C   0  0  0  0  0  0  0  0  0  0  0  0
    4.3040    1.5510   -0.4050 C   0  0  0  0  0  0  0  0  0  0  0  0
    5.6680    1.5500   -0.3500 C   0  0  0  0  0  0  0  0  0  0  0  0
    6.3020    0.3260   -0.2410 C   0  0  0  0  0  0  0  0  0  0  0  0
    7.6830    0.3080   -0.1850 O   0  0  0  0  0  0  0  0  0  0  0  0
    5.6000   -0.8450   -0.1900 C   0  0  0  0  0  0  0  0  0  0  0  0
    4.2130   -0.7870   -0.2500 C   0  0  0  0  0  0  0  0  0  0  0  0
  1  2  2  0
  2  3  1  0
  2 11  1  0
  3  4  1  0
  4  5  1  0
  5  6  1  0
  6  7  2  0
  6 10  1  0
  7  8  1  0
  8  9  2  0
  9 10  1  0
 11 12  2  0
 11 13  1  0
 13 14  1  0
 14 15  2  0
 14 20  1  0
 15 16  1  0
 16 17  2  0
 17 18  1  0
 17 19  1  0
 19 20  2  0
M  END
