
     RDKit          3D

 16 16  0  0  0  0  0  0  0  0999 V2000
    4.7000    1.2270    0.3020 C   0  0  0  0  0  0  0  0  0  0  0  0
    4.7700   -0.2020    0.7320 C   0  0  0  0  0  0  0  0  0  0  0  0
    3.9270   -1.1650    0.0030 C   0  0  0  0  0  0  0  0  0  0  0  0
    2.4410   -0.9790    0.0520 C   0  0  2  0  0  0  0  0  0  0  0  0
    1.9210   -2.0570   -0.7330 O   0  0  0  0  0  0  0  0  0  0  0  0
    1.9060    0.2480   -0.5870 C   0  0  0  0  0  0  0  0  0  0  0  0
    0.5250    0.2040   -0.6370 O   0  0  0  0  0  0  0  0  0  0  0  0
   -0.1440    0.1260    0.5440 C   0  0  0  0  0  0  0  0  0  0  0  0
   -1.6120    0.1350    0.1900 C   0  0  0  0  0  0  0  0  0  0  0  0
   -2.3050   -1.0310   -0.0510 C   0  0  0  0  0  0  0  0  0  0  0  0
   -3.6600   -1.0120   -0.3770 C   0  0  0  0  0  0  0  0  0  0  0  0
   -4.3940   -2.2850   -0.6360 C   0  0  0  0  0  0  0  0  0  0  0  0
   -4.2660    0.2270   -0.4450 C   0  0  0  0  0  0  0  0  0  0  0  0
   -3.6120    1.4110   -0.2110 C   0  0  0  0  0  0  0  0  0  0  0  0
   -4.2600    2.7420   -0.2830 C   0  0  0  0  0  0  0  0  0  0  0  0
   -2.2660    1.3440    0.1090 C   0  0  0  0  0  0  0  0  0  0  0  0
  1  2  1  0
  2  3  1  0
  3  4  1  0
  4  5  1  6
  4  6  1  0
  6  7  1  0
  7  8  1  0
  8  9  1  0
  9 10  2  0
  9 16  1  0
 10 11  1  0
 11 12  1  0
 11 13  2  0
 13 14  1  0
 14 15  1  0
 14 16  2  0
M  END
