
     RDKit          3D

 16 16  0  0  0  0  0  0  0  0999 V2000
   -4.2600   -1.2440   -0.9160 C   0  0  0  0  0  0  0  0  0  0  0  0
   -4.7300   -0.5850    0.3410 C   0  0  0  0  0  0  0  0  0  0  0  0
   -4.0460    0.7070    0.6000 C   0  0  0  0  0  0  0  0  0  0  0  0
   -2.6010    0.6240    0.8880 C   0  0  0  0  0  0  0  0  0  0  0  0
   -1.6770    0.0510   -0.1080 C   0  0  0  0  0  0  0  0  0  0  0  0
   -0.2310    0.1190    0.4190 C   0  0  0  0  0  0  0  0  0  0  0  0
    0.1970    1.5020    0.6140 C   0  0  0  0  0  0  0  0  0  0  0  0
    1.5800    1.6680    1.1640 C   0  0  0  0  0  0  0  0  0  0  0  0
    2.5950    1.1690    0.5030 O   0  0  0  0  0  0  0  0  0  0  0  0
    3.2650    0.1430    0.0500 C   0  0  0  0  0  0  0  0  0  0  0  0
    2.9580   -1.1770    0.2810 C   0  0  0  0  0  0  0  0  0  0  0  0
    3.6910   -2.2300   -0.2200 C   0  0  0  0  0  0  0  0  0  0  0  0
    4.7920   -1.9490   -0.9930 C   0  0  0  0  0  0  0  0  0  0  0  0
    5.1240   -0.6330   -1.2400 C   0  0  0  0  0  0  0  0  0  0  0  0
    4.3970    0.4080   -0.7440 C   0  0  0  0  0  0  0  0  0  0  0  0
    4.7730    1.7260   -1.0230 O   0  0  0  0  0  0  0  0  0  0  0  0
  1  2  1  0
  2  3  1  0
  3  4  1  0
  4  5  1  0
  5  6  1  0
  6  7  1  0
  7  8  1  0
  8  9  1  0
  9 10  1  0
 10 11  2  0
 10 15  1  0
 11 12  1  0
 12 13  2  0
 13 14  1  0
 14 15  2  0
 15 16  1  0
M  END
