
     RDKit          3D

 16 15  0  0  0  0  0  0  0  0999 V2000
   -5.0990    1.4060    1.4950 C   0  0  0  0  0  0  0  0  0  0  0  0
   -5.5210    0.2040    0.7560 C   0  0  0  0  0  0  0  0  0  0  0  0
   -4.8430   -0.1690   -0.4950 C   0  0  0  0  0  0  0  0  0  0  0  0
   -3.4170   -0.5380   -0.5020 C   0  0  0  0  0  0  0  0  0  0  0  0
   -2.5040    0.5300   -0.0340 C   0  0  0  0  0  0  0  0  0  0  0  0
   -1.0330    0.1330   -0.0710 C   0  0  0  0  0  0  0  0  0  0  0  0
   -0.6210   -0.1900   -1.4480 C   0  0  0  0  0  0  0  0  0  0  0  0
    0.8490   -0.5590   -1.5680 C   0  0  0  0  0  0  0  0  0  0  0  0
    1.7560    0.5330   -1.1260 C   0  0  0  0  0  0  0  0  0  0  0  0
    3.1890    0.0930   -1.2810 C   0  0  0  0  0  0  0  0  0  0  0  0
    3.5350   -1.1270   -0.4680 C   0  0  0  0  0  0  0  0  0  0  0  0
    3.3180   -0.9020    0.9950 C   0  0  0  0  0  0  0  0  0  0  0  0
    4.1220    0.2070    1.5790 C   0  0  0  0  0  0  0  0  0  0  0  0
    5.5880    0.0200    1.4790 C   0  0  0  0  0  0  0  0  0  0  0  0
    6.3890    0.9330    1.8850 O   0  0  0  0  0  0  0  0  0  0  0  0
    6.2150   -1.1020    0.9650 O   0  0  0  0  0  0  0  0  0  0  0  0
  1  2  1  0
  2  3  1  0
  3  4  1  0
  4  5  1  0
  5  6  1  0
  6  7  1  0
  7  8  1  0
  8  9  1  0
  9 10  1  0
 10 11  1  0
 11 12  1  0
 12 13  1  0
 13 14  1  0
 14 15  2  0
 14 16  1  0
M  END
