
     RDKit          3D

 16 16  0  0  0  0  0  0  0  0999 V2000
    5.3920    0.1570   -0.4930 C   0  0  0  0  0  0  0  0  0  0  0  0
    4.0740    0.3950   -1.2290 C   0  0  0  0  0  0  0  0  0  0  0  0
    3.3300    1.4580   -0.4260 C   0  0  0  0  0  0  0  0  0  0  0  0
    3.1100    0.9100    0.9580 C   0  0  0  0  0  0  0  0  0  0  0  0
    2.3480   -0.2250    0.9370 O   0  0  0  0  0  0  0  0  0  0  0  0
    1.0770    0.0410    0.4470 C   0  0  1  0  0  0  0  0  0  0  0  0
    0.7410   -0.8740   -0.6860 C   0  0  0  0  0  0  0  0  0  0  0  0
   -0.6140   -1.5170   -0.4800 C   0  0  0  0  0  0  0  0  0  0  0  0
   -1.5820   -0.3850   -0.1710 C   0  0  1  0  0  0  0  0  0  0  0  0
   -3.0160   -0.7980   -0.3490 C   0  0  1  0  0  0  0  0  0  0  0  0
   -3.4090   -1.9340    0.5360 C   0  0  0  0  0  0  0  0  0  0  0  0
   -3.8740    0.4280   -0.1400 C   0  0  1  0  0  0  0  0  0  0  0  0
   -3.5090    1.4900   -1.1480 C   0  0  0  0  0  0  0  0  0  0  0  0
   -5.2010    0.0410   -0.2700 O   0  0  0  0  0  0  0  0  0  0  0  0
   -1.3010    0.1460    1.2190 C   0  0  0  0  0  0  0  0  0  0  0  0
    0.1340   -0.1940    1.6310 C   0  0  0  0  0  0  0  0  0  0  0  0
  1  2  1  0
  2  3  1  0
  3  4  1  0
  4  5  1  0
  6  5  1  1
  6  7  1  0
  6 16  1  0
  7  8  1  0
  9  8  1  1
  9 10  1  0
  9 15  1  0
 10 11  1  1
 10 12  1  0
 12 13  1  6
 12 14  1  0
 15 16  1  0
M  END
