
     RDKit          3D

 15 15  0  0  0  0  0  0  0  0999 V2000
    3.2740   -1.0300   -0.4690 C   0  0  0  0  0  0  0  0  0  0  0  0
    2.8560    0.1200    0.0030 C   0  0  0  0  0  0  0  0  0  0  0  0
    3.8350    1.1320    0.4510 C   0  0  0  0  0  0  0  0  0  0  0  0
    5.2670    0.7560    0.2750 C   0  0  0  0  0  0  0  0  0  0  0  0
    5.6550    0.5220   -1.0230 O   0  0  0  0  0  0  0  0  0  0  0  0
    1.4180    0.4910    0.1210 C   0  0  0  0  0  0  0  0  0  0  0  0
    0.5000   -0.5850   -0.3530 C   0  0  0  0  0  0  0  0  0  0  0  0
   -0.9160   -0.1220   -0.1950 C   0  0  0  0  0  0  0  0  0  0  0  0
   -1.8580   -1.0760   -0.6190 O   0  0  0  0  0  0  0  0  0  0  0  0
   -3.2010   -0.7510   -0.5170 C   0  0  0  0  0  0  0  0  0  0  0  0
   -3.6320    0.4790   -0.0120 C   0  0  0  0  0  0  0  0  0  0  0  0
   -4.9550    0.7890    0.0840 C   0  0  0  0  0  0  0  0  0  0  0  0
   -5.9370   -0.0870   -0.3080 C   0  0  0  0  0  0  0  0  0  0  0  0
   -5.5250   -1.3230   -0.8150 C   0  0  0  0  0  0  0  0  0  0  0  0
   -4.1860   -1.6290   -0.9090 C   0  0  0  0  0  0  0  0  0  0  0  0
  1  2  2  0
  2  3  1  0
  2  6  1  0
  3  4  1  0
  4  5  1  0
  6  7  1  0
  7  8  1  0
  8  9  1  0
  9 10  1  0
 10 11  2  0
 10 15  1  0
 11 12  1  0
 12 13  2  0
 13 14  1  0
 14 15  2  0
M  END
