
     RDKit          3D

 16 16  0  0  0  0  0  0  0  0999 V2000
    5.2580   -1.0480    0.7250 C   0  0  0  0  0  0  0  0  0  0  0  0
    4.8610   -0.0290   -0.2730 C   0  0  0  0  0  0  0  0  0  0  0  0
    3.8000    0.7230   -0.0460 C   0  0  0  0  0  0  0  0  0  0  0  0
    3.0170    0.5440    1.1990 C   0  0  0  0  0  0  0  0  0  0  0  0
    1.6050    0.1730    0.8300 C   0  0  1  0  0  0  0  0  0  0  0  0
    1.0170    1.2870    0.0020 C   0  0  0  0  0  0  0  0  0  0  0  0
   -0.4430    1.0220   -0.3290 C   0  0  0  0  0  0  0  0  0  0  0  0
   -0.6850   -0.4570   -0.1310 C   0  0  1  0  0  0  0  0  0  0  0  0
   -2.0380   -0.7500   -0.6550 C   0  0  0  0  0  0  0  0  0  0  0  0
   -2.2910   -1.5480   -1.5830 O   0  0  0  0  0  0  0  0  0  0  0  0
   -3.1040   -0.0850   -0.0660 O   0  0  0  0  0  0  0  0  0  0  0  0
   -4.4220   -0.3220   -0.5220 C   0  0  2  0  0  0  0  0  0  0  0  0
   -4.9770    1.0340   -0.9620 C   0  0  0  0  0  0  0  0  0  0  0  0
   -5.2230   -0.7820    0.6840 C   0  0  0  0  0  0  0  0  0  0  0  0
    0.3930   -1.2210   -0.8200 C   0  0  0  0  0  0  0  0  0  0  0  0
    1.6450   -1.1330    0.0660 C   0  0  0  0  0  0  0  0  0  0  0  0
  1  2  1  0
  2  3  2  3
  3  4  1  0
  5  4  1  6
  5  6  1  0
  5 16  1  0
  6  7  1  0
  7  8  1  0
  8  9  1  6
  8 15  1  0
  9 10  2  0
  9 11  1  0
 11 12  1  0
 12 13  1  1
 12 14  1  0
 15 16  1  0
M  END
