
     RDKit          3D

 20 20  0  0  0  0  0  0  0  0999 V2000
    2.8110   -1.6660   -2.6890 C   0  0  0  0  0  0  0  0  0  0  0  0
    2.1910   -1.3170   -1.5300 C   0  0  0  0  0  0  0  0  0  0  0  0
    2.9830   -0.8100   -0.3910 C   0  0  0  0  0  0  0  0  0  0  0  0
    2.5940    0.5890   -0.0090 C   0  0  2  0  0  0  0  0  0  0  0  0
    3.5450    1.0330    1.1510 C   0  0  0  0  0  0  0  0  0  0  0  0
    4.9490    1.0050    0.7190 C   0  0  0  0  0  0  0  0  0  0  0  0
    5.8300    0.2380    1.3350 C   0  0  0  0  0  0  0  0  0  0  0  0
    1.2370    0.7080    0.5670 C   0  0  0  0  0  0  0  0  0  0  0  0
    1.1420    1.2440    1.6910 O   0  0  0  0  0  0  0  0  0  0  0  0
   -0.0420    0.2760   -0.0210 C   0  0  0  0  0  0  0  0  0  0  0  0
   -1.1730    0.9270    0.7830 C   0  0  0  0  0  0  0  0  0  0  0  0
   -2.5080    0.5790    0.3010 C   0  0  0  0  0  0  0  0  0  0  0  0
   -3.2050    1.5000   -0.4540 C   0  0  0  0  0  0  0  0  0  0  0  0
   -4.4710    1.2260   -0.9380 C   0  0  0  0  0  0  0  0  0  0  0  0
   -5.0910    0.0120   -0.6850 C   0  0  0  0  0  0  0  0  0  0  0  0
   -6.4370   -0.2740   -1.1990 C   0  0  0  0  0  0  0  0  0  0  0  0
   -7.0360    0.5830   -1.8690 O   0  0  0  0  0  0  0  0  0  0  0  0
   -4.3790   -0.8970    0.0710 C   0  0  0  0  0  0  0  0  0  0  0  0
   -3.1120   -0.6280    0.5590 C   0  0  0  0  0  0  0  0  0  0  0  0
   -2.4120   -1.6580    1.3680 C   0  0  0  0  0  0  0  0  0  0  0  0
  1  2  2  0
  2  3  1  0
  4  3  1  1
  4  5  1  0
  4  8  1  0
  5  6  1  0
  6  7  2  0
  8  9  2  0
  8 10  1  0
 10 11  1  0
 11 12  1  0
 12 13  2  0
 12 19  1  0
 13 14  1  0
 14 15  2  0
 15 16  1  0
 15 18  1  0
 16 17  2  0
 18 19  2  0
 19 20  1  0
M  END
