
     RDKit          3D

 26 29  0  0  0  0  0  0  0  0999 V2000
   -4.4320    1.6430    0.1540 C   0  0  0  0  0  0  0  0  0  0  0  0
   -4.8260    0.3170    0.7230 C   0  0  2  0  0  0  0  0  0  0  0  0
   -6.3930    0.4010    0.7500 C   0  0  0  0  0  0  0  0  0  0  0  0
   -4.4940    0.1130    2.1800 C   0  0  0  0  0  0  0  0  0  0  0  0
   -4.5010   -0.8480   -0.1390 C   0  0  0  0  0  0  0  0  0  0  0  0
   -5.4440   -1.7140   -0.6450 N   0  0  0  0  0  0  0  0  0  0  0  0
   -4.9040   -2.6310   -1.3810 N   0  0  0  0  0  0  0  0  0  0  0  0
   -3.6010   -2.4390   -1.4110 C   0  0  0  0  0  0  0  0  0  0  0  0
   -2.6940   -3.2260   -2.1000 O   0  0  0  0  0  0  0  0  0  0  0  0
   -3.2890   -1.2950   -0.6190 C   0  0  0  0  0  0  0  0  0  0  0  0
   -1.9560   -0.8340   -0.4140 C   0  0  0  0  0  0  0  0  0  0  0  0
   -1.4430    0.0630    0.3390 C   0  0  0  0  0  0  0  0  0  0  0  0
   -0.0590    0.4530    0.4660 C   0  0  0  0  0  0  0  0  0  0  0  0
    0.3430    1.4420    1.3320 N   0  0  0  0  0  0  0  0  0  0  0  0
    1.6100    1.6230    1.2820 N   0  0  0  0  0  0  0  0  0  0  0  0
    2.1100    0.7480    0.3670 C   0  0  0  0  0  0  0  0  0  0  0  0
    1.0780    0.0440   -0.1190 N   0  0  0  0  0  0  0  0  0  0  0  0
    1.3130   -0.9620   -1.1130 C   0  0  0  0  0  0  0  0  0  0  0  0
    2.7000   -1.1400   -1.6060 C   0  0  0  0  0  0  0  0  0  0  0  0
    3.5550    0.0100   -1.4400 N   0  0  0  0  0  0  0  0  0  0  0  0
    3.4850    0.5170   -0.0900 C   0  0  1  0  0  0  0  0  0  0  0  0
    4.1840    1.8820   -0.1120 C   0  0  0  0  0  0  0  0  0  0  0  0
    5.4790    1.6980   -0.8750 C   0  0  0  0  0  0  0  0  0  0  0  0
    6.2010    0.4450   -0.4380 C   0  0  0  0  0  0  0  0  0  0  0  0
    5.7260    0.1200    0.9600 C   0  0  0  0  0  0  0  0  0  0  0  0
    4.2790   -0.3390    0.8750 C   0  0  0  0  0  0  0  0  0  0  0  0
  2  1  1  6
  2  3  1  0
  2  4  1  0
  2  5  1  0
  5  6  1  0
  5 10  2  0
  6  7  1  0
  7  8  2  0
  8  9  1  0
  8 10  1  0
 10 11  1  0
 11 12  2  3
 12 13  1  0
 13 14  2  0
 13 17  1  0
 14 15  1  0
 15 16  2  0
 16 17  1  0
 16 21  1  0
 17 18  1  0
 18 19  1  0
 19 20  1  0
 20 21  1  0
 21 22  1  6
 21 26  1  0
 22 23  1  0
 23 24  1  0
 24 25  1  0
 25 26  1  0
M  END
