
     RDKit          3D

 20 20  0  0  0  0  0  0  0  0999 V2000
   -5.5520   -0.5630    0.7540 C   0  0  0  0  0  0  0  0  0  0  0  0
   -4.6180   -0.0030   -0.3240 C   0  0  0  0  0  0  0  0  0  0  0  0
   -3.7490   -1.0340   -0.8500 C   0  0  0  0  0  0  0  0  0  0  0  0
   -4.4030   -2.2320   -1.5100 C   0  0  0  0  0  0  0  0  0  0  0  0
   -2.4550   -1.0320   -0.8120 C   0  0  0  0  0  0  0  0  0  0  0  0
   -1.6540    0.0320   -0.2180 C   0  0  0  0  0  0  0  0  0  0  0  0
   -0.7080    0.6850   -1.2100 C   0  0  0  0  0  0  0  0  0  0  0  0
    0.0530    1.7100   -0.4690 C   0  0  0  0  0  0  0  0  0  0  0  0
   -0.4620    3.0180   -0.4850 C   0  0  0  0  0  0  0  0  0  0  0  0
    0.1640    4.0170    0.2170 C   0  0  0  0  0  0  0  0  0  0  0  0
    1.2950    3.7090    0.9280 C   0  0  0  0  0  0  0  0  0  0  0  0
    1.7830    2.4230    0.9290 C   0  0  0  0  0  0  0  0  0  0  0  0
    3.0110    2.1140    1.7050 C   0  0  0  0  0  0  0  0  0  0  0  0
    1.1680    1.3760    0.2220 C   0  0  0  0  0  0  0  0  0  0  0  0
    1.7150    0.1780    0.2790 O   0  0  0  0  0  0  0  0  0  0  0  0
    1.7150   -0.9670    0.9970 C   0  0  0  0  0  0  0  0  0  0  0  0
    2.7410   -1.9200    0.3320 C   0  0  0  0  0  0  0  0  0  0  0  0
    4.1080   -1.3040    0.3440 C   0  0  0  0  0  0  0  0  0  0  0  0
    5.0480   -2.2920   -0.3220 C   0  0  0  0  0  0  0  0  0  0  0  0
    4.6250   -2.5200   -1.6160 O   0  0  0  0  0  0  0  0  0  0  0  0
  1  2  1  0
  2  3  1  0
  3  4  1  0
  3  5  2  3
  5  6  1  0
  6  7  1  0
  7  8  1  0
  8  9  2  0
  8 14  1  0
  9 10  1  0
 10 11  2  0
 11 12  1  0
 12 13  1  0
 12 14  2  0
 14 15  1  0
 15 16  1  0
 16 17  1  0
 17 18  1  0
 18 19  1  0
 19 20  1  0
M  END
