
     RDKit          3D

 20 20  0  0  0  0  0  0  0  0999 V2000
    5.1420    1.5710    1.3620 C   0  0  0  0  0  0  0  0  0  0  0  0
    5.0460    0.2840    1.1130 C   0  0  0  0  0  0  0  0  0  0  0  0
    4.4830   -0.2790   -0.0590 C   0  0  0  0  0  0  0  0  0  0  0  0
    4.5180   -1.6350   -0.1700 C   0  0  0  0  0  0  0  0  0  0  0  0
    5.1380   -2.3910    0.9380 C   0  0  0  0  0  0  0  0  0  0  0  0
    3.8870    0.4090   -1.2040 C   0  0  0  0  0  0  0  0  0  0  0  0
    2.5990    1.0920   -0.9840 C   0  0  2  0  0  0  0  0  0  0  0  0
    2.4880    2.0860   -0.0660 O   0  0  0  0  0  0  0  0  0  0  0  0
    1.4630    0.0660   -0.7340 C   0  0  0  0  0  0  0  0  0  0  0  0
    0.2090    0.8730   -0.5280 C   0  0  0  0  0  0  0  0  0  0  0  0
   -0.9960    0.0140   -0.2710 C   0  0  0  0  0  0  0  0  0  0  0  0
   -2.1170    0.8270   -0.0900 O   0  0  0  0  0  0  0  0  0  0  0  0
   -3.3970    0.3650    0.1660 C   0  0  0  0  0  0  0  0  0  0  0  0
   -3.7030   -0.9760    0.2710 C   0  0  0  0  0  0  0  0  0  0  0  0
   -4.9900   -1.4200    0.5270 C   0  0  0  0  0  0  0  0  0  0  0  0
   -5.3010   -2.8880    0.6370 C   0  0  0  0  0  0  0  0  0  0  0  0
   -5.9680   -0.4600    0.6770 C   0  0  0  0  0  0  0  0  0  0  0  0
   -5.7190    0.8950    0.5830 C   0  0  0  0  0  0  0  0  0  0  0  0
   -4.4040    1.2920    0.3220 C   0  0  0  0  0  0  0  0  0  0  0  0
   -4.0730    2.7330    0.2090 C   0  0  0  0  0  0  0  0  0  0  0  0
  1  2  2  0
  2  3  1  0
  3  4  2  3
  3  6  1  0
  4  5  1  0
  6  7  1  0
  7  8  1  1
  7  9  1  0
  9 10  1  0
 10 11  1  0
 11 12  1  0
 12 13  1  0
 13 14  2  0
 13 19  1  0
 14 15  1  0
 15 16  1  0
 15 17  2  0
 17 18  1  0
 18 19  2  0
 19 20  1  0
M  END
