
     RDKit          3D

 20 20  0  0  0  0  0  0  0  0999 V2000
   -5.2450    1.2700    1.5510 C   0  0  0  0  0  0  0  0  0  0  0  0
   -4.7560    0.9220    0.1980 C   0  0  0  0  0  0  0  0  0  0  0  0
   -3.3770    1.4070   -0.1650 C   0  0  0  0  0  0  0  0  0  0  0  0
   -2.3090    0.8850    0.6940 C   0  0  0  0  0  0  0  0  0  0  0  0
   -2.2630    1.3520    2.0800 C   0  0  0  0  0  0  0  0  0  0  0  0
   -1.3500    0.9050    2.8240 O   0  0  0  0  0  0  0  0  0  0  0  0
   -1.3630    0.0280    0.3180 C   0  0  0  0  0  0  0  0  0  0  0  0
   -1.2630   -0.5240   -1.0430 C   0  0  0  0  0  0  0  0  0  0  0  0
   -1.4410   -2.0340   -0.9920 C   0  0  0  0  0  0  0  0  0  0  0  0
   -0.4240   -0.3690    1.2330 O   0  0  0  0  0  0  0  0  0  0  0  0
    0.7230   -1.0700    1.1380 C   0  0  0  0  0  0  0  0  0  0  0  0
    1.8550   -0.5400    0.4180 C   0  0  0  0  0  0  0  0  0  0  0  0
    2.9330   -1.4630    0.2740 C   0  0  0  0  0  0  0  0  0  0  0  0
    2.7400   -2.8230    0.8150 C   0  0  0  0  0  0  0  0  0  0  0  0
    4.0880   -1.0860   -0.3460 C   0  0  0  0  0  0  0  0  0  0  0  0
    4.2570    0.1960   -0.8550 C   0  0  0  0  0  0  0  0  0  0  0  0
    5.5450    0.5290   -1.5180 C   0  0  0  0  0  0  0  0  0  0  0  0
    3.2270    1.0850   -0.7180 C   0  0  0  0  0  0  0  0  0  0  0  0
    2.0260    0.6990   -0.0740 C   0  0  0  0  0  0  0  0  0  0  0  0
    1.0340    1.7790    0.0840 C   0  0  0  0  0  0  0  0  0  0  0  0
  1  2  1  0
  2  3  1  0
  3  4  1  0
  4  5  1  0
  4  7  2  3
  5  6  2  0
  7  8  1  0
  7 10  1  0
  8  9  1  0
 10 11  1  0
 11 12  1  0
 12 13  2  0
 12 19  1  0
 13 14  1  0
 13 15  1  0
 15 16  2  0
 16 17  1  0
 16 18  1  0
 18 19  2  0
 19 20  1  0
M  END
