
     RDKit          3D

 20 20  0  0  0  0  0  0  0  0999 V2000
    1.3540    4.1010   -1.7100 C   0  0  0  0  0  0  0  0  0  0  0  0
    0.5190    3.2470   -1.1530 C   0  0  0  0  0  0  0  0  0  0  0  0
    0.7460    2.6960    0.2260 C   0  0  0  0  0  0  0  0  0  0  0  0
    0.8530    1.2180    0.1970 C   0  0  0  0  0  0  0  0  0  0  0  0
    2.1330    0.6870    0.2800 C   0  0  0  0  0  0  0  0  0  0  0  0
    2.3210   -0.6580    0.2490 C   0  0  0  0  0  0  0  0  0  0  0  0
    3.6070   -1.3160    0.3270 C   0  0  0  0  0  0  0  0  0  0  0  0
    3.7000   -2.5890    0.2920 O   0  0  0  0  0  0  0  0  0  0  0  0
    4.8170   -0.5230    0.4460 C   0  0  0  0  0  0  0  0  0  0  0  0
    6.0200   -1.0970    0.5200 C   0  0  0  0  0  0  0  0  0  0  0  0
    1.2110   -1.4600    0.1330 C   0  0  0  0  0  0  0  0  0  0  0  0
   -0.0980   -0.9840    0.0460 C   0  0  0  0  0  0  0  0  0  0  0  0
   -1.1590   -1.8700   -0.0690 O   0  0  0  0  0  0  0  0  0  0  0  0
   -0.9050   -3.2570   -0.0970 C   0  0  0  0  0  0  0  0  0  0  0  0
   -2.1710   -4.0630   -0.2240 C   0  0  0  0  0  0  0  0  0  0  0  0
   -0.2670    0.3780    0.0790 C   0  0  0  0  0  0  0  0  0  0  0  0
   -1.5730    0.9850    0.0100 C   0  0  0  0  0  0  0  0  0  0  0  0
   -2.7430    0.4380   -0.1190 C   0  0  0  0  0  0  0  0  0  0  0  0
   -4.0100    1.2560   -0.1730 C   0  0  0  0  0  0  0  0  0  0  0  0
   -4.9250    0.8500    0.9740 C   0  0  0  0  0  0  0  0  0  0  0  0
  1  2  2  0
  2  3  1  0
  3  4  1  0
  4  5  2  0
  4 16  1  0
  5  6  1  0
  6  7  1  0
  6 11  2  0
  7  8  2  0
  7  9  1  0
  9 10  2  0
 11 12  1  0
 12 13  1  0
 12 16  2  0
 13 14  1  0
 14 15  1  0
 16 17  1  0
 17 18  2  3
 18 19  1  0
 19 20  1  0
M  END
