
     RDKit          3D

 20 20  0  0  0  0  0  0  0  0999 V2000
    2.9630    3.4400   -1.4010 C   0  0  0  0  0  0  0  0  0  0  0  0
    2.3250    2.2020   -1.1530 O   0  0  0  0  0  0  0  0  0  0  0  0
    3.0870    1.1660   -0.6360 C   0  0  0  0  0  0  0  0  0  0  0  0
    4.4440    1.3250   -0.3620 C   0  0  0  0  0  0  0  0  0  0  0  0
    5.1760    0.2660    0.1560 C   0  0  0  0  0  0  0  0  0  0  0  0
    6.6130    0.4060    0.4550 C   0  0  0  0  0  0  0  0  0  0  0  0
    4.5440   -0.9390    0.3940 C   0  0  0  0  0  0  0  0  0  0  0  0
    5.3440   -2.0490    0.9450 C   0  0  0  0  0  0  0  0  0  0  0  0
    3.1870   -1.1070    0.1240 C   0  0  0  0  0  0  0  0  0  0  0  0
    2.4640   -0.0370   -0.3950 C   0  0  0  0  0  0  0  0  0  0  0  0
    1.0230   -0.1650   -0.7000 C   0  0  0  0  0  0  0  0  0  0  0  0
    0.1660    0.5190    0.3440 C   0  0  0  0  0  0  0  0  0  0  0  0
   -1.3030    0.3900    0.0220 C   0  0  0  0  0  0  0  0  0  0  0  0
   -1.7870   -1.0200   -0.0490 C   0  0  0  0  0  0  0  0  0  0  0  0
   -3.2540   -1.0400   -0.3750 C   0  0  0  0  0  0  0  0  0  0  0  0
   -4.0950   -0.3320    0.6410 C   0  0  0  0  0  0  0  0  0  0  0  0
   -5.5790   -0.3860    0.2700 C   0  0  1  0  0  0  0  0  0  0  0  0
   -6.0640   -1.8000    0.1860 C   0  0  0  0  0  0  0  0  0  0  0  0
   -6.3230    0.3830    1.3410 C   0  0  0  0  0  0  0  0  0  0  0  0
   -5.7740    0.2420   -0.9550 O   0  0  0  0  0  0  0  0  0  0  0  0
  1  2  1  0
  2  3  1  0
  3  4  2  0
  3 10  1  0
  4  5  1  0
  5  6  1  0
  5  7  2  0
  7  8  1  0
  7  9  1  0
  9 10  2  0
 10 11  1  0
 11 12  1  0
 12 13  1  0
 13 14  1  0
 14 15  1  0
 15 16  1  0
 16 17  1  0
 17 18  1  6
 17 19  1  0
 17 20  1  0
M  END
