
     RDKit          3D

 18 18  0  0  0  0  0  0  0  0999 V2000
    5.8530    0.4720    0.9480 C   0  0  0  0  0  0  0  0  0  0  0  0
    5.1310   -0.7200    0.4380 C   0  0  0  0  0  0  0  0  0  0  0  0
    3.7500   -0.9580    0.9360 C   0  0  0  0  0  0  0  0  0  0  0  0
    2.7460    0.0970    0.6710 C   0  0  2  0  0  0  0  0  0  0  0  0
    3.0210    1.4460    1.2600 C   0  0  0  0  0  0  0  0  0  0  0  0
    1.4310   -0.2480    1.0560 O   0  0  0  0  0  0  0  0  0  0  0  0
    0.6680   -0.2220   -0.0830 C   0  0  0  0  0  0  0  0  0  0  0  0
   -0.7720   -0.4560    0.0820 C   0  0  0  0  0  0  0  0  0  0  0  0
   -1.3730   -1.3090    0.9380 C   0  0  0  0  0  0  0  0  0  0  0  0
   -2.7470   -1.5040    1.0600 C   0  0  0  0  0  0  0  0  0  0  0  0
   -3.3830   -2.3570    2.0430 C   0  0  0  0  0  0  0  0  0  0  0  0
   -3.5120   -0.7160    0.1820 C   0  0  0  0  0  0  0  0  0  0  0  0
   -4.8860   -0.8740    0.2530 O   0  0  0  0  0  0  0  0  0  0  0  0
   -2.9930    0.1510   -0.6880 C   0  0  0  0  0  0  0  0  0  0  0  0
   -3.7640    0.9150   -1.7400 C   0  0  1  0  0  0  0  0  0  0  0  0
   -3.2220    2.3610   -1.6650 C   0  0  0  0  0  0  0  0  0  0  0  0
   -3.2040    0.4190   -3.1030 C   0  0  0  0  0  0  0  0  0  0  0  0
   -1.6020    0.3070   -0.7670 C   0  0  0  0  0  0  0  0  0  0  0  0
  1  2  1  0
  2  3  1  0
  3  4  1  0
  4  5  1  1
  4  6  1  0
  6  7  1  0
  7  8  1  0
  8  9  2  0
  8 18  1  0
  9 10  1  0
 10 11  1  0
 10 12  2  0
 12 13  1  0
 12 14  1  0
 14 15  1  0
 14 18  2  0
 15 16  1  1
 15 17  1  0
M  END
