
     RDKit          3D

 18 17  0  0  0  0  0  0  0  0999 V2000
   -6.9620    0.9040    1.2720 C   0  0  0  0  0  0  0  0  0  0  0  0
   -5.9390   -0.1560    0.8640 C   0  0  0  0  0  0  0  0  0  0  0  0
   -5.0580    0.3760   -0.2630 C   0  0  0  0  0  0  0  0  0  0  0  0
   -4.0620   -0.6470   -0.6690 C   0  0  0  0  0  0  0  0  0  0  0  0
   -3.1290   -1.0910    0.4070 C   0  0  0  0  0  0  0  0  0  0  0  0
   -2.2890   -0.0230    1.0020 C   0  0  0  0  0  0  0  0  0  0  0  0
   -1.3880    0.6950    0.0250 C   0  0  0  0  0  0  0  0  0  0  0  0
   -0.4490   -0.2780   -0.6070 C   0  0  0  0  0  0  0  0  0  0  0  0
    0.4900    0.3610   -1.5980 C   0  0  0  0  0  0  0  0  0  0  0  0
    1.3530    1.4220   -0.9510 C   0  0  0  0  0  0  0  0  0  0  0  0
    2.2130    0.9080    0.1600 C   0  0  0  0  0  0  0  0  0  0  0  0
    3.1800   -0.1740   -0.3010 C   0  0  0  0  0  0  0  0  0  0  0  0
    4.0270   -0.6460    0.8780 C   0  0  0  0  0  0  0  0  0  0  0  0
    4.9580   -1.7210    0.4390 C   0  0  0  0  0  0  0  0  0  0  0  0
    5.8820   -1.2610   -0.6380 C   0  0  0  0  0  0  0  0  0  0  0  0
    6.7430   -0.1610   -0.1930 C   0  0  0  0  0  0  0  0  0  0  0  0
    6.7720    0.2800    0.9680 O   0  0  0  0  0  0  0  0  0  0  0  0
    7.6020    0.4540   -1.1130 O   0  0  0  0  0  0  0  0  0  0  0  0
  1  2  1  0
  2  3  1  0
  3  4  1  0
  4  5  1  0
  5  6  1  0
  6  7  1  0
  7  8  1  0
  8  9  1  0
  9 10  1  0
 10 11  1  0
 11 12  1  0
 12 13  1  0
 13 14  1  0
 14 15  1  0
 15 16  1  0
 16 17  2  0
 16 18  1  0
M  END
