
     RDKit          3D

 18 18  0  0  0  0  0  0  0  0999 V2000
   -3.6430    2.7840   -0.8230 C   0  0  0  0  0  0  0  0  0  0  0  0
   -2.3660    2.3800   -1.5040 C   0  0  0  0  0  0  0  0  0  0  0  0
   -2.0390    0.9140   -1.3160 C   0  0  0  0  0  0  0  0  0  0  0  0
   -1.8920    0.6250    0.1620 C   0  0  0  0  0  0  0  0  0  0  0  0
   -1.5720   -0.7780    0.4420 C   0  0  0  0  0  0  0  0  0  0  0  0
   -2.4020   -1.8780    0.4110 C   0  0  0  0  0  0  0  0  0  0  0  0
   -3.8430   -1.9060    0.0800 C   0  0  0  0  0  0  0  0  0  0  0  0
   -1.7050   -2.9400    0.7290 O   0  0  0  0  0  0  0  0  0  0  0  0
   -0.4570   -2.6180    0.9720 C   0  0  0  0  0  0  0  0  0  0  0  0
    0.6140   -3.5680    1.3600 C   0  0  0  0  0  0  0  0  0  0  0  0
   -0.3310   -1.2540    0.8010 C   0  0  0  0  0  0  0  0  0  0  0  0
    0.9000   -0.4710    0.9730 C   0  0  0  0  0  0  0  0  0  0  0  0
    1.2140    0.0290    2.0840 O   0  0  0  0  0  0  0  0  0  0  0  0
    1.7820   -0.2730   -0.1880 C   0  0  0  0  0  0  0  0  0  0  0  0
    2.9900    0.5550    0.1480 C   0  0  2  0  0  0  0  0  0  0  0  0
    2.5670    1.9190    0.6380 C   0  0  0  0  0  0  0  0  0  0  0  0
    3.8540    0.7420   -1.0790 C   0  0  0  0  0  0  0  0  0  0  0  0
    4.3570   -0.5380   -1.6630 C   0  0  0  0  0  0  0  0  0  0  0  0
  1  2  1  0
  2  3  1  0
  3  4  1  0
  4  5  1  0
  5  6  2  0
  5 11  1  0
  6  7  1  0
  6  8  1  0
  8  9  1  0
  9 10  1  0
  9 11  2  0
 11 12  1  0
 12 13  2  0
 12 14  1  0
 14 15  1  0
 15 16  1  6
 15 17  1  0
 17 18  1  0
M  END
