
     RDKit          3D

 18 18  0  0  0  0  0  0  0  0999 V2000
   -2.3170   -0.9720   -2.3300 C   0  0  0  0  0  0  0  0  0  0  0  0
   -2.5520   -1.3280   -0.8960 C   0  0  0  0  0  0  0  0  0  0  0  0
   -1.8820   -0.4130    0.0790 C   0  0  2  0  0  0  0  0  0  0  0  0
   -2.2350   -0.9310    1.4800 C   0  0  0  0  0  0  0  0  0  0  0  0
   -3.7240   -0.9240    1.7020 C   0  0  0  0  0  0  0  0  0  0  0  0
   -2.3230    0.9990   -0.0640 C   0  0  0  0  0  0  0  0  0  0  0  0
   -1.5150    1.8330   -0.9890 C   0  0  0  0  0  0  0  0  0  0  0  0
   -0.4860    2.7020   -0.2740 C   0  0  0  0  0  0  0  0  0  0  0  0
    0.8830    2.2290   -0.5650 C   0  0  0  0  0  0  0  0  0  0  0  0
    1.4140    1.1750    0.3630 C   0  0  2  0  0  0  0  0  0  0  0  0
    1.9600    1.8880    1.4630 O   0  0  0  0  0  0  0  0  0  0  0  0
    2.5380    0.4930   -0.3150 C   0  0  0  0  0  0  0  0  0  0  0  0
    3.2010   -0.6030    0.4690 C   0  0  0  0  0  0  0  0  0  0  0  0
    4.3130   -1.2150   -0.3090 C   0  0  0  0  0  0  0  0  0  0  0  0
    5.1670   -2.3250    0.1860 C   0  0  0  0  0  0  0  0  0  0  0  0
    4.5570   -0.7950   -1.4250 O   0  0  0  0  0  0  0  0  0  0  0  0
    0.3660    0.2920    0.9430 C   0  0  0  0  0  0  0  0  0  0  0  0
   -0.3620   -0.5710   -0.0220 C   0  0  0  0  0  0  0  0  0  0  0  0
  1  2  1  0
  3  2  1  6
  3  4  1  0
  3  6  1  0
  3 18  1  0
  4  5  1  0
  6  7  1  0
  7  8  1  0
  8  9  1  0
  9 10  1  0
 10 11  1  1
 10 12  1  0
 10 17  1  0
 12 13  1  0
 13 14  1  0
 14 15  1  0
 14 16  2  0
 17 18  1  0
M  END
