
     RDKit          3D

 18 18  0  0  0  0  0  0  0  0999 V2000
    5.8970   -0.0740    0.4520 C   0  0  0  0  0  0  0  0  0  0  0  0
    4.4180    0.2670    0.6700 C   0  0  0  0  0  0  0  0  0  0  0  0
    3.7020    0.2610   -0.6410 C   0  0  0  0  0  0  0  0  0  0  0  0
    2.2350    0.5950   -0.5300 C   0  0  0  0  0  0  0  0  0  0  0  0
    1.5200   -0.4110    0.3620 C   0  0  0  0  0  0  0  0  0  0  0  0
    0.0740   -0.0750    0.4420 C   0  0  0  0  0  0  0  0  0  0  0  0
   -0.3970    0.6990    1.5190 C   0  0  0  0  0  0  0  0  0  0  0  0
   -1.7030    1.0860    1.6050 C   0  0  0  0  0  0  0  0  0  0  0  0
   -2.1560    1.9070    2.7680 C   0  0  0  0  0  0  0  0  0  0  0  0
   -2.5590    0.6960    0.6010 C   0  0  0  0  0  0  0  0  0  0  0  0
   -3.8740    1.0860    0.6870 O   0  0  0  0  0  0  0  0  0  0  0  0
   -4.8930    0.7960   -0.2210 C   0  0  0  0  0  0  0  0  0  0  0  0
   -4.6740    1.2920   -1.6100 C   0  0  0  0  0  0  0  0  0  0  0  0
   -2.0980   -0.0620   -0.4510 C   0  0  0  0  0  0  0  0  0  0  0  0
   -0.7600   -0.4750   -0.5650 C   0  0  0  0  0  0  0  0  0  0  0  0
   -0.3890   -1.3440   -1.7030 C   0  0  0  0  0  0  0  0  0  0  0  0
   -0.3940   -2.8260   -1.3110 C   0  0  0  0  0  0  0  0  0  0  0  0
   -0.0360   -3.6270   -2.3760 O   0  0  0  0  0  0  0  0  0  0  0  0
  1  2  1  0
  2  3  1  0
  3  4  1  0
  4  5  1  0
  5  6  1  0
  6  7  2  0
  6 15  1  0
  7  8  1  0
  8  9  1  0
  8 10  2  0
 10 11  1  0
 10 14  1  0
 11 12  1  0
 12 13  1  0
 14 15  2  0
 15 16  1  0
 16 17  1  0
 17 18  1  0
M  END
