
     RDKit          3D

 28 31  0  0  0  0  0  0  0  0999 V2000
    6.1170   -1.1450    1.1060 C   0  0  0  0  0  0  0  0  0  0  0  0
    5.6760   -0.6240   -0.1700 N   0  0  0  0  0  0  0  0  0  0  0  0
    4.4350   -0.0420   -0.3470 N   0  0  0  0  0  0  0  0  0  0  0  0
    3.3530   -0.7390   -0.3070 C   0  0  0  0  0  0  0  0  0  0  0  0
    3.3300   -2.0980   -0.0890 C   0  0  0  0  0  0  0  0  0  0  0  0
    2.1450   -2.8000   -0.0550 C   0  0  0  0  0  0  0  0  0  0  0  0
    0.9800   -2.1530   -0.2380 N   0  0  0  0  0  0  0  0  0  0  0  0
    0.9780   -0.8430   -0.4500 C   0  0  0  0  0  0  0  0  0  0  0  0
    2.1540   -0.1170   -0.4890 C   0  0  0  0  0  0  0  0  0  0  0  0
    1.9940    1.3390   -0.7340 C   0  0  0  0  0  0  0  0  0  0  0  0
    0.9400    1.8160    0.2390 C   0  0  0  0  0  0  0  0  0  0  0  0
   -0.3080    1.1370    0.1640 N   0  0  0  0  0  0  0  0  0  0  0  0
   -1.6170    2.1380   -0.3170 S   0  0  2  0  0  0  0  0  0  0  0  0
   -2.8570    1.2910   -0.3750 O   0  0  0  0  0  0  0  0  0  0  0  0
   -1.4130    2.7200   -1.6860 O   0  0  0  0  0  0  0  0  0  0  0  0
   -1.9190    3.4640    0.8030 C   0  0  1  0  0  0  0  0  0  0  0  0
   -1.3550    4.8080    0.5930 C   0  0  0  0  0  0  0  0  0  0  0  0
   -2.7890    4.5760    0.2170 C   0  0  0  0  0  0  0  0  0  0  0  0
   -0.2650   -0.0250   -0.6680 C   0  0  2  0  0  0  0  0  0  0  0  0
   -1.4640   -0.8540   -0.6100 C   0  0  0  0  0  0  0  0  0  0  0  0
   -2.0170   -1.3380   -1.7740 C   0  0  0  0  0  0  0  0  0  0  0  0
   -3.1500   -2.1280   -1.7910 C   0  0  0  0  0  0  0  0  0  0  0  0
   -3.7550   -2.4480   -0.6020 C   0  0  0  0  0  0  0  0  0  0  0  0
   -4.9690   -3.2930   -0.6090 C   0  0  2  0  0  0  0  0  0  0  0  0
   -5.9890   -2.5720   -0.0130 F   0  0  0  0  0  0  0  0  0  0  0  0
   -4.7600   -4.4660    0.1100 F   0  0  0  0  0  0  0  0  0  0  0  0
   -3.2340   -1.9840    0.5860 C   0  0  0  0  0  0  0  0  0  0  0  0
   -2.0900   -1.1890    0.5700 C   0  0  0  0  0  0  0  0  0  0  0  0
  1  2  1  0
  2  3  1  0
  3  4  2  3
  4  5  1  0
  4  9  1  0
  5  6  2  0
  6  7  1  0
  7  8  1  0
  8  9  2  0
  8 19  1  0
  9 10  1  0
 10 11  1  0
 11 12  1  0
 13 12  1  1
 12 19  1  0
 13 14  2  0
 13 15  2  0
 13 16  1  0
 16 17  1  6
 16 18  1  0
 17 18  1  0
 19 20  1  1
 20 21  2  0
 20 28  1  0
 21 22  1  0
 22 23  2  0
 23 24  1  0
 23 27  1  0
 24 25  1  1
 24 26  1  0
 27 28  2  0
M  END
