
     RDKit          3D

 28 30  0  0  0  0  0  0  0  0999 V2000
    6.0700   -0.5650   -1.8080 C   0  0  0  0  0  0  0  0  0  0  0  0
    5.0230   -0.7820   -0.7240 C   0  0  0  0  0  0  0  0  0  0  0  0
    5.0610    0.3720    0.1850 C   0  0  0  0  0  0  0  0  0  0  0  0
    4.1260    1.2580    0.4000 C   0  0  0  0  0  0  0  0  0  0  0  0
    4.1820    2.4340    1.3440 C   0  0  0  0  0  0  0  0  0  0  0  0
    2.8120    3.0240    1.3380 C   0  0  0  0  0  0  0  0  0  0  0  0
    1.9840    1.8990    0.8420 N   0  0  0  0  0  0  0  0  0  0  0  0
    0.7250    1.5100    1.3160 C   0  0  0  0  0  0  0  0  0  0  0  0
    0.0890    2.5180    2.4750 S   0  0  0  0  0  0  0  0  0  0  0  0
   -0.0670    0.4350    0.9220 N   0  0  0  0  0  0  0  0  0  0  0  0
   -1.3380    0.0400    1.4000 C   0  0  0  0  0  0  0  0  0  0  0  0
   -2.2020   -0.6180    0.5110 C   0  0  0  0  0  0  0  0  0  0  0  0
   -3.4310   -1.0470    0.9240 C   0  0  0  0  0  0  0  0  0  0  0  0
   -4.3000   -1.7100    0.0040 N   0  0  0  0  0  0  0  0  0  0  0  0
   -4.2290   -1.5770   -1.4480 C   0  0  0  0  0  0  0  0  0  0  0  0
   -5.7110   -1.6660   -1.7840 C   0  0  0  0  0  0  0  0  0  0  0  0
   -6.1930   -2.7450   -0.8500 C   0  0  0  0  0  0  0  0  0  0  0  0
   -5.3470   -2.5790    0.3470 C   0  0  0  0  0  0  0  0  0  0  0  0
   -5.5570   -3.1390    1.4760 O   0  0  0  0  0  0  0  0  0  0  0  0
   -3.8450   -0.8500    2.1940 N   0  0  0  0  0  0  0  0  0  0  0  0
   -3.0420   -0.2260    3.0650 C   0  0  0  0  0  0  0  0  0  0  0  0
   -3.4100   -0.0300    4.2620 O   0  0  0  0  0  0  0  0  0  0  0  0
   -1.7790    0.2310    2.6930 C   0  0  0  0  0  0  0  0  0  0  0  0
    2.7870    1.3920   -0.2310 C   0  0  0  0  0  0  0  0  0  0  0  0
    2.4800    1.1390   -1.4730 C   0  0  0  0  0  0  0  0  0  0  0  0
    1.1580    1.2760   -2.1060 C   0  0  1  0  0  0  0  0  0  0  0  0
    0.6420    0.0460   -2.3710 F   0  0  0  0  0  0  0  0  0  0  0  0
    0.3220    2.1490   -1.4730 F   0  0  0  0  0  0  0  0  0  0  0  0
  1  2  1  0
  2  3  1  0
  3  4  2  3
  4  5  1  0
  4 24  1  0
  5  6  1  0
  6  7  1  0
  7  8  1  0
  7 24  1  0
  8  9  2  0
  8 10  1  0
 10 11  1  0
 11 12  1  0
 11 23  2  0
 12 13  2  0
 13 14  1  0
 13 20  1  0
 14 15  1  0
 14 18  1  0
 15 16  1  0
 16 17  1  0
 17 18  1  0
 18 19  2  0
 20 21  1  0
 21 22  2  0
 21 23  1  0
 24 25  2  3
 25 26  1  0
 26 27  1  1
 26 28  1  0
M  END
