
     RDKit          3D

 28 31  0  0  0  0  0  0  0  0999 V2000
   -0.1040   -3.4760    1.7740 O   0  0  0  0  0  0  0  0  0  0  0  0
   -0.0610   -2.9610    0.3680 S   0  0  1  0  0  0  0  0  0  0  0  0
    0.5640   -3.9600   -0.5630 O   0  0  0  0  0  0  0  0  0  0  0  0
   -1.6260   -2.4850   -0.1650 N   0  0  0  0  0  0  0  0  0  0  0  0
   -1.9020   -1.1280   -0.4920 C   0  0  0  0  0  0  0  0  0  0  0  0
   -3.2910   -0.8650   -0.9530 C   0  0  1  0  0  0  0  0  0  0  0  0
   -4.2130   -1.2460    0.2000 C   0  0  0  0  0  0  0  0  0  0  0  0
   -4.3130    0.0770    0.9390 C   0  0  0  0  0  0  0  0  0  0  0  0
   -4.4520    1.0210   -0.1220 N   0  0  0  0  0  0  0  0  0  0  0  0
   -5.7940    1.3290   -0.4960 C   0  0  0  0  0  0  0  0  0  0  0  0
   -6.4580    2.0980    0.6200 C   0  0  0  0  0  0  0  0  0  0  0  0
   -7.7710    2.4270    0.3080 F   0  0  0  0  0  0  0  0  0  0  0  0
   -3.5980    0.5780   -1.1810 C   0  0  0  0  0  0  0  0  0  0  0  0
   -1.0560   -0.1960   -0.4080 N   0  0  0  0  0  0  0  0  0  0  0  0
    0.2780   -0.3160    0.0120 C   0  0  0  0  0  0  0  0  0  0  0  0
    1.0480    0.8580    0.0410 C   0  0  0  0  0  0  0  0  0  0  0  0
    2.3650    0.8540    0.4440 C   0  0  0  0  0  0  0  0  0  0  0  0
    2.9460   -0.3360    0.8290 C   0  0  0  0  0  0  0  0  0  0  0  0
    4.3090   -0.4620    1.2310 N   0  0  0  0  0  0  0  0  0  0  0  0
    5.3950    0.2160    0.6730 C   0  0  0  0  0  0  0  0  0  0  0  0
    5.3060    0.9130   -0.4910 C   0  0  0  0  0  0  0  0  0  0  0  0
    6.4240    1.5500   -1.0420 C   0  0  0  0  0  0  0  0  0  0  0  0
    7.6230    1.4690   -0.4030 C   0  0  0  0  0  0  0  0  0  0  0  0
    7.7460    0.7650    0.7830 C   0  0  0  0  0  0  0  0  0  0  0  0
    6.6310    0.1480    1.3060 C   0  0  0  0  0  0  0  0  0  0  0  0
    6.7710   -0.5380    2.4720 F   0  0  0  0  0  0  0  0  0  0  0  0
    2.1980   -1.5040    0.8070 C   0  0  0  0  0  0  0  0  0  0  0  0
    0.9060   -1.4720    0.4070 C   0  0  0  0  0  0  0  0  0  0  0  0
  1  2  2  0
  2  3  2  0
  2  4  1  6
  2 28  1  0
  4  5  1  0
  6  5  1  1
  5 14  2  0
  6  7  1  0
  6 13  1  0
  7  8  1  0
  8  9  1  0
  9 10  1  0
  9 13  1  0
 10 11  1  0
 11 12  1  0
 14 15  1  0
 15 16  2  0
 15 28  1  0
 16 17  1  0
 17 18  2  0
 18 19  1  0
 18 27  1  0
 19 20  1  0
 20 21  2  0
 20 25  1  0
 21 22  1  0
 22 23  2  0
 23 24  1  0
 24 25  2  0
 25 26  1  0
 27 28  2  0
M  END
