
     RDKit          3D

 27 30  0  0  0  0  0  0  0  0999 V2000
   -5.4450   -3.1590    1.4360 C   0  0  0  0  0  0  0  0  0  0  0  0
   -4.6040   -2.0210    0.9250 C   0  0  0  0  0  0  0  0  0  0  0  0
   -2.8710   -1.8400    1.0160 S   0  0  0  0  0  0  0  0  0  0  0  0
   -2.7590   -0.2970    0.2080 C   0  0  0  0  0  0  0  0  0  0  0  0
   -1.4840    0.4340   -0.0870 C   0  0  0  0  0  0  0  0  0  0  0  0
   -0.4280   -0.3580    0.5520 N   0  0  0  0  0  0  0  0  0  0  0  0
    0.8830    0.2250    0.3700 C   0  0  0  0  0  0  0  0  0  0  0  0
    1.2630    0.1230   -1.0670 C   0  0  0  0  0  0  0  0  0  0  0  0
    2.5390    0.6620   -1.3510 O   0  0  0  0  0  0  0  0  0  0  0  0
    3.7250    0.2280   -0.8070 C   0  0  0  0  0  0  0  0  0  0  0  0
    3.6760   -0.7230    0.0080 O   0  0  0  0  0  0  0  0  0  0  0  0
    5.0180    0.8080   -1.1240 C   0  0  0  0  0  0  0  0  0  0  0  0
    5.2780    1.8730   -1.9690 C   0  0  0  0  0  0  0  0  0  0  0  0
    6.6050    2.0630   -1.9580 N   0  0  0  0  0  0  0  0  0  0  0  0
    7.2270    1.2060   -1.1730 N   0  0  0  0  0  0  0  0  0  0  0  0
    6.2460    0.4190   -0.6490 C   0  0  0  0  0  0  0  0  0  0  0  0
    6.4980   -0.7090    0.3090 C   0  0  1  0  0  0  0  0  0  0  0  0
    7.8940   -0.9810    0.7490 C   0  0  0  0  0  0  0  0  0  0  0  0
    6.9840   -0.2740    1.7000 C   0  0  0  0  0  0  0  0  0  0  0  0
   -4.0340   -0.0010   -0.0850 C   0  0  0  0  0  0  0  0  0  0  0  0
   -5.0030   -0.8670    0.2700 C   0  0  0  0  0  0  0  0  0  0  0  0
   -6.4470   -0.5010   -0.0820 C   0  0  0  0  0  0  0  0  0  0  0  0
   -6.7190    0.9220    0.3260 C   0  0  0  0  0  0  0  0  0  0  0  0
   -5.7510    1.9190   -0.2100 C   0  0  0  0  0  0  0  0  0  0  0  0
   -4.4970    1.2580   -0.7510 C   0  0  0  0  0  0  0  0  0  0  0  0
   -3.9580    1.8060   -1.7130 N   0  0  0  0  0  0  0  0  0  0  0  0
   -2.9580    1.6290   -2.4720 F   0  0  0  0  0  0  0  0  0  0  0  0
  1  2  1  0
  2  3  1  0
  2 21  2  0
  3  4  1  0
  4  5  1  0
  4 20  2  0
  5  6  1  0
  6  7  1  0
  7  8  1  0
  8  9  1  0
  9 10  1  0
 10 11  2  0
 10 12  1  0
 12 13  1  0
 12 16  2  0
 13 14  2  0
 14 15  1  0
 15 16  1  0
 17 16  1  6
 17 18  1  0
 17 19  1  0
 18 19  1  0
 20 21  1  0
 20 25  1  0
 21 22  1  0
 22 23  1  0
 23 24  1  0
 24 25  1  0
 25 26  2  3
 26 27  1  0
M  END
