
     RDKit          3D

 27 30  0  0  0  0  0  0  0  0999 V2000
   -1.6230    1.4620    2.9350 N   0  0  0  0  0  0  0  0  0  0  0  0
   -0.8720    1.2840    1.7370 C   0  0  2  0  0  0  0  0  0  0  0  0
   -1.6620    0.3030    0.8380 C   0  0  0  0  0  0  0  0  0  0  0  0
   -3.2810   -0.0730    1.2610 S   0  0  0  0  0  0  0  0  0  0  0  0
   -4.4980   -0.4220    0.0810 C   0  0  0  0  0  0  0  0  0  0  0  0
   -4.5090   -0.2320   -1.1810 N   0  0  0  0  0  0  0  0  0  0  0  0
   -5.7380   -0.6740   -1.7590 C   0  0  0  0  0  0  0  0  0  0  0  0
   -6.5520   -1.1770   -0.6170 C   0  0  0  0  0  0  0  0  0  0  0  0
   -5.8080   -1.0250    0.4540 C   0  0  0  0  0  0  0  0  0  0  0  0
   -0.9550   -0.1900   -0.1470 C   0  0  0  0  0  0  0  0  0  0  0  0
   -1.5510   -1.1550   -1.1090 C   0  0  0  0  0  0  0  0  0  0  0  0
   -1.4710   -0.6800   -2.5240 C   0  0  0  0  0  0  0  0  0  0  0  0
   -2.0680    0.5150   -2.8080 O   0  0  0  0  0  0  0  0  0  0  0  0
    0.5110    0.2040   -0.3530 C   0  0  0  0  0  0  0  0  0  0  0  0
    1.1200    0.1060    0.9440 N   0  0  0  0  0  0  0  0  0  0  0  0
    2.2620   -0.4150    1.3930 C   0  0  0  0  0  0  0  0  0  0  0  0
    3.2110   -1.0490    0.5860 O   0  0  0  0  0  0  0  0  0  0  0  0
    4.2650   -0.2780    0.1350 C   0  0  0  0  0  0  0  0  0  0  0  0
    5.3950   -0.2470    0.9580 C   0  0  0  0  0  0  0  0  0  0  0  0
    6.5020    0.4820    0.6160 C   0  0  0  0  0  0  0  0  0  0  0  0
    6.4980    1.2000   -0.5690 C   0  0  0  0  0  0  0  0  0  0  0  0
    7.6180    1.9030   -0.8580 F   0  0  0  0  0  0  0  0  0  0  0  0
    5.3860    1.1700   -1.3810 C   0  0  0  0  0  0  0  0  0  0  0  0
    4.2550    0.4320   -1.0420 C   0  0  0  0  0  0  0  0  0  0  0  0
    2.3270   -0.2160    2.7580 C   0  0  0  0  0  0  0  0  0  0  0  0
    1.1860    0.4370    3.0870 N   0  0  0  0  0  0  0  0  0  0  0  0
    0.4370    0.6430    2.0020 C   0  0  0  0  0  0  0  0  0  0  0  0
  2  1  1  1
  2  3  1  0
  2 27  1  0
  3  4  1  0
  3 10  2  0
  4  5  1  0
  5  6  2  0
  5  9  1  0
  6  7  1  0
  7  8  1  0
  8  9  2  0
 10 11  1  0
 10 14  1  0
 11 12  1  0
 12 13  1  0
 14 15  1  0
 15 16  1  0
 15 27  1  0
 16 17  1  0
 16 25  2  0
 17 18  1  0
 18 19  2  0
 18 24  1  0
 19 20  1  0
 20 21  2  0
 21 22  1  0
 21 23  1  0
 23 24  2  0
 25 26  1  0
 26 27  2  0
M  END
