
     RDKit          3D

 28 31  0  0  0  0  0  0  0  0999 V2000
    3.1740   -0.5350   -1.6490 O   0  0  0  0  0  0  0  0  0  0  0  0
    4.0070    0.3970   -1.3900 C   0  0  0  0  0  0  0  0  0  0  0  0
    3.7590    1.2720   -0.3560 N   0  0  0  0  0  0  0  0  0  0  0  0
    2.6090    1.2490    0.4940 C   0  0  0  0  0  0  0  0  0  0  0  0
    2.7040    1.9290    1.6990 C   0  0  0  0  0  0  0  0  0  0  0  0
    1.6530    2.0060    2.5810 C   0  0  0  0  0  0  0  0  0  0  0  0
    0.4590    1.3550    2.2080 C   0  0  0  0  0  0  0  0  0  0  0  0
   -0.5600    1.4180    3.0900 F   0  0  0  0  0  0  0  0  0  0  0  0
    0.3090    0.6730    1.0360 C   0  0  0  0  0  0  0  0  0  0  0  0
   -0.9090   -0.0020    0.6250 C   0  0  0  0  0  0  0  0  0  0  0  0
   -1.1440   -0.6950   -0.4880 N   0  0  0  0  0  0  0  0  0  0  0  0
   -2.3550   -1.1490   -0.4940 O   0  0  0  0  0  0  0  0  0  0  0  0
   -2.9960   -0.7980    0.5910 C   0  0  0  0  0  0  0  0  0  0  0  0
   -4.3520   -1.0680    1.0270 C   0  0  0  0  0  0  0  0  0  0  0  0
   -4.8250   -0.5370    2.1230 C   0  0  0  0  0  0  0  0  0  0  0  0
   -6.1660   -0.7680    2.6230 C   0  0  0  0  0  0  0  0  0  0  0  0
   -7.0010   -1.5530    1.9760 C   0  0  0  0  0  0  0  0  0  0  0  0
   -6.5550   -2.1650    0.7740 N   0  0  0  0  0  0  0  0  0  0  0  0
   -5.2270   -1.9760    0.2170 C   0  0  0  0  0  0  0  0  0  0  0  0
   -4.7050   -2.4120   -0.7940 C   0  0  0  0  0  0  0  0  0  0  0  0
   -5.9710   -3.3170   -1.3190 F   0  0  0  0  0  0  0  0  0  0  0  0
   -2.0870   -0.0710    1.3020 N   0  0  0  0  0  0  0  0  0  0  0  0
    1.4260    0.6330    0.1750 C   0  0  0  0  0  0  0  0  0  0  0  0
    5.1860    0.5110   -2.1890 C   0  0  0  0  0  0  0  0  0  0  0  0
    6.2770    1.3320   -2.1940 C   0  0  0  0  0  0  0  0  0  0  0  0
    7.2390    1.1550   -3.1080 C   0  0  0  0  0  0  0  0  0  0  0  0
    7.1450    0.1540   -4.0440 C   0  0  0  0  0  0  0  0  0  0  0  0
    5.5450   -0.5820   -3.5650 S   0  0  0  0  0  0  0  0  0  0  0  0
  1  2  2  0
  2  3  1  0
  2 24  1  0
  3  4  1  0
  4  5  2  0
  4 23  1  0
  5  6  1  0
  6  7  2  0
  7  8  1  0
  7  9  1  0
  9 10  1  0
  9 23  2  0
 10 11  2  0
 10 22  1  0
 11 12  1  0
 12 13  1  0
 13 14  1  0
 13 22  2  0
 14 15  2  0
 14 19  1  0
 15 16  1  0
 16 17  2  0
 17 18  1  0
 18 19  1  0
 19 20  2  3
 20 21  1  0
 24 25  2  0
 24 28  1  0
 25 26  1  0
 26 27  2  0
 27 28  1  0
M  END
