
     RDKit          3D

 28 31  0  0  0  0  0  0  0  0999 V2000
   -3.6250   -2.5280   -1.2430 C   0  0  0  0  0  0  0  0  0  0  0  0
   -4.5830   -1.5090   -0.6810 C   0  0  0  0  0  0  0  0  0  0  0  0
   -3.9130   -0.5650    0.2990 C   0  0  0  0  0  0  0  0  0  0  0  0
   -2.8010    0.1690   -0.4210 C   0  0  0  0  0  0  0  0  0  0  0  0
   -2.1480    1.1020    0.6020 C   0  0  2  0  0  0  0  0  0  0  0  0
   -3.3030    2.0300    1.0440 C   0  0  0  0  0  0  0  0  0  0  0  0
   -2.7520    3.3040    1.6540 C   0  0  0  0  0  0  0  0  0  0  0  0
   -2.0130    4.0810    0.6150 C   0  0  0  0  0  0  0  0  0  0  0  0
   -1.4940    3.2030   -0.5070 C   0  0  0  0  0  0  0  0  0  0  0  0
   -1.1200    1.8980   -0.0040 N   0  0  0  0  0  0  0  0  0  0  0  0
    0.2130    1.4710   -0.1290 C   0  0  0  0  0  0  0  0  0  0  0  0
    1.0450    2.2750   -0.6890 O   0  0  0  0  0  0  0  0  0  0  0  0
    0.7340    0.1970    0.3210 C   0  0  0  0  0  0  0  0  0  0  0  0
   -0.0270   -0.7350    0.9200 N   0  0  0  0  0  0  0  0  0  0  0  0
    0.5740   -1.8540    1.2810 N   0  0  0  0  0  0  0  0  0  0  0  0
    1.8660   -2.1370    1.1020 C   0  0  0  0  0  0  0  0  0  0  0  0
    2.2990   -3.2590    1.5040 O   0  0  0  0  0  0  0  0  0  0  0  0
    2.7290   -1.2010    0.4770 C   0  0  0  0  0  0  0  0  0  0  0  0
    2.0900   -0.0490    0.1100 C   0  0  0  0  0  0  0  0  0  0  0  0
    3.3700    0.9220   -0.6290 S   0  0  0  0  0  0  0  0  0  0  0  0
    4.6910   -0.2840   -0.4000 C   0  0  0  0  0  0  0  0  0  0  0  0
    5.9970   -0.5190   -0.6030 N   0  0  0  0  0  0  0  0  0  0  0  0
    6.2710   -1.7410   -0.1190 C   0  0  0  0  0  0  0  0  0  0  0  0
    7.6000   -2.4000   -0.1370 C   0  0  2  0  0  0  0  0  0  0  0  0
    7.5320   -3.6290   -0.7690 F   0  0  0  0  0  0  0  0  0  0  0  0
    7.9930   -2.6560    1.1810 F   0  0  0  0  0  0  0  0  0  0  0  0
    5.0940   -2.2470    0.3870 C   0  0  0  0  0  0  0  0  0  0  0  0
    4.0490   -1.2980    0.2080 C   0  0  0  0  0  0  0  0  0  0  0  0
  1  2  1  0
  2  3  1  0
  3  4  1  0
  5  4  1  6
  5  6  1  0
  5 10  1  0
  6  7  1  0
  7  8  1  0
  8  9  1  0
  9 10  1  0
 10 11  1  0
 11 12  2  0
 11 13  1  0
 13 14  2  0
 13 19  1  0
 14 15  1  0
 15 16  1  0
 16 17  2  0
 16 18  1  0
 18 19  2  0
 18 28  1  0
 19 20  1  0
 20 21  1  0
 21 22  1  0
 21 28  2  0
 22 23  1  0
 23 24  1  0
 23 27  2  0
 24 25  1  6
 24 26  1  0
 27 28  1  0
M  END
