
     RDKit          3D

 27 30  0  0  0  0  0  0  0  0999 V2000
    3.3020    1.4770    2.1100 C   0  0  0  0  0  0  0  0  0  0  0  0
    3.8220    0.5900    1.2720 C   0  0  0  0  0  0  0  0  0  0  0  0
    3.5940    0.6450   -0.1900 C   0  0  0  0  0  0  0  0  0  0  0  0
    2.9450   -0.5870   -0.5900 N   0  0  0  0  0  0  0  0  0  0  0  0
    3.5830   -1.7090   -0.9750 C   0  0  0  0  0  0  0  0  0  0  0  0
    2.6690   -2.6270   -1.2660 N   0  0  0  0  0  0  0  0  0  0  0  0
    1.4460   -2.1120   -1.0750 C   0  0  0  0  0  0  0  0  0  0  0  0
   -0.0370   -2.9750   -1.3400 S   0  0  1  0  0  0  0  0  0  0  0  0
   -0.1060   -3.4290   -2.7870 O   0  0  0  0  0  0  0  0  0  0  0  0
    0.0100   -4.2180   -0.4980 O   0  0  0  0  0  0  0  0  0  0  0  0
   -1.4030   -1.9920   -0.9810 N   0  0  0  0  0  0  0  0  0  0  0  0
   -1.5990   -1.4860    0.3370 C   0  0  0  0  0  0  0  0  0  0  0  0
   -1.5400   -2.3740    1.4200 C   0  0  0  0  0  0  0  0  0  0  0  0
   -1.7700   -1.9370    2.6970 C   0  0  0  0  0  0  0  0  0  0  0  0
   -2.0610   -0.6100    2.8970 C   0  0  0  0  0  0  0  0  0  0  0  0
   -2.1180    0.2690    1.8210 C   0  0  0  0  0  0  0  0  0  0  0  0
   -2.3650    1.5850    1.7230 N   0  0  0  0  0  0  0  0  0  0  0  0
   -2.3010    2.0070    0.4510 C   0  0  0  0  0  0  0  0  0  0  0  0
   -2.4670    3.2470   -0.1590 C   0  0  0  0  0  0  0  0  0  0  0  0
   -2.3420    3.4460   -1.5120 C   0  0  0  0  0  0  0  0  0  0  0  0
   -2.5170    4.6920   -2.0580 F   0  0  0  0  0  0  0  0  0  0  0  0
   -2.0380    2.3520   -2.2850 C   0  0  0  0  0  0  0  0  0  0  0  0
   -1.9120    2.5470   -3.6290 F   0  0  0  0  0  0  0  0  0  0  0  0
   -1.8660    1.1000   -1.7070 C   0  0  0  0  0  0  0  0  0  0  0  0
   -1.9970    0.9180   -0.3440 C   0  0  0  0  0  0  0  0  0  0  0  0
   -1.8850   -0.1590    0.5090 C   0  0  0  0  0  0  0  0  0  0  0  0
    1.6230   -0.8240   -0.6480 C   0  0  0  0  0  0  0  0  0  0  0  0
  1  2  2  0
  2  3  1  0
  3  4  1  0
  4  5  1  0
  4 27  1  0
  5  6  2  0
  6  7  1  0
  7  8  1  0
  7 27  2  0
  8  9  2  0
  8 10  2  0
  8 11  1  1
 11 12  1  0
 12 13  2  0
 12 26  1  0
 13 14  1  0
 14 15  2  0
 15 16  1  0
 16 17  1  0
 16 26  2  0
 17 18  1  0
 18 19  2  0
 18 25  1  0
 19 20  1  0
 20 21  1  0
 20 22  2  0
 22 23  1  0
 22 24  1  0
 24 25  2  0
 25 26  1  0
M  END
