
     RDKit          3D

 35 35  0  0  0  0  0  0  0  0999 V2000
    7.3150    2.6110    0.1350 C   0  0  0  0  0  0  0  0  0  0  0  0
    6.6390    1.3140    0.3990 C   0  0  0  0  0  0  0  0  0  0  0  0
    6.2350    0.6110   -0.7470 O   0  0  0  0  0  0  0  0  0  0  0  0
    5.4500   -0.8260   -0.4430 P   0  0  0  0  0  0  0  0  0  0  0  0
    6.2510   -2.2930   -0.5930 O   0  0  0  0  0  0  0  0  0  0  0  0
    6.5840   -2.8820    0.6300 C   0  0  0  0  0  0  0  0  0  0  0  0
    3.6630   -0.8490   -0.1840 C   0  0  1  0  0  0  0  0  0  0  0  0
    3.2400   -1.6380    0.8770 O   0  0  0  0  0  0  0  0  0  0  0  0
    3.0520    0.5350   -0.0860 C   0  0  0  0  0  0  0  0  0  0  0  0
    1.6780    0.5000   -0.1190 N   0  0  0  0  0  0  0  0  0  0  0  0
    0.8750    0.2200    1.0700 C   0  0  0  0  0  0  0  0  0  0  0  0
   -0.5260    0.1120    0.5200 C   0  0  0  0  0  0  0  0  0  0  0  0
   -1.1480    1.3550    0.3010 C   0  0  0  0  0  0  0  0  0  0  0  0
   -0.5100    2.6290    0.6780 C   0  0  0  0  0  0  0  0  0  0  0  0
   -2.4010    1.3920   -0.2920 C   0  0  0  0  0  0  0  0  0  0  0  0
   -2.9470    2.5670   -0.5870 C   0  0  0  0  0  0  0  0  0  0  0  0
   -4.2390    2.7430   -1.2020 C   0  0  0  0  0  0  0  0  0  0  0  0
   -4.8120    3.8410   -1.5320 C   0  0  0  0  0  0  0  0  0  0  0  0
   -4.3070    5.1820   -1.3680 C   0  0  0  0  0  0  0  0  0  0  0  0
   -5.1470    6.3570   -1.8510 C   0  0  0  0  0  0  0  0  0  0  0  0
   -3.2120    5.4280   -0.8470 O   0  0  0  0  0  0  0  0  0  0  0  0
   -2.9620    0.1820   -0.6260 C   0  0  0  0  0  0  0  0  0  0  0  0
   -2.3480   -1.0210   -0.3980 C   0  0  0  0  0  0  0  0  0  0  0  0
   -2.9760   -2.2880   -0.7170 C   0  0  0  0  0  0  0  0  0  0  0  0
   -2.7140   -2.8440   -1.8010 O   0  0  0  0  0  0  0  0  0  0  0  0
   -3.9000   -2.9410    0.1700 N   0  0  0  0  0  0  0  0  0  0  0  0
   -4.2430   -2.2540    1.4480 C   0  0  0  0  0  0  0  0  0  0  0  0
   -4.5300   -4.1230   -0.0710 C   0  0  0  0  0  0  0  0  0  0  0  0
   -4.3210   -5.0060   -1.2500 C   0  0  0  0  0  0  0  0  0  0  0  0
   -5.4050   -4.5670    0.7640 O   0  0  0  0  0  0  0  0  0  0  0  0
   -1.0580   -1.0920    0.2170 C   0  0  0  0  0  0  0  0  0  0  0  0
   -0.7200   -2.2930    0.6260 C   0  0  0  0  0  0  0  0  0  0  0  0
    0.3260   -2.5700    1.5390 N   0  0  0  0  0  0  0  0  0  0  0  0
    0.0490   -2.6610    2.8480 C   0  0  0  0  0  0  0  0  0  0  0  0
    1.1110   -2.9320    3.6560 O   0  0  0  0  0  0  0  0  0  0  0  0
  1  2  1  0
  2  3  1  0
  3  4  1  0
  4  5  1  0
  4  7  1  0
  5  6  1  0
  7  8  1  1
  7  9  1  0
  9 10  1  0
 10 11  1  0
 11 12  1  0
 12 13  2  0
 12 31  1  0
 13 14  1  0
 13 15  1  0
 15 16  2  3
 15 22  1  0
 16 17  1  0
 17 18  2  3
 18 19  1  0
 19 20  1  0
 19 21  2  0
 22 23  2  0
 23 24  1  0
 23 31  1  0
 24 25  2  0
 24 26  1  0
 26 27  1  0
 26 28  1  0
 28 29  1  0
 28 30  2  0
 31 32  2  3
 32 33  1  0
 33 34  2  3
 34 35  1  0
M  END
