
     RDKit          3D

 39 41  0  0  0  0  0  0  0  0999 V2000
   -7.3820   -2.8390    1.2400 C   0  0  0  0  0  0  0  0  0  0  0  0
   -6.8580   -1.4510    1.0720 C   0  0  0  0  0  0  0  0  0  0  0  0
   -7.3560   -0.4980    1.7210 O   0  0  0  0  0  0  0  0  0  0  0  0
   -5.7940   -1.1390    0.1890 N   0  0  0  0  0  0  0  0  0  0  0  0
   -5.3260    0.1850    0.0580 C   0  0  1  0  0  0  0  0  0  0  0  0
   -3.8800    0.4040    0.4280 C   0  0  1  0  0  0  0  0  0  0  0  0
   -3.1520    0.0010   -0.6900 O   0  0  0  0  0  0  0  0  0  0  0  0
   -2.0970   -1.1170   -0.5830 P   0  0  0  0  0  0  0  0  0  0  0  0
   -1.8820   -1.1950   -2.2010 O   0  0  0  0  0  0  0  0  0  0  0  0
   -1.1660   -0.0300    0.2880 O   0  0  0  0  0  0  0  0  0  0  0  0
   -0.9890   -2.1610   -0.3260 O   0  0  0  0  0  0  0  0  0  0  0  0
    0.5060   -1.9800   -1.0140 P   0  0  0  0  0  0  0  0  0  0  0  0
    0.6500   -1.4520   -2.5420 O   0  0  0  0  0  0  0  0  0  0  0  0
    0.5810   -3.4760   -1.2860 O   0  0  0  0  0  0  0  0  0  0  0  0
    1.8760   -2.0810   -0.0390 O   0  0  0  0  0  0  0  0  0  0  0  0
    2.8800   -1.4420   -0.7160 C   0  0  0  0  0  0  0  0  0  0  0  0
    4.1230   -1.5150    0.1380 C   0  0  1  0  0  0  0  0  0  0  0  0
    5.2070   -0.8890   -0.4750 O   0  0  0  0  0  0  0  0  0  0  0  0
    6.0820   -0.6830    0.6120 C   0  0  1  0  0  0  0  0  0  0  0  0
    7.2530    0.0530    0.2540 N   0  0  0  0  0  0  0  0  0  0  0  0
    8.4550   -0.4370    0.6340 C   0  0  0  0  0  0  0  0  0  0  0  0
    9.6290    0.1980    0.3370 C   0  0  0  0  0  0  0  0  0  0  0  0
    9.5290    1.3860   -0.3840 C   0  0  0  0  0  0  0  0  0  0  0  0
   10.5880    1.9980   -0.6760 O   0  0  0  0  0  0  0  0  0  0  0  0
    8.3350    1.8570   -0.7520 N   0  0  0  0  0  0  0  0  0  0  0  0
    7.2060    1.1900   -0.4320 C   0  0  0  0  0  0  0  0  0  0  0  0
    6.0800    1.6490   -0.7880 O   0  0  0  0  0  0  0  0  0  0  0  0
    5.1670    0.0530    1.5640 C   0  0  2  0  0  0  0  0  0  0  0  0
    5.6250   -0.0420    2.8840 O   0  0  0  0  0  0  0  0  0  0  0  0
    3.8760   -0.7210    1.4210 C   0  0  2  0  0  0  0  0  0  0  0  0
    3.7020   -1.6180    2.4470 O   0  0  0  0  0  0  0  0  0  0  0  0
   -3.6900    1.7300    0.6540 O   0  0  0  0  0  0  0  0  0  0  0  0
   -4.2730    2.6470   -0.1370 C   0  0  2  0  0  0  0  0  0  0  0  0
   -5.0000    3.6430    0.7810 C   0  0  0  0  0  0  0  0  0  0  0  0
   -5.6360    4.6320    0.0460 O   0  0  0  0  0  0  0  0  0  0  0  0
   -5.1370    2.2210   -1.2480 C   0  0  1  0  0  0  0  0  0  0  0  0
   -4.6510    2.6470   -2.5080 O   0  0  0  0  0  0  0  0  0  0  0  0
   -5.4640    0.7660   -1.3340 C   0  0  2  0  0  0  0  0  0  0  0  0
   -6.7420    0.5460   -1.8430 O   0  0  0  0  0  0  0  0  0  0  0  0
  1  2  1  0
  2  3  2  0
  2  4  1  0
  5  4  1  6
  5  6  1  0
  5 38  1  0
  6  7  1  6
  6 32  1  0
  7  8  1  0
  8  9  1  0
  8 10  1  0
  8 11  1  0
 11 12  1  0
 12 13  1  0
 12 14  1  0
 12 15  1  0
 15 16  1  0
 17 16  1  6
 17 18  1  0
 17 30  1  0
 18 19  1  0
 19 20  1  6
 19 28  1  0
 20 21  1  0
 20 26  1  0
 21 22  2  0
 22 23  1  0
 23 24  2  0
 23 25  1  0
 25 26  1  0
 26 27  2  0
 28 29  1  1
 28 30  1  0
 30 31  1  1
 32 33  1  0
 33 34  1  1
 33 36  1  0
 34 35  1  0
 36 37  1  6
 36 38  1  0
 38 39  1  1
M  END
