
     RDKit          3D

 35 35  0  0  0  0  0  0  0  0999 V2000
    2.5180   -3.3540   -3.1710 C   0  0  0  0  0  0  0  0  0  0  0  0
    3.4480   -2.5140   -3.4430 C   0  0  0  0  0  0  0  0  0  0  0  0
    3.6370   -1.1060   -3.1240 C   0  0  0  0  0  0  0  0  0  0  0  0
    4.8000   -0.5950   -3.5790 C   0  0  0  0  0  0  0  0  0  0  0  0
    5.8450   -1.2600   -4.3240 C   0  0  0  0  0  0  0  0  0  0  0  0
    2.6470   -0.3660   -2.4320 C   0  0  0  0  0  0  0  0  0  0  0  0
    1.6190   -1.3030   -2.1730 O   0  0  0  0  0  0  0  0  0  0  0  0
    2.1830    0.8010   -1.8780 N   0  0  0  0  0  0  0  0  0  0  0  0
    2.7870    2.0490   -1.7720 C   0  0  0  0  0  0  0  0  0  0  0  0
    2.6590    2.6630   -0.6340 O   0  0  0  0  0  0  0  0  0  0  0  0
    3.5490    2.7670   -2.8220 C   0  0  0  0  0  0  0  0  0  0  0  0
    3.4810    2.2630   -4.0310 C   0  0  0  0  0  0  0  0  0  0  0  0
    4.3770    3.9380   -2.5570 C   0  0  0  0  0  0  0  0  0  0  0  0
    5.0670    4.4660   -3.5960 O   0  0  0  0  0  0  0  0  0  0  0  0
    0.8750    0.6830   -1.0850 C   0  0  1  0  0  0  0  0  0  0  0  0
   -0.1450    0.6440   -2.1250 C   0  0  0  0  0  0  0  0  0  0  0  0
   -1.5720    0.4470   -1.8520 C   0  0  0  0  0  0  0  0  0  0  0  0
   -1.8950   -0.9550   -1.3590 C   0  0  0  0  0  0  0  0  0  0  0  0
    1.0400   -0.0960    0.0850 C   0  0  0  0  0  0  0  0  0  0  0  0
   -0.1590   -0.2980    0.9210 N   0  0  0  0  0  0  0  0  0  0  0  0
   -0.9500    0.6580    1.4160 C   0  0  0  0  0  0  0  0  0  0  0  0
   -0.6410    1.9240    1.0370 O   0  0  0  0  0  0  0  0  0  0  0  0
   -2.0900    0.6270    2.3010 C   0  0  0  0  0  0  0  0  0  0  0  0
   -2.8310    1.8240    2.5140 C   0  0  0  0  0  0  0  0  0  0  0  0
   -3.8930    1.6730    3.3470 C   0  0  0  0  0  0  0  0  0  0  0  0
   -4.2650    0.6180    3.9240 C   0  0  0  0  0  0  0  0  0  0  0  0
   -3.5060   -0.9430    3.8090 C   0  0  0  0  0  0  0  0  0  0  0  0
   -4.3770   -1.4190    4.6360 C   0  0  0  0  0  0  0  0  0  0  0  0
   -4.6590   -2.7780    4.3580 O   0  0  0  0  0  0  0  0  0  0  0  0
   -5.1980   -1.1250    5.7350 N   0  0  0  0  0  0  0  0  0  0  0  0
   -6.0400   -2.0670    6.2380 O   0  0  0  0  0  0  0  0  0  0  0  0
   -7.3000   -1.8400    5.7050 C   0  0  0  0  0  0  0  0  0  0  0  0
   -2.5810   -0.3610    2.9520 C   0  0  0  0  0  0  0  0  0  0  0  0
   -1.7550   -1.6410    2.7540 O   0  0  0  0  0  0  0  0  0  0  0  0
   -0.8080   -1.7710    3.8330 C   0  0  0  0  0  0  0  0  0  0  0  0
  1  2  2  0
  2  3  1  0
  3  4  2  3
  3  6  1  0
  4  5  1  0
  6  7  2  0
  6  8  1  0
  8  9  1  0
  8 15  1  0
  9 10  2  0
  9 11  1  0
 11 12  2  0
 11 13  1  0
 13 14  1  0
 15 16  1  6
 15 19  1  0
 16 17  1  0
 17 18  1  0
 19 20  1  0
 20 21  1  0
 21 22  2  0
 21 23  1  0
 23 24  2  0
 23 33  1  0
 24 25  1  0
 25 26  2  0
 26 27  1  0
 27 28  1  0
 27 33  2  0
 28 29  2  0
 28 30  1  0
 30 31  1  0
 31 32  1  0
 33 34  1  0
 34 35  1  0
M  END
