
     RDKit          3D

 34 34  0  0  0  0  0  0  0  0999 V2000
    7.1360   -3.0180    2.0930 C   0  0  0  0  0  0  0  0  0  0  0  0
    5.9020   -2.7140    1.2360 C   0  0  0  0  0  0  0  0  0  0  0  0
    4.8410   -3.5170    1.6560 O   0  0  0  0  0  0  0  0  0  0  0  0
    3.4790   -3.1340    0.6560 P   0  0  0  0  0  0  0  0  0  0  0  0
    3.9150   -3.5420   -0.9860 O   0  0  0  0  0  0  0  0  0  0  0  0
    4.3650   -2.4110   -1.6650 C   0  0  0  0  0  0  0  0  0  0  0  0
    3.0510   -1.4890    0.6960 O   0  0  0  0  0  0  0  0  0  0  0  0
    1.6440   -1.2880    0.7350 C   0  0  0  0  0  0  0  0  0  0  0  0
    1.4750    0.2200    0.7660 C   0  0  1  0  0  0  0  0  0  0  0  0
    2.1130    0.7070   -0.5000 C   0  0  0  0  0  0  0  0  0  0  0  0
    0.1800    0.7540    1.1810 C   0  0  1  0  0  0  0  0  0  0  0  0
    0.0070    0.1510    2.6260 C   0  0  0  0  0  0  0  0  0  0  0  0
    0.3610    2.2180    1.4660 C   0  0  0  0  0  0  0  0  0  0  0  0
    0.6950    2.5040    2.7110 O   0  0  0  0  0  0  0  0  0  0  0  0
    0.2480    3.3470    0.6800 N   0  0  0  0  0  0  0  0  0  0  0  0
    0.9170    3.8810   -0.4560 C   0  0  0  0  0  0  0  0  0  0  0  0
    0.1010    3.8380   -1.7550 C   0  0  0  0  0  0  0  0  0  0  0  0
   -0.9750    4.8420   -1.7920 C   0  0  0  0  0  0  0  0  0  0  0  0
   -2.3550    4.4490   -1.4900 C   0  0  0  0  0  0  0  0  0  0  0  0
   -2.6050    3.0560   -1.0150 C   0  0  0  0  0  0  0  0  0  0  0  0
   -3.0610    3.1070    0.3780 N   0  0  0  0  0  0  0  0  0  0  0  0
   -4.0020    4.1760    0.6830 C   0  0  0  0  0  0  0  0  0  0  0  0
   -2.6060    2.1840    1.3480 C   0  0  0  0  0  0  0  0  0  0  0  0
   -2.5380    2.6540    2.5380 O   0  0  0  0  0  0  0  0  0  0  0  0
   -2.2260    0.7910    1.1030 C   0  0  0  0  0  0  0  0  0  0  0  0
   -0.9990    0.4910    0.4980 N   0  0  0  0  0  0  0  0  0  0  0  0
   -1.1400   -0.3780   -0.5620 C   0  0  0  0  0  0  0  0  0  0  0  0
   -1.5450   -1.8010   -0.4280 C   0  0  2  0  0  0  0  0  0  0  0  0
   -1.5660   -2.4550   -1.8260 C   0  0  0  0  0  0  0  0  0  0  0  0
   -2.5270   -1.7870   -2.7430 C   0  0  0  0  0  0  0  0  0  0  0  0
   -2.9070   -2.0740    0.1460 C   0  0  0  0  0  0  0  0  0  0  0  0
   -3.1520   -3.5910    0.1720 C   0  0  0  0  0  0  0  0  0  0  0  0
   -2.1490   -4.3440    0.9840 C   0  0  0  0  0  0  0  0  0  0  0  0
   -2.5390   -5.7040    0.9160 O   0  0  0  0  0  0  0  0  0  0  0  0
  1  2  1  0
  2  3  1  0
  3  4  1  0
  4  5  1  0
  4  7  1  0
  5  6  1  0
  7  8  1  0
  8  9  1  0
  9 10  1  6
  9 11  1  0
 11 12  1  1
 11 13  1  0
 11 26  1  0
 13 14  2  0
 13 15  1  0
 15 16  1  0
 16 17  1  0
 17 18  1  0
 18 19  1  0
 19 20  1  0
 20 21  1  0
 21 22  1  0
 21 23  1  0
 23 24  2  0
 23 25  1  0
 25 26  1  0
 26 27  1  0
 28 27  1  6
 28 29  1  0
 28 31  1  0
 29 30  1  0
 31 32  1  0
 32 33  1  0
 33 34  1  0
M  END
