
     RDKit          3D

 33 34  0  0  0  0  0  0  0  0999 V2000
   -0.0320   -0.9790    1.8100 N   0  0  0  0  0  0  0  0  0  0  0  0
   -0.0180   -1.1010    0.3180 C   0  0  2  0  0  0  0  0  0  0  0  0
    1.0490   -0.2420   -0.1710 C   0  0  0  0  0  0  0  0  0  0  0  0
    1.4090   -0.1810   -1.3680 O   0  0  0  0  0  0  0  0  0  0  0  0
    1.7550    0.5900    0.6920 O   0  0  0  0  0  0  0  0  0  0  0  0
    2.7910    1.4300    0.2520 C   0  0  0  0  0  0  0  0  0  0  0  0
    3.9220    0.6620   -0.3680 C   0  0  0  0  0  0  0  0  0  0  0  0
    3.8160   -0.5800   -0.4070 O   0  0  0  0  0  0  0  0  0  0  0  0
    5.0240    1.2950   -0.8680 O   0  0  0  0  0  0  0  0  0  0  0  0
    6.0930    0.6150   -1.4450 C   0  0  0  0  0  0  0  0  0  0  0  0
    6.7430   -0.2820   -0.4330 C   0  0  0  0  0  0  0  0  0  0  0  0
    7.8260   -0.9820   -0.9750 O   0  0  0  0  0  0  0  0  0  0  0  0
    8.3510   -1.7460   -0.0430 O   0  0  0  0  0  0  0  0  0  0  0  0
    9.6710   -1.5530    0.0070 O   0  0  0  0  0  0  0  0  0  0  0  0
   -1.4080   -0.8340   -0.0830 C   0  0  1  0  0  0  0  0  0  0  0  0
   -2.1760   -1.8370    0.6090 O   0  0  0  0  0  0  0  0  0  0  0  0
   -1.9690    0.4530    0.5360 C   0  0  0  0  0  0  0  0  0  0  0  0
   -3.4050    0.3000    0.5720 N   0  0  0  0  0  0  0  0  0  0  0  0
   -4.2700    0.8570    1.5790 C   0  0  0  0  0  0  0  0  0  0  0  0
   -4.7760    2.2160    1.2680 C   0  0  0  0  0  0  0  0  0  0  0  0
   -5.6040    2.6630    2.3160 O   0  0  0  0  0  0  0  0  0  0  0  0
   -6.7650    2.0860    2.7420 C   0  0  0  0  0  0  0  0  0  0  0  0
   -7.1840    1.0520    2.1770 O   0  0  0  0  0  0  0  0  0  0  0  0
   -7.5300    2.5980    3.8010 O   0  0  0  0  0  0  0  0  0  0  0  0
   -3.9850   -0.4600   -0.4770 C   0  0  0  0  0  0  0  0  0  0  0  0
   -5.1570   -0.9170   -0.3320 O   0  0  0  0  0  0  0  0  0  0  0  0
   -3.2470   -0.6760   -1.6280 O   0  0  0  0  0  0  0  0  0  0  0  0
   -1.8290   -0.9580   -1.4890 C   0  0  2  0  0  0  0  0  0  0  0  0
   -1.6960   -2.3770   -2.0040 C   0  0  0  0  0  0  0  0  0  0  0  0
   -0.6120   -2.2700   -3.0250 C   0  0  0  0  0  0  0  0  0  0  0  0
   -0.6990   -0.9550   -3.4830 O   0  0  0  0  0  0  0  0  0  0  0  0
   -1.1930   -0.1340   -2.4990 C   0  0  0  0  0  0  0  0  0  0  0  0
   -1.0840    1.1130   -2.5260 O   0  0  0  0  0  0  0  0  0  0  0  0
  2  1  1  1
  2  3  1  0
  2 15  1  0
  3  4  2  0
  3  5  1  0
  5  6  1  0
  6  7  1  0
  7  8  2  0
  7  9  1  0
  9 10  1  0
 10 11  1  0
 11 12  1  0
 12 13  1  0
 13 14  1  0
 15 16  1  1
 15 17  1  0
 15 28  1  0
 17 18  1  0
 18 19  1  0
 18 25  1  0
 19 20  1  0
 20 21  1  0
 21 22  1  0
 22 23  2  0
 22 24  1  0
 25 26  2  0
 25 27  1  0
 27 28  1  0
 28 29  1  6
 28 32  1  0
 29 30  1  0
 30 31  1  0
 31 32  1  0
 32 33  2  0
M  END
