
     RDKit          3D

 33 35  0  0  0  0  0  0  0  0999 V2000
   -4.3160    0.2600   -0.9720 C   0  0  0  0  0  0  0  0  0  0  0  0
   -4.0580   -1.1020   -0.3650 C   0  0  1  0  0  0  0  0  0  0  0  0
   -2.9740   -1.7720   -0.9670 O   0  0  0  0  0  0  0  0  0  0  0  0
   -1.6150   -1.5970   -0.9350 C   0  0  0  0  0  0  0  0  0  0  0  0
   -0.9670   -2.4110   -1.6100 O   0  0  0  0  0  0  0  0  0  0  0  0
   -0.8460   -0.5680   -0.2010 C   0  0  1  0  0  0  0  0  0  0  0  0
    0.5390   -1.1090    0.0720 C   0  0  0  0  0  0  0  0  0  0  0  0
    1.0290   -1.6680   -1.1210 O   0  0  0  0  0  0  0  0  0  0  0  0
    2.3640   -1.8640   -1.4060 C   0  0  0  0  0  0  0  0  0  0  0  0
    2.6210   -2.8140   -2.1910 O   0  0  0  0  0  0  0  0  0  0  0  0
    3.4520   -1.0170   -0.8330 C   0  0  2  0  0  0  0  0  0  0  0  0
    3.3910    0.3940   -1.3470 C   0  0  0  0  0  0  0  0  0  0  0  0
    3.3640    1.3180   -0.2100 N   0  0  0  0  0  0  0  0  0  0  0  0
    2.9250    2.6670   -0.2800 C   0  0  0  0  0  0  0  0  0  0  0  0
    3.7530    3.5440    0.1850 O   0  0  0  0  0  0  0  0  0  0  0  0
    1.7020    3.1320   -0.7940 N   0  0  0  0  0  0  0  0  0  0  0  0
    0.3700    2.7560   -0.4360 C   0  0  2  0  0  0  0  0  0  0  0  0
    0.1730    2.5080    1.0630 C   0  0  0  0  0  0  0  0  0  0  0  0
    0.4830    3.7090    1.7460 O   0  0  0  0  0  0  0  0  0  0  0  0
   -0.1930    1.6460   -1.2570 C   0  0  0  0  0  0  0  0  0  0  0  0
    0.1200    1.7430   -2.4980 O   0  0  0  0  0  0  0  0  0  0  0  0
   -0.9320    0.6950   -0.6900 O   0  0  0  0  0  0  0  0  0  0  0  0
    4.7810   -1.6420   -1.2050 C   0  0  0  0  0  0  0  0  0  0  0  0
    5.5430   -1.6620   -0.0420 O   0  0  0  0  0  0  0  0  0  0  0  0
    4.5480   -1.8750    0.9230 C   0  0  0  0  0  0  0  0  0  0  0  0
    3.4950   -1.0760    0.5530 O   0  0  0  0  0  0  0  0  0  0  0  0
   -1.5150   -0.5400    1.1940 C   0  0  0  0  0  0  0  0  0  0  0  0
   -2.7270    0.1020    1.1410 O   0  0  0  0  0  0  0  0  0  0  0  0
   -3.7170   -0.8920    1.0940 C   0  0  1  0  0  0  0  0  0  0  0  0
   -4.8670   -0.4980    1.7480 O   0  0  0  0  0  0  0  0  0  0  0  0
   -5.1590   -1.3640    2.6890 O   0  0  0  0  0  0  0  0  0  0  0  0
   -6.3150   -1.9110    2.4690 O   0  0  0  0  0  0  0  0  0  0  0  0
   -7.1510   -1.1060    1.8700 O   0  0  0  0  0  0  0  0  0  0  0  0
  2  1  1  6
  2  3  1  0
  2 29  1  0
  3  4  1  0
  4  5  2  0
  4  6  1  0
  6  7  1  1
  6 22  1  0
  6 27  1  0
  7  8  1  0
  8  9  1  0
  9 10  2  0
  9 11  1  0
 11 12  1  1
 11 23  1  0
 11 26  1  0
 12 13  1  0
 13 14  1  0
 14 15  2  0
 14 16  1  0
 16 17  1  0
 17 18  1  1
 17 20  1  0
 18 19  1  0
 20 21  2  0
 20 22  1  0
 23 24  1  0
 24 25  1  0
 25 26  1  0
 27 28  1  0
 28 29  1  0
 29 30  1  1
 30 31  1  0
 31 32  1  0
 32 33  1  0
M  END
