
     RDKit          3D

 34 34  0  0  0  0  0  0  0  0999 V2000
    9.3660    0.6380   -3.7170 C   0  0  0  0  0  0  0  0  0  0  0  0
    8.8870    1.2100   -2.4260 C   0  0  0  0  0  0  0  0  0  0  0  0
    9.0930    0.3670   -1.3410 O   0  0  0  0  0  0  0  0  0  0  0  0
    8.5590    0.9890    0.1400 P   0  0  0  0  0  0  0  0  0  0  0  0
    9.6610    0.5880    1.5660 C   0  0  0  0  0  0  0  0  0  0  0  0
    6.8310    0.6400    0.5380 C   0  0  0  0  0  0  0  0  0  0  0  0
    6.5610   -0.1470    1.6370 C   0  0  0  0  0  0  0  0  0  0  0  0
    5.2540   -0.4400    1.9790 C   0  0  0  0  0  0  0  0  0  0  0  0
    4.1750    0.0250    1.2600 C   0  0  0  0  0  0  0  0  0  0  0  0
    2.8380   -0.3320    1.6930 C   0  0  0  0  0  0  0  0  0  0  0  0
    2.6700   -1.0240    2.7360 O   0  0  0  0  0  0  0  0  0  0  0  0
    1.6910    0.0590    1.0010 N   0  0  0  0  0  0  0  0  0  0  0  0
    0.3350   -0.2700    1.3910 C   0  0  1  0  0  0  0  0  0  0  0  0
   -0.3650    1.0610    1.5790 C   0  0  0  0  0  0  0  0  0  0  0  0
   -0.4050   -1.0190    0.3080 C   0  0  0  0  0  0  0  0  0  0  0  0
   -1.7740   -1.3120    0.8170 C   0  0  0  0  0  0  0  0  0  0  0  0
   -2.6520   -2.0900   -0.1770 C   0  0  1  0  0  0  0  0  0  0  0  0
   -2.8730   -1.3660   -1.4400 C   0  0  0  0  0  0  0  0  0  0  0  0
   -3.4950   -0.0950   -1.2120 N   0  0  0  0  0  0  0  0  0  0  0  0
   -2.7960    1.1560   -1.0510 C   0  0  0  0  0  0  0  0  0  0  0  0
   -4.9320   -0.0570   -1.1750 C   0  0  0  0  0  0  0  0  0  0  0  0
   -5.6590   -1.0620   -1.3350 O   0  0  0  0  0  0  0  0  0  0  0  0
   -5.5760    1.1460   -0.9510 O   0  0  0  0  0  0  0  0  0  0  0  0
   -6.9870    1.2090   -0.9100 C   0  0  0  0  0  0  0  0  0  0  0  0
   -7.3780    2.6440   -0.6500 C   0  0  1  0  0  0  0  0  0  0  0  0
   -8.8670    2.8180   -0.5880 C   0  0  0  0  0  0  0  0  0  0  0  0
   -6.7050    3.0780    0.6480 C   0  0  0  0  0  0  0  0  0  0  0  0
   -2.0660   -3.3640   -0.3280 O   0  0  0  0  0  0  0  0  0  0  0  0
   -2.7060   -4.3580    0.3500 C   0  0  0  0  0  0  0  0  0  0  0  0
   -4.0710   -4.7060    0.0030 C   0  0  0  0  0  0  0  0  0  0  0  0
   -4.7910   -4.1400   -1.0520 N   0  0  0  0  0  0  0  0  0  0  0  0
   -4.7220   -5.5980    0.6770 O   0  0  0  0  0  0  0  0  0  0  0  0
    4.4490    0.8080    0.1660 C   0  0  0  0  0  0  0  0  0  0  0  0
    5.7680    1.1160   -0.1960 C   0  0  0  0  0  0  0  0  0  0  0  0
  1  2  1  0
  2  3  1  0
  3  4  1  0
  4  5  1  0
  4  6  1  0
  6  7  2  0
  6 34  1  0
  7  8  1  0
  8  9  2  0
  9 10  1  0
  9 33  1  0
 10 11  2  0
 10 12  1  0
 12 13  1  0
 13 14  1  6
 13 15  1  0
 15 16  1  0
 17 16  1  1
 17 18  1  0
 17 28  1  0
 18 19  1  0
 19 20  1  0
 19 21  1  0
 21 22  2  0
 21 23  1  0
 23 24  1  0
 24 25  1  0
 25 26  1  1
 25 27  1  0
 28 29  1  0
 29 30  1  0
 30 31  1  0
 30 32  2  0
 33 34  2  0
M  END
