
     RDKit          3D

 32 34  0  0  0  0  0  0  0  0999 V2000
    7.0030    2.9020   -2.0300 C   0  0  0  0  0  0  0  0  0  0  0  0
    6.6020    2.3040   -0.7720 N   0  0  0  0  0  0  0  0  0  0  0  0
    5.3540    1.6200   -0.6710 C   0  0  0  0  0  0  0  0  0  0  0  0
    4.6510    1.5790   -1.7280 O   0  0  0  0  0  0  0  0  0  0  0  0
    4.9400    1.0260    0.5490 N   0  0  0  0  0  0  0  0  0  0  0  0
    3.6930    0.3600    0.5930 N   0  0  0  0  0  0  0  0  0  0  0  0
    3.4120   -0.6680   -0.3110 C   0  0  0  0  0  0  0  0  0  0  0  0
    4.3370   -0.9740   -1.1550 O   0  0  0  0  0  0  0  0  0  0  0  0
    2.1960   -1.4560   -0.4250 C   0  0  0  0  0  0  0  0  0  0  0  0
    2.2900   -2.7720   -0.9260 C   0  0  0  0  0  0  0  0  0  0  0  0
    1.2370   -3.6070   -1.0180 C   0  0  0  0  0  0  0  0  0  0  0  0
    1.3680   -4.8870   -1.5130 F   0  0  0  0  0  0  0  0  0  0  0  0
    0.0080   -3.1870   -0.6150 C   0  0  0  0  0  0  0  0  0  0  0  0
   -0.1910   -1.9250   -0.1110 C   0  0  0  0  0  0  0  0  0  0  0  0
   -1.4030   -1.4560    0.3220 O   0  0  0  0  0  0  0  0  0  0  0  0
   -2.5650   -2.0240    0.6590 C   0  0  0  0  0  0  0  0  0  0  0  0
   -2.7540   -3.3580    0.9170 C   0  0  0  0  0  0  0  0  0  0  0  0
   -3.9800   -3.8960    1.2510 C   0  0  0  0  0  0  0  0  0  0  0  0
   -4.1360   -5.2210    1.4970 F   0  0  0  0  0  0  0  0  0  0  0  0
   -5.0620   -3.0820    1.3360 C   0  0  0  0  0  0  0  0  0  0  0  0
   -4.9180   -1.7160    1.0850 C   0  0  0  0  0  0  0  0  0  0  0  0
   -6.0440   -0.9690    1.1880 F   0  0  0  0  0  0  0  0  0  0  0  0
   -3.7020   -1.1870    0.7520 C   0  0  0  0  0  0  0  0  0  0  0  0
   -3.5670    0.2200    0.4680 C   0  0  0  0  0  0  0  0  0  0  0  0
   -4.4950    1.1290    0.5440 C   0  0  0  0  0  0  0  0  0  0  0  0
   -4.1150    2.5280    0.1990 C   0  0  0  0  0  0  0  0  0  0  0  0
   -4.9200    3.5770    0.2180 C   0  0  0  0  0  0  0  0  0  0  0  0
   -4.1210    4.7320   -0.1910 C   0  0  0  0  0  0  0  0  0  0  0  0
   -2.9600    4.2400   -0.5280 C   0  0  0  0  0  0  0  0  0  0  0  0
   -2.7920    2.9650   -0.2150 C   0  0  0  0  0  0  0  0  0  0  0  0
    0.9430   -1.0810   -0.0350 C   0  0  0  0  0  0  0  0  0  0  0  0
    0.7240    0.3000    0.4630 C   0  0  0  0  0  0  0  0  0  0  0  0
  1  2  1  0
  2  3  1  0
  3  4  2  0
  3  5  1  0
  5  6  1  0
  6  7  1  0
  7  8  2  0
  7  9  1  0
  9 10  2  0
  9 31  1  0
 10 11  1  0
 11 12  1  0
 11 13  2  0
 13 14  1  0
 14 15  1  0
 14 31  2  0
 15 16  1  0
 16 17  2  0
 16 23  1  0
 17 18  1  0
 18 19  1  0
 18 20  2  0
 20 21  1  0
 21 22  1  0
 21 23  2  0
 23 24  1  0
 24 25  2  3
 25 26  1  0
 26 27  2  0
 26 30  1  0
 27 28  1  0
 28 29  2  0
 29 30  2  0
 31 32  1  0
M  END
