
     RDKit          3D

 32 34  0  0  0  0  0  0  0  0999 V2000
   -4.7880    0.7150   -2.0190 C   0  0  0  0  0  0  0  0  0  0  0  0
   -4.1820    1.7670   -1.2920 O   0  0  0  0  0  0  0  0  0  0  0  0
   -2.9150    1.5370   -0.7720 C   0  0  0  0  0  0  0  0  0  0  0  0
   -2.2380    0.3530   -0.9300 C   0  0  0  0  0  0  0  0  0  0  0  0
   -0.9910    0.1200   -0.4220 C   0  0  0  0  0  0  0  0  0  0  0  0
   -0.2700   -1.1660   -0.5980 C   0  0  0  0  0  0  0  0  0  0  0  0
   -1.0000   -2.1320   -1.3790 N   0  0  0  0  0  0  0  0  0  0  0  0
   -1.3750   -1.9680   -2.7440 C   0  0  0  0  0  0  0  0  0  0  0  0
   -2.0350   -3.0180   -3.1980 C   0  0  0  0  0  0  0  0  0  0  0  0
   -2.5930   -3.2310   -4.5630 C   0  0  0  0  0  0  0  0  0  0  0  0
   -2.1550   -4.0010   -2.1270 C   0  0  0  0  0  0  0  0  0  0  0  0
   -2.7230   -5.1640   -2.1450 N   0  0  0  0  0  0  0  0  0  0  0  0
   -1.4720   -3.3950   -0.9590 C   0  0  0  0  0  0  0  0  0  0  0  0
   -1.3840   -4.0080    0.1980 C   0  0  0  0  0  0  0  0  0  0  0  0
   -0.7560   -3.4250    1.2340 F   0  0  0  0  0  0  0  0  0  0  0  0
   -1.9110   -5.2370    0.3960 F   0  0  0  0  0  0  0  0  0  0  0  0
   -0.3670    1.1540    0.3060 C   0  0  0  0  0  0  0  0  0  0  0  0
    0.9180    0.9270    0.8510 N   0  0  0  0  0  0  0  0  0  0  0  0
    1.7440    1.8240    1.5490 C   0  0  0  0  0  0  0  0  0  0  0  0
    1.3510    2.9940    1.7430 O   0  0  0  0  0  0  0  0  0  0  0  0
    3.0770    1.4220    2.0670 C   0  0  0  0  0  0  0  0  0  0  0  0
    4.0300    2.3840    2.3350 C   0  0  0  0  0  0  0  0  0  0  0  0
    5.2820    2.0510    2.8320 C   0  0  0  0  0  0  0  0  0  0  0  0
    5.6020    0.7320    3.0740 C   0  0  0  0  0  0  0  0  0  0  0  0
    6.9450    0.3610    3.6080 C   0  0  0  0  0  0  0  0  0  0  0  0
    4.6650   -0.2440    2.8140 C   0  0  0  0  0  0  0  0  0  0  0  0
    4.9890   -1.5430    3.0590 F   0  0  0  0  0  0  0  0  0  0  0  0
    3.4270    0.1200    2.3180 C   0  0  0  0  0  0  0  0  0  0  0  0
   -1.0540    2.3270    0.4560 C   0  0  0  0  0  0  0  0  0  0  0  0
   -2.3180    2.5570   -0.0630 C   0  0  0  0  0  0  0  0  0  0  0  0
   -2.9160    3.7720    0.1460 O   0  0  0  0  0  0  0  0  0  0  0  0
   -2.2680    4.7750    0.8780 C   0  0  0  0  0  0  0  0  0  0  0  0
  1  2  1  0
  2  3  1  0
  3  4  2  0
  3 30  1  0
  4  5  1  0
  5  6  1  0
  5 17  2  0
  6  7  1  0
  7  8  1  0
  7 13  1  0
  8  9  2  0
  9 10  1  0
  9 11  1  0
 11 12  2  0
 11 13  1  0
 13 14  2  3
 14 15  1  0
 14 16  1  0
 17 18  1  0
 17 29  1  0
 18 19  1  0
 19 20  2  0
 19 21  1  0
 21 22  2  0
 21 28  1  0
 22 23  1  0
 23 24  2  0
 24 25  1  0
 24 26  1  0
 26 27  1  0
 26 28  2  0
 29 30  2  0
 30 31  1  0
 31 32  1  0
M  END
