
     RDKit          3D

 33 37  0  0  0  0  0  0  0  0999 V2000
   -4.9870    3.4410    1.4280 C   0  0  0  0  0  0  0  0  0  0  0  0
   -5.1070    2.9700   -0.0270 C   0  0  0  0  0  0  0  0  0  0  0  0
   -4.3460    1.5760   -0.4400 S   0  0  0  0  0  0  0  0  0  0  0  0
   -5.1510    1.3190   -1.6230 O   0  0  0  0  0  0  0  0  0  0  0  0
   -4.5030    0.1070    0.2130 C   0  0  0  0  0  0  0  0  0  0  0  0
   -3.4420   -0.8590   -0.3990 C   0  0  0  0  0  0  0  0  0  0  0  0
   -2.1280   -0.1920   -0.5690 C   0  0  2  0  0  0  0  0  0  0  0  0
   -1.0100   -1.0960   -0.4570 N   0  0  0  0  0  0  0  0  0  0  0  0
    0.2810   -0.6040   -0.3970 C   0  0  0  0  0  0  0  0  0  0  0  0
    0.7530    0.7140   -0.6000 N   0  0  0  0  0  0  0  0  0  0  0  0
    2.1370    0.9790   -0.3990 C   0  0  0  0  0  0  0  0  0  0  0  0
    2.6600    2.2020   -0.5720 N   0  0  0  0  0  0  0  0  0  0  0  0
    3.9610    2.4780   -0.3900 C   0  0  0  0  0  0  0  0  0  0  0  0
    4.5070    3.8530   -0.5910 C   0  0  0  0  0  0  0  0  0  0  0  0
    4.8200    1.4710   -0.0060 C   0  0  0  0  0  0  0  0  0  0  0  0
    4.2930    0.2190    0.1720 C   0  0  0  0  0  0  0  0  0  0  0  0
    2.9810    0.0010   -0.0250 N   0  0  0  0  0  0  0  0  0  0  0  0
    5.2180   -0.8860    0.5890 C   0  0  0  0  0  0  0  0  0  0  0  0
    6.4970   -0.6580   -0.2260 C   0  0  0  0  0  0  0  0  0  0  0  0
    7.1200    0.5990    0.3350 C   0  0  0  0  0  0  0  0  0  0  0  0
    6.2600    1.8070    0.1890 C   0  0  0  0  0  0  0  0  0  0  0  0
    1.0880   -1.6430   -0.2000 N   0  0  0  0  0  0  0  0  0  0  0  0
    0.4230   -2.7430   -0.1370 N   0  0  0  0  0  0  0  0  0  0  0  0
   -0.9150   -2.4000   -0.3050 C   0  0  0  0  0  0  0  0  0  0  0  0
   -1.8600   -3.5250   -0.2900 C   0  0  0  0  0  0  0  0  0  0  0  0
   -2.8380   -3.7440   -1.2170 C   0  0  0  0  0  0  0  0  0  0  0  0
   -3.6710   -4.7760   -1.0800 N   0  0  0  0  0  0  0  0  0  0  0  0
   -3.5710   -5.6280   -0.0250 C   0  0  0  0  0  0  0  0  0  0  0  0
   -2.6110   -5.4160    0.8870 N   0  0  0  0  0  0  0  0  0  0  0  0
   -1.7620   -4.3920    0.7770 C   0  0  0  0  0  0  0  0  0  0  0  0
   -0.6850   -4.1780    1.8250 C   0  0  0  0  0  0  0  0  0  0  0  0
   -2.0000    0.7800    0.6140 C   0  0  0  0  0  0  0  0  0  0  0  0
   -2.9770    1.9420    0.4690 C   0  0  0  0  0  0  0  0  0  0  0  0
  1  2  1  0
  2  3  1  0
  3  4  2  0
  3  5  1  0
  3 33  1  0
  5  6  1  0
  6  7  1  0
  7  8  1  1
  7 32  1  0
  8  9  1  0
  8 24  1  0
  9 10  1  0
  9 22  2  0
 10 11  1  0
 11 12  2  0
 11 17  1  0
 12 13  1  0
 13 14  1  0
 13 15  2  0
 15 16  1  0
 15 21  1  0
 16 17  2  0
 16 18  1  0
 18 19  1  0
 19 20  1  0
 20 21  1  0
 22 23  1  0
 23 24  2  0
 24 25  1  0
 25 26  2  0
 25 30  1  0
 26 27  1  0
 27 28  2  0
 28 29  1  0
 29 30  2  0
 30 31  1  0
 32 33  1  0
M  END
