
     RDKit          3D

 33 36  0  0  0  0  0  0  0  0999 V2000
    5.8540   -3.2310   -1.5810 C   0  0  0  0  0  0  0  0  0  0  0  0
    6.0230   -2.7360   -0.1790 C   0  0  0  0  0  0  0  0  0  0  0  0
    5.7560   -1.2770   -0.0760 C   0  0  0  0  0  0  0  0  0  0  0  0
    4.4550   -0.8340    0.1960 C   0  0  0  0  0  0  0  0  0  0  0  0
    4.1650    0.5000    0.2990 C   0  0  0  0  0  0  0  0  0  0  0  0
    2.7760    0.9330    0.5840 C   0  0  0  0  0  0  0  0  0  0  0  0
    1.7800    0.0790   -0.0190 N   0  0  0  0  0  0  0  0  0  0  0  0
    0.3940    0.3300    0.1520 C   0  0  0  0  0  0  0  0  0  0  0  0
   -0.0770    1.3610    0.8760 N   0  0  0  0  0  0  0  0  0  0  0  0
   -1.3780    1.6410    1.0650 C   0  0  0  0  0  0  0  0  0  0  0  0
   -1.8010    2.5720    2.1330 C   0  0  0  0  0  0  0  0  0  0  0  0
   -2.3380    0.8020    0.4540 C   0  0  0  0  0  0  0  0  0  0  0  0
   -1.8470   -0.2510   -0.2760 C   0  0  0  0  0  0  0  0  0  0  0  0
   -0.5190   -0.4700   -0.4150 N   0  0  0  0  0  0  0  0  0  0  0  0
   -2.8180   -1.1690   -0.9390 C   0  0  0  0  0  0  0  0  0  0  0  0
   -3.9880   -1.4450   -0.0020 C   0  0  2  0  0  0  0  0  0  0  0  0
   -5.0380   -2.2380   -0.6900 C   0  0  0  0  0  0  0  0  0  0  0  0
   -5.8970   -1.7580   -1.6350 N   0  0  0  0  0  0  0  0  0  0  0  0
   -6.7090   -2.7480   -2.0390 C   0  0  0  0  0  0  0  0  0  0  0  0
   -6.3770   -3.8420   -1.3690 N   0  0  0  0  0  0  0  0  0  0  0  0
   -5.3600   -3.5360   -0.5460 N   0  0  0  0  0  0  0  0  0  0  0  0
   -4.7130   -4.4690    0.3570 C   0  0  0  0  0  0  0  0  0  0  0  0
   -4.5970   -0.1920    0.3840 N   0  0  0  0  0  0  0  0  0  0  0  0
   -3.7200    0.9400    0.8080 C   0  0  0  0  0  0  0  0  0  0  0  0
   -4.3330    2.0520    0.9770 C   0  0  0  0  0  0  0  0  0  0  0  0
   -4.0380    3.4260    0.8760 C   0  0  0  0  0  0  0  0  0  0  0  0
   -4.9430    4.3880    1.1840 C   0  0  0  0  0  0  0  0  0  0  0  0
   -4.5600    6.0990    1.0540 S   0  0  0  0  0  0  0  0  0  0  0  0
    5.1720    1.3900    0.1310 N   0  0  0  0  0  0  0  0  0  0  0  0
    6.4430    1.0360   -0.1320 C   0  0  0  0  0  0  0  0  0  0  0  0
    7.4560    1.9670   -0.3000 O   0  0  0  0  0  0  0  0  0  0  0  0
    7.2130    3.3520   -0.2040 C   0  0  0  0  0  0  0  0  0  0  0  0
    6.7150   -0.3120   -0.2320 C   0  0  0  0  0  0  0  0  0  0  0  0
  1  2  1  0
  2  3  1  0
  3  4  2  0
  3 33  1  0
  4  5  1  0
  5  6  1  0
  5 29  2  0
  6  7  1  0
  7  8  1  0
  8  9  2  0
  8 14  1  0
  9 10  1  0
 10 11  1  0
 10 12  2  0
 12 13  1  0
 12 24  1  0
 13 14  2  0
 13 15  1  0
 15 16  1  0
 16 17  1  6
 16 23  1  0
 17 18  2  0
 17 21  1  0
 18 19  1  0
 19 20  2  0
 20 21  1  0
 21 22  1  0
 23 24  1  0
 24 25  2  3
 25 26  1  0
 26 27  2  3
 27 28  1  0
 29 30  1  0
 30 31  1  0
 30 33  2  0
 31 32  1  0
M  END
