
     RDKit          3D

 32 34  0  0  0  0  0  0  0  0999 V2000
    7.5230    2.7220   -0.4300 C   0  0  0  0  0  0  0  0  0  0  0  0
    7.6490    1.2520   -0.5380 C   0  0  0  0  0  0  0  0  0  0  0  0
    6.6300    0.4730   -0.5560 N   0  0  0  0  0  0  0  0  0  0  0  0
    5.3190    0.9470   -0.4750 N   0  0  0  0  0  0  0  0  0  0  0  0
    4.3720    0.4710    0.4990 C   0  0  0  0  0  0  0  0  0  0  0  0
    4.7820   -0.4080    1.2920 O   0  0  0  0  0  0  0  0  0  0  0  0
    3.0270    1.0130    0.5210 C   0  0  0  0  0  0  0  0  0  0  0  0
    2.7990    2.3900    0.6410 C   0  0  0  0  0  0  0  0  0  0  0  0
    1.5530    2.9320    0.6640 C   0  0  0  0  0  0  0  0  0  0  0  0
    0.5130    2.0890    0.5670 N   0  0  0  0  0  0  0  0  0  0  0  0
    0.6310    0.7470    0.4480 C   0  0  0  0  0  0  0  0  0  0  0  0
   -0.4920   -0.0570    0.3570 C   0  0  0  0  0  0  0  0  0  0  0  0
   -1.7850    0.5780    0.4130 C   0  0  0  0  0  0  0  0  0  0  0  0
   -2.3410    0.7380    1.5190 O   0  0  0  0  0  0  0  0  0  0  0  0
   -2.4060    1.0080   -0.7270 O   0  0  0  0  0  0  0  0  0  0  0  0
   -3.6710    1.6420   -0.7660 C   0  0  0  0  0  0  0  0  0  0  0  0
   -4.7390    0.7530   -0.2160 C   0  0  0  0  0  0  0  0  0  0  0  0
   -6.0750    1.4610   -0.2700 C   0  0  1  0  0  0  0  0  0  0  0  0
   -6.0080    2.7150    0.5560 C   0  0  0  0  0  0  0  0  0  0  0  0
   -6.3680    1.7930   -1.5780 F   0  0  0  0  0  0  0  0  0  0  0  0
   -7.0880    0.6560    0.2430 F   0  0  0  0  0  0  0  0  0  0  0  0
   -0.3770   -1.4390    0.2380 C   0  0  0  0  0  0  0  0  0  0  0  0
    0.8930   -1.9430    0.2180 C   0  0  0  0  0  0  0  0  0  0  0  0
    2.0340   -1.1430    0.3100 C   0  0  0  0  0  0  0  0  0  0  0  0
    1.9080    0.2150    0.4260 C   0  0  0  0  0  0  0  0  0  0  0  0
    1.3480   -3.3310    0.1160 C   0  0  0  0  0  0  0  0  0  0  0  0
    0.6060   -4.4010    0.0990 C   0  0  0  0  0  0  0  0  0  0  0  0
    1.2920   -5.5700   -0.0040 F   0  0  0  0  0  0  0  0  0  0  0  0
   -0.8330   -4.5300    0.1710 C   0  0  0  0  0  0  0  0  0  0  0  0
   -1.7040   -3.5470    0.1870 C   0  0  0  0  0  0  0  0  0  0  0  0
   -3.1150   -4.0840    0.2670 C   0  0  0  0  0  0  0  0  0  0  0  0
   -1.6710   -2.0950    0.1470 C   0  0  0  0  0  0  0  0  0  0  0  0
  1  2  1  0
  2  3  2  3
  3  4  1  0
  4  5  1  0
  5  6  2  0
  5  7  1  0
  7  8  2  0
  7 25  1  0
  8  9  1  0
  9 10  2  0
 10 11  1  0
 11 12  2  0
 11 25  1  0
 12 13  1  0
 12 22  1  0
 13 14  2  0
 13 15  1  0
 15 16  1  0
 16 17  1  0
 17 18  1  0
 18 19  1  1
 18 20  1  0
 18 21  1  0
 22 23  2  0
 22 32  1  0
 23 24  1  0
 23 26  1  0
 24 25  2  0
 26 27  2  0
 27 28  1  0
 27 29  1  0
 29 30  2  0
 30 31  1  0
 30 32  1  0
M  END
