
     RDKit          3D

 25 28  0  0  0  0  0  0  0  0999 V2000
   -6.4070   -0.6420   -1.8990 C   0  0  0  0  0  0  0  0  0  0  0  0
   -6.0570    0.2470   -0.7890 N   0  0  0  0  0  0  0  0  0  0  0  0
   -4.9080    0.1280   -0.2010 C   0  0  0  0  0  0  0  0  0  0  0  0
   -3.8250   -0.8130   -0.4800 C   0  0  0  0  0  0  0  0  0  0  0  0
   -2.8210   -0.5830    0.3710 C   0  0  0  0  0  0  0  0  0  0  0  0
   -1.6180   -1.3470    0.3420 N   0  0  0  0  0  0  0  0  0  0  0  0
   -0.3710   -0.6730    0.1030 C   0  0  0  0  0  0  0  0  0  0  0  0
   -0.3890    0.5540   -0.0700 O   0  0  0  0  0  0  0  0  0  0  0  0
    0.8310   -1.3830    0.0660 N   0  0  0  0  0  0  0  0  0  0  0  0
    2.1310   -0.8650   -0.1570 C   0  0  0  0  0  0  0  0  0  0  0  0
    2.4420    0.4440   -0.3780 C   0  0  0  0  0  0  0  0  0  0  0  0
    3.7200    0.9250   -0.5930 C   0  0  0  0  0  0  0  0  0  0  0  0
    4.7440    0.0150   -0.5810 C   0  0  0  0  0  0  0  0  0  0  0  0
    4.4640   -1.3270   -0.3590 C   0  0  0  0  0  0  0  0  0  0  0  0
    3.1880   -1.7820   -0.1480 C   0  0  0  0  0  0  0  0  0  0  0  0
    2.9300   -3.2430    0.0890 C   0  0  0  0  0  0  0  0  0  0  0  0
    6.0020    0.7380   -0.8280 C   0  0  0  0  0  0  0  0  0  0  0  0
    5.7010    2.1280   -0.6810 N   0  0  0  0  0  0  0  0  0  0  0  0
    4.2660    2.2650   -0.8450 C   0  0  0  0  0  0  0  0  0  0  0  0
   -3.1540    0.5090    1.2640 C   0  0  0  0  0  0  0  0  0  0  0  0
   -2.6900    1.2770    2.3230 C   0  0  0  0  0  0  0  0  0  0  0  0
   -1.3770    1.1630    3.0170 C   0  0  0  0  0  0  0  0  0  0  0  0
   -3.6830    2.1470    2.5870 N   0  0  0  0  0  0  0  0  0  0  0  0
   -4.6980    1.9500    1.7630 N   0  0  0  0  0  0  0  0  0  0  0  0
   -4.4280    0.9390    0.9120 C   0  0  0  0  0  0  0  0  0  0  0  0
  1  2  1  0
  2  3  2  3
  3  4  1  0
  3 25  1  0
  4  5  2  0
  5  6  1  0
  5 20  1  0
  6  7  1  0
  7  8  2  0
  7  9  1  0
  9 10  1  0
 10 11  2  0
 10 15  1  0
 11 12  1  0
 12 13  2  0
 12 19  1  0
 13 14  1  0
 13 17  1  0
 14 15  2  0
 15 16  1  0
 17 18  1  0
 18 19  1  0
 20 21  2  0
 20 25  1  0
 21 22  1  0
 21 23  1  0
 23 24  1  0
 24 25  2  0
M  CHG  1  24   1
M  END
