
     RDKit          3D

 26 29  0  0  0  0  0  0  0  0999 V2000
   -3.1530   -3.8540   -0.9930 C   0  0  0  0  0  0  0  0  0  0  0  0
   -2.6140   -2.5590   -0.5110 C   0  0  0  0  0  0  0  0  0  0  0  0
   -3.3240   -1.4790   -0.1240 N   0  0  0  0  0  0  0  0  0  0  0  0
   -2.4820   -0.4940    0.2460 C   0  0  0  0  0  0  0  0  0  0  0  0
   -2.9090    0.8720    0.7010 C   0  0  2  0  0  0  0  0  0  0  0  0
   -4.4120    0.9120    0.8950 C   0  0  0  0  0  0  0  0  0  0  0  0
   -5.1020    1.2340   -0.4190 C   0  0  0  0  0  0  0  0  0  0  0  0
   -4.9360    2.7400   -0.6070 C   0  0  0  0  0  0  0  0  0  0  0  0
   -3.5210    3.0690   -0.2560 C   0  0  0  0  0  0  0  0  0  0  0  0
   -2.5720    1.9030   -0.3440 C   0  0  0  0  0  0  0  0  0  0  0  0
   -1.1880   -0.9580    0.0950 C   0  0  0  0  0  0  0  0  0  0  0  0
    0.1610   -0.6560    0.2160 C   0  0  0  0  0  0  0  0  0  0  0  0
    0.6390    0.5900    0.7600 C   0  0  0  0  0  0  0  0  0  0  0  0
    1.8830    0.9700    0.6940 C   0  0  0  0  0  0  0  0  0  0  0  0
    2.9420    0.2590    0.0940 N   0  0  0  0  0  0  0  0  0  0  0  0
    4.0820   -0.2540    0.7680 C   0  0  0  0  0  0  0  0  0  0  0  0
    4.1820   -0.0770    2.0050 O   0  0  0  0  0  0  0  0  0  0  0  0
    5.1340   -0.9900    0.0150 C   0  0  0  0  0  0  0  0  0  0  0  0
    6.3900   -0.3030   -0.0670 N   0  0  0  0  0  0  0  0  0  0  0  0
    6.7540    0.5650   -1.0070 C   0  0  0  0  0  0  0  0  0  0  0  0
    8.0380    1.0220   -0.7910 C   0  0  0  0  0  0  0  0  0  0  0  0
    8.4390    0.3890    0.3310 N   0  0  0  0  0  0  0  0  0  0  0  0
    7.4570   -0.4080    0.7720 C   0  0  0  0  0  0  0  0  0  0  0  0
    0.8190   -1.7540   -0.1860 N   0  0  0  0  0  0  0  0  0  0  0  0
   -0.0300   -2.7130   -0.5440 N   0  0  0  0  0  0  0  0  0  0  0  0
   -1.2640   -2.2490   -0.3800 C   0  0  0  0  0  0  0  0  0  0  0  0
  1  2  1  0
  2  3  1  0
  2 26  2  0
  3  4  1  0
  5  4  1  6
  4 11  2  0
  5  6  1  0
  5 10  1  0
  6  7  1  0
  7  8  1  0
  8  9  1  0
  9 10  1  0
 11 12  1  0
 11 26  1  0
 12 13  1  0
 12 24  2  0
 13 14  2  3
 14 15  1  0
 15 16  1  0
 16 17  2  0
 16 18  1  0
 18 19  1  0
 19 20  1  0
 19 23  1  0
 20 21  2  0
 21 22  1  0
 22 23  2  0
 24 25  1  0
 25 26  1  0
M  CHG  1  24   1
M  END
