
     RDKit          3D

 26 29  0  0  0  0  0  0  0  0999 V2000
    4.6300    2.3720   -0.9300 C   0  0  0  0  0  0  0  0  0  0  0  0
    5.3320    1.2840   -0.6120 C   0  0  0  0  0  0  0  0  0  0  0  0
    4.6960   -0.0010   -0.3760 C   0  0  0  0  0  0  0  0  0  0  0  0
    5.4490   -1.0360   -0.0650 C   0  0  0  0  0  0  0  0  0  0  0  0
    6.9230   -0.9060    0.0450 C   0  0  0  0  0  0  0  0  0  0  0  0
    3.2840   -0.0750   -0.4930 N   0  0  0  0  0  0  0  0  0  0  0  0
    2.6270   -0.6730   -1.6650 C   0  0  0  0  0  0  0  0  0  0  0  0
    1.9470   -1.9210   -1.1700 C   0  0  0  0  0  0  0  0  0  0  0  0
    1.8730   -2.0380    0.3120 C   0  0  0  0  0  0  0  0  0  0  0  0
    1.5410   -0.7440    0.9870 C   0  0  2  0  0  0  0  0  0  0  0  0
    0.0880   -0.5010    0.8580 C   0  0  0  0  0  0  0  0  0  0  0  0
   -0.7810   -0.6360    1.8690 N   0  0  0  0  0  0  0  0  0  0  0  0
   -2.0120   -0.3470    1.4600 C   0  0  0  0  0  0  0  0  0  0  0  0
   -1.9590   -0.0080    0.1330 C   0  0  0  0  0  0  0  0  0  0  0  0
   -3.0970    0.3780   -0.7120 C   0  0  0  0  0  0  0  0  0  0  0  0
   -4.3690    0.1200   -0.0780 N   0  0  0  0  0  0  0  0  0  0  0  0
   -4.9820   -1.1000    0.3780 C   0  0  0  0  0  0  0  0  0  0  0  0
   -6.4380   -0.8610   -0.0580 C   0  0  0  0  0  0  0  0  0  0  0  0
   -6.5930    0.5880    0.2490 C   0  0  0  0  0  0  0  0  0  0  0  0
   -7.4280    1.5770    0.5350 O   0  0  0  0  0  0  0  0  0  0  0  0
   -6.7850    2.6860    0.6900 N   0  0  0  0  0  0  0  0  0  0  0  0
   -5.4850    2.4910    0.5150 C   0  0  0  0  0  0  0  0  0  0  0  0
   -4.4450    3.4570    0.6000 N   0  0  0  0  0  0  0  0  0  0  0  0
   -5.3320    1.1450    0.2290 C   0  0  0  0  0  0  0  0  0  0  0  0
   -0.6500   -0.1160   -0.1960 N   0  0  0  0  0  0  0  0  0  0  0  0
    2.3660    0.4220    0.5130 C   0  0  0  0  0  0  0  0  0  0  0  0
  1  2  2  0
  2  3  1  0
  3  4  2  3
  3  6  1  0
  4  5  1  0
  6  7  1  0
  6 26  1  0
  7  8  1  0
  8  9  1  0
  9 10  1  0
 10 11  1  6
 10 26  1  0
 11 12  1  0
 11 25  2  0
 12 13  1  0
 13 14  2  0
 14 15  1  0
 14 25  1  0
 15 16  1  0
 16 17  1  0
 16 24  1  0
 17 18  1  0
 18 19  1  0
 19 20  1  0
 19 24  2  0
 20 21  1  0
 21 22  2  0
 22 23  1  0
 22 24  1  0
M  CHG  1  25   1
M  END
