
     RDKit          3D

 26 29  0  0  0  0  0  0  0  0999 V2000
    6.6710    2.6260    0.0530 C   0  0  0  0  0  0  0  0  0  0  0  0
    6.2890    1.3000    0.2590 O   0  0  0  0  0  0  0  0  0  0  0  0
    4.9760    0.8600    0.2590 C   0  0  0  0  0  0  0  0  0  0  0  0
    3.9520    1.7430    0.0500 C   0  0  0  0  0  0  0  0  0  0  0  0
    2.6410    1.3150    0.0480 C   0  0  0  0  0  0  0  0  0  0  0  0
    2.2870   -0.0250    0.2580 C   0  0  0  0  0  0  0  0  0  0  0  0
    0.8920   -0.4310    0.2790 C   0  0  0  0  0  0  0  0  0  0  0  0
   -0.0750    0.1340    1.0220 N   0  0  0  0  0  0  0  0  0  0  0  0
   -1.2350   -0.4550    0.7990 N   0  0  0  0  0  0  0  0  0  0  0  0
   -2.5320   -0.1810    1.3690 C   0  0  0  0  0  0  0  0  0  0  0  0
   -3.3330    0.8250    0.6140 C   0  0  1  0  0  0  0  0  0  0  0  0
   -3.6070    0.3940   -0.8070 C   0  0  0  0  0  0  0  0  0  0  0  0
   -4.6860    1.2470   -1.4460 C   0  0  0  0  0  0  0  0  0  0  0  0
   -5.9280    1.0820   -0.7580 N   0  0  0  0  0  0  0  0  0  0  0  0
   -5.8110    0.4540    0.5380 C   0  0  0  0  0  0  0  0  0  0  0  0
   -4.6550    1.0300    1.3100 C   0  0  0  0  0  0  0  0  0  0  0  0
   -1.0200   -1.4350   -0.1190 C   0  0  0  0  0  0  0  0  0  0  0  0
   -1.8460   -2.3150   -0.6910 N   0  0  0  0  0  0  0  0  0  0  0  0
   -1.4310   -3.2090   -1.5940 C   0  0  0  0  0  0  0  0  0  0  0  0
   -0.1310   -3.2070   -1.9260 N   0  0  0  0  0  0  0  0  0  0  0  0
    0.7460   -2.3510   -1.3870 C   0  0  0  0  0  0  0  0  0  0  0  0
    2.1010   -2.3740   -1.7860 N   0  0  0  0  0  0  0  0  0  0  0  0
    0.3270   -1.4300   -0.4580 C   0  0  0  0  0  0  0  0  0  0  0  0
    3.3240   -0.9050    0.4680 C   0  0  0  0  0  0  0  0  0  0  0  0
    4.6480   -0.4600    0.4670 C   0  0  0  0  0  0  0  0  0  0  0  0
    5.7500   -1.4230    0.6950 C   0  0  0  0  0  0  0  0  0  0  0  0
  1  2  1  0
  2  3  1  0
  3  4  2  0
  3 25  1  0
  4  5  1  0
  5  6  2  0
  6  7  1  0
  6 24  1  0
  7  8  2  0
  7 23  1  0
  8  9  1  0
  9 10  1  0
  9 17  1  0
 11 10  1  1
 11 12  1  0
 11 16  1  0
 12 13  1  0
 13 14  1  0
 14 15  1  0
 15 16  1  0
 17 18  2  0
 17 23  1  0
 18 19  1  0
 19 20  2  0
 20 21  1  0
 21 22  1  0
 21 23  2  0
 24 25  2  0
 25 26  1  0
M  CHG  1  14   1
M  END
