
     RDKit          3D

 26 29  0  0  0  0  0  0  0  0999 V2000
   -3.1630    3.8940    1.0490 C   0  0  0  0  0  0  0  0  0  0  0  0
   -3.4360    2.7640    0.1210 C   0  0  0  0  0  0  0  0  0  0  0  0
   -4.6240    2.2270   -0.2490 N   0  0  0  0  0  0  0  0  0  0  0  0
   -4.4400    1.2290   -1.0960 N   0  0  0  0  0  0  0  0  0  0  0  0
   -3.1370    1.0490   -1.3330 C   0  0  0  0  0  0  0  0  0  0  0  0
   -2.6050    0.0780   -2.2120 N   0  0  0  0  0  0  0  0  0  0  0  0
   -3.2170   -0.2690   -3.4930 C   0  0  0  0  0  0  0  0  0  0  0  0
   -2.2320   -0.2340   -4.6230 C   0  0  0  0  0  0  0  0  0  0  0  0
   -1.0700   -0.9420   -4.2410 O   0  0  0  0  0  0  0  0  0  0  0  0
   -0.6950   -1.1500   -2.9240 C   0  0  0  0  0  0  0  0  0  0  0  0
    0.4290   -1.8600   -2.5910 C   0  0  0  0  0  0  0  0  0  0  0  0
    0.7980   -2.0670   -1.2590 C   0  0  0  0  0  0  0  0  0  0  0  0
    0.0420   -1.5620   -0.2300 C   0  0  0  0  0  0  0  0  0  0  0  0
    0.3960   -1.7310    1.1250 N   0  0  0  0  0  0  0  0  0  0  0  0
    1.7000   -2.1640    1.5440 C   0  0  0  0  0  0  0  0  0  0  0  0
    2.7880   -1.1340    1.2150 C   0  0  1  0  0  0  0  0  0  0  0  0
    2.4880    0.1730    1.9290 C   0  0  0  0  0  0  0  0  0  0  0  0
    3.0860    0.1150    3.3330 C   0  0  0  0  0  0  0  0  0  0  0  0
    4.5760    0.1130    3.1150 C   0  0  0  0  0  0  0  0  0  0  0  0
    5.0320   -0.9170    2.2710 N   0  0  0  0  0  0  0  0  0  0  0  0
    4.1480   -1.6550    1.4830 C   0  0  0  0  0  0  0  0  0  0  0  0
   -1.1040   -0.8390   -0.5430 C   0  0  0  0  0  0  0  0  0  0  0  0
   -1.4400   -0.6530   -1.8650 C   0  0  0  0  0  0  0  0  0  0  0  0
   -2.4890    1.9960   -0.5850 C   0  0  0  0  0  0  0  0  0  0  0  0
   -1.0810    2.2270   -0.5150 C   0  0  0  0  0  0  0  0  0  0  0  0
    0.0840    2.4000   -0.4670 N   0  0  0  0  0  0  0  0  0  0  0  0
  1  2  1  0
  2  3  2  0
  2 24  1  0
  3  4  1  0
  4  5  1  0
  5  6  1  0
  5 24  2  0
  6  7  1  0
  6 23  1  0
  7  8  1  0
  8  9  1  0
  9 10  1  0
 10 11  2  0
 10 23  1  0
 11 12  1  0
 12 13  2  0
 13 14  1  0
 13 22  1  0
 14 15  1  0
 16 15  1  1
 16 17  1  0
 16 21  1  0
 17 18  1  0
 18 19  1  0
 19 20  1  0
 20 21  1  0
 22 23  2  0
 24 25  1  0
 25 26  3  0
M  CHG  1   3   1
M  END
