
     RDKit          3D

 26 28  0  0  0  0  0  0  0  0999 V2000
    0.6040   -5.5090    1.6970 N   0  0  0  0  0  0  0  0  0  0  0  0
    0.5110   -4.3150    1.4950 C   0  0  0  0  0  0  0  0  0  0  0  0
    0.4040   -2.8970    1.2310 C   0  0  0  0  0  0  0  0  0  0  0  0
   -0.9490   -2.6660    0.6380 C   0  0  0  0  0  0  0  0  0  0  0  0
   -1.2110   -1.2310    0.3100 N   0  0  0  0  0  0  0  0  0  0  0  0
   -0.3980   -0.7610   -0.7810 C   0  0  0  0  0  0  0  0  0  0  0  0
    0.6630    0.1680   -0.2730 C   0  0  0  0  0  0  0  0  0  0  0  0
    1.8770    0.1910   -1.1090 C   0  0  0  0  0  0  0  0  0  0  0  0
    2.6780   -0.9730   -1.1960 N   0  0  0  0  0  0  0  0  0  0  0  0
    4.0740   -1.0620   -0.8690 C   0  0  1  0  0  0  0  0  0  0  0  0
    4.5610   -0.7810    0.5320 C   0  0  0  0  0  0  0  0  0  0  0  0
    4.5340   -2.1670   -0.0100 C   0  0  0  0  0  0  0  0  0  0  0  0
    2.2790    1.2550   -1.8050 C   0  0  0  0  0  0  0  0  0  0  0  0
    1.6210    2.4890   -1.8440 N   0  0  0  0  0  0  0  0  0  0  0  0
    0.2060    2.6590   -2.2180 C   0  0  0  0  0  0  0  0  0  0  0  0
   -0.4720    3.6310   -1.3330 C   0  0  0  0  0  0  0  0  0  0  0  0
   -1.7550    3.1860   -0.7850 C   0  0  0  0  0  0  0  0  0  0  0  0
   -2.4250    1.9910   -1.3410 C   0  0  0  0  0  0  0  0  0  0  0  0
   -2.2780    1.7880   -2.5690 O   0  0  0  0  0  0  0  0  0  0  0  0
   -3.2150    1.0910   -0.5690 N   0  0  0  0  0  0  0  0  0  0  0  0
   -3.0860    0.4370    0.6560 C   0  0  0  0  0  0  0  0  0  0  0  0
   -4.0330    0.8820    1.6380 C   0  0  0  0  0  0  0  0  0  0  0  0
   -4.0800    0.4060    2.9060 C   0  0  0  0  0  0  0  0  0  0  0  0
   -3.1630   -0.5530    3.2420 C   0  0  0  0  0  0  0  0  0  0  0  0
   -2.2670   -0.9900    2.3460 N   0  0  0  0  0  0  0  0  0  0  0  0
   -2.1900   -0.5330    1.0540 C   0  0  0  0  0  0  0  0  0  0  0  0
  1  2  3  0
  2  3  1  0
  3  4  1  0
  4  5  1  0
  5  6  1  0
  5 26  1  0
  6  7  1  0
  7  8  1  0
  8  9  1  0
  8 13  2  0
 10  9  1  1
 10 11  1  0
 10 12  1  0
 11 12  1  0
 13 14  1  0
 14 15  1  0
 15 16  1  0
 16 17  1  0
 17 18  1  0
 18 19  2  0
 18 20  1  0
 20 21  1  0
 21 22  2  0
 21 26  1  0
 22 23  1  0
 23 24  2  0
 24 25  1  0
 25 26  2  0
M  CHG  1  25   1
M  END
