
     RDKit          3D

 26 29  0  0  0  0  0  0  0  0999 V2000
   -4.0970   -2.2770    1.6930 C   0  0  0  0  0  0  0  0  0  0  0  0
   -2.7890   -2.6150    1.1590 N   0  0  0  0  0  0  0  0  0  0  0  0
   -2.3460   -3.8800    1.1220 C   0  0  0  0  0  0  0  0  0  0  0  0
   -1.0950   -3.8040    0.5600 C   0  0  0  0  0  0  0  0  0  0  0  0
   -0.8410   -2.5240    0.2870 N   0  0  0  0  0  0  0  0  0  0  0  0
   -1.8680   -1.7570    0.6440 C   0  0  0  0  0  0  0  0  0  0  0  0
   -2.0640   -0.3100    0.5540 C   0  0  0  0  0  0  0  0  0  0  0  0
   -3.1730    0.1260    1.0020 O   0  0  0  0  0  0  0  0  0  0  0  0
   -1.1550    0.5970    0.0330 N   0  0  0  0  0  0  0  0  0  0  0  0
    0.0970    0.1480   -0.4710 C   0  0  0  0  0  0  0  0  0  0  0  0
    1.2190    0.0800    0.5310 C   0  0  0  0  0  0  0  0  0  0  0  0
    2.4300   -0.4010   -0.1510 C   0  0  0  0  0  0  0  0  0  0  0  0
    3.5940    0.2600   -0.2810 C   0  0  0  0  0  0  0  0  0  0  0  0
    3.9740    1.6090    0.2050 C   0  0  0  0  0  0  0  0  0  0  0  0
    4.3550    2.4800   -0.9000 N   0  0  0  0  0  0  0  0  0  0  0  0
    4.5230   -0.6020   -1.0440 N   0  0  0  0  0  0  0  0  0  0  0  0
    4.1160   -1.9150   -0.7060 C   0  0  2  0  0  0  0  0  0  0  0  0
    4.3210   -3.0740   -1.3900 N   0  0  0  0  0  0  0  0  0  0  0  0
    3.2280   -3.5570   -1.8700 C   0  0  0  0  0  0  0  0  0  0  0  0
    2.1390   -2.6500   -1.5140 C   0  0  0  0  0  0  0  0  0  0  0  0
    2.6080   -1.6530   -0.8510 C   0  0  0  0  0  0  0  0  0  0  0  0
   -1.5570    2.0020    0.0180 C   0  0  2  0  0  0  0  0  0  0  0  0
   -2.0630    2.5620    1.2670 C   0  0  0  0  0  0  0  0  0  0  0  0
   -3.4130    3.2170    0.9710 C   0  0  0  0  0  0  0  0  0  0  0  0
   -3.4540    3.3320   -0.5400 C   0  0  0  0  0  0  0  0  0  0  0  0
   -2.6980    2.1230   -0.9710 C   0  0  0  0  0  0  0  0  0  0  0  0
  1  2  1  0
  2  3  1  0
  2  6  1  0
  3  4  2  0
  4  5  1  0
  5  6  2  0
  6  7  1  0
  7  8  2  0
  7  9  1  0
  9 10  1  0
 22  9  1  1
 10 11  1  0
 11 12  1  0
 12 13  2  0
 12 21  1  0
 13 14  1  0
 13 16  1  0
 14 15  1  0
 17 16  1  6
 17 18  1  0
 17 21  1  0
 18 19  2  0
 19 20  1  0
 20 21  2  0
 22 23  1  0
 22 26  1  0
 23 24  1  0
 24 25  1  0
 25 26  1  0
M  CHG  1  15   1
M  END
