
     RDKit          3D

 26 29  0  0  0  0  0  0  0  0999 V2000
   -1.3060   -0.1570    0.8460 O   0  0  0  0  0  0  0  0  0  0  0  0
   -1.7120   -0.2760   -0.3210 C   0  0  0  0  0  0  0  0  0  0  0  0
   -0.6900   -0.5270   -1.4100 C   0  0  0  0  0  0  0  0  0  0  0  0
    0.6070   -0.5780   -0.8340 N   0  0  0  0  0  0  0  0  0  0  0  0
    0.9030   -1.6760    0.0070 C   0  0  0  0  0  0  0  0  0  0  0  0
    2.3320   -2.1640   -0.1040 C   0  0  0  0  0  0  0  0  0  0  0  0
    3.1160   -1.5090    1.0040 C   0  0  0  0  0  0  0  0  0  0  0  0
    3.0860   -0.0610    0.7280 N   0  0  0  0  0  0  0  0  0  0  0  0
    4.3240    0.4690    0.3420 C   0  0  0  0  0  0  0  0  0  0  0  0
    4.6180    1.7910    0.5740 C   0  0  0  0  0  0  0  0  0  0  0  0
    5.8430    2.3020    0.1680 C   0  0  0  0  0  0  0  0  0  0  0  0
    6.7190    1.5090   -0.4400 N   0  0  0  0  0  0  0  0  0  0  0  0
    6.4500    0.2000   -0.6790 C   0  0  0  0  0  0  0  0  0  0  0  0
    5.2580   -0.3610   -0.3020 C   0  0  0  0  0  0  0  0  0  0  0  0
    1.8920    0.7180    0.8270 C   0  0  0  0  0  0  0  0  0  0  0  0
    1.1060    0.6920   -0.4620 C   0  0  0  0  0  0  0  0  0  0  0  0
   -3.0800   -0.1800   -0.6260 N   0  0  0  0  0  0  0  0  0  0  0  0
   -4.1110    0.0530    0.3090 C   0  0  0  0  0  0  0  0  0  0  0  0
   -3.9510    0.2260    1.6580 C   0  0  0  0  0  0  0  0  0  0  0  0
   -5.0560    0.4530    2.4770 C   0  0  0  0  0  0  0  0  0  0  0  0
   -6.3010    0.5090    1.9820 N   0  0  0  0  0  0  0  0  0  0  0  0
   -6.5190    0.3440    0.6520 C   0  0  0  0  0  0  0  0  0  0  0  0
   -7.6530    0.3570   -0.0690 N   0  0  0  0  0  0  0  0  0  0  0  0
   -7.3160    0.1430   -1.3540 C   0  0  0  0  0  0  0  0  0  0  0  0
   -5.9370   -0.0090   -1.4460 C   0  0  0  0  0  0  0  0  0  0  0  0
   -5.4390    0.1220   -0.1540 C   0  0  0  0  0  0  0  0  0  0  0  0
  1  2  2  0
  2  3  1  0
  2 17  1  0
  3  4  1  0
  4  5  1  0
  4 16  1  0
  5  6  1  0
  6  7  1  0
  7  8  1  0
  8  9  1  0
  8 15  1  0
  9 10  2  0
  9 14  1  0
 10 11  1  0
 11 12  2  0
 12 13  1  0
 13 14  2  0
 15 16  1  0
 17 18  1  0
 18 19  2  0
 18 26  1  0
 19 20  1  0
 20 21  2  0
 21 22  1  0
 22 23  1  0
 22 26  2  0
 23 24  1  0
 24 25  2  0
 25 26  1  0
M  CHG  1  12   1
M  END
