
     RDKit          3D

 30 31  0  0  0  0  0  0  0  0999 V2000
    1.2390    6.1340   -0.2390 C   0  0  0  0  0  0  0  0  0  0  0  0
    0.9800    5.1760    0.6090 C   0  0  0  0  0  0  0  0  0  0  0  0
    1.3950    3.7500    0.2900 C   0  0  0  0  0  0  0  0  0  0  0  0
    0.2850    2.9960    0.2700 O   0  0  0  0  0  0  0  0  0  0  0  0
    0.1580    1.5470    0.0130 C   0  0  0  0  0  0  0  0  0  0  0  0
   -1.1090    1.2950   -0.0300 C   0  0  0  0  0  0  0  0  0  0  0  0
   -1.9010    0.1250   -0.2560 C   0  0  0  0  0  0  0  0  0  0  0  0
   -1.6610   -0.5920   -1.4100 C   0  0  0  0  0  0  0  0  0  0  0  0
   -2.3520   -1.7350   -1.7170 C   0  0  0  0  0  0  0  0  0  0  0  0
   -2.0720   -2.4930   -2.9780 C   0  0  0  0  0  0  0  0  0  0  0  0
   -3.3090   -2.1630   -0.8350 C   0  0  0  0  0  0  0  0  0  0  0  0
   -3.5610   -1.4370    0.3450 C   0  0  0  0  0  0  0  0  0  0  0  0
   -4.6470   -1.9840    1.2020 C   0  0  0  0  0  0  0  0  0  0  0  0
   -2.8830   -0.2970    0.6690 C   0  0  0  0  0  0  0  0  0  0  0  0
   -3.0840    0.5520    1.8580 C   0  0  2  0  0  0  0  0  0  0  0  0
   -3.6830   -0.0860    3.0680 C   0  0  0  0  0  0  0  0  0  0  0  0
   -3.8660    1.8260    1.5070 C   0  0  0  0  0  0  0  0  0  0  0  0
    1.3770    0.8410   -0.0880 C   0  0  0  0  0  0  0  0  0  0  0  0
    2.3830    1.7260   -0.2410 O   0  0  0  0  0  0  0  0  0  0  0  0
    1.8990   -0.4880   -0.0840 C   0  0  0  0  0  0  0  0  0  0  0  0
    1.1940   -1.6110    0.2670 C   0  0  0  0  0  0  0  0  0  0  0  0
   -0.0180   -1.5410    0.9180 O   0  0  0  0  0  0  0  0  0  0  0  0
    1.6330   -2.9080    0.0290 C   0  0  0  0  0  0  0  0  0  0  0  0
    0.8620   -3.9810    0.4050 O   0  0  0  0  0  0  0  0  0  0  0  0
    2.8420   -3.1280   -0.5850 C   0  0  0  0  0  0  0  0  0  0  0  0
    3.5920   -2.0410   -0.9490 C   0  0  0  0  0  0  0  0  0  0  0  0
    4.9150   -2.2730   -1.6160 C   0  0  0  0  0  0  0  0  0  0  0  0
    3.1430   -0.7350   -0.7090 C   0  0  0  0  0  0  0  0  0  0  0  0
    4.0710    0.3180   -1.1200 C   0  0  0  0  0  0  0  0  0  0  0  0
    4.9010    0.8530    0.0430 C   0  0  0  0  0  0  0  0  0  0  0  0
  1  2  2  0
  2  3  1  0
  3  4  1  0
  4  5  1  0
  5  6  2  3
  5 18  1  0
  6  7  1  0
  7  8  2  0
  7 14  1  0
  8  9  1  0
  9 10  1  0
  9 11  2  0
 11 12  1  0
 12 13  1  0
 12 14  2  0
 14 15  1  0
 15 16  1  1
 15 17  1  0
 18 19  2  0
 18 20  1  0
 20 21  2  0
 20 28  1  0
 21 22  1  0
 21 23  1  0
 23 24  1  0
 23 25  2  0
 25 26  1  0
 26 27  1  0
 26 28  2  0
 28 29  1  0
 29 30  1  0
M  END
