
     RDKit          3D

 30 31  0  0  0  0  0  0  0  0999 V2000
    7.5350   -0.0200    1.4050 C   0  0  0  0  0  0  0  0  0  0  0  0
    6.2900   -0.3580    0.5800 C   0  0  0  0  0  0  0  0  0  0  0  0
    5.9780    0.7020   -0.3820 C   0  0  0  0  0  0  0  0  0  0  0  0
    7.0370    1.0160   -1.4170 C   0  0  0  0  0  0  0  0  0  0  0  0
    4.8750    1.3750   -0.4090 C   0  0  0  0  0  0  0  0  0  0  0  0
    3.7610    1.1710    0.5360 C   0  0  0  0  0  0  0  0  0  0  0  0
    2.4850    0.7660   -0.1890 C   0  0  0  0  0  0  0  0  0  0  0  0
    1.4140    0.5740    0.8890 C   0  0  0  0  0  0  0  0  0  0  0  0
    0.1820    0.1750    0.1360 C   0  0  0  0  0  0  0  0  0  0  0  0
   -0.2100   -1.1260    0.0960 C   0  0  0  0  0  0  0  0  0  0  0  0
   -1.3330   -1.5250   -0.6010 C   0  0  0  0  0  0  0  0  0  0  0  0
   -1.6980   -2.8680   -0.6180 O   0  0  0  0  0  0  0  0  0  0  0  0
   -0.9060   -3.8020    0.0820 C   0  0  0  0  0  0  0  0  0  0  0  0
   -1.4290   -5.1960   -0.0350 C   0  0  2  0  0  0  0  0  0  0  0  0
   -2.8280   -5.2770    0.5560 C   0  0  0  0  0  0  0  0  0  0  0  0
   -0.5430   -6.1730    0.7290 C   0  0  0  0  0  0  0  0  0  0  0  0
   -1.4680   -5.5990   -1.3490 O   0  0  0  0  0  0  0  0  0  0  0  0
   -2.0590   -0.5630   -1.2640 C   0  0  0  0  0  0  0  0  0  0  0  0
   -1.6730    0.7960   -1.2370 C   0  0  0  0  0  0  0  0  0  0  0  0
   -2.5150    1.7940   -1.9300 C   0  0  0  0  0  0  0  0  0  0  0  0
   -3.4930    2.4870   -1.0570 C   0  0  0  0  0  0  0  0  0  0  0  0
   -3.3850    3.7800   -0.6110 C   0  0  0  0  0  0  0  0  0  0  0  0
   -4.3360    4.3860    0.2180 C   0  0  0  0  0  0  0  0  0  0  0  0
   -5.4340    3.6900    0.6220 C   0  0  0  0  0  0  0  0  0  0  0  0
   -6.4400    4.3480    1.5100 C   0  0  0  0  0  0  0  0  0  0  0  0
   -7.2210    5.2430    0.7700 O   0  0  0  0  0  0  0  0  0  0  0  0
   -5.5780    2.3920    0.1950 C   0  0  0  0  0  0  0  0  0  0  0  0
   -4.6420    1.8040   -0.6180 C   0  0  0  0  0  0  0  0  0  0  0  0
   -0.5550    1.1600   -0.5390 C   0  0  0  0  0  0  0  0  0  0  0  0
   -0.0910    2.4880   -0.4600 O   0  0  0  0  0  0  0  0  0  0  0  0
  1  2  1  0
  2  3  1  0
  3  4  1  0
  3  5  2  3
  5  6  1  0
  6  7  1  0
  7  8  1  0
  8  9  1  0
  9 10  2  0
  9 29  1  0
 10 11  1  0
 11 12  1  0
 11 18  2  0
 12 13  1  0
 13 14  1  0
 14 15  1  1
 14 16  1  0
 14 17  1  0
 18 19  1  0
 19 20  1  0
 19 29  2  0
 20 21  1  0
 21 22  2  0
 21 28  1  0
 22 23  1  0
 23 24  2  0
 24 25  1  0
 24 27  1  0
 25 26  1  0
 27 28  2  0
 29 30  1  0
M  END
