
     RDKit          3D

 30 31  0  0  0  0  0  0  0  0999 V2000
   -8.8930    0.2540   -1.2010 C   0  0  0  0  0  0  0  0  0  0  0  0
   -7.7880    0.5040   -0.5240 C   0  0  0  0  0  0  0  0  0  0  0  0
   -7.7910    1.6970    0.3820 C   0  0  0  0  0  0  0  0  0  0  0  0
   -6.4840    2.1330    0.7840 C   0  0  0  0  0  0  0  0  0  0  0  0
   -5.3590    1.4740    0.6120 C   0  0  0  0  0  0  0  0  0  0  0  0
   -3.9690    1.8030    0.9890 C   0  0  0  0  0  0  0  0  0  0  0  0
   -3.2100    0.8320    0.5300 C   0  0  0  0  0  0  0  0  0  0  0  0
   -1.7460    0.7580    0.6830 C   0  0  0  0  0  0  0  0  0  0  0  0
   -1.3740   -0.4180    1.5170 C   0  0  0  0  0  0  0  0  0  0  0  0
    0.1270   -0.5520    1.6940 C   0  0  0  0  0  0  0  0  0  0  0  0
    0.7760   -0.7190    0.3570 C   0  0  0  0  0  0  0  0  0  0  0  0
    2.2920   -0.8610    0.4830 C   0  0  0  0  0  0  0  0  0  0  0  0
    2.9030    0.3730    1.1370 C   0  0  0  0  0  0  0  0  0  0  0  0
    4.3820    0.1670    1.2260 C   0  0  0  0  0  0  0  0  0  0  0  0
    4.9970   -0.0260   -0.1030 C   0  0  0  0  0  0  0  0  0  0  0  0
    4.9910   -1.1510   -0.5830 O   0  0  0  0  0  0  0  0  0  0  0  0
    5.6190    1.0550   -0.8890 C   0  0  0  0  0  0  0  0  0  0  0  0
    7.1370    1.0370   -0.6900 C   0  0  1  0  0  0  0  0  0  0  0  0
    7.7090    2.1670   -1.5220 C   0  0  0  0  0  0  0  0  0  0  0  0
    7.4430    1.2580    0.6630 O   0  0  0  0  0  0  0  0  0  0  0  0
    7.7110   -0.2520   -1.0890 C   0  0  0  0  0  0  0  0  0  0  0  0
    7.5880   -0.7170   -2.2730 O   0  0  0  0  0  0  0  0  0  0  0  0
    8.4160   -1.0370   -0.2070 O   0  0  0  0  0  0  0  0  0  0  0  0
    8.9840   -2.2960   -0.5700 C   0  0  0  0  0  0  0  0  0  0  0  0
   -4.0290   -0.1760   -0.1740 C   0  0  0  0  0  0  0  0  0  0  0  0
   -3.4700   -1.3310   -0.8870 C   0  0  0  0  0  0  0  0  0  0  0  0
   -5.2890    0.2180   -0.1130 C   0  0  0  0  0  0  0  0  0  0  0  0
   -6.5800   -0.2900   -0.6860 C   0  0  0  0  0  0  0  0  0  0  0  0
   -6.5860   -1.4840   -1.1910 C   0  0  0  0  0  0  0  0  0  0  0  0
   -7.7110   -2.2790   -1.6870 C   0  0  0  0  0  0  0  0  0  0  0  0
  1  2  2  0
  2  3  1  0
  2 28  1  0
  3  4  1  0
  4  5  2  0
  5  6  1  0
  5 27  1  0
  6  7  2  0
  7  8  1  0
  7 25  1  0
  8  9  1  0
  9 10  1  0
 10 11  1  0
 11 12  1  0
 12 13  1  0
 13 14  1  0
 14 15  1  0
 15 16  2  0
 15 17  1  0
 17 18  1  0
 18 19  1  6
 18 20  1  0
 18 21  1  0
 21 22  2  0
 21 23  1  0
 23 24  1  0
 25 26  1  0
 25 27  2  0
 27 28  1  0
 28 29  2  3
 29 30  1  0
M  END
