
     RDKit          3D

 30 31  0  0  0  0  0  0  0  0999 V2000
    6.2770   -1.6060   -2.3970 C   0  0  0  0  0  0  0  0  0  0  0  0
    5.0830   -0.6830   -2.6390 C   0  0  0  0  0  0  0  0  0  0  0  0
    4.5210   -0.3110   -1.3130 C   0  0  0  0  0  0  0  0  0  0  0  0
    3.3450   -0.8760   -0.8680 C   0  0  0  0  0  0  0  0  0  0  0  0
    2.8190   -0.5690    0.3610 C   0  0  0  0  0  0  0  0  0  0  0  0
    1.6490   -1.1890    0.9410 C   0  0  0  0  0  0  0  0  0  0  0  0
    0.3740   -0.8690    0.6830 O   0  0  0  0  0  0  0  0  0  0  0  0
   -0.4590    0.1800    0.7440 C   0  0  0  0  0  0  0  0  0  0  0  0
   -0.1030    1.4340    1.1320 C   0  0  0  0  0  0  0  0  0  0  0  0
   -1.0580    2.4580    1.1690 C   0  0  0  0  0  0  0  0  0  0  0  0
   -2.3680    2.2530    0.8320 C   0  0  0  0  0  0  0  0  0  0  0  0
   -3.4190    3.2340    1.0610 C   0  0  1  0  0  0  0  0  0  0  0  0
   -2.9340    4.0340    2.1660 O   0  0  0  0  0  0  0  0  0  0  0  0
   -3.7660    4.1760    0.0110 C   0  0  0  0  0  0  0  0  0  0  0  0
   -2.8740    5.1550   -0.6320 C   0  0  0  0  0  0  0  0  0  0  0  0
   -2.3030    6.1390    0.1320 O   0  0  0  0  0  0  0  0  0  0  0  0
   -2.7260    0.9490    0.4260 C   0  0  0  0  0  0  0  0  0  0  0  0
   -4.1400    0.6370    0.0560 C   0  0  0  0  0  0  0  0  0  0  0  0
   -1.8110   -0.0590    0.3760 C   0  0  0  0  0  0  0  0  0  0  0  0
   -2.2140   -1.3490   -0.1530 C   0  0  0  0  0  0  0  0  0  0  0  0
   -2.3070   -2.4330    0.8430 C   0  0  0  0  0  0  0  0  0  0  0  0
   -2.7950   -3.7300    0.2090 C   0  0  1  0  0  0  0  0  0  0  0  0
   -1.9000   -4.2060   -0.8990 C   0  0  0  0  0  0  0  0  0  0  0  0
   -2.7180   -4.7770    1.3400 C   0  0  0  0  0  0  0  0  0  0  0  0
   -4.1940   -3.6210   -0.2750 C   0  0  0  0  0  0  0  0  0  0  0  0
    3.5230    0.3470    1.1520 C   0  0  0  0  0  0  0  0  0  0  0  0
    4.6880    0.8980    0.6990 C   0  0  0  0  0  0  0  0  0  0  0  0
    5.2000    0.5780   -0.5350 C   0  0  0  0  0  0  0  0  0  0  0  0
    6.4020    1.1700   -0.9750 O   0  0  0  0  0  0  0  0  0  0  0  0
    7.0810    2.0890   -0.0960 C   0  0  0  0  0  0  0  0  0  0  0  0
  1  2  1  0
  2  3  1  0
  3  4  2  0
  3 28  1  0
  4  5  1  0
  5  6  1  0
  5 26  2  0
  6  7  1  0
  7  8  1  0
  8  9  2  0
  8 19  1  0
  9 10  1  0
 10 11  2  0
 11 12  1  0
 11 17  1  0
 12 13  1  1
 12 14  1  0
 14 15  1  0
 15 16  1  0
 17 18  1  0
 17 19  2  0
 19 20  1  0
 20 21  1  0
 21 22  1  0
 22 23  1  6
 22 24  1  0
 22 25  1  0
 26 27  1  0
 27 28  2  0
 28 29  1  0
 29 30  1  0
M  END
