
     RDKit          3D

 30 31  0  0  0  0  0  0  0  0999 V2000
   -0.9620   -2.9430    2.4200 C   0  0  0  0  0  0  0  0  0  0  0  0
   -0.7480   -2.0050    1.2770 C   0  0  0  0  0  0  0  0  0  0  0  0
   -0.6190   -0.6640    1.7130 O   0  0  0  0  0  0  0  0  0  0  0  0
   -0.4060    0.2330    0.5310 C   0  0  0  0  0  0  0  0  0  0  0  0
   -1.4750    0.6770    0.0320 C   0  0  0  0  0  0  0  0  0  0  0  0
   -1.9340    1.5150   -1.0160 C   0  0  0  0  0  0  0  0  0  0  0  0
   -1.1910    2.3420   -1.9390 C   0  0  0  0  0  0  0  0  0  0  0  0
   -1.8500    3.0090   -2.8330 O   0  0  0  0  0  0  0  0  0  0  0  0
   -3.2940    1.6620   -1.2020 C   0  0  0  0  0  0  0  0  0  0  0  0
   -4.2050    0.9750   -0.3630 C   0  0  0  0  0  0  0  0  0  0  0  0
   -5.0450    1.7220    0.4600 C   0  0  0  0  0  0  0  0  0  0  0  0
   -4.9210    3.1830    0.4870 C   0  0  0  0  0  0  0  0  0  0  0  0
   -5.9620    1.0550    1.2170 C   0  0  0  0  0  0  0  0  0  0  0  0
   -6.0940   -0.3270    1.2040 C   0  0  0  0  0  0  0  0  0  0  0  0
   -5.2650   -1.0730    0.3910 C   0  0  0  0  0  0  0  0  0  0  0  0
   -5.3610   -2.5700    0.3340 C   0  0  0  0  0  0  0  0  0  0  0  0
   -4.3330   -0.4180   -0.3810 C   0  0  0  0  0  0  0  0  0  0  0  0
   -3.5060   -1.2090   -1.2020 O   0  0  0  0  0  0  0  0  0  0  0  0
    0.9830    0.3860    0.2140 C   0  0  0  0  0  0  0  0  0  0  0  0
    1.9060   -0.2310    0.9930 C   0  0  0  0  0  0  0  0  0  0  0  0
    3.3110   -0.0960    0.7070 C   0  0  0  0  0  0  0  0  0  0  0  0
    4.1660   -1.2070    0.7850 C   0  0  0  0  0  0  0  0  0  0  0  0
    5.5120   -1.0750    0.5280 C   0  0  0  0  0  0  0  0  0  0  0  0
    6.0730    0.1350    0.1870 C   0  0  0  0  0  0  0  0  0  0  0  0
    7.5250    0.2470   -0.0840 C   0  0  0  0  0  0  0  0  0  0  0  0
    7.8860    0.0280   -1.5160 C   0  0  0  0  0  0  0  0  0  0  0  0
    5.2170    1.2070    0.1170 C   0  0  0  0  0  0  0  0  0  0  0  0
    3.8750    1.1350    0.3620 C   0  0  0  0  0  0  0  0  0  0  0  0
    1.4410    1.1250   -0.8490 O   0  0  0  0  0  0  0  0  0  0  0  0
    1.8450    0.4760   -2.0590 C   0  0  0  0  0  0  0  0  0  0  0  0
  1  2  1  0
  2  3  1  0
  3  4  1  0
  4  5  2  3
  4 19  1  0
  5  6  1  0
  6  7  1  0
  6  9  2  3
  7  8  2  0
  9 10  1  0
 10 11  2  0
 10 17  1  0
 11 12  1  0
 11 13  1  0
 13 14  2  0
 14 15  1  0
 15 16  1  0
 15 17  2  0
 17 18  1  0
 19 20  2  3
 19 29  1  0
 20 21  1  0
 21 22  2  0
 21 28  1  0
 22 23  1  0
 23 24  2  0
 24 25  1  0
 24 27  1  0
 25 26  1  0
 27 28  2  0
 29 30  1  0
M  END
