
     RDKit          3D

 38 42  0  0  0  0  0  0  0  0999 V2000
   -2.4130    2.2680    2.3980 C   0  0  0  0  0  0  0  0  0  0  0  0
   -2.2850    1.9610    0.9110 C   0  0  0  0  0  0  0  0  0  0  0  0
   -1.8240    0.6080    0.6950 N   0  0  0  0  0  0  0  0  0  0  0  0
   -2.7860   -0.4290    0.5800 C   0  0  0  0  0  0  0  0  0  0  0  0
   -2.3750   -1.6400    0.3750 O   0  0  0  0  0  0  0  0  0  0  0  0
   -4.2510   -0.2860    0.6790 C   0  0  2  0  0  0  0  0  0  0  0  0
   -4.8830   -1.6290    0.6790 C   0  0  0  0  0  0  0  0  0  0  0  0
   -5.2520   -2.3310   -0.4410 C   0  0  0  0  0  0  0  0  0  0  0  0
   -5.8420   -3.5920   -0.3650 C   0  0  0  0  0  0  0  0  0  0  0  0
   -6.0710   -4.1700    0.8160 N   0  0  0  0  0  0  0  0  0  0  0  0
   -5.7230   -3.5140    1.9410 C   0  0  0  0  0  0  0  0  0  0  0  0
   -5.1410   -2.2730    1.9020 C   0  0  0  0  0  0  0  0  0  0  0  0
   -4.9080    0.6330   -0.1310 N   0  0  0  0  0  0  0  0  0  0  0  0
   -6.2640    0.8750    0.3110 C   0  0  0  0  0  0  0  0  0  0  0  0
   -7.2620    0.1560   -0.5240 C   0  0  0  0  0  0  0  0  0  0  0  0
   -7.0730    0.1270   -1.8300 C   0  0  0  0  0  0  0  0  0  0  0  0
   -5.8890    0.8050   -2.3960 C   0  0  0  0  0  0  0  0  0  0  0  0
   -4.6710    0.7920   -1.4980 C   0  0  0  0  0  0  0  0  0  0  0  0
   -0.4260    0.3390    0.7450 C   0  0  0  0  0  0  0  0  0  0  0  0
   -0.0500   -0.3100    1.8860 C   0  0  0  0  0  0  0  0  0  0  0  0
    1.3160   -0.6750    2.1470 C   0  0  0  0  0  0  0  0  0  0  0  0
    2.2460   -0.3770    1.2630 C   0  0  0  0  0  0  0  0  0  0  0  0
    1.9460    0.3040    0.0310 C   0  0  0  0  0  0  0  0  0  0  0  0
    2.8540    0.5790   -0.8080 N   0  0  0  0  0  0  0  0  0  0  0  0
    4.2320    0.2860   -0.6930 C   0  0  0  0  0  0  0  0  0  0  0  0
    4.7540   -0.9720   -0.5030 C   0  0  0  0  0  0  0  0  0  0  0  0
    6.1210   -0.9050   -0.4370 N   0  0  0  0  0  0  0  0  0  0  0  0
    7.0170   -2.0140   -0.2370 C   0  0  0  0  0  0  0  0  0  0  0  0
    6.4480    0.3880   -0.5840 C   0  0  0  0  0  0  0  0  0  0  0  0
    7.7700    1.0450   -0.6040 C   0  0  2  0  0  0  0  0  0  0  0  0
    8.5380    0.6280   -1.8400 C   0  0  0  0  0  0  0  0  0  0  0  0
    9.6580    0.2010   -1.0310 N   0  0  0  0  0  0  0  0  0  0  0  0
    8.8870    0.4360    0.1430 C   0  0  0  0  0  0  0  0  0  0  0  0
    5.2950    1.1000   -0.7390 N   0  0  0  0  0  0  0  0  0  0  0  0
    0.5210    0.6890   -0.2550 C   0  0  0  0  0  0  0  0  0  0  0  0
    0.2820    1.2070   -1.4140 C   0  0  0  0  0  0  0  0  0  0  0  0
   -0.9820    1.5780   -2.0560 C   0  0  0  0  0  0  0  0  0  0  0  0
   -1.1290    3.3190   -2.3850 Cl  0  0  0  0  0  0  0  0  0  0  0  0
  1  2  1  0
  2  3  1  0
  3  4  1  0
  3 19  1  0
  4  5  2  0
  4  6  1  0
  6  7  1  0
  6 13  1  6
  7  8  2  0
  7 12  1  0
  8  9  1  0
  9 10  2  0
 10 11  1  0
 11 12  2  0
 13 14  1  0
 13 18  1  0
 14 15  1  0
 15 16  2  0
 16 17  1  0
 17 18  1  0
 19 20  2  0
 19 35  1  0
 20 21  1  0
 21 22  2  0
 22 23  1  0
 23 24  2  3
 23 35  1  0
 24 25  1  0
 25 26  2  0
 25 34  1  0
 26 27  1  0
 27 28  1  0
 27 29  1  0
 30 29  1  6
 29 34  2  0
 30 31  1  0
 30 33  1  0
 31 32  1  0
 32 33  1  0
 35 36  2  3
 36 37  1  0
 37 38  1  0
M  CHG  2  32   1  34   1
M  END
