
     RDKit          3D

 38 42  0  0  0  0  0  0  0  0999 V2000
   -5.6830    4.7670    0.3230 C   0  0  0  0  0  0  0  0  0  0  0  0
   -5.1110    3.5840    0.2150 C   0  0  0  0  0  0  0  0  0  0  0  0
   -4.5840    3.0580   -1.0870 C   0  0  0  0  0  0  0  0  0  0  0  0
   -5.2450    1.7410   -1.3340 C   0  0  0  0  0  0  0  0  0  0  0  0
   -5.0790    0.8070   -0.1680 C   0  0  0  0  0  0  0  0  0  0  0  0
   -5.0740   -0.5800   -0.4800 N   0  0  0  0  0  0  0  0  0  0  0  0
   -6.1880   -1.5290   -0.4400 C   0  0  0  0  0  0  0  0  0  0  0  0
   -5.4450   -2.8430   -0.2940 C   0  0  0  0  0  0  0  0  0  0  0  0
   -4.1160   -2.5710   -0.8100 N   0  0  0  0  0  0  0  0  0  0  0  0
   -3.9100   -1.3150   -0.9130 C   0  0  0  0  0  0  0  0  0  0  0  0
   -2.7210   -0.7410   -1.3800 N   0  0  0  0  0  0  0  0  0  0  0  0
   -1.4640   -1.4340   -1.5880 C   0  0  0  0  0  0  0  0  0  0  0  0
   -0.8010   -1.8910   -0.3300 C   0  0  0  0  0  0  0  0  0  0  0  0
    0.4570   -2.5400   -0.7320 N   0  0  0  0  0  0  0  0  0  0  0  0
    0.3810   -3.7960   -1.4110 C   0  0  0  0  0  0  0  0  0  0  0  0
   -0.2750   -4.8350   -0.5300 C   0  0  0  0  0  0  0  0  0  0  0  0
   -1.4870   -5.4620   -0.6860 C   0  0  0  0  0  0  0  0  0  0  0  0
   -1.6760   -6.3310    0.3560 C   0  0  0  0  0  0  0  0  0  0  0  0
   -0.5360   -6.2010    1.1390 C   0  0  0  0  0  0  0  0  0  0  0  0
    0.2500   -5.3180    0.5820 O   0  0  0  0  0  0  0  0  0  0  0  0
    1.6950   -1.8720   -0.4380 C   0  0  0  0  0  0  0  0  0  0  0  0
    2.9160   -2.4640   -0.7400 C   0  0  0  0  0  0  0  0  0  0  0  0
    4.1150   -1.8060   -0.4540 C   0  0  0  0  0  0  0  0  0  0  0  0
    4.0920   -0.5650    0.1300 C   0  0  0  0  0  0  0  0  0  0  0  0
    5.3210    0.1910    0.4610 C   0  0  0  0  0  0  0  0  0  0  0  0
    5.0360    1.3910    1.2040 N   0  0  0  0  0  0  0  0  0  0  0  0
    4.2080    2.3370    0.5300 C   0  0  0  0  0  0  0  0  0  0  0  0
    4.6490    3.7760    0.7280 C   0  0  0  0  0  0  0  0  0  0  0  0
    6.0590    3.8970    0.1970 C   0  0  0  0  0  0  0  0  0  0  0  0
    6.9580    2.8670    0.8070 C   0  0  1  0  0  0  0  0  0  0  0  0
    8.0390    3.5920    1.5920 C   0  0  0  0  0  0  0  0  0  0  0  0
    6.2410    1.9630    1.7730 C   0  0  0  0  0  0  0  0  0  0  0  0
    2.8960   -0.0410    0.3990 N   0  0  0  0  0  0  0  0  0  0  0  0
    1.7470   -0.6620    0.1290 N   0  0  0  0  0  0  0  0  0  0  0  0
   -4.9460    1.2600    1.0640 C   0  0  0  0  0  0  0  0  0  0  0  0
   -4.9500    2.6940    1.3740 C   0  0  0  0  0  0  0  0  0  0  0  0
   -4.8250    3.1940    2.5740 C   0  0  0  0  0  0  0  0  0  0  0  0
   -4.6340    2.1350    3.9430 Cl  0  0  0  0  0  0  0  0  0  0  0  0
  1  2  2  0
  2  3  1  0
  2 36  1  0
  3  4  1  0
  4  5  1  0
  5  6  1  0
  5 35  2  0
  6  7  1  0
  6 10  1  0
  7  8  1  0
  8  9  1  0
  9 10  2  0
 10 11  1  0
 11 12  1  0
 12 13  1  0
 13 14  1  0
 14 15  1  0
 14 21  1  0
 15 16  1  0
 16 17  2  0
 16 20  1  0
 17 18  1  0
 18 19  2  0
 19 20  1  0
 21 22  2  0
 21 34  1  0
 22 23  1  0
 23 24  2  0
 24 25  1  0
 24 33  1  0
 25 26  1  0
 26 27  1  0
 26 32  1  0
 27 28  1  0
 28 29  1  0
 29 30  1  0
 30 31  1  1
 30 32  1  0
 33 34  2  0
 35 36  1  0
 36 37  2  3
 37 38  1  0
M  CHG  2   9   1  34   1
M  END
