
     RDKit          3D

 38 42  0  0  0  0  0  0  0  0999 V2000
   -7.8040   -0.2060    4.1890 C   0  0  0  0  0  0  0  0  0  0  0  0
   -6.6610   -0.1110    3.2270 C   0  0  0  0  0  0  0  0  0  0  0  0
   -5.7240   -1.1160    3.1220 C   0  0  0  0  0  0  0  0  0  0  0  0
   -4.6610   -1.0580    2.2480 C   0  0  0  0  0  0  0  0  0  0  0  0
   -4.4970    0.0530    1.4180 C   0  0  0  0  0  0  0  0  0  0  0  0
   -3.3950    0.0980    0.5210 N   0  0  0  0  0  0  0  0  0  0  0  0
   -2.0620    0.1280    0.8540 C   0  0  0  0  0  0  0  0  0  0  0  0
   -1.2670    0.1690   -0.2350 C   0  0  0  0  0  0  0  0  0  0  0  0
    0.1130    0.2980   -0.5690 C   0  0  0  0  0  0  0  0  0  0  0  0
    1.1510    0.7390    0.0290 C   0  0  0  0  0  0  0  0  0  0  0  0
    1.4860    1.3230    1.2810 C   0  0  0  0  0  0  0  0  0  0  0  0
    0.1000    1.7500    2.3530 Cl  0  0  0  0  0  0  0  0  0  0  0  0
    2.6660    1.6640    1.7090 C   0  0  0  0  0  0  0  0  0  0  0  0
    4.0140    1.7000    1.3830 C   0  0  0  0  0  0  0  0  0  0  0  0
    4.7200    2.2880    2.4220 O   0  0  0  0  0  0  0  0  0  0  0  0
    4.8720    1.3460    0.3770 N   0  0  0  0  0  0  0  0  0  0  0  0
    4.6280    0.6810   -0.8520 C   0  0  0  0  0  0  0  0  0  0  0  0
    5.9310    0.4270   -1.5960 C   0  0  0  0  0  0  0  0  0  0  0  0
    6.9040   -0.2710   -0.7760 N   0  0  1  0  0  0  0  0  0  0  0  0
    8.1540   -0.2750   -1.4960 C   0  0  0  0  0  0  0  0  0  0  0  0
    9.3450   -0.4830   -0.6750 C   0  0  0  0  0  0  0  0  0  0  0  0
   10.3530    0.3930   -0.2860 C   0  0  0  0  0  0  0  0  0  0  0  0
   11.2370   -0.2740    0.4750 N   0  0  0  0  0  0  0  0  0  0  0  0
   10.8200   -1.5290    0.5750 N   0  0  0  0  0  0  0  0  0  0  0  0
    9.6750   -1.7100   -0.1050 C   0  0  0  0  0  0  0  0  0  0  0  0
    7.1050    0.4250    0.4790 C   0  0  0  0  0  0  0  0  0  0  0  0
    6.3440    1.7070    0.5310 C   0  0  0  0  0  0  0  0  0  0  0  0
   -2.2010    0.1580   -1.2840 N   0  0  0  0  0  0  0  0  0  0  0  0
   -3.4370    0.1170   -0.8080 C   0  0  0  0  0  0  0  0  0  0  0  0
   -4.6530    0.0980   -1.6880 C   0  0  0  0  0  0  0  0  0  0  0  0
   -5.0790   -1.2300   -2.0020 N   0  0  2  0  0  0  0  0  0  0  0  0
   -4.2010   -2.2620   -1.4930 C   0  0  0  0  0  0  0  0  0  0  0  0
   -5.2310   -1.3470   -3.4460 C   0  0  2  0  0  0  0  0  0  0  0  0
   -6.4150   -0.5770   -3.9880 C   0  0  0  0  0  0  0  0  0  0  0  0
   -6.3970   -2.0580   -4.0250 C   0  0  0  0  0  0  0  0  0  0  0  0
   -5.4400    1.0520    1.5320 C   0  0  0  0  0  0  0  0  0  0  0  0
   -6.5040    0.9890    2.4100 C   0  0  0  0  0  0  0  0  0  0  0  0
   -7.5160    2.0720    2.5240 C   0  0  0  0  0  0  0  0  0  0  0  0
  1  2  1  0
  2  3  2  0
  2 37  1  0
  3  4  1  0
  4  5  2  0
  5  6  1  0
  5 36  1  0
  6  7  1  0
  6 29  1  0
  7  8  2  0
  8  9  1  0
  8 28  1  0
  9 10  2  3
 10 11  1  0
 11 12  1  0
 11 13  2  3
 13 14  1  0
 14 15  2  0
 14 16  1  0
 16 17  1  0
 16 27  1  0
 17 18  1  0
 18 19  1  0
 19 20  1  6
 19 26  1  0
 20 21  1  0
 21 22  1  0
 21 25  2  0
 22 23  2  0
 23 24  1  0
 24 25  1  0
 26 27  1  0
 28 29  2  0
 29 30  1  0
 30 31  1  0
 31 32  1  6
 31 33  1  0
 33 34  1  6
 33 35  1  0
 34 35  1  0
 36 37  2  0
 37 38  1  0
M  CHG  2  19   1  31   1
M  END
