
     RDKit          3D

 38 42  0  0  0  0  0  0  0  0999 V2000
   -5.5370    2.6940   -0.1200 C   0  0  0  0  0  0  0  0  0  0  0  0
   -4.7980    2.1520    1.0260 C   0  0  0  0  0  0  0  0  0  0  0  0
   -4.1550    1.0230    1.0830 C   0  0  0  0  0  0  0  0  0  0  0  0
   -3.3960    0.5100    2.2910 C   0  0  0  0  0  0  0  0  0  0  0  0
   -2.3950   -0.4440    1.6950 C   0  0  0  0  0  0  0  0  0  0  0  0
   -2.5710   -0.3640    0.2380 N   0  0  0  0  0  0  0  0  0  0  0  0
   -1.6170   -0.5430   -0.8300 C   0  0  0  0  0  0  0  0  0  0  0  0
   -0.6070    0.5330   -1.0020 C   0  0  0  0  0  0  0  0  0  0  0  0
    0.2550    0.8380    0.1100 N   0  0  0  0  0  0  0  0  0  0  0  0
   -0.1710    1.8120    0.9340 C   0  0  0  0  0  0  0  0  0  0  0  0
    0.5700    2.2020    1.9990 C   0  0  0  0  0  0  0  0  0  0  0  0
    1.7830    1.5700    2.2180 C   0  0  0  0  0  0  0  0  0  0  0  0
    2.2530    0.5830    1.4140 C   0  0  0  0  0  0  0  0  0  0  0  0
    3.5470   -0.0940    1.6350 C   0  0  0  0  0  0  0  0  0  0  0  0
    4.2870    0.3470    2.7630 N   0  0  0  0  0  0  0  0  0  0  0  0
    5.0700    1.5340    2.5830 C   0  0  0  0  0  0  0  0  0  0  0  0
    5.2620    1.9040    1.1490 C   0  0  0  0  0  0  0  0  0  0  0  0
    6.4510    1.9890    0.5870 C   0  0  0  0  0  0  0  0  0  0  0  0
    6.2730    2.3740   -0.8260 C   0  0  0  0  0  0  0  0  0  0  0  0
    4.8080    2.4850   -0.9450 C   0  0  0  0  0  0  0  0  0  0  0  0
    4.2900    2.2140    0.1820 N   0  0  0  0  0  0  0  0  0  0  0  0
    1.4380    0.2050    0.3040 C   0  0  0  0  0  0  0  0  0  0  0  0
    1.9040   -0.6840   -0.4020 N   0  0  0  0  0  0  0  0  0  0  0  0
    1.7860   -1.4780   -1.4720 C   0  0  0  0  0  0  0  0  0  0  0  0
    2.1480   -1.1130   -2.7810 C   0  0  0  0  0  0  0  0  0  0  0  0
    2.0250   -1.9780   -3.8230 C   0  0  0  0  0  0  0  0  0  0  0  0
    1.5370   -3.2560   -3.6310 C   0  0  0  0  0  0  0  0  0  0  0  0
    1.3920   -4.3410   -4.9920 Cl  0  0  0  0  0  0  0  0  0  0  0  0
    1.2000   -3.5860   -2.3930 N   0  0  0  0  0  0  0  0  0  0  0  0
    1.3010   -2.7800   -1.3430 C   0  0  0  0  0  0  0  0  0  0  0  0
    0.9160   -3.2410   -0.0850 O   0  0  0  0  0  0  0  0  0  0  0  0
    0.4200   -4.5340    0.1210 C   0  0  0  0  0  0  0  0  0  0  0  0
   -3.9850   -0.0410    0.0860 C   0  0  0  0  0  0  0  0  0  0  0  0
   -4.8760   -0.6150   -0.6920 C   0  0  0  0  0  0  0  0  0  0  0  0
   -4.7000   -1.6630   -1.6820 C   0  0  0  0  0  0  0  0  0  0  0  0
   -5.8930   -1.9860   -2.2020 C   0  0  0  0  0  0  0  0  0  0  0  0
   -6.8590   -1.1750   -1.5770 N   0  0  0  0  0  0  0  0  0  0  0  0
   -6.3080   -0.3750   -0.7020 C   0  0  0  0  0  0  0  0  0  0  0  0
  1  2  1  0
  2  3  2  3
  3  4  1  0
  3 33  1  0
  4  5  1  0
  5  6  1  0
  6  7  1  0
  6 33  1  0
  7  8  1  0
  8  9  1  0
  9 10  1  0
  9 22  1  0
 10 11  2  0
 11 12  1  0
 12 13  2  0
 13 14  1  0
 13 22  1  0
 14 15  1  0
 15 16  1  0
 16 17  1  0
 17 18  2  0
 17 21  1  0
 18 19  1  0
 19 20  1  0
 20 21  2  0
 22 23  2  3
 23 24  1  0
 24 25  2  0
 24 30  1  0
 25 26  1  0
 26 27  2  0
 27 28  1  0
 27 29  1  0
 29 30  2  0
 30 31  1  0
 31 32  1  0
 33 34  2  3
 34 35  1  0
 34 38  1  0
 35 36  2  0
 36 37  1  0
 37 38  2  0
M  CHG  2  15   1  37   1
M  END
