
     RDKit          3D

 38 42  0  0  0  0  0  0  0  0999 V2000
   -1.4200    5.7890    0.8070 C   0  0  0  0  0  0  0  0  0  0  0  0
   -0.7590    4.4670    1.1780 C   0  0  0  0  0  0  0  0  0  0  0  0
   -1.7410    3.4560    1.4140 N   0  0  2  0  0  0  0  0  0  0  0  0
   -1.2920    2.3530    2.2050 C   0  0  0  0  0  0  0  0  0  0  0  0
   -0.3690    1.4110    1.4550 C   0  0  0  0  0  0  0  0  0  0  0  0
   -0.8780    1.0690    0.1440 N   0  0  0  0  0  0  0  0  0  0  0  0
   -0.9170   -0.2610   -0.3760 C   0  0  0  0  0  0  0  0  0  0  0  0
   -2.0350   -0.8890   -0.3480 N   0  0  0  0  0  0  0  0  0  0  0  0
   -2.2510   -2.2360   -0.8310 C   0  0  0  0  0  0  0  0  0  0  0  0
   -3.5250   -2.7770   -0.2330 C   0  0  0  0  0  0  0  0  0  0  0  0
   -3.6490   -3.5180    0.8840 N   0  0  0  0  0  0  0  0  0  0  0  0
   -4.9430   -3.8140    1.1090 C   0  0  0  0  0  0  0  0  0  0  0  0
   -5.6160   -4.5230    2.0780 C   0  0  0  0  0  0  0  0  0  0  0  0
   -6.9860   -4.6480    2.0290 C   0  0  0  0  0  0  0  0  0  0  0  0
   -7.7380   -4.0690    1.0050 C   0  0  0  0  0  0  0  0  0  0  0  0
   -7.0470   -3.3650    0.0450 C   0  0  0  0  0  0  0  0  0  0  0  0
   -5.6750   -3.2280    0.0780 C   0  0  0  0  0  0  0  0  0  0  0  0
   -4.7670   -2.6120   -0.7070 N   0  0  0  0  0  0  0  0  0  0  0  0
   -5.1790   -1.8790   -1.9060 C   0  0  0  0  0  0  0  0  0  0  0  0
    0.2940   -0.9070   -0.9360 C   0  0  1  0  0  0  0  0  0  0  0  0
    0.8410   -0.0780   -2.0540 C   0  0  0  0  0  0  0  0  0  0  0  0
    1.2390   -1.2870    0.0810 N   0  0  0  0  0  0  0  0  0  0  0  0
    2.5290   -1.7420   -0.2910 C   0  0  0  0  0  0  0  0  0  0  0  0
    2.6750   -3.0560   -0.7310 C   0  0  0  0  0  0  0  0  0  0  0  0
    1.2570   -4.0740   -0.8340 Cl  0  0  0  0  0  0  0  0  0  0  0  0
    3.9020   -3.5800   -1.0870 C   0  0  0  0  0  0  0  0  0  0  0  0
    5.0100   -2.7670   -1.0010 C   0  0  0  0  0  0  0  0  0  0  0  0
    4.9110   -1.4650   -0.5710 C   0  0  0  0  0  0  0  0  0  0  0  0
    3.6790   -0.9710   -0.2220 C   0  0  0  0  0  0  0  0  0  0  0  0
    3.5490    0.4060    0.2570 C   0  0  0  0  0  0  0  0  0  0  0  0
    4.7100    1.1910    0.3720 N   0  0  0  0  0  0  0  0  0  0  0  0
    5.7080    0.8440    1.2940 C   0  0  0  0  0  0  0  0  0  0  0  0
    7.1210    1.2360    0.8990 C   0  0  0  0  0  0  0  0  0  0  0  0
    7.0230    2.5920    0.5110 O   0  0  0  0  0  0  0  0  0  0  0  0
    6.4240    2.5510   -0.7620 C   0  0  0  0  0  0  0  0  0  0  0  0
    5.0700    1.9530   -0.7700 C   0  0  0  0  0  0  0  0  0  0  0  0
   -1.3720    2.1990   -0.6580 C   0  0  0  0  0  0  0  0  0  0  0  0
   -2.3540    2.9320    0.2130 C   0  0  0  0  0  0  0  0  0  0  0  0
  1  2  1  0
  3  2  1  6
  3  4  1  0
  3 38  1  0
  4  5  1  0
  5  6  1  0
  6  7  1  0
  6 37  1  0
  7  8  2  3
  7 20  1  0
  8  9  1  0
  9 10  1  0
 10 11  2  0
 10 18  1  0
 11 12  1  0
 12 13  2  0
 12 17  1  0
 13 14  1  0
 14 15  2  0
 15 16  1  0
 16 17  2  0
 17 18  1  0
 18 19  1  0
 20 21  1  6
 20 22  1  0
 22 23  1  0
 23 24  2  0
 23 29  1  0
 24 25  1  0
 24 26  1  0
 26 27  2  0
 27 28  1  0
 28 29  2  0
 29 30  1  0
 30 31  1  0
 31 32  1  0
 31 36  1  0
 32 33  1  0
 33 34  1  0
 34 35  1  0
 35 36  1  0
 37 38  1  0
M  CHG  2   3   1   8   1
M  END
