
     RDKit          3D

 38 42  0  0  0  0  0  0  0  0999 V2000
  -11.2110    1.2490    0.1330 C   0  0  0  0  0  0  0  0  0  0  0  0
   -9.8990    0.5060    0.1010 C   0  0  0  0  0  0  0  0  0  0  0  0
   -8.7040    1.1960    0.1370 C   0  0  0  0  0  0  0  0  0  0  0  0
   -7.5280    0.4780    0.1070 C   0  0  0  0  0  0  0  0  0  0  0  0
   -7.5180   -0.9100    0.0420 C   0  0  0  0  0  0  0  0  0  0  0  0
   -8.6970   -1.6100    0.0060 C   0  0  0  0  0  0  0  0  0  0  0  0
   -9.8700   -0.8840    0.0360 C   0  0  0  0  0  0  0  0  0  0  0  0
   -8.3690   -3.0660   -0.0570 C   0  0  0  0  0  0  0  0  0  0  0  0
   -6.9030   -3.0810   -0.3950 C   0  0  0  0  0  0  0  0  0  0  0  0
   -6.3850   -1.7880    0.0050 N   0  0  0  0  0  0  0  0  0  0  0  0
   -4.9940   -1.4170    0.3140 C   0  0  0  0  0  0  0  0  0  0  0  0
   -4.1340   -1.4470   -0.8970 C   0  0  0  0  0  0  0  0  0  0  0  0
   -2.7690   -1.0680   -0.6090 N   0  0  0  0  0  0  0  0  0  0  0  0
   -2.3280    0.2580   -0.3570 C   0  0  0  0  0  0  0  0  0  0  0  0
   -0.9900    0.5060   -0.0850 C   0  0  0  0  0  0  0  0  0  0  0  0
   -0.5460    1.7640    0.1310 C   0  0  0  0  0  0  0  0  0  0  0  0
    0.8280    2.1420    0.3290 C   0  0  0  0  0  0  0  0  0  0  0  0
    1.0260    3.3130    0.8720 O   0  0  0  0  0  0  0  0  0  0  0  0
    1.9480    1.3780   -0.0070 N   0  0  0  0  0  0  0  0  0  0  0  0
    3.2910    1.9350    0.3730 C   0  0  0  0  0  0  0  0  0  0  0  0
    4.2310    0.7480    0.5260 C   0  0  0  0  0  0  0  0  0  0  0  0
    4.4950    0.1340   -0.7580 N   0  0  0  0  0  0  0  0  0  0  0  0
    5.5970    0.8350   -1.4110 C   0  0  0  0  0  0  0  0  0  0  0  0
    6.8590    0.7890   -0.6730 C   0  0  0  0  0  0  0  0  0  0  0  0
    7.5740    1.9490   -0.4890 C   0  0  0  0  0  0  0  0  0  0  0  0
    8.7750    2.0370    0.1830 C   0  0  0  0  0  0  0  0  0  0  0  0
    9.6320    3.5590    0.3790 Cl  0  0  0  0  0  0  0  0  0  0  0  0
    9.2750    0.8550    0.6980 C   0  0  0  0  0  0  0  0  0  0  0  0
    8.5550   -0.3110    0.5110 C   0  0  0  0  0  0  0  0  0  0  0  0
    9.0280   -1.5460    1.0270 N   0  0  0  0  0  0  0  0  0  0  0  0
    8.5390   -2.0290    2.2980 C   0  0  0  0  0  0  0  0  0  0  0  0
    9.9990   -2.3110    0.2880 C   0  0  0  0  0  0  0  0  0  0  0  0
    7.3750   -0.3500   -0.1580 N   0  0  0  0  0  0  0  0  0  0  0  0
    3.3200    0.1890   -1.5750 C   0  0  0  0  0  0  0  0  0  0  0  0
    2.0230    0.1600   -0.7400 C   0  0  0  0  0  0  0  0  0  0  0  0
   -1.4700    2.8220    0.0810 C   0  0  0  0  0  0  0  0  0  0  0  0
   -2.7810    2.5560   -0.1870 C   0  0  0  0  0  0  0  0  0  0  0  0
   -3.1820    1.2870   -0.4010 N   0  0  0  0  0  0  0  0  0  0  0  0
  1  2  1  0
  2  3  2  0
  2  7  1  0
  3  4  1  0
  4  5  2  0
  5  6  1  0
  5 10  1  0
  6  7  2  0
  6  8  1  0
  8  9  1  0
  9 10  1  0
 10 11  1  0
 11 12  1  0
 12 13  1  0
 13 14  1  0
 14 15  2  0
 14 38  1  0
 15 16  1  0
 16 17  1  0
 16 36  2  0
 17 18  2  0
 17 19  1  0
 19 20  1  0
 19 35  1  0
 20 21  1  0
 21 22  1  0
 22 23  1  0
 22 34  1  0
 23 24  1  0
 24 25  2  0
 24 33  1  0
 25 26  1  0
 26 27  1  0
 26 28  2  0
 28 29  1  0
 29 30  1  0
 29 33  2  0
 30 31  1  0
 30 32  1  0
 34 35  1  0
 36 37  1  0
 37 38  2  0
M  CHG  2  33   1  38   1
M  END
