
     RDKit          3D

 38 42  0  0  0  0  0  0  0  0999 V2000
   -8.2630   -1.6490   -3.3190 N   0  0  0  0  0  0  0  0  0  0  0  0
   -8.3820   -1.0580   -2.2460 C   0  0  0  0  0  0  0  0  0  0  0  0
   -8.5470   -0.2960   -0.8590 C   0  0  0  0  0  0  0  0  0  0  0  0
   -9.9280    0.3360   -1.0040 C   0  0  0  0  0  0  0  0  0  0  0  0
  -10.1890    1.0290    0.1990 C   0  0  0  0  0  0  0  0  0  0  0  0
   -9.3210    1.0420    1.2530 C   0  0  0  0  0  0  0  0  0  0  0  0
   -8.1130    0.3860    1.2360 C   0  0  0  0  0  0  0  0  0  0  0  0
   -7.8230   -0.3060    0.0220 C   0  0  0  0  0  0  0  0  0  0  0  0
   -6.5730   -1.2010    0.0830 C   0  0  0  0  0  0  0  0  0  0  0  0
   -5.6050   -0.1530   -0.1450 N   0  0  2  0  0  0  0  0  0  0  0  0
   -4.4100   -0.7890   -0.5750 C   0  0  0  0  0  0  0  0  0  0  0  0
   -3.6300   -1.0660    0.7130 C   0  0  0  0  0  0  0  0  0  0  0  0
   -3.1770    0.3490    1.1420 C   0  0  1  0  0  0  0  0  0  0  0  0
   -2.1440    0.6190    0.1510 N   0  0  0  0  0  0  0  0  0  0  0  0
   -2.3470    1.2240   -0.9720 N   0  0  0  0  0  0  0  0  0  0  0  0
   -1.4590    1.3090   -1.9710 C   0  0  0  0  0  0  0  0  0  0  0  0
   -0.2130    0.7190   -1.7940 C   0  0  0  0  0  0  0  0  0  0  0  0
    0.0340    0.0830   -0.5780 C   0  0  0  0  0  0  0  0  0  0  0  0
    1.3500   -0.4260   -0.3400 N   0  0  0  0  0  0  0  0  0  0  0  0
    2.0080   -1.0870   -1.4320 C   0  0  0  0  0  0  0  0  0  0  0  0
    3.0980   -2.0340   -0.9940 C   0  0  0  0  0  0  0  0  0  0  0  0
    3.9020   -1.4580    0.0300 N   0  0  1  0  0  0  0  0  0  0  0  0
    4.7010   -0.3590   -0.4860 C   0  0  0  0  0  0  0  0  0  0  0  0
    6.0840   -0.5060    0.1660 C   0  0  0  0  0  0  0  0  0  0  0  0
    7.0350   -0.7040   -0.9450 N   0  0  0  0  0  0  0  0  0  0  0  0
    7.3820    0.6880   -1.3110 C   0  0  0  0  0  0  0  0  0  0  0  0
    8.6760    0.9160   -0.5490 C   0  0  0  0  0  0  0  0  0  0  0  0
    9.5960    1.7210   -1.0140 C   0  0  0  0  0  0  0  0  0  0  0  0
   10.7470    1.6870   -0.0560 C   0  0  0  0  0  0  0  0  0  0  0  0
   10.3670    0.6980    0.9750 C   0  0  0  0  0  0  0  0  0  0  0  0
   11.4370    0.1250    2.2110 Cl  0  0  0  0  0  0  0  0  0  0  0  0
    9.1300    0.2790    0.6740 C   0  0  0  0  0  0  0  0  0  0  0  0
    3.1320   -1.1110    1.2000 C   0  0  0  0  0  0  0  0  0  0  0  0
    2.0180   -0.1540    0.8820 C   0  0  0  0  0  0  0  0  0  0  0  0
   -0.9150    0.0270    0.3730 C   0  0  0  0  0  0  0  0  0  0  0  0
   -0.7840   -0.5640    1.4670 O   0  0  0  0  0  0  0  0  0  0  0  0
   -4.1740    1.4290    1.0200 C   0  0  0  0  0  0  0  0  0  0  0  0
   -5.5870    0.8350    0.8290 C   0  0  0  0  0  0  0  0  0  0  0  0
  1  2  3  0
  2  3  1  0
  3  4  2  0
  3  8  1  0
  4  5  1  0
  5  6  2  0
  6  7  1  0
  7  8  2  0
  8  9  1  0
 10  9  1  1
 10 11  1  0
 10 38  1  0
 11 12  1  0
 12 13  1  0
 13 14  1  6
 13 37  1  0
 14 15  1  0
 14 35  1  0
 15 16  2  0
 16 17  1  0
 17 18  2  0
 18 19  1  0
 18 35  1  0
 19 20  1  0
 19 34  1  0
 20 21  1  0
 21 22  1  0
 22 23  1  6
 22 33  1  0
 23 24  1  0
 24 25  1  0
 25 26  1  0
 26 27  1  0
 27 28  2  0
 27 32  1  0
 28 29  1  0
 29 30  1  0
 30 31  1  0
 30 32  2  0
 33 34  1  0
 35 36  2  0
 37 38  1  0
M  CHG  2  10   1  22   1
M  END
