
     RDKit          3D

 38 42  0  0  0  0  0  0  0  0999 V2000
   -6.4470   -2.7820   -0.0450 C   0  0  0  0  0  0  0  0  0  0  0  0
   -7.2770   -1.6010   -0.3090 C   0  0  0  0  0  0  0  0  0  0  0  0
   -8.5170   -1.8540   -0.7610 C   0  0  0  0  0  0  0  0  0  0  0  0
   -9.6890   -1.0930   -1.1600 C   0  0  0  0  0  0  0  0  0  0  0  0
  -10.0660    0.1580   -0.9890 C   0  0  0  0  0  0  0  0  0  0  0  0
   -9.4710    1.2770   -0.3400 N   0  0  0  0  0  0  0  0  0  0  0  0
   -8.2870    1.5480    0.0900 C   0  0  0  0  0  0  0  0  0  0  0  0
   -8.2070    2.9030    0.7070 C   0  0  0  0  0  0  0  0  0  0  0  0
   -6.9720    0.8820    0.1420 C   0  0  0  0  0  0  0  0  0  0  0  0
   -6.5500   -0.3680   -0.0140 C   0  0  0  0  0  0  0  0  0  0  0  0
   -5.1480   -0.5600    0.1270 N   0  0  0  0  0  0  0  0  0  0  0  0
   -4.4430   -0.5020   -1.1450 C   0  0  0  0  0  0  0  0  0  0  0  0
   -3.1690   -1.2780   -1.0250 C   0  0  0  0  0  0  0  0  0  0  0  0
   -2.1980   -0.4460   -0.2510 C   0  0  0  0  0  0  0  0  0  0  0  0
   -0.9650   -0.2440   -0.6950 N   0  0  0  0  0  0  0  0  0  0  0  0
   -0.3330    0.5410    0.2150 C   0  0  0  0  0  0  0  0  0  0  0  0
    1.0840    1.0020    0.0860 C   0  0  0  0  0  0  0  0  0  0  0  0
    1.9390   -0.0490    0.7570 C   0  0  0  0  0  0  0  0  0  0  0  0
    3.3540    0.2790    0.7030 N   0  0  1  0  0  0  0  0  0  0  0  0
    4.0820   -0.8950    1.1020 C   0  0  0  0  0  0  0  0  0  0  0  0
    5.5430   -0.8480    0.7990 C   0  0  0  0  0  0  0  0  0  0  0  0
    5.7180   -0.5380   -0.6630 C   0  0  2  0  0  0  0  0  0  0  0  0
    7.2000   -0.5500   -0.9620 C   0  0  0  0  0  0  0  0  0  0  0  0
    7.6490   -1.3570   -1.8080 O   0  0  0  0  0  0  0  0  0  0  0  0
    8.0660    0.3310   -0.3000 N   0  0  0  0  0  0  0  0  0  0  0  0
    9.4610    0.4360   -0.4720 C   0  0  0  0  0  0  0  0  0  0  0  0
   10.2460   -0.2880   -1.3200 C   0  0  0  0  0  0  0  0  0  0  0  0
   11.5940   -0.1120   -1.4140 N   0  0  0  0  0  0  0  0  0  0  0  0
   12.2540    0.7910   -0.6760 C   0  0  0  0  0  0  0  0  0  0  0  0
   11.5100    1.5520    0.2000 C   0  0  0  0  0  0  0  0  0  0  0  0
   12.3540    2.7350    1.1720 Cl  0  0  0  0  0  0  0  0  0  0  0  0
   10.1440    1.3800    0.3010 C   0  0  0  0  0  0  0  0  0  0  0  0
    5.1290    0.8300   -0.9120 C   0  0  0  0  0  0  0  0  0  0  0  0
    3.6590    0.7480   -0.6130 C   0  0  0  0  0  0  0  0  0  0  0  0
   -1.2430    0.7960    1.2170 C   0  0  0  0  0  0  0  0  0  0  0  0
   -2.4020    0.1710    0.9080 N   0  0  0  0  0  0  0  0  0  0  0  0
   -3.5480    0.2650    1.7900 C   0  0  0  0  0  0  0  0  0  0  0  0
   -4.5890   -0.7810    1.4370 C   0  0  0  0  0  0  0  0  0  0  0  0
  1  2  1  0
  2  3  2  0
  2 10  1  0
  3  4  1  0
  4  5  2  0
  5  6  1  0
  6  7  2  0
  7  8  1  0
  7  9  1  0
  9 10  2  0
 10 11  1  0
 11 12  1  0
 11 38  1  0
 12 13  1  0
 13 14  1  0
 14 15  2  0
 14 36  1  0
 15 16  1  0
 16 17  1  0
 16 35  2  0
 17 18  1  0
 19 18  1  6
 19 20  1  0
 19 34  1  0
 20 21  1  0
 21 22  1  0
 22 23  1  1
 22 33  1  0
 23 24  2  0
 23 25  1  0
 25 26  1  0
 26 27  2  0
 26 32  1  0
 27 28  1  0
 28 29  2  0
 29 30  1  0
 30 31  1  0
 30 32  2  0
 33 34  1  0
 35 36  1  0
 36 37  1  0
 37 38  1  0
M  CHG  2  15   1  19   1
M  END
