
     RDKit          3D

 21 20  0  0  0  0  0  0  0  0999 V2000
    0.5920   -1.2500    1.2290 C   0  0  0  0  0  0  0  0  0  0  0  0
   -0.8470   -1.0650    0.9210 C   0  0  0  0  0  0  0  0  0  0  0  0
   -1.7010   -1.9900    1.4390 O   0  0  0  0  0  0  0  0  0  0  0  0
   -1.2480   -0.0590    0.1880 C   0  0  0  0  0  0  0  0  0  0  0  0
   -0.2990    0.9080   -0.3470 C   0  0  0  0  0  0  0  0  0  0  0  0
   -0.4900    1.9040   -1.0480 O   0  0  0  0  0  0  0  0  0  0  0  0
    1.0870    0.7400   -0.0560 O   0  0  0  0  0  0  0  0  0  0  0  0
    2.0540    1.6430   -0.5450 C   0  0  0  0  0  0  0  0  0  0  0  0
    3.3940    1.1180   -0.0160 C   0  0  0  0  0  0  0  0  0  0  0  0
    3.6410   -0.1880   -0.4840 O   0  0  0  0  0  0  0  0  0  0  0  0
    4.8240   -0.7890   -0.0810 C   0  0  0  0  0  0  0  0  0  0  0  0
    4.8820   -2.0360    0.3460 C   0  0  0  0  0  0  0  0  0  0  0  0
    6.0960   -2.5750    0.7330 O   0  0  0  0  0  0  0  0  0  0  0  0
    6.0610    0.0470   -0.1510 C   0  0  0  0  0  0  0  0  0  0  0  0
    6.2610    0.5240   -1.8540 Cl  0  0  0  0  0  0  0  0  0  0  0  0
   -2.7340    0.0610   -0.0720 C   0  0  0  0  0  0  0  0  0  0  0  0
   -3.1300    1.0560   -0.8020 C   0  0  0  0  0  0  0  0  0  0  0  0
   -4.4040    1.4400   -1.2200 N   0  0  0  0  0  0  0  0  0  0  0  0
   -4.9410    2.3800   -0.3920 O   0  0  0  0  0  0  0  0  0  0  0  0
   -3.6080   -0.9420    0.5320 C   0  0  0  0  0  0  0  0  0  0  0  0
   -5.0120   -0.8160    0.3120 N   0  0  0  0  0  0  0  0  0  0  0  0
  1  2  1  0
  2  3  1  0
  2  4  2  3
  4  5  1  0
  4 16  1  0
  5  6  2  0
  5  7  1  0
  7  8  1  0
  8  9  1  0
  9 10  1  0
 10 11  1  0
 11 12  2  3
 11 14  1  0
 12 13  1  0
 14 15  1  0
 16 17  2  3
 16 20  1  0
 17 18  1  0
 18 19  1  0
 20 21  1  0
M  CHG  3  13  -1  18   1  21   1
M  END
