
     RDKit          3D

 21 21  0  0  0  0  0  0  0  0999 V2000
   -1.9050   -1.7000    2.9890 C   0  0  0  0  0  0  0  0  0  0  0  0
   -1.4580   -1.8030    1.5360 C   0  0  0  0  0  0  0  0  0  0  0  0
   -1.1770   -2.8290    0.9910 O   0  0  0  0  0  0  0  0  0  0  0  0
   -1.4310   -0.5630    0.9780 O   0  0  0  0  0  0  0  0  0  0  0  0
   -1.1540   -0.0360   -0.2740 C   0  0  0  0  0  0  0  0  0  0  0  0
   -2.3780    0.3760   -0.9420 C   0  0  0  0  0  0  0  0  0  0  0  0
   -3.4880   -0.3950   -0.3800 C   0  0  0  0  0  0  0  0  0  0  0  0
   -4.5170    0.2590    0.3020 N   0  0  0  0  0  0  0  0  0  0  0  0
   -4.3590    1.5000    0.4960 O   0  0  0  0  0  0  0  0  0  0  0  0
   -5.5890   -0.4720    0.7860 O   0  0  0  0  0  0  0  0  0  0  0  0
   -2.2980    1.0180   -2.1460 C   0  0  0  0  0  0  0  0  0  0  0  0
   -1.0440    1.2490   -2.7050 C   0  0  0  0  0  0  0  0  0  0  0  0
   -0.9690    2.4070   -4.1020 Cl  0  0  0  0  0  0  0  0  0  0  0  0
    0.0870    0.8400   -2.1120 C   0  0  0  0  0  0  0  0  0  0  0  0
    1.3450    1.0210   -2.6960 O   0  0  0  0  0  0  0  0  0  0  0  0
    0.0650    0.1640   -0.8230 C   0  0  0  0  0  0  0  0  0  0  0  0
    1.1560   -0.2260   -0.2020 O   0  0  0  0  0  0  0  0  0  0  0  0
    2.4480    0.2810   -0.0940 C   0  0  1  0  0  0  0  0  0  0  0  0
    2.3400    1.4720    0.9100 C   0  0  0  0  0  0  0  0  0  0  0  0
    3.3870   -0.7770    0.4220 C   0  0  0  0  0  0  0  0  0  0  0  0
    4.7640   -0.3060    0.3220 N   0  0  0  0  0  0  0  0  0  0  0  0
  1  2  1  0
  2  3  2  0
  2  4  1  0
  4  5  1  0
  5  6  2  0
  5 16  1  0
  6  7  1  0
  6 11  1  0
  7  8  1  0
  8  9  2  0
  8 10  1  0
 11 12  2  0
 12 13  1  0
 12 14  1  0
 14 15  1  0
 14 16  2  0
 16 17  1  0
 17 18  1  0
 18 19  1  1
 18 20  1  0
 20 21  1  0
M  CHG  3   8   1  10  -1  21   1
M  END
