
     RDKit          3D

 21 21  0  0  0  0  0  0  0  0999 V2000
   -3.3690   -2.6170    0.9150 C   0  0  0  0  0  0  0  0  0  0  0  0
   -2.7740   -1.6920    0.0160 O   0  0  0  0  0  0  0  0  0  0  0  0
   -3.3890   -0.4830   -0.2700 C   0  0  0  0  0  0  0  0  0  0  0  0
   -4.5930   -0.1590    0.3180 C   0  0  0  0  0  0  0  0  0  0  0  0
   -5.2070    1.0560    0.0290 C   0  0  0  0  0  0  0  0  0  0  0  0
   -6.4250    1.4020    0.6130 O   0  0  0  0  0  0  0  0  0  0  0  0
   -4.6030    1.9290   -0.8470 C   0  0  0  0  0  0  0  0  0  0  0  0
   -5.3480    3.4840   -1.2440 Cl  0  0  0  0  0  0  0  0  0  0  0  0
   -3.4160    1.5880   -1.4150 C   0  0  0  0  0  0  0  0  0  0  0  0
   -2.8090    0.4000   -1.1360 C   0  0  0  0  0  0  0  0  0  0  0  0
   -1.5790    0.1030   -1.7560 O   0  0  0  0  0  0  0  0  0  0  0  0
   -0.3910    0.4780   -1.1330 C   0  0  0  0  0  0  0  0  0  0  0  0
   -0.4710    1.0660   -0.0420 O   0  0  0  0  0  0  0  0  0  0  0  0
    0.8510    0.2270   -1.6700 O   0  0  0  0  0  0  0  0  0  0  0  0
    2.0820    0.5780   -1.0850 C   0  0  0  0  0  0  0  0  0  0  0  0
    2.2610   -0.1120    0.2410 C   0  0  1  0  0  0  0  0  0  0  0  0
    2.2200   -1.5410   -0.0340 N   0  0  0  0  0  0  0  0  0  0  0  0
    3.5290    0.2880    0.9240 C   0  0  0  0  0  0  0  0  0  0  0  0
    4.7310   -0.0510    0.0930 C   0  0  0  0  0  0  0  0  0  0  0  0
    5.9060    0.3740    0.8580 N   0  0  0  0  0  0  0  0  0  0  0  0
    6.4000   -0.6300    1.5940 O   0  0  0  0  0  0  0  0  0  0  0  0
  1  2  1  0
  2  3  1  0
  3  4  2  0
  3 10  1  0
  4  5  1  0
  5  6  1  0
  5  7  2  0
  7  8  1  0
  7  9  1  0
  9 10  2  0
 10 11  1  0
 11 12  1  0
 12 13  2  0
 12 14  1  0
 14 15  1  0
 15 16  1  0
 16 17  1  6
 16 18  1  0
 18 19  1  0
 19 20  1  0
 20 21  1  0
M  CHG  3  17   1  20   1  21  -1
M  END
