
     RDKit          3D

 21 21  0  0  0  0  0  0  0  0999 V2000
   -3.3230    3.8040    0.5030 C   0  0  0  0  0  0  0  0  0  0  0  0
   -2.1840    3.1950    0.0530 O   0  0  0  0  0  0  0  0  0  0  0  0
   -1.7500    1.9080    0.1620 C   0  0  0  0  0  0  0  0  0  0  0  0
   -2.5360    1.1380    0.8020 O   0  0  0  0  0  0  0  0  0  0  0  0
   -0.4930    1.4480   -0.4170 C   0  0  0  0  0  0  0  0  0  0  0  0
   -0.1800   -0.0000   -0.3330 C   0  0  1  0  0  0  0  0  0  0  0  0
   -1.1080   -0.8340   -0.9750 N   0  0  0  0  0  0  0  0  0  0  0  0
   -1.2590   -2.1220   -0.3080 C   0  0  0  0  0  0  0  0  0  0  0  0
   -2.5000   -2.1680    0.5910 C   0  0  0  0  0  0  0  0  0  0  0  0
   -3.6060   -1.9390   -0.2680 O   0  0  0  0  0  0  0  0  0  0  0  0
    1.2480   -0.2690   -0.3360 C   0  0  0  0  0  0  0  0  0  0  0  0
    2.0260    0.4970    0.5610 C   0  0  0  0  0  0  0  0  0  0  0  0
    3.3900    0.2420    0.7210 C   0  0  0  0  0  0  0  0  0  0  0  0
    4.1650    0.9920    1.6280 N   0  0  0  0  0  0  0  0  0  0  0  0
    5.3780    0.8370    1.7050 O   0  0  0  0  0  0  0  0  0  0  0  0
    3.5420    1.8970    2.4200 O   0  0  0  0  0  0  0  0  0  0  0  0
    4.0010   -0.7670    0.0040 C   0  0  0  0  0  0  0  0  0  0  0  0
    3.2640   -1.5120   -0.8560 C   0  0  0  0  0  0  0  0  0  0  0  0
    3.8940   -2.5300   -1.5630 O   0  0  0  0  0  0  0  0  0  0  0  0
    1.9030   -1.2370   -1.0010 C   0  0  0  0  0  0  0  0  0  0  0  0
    1.0410   -2.1920   -2.1610 Cl  0  0  0  0  0  0  0  0  0  0  0  0
  1  2  1  0
  2  3  1  0
  3  4  2  0
  3  5  1  0
  6  5  1  6
  6  7  1  0
  6 11  1  0
  7  8  1  0
  8  9  1  0
  9 10  1  0
 11 12  2  0
 11 20  1  0
 12 13  1  0
 13 14  1  0
 13 17  2  0
 14 15  2  0
 14 16  1  0
 17 18  1  0
 18 19  1  0
 18 20  2  0
 20 21  1  0
M  CHG  3   7   1  14   1  16  -1
M  END
