
     RDKit          3D

 21 21  0  0  0  0  0  0  0  0999 V2000
   -4.7190    1.7970    0.1070 N   0  0  0  0  0  0  0  0  0  0  0  0
   -3.3370    1.3530    0.0840 C   0  0  0  0  0  0  0  0  0  0  0  0
   -3.2910   -0.1170   -0.2330 C   0  0  2  0  0  0  0  0  0  0  0  0
   -4.0060   -0.9100    0.7440 N   0  0  0  0  0  0  0  0  0  0  0  0
   -3.5530   -2.2120    1.0560 C   0  0  0  0  0  0  0  0  0  0  0  0
   -3.8700   -2.7770    2.1580 O   0  0  0  0  0  0  0  0  0  0  0  0
   -2.6930   -2.9560    0.0980 C   0  0  0  0  0  0  0  0  0  0  0  0
   -1.7700   -2.0200   -0.4340 O   0  0  0  0  0  0  0  0  0  0  0  0
   -1.9150   -0.6490   -0.2740 C   0  0  0  0  0  0  0  0  0  0  0  0
   -0.8690    0.1880   -0.1580 C   0  0  0  0  0  0  0  0  0  0  0  0
    0.4660   -0.3070   -0.1960 C   0  0  0  0  0  0  0  0  0  0  0  0
    0.5860   -1.5800   -0.3450 O   0  0  0  0  0  0  0  0  0  0  0  0
    1.6750    0.4920   -0.0820 C   0  0  0  0  0  0  0  0  0  0  0  0
    1.6770    1.7980    0.0720 C   0  0  0  0  0  0  0  0  0  0  0  0
    0.4900    2.5200    0.1390 O   0  0  0  0  0  0  0  0  0  0  0  0
    2.9020   -0.2730   -0.1540 N   0  0  0  0  0  0  0  0  0  0  0  0
    4.1970    0.2510   -0.0710 C   0  0  0  0  0  0  0  0  0  0  0  0
    4.3880    1.4620    0.0750 O   0  0  0  0  0  0  0  0  0  0  0  0
    5.3770   -0.7080   -0.1660 C   0  0  0  0  0  0  0  0  0  0  0  0
    6.6260    0.1100   -0.0490 C   0  0  0  0  0  0  0  0  0  0  0  0
    8.0220   -0.9880   -0.1580 Cl  0  0  0  0  0  0  0  0  0  0  0  0
  1  2  1  0
  3  2  1  1
  3  4  1  0
  3  9  1  0
  4  5  1  0
  5  6  2  0
  5  7  1  0
  7  8  1  0
  8  9  1  0
  9 10  2  3
 10 11  1  0
 11 12  2  0
 11 13  1  0
 13 14  2  3
 13 16  1  0
 14 15  1  0
 16 17  1  0
 17 18  2  0
 17 19  1  0
 19 20  1  0
 20 21  1  0
M  CHG  1   1   1
M  END
