
     RDKit          3D

 21 22  0  0  0  0  0  0  0  0999 V2000
    0.3410   -1.9440   -0.6110 N   0  0  0  0  0  0  0  0  0  0  0  0
   -0.6480   -0.9270   -0.4540 C   0  0  1  0  0  0  0  0  0  0  0  0
   -1.9410   -1.6300   -0.0070 C   0  0  0  0  0  0  0  0  0  0  0  0
   -2.8880   -0.6200    0.1390 O   0  0  0  0  0  0  0  0  0  0  0  0
   -4.0800   -1.2110    0.5450 C   0  0  0  0  0  0  0  0  0  0  0  0
   -5.1190   -0.1210    0.7080 C   0  0  2  0  0  0  0  0  0  0  0  0
   -4.8060    1.1990    0.1820 C   0  0  0  0  0  0  0  0  0  0  0  0
   -4.7970    0.8420    1.6350 O   0  0  0  0  0  0  0  0  0  0  0  0
   -0.3200    0.2070    0.4700 C   0  0  0  0  0  0  0  0  0  0  0  0
    0.7170    0.9940    0.2220 O   0  0  0  0  0  0  0  0  0  0  0  0
    2.0280    1.0670    0.1150 C   0  0  0  0  0  0  0  0  0  0  0  0
    2.9010    0.0220    0.3310 C   0  0  0  0  0  0  0  0  0  0  0  0
    4.2620    0.2050    0.1880 C   0  0  0  0  0  0  0  0  0  0  0  0
    5.1200   -0.8990    0.4200 N   0  0  0  0  0  0  0  0  0  0  0  0
    4.6670   -2.0190    0.7470 O   0  0  0  0  0  0  0  0  0  0  0  0
    6.4820   -0.7760    0.2930 O   0  0  0  0  0  0  0  0  0  0  0  0
    4.8100    1.4090   -0.1680 C   0  0  0  0  0  0  0  0  0  0  0  0
    3.9340    2.4510   -0.3820 C   0  0  0  0  0  0  0  0  0  0  0  0
    4.5780    4.0240   -0.8420 Cl  0  0  0  0  0  0  0  0  0  0  0  0
    2.5860    2.3140   -0.2530 C   0  0  0  0  0  0  0  0  0  0  0  0
    1.7470    3.4030   -0.4820 O   0  0  0  0  0  0  0  0  0  0  0  0
  2  1  1  1
  2  3  1  0
  2  9  1  0
  3  4  1  0
  4  5  1  0
  6  5  1  6
  6  7  1  0
  6  8  1  0
  7  8  1  0
  9 10  1  0
 10 11  1  0
 11 12  2  0
 11 20  1  0
 12 13  1  0
 13 14  1  0
 13 17  2  0
 14 15  2  0
 14 16  1  0
 17 18  1  0
 18 19  1  0
 18 20  2  0
 20 21  1  0
M  CHG  3   1   1  14   1  16  -1
M  END
