
     RDKit          3D

 20 20  0  0  0  0  0  0  0  0999 V2000
   -2.6150   -3.2400   -0.1530 C   0  0  0  0  0  0  0  0  0  0  0  0
   -1.6130   -2.2980    0.0720 O   0  0  0  0  0  0  0  0  0  0  0  0
   -1.9510   -0.9480    0.2370 C   0  0  0  0  0  0  0  0  0  0  0  0
   -3.2720   -0.5440    0.1780 C   0  0  0  0  0  0  0  0  0  0  0  0
   -3.6800    0.7560    0.3290 C   0  0  0  0  0  0  0  0  0  0  0  0
   -2.7300    1.7270    0.5540 C   0  0  0  0  0  0  0  0  0  0  0  0
   -3.0960    3.0870    0.7170 N   0  0  0  0  0  0  0  0  0  0  0  0
   -4.3000    3.3850    0.6530 O   0  0  0  0  0  0  0  0  0  0  0  0
   -2.1960    4.0940    0.9430 O   0  0  0  0  0  0  0  0  0  0  0  0
   -1.3870    1.3380    0.6170 C   0  0  0  0  0  0  0  0  0  0  0  0
   -1.0100    0.0250    0.4610 C   0  0  0  0  0  0  0  0  0  0  0  0
    0.3650   -0.3310    0.5320 N   0  0  0  0  0  0  0  0  0  0  0  0
    1.0630   -0.2290   -0.6940 C   0  0  1  0  0  0  0  0  0  0  0  0
    0.1380    0.1640   -1.8570 C   0  0  0  0  0  0  0  0  0  0  0  0
    0.9680    0.2230   -2.9900 O   0  0  0  0  0  0  0  0  0  0  0  0
    2.2820    0.6150   -0.7350 C   0  0  1  0  0  0  0  0  0  0  0  0
    2.0680    1.9430   -0.3840 O   0  0  0  0  0  0  0  0  0  0  0  0
    3.5090    0.0570   -0.0830 C   0  0  0  0  0  0  0  0  0  0  0  0
    3.4110   -0.2480    1.3640 C   0  0  0  0  0  0  0  0  0  0  0  0
    4.6360   -0.7470    1.8710 O   0  0  0  0  0  0  0  0  0  0  0  0
  1  2  1  0
  2  3  1  0
  3  4  2  0
  3 11  1  0
  4  5  1  0
  5  6  2  0
  6  7  1  0
  6 10  1  0
  7  8  2  0
  7  9  1  0
 10 11  2  0
 11 12  1  0
 12 13  1  0
 13 14  1  6
 13 16  1  0
 14 15  1  0
 16 17  1  1
 16 18  1  0
 18 19  1  0
 19 20  1  0
M  CHG  3   7   1   9  -1  12   1
M  END
