
     RDKit          3D

 24 27  0  0  0  0  0  0  0  0999 V2000
   -0.1600   -1.8250   -2.4330 C   0  0  0  0  0  0  0  0  0  0  0  0
   -0.1130   -2.2650   -0.9900 C   0  0  0  0  0  0  0  0  0  0  0  0
    0.1740   -1.1920   -0.0520 N   0  0  0  0  0  0  0  0  0  0  0  0
    1.5480   -1.1470    0.4300 C   0  0  0  0  0  0  0  0  0  0  0  0
    2.2960   -2.2990    0.5990 C   0  0  0  0  0  0  0  0  0  0  0  0
    3.6060   -2.1880    1.0720 C   0  0  0  0  0  0  0  0  0  0  0  0
    4.3370   -3.3840    1.2400 N   0  0  0  0  0  0  0  0  0  0  0  0
    4.1150   -0.9480    1.3560 C   0  0  0  0  0  0  0  0  0  0  0  0
    3.3860    0.2180    1.1980 C   0  0  0  0  0  0  0  0  0  0  0  0
    2.1060    0.0850    0.7340 C   0  0  0  0  0  0  0  0  0  0  0  0
    1.2690    1.2970    0.5820 C   0  0  0  0  0  0  0  0  0  0  0  0
    1.8650    2.5530    0.6500 C   0  0  0  0  0  0  0  0  0  0  0  0
    1.0880    3.6400    0.2980 C   0  0  0  0  0  0  0  0  0  0  0  0
   -0.2180    3.5280   -0.1080 C   0  0  0  0  0  0  0  0  0  0  0  0
   -0.9840    4.6770   -0.4550 N   0  0  0  0  0  0  0  0  0  0  0  0
   -0.8010    2.2660   -0.1700 C   0  0  0  0  0  0  0  0  0  0  0  0
   -0.0430    1.1820    0.1820 C   0  0  0  0  0  0  0  0  0  0  0  0
   -0.6880   -0.1690    0.3770 C   0  0  1  0  0  0  0  0  0  0  0  0
   -2.0990   -0.1750    0.0550 C   0  0  0  0  0  0  0  0  0  0  0  0
   -3.0410   -0.3160    1.0920 C   0  0  0  0  0  0  0  0  0  0  0  0
   -4.3880   -0.3100    0.9240 C   0  0  0  0  0  0  0  0  0  0  0  0
   -4.9040   -0.1600   -0.3280 C   0  0  0  0  0  0  0  0  0  0  0  0
   -4.0380   -0.0170   -1.3890 C   0  0  0  0  0  0  0  0  0  0  0  0
   -2.6560   -0.0240   -1.1940 C   0  0  0  0  0  0  0  0  0  0  0  0
  1  2  1  0
  2  3  1  0
  3  4  1  0
  3 18  1  0
  4  5  2  0
  4 10  1  0
  5  6  1  0
  6  7  1  0
  6  8  2  0
  8  9  1  0
  9 10  2  0
 10 11  1  0
 11 12  2  0
 11 17  1  0
 12 13  1  0
 13 14  2  0
 14 15  1  0
 14 16  1  0
 16 17  2  0
 17 18  1  0
 18 19  1  6
 19 20  2  0
 19 24  1  0
 20 21  1  0
 21 22  2  0
 22 23  1  0
 23 24  2  0
M  END
