
     RDKit          3D

 20 20  0  0  0  0  0  0  0  0999 V2000
   -2.3780    3.6090   -0.2820 C   0  0  0  0  0  0  0  0  0  0  0  0
   -2.1650    2.2710    0.4260 C   0  0  0  0  0  0  0  0  0  0  0  0
   -1.6000    1.3250   -0.4500 O   0  0  0  0  0  0  0  0  0  0  0  0
   -1.2950    0.0310   -0.0590 C   0  0  0  0  0  0  0  0  0  0  0  0
   -2.3000   -0.9100   -0.1360 C   0  0  0  0  0  0  0  0  0  0  0  0
   -3.5570   -0.5320   -0.5920 O   0  0  0  0  0  0  0  0  0  0  0  0
   -4.6370   -1.4020   -0.7070 C   0  0  0  0  0  0  0  0  0  0  0  0
   -2.0930   -2.2140    0.2270 C   0  0  0  0  0  0  0  0  0  0  0  0
   -0.8090   -2.5420    0.6800 C   0  0  0  0  0  0  0  0  0  0  0  0
   -0.6370   -3.8540    1.0350 O   0  0  0  0  0  0  0  0  0  0  0  0
    0.2170   -1.6240    0.7670 C   0  0  0  0  0  0  0  0  0  0  0  0
    1.4640   -2.0000    1.2200 O   0  0  0  0  0  0  0  0  0  0  0  0
   -0.0150   -0.3160    0.3960 C   0  0  0  0  0  0  0  0  0  0  0  0
    0.9890    0.7370    0.4200 C   0  0  0  0  0  0  0  0  0  0  0  0
    2.3010    0.4340    0.8620 N   0  0  0  0  0  0  0  0  0  0  0  0
    3.1440   -0.2350   -0.0690 C   0  0  0  0  0  0  0  0  0  0  0  0
    4.0740    0.8130   -0.7070 C   0  0  0  0  0  0  0  0  0  0  0  0
    4.9540    0.1750   -1.6670 N   0  0  0  0  0  0  0  0  0  0  0  0
    6.1880    0.1810   -1.5900 O   0  0  0  0  0  0  0  0  0  0  0  0
    4.3900   -0.4890   -2.7440 O   0  0  0  0  0  0  0  0  0  0  0  0
  1  2  1  0
  2  3  1  0
  3  4  1  0
  4  5  2  0
  4 13  1  0
  5  6  1  0
  5  8  1  0
  6  7  1  0
  8  9  2  0
  9 10  1  0
  9 11  1  0
 11 12  1  0
 11 13  2  0
 13 14  1  0
 14 15  1  0
 15 16  1  0
 16 17  1  0
 17 18  1  0
 18 19  2  0
 18 20  1  0
M  CHG  3  15   1  18   1  20  -1
M  END
