
     RDKit          3D

 19 21  0  0  0  0  0  0  0  0999 V2000
   -2.3520   -2.5810   -1.0400 N   0  0  0  0  0  0  0  0  0  0  0  0
   -1.5820   -1.7850   -0.4500 C   0  0  0  0  0  0  0  0  0  0  0  0
   -0.1080   -1.8160   -0.6400 C   0  0  0  0  0  0  0  0  0  0  0  0
    0.5010   -2.7640   -1.1720 O   0  0  0  0  0  0  0  0  0  0  0  0
    0.4260   -0.5650   -0.1360 C   0  0  0  0  0  0  0  0  0  0  0  0
    1.5490    0.0090   -0.2010 C   0  0  0  0  0  0  0  0  0  0  0  0
    2.8660   -0.3130   -0.8350 C   0  0  0  0  0  0  0  0  0  0  0  0
    3.7980   -0.3900    0.2090 O   0  0  0  0  0  0  0  0  0  0  0  0
    5.0610   -0.1730   -0.1230 O   0  0  0  0  0  0  0  0  0  0  0  0
   -0.7530    0.2230    0.3550 C   0  0  0  0  0  0  0  0  0  0  0  0
   -0.9010    1.4390    0.7210 N   0  0  0  0  0  0  0  0  0  0  0  0
   -1.1320    2.7640    1.1350 C   0  0  1  0  0  0  0  0  0  0  0  0
   -0.0740    3.9510    0.3910 Cl  0  0  0  0  0  0  0  0  0  0  0  0
   -2.2050    2.1130    0.3950 N   0  0  0  0  0  0  0  0  0  0  0  0
   -3.0080    1.1500   -0.1830 N   0  0  0  0  0  0  0  0  0  0  0  0
   -3.5010    1.4730   -1.7860 Cl  0  0  0  0  0  0  0  0  0  0  0  0
   -3.1280   -0.0610    0.2750 O   0  0  0  0  0  0  0  0  0  0  0  0
   -1.8930   -0.7210    0.4710 C   0  0  1  0  0  0  0  0  0  0  0  0
   -1.8730   -1.2570    1.7620 O   0  0  0  0  0  0  0  0  0  0  0  0
  1  2  2  0
  2  3  1  0
  2 18  1  0
  3  4  2  0
  3  5  1  0
  5  6  2  3
  5 10  1  0
  6  7  1  0
  7  8  1  0
  8  9  1  0
 10 11  2  0
 10 18  1  0
 11 12  1  0
 11 14  1  0
 12 13  1  6
 12 14  1  0
 14 15  1  0
 15 16  1  0
 15 17  1  0
 17 18  1  0
 18 19  1  1
M  CHG  1  11   1
M  END
