
     RDKit          3D

 25 26  0  0  0  0  0  0  0  0999 V2000
   -7.5580   -1.1350   -0.6770 C   0  0  0  0  0  0  0  0  0  0  0  0
   -6.7310   -0.2520    0.0150 O   0  0  0  0  0  0  0  0  0  0  0  0
   -5.3560   -0.3700   -0.0050 C   0  0  0  0  0  0  0  0  0  0  0  0
   -4.7860   -1.3780   -0.7200 C   0  0  0  0  0  0  0  0  0  0  0  0
   -3.4100   -1.4780   -0.7270 C   0  0  0  0  0  0  0  0  0  0  0  0
   -2.6350   -0.5770   -0.0240 C   0  0  0  0  0  0  0  0  0  0  0  0
   -1.1320   -0.6740   -0.0220 C   0  0  0  0  0  0  0  0  0  0  0  0
   -0.5960    0.1410   -1.1690 C   0  0  0  0  0  0  0  0  0  0  0  0
    0.8620    0.0550   -1.1870 N   0  0  0  0  0  0  0  0  0  0  0  0
    1.6850    0.4960   -0.1350 C   0  0  0  0  0  0  0  0  0  0  0  0
    1.1290    1.0000    0.8840 O   0  0  0  0  0  0  0  0  0  0  0  0
    3.1400    0.3760   -0.2150 C   0  0  0  0  0  0  0  0  0  0  0  0
    3.9200    0.7490    0.8910 C   0  0  0  0  0  0  0  0  0  0  0  0
    5.2920    0.6670    0.8920 C   0  0  0  0  0  0  0  0  0  0  0  0
    5.9840    0.2080   -0.2090 C   0  0  0  0  0  0  0  0  0  0  0  0
    7.7310    0.0950   -0.2280 S   0  0  1  0  0  0  0  0  0  0  0  0
    8.2750   -1.4410    0.3340 N   0  0  0  0  0  0  0  0  0  0  0  0
    8.2690    0.3040   -1.6240 O   0  0  0  0  0  0  0  0  0  0  0  0
    8.3680    1.1470    0.6400 O   0  0  0  0  0  0  0  0  0  0  0  0
    5.2300   -0.1620   -1.3010 C   0  0  0  0  0  0  0  0  0  0  0  0
    3.8320   -0.0790   -1.3040 C   0  0  0  0  0  0  0  0  0  0  0  0
   -3.2110    0.4560    0.7100 C   0  0  0  0  0  0  0  0  0  0  0  0
   -4.5870    0.5370    0.7020 C   0  0  0  0  0  0  0  0  0  0  0  0
   -5.2350    1.5290    1.4020 O   0  0  0  0  0  0  0  0  0  0  0  0
   -4.5500    2.5070    2.1570 C   0  0  0  0  0  0  0  0  0  0  0  0
  1  2  1  0
  2  3  1  0
  3  4  2  0
  3 23  1  0
  4  5  1  0
  5  6  2  0
  6  7  1  0
  6 22  1  0
  7  8  1  0
  8  9  1  0
  9 10  1  0
 10 11  2  0
 10 12  1  0
 12 13  2  0
 12 21  1  0
 13 14  1  0
 14 15  2  0
 15 16  1  0
 15 20  1  0
 16 17  1  1
 16 18  2  0
 16 19  2  0
 20 21  2  0
 22 23  2  0
 23 24  1  0
 24 25  1  0
M  END
