
     RDKit          3D

 19 20  0  0  0  0  0  0  0  0999 V2000
    1.8130    2.9250   -1.5260 C   0  0  0  0  0  0  0  0  0  0  0  0
    1.2290    1.8780   -0.9600 C   0  0  0  0  0  0  0  0  0  0  0  0
    1.8360    0.7970   -0.2560 N   0  0  0  0  0  0  0  0  0  0  0  0
    0.8730   -0.2280   -0.3050 N   0  0  0  0  0  0  0  0  0  0  0  0
    1.0200   -1.2120    0.7100 C   0  0  1  0  0  0  0  0  0  0  0  0
    1.9310   -2.3560    0.2930 C   0  0  0  0  0  0  0  0  0  0  0  0
    1.5690   -0.5920    1.8460 O   0  0  0  0  0  0  0  0  0  0  0  0
   -0.2380   -1.6830    1.1000 O   0  0  0  0  0  0  0  0  0  0  0  0
   -1.1450   -1.7190    0.0450 C   0  0  0  0  0  0  0  0  0  0  0  0
   -1.5760   -0.2620   -0.1970 C   0  0  1  0  0  0  0  0  0  0  0  0
   -2.1900   -0.0970   -1.5170 C   0  0  0  0  0  0  0  0  0  0  0  0
   -1.5420   -0.3280   -2.5150 O   0  0  0  0  0  0  0  0  0  0  0  0
   -2.4850    0.0560    0.8840 N   0  0  0  0  0  0  0  0  0  0  0  0
   -3.6480    0.3900    0.6870 O   0  0  0  0  0  0  0  0  0  0  0  0
   -2.0140   -0.0250    2.1690 O   0  0  0  0  0  0  0  0  0  0  0  0
   -0.3360    0.5540    0.0020 C   0  0  1  0  0  0  0  0  0  0  0  0
   -0.2620    1.0990    1.2790 O   0  0  0  0  0  0  0  0  0  0  0  0
   -0.1760    1.6280   -0.9500 N   0  0  0  0  0  0  0  0  0  0  0  0
   -1.3340    2.4750   -1.9000 Cl  0  0  0  0  0  0  0  0  0  0  0  0
  1  2  2  0
  2  3  1  0
  2 18  1  0
  3  4  1  0
  4  5  1  0
  4 16  1  0
  5  6  1  6
  5  7  1  0
  5  8  1  0
  8  9  1  0
  9 10  1  0
 10 11  1  6
 10 13  1  0
 10 16  1  0
 11 12  2  0
 13 14  2  0
 13 15  1  0
 16 17  1  1
 16 18  1  0
 18 19  1  0
M  CHG  1  13   1
M  END
