
     RDKit          3D

 19 21  0  0  0  0  0  0  0  0999 V2000
    3.7460    0.8270   -0.2500 C   0  0  0  0  0  0  0  0  0  0  0  0
    2.8070   -0.0740    0.4420 C   0  0  0  0  0  0  0  0  0  0  0  0
    3.2150   -0.6770    1.7260 C   0  0  0  0  0  0  0  0  0  0  0  0
    1.6340   -0.3190   -0.0930 C   0  0  0  0  0  0  0  0  0  0  0  0
    1.2170    0.2300   -1.2970 O   0  0  0  0  0  0  0  0  0  0  0  0
   -0.0710    0.5620   -1.4190 O   0  0  0  0  0  0  0  0  0  0  0  0
   -0.9300   -0.3970   -0.9620 C   0  0  2  0  0  0  0  0  0  0  0  0
   -0.8550   -1.5330   -1.8650 N   0  0  0  0  0  0  0  0  0  0  0  0
   -2.0170   -2.1980   -1.9480 O   0  0  0  0  0  0  0  0  0  0  0  0
   -2.3210    0.0860   -0.9930 C   0  0  0  0  0  0  0  0  0  0  0  0
   -3.2110   -0.1470   -2.0320 O   0  0  0  0  0  0  0  0  0  0  0  0
   -2.8110    0.8090    0.0340 C   0  0  0  0  0  0  0  0  0  0  0  0
   -3.0770    1.5840    1.3090 C   0  0  0  0  0  0  0  0  0  0  0  0
   -1.6900    1.0970    1.0730 C   0  0  2  0  0  0  0  0  0  0  0  0
   -0.7410    2.0290    0.6360 O   0  0  0  0  0  0  0  0  0  0  0  0
   -1.1950   -0.1920    1.3930 N   0  0  0  0  0  0  0  0  0  0  0  0
   -2.2340   -1.1380    2.3770 Cl  0  0  0  0  0  0  0  0  0  0  0  0
   -0.6150   -0.8720    0.3480 N   0  0  0  0  0  0  0  0  0  0  0  0
    0.7010   -1.1740    0.5310 O   0  0  0  0  0  0  0  0  0  0  0  0
  1  2  1  0
  2  3  1  0
  2  4  2  3
  4  5  1  0
  4 19  1  0
  5  6  1  0
  6  7  1  0
  7  8  1  6
  7 10  1  0
  7 18  1  0
  8  9  1  0
 10 11  1  0
 10 12  2  0
 12 13  1  0
 12 14  1  0
 13 14  1  0
 14 15  1  6
 14 16  1  0
 16 17  1  0
 16 18  1  0
 18 19  1  0
M  CHG  1   8   1
M  END
