
     RDKit          3D

 19 20  0  0  0  0  0  0  0  0999 V2000
    4.2110    1.9280    0.2900 C   0  0  0  0  0  0  0  0  0  0  0  0
    3.1160    1.1090    0.3800 O   0  0  0  0  0  0  0  0  0  0  0  0
    3.1460    0.0800   -0.4010 O   0  0  0  0  0  0  0  0  0  0  0  0
    2.1590   -0.8560   -0.1220 C   0  0  1  0  0  0  0  0  0  0  0  0
    2.1690   -2.0190   -0.9810 N   0  0  0  0  0  0  0  0  0  0  0  0
    2.3680   -1.3060    1.2070 O   0  0  0  0  0  0  0  0  0  0  0  0
    1.0410   -1.4660    1.2570 O   0  0  0  0  0  0  0  0  0  0  0  0
    0.9570   -0.4240    0.4380 N   0  0  0  0  0  0  0  0  0  0  0  0
   -0.2050   -0.1450   -0.2660 C   0  0  1  0  0  0  0  0  0  0  0  0
    0.0730    1.0170   -1.2280 C   0  0  0  0  0  0  0  0  0  0  0  0
   -0.9210   -1.2100   -0.9730 C   0  0  0  0  0  0  0  0  0  0  0  0
   -2.2110   -1.3340   -0.4460 O   0  0  0  0  0  0  0  0  0  0  0  0
   -2.5570   -0.1450    0.1410 C   0  0  2  0  0  0  0  0  0  0  0  0
   -3.5290   -0.4530    1.2820 C   0  0  0  0  0  0  0  0  0  0  0  0
   -3.1700    0.8550   -0.8070 C   0  0  0  0  0  0  0  0  0  0  0  0
   -1.2650    0.3370    0.7380 C   0  0  2  0  0  0  0  0  0  0  0  0
   -1.1950    2.0630    1.0140 Cl  0  0  0  0  0  0  0  0  0  0  0  0
   -1.0470   -0.3920    1.9540 N   0  0  0  0  0  0  0  0  0  0  0  0
   -0.8150    0.1350    2.9950 O   0  0  0  0  0  0  0  0  0  0  0  0
  1  2  1  0
  2  3  1  0
  3  4  1  0
  4  5  1  6
  4  6  1  0
  4  8  1  0
  6  7  1  0
  7  8  1  0
  8  9  1  0
  9 10  1  6
  9 11  1  0
  9 16  1  0
 11 12  1  0
 12 13  1  0
 13 14  1  1
 13 15  1  0
 13 16  1  0
 16 17  1  1
 16 18  1  0
 18 19  2  0
M  CHG  1   5   1
M  END
