
     RDKit          3D

 19 20  0  0  0  0  0  0  0  0999 V2000
   -3.1450   -0.5930    1.7170 C   0  0  0  0  0  0  0  0  0  0  0  0
   -2.4080    0.2350    0.6510 C   0  0  1  0  0  0  0  0  0  0  0  0
   -3.4610    1.0900   -0.0210 C   0  0  0  0  0  0  0  0  0  0  0  0
   -1.5050    1.0950    1.2330 O   0  0  0  0  0  0  0  0  0  0  0  0
   -0.2890    0.7910    1.3170 N   0  0  0  0  0  0  0  0  0  0  0  0
    0.4330    0.1480    0.2500 C   0  0  2  0  0  0  0  0  0  0  0  0
    1.5540    0.8130   -0.2240 O   0  0  0  0  0  0  0  0  0  0  0  0
    2.3010    0.2220   -1.1800 C   0  0  0  0  0  0  0  0  0  0  0  0
    3.4870    1.1260   -1.6000 C   0  0  1  0  0  0  0  0  0  0  0  0
    4.3010    1.3860   -0.5230 O   0  0  0  0  0  0  0  0  0  0  0  0
    4.2030    0.4120   -2.5540 O   0  0  0  0  0  0  0  0  0  0  0  0
   -0.5380   -0.3050   -0.8100 C   0  0  1  0  0  0  0  0  0  0  0  0
   -0.6250    0.7810   -1.8650 C   0  0  0  0  0  0  0  0  0  0  0  0
   -0.0690   -1.5710   -1.5380 C   0  0  0  0  0  0  0  0  0  0  0  0
   -1.8430   -0.6410   -0.3030 N   0  0  0  0  0  0  0  0  0  0  0  0
   -2.8690   -1.0000   -1.6550 Cl  0  0  0  0  0  0  0  0  0  0  0  0
    0.4180   -0.3870    1.6010 C   0  0  1  0  0  0  0  0  0  0  0  0
    1.6090   -0.1650    2.4200 N   0  0  0  0  0  0  0  0  0  0  0  0
   -0.2080   -1.5910    1.8840 O   0  0  0  0  0  0  0  0  0  0  0  0
  2  1  1  1
  2  3  1  0
  2  4  1  0
  2 15  1  0
  4  5  1  0
  5  6  1  0
  5 17  1  0
  6  7  1  6
  6 12  1  0
  6 17  1  0
  7  8  1  0
  8  9  1  0
  9 10  1  1
  9 11  1  0
 12 13  1  6
 12 14  1  0
 12 15  1  0
 15 16  1  0
 17 18  1  1
 17 19  1  0
M  CHG  1  18   1
M  END
