
     RDKit          3D

 19 20  0  0  0  0  0  0  0  0999 V2000
    4.4640    0.4250   -0.5910 N   0  0  0  0  0  0  0  0  0  0  0  0
    3.1300    0.1260   -0.1340 C   0  0  0  0  0  0  0  0  0  0  0  0
    2.3870    1.0650    0.2040 N   0  0  0  0  0  0  0  0  0  0  0  0
    0.9820    0.9050    0.6940 C   0  0  0  0  0  0  0  0  0  0  0  0
    0.9060    1.3040    2.0800 C   0  0  0  0  0  0  0  0  0  0  0  0
   -0.5810    1.1280    2.9130 Cl  0  0  0  0  0  0  0  0  0  0  0  0
    0.1480    0.4360   -0.1670 C   0  0  0  0  0  0  0  0  0  0  0  0
    0.6450    0.1090   -1.4900 O   0  0  0  0  0  0  0  0  0  0  0  0
   -0.3900   -0.0980   -2.3860 C   0  0  0  0  0  0  0  0  0  0  0  0
   -1.6160    0.3410   -1.7020 C   0  0  0  0  0  0  0  0  0  0  0  0
   -2.7930    0.8050   -1.7510 N   0  0  0  0  0  0  0  0  0  0  0  0
   -3.3440    0.9480   -0.5360 O   0  0  0  0  0  0  0  0  0  0  0  0
   -2.2620    0.9670    0.4320 C   0  0  0  0  0  0  0  0  0  0  0  0
   -1.2520    0.1100   -0.2310 C   0  0  2  0  0  0  0  0  0  0  0  0
   -1.6110   -1.3390    0.0690 C   0  0  0  0  0  0  0  0  0  0  0  0
   -1.2280   -1.6830    1.3350 O   0  0  0  0  0  0  0  0  0  0  0  0
   -1.5150   -2.9260    1.6450 O   0  0  0  0  0  0  0  0  0  0  0  0
    2.7180   -1.1920   -0.0860 O   0  0  0  0  0  0  0  0  0  0  0  0
    2.0450   -1.8440    1.3790 Cl  0  0  0  0  0  0  0  0  0  0  0  0
  1  2  1  0
  2  3  2  3
  2 18  1  0
  3  4  1  0
  4  5  1  0
  4  7  2  3
  5  6  1  0
  7  8  1  0
  7 14  1  0
  8  9  1  0
  9 10  1  0
 10 11  2  0
 10 14  1  0
 11 12  1  0
 12 13  1  0
 13 14  1  0
 14 15  1  1
 15 16  1  0
 16 17  1  0
 18 19  1  0
M  CHG  1  11   1
M  END
