
     RDKit          3D

 19 20  0  0  0  0  0  0  0  0999 V2000
   -1.1350   -1.0260    1.2970 C   0  0  0  0  0  0  0  0  0  0  0  0
   -1.0240   -0.4470   -0.0730 C   0  0  1  0  0  0  0  0  0  0  0  0
   -2.2030    0.4200   -0.4530 C   0  0  1  0  0  0  0  0  0  0  0  0
   -3.1530    0.5480    0.6120 N   0  0  0  0  0  0  0  0  0  0  0  0
   -3.6950    1.6330    0.8300 N   0  0  0  0  0  0  0  0  0  0  0  0
   -3.3760    3.0580   -0.0940 Cl  0  0  0  0  0  0  0  0  0  0  0  0
   -1.6450    1.6280   -0.7960 O   0  0  0  0  0  0  0  0  0  0  0  0
   -0.3910    1.4310   -1.1100 O   0  0  0  0  0  0  0  0  0  0  0  0
    0.0830    0.5830   -0.0880 C   0  0  1  0  0  0  0  0  0  0  0  0
    0.0410    1.3310    1.1550 N   0  0  0  0  0  0  0  0  0  0  0  0
    1.4020    0.0330   -0.3670 C   0  0  0  0  0  0  0  0  0  0  0  0
    2.5970    0.8100    0.0340 C   0  0  0  0  0  0  0  0  0  0  0  0
    3.8860    0.1160   -0.3190 C   0  0  0  0  0  0  0  0  0  0  0  0
    5.2160    1.1880    0.2330 Cl  0  0  0  0  0  0  0  0  0  0  0  0
    1.5310   -1.1520   -0.9720 C   0  0  0  0  0  0  0  0  0  0  0  0
    0.4410   -1.9030   -1.3590 O   0  0  0  0  0  0  0  0  0  0  0  0
   -0.8700   -1.5100   -1.1020 C   0  0  1  0  0  0  0  0  0  0  0  0
   -1.5680   -2.6470   -0.6360 O   0  0  0  0  0  0  0  0  0  0  0  0
   -1.5030   -1.1710   -2.3150 O   0  0  0  0  0  0  0  0  0  0  0  0
  2  1  1  1
  2  3  1  0
  2  9  1  0
  2 17  1  0
  3  4  1  1
  3  7  1  0
  4  5  2  3
  5  6  1  0
  7  8  1  0
  8  9  1  0
  9 10  1  1
  9 11  1  0
 11 12  1  0
 11 15  2  0
 12 13  1  0
 13 14  1  0
 15 16  1  0
 16 17  1  0
 17 18  1  1
 17 19  1  0
M  CHG  1  10   1
M  END
