
     RDKit          3D

 20 21  0  0  0  0  0  0  0  0999 V2000
   -3.7940   -0.4750    0.7230 N   0  0  0  0  0  0  0  0  0  0  0  0
   -2.4720   -0.5100    0.1630 C   0  0  1  0  0  0  0  0  0  0  0  0
   -2.3310   -1.6810   -0.5630 O   0  0  0  0  0  0  0  0  0  0  0  0
   -2.5060   -2.7000    0.2240 O   0  0  0  0  0  0  0  0  0  0  0  0
   -2.1590    0.7170   -0.6660 C   0  0  0  0  0  0  0  0  0  0  0  0
   -1.1190    1.5240   -0.0570 N   0  0  0  0  0  0  0  0  0  0  0  0
   -0.7990    2.5050   -0.9990 O   0  0  0  0  0  0  0  0  0  0  0  0
   -0.1100    1.8000   -2.0060 C   0  0  0  0  0  0  0  0  0  0  0  0
   -0.0690    2.3790   -3.6720 Cl  0  0  0  0  0  0  0  0  0  0  0  0
    0.4270    0.7520   -1.4940 N   0  0  0  0  0  0  0  0  0  0  0  0
    0.1060    0.7260   -0.1030 C   0  0  1  0  0  0  0  0  0  0  0  0
    1.1760    1.3280    0.6770 C   0  0  0  0  0  0  0  0  0  0  0  0
    2.4060    0.9020    0.6860 C   0  0  0  0  0  0  0  0  0  0  0  0
    3.5980    1.7670    1.7090 Cl  0  0  0  0  0  0  0  0  0  0  0  0
    2.9450   -0.2250   -0.0560 C   0  0  0  0  0  0  0  0  0  0  0  0
    2.2760   -0.9580   -0.8260 O   0  0  0  0  0  0  0  0  0  0  0  0
    4.3800   -0.5660    0.0780 C   0  0  0  0  0  0  0  0  0  0  0  0
    4.6900   -1.6670   -0.7070 O   0  0  0  0  0  0  0  0  0  0  0  0
   -0.2590   -0.6340    0.4410 C   0  0  0  0  0  0  0  0  0  0  0  0
   -1.4750   -0.5450    1.1670 O   0  0  0  0  0  0  0  0  0  0  0  0
  2  1  1  1
  2  3  1  0
  2  5  1  0
  2 20  1  0
  3  4  1  0
  5  6  1  0
  6  7  1  0
  6 11  1  0
  7  8  1  0
  8  9  1  0
  8 10  2  0
 10 11  1  0
 11 12  1  1
 11 19  1  0
 12 13  2  3
 13 14  1  0
 13 15  1  0
 15 16  2  0
 15 17  1  0
 17 18  1  0
 19 20  1  0
M  CHG  1   1   1
M  END
