
     RDKit          3D

 21 23  0  0  0  0  0  0  0  0999 V2000
   -0.8270   -1.3630    1.0710 O   0  0  0  0  0  0  0  0  0  0  0  0
   -0.8870   -0.4000    0.2800 C   0  0  0  0  0  0  0  0  0  0  0  0
   -2.1910    0.1230   -0.2000 C   0  0  0  0  0  0  0  0  0  0  0  0
   -3.2790   -0.7120    0.4380 C   0  0  0  0  0  0  0  0  0  0  0  0
   -4.6070   -0.2070   -0.0290 C   0  0  0  0  0  0  0  0  0  0  0  0
   -5.5120   -0.9000   -0.6920 C   0  0  0  0  0  0  0  0  0  0  0  0
   -6.7090   -0.0830   -0.9910 C   0  0  0  0  0  0  0  0  0  0  0  0
   -6.3470    1.2260   -0.3820 C   0  0  0  0  0  0  0  0  0  0  0  0
   -5.1410    1.1350    0.1640 C   0  0  0  0  0  0  0  0  0  0  0  0
    0.3570    0.1590   -0.1300 N   0  0  0  0  0  0  0  0  0  0  0  0
    1.5890   -0.3710    0.3530 C   0  0  0  0  0  0  0  0  0  0  0  0
    2.7790    0.1890   -0.0620 C   0  0  0  0  0  0  0  0  0  0  0  0
    4.0200   -0.2550    0.3510 C   0  0  0  0  0  0  0  0  0  0  0  0
    5.2480    0.3610   -0.1090 C   0  0  0  0  0  0  0  0  0  0  0  0
    6.4550   -0.2680   -0.2870 C   0  0  0  0  0  0  0  0  0  0  0  0
    7.3390    0.6460   -0.7230 N   0  0  0  0  0  0  0  0  0  0  0  0
    6.7620    1.8270   -0.8350 N   0  0  0  0  0  0  0  0  0  0  0  0
    5.4760    1.6700   -0.4620 C   0  0  0  0  0  0  0  0  0  0  0  0
    4.0150   -1.3310    1.2360 C   0  0  0  0  0  0  0  0  0  0  0  0
    2.8150   -1.8840    1.6450 C   0  0  0  0  0  0  0  0  0  0  0  0
    1.6290   -1.4130    1.2120 N   0  0  0  0  0  0  0  0  0  0  0  0
  1  2  2  0
  2  3  1  0
  2 10  1  0
  3  4  1  0
  4  5  1  0
  5  6  2  0
  5  9  1  0
  6  7  1  0
  7  8  1  0
  8  9  2  0
 10 11  1  0
 11 12  2  0
 11 21  1  0
 12 13  1  0
 13 14  1  0
 13 19  2  0
 14 15  1  0
 14 18  2  0
 15 16  2  0
 16 17  1  0
 17 18  1  0
 19 20  1  0
 20 21  2  0
M  END
