
     RDKit          3D

 21 23  0  0  0  0  0  0  0  0999 V2000
    4.9580   -1.7280   -1.6430 C   0  0  0  0  0  0  0  0  0  0  0  0
    4.9790   -1.1110   -0.3150 C   0  0  0  0  0  0  0  0  0  0  0  0
    6.1250   -1.1390    0.4670 C   0  0  0  0  0  0  0  0  0  0  0  0
    6.1850   -0.5860    1.6870 N   0  0  0  0  0  0  0  0  0  0  0  0
    5.0680    0.0080    2.1300 C   0  0  0  0  0  0  0  0  0  0  0  0
    3.9590    0.0430    1.3900 N   0  0  0  0  0  0  0  0  0  0  0  0
    3.8300   -0.4810    0.1810 C   0  0  0  0  0  0  0  0  0  0  0  0
    2.6590   -0.4280   -0.5860 N   0  0  0  0  0  0  0  0  0  0  0  0
    1.4120    0.1480   -0.2590 C   0  0  0  0  0  0  0  0  0  0  0  0
    1.1420    0.6380    0.9760 C   0  0  0  0  0  0  0  0  0  0  0  0
   -0.0930    1.2010    1.2400 C   0  0  0  0  0  0  0  0  0  0  0  0
   -1.0800    1.2930    0.3060 C   0  0  0  0  0  0  0  0  0  0  0  0
   -2.3120    1.9070    0.6490 N   0  0  0  0  0  0  0  0  0  0  0  0
   -3.4610    1.8190   -0.1750 C   0  0  0  0  0  0  0  0  0  0  0  0
   -4.1830    0.5340   -0.2300 C   0  0  2  0  0  0  0  0  0  0  0  0
   -5.2860    0.4880   -1.0860 O   0  0  0  0  0  0  0  0  0  0  0  0
   -4.7110    0.0590    1.1550 C   0  0  0  0  0  0  0  0  0  0  0  0
   -4.6730   -1.3360    0.4970 C   0  0  0  0  0  0  0  0  0  0  0  0
   -3.4350   -0.7630   -0.2420 C   0  0  0  0  0  0  0  0  0  0  0  0
   -0.8190    0.7970   -0.9540 C   0  0  0  0  0  0  0  0  0  0  0  0
    0.4040    0.2340   -1.2370 C   0  0  0  0  0  0  0  0  0  0  0  0
  1  2  1  0
  2  3  2  0
  2  7  1  0
  3  4  1  0
  4  5  2  0
  5  6  1  0
  6  7  2  0
  7  8  1  0
  8  9  1  0
  9 10  2  0
  9 21  1  0
 10 11  1  0
 11 12  2  0
 12 13  1  0
 12 20  1  0
 13 14  1  0
 14 15  1  0
 15 16  1  6
 15 17  1  0
 15 19  1  0
 17 18  1  0
 18 19  1  0
 20 21  2  0
M  END
