
     RDKit          3D

 21 23  0  0  0  0  0  0  0  0999 V2000
   -4.5960   -2.1720    0.0560 C   0  0  0  0  0  0  0  0  0  0  0  0
   -4.6310   -0.8580    0.7640 C   0  0  0  0  0  0  0  0  0  0  0  0
   -4.0740    0.2680    0.0190 C   0  0  0  0  0  0  0  0  0  0  0  0
   -4.7070    1.2430   -0.6110 N   0  0  0  0  0  0  0  0  0  0  0  0
   -3.8320    2.0550   -1.1510 N   0  0  0  0  0  0  0  0  0  0  0  0
   -2.5610    1.6300   -0.8860 C   0  0  0  0  0  0  0  0  0  0  0  0
   -1.3650    2.3600   -1.3780 C   0  0  0  0  0  0  0  0  0  0  0  0
   -2.6880    0.5010   -0.1480 C   0  0  0  0  0  0  0  0  0  0  0  0
   -1.7070   -0.4090    0.4320 C   0  0  0  0  0  0  0  0  0  0  0  0
   -0.3440   -0.0960    0.2300 N   0  0  0  0  0  0  0  0  0  0  0  0
    0.6910   -0.9670    0.7660 C   0  0  0  0  0  0  0  0  0  0  0  0
    0.2830   -1.9730    1.3920 O   0  0  0  0  0  0  0  0  0  0  0  0
    2.1020   -0.6880    0.5870 C   0  0  0  0  0  0  0  0  0  0  0  0
    3.0180   -1.4980    1.2470 C   0  0  0  0  0  0  0  0  0  0  0  0
    4.3700   -1.3400    1.1590 C   0  0  0  0  0  0  0  0  0  0  0  0
    4.8690   -0.3240    0.3760 C   0  0  0  0  0  0  0  0  0  0  0  0
    6.1690    0.0460    0.1220 C   0  0  0  0  0  0  0  0  0  0  0  0
    6.0780    1.1410   -0.7390 C   0  0  0  0  0  0  0  0  0  0  0  0
    4.7770    1.3880   -0.9680 N   0  0  0  0  0  0  0  0  0  0  0  0
    3.9990    0.5080   -0.2990 C   0  0  0  0  0  0  0  0  0  0  0  0
    2.6170    0.3220   -0.1910 C   0  0  0  0  0  0  0  0  0  0  0  0
  1  2  1  0
  2  3  1  0
  3  4  1  0
  3  8  2  0
  4  5  1  0
  5  6  2  0
  6  7  1  0
  6  8  1  0
  8  9  1  0
  9 10  1  0
 10 11  1  0
 11 12  2  0
 11 13  1  0
 13 14  2  0
 13 21  1  0
 14 15  1  0
 15 16  2  0
 16 17  1  0
 16 20  1  0
 17 18  2  0
 18 19  1  0
 19 20  1  0
 20 21  2  0
M  END
