
     RDKit          3D

 21 23  0  0  0  0  0  0  0  0999 V2000
   -4.6710    0.5810   -1.6890 C   0  0  0  0  0  0  0  0  0  0  0  0
   -3.5000    1.4020   -1.1210 C   0  0  0  0  0  0  0  0  0  0  0  0
   -3.1550    0.8190    0.2240 C   0  0  0  0  0  0  0  0  0  0  0  0
   -3.4890    1.3750    1.4480 C   0  0  0  0  0  0  0  0  0  0  0  0
   -3.0230    0.5650    2.4150 N   0  0  0  0  0  0  0  0  0  0  0  0
   -2.3970   -0.4990    1.8920 C   0  0  0  0  0  0  0  0  0  0  0  0
   -2.4780   -0.3410    0.5170 C   0  0  0  0  0  0  0  0  0  0  0  0
   -1.9360   -1.2240   -0.4470 N   0  0  0  0  0  0  0  0  0  0  0  0
   -0.5770   -1.4750   -0.6060 N   0  0  0  0  0  0  0  0  0  0  0  0
    0.4550   -0.8060    0.1360 C   0  0  0  0  0  0  0  0  0  0  0  0
    0.0740    0.0550    0.9580 O   0  0  0  0  0  0  0  0  0  0  0  0
    1.8640   -1.1030   -0.0390 C   0  0  0  0  0  0  0  0  0  0  0  0
    2.2270   -2.4260   -0.2100 C   0  0  0  0  0  0  0  0  0  0  0  0
    3.5580   -2.7640   -0.3460 C   0  0  0  0  0  0  0  0  0  0  0  0
    4.5110   -1.8100   -0.3130 N   0  0  0  0  0  0  0  0  0  0  0  0
    4.2090   -0.5070   -0.1500 C   0  0  0  0  0  0  0  0  0  0  0  0
    5.2210    0.4280   -0.1240 C   0  0  0  0  0  0  0  0  0  0  0  0
    4.9300    1.7570    0.0420 C   0  0  0  0  0  0  0  0  0  0  0  0
    3.6040    2.1020    0.1760 C   0  0  0  0  0  0  0  0  0  0  0  0
    2.5800    1.1610    0.1500 C   0  0  0  0  0  0  0  0  0  0  0  0
    2.8690   -0.1650   -0.0130 C   0  0  0  0  0  0  0  0  0  0  0  0
  1  2  1  0
  2  3  1  0
  3  4  2  0
  3  7  1  0
  4  5  1  0
  5  6  1  0
  6  7  2  0
  7  8  1  0
  8  9  1  0
  9 10  1  0
 10 11  2  0
 10 12  1  0
 12 13  2  0
 12 21  1  0
 13 14  1  0
 14 15  2  0
 15 16  1  0
 16 17  2  0
 16 21  1  0
 17 18  1  0
 18 19  2  0
 19 20  1  0
 20 21  2  0
M  END
