
     RDKit          3D

 21 23  0  0  0  0  0  0  0  0999 V2000
    5.8100    0.2650    0.4930 C   0  0  0  0  0  0  0  0  0  0  0  0
    4.5250   -0.1490   -0.1770 C   0  0  0  0  0  0  0  0  0  0  0  0
    4.3640   -0.3960   -1.5180 C   0  0  0  0  0  0  0  0  0  0  0  0
    3.0390   -0.7420   -1.6900 C   0  0  0  0  0  0  0  0  0  0  0  0
    2.4000   -0.7060   -0.4710 C   0  0  0  0  0  0  0  0  0  0  0  0
    0.9950   -1.0170   -0.2820 C   0  0  0  0  0  0  0  0  0  0  0  0
    0.2340   -1.3610   -1.2230 O   0  0  0  0  0  0  0  0  0  0  0  0
    0.3550   -0.9420    1.0870 C   0  0  0  0  0  0  0  0  0  0  0  0
   -0.3480    0.3100    1.1520 N   0  0  0  0  0  0  0  0  0  0  0  0
    0.3020    1.4180    1.6060 N   0  0  0  0  0  0  0  0  0  0  0  0
   -0.4860    2.4690    1.5650 C   0  0  0  0  0  0  0  0  0  0  0  0
   -1.6940    2.0510    1.0710 C   0  0  0  0  0  0  0  0  0  0  0  0
   -2.8670    2.8360    0.8840 N   0  0  0  0  0  0  0  0  0  0  0  0
   -1.5820    0.6680    0.8140 C   0  0  0  0  0  0  0  0  0  0  0  0
   -2.6230   -0.1420    0.1860 C   0  0  0  0  0  0  0  0  0  0  0  0
   -2.7510   -1.4950    0.2440 C   0  0  0  0  0  0  0  0  0  0  0  0
   -3.7210   -2.2240   -0.4560 C   0  0  0  0  0  0  0  0  0  0  0  0
   -4.6160   -1.5700   -1.2590 C   0  0  0  0  0  0  0  0  0  0  0  0
   -4.5300   -0.2120   -1.3510 C   0  0  0  0  0  0  0  0  0  0  0  0
   -3.5530    0.5010   -0.6440 C   0  0  0  0  0  0  0  0  0  0  0  0
    3.3290   -0.3430    0.4210 N   0  0  0  0  0  0  0  0  0  0  0  0
  1  2  1  0
  2  3  2  0
  2 21  1  0
  3  4  1  0
  4  5  2  0
  5  6  1  0
  5 21  1  0
  6  7  2  0
  6  8  1  0
  8  9  1  0
  9 10  1  0
  9 14  1  0
 10 11  2  0
 11 12  1  0
 12 13  1  0
 12 14  2  0
 14 15  1  0
 15 16  2  0
 15 20  1  0
 16 17  1  0
 17 18  2  0
 18 19  1  0
 19 20  2  0
M  END
