
     RDKit          3D

 21 23  0  0  0  0  0  0  0  0999 V2000
    1.5850   -1.4200    0.8620 O   0  0  0  0  0  0  0  0  0  0  0  0
    1.9050   -0.5040    0.0720 C   0  0  0  0  0  0  0  0  0  0  0  0
    3.3220   -0.3910   -0.1960 N   0  0  0  0  0  0  0  0  0  0  0  0
    4.2410   -1.3130    0.4470 C   0  0  0  0  0  0  0  0  0  0  0  0
    5.6110   -0.9670   -0.0050 C   0  0  0  0  0  0  0  0  0  0  0  0
    6.4820   -0.0890    0.5760 C   0  0  0  0  0  0  0  0  0  0  0  0
    7.6550   -0.0710   -0.1780 C   0  0  0  0  0  0  0  0  0  0  0  0
    7.4510   -0.9380   -1.1860 N   0  0  0  0  0  0  0  0  0  0  0  0
    6.2450   -1.4690   -1.0870 N   0  0  0  0  0  0  0  0  0  0  0  0
    1.0010    0.3770   -0.5400 N   0  0  0  0  0  0  0  0  0  0  0  0
   -0.3920    0.3510   -0.3320 C   0  0  0  0  0  0  0  0  0  0  0  0
   -1.1520    1.0990   -1.2200 C   0  0  0  0  0  0  0  0  0  0  0  0
   -2.5000    1.1430   -1.0870 C   0  0  0  0  0  0  0  0  0  0  0  0
   -3.1640    0.4640   -0.0890 C   0  0  0  0  0  0  0  0  0  0  0  0
   -4.6320    0.5220    0.0410 C   0  0  0  0  0  0  0  0  0  0  0  0
   -5.4590    1.1970   -0.7410 C   0  0  0  0  0  0  0  0  0  0  0  0
   -6.8580    1.0050   -0.2870 C   0  0  0  0  0  0  0  0  0  0  0  0
   -6.7190    0.1200    0.8710 C   0  0  0  0  0  0  0  0  0  0  0  0
   -5.4420   -0.1380    1.0350 C   0  0  0  0  0  0  0  0  0  0  0  0
   -2.3910   -0.2640    0.7700 C   0  0  0  0  0  0  0  0  0  0  0  0
   -1.0030   -0.3370    0.6720 C   0  0  0  0  0  0  0  0  0  0  0  0
  1  2  2  0
  2  3  1  0
  2 10  1  0
  3  4  1  0
  4  5  1  0
  5  6  2  0
  5  9  1  0
  6  7  1  0
  7  8  2  0
  8  9  1  0
 10 11  1  0
 11 12  2  0
 11 21  1  0
 12 13  1  0
 13 14  2  0
 14 15  1  0
 14 20  1  0
 15 16  2  0
 15 19  1  0
 16 17  1  0
 17 18  1  0
 18 19  2  0
 20 21  2  0
M  END
