
     RDKit          3D

 21 23  0  0  0  0  0  0  0  0999 V2000
   -5.4430   -1.6270    1.3690 C   0  0  0  0  0  0  0  0  0  0  0  0
   -4.6470   -0.4720    0.8320 C   0  0  0  0  0  0  0  0  0  0  0  0
   -4.6370    0.7160    1.5230 C   0  0  0  0  0  0  0  0  0  0  0  0
   -3.8930    1.7450    0.9870 C   0  0  0  0  0  0  0  0  0  0  0  0
   -3.1860    1.5620   -0.2090 C   0  0  0  0  0  0  0  0  0  0  0  0
   -3.2170    0.3620   -0.8760 C   0  0  0  0  0  0  0  0  0  0  0  0
   -2.4820    0.1310   -2.1390 C   0  0  0  0  0  0  0  0  0  0  0  0
   -1.2940   -0.6190   -1.8700 N   0  0  0  0  0  0  0  0  0  0  0  0
   -0.1190   -0.0160   -1.3000 C   0  0  0  0  0  0  0  0  0  0  0  0
   -0.1980    1.2030   -1.0570 O   0  0  0  0  0  0  0  0  0  0  0  0
    1.0160   -0.7810   -1.0510 N   0  0  0  0  0  0  0  0  0  0  0  0
    2.2170   -0.2630   -0.5100 C   0  0  0  0  0  0  0  0  0  0  0  0
    2.5190    1.0690   -0.4360 C   0  0  0  0  0  0  0  0  0  0  0  0
    3.7050    1.4960    0.1160 C   0  0  0  0  0  0  0  0  0  0  0  0
    4.6520    0.6350    0.6230 C   0  0  0  0  0  0  0  0  0  0  0  0
    5.8580    0.7840    1.2000 N   0  0  0  0  0  0  0  0  0  0  0  0
    6.3770   -0.4120    1.5170 C   0  0  0  0  0  0  0  0  0  0  0  0
    5.4480   -1.3460    1.1170 C   0  0  0  0  0  0  0  0  0  0  0  0
    4.3370   -0.7080    0.5440 C   0  0  0  0  0  0  0  0  0  0  0  0
    3.1690   -1.1600    0.0010 C   0  0  0  0  0  0  0  0  0  0  0  0
   -3.9670   -0.6270   -0.3080 N   0  0  0  0  0  0  0  0  0  0  0  0
  1  2  1  0
  2  3  2  0
  2 21  1  0
  3  4  1  0
  4  5  2  0
  5  6  1  0
  6  7  1  0
  6 21  2  0
  7  8  1  0
  8  9  1  0
  9 10  2  0
  9 11  1  0
 11 12  1  0
 12 13  2  0
 12 20  1  0
 13 14  1  0
 14 15  2  0
 15 16  1  0
 15 19  1  0
 16 17  1  0
 17 18  2  0
 18 19  1  0
 19 20  2  0
M  END
