
     RDKit          3D

 22 24  0  0  0  0  0  0  0  0999 V2000
   -1.7630    0.0720    3.3270 C   0  0  0  0  0  0  0  0  0  0  0  0
   -1.8940    0.8330    1.6850 S   0  0  0  0  0  0  0  0  0  0  0  0
   -2.6430   -0.3700    0.5170 C   0  0  1  0  0  0  0  0  0  0  0  0
   -4.0270   -0.5960    0.9550 C   0  0  0  0  0  0  0  0  0  0  0  0
   -5.1010   -0.2830    0.0220 C   0  0  0  0  0  0  0  0  0  0  0  0
   -4.9080    0.1670   -1.1860 C   0  0  0  0  0  0  0  0  0  0  0  0
   -3.5650    0.4000   -1.7160 C   0  0  0  0  0  0  0  0  0  0  0  0
   -3.4200    0.8560   -2.9720 N   0  0  0  0  0  0  0  0  0  0  0  0
   -2.1900    1.0610   -3.4600 C   0  0  0  0  0  0  0  0  0  0  0  0
   -2.0240    1.4880   -4.6360 O   0  0  0  0  0  0  0  0  0  0  0  0
   -1.0950    0.8030   -2.6700 C   0  0  0  0  0  0  0  0  0  0  0  0
   -1.2300    0.3390   -1.3900 C   0  0  0  0  0  0  0  0  0  0  0  0
   -0.1710    0.0640   -0.5540 O   0  0  0  0  0  0  0  0  0  0  0  0
    1.1800    0.2240   -0.9100 C   0  0  0  0  0  0  0  0  0  0  0  0
    2.0110   -0.1860    0.2870 C   0  0  1  0  0  0  0  0  0  0  0  0
    1.6750   -1.5810    0.5590 N   0  0  0  0  0  0  0  0  0  0  0  0
    3.4910   -0.1030   -0.0090 C   0  0  2  0  0  0  0  0  0  0  0  0
    4.3200   -0.5130    1.1890 C   0  0  0  0  0  0  0  0  0  0  0  0
    5.5770    0.3100    0.9680 C   0  0  0  0  0  0  0  0  0  0  0  0
    5.3040    1.2310   -0.0100 O   0  0  0  0  0  0  0  0  0  0  0  0
    3.9450    1.3290   -0.1900 C   0  0  0  0  0  0  0  0  0  0  0  0
   -2.5180    0.1200   -0.8670 C   0  0  0  0  0  0  0  0  0  0  0  0
  1  2  1  0
  3  2  1  1
  3  4  1  0
  3 22  1  0
  4  5  1  0
  5  6  2  0
  6  7  1  0
  7  8  1  0
  7 22  2  0
  8  9  1  0
  9 10  2  0
  9 11  1  0
 11 12  2  0
 12 13  1  0
 12 22  1  0
 13 14  1  0
 14 15  1  0
 15 16  1  6
 15 17  1  0
 17 18  1  1
 17 21  1  0
 18 19  1  0
 19 20  1  0
 20 21  1  0
M  CHG  1  16   1
M  END
