
     RDKit          3D

 22 23  0  0  0  0  0  0  0  0999 V2000
   -2.2510    0.8720    2.5520 N   0  0  0  0  0  0  0  0  0  0  0  0
   -3.0060    0.6870    1.3350 C   0  0  0  0  0  0  0  0  0  0  0  0
   -2.0600    1.0390    0.1560 C   0  0  0  0  0  0  0  0  0  0  0  0
   -2.8270    0.8550   -1.0850 C   0  0  0  0  0  0  0  0  0  0  0  0
   -2.6090    0.0870   -2.1040 C   0  0  0  0  0  0  0  0  0  0  0  0
   -1.5330   -0.8380   -2.3580 C   0  0  0  0  0  0  0  0  0  0  0  0
   -1.6590   -1.4930   -3.5280 C   0  0  0  0  0  0  0  0  0  0  0  0
   -0.7890   -2.4940   -4.1250 C   0  0  0  0  0  0  0  0  0  0  0  0
    0.4360   -2.8130   -3.7360 C   0  0  0  0  0  0  0  0  0  0  0  0
    1.2000   -2.2490   -2.6350 C   0  0  0  0  0  0  0  0  0  0  0  0
    0.8270   -1.4480   -1.6100 C   0  0  0  0  0  0  0  0  0  0  0  0
    1.8990   -1.1060   -0.7180 C   0  0  0  0  0  0  0  0  0  0  0  0
    1.8430   -0.3590    0.3430 C   0  0  0  0  0  0  0  0  0  0  0  0
    3.0790   -0.1380    1.1210 C   0  0  0  0  0  0  0  0  0  0  0  0
    3.1350    0.5940    2.2000 C   0  0  0  0  0  0  0  0  0  0  0  0
    4.6410    0.8980    3.1960 S   0  0  0  0  0  0  0  0  0  0  0  0
    4.0260    2.4030    3.9400 C   0  0  0  0  0  0  0  0  0  0  0  0
    4.7260    3.3060    4.4260 O   0  0  0  0  0  0  0  0  0  0  0  0
    2.6310    2.2940    3.8320 N   0  0  0  0  0  0  0  0  0  0  0  0
    2.1400    1.3580    2.9330 C   0  0  0  0  0  0  0  0  0  0  0  0
    0.8910    1.1360    2.7190 O   0  0  0  0  0  0  0  0  0  0  0  0
   -0.4760   -0.9990   -1.4400 O   0  0  0  0  0  0  0  0  0  0  0  0
  1  2  1  0
  2  3  1  0
  3  4  1  0
  4  5  2  3
  5  6  1  0
  6  7  2  0
  6 22  1  0
  7  8  1  0
  8  9  2  0
  9 10  1  0
 10 11  2  0
 11 12  1  0
 11 22  1  0
 12 13  2  3
 13 14  1  0
 14 15  2  3
 15 16  1  0
 15 20  1  0
 16 17  1  0
 17 18  2  0
 17 19  1  0
 19 20  1  0
 20 21  2  0
M  CHG  1   1   1
M  END
