
     RDKit          3D

 22 24  0  0  0  0  0  0  0  0999 V2000
    6.8010   -0.7280   -0.4690 N   0  0  0  0  0  0  0  0  0  0  0  0
    5.3950   -0.5360   -0.3240 C   0  0  0  0  0  0  0  0  0  0  0  0
    4.5340   -1.5740   -0.0600 C   0  0  0  0  0  0  0  0  0  0  0  0
    3.1590   -1.3810    0.0810 C   0  0  0  0  0  0  0  0  0  0  0  0
    2.6620   -0.1000   -0.0520 C   0  0  0  0  0  0  0  0  0  0  0  0
    3.5280    0.9260   -0.3160 C   0  0  0  0  0  0  0  0  0  0  0  0
    4.8970    0.7260   -0.4550 C   0  0  0  0  0  0  0  0  0  0  0  0
    2.8020    2.2070   -0.4230 C   0  0  0  0  0  0  0  0  0  0  0  0
    1.3630    1.7900   -0.2820 C   0  0  0  0  0  0  0  0  0  0  0  0
    1.3150    0.3900    0.0410 N   0  0  0  0  0  0  0  0  0  0  0  0
    0.1590   -0.3320    0.3880 C   0  0  0  0  0  0  0  0  0  0  0  0
    0.3680   -1.5670    0.6890 O   0  0  0  0  0  0  0  0  0  0  0  0
   -1.1950    0.1250    0.4490 C   0  0  0  0  0  0  0  0  0  0  0  0
   -1.7550    1.3460    0.1850 C   0  0  0  0  0  0  0  0  0  0  0  0
   -3.1360    1.2750    0.3980 C   0  0  0  0  0  0  0  0  0  0  0  0
   -3.3200   -0.0260    0.7880 C   0  0  0  0  0  0  0  0  0  0  0  0
   -4.6630   -0.6110    1.1400 C   0  0  2  0  0  0  0  0  0  0  0  0
   -4.5870   -1.3680    2.2940 O   0  0  0  0  0  0  0  0  0  0  0  0
   -5.0750   -1.4630   -0.0490 C   0  0  0  0  0  0  0  0  0  0  0  0
   -5.1670   -0.6050   -1.2850 C   0  0  0  0  0  0  0  0  0  0  0  0
   -6.4030    0.6990   -1.0230 S   0  0  0  0  0  0  0  0  0  0  0  0
   -2.2030   -0.6690    0.8120 O   0  0  0  0  0  0  0  0  0  0  0  0
  1  2  1  0
  2  3  2  0
  2  7  1  0
  3  4  1  0
  4  5  2  0
  5  6  1  0
  5 10  1  0
  6  7  2  0
  6  8  1  0
  8  9  1  0
  9 10  1  0
 10 11  1  0
 11 12  2  0
 11 13  1  0
 13 14  2  0
 13 22  1  0
 14 15  1  0
 15 16  2  0
 16 17  1  0
 16 22  1  0
 17 18  1  1
 17 19  1  0
 19 20  1  0
 20 21  1  0
M  CHG  1   1   1
M  END
