
     RDKit          3D

 22 24  0  0  0  0  0  0  0  0999 V2000
    5.7120    1.2760    1.4320 C   0  0  0  0  0  0  0  0  0  0  0  0
    4.6310    0.8180    0.5030 C   0  0  0  0  0  0  0  0  0  0  0  0
    4.7700   -0.3710   -0.1990 C   0  0  0  0  0  0  0  0  0  0  0  0
    3.7490   -0.7720   -1.0560 C   0  0  0  0  0  0  0  0  0  0  0  0
    2.6080   -0.0200   -1.2230 C   0  0  0  0  0  0  0  0  0  0  0  0
    1.2920   -0.4640   -2.2780 S   0  0  2  0  0  0  0  0  0  0  0  0
    1.9090   -1.2470   -3.4290 O   0  0  0  0  0  0  0  0  0  0  0  0
    0.6830    0.8020   -2.7980 O   0  0  0  0  0  0  0  0  0  0  0  0
    0.1010   -1.4090   -1.4880 N   0  0  0  0  0  0  0  0  0  0  0  0
   -0.4610   -0.6350   -0.4150 C   0  0  0  0  0  0  0  0  0  0  0  0
   -1.5350   -1.4160    0.3390 C   0  0  2  0  0  0  0  0  0  0  0  0
   -0.8710   -2.5590    0.8410 O   0  0  0  0  0  0  0  0  0  0  0  0
   -2.6320   -1.8760   -0.5470 C   0  0  0  0  0  0  0  0  0  0  0  0
   -3.8930   -1.2360   -0.3740 N   0  0  0  0  0  0  0  0  0  0  0  0
   -3.8270    0.1300   -0.0220 C   0  0  0  0  0  0  0  0  0  0  0  0
   -4.4740    1.1820   -0.4150 C   0  0  0  0  0  0  0  0  0  0  0  0
   -3.9490    2.3500    0.3330 C   0  0  0  0  0  0  0  0  0  0  0  0
   -2.9020    1.7710    1.2080 C   0  0  0  0  0  0  0  0  0  0  0  0
   -2.8480    0.4940    0.9880 C   0  0  0  0  0  0  0  0  0  0  0  0
   -2.0270   -0.6510    1.5270 C   0  0  0  0  0  0  0  0  0  0  0  0
    2.5000    1.1550   -0.5120 C   0  0  0  0  0  0  0  0  0  0  0  0
    3.5070    1.5800    0.3510 C   0  0  0  0  0  0  0  0  0  0  0  0
  1  2  1  0
  2  3  2  0
  2 22  1  0
  3  4  1  0
  4  5  2  0
  5  6  1  0
  5 21  1  0
  6  7  2  0
  6  8  2  0
  6  9  1  1
  9 10  1  0
 10 11  1  0
 11 12  1  1
 11 13  1  0
 11 20  1  0
 13 14  1  0
 14 15  1  0
 15 16  2  0
 15 19  1  0
 16 17  1  0
 17 18  1  0
 18 19  2  0
 19 20  1  0
 21 22  2  0
M  CHG  1  14   1
M  END
