
     RDKit          3D

 22 23  0  0  0  0  0  0  0  0999 V2000
   -2.3160    3.7940    0.7210 O   0  0  0  0  0  0  0  0  0  0  0  0
   -2.4770    2.6550    0.1820 C   0  0  0  0  0  0  0  0  0  0  0  0
   -1.3730    2.2400   -0.7260 C   0  0  0  0  0  0  0  0  0  0  0  0
   -0.0500    2.1510    0.0450 C   0  0  0  0  0  0  0  0  0  0  0  0
    1.0650    2.2400   -0.9520 C   0  0  0  0  0  0  0  0  0  0  0  0
    2.3620    1.8130   -0.5670 C   0  0  0  0  0  0  0  0  0  0  0  0
    2.9720    0.6480   -0.3780 C   0  0  0  0  0  0  0  0  0  0  0  0
    4.4230    0.7400    0.0460 C   0  0  0  0  0  0  0  0  0  0  0  0
    5.0980   -0.5210    0.2540 C   0  0  0  0  0  0  0  0  0  0  0  0
    4.5390   -1.7030    0.1030 C   0  0  0  0  0  0  0  0  0  0  0  0
    3.1530   -1.7860   -0.3000 C   0  0  0  0  0  0  0  0  0  0  0  0
    2.4110   -0.6680   -0.5270 C   0  0  0  0  0  0  0  0  0  0  0  0
    1.0220   -1.0510   -0.9190 C   0  0  0  0  0  0  0  0  0  0  0  0
    0.4520   -1.9350    0.0890 N   0  0  0  0  0  0  0  0  0  0  0  0
   -0.8290   -1.4770    0.5680 C   0  0  0  0  0  0  0  0  0  0  0  0
   -1.7540   -2.6790    0.6120 C   0  0  0  0  0  0  0  0  0  0  0  0
   -3.4020   -2.0590    0.3730 S   0  0  2  0  0  0  0  0  0  0  0  0
   -4.4110   -3.0220    0.9440 O   0  0  0  0  0  0  0  0  0  0  0  0
   -3.6330   -1.9660   -1.1050 O   0  0  0  0  0  0  0  0  0  0  0  0
   -3.5230   -0.4660    1.1100 C   0  0  0  0  0  0  0  0  0  0  0  0
   -3.8770    0.5360    0.0710 C   0  0  0  0  0  0  0  0  0  0  0  0
   -3.6270    1.9070    0.4690 N   0  0  0  0  0  0  0  0  0  0  0  0
  1  2  2  0
  2  3  1  0
  2 22  1  0
  3  4  1  0
  4  5  1  0
  5  6  1  0
  6  7  2  0
  7  8  1  0
  7 12  1  0
  8  9  1  0
  9 10  2  0
 10 11  1  0
 11 12  2  0
 12 13  1  0
 13 14  1  0
 14 15  1  0
 15 16  1  0
 17 16  1  6
 17 18  2  0
 17 19  2  0
 17 20  1  0
 20 21  1  0
 21 22  1  0
M  CHG  1  14   1
M  END
