
     RDKit          3D

 22 24  0  0  0  0  0  0  0  0999 V2000
   -5.3580    2.2700   -0.0310 N   0  0  0  0  0  0  0  0  0  0  0  0
   -5.2370    0.8610    0.1630 C   0  0  0  0  0  0  0  0  0  0  0  0
   -6.3110    0.0840    0.3780 N   0  0  0  0  0  0  0  0  0  0  0  0
   -6.1390   -1.2450    0.5560 C   0  0  0  0  0  0  0  0  0  0  0  0
   -4.8990   -1.8320    0.5230 C   0  0  0  0  0  0  0  0  0  0  0  0
   -3.7920   -1.0510    0.3040 C   0  0  0  0  0  0  0  0  0  0  0  0
   -2.5310   -1.5940    0.2640 C   0  0  0  0  0  0  0  0  0  0  0  0
   -1.4040   -0.7810    0.0380 C   0  0  0  0  0  0  0  0  0  0  0  0
   -0.1380   -1.3960    0.0080 N   0  0  0  0  0  0  0  0  0  0  0  0
    1.1110   -0.8140   -0.1930 C   0  0  0  0  0  0  0  0  0  0  0  0
    1.2040    0.4080   -0.3760 O   0  0  0  0  0  0  0  0  0  0  0  0
    2.3930   -1.6020   -0.2000 C   0  0  0  0  0  0  0  0  0  0  0  0
    3.5740   -0.7220   -0.4360 C   0  0  1  0  0  0  0  0  0  0  0  0
    3.5300   -0.0450   -1.6410 O   0  0  0  0  0  0  0  0  0  0  0  0
    4.0980    1.1990   -1.6200 C   0  0  0  0  0  0  0  0  0  0  0  0
    5.3850    1.2770   -0.8440 C   0  0  0  0  0  0  0  0  0  0  0  0
    5.2870    0.6970    0.5350 C   0  0  0  0  0  0  0  0  0  0  0  0
    3.8320    0.2420    0.7180 C   0  0  2  0  0  0  0  0  0  0  0  0
    3.6540   -0.3840    1.9310 O   0  0  0  0  0  0  0  0  0  0  0  0
   -1.6130    0.5430   -0.1350 C   0  0  0  0  0  0  0  0  0  0  0  0
   -2.8870    1.1420   -0.1010 C   0  0  0  0  0  0  0  0  0  0  0  0
   -3.9600    0.3110    0.1220 C   0  0  0  0  0  0  0  0  0  0  0  0
  1  2  1  0
  2  3  2  0
  2 22  1  0
  3  4  1  0
  4  5  2  0
  5  6  1  0
  6  7  2  0
  6 22  1  0
  7  8  1  0
  8  9  1  0
  8 20  2  0
  9 10  1  0
 10 11  2  0
 10 12  1  0
 13 12  1  1
 13 14  1  0
 13 18  1  0
 14 15  1  0
 15 16  1  0
 16 17  1  0
 17 18  1  0
 18 19  1  1
 20 21  1  0
 21 22  2  0
M  CHG  1   3   1
M  END
