
     RDKit          3D

 22 24  0  0  0  0  0  0  0  0999 V2000
   -1.8290    2.2510   -0.5900 C   0  0  0  0  0  0  0  0  0  0  0  0
   -1.9390    0.7580   -0.3190 C   0  0  0  0  0  0  0  0  0  0  0  0
   -0.9450   -0.0560   -0.8140 C   0  0  0  0  0  0  0  0  0  0  0  0
    0.2540    0.3160   -1.6110 C   0  0  2  0  0  0  0  0  0  0  0  0
   -0.2660    0.6220   -2.9650 N   0  0  0  0  0  0  0  0  0  0  0  0
    1.1570   -0.8440   -1.7650 C   0  0  0  0  0  0  0  0  0  0  0  0
    1.7320   -1.4780   -0.5680 C   0  0  1  0  0  0  0  0  0  0  0  0
    2.5240   -2.5740   -1.0790 O   0  0  0  0  0  0  0  0  0  0  0  0
    2.6720   -0.7210    0.2790 C   0  0  2  0  0  0  0  0  0  0  0  0
    2.2180    0.5420    0.9150 C   0  0  0  0  0  0  0  0  0  0  0  0
    3.1840    0.7700    2.1120 C   0  0  0  0  0  0  0  0  0  0  0  0
    4.3990    1.0950    1.4990 O   0  0  0  0  0  0  0  0  0  0  0  0
    4.9050   -0.0290    0.8840 C   0  0  0  0  0  0  0  0  0  0  0  0
    4.0520   -0.4920   -0.3090 C   0  0  0  0  0  0  0  0  0  0  0  0
   -1.4270   -1.6580   -0.2980 S   0  0  0  0  0  0  0  0  0  0  0  0
   -2.8920   -1.2010    0.5350 C   0  0  0  0  0  0  0  0  0  0  0  0
   -2.9330    0.2200    0.3640 C   0  0  0  0  0  0  0  0  0  0  0  0
   -4.1360    0.8130    1.0250 C   0  0  0  0  0  0  0  0  0  0  0  0
   -4.1300    2.0260    1.4580 N   0  0  0  0  0  0  0  0  0  0  0  0
   -5.3460    0.0120    1.1970 C   0  0  0  0  0  0  0  0  0  0  0  0
   -5.2270   -1.3300    0.9500 O   0  0  0  0  0  0  0  0  0  0  0  0
   -3.9850   -1.8740    1.2900 C   0  0  0  0  0  0  0  0  0  0  0  0
  1  2  1  0
  2  3  2  0
  2 17  1  0
  3  4  1  0
  3 15  1  0
  4  5  1  6
  4  6  1  0
  6  7  1  0
  7  8  1  6
  7  9  1  0
  9 10  1  6
  9 14  1  0
 10 11  1  0
 11 12  1  0
 12 13  1  0
 13 14  1  0
 15 16  1  0
 16 17  2  0
 16 22  1  0
 17 18  1  0
 18 19  2  0
 18 20  1  0
 20 21  1  0
 21 22  1  0
M  CHG  1   5   1
M  END
