
     RDKit          3D

 22 24  0  0  0  0  0  0  0  0999 V2000
   -5.4770    1.2510    1.1340 C   0  0  0  0  0  0  0  0  0  0  0  0
   -4.9890   -0.0650    0.9620 O   0  0  0  0  0  0  0  0  0  0  0  0
   -3.7620   -0.3160    0.3380 C   0  0  0  0  0  0  0  0  0  0  0  0
   -3.2950   -1.6030    0.1740 C   0  0  0  0  0  0  0  0  0  0  0  0
   -2.0710   -1.8440   -0.4490 C   0  0  0  0  0  0  0  0  0  0  0  0
   -1.2870   -0.8180   -0.9220 C   0  0  0  0  0  0  0  0  0  0  0  0
   -1.7490    0.4720   -0.7620 C   0  0  0  0  0  0  0  0  0  0  0  0
   -2.9690    0.7060   -0.1400 C   0  0  0  0  0  0  0  0  0  0  0  0
   -0.9450    1.6150   -1.2520 C   0  0  0  0  0  0  0  0  0  0  0  0
    0.0750    1.2560   -2.2760 C   0  0  0  0  0  0  0  0  0  0  0  0
    0.0940   -0.1110   -2.6850 N   0  0  0  0  0  0  0  0  0  0  0  0
    0.0230   -1.0540   -1.5910 C   0  0  1  0  0  0  0  0  0  0  0  0
    1.1420   -0.9050   -0.6280 C   0  0  0  0  0  0  0  0  0  0  0  0
    0.9400   -0.9100    0.7380 C   0  0  0  0  0  0  0  0  0  0  0  0
    1.9830   -0.7710    1.6300 C   0  0  0  0  0  0  0  0  0  0  0  0
    3.2830   -0.6210    1.1920 C   0  0  0  0  0  0  0  0  0  0  0  0
    4.6270   -0.4430    2.3030 S   0  0  1  0  0  0  0  0  0  0  0  0
    4.9140    1.2260    2.6770 N   0  0  0  0  0  0  0  0  0  0  0  0
    4.3090   -1.2010    3.5430 O   0  0  0  0  0  0  0  0  0  0  0  0
    5.8980   -0.9830    1.7150 O   0  0  0  0  0  0  0  0  0  0  0  0
    3.4940   -0.6150   -0.1710 C   0  0  0  0  0  0  0  0  0  0  0  0
    2.4380   -0.7560   -1.0730 C   0  0  0  0  0  0  0  0  0  0  0  0
  1  2  1  0
  2  3  1  0
  3  4  2  0
  3  8  1  0
  4  5  1  0
  5  6  2  0
  6  7  1  0
  6 12  1  0
  7  8  2  0
  7  9  1  0
  9 10  1  0
 10 11  1  0
 11 12  1  0
 12 13  1  1
 13 14  2  0
 13 22  1  0
 14 15  1  0
 15 16  2  0
 16 17  1  0
 16 21  1  0
 17 18  1  1
 17 19  2  0
 17 20  2  0
 21 22  2  0
M  CHG  1  11   1
M  END
