
     RDKit          3D

 22 24  0  0  0  0  0  0  0  0999 V2000
   -4.3860   -2.2710    1.1740 O   0  0  0  0  0  0  0  0  0  0  0  0
   -4.3930   -1.0670    0.8870 C   0  0  0  0  0  0  0  0  0  0  0  0
   -5.5990   -0.3170    0.7270 N   0  0  0  0  0  0  0  0  0  0  0  0
   -5.5170    0.8410   -0.1060 C   0  0  0  0  0  0  0  0  0  0  0  0
   -4.3640    1.7350    0.2610 C   0  0  0  0  0  0  0  0  0  0  0  0
   -3.1050    0.9920    0.3780 C   0  0  0  0  0  0  0  0  0  0  0  0
   -1.8720    1.6330    0.1870 C   0  0  0  0  0  0  0  0  0  0  0  0
   -0.6700    0.9750    0.3050 C   0  0  0  0  0  0  0  0  0  0  0  0
   -0.7010   -0.3670    0.6240 C   0  0  0  0  0  0  0  0  0  0  0  0
    0.5460   -1.0420    0.7450 N   0  0  0  0  0  0  0  0  0  0  0  0
    0.8890   -1.8200   -0.4030 C   0  0  0  0  0  0  0  0  0  0  0  0
    1.5920   -1.0320   -1.4800 C   0  0  0  0  0  0  0  0  0  0  0  0
    2.8780   -0.4410   -0.9650 C   0  0  0  0  0  0  0  0  0  0  0  0
    3.0710    0.8580   -0.9650 C   0  0  0  0  0  0  0  0  0  0  0  0
    4.2320    1.6280   -0.5150 C   0  0  0  0  0  0  0  0  0  0  0  0
    5.5130    0.6030    0.0990 S   0  0  1  0  0  0  0  0  0  0  0  0
    6.7910    0.8190   -0.7060 O   0  0  0  0  0  0  0  0  0  0  0  0
    5.8880    0.9660    1.5160 O   0  0  0  0  0  0  0  0  0  0  0  0
    5.0250   -1.0600   -0.0050 C   0  0  0  0  0  0  0  0  0  0  0  0
    3.8510   -1.4100   -0.4870 C   0  0  0  0  0  0  0  0  0  0  0  0
   -1.9110   -0.9970    0.8110 C   0  0  0  0  0  0  0  0  0  0  0  0
   -3.1150   -0.3440    0.6940 C   0  0  0  0  0  0  0  0  0  0  0  0
  1  2  2  0
  2  3  1  0
  2 22  1  0
  3  4  1  0
  4  5  1  0
  5  6  1  0
  6  7  2  0
  6 22  1  0
  7  8  1  0
  8  9  2  0
  9 10  1  0
  9 21  1  0
 10 11  1  0
 11 12  1  0
 12 13  1  0
 13 14  2  0
 13 20  1  0
 14 15  1  0
 16 15  1  6
 16 17  2  0
 16 18  2  0
 16 19  1  0
 19 20  2  0
 21 22  2  0
M  CHG  1  10   1
M  END
