
     RDKit          3D

 15 15  0  0  0  0  0  0  0  0999 V2000
   -0.9190    2.2890   -0.8580 C   0  0  0  0  0  0  0  0  0  0  0  0
   -0.4400    1.3630    0.2370 C   0  0  1  0  0  0  0  0  0  0  0  0
    0.7340    1.9120    0.7500 O   0  0  0  0  0  0  0  0  0  0  0  0
   -1.3510    1.3270    1.2890 O   0  0  0  0  0  0  0  0  0  0  0  0
   -2.6110    0.9040    0.9000 C   0  0  0  0  0  0  0  0  0  0  0  0
   -2.6000   -0.4140    0.1730 C   0  0  0  0  0  0  0  0  0  0  0  0
   -1.2170   -1.0010    0.3400 C   0  0  1  0  0  0  0  0  0  0  0  0
   -0.9870   -1.2080    1.6850 O   0  0  0  0  0  0  0  0  0  0  0  0
   -1.1780   -2.3120   -0.4170 C   0  0  0  0  0  0  0  0  0  0  0  0
   -2.1240   -3.2060    0.0260 O   0  0  0  0  0  0  0  0  0  0  0  0
   -0.1870   -0.0290   -0.2390 C   0  0  2  0  0  0  0  0  0  0  0  0
    1.4330   -0.6640    0.2630 S   0  0  0  0  0  0  0  0  0  0  0  0
    2.7830    0.2290   -0.5200 C   0  0  0  0  0  0  0  0  0  0  0  0
    4.1230   -0.3370   -0.0780 C   0  0  0  0  0  0  0  0  0  0  0  0
    4.3000   -0.2490    1.2840 O   0  0  0  0  0  0  0  0  0  0  0  0
  2  1  1  6
  2  3  1  0
  2  4  1  0
  2 11  1  0
  4  5  1  0
  5  6  1  0
  6  7  1  0
  7  8  1  1
  7  9  1  0
  7 11  1  0
  9 10  1  0
 11 12  1  1
 12 13  1  0
 13 14  1  0
 14 15  1  0
M  END
