
     RDKit          3D

 15 15  0  0  0  0  0  0  0  0999 V2000
    3.0930    0.3760   -0.6950 C   0  0  0  0  0  0  0  0  0  0  0  0
    2.9610   -0.1780    0.7110 C   0  0  1  0  0  0  0  0  0  0  0  0
    4.2170    0.0120    1.5090 C   0  0  0  0  0  0  0  0  0  0  0  0
    1.5220    0.6400    1.4780 S   0  0  0  0  0  0  0  0  0  0  0  0
    0.1020    0.2630    0.4520 C   0  0  2  0  0  0  0  0  0  0  0  0
   -0.8650    1.2610    0.4410 O   0  0  0  0  0  0  0  0  0  0  0  0
   -1.6750    0.9870   -0.6730 C   0  0  2  0  0  0  0  0  0  0  0  0
   -2.5340    2.1410   -1.0750 C   0  0  0  0  0  0  0  0  0  0  0  0
   -3.8240    2.0800   -0.5630 O   0  0  0  0  0  0  0  0  0  0  0  0
   -2.4700   -0.2950   -0.4550 C   0  0  2  0  0  0  0  0  0  0  0  0
   -3.1130   -0.1980    0.7830 O   0  0  0  0  0  0  0  0  0  0  0  0
   -1.4230   -1.4010   -0.3970 C   0  0  2  0  0  0  0  0  0  0  0  0
   -1.9780   -2.6590   -0.3170 O   0  0  0  0  0  0  0  0  0  0  0  0
   -0.5560   -1.0610    0.8080 C   0  0  1  0  0  0  0  0  0  0  0  0
    0.3720   -2.0520    1.0640 O   0  0  0  0  0  0  0  0  0  0  0  0
  2  1  1  6
  2  3  1  0
  2  4  1  0
  5  4  1  1
  5  6  1  0
  5 14  1  0
  6  7  1  0
  7  8  1  1
  7 10  1  0
  8  9  1  0
 10 11  1  1
 10 12  1  0
 12 13  1  1
 12 14  1  0
 14 15  1  6
M  END
