
     RDKit          3D

 15 15  0  0  0  0  0  0  0  0999 V2000
    2.9410    0.6280   -0.9270 C   0  0  0  0  0  0  0  0  0  0  0  0
    1.7100    0.0040   -1.0530 O   0  0  0  0  0  0  0  0  0  0  0  0
    0.8950    0.2250    0.0790 C   0  0  1  0  0  0  0  0  0  0  0  0
    1.6840   -0.3610    1.2480 C   0  0  0  0  0  0  0  0  0  0  0  0
    0.8090    1.7000    0.2640 C   0  0  0  0  0  0  0  0  0  0  0  0
   -0.7550    2.2680    0.9590 S   0  0  0  0  0  0  0  0  0  0  0  0
   -2.0620    1.4100    0.0380 C   0  0  2  0  0  0  0  0  0  0  0  0
   -3.1140    1.0200    0.8390 O   0  0  0  0  0  0  0  0  0  0  0  0
   -1.4640    0.3340   -0.7870 C   0  0  2  0  0  0  0  0  0  0  0  0
   -2.4880   -0.5590   -1.1380 O   0  0  0  0  0  0  0  0  0  0  0  0
   -0.4000   -0.4800   -0.1030 C   0  0  2  0  0  0  0  0  0  0  0  0
   -0.9700   -1.1100    1.1410 C   0  0  0  0  0  0  0  0  0  0  0  0
   -1.2340   -0.2570    2.1690 O   0  0  0  0  0  0  0  0  0  0  0  0
   -0.1560   -1.6770   -1.0420 C   0  0  0  0  0  0  0  0  0  0  0  0
    0.3150   -1.2790   -2.2650 O   0  0  0  0  0  0  0  0  0  0  0  0
  1  2  1  0
  2  3  1  0
  3  4  1  1
  3  5  1  0
  3 11  1  0
  5  6  1  0
  6  7  1  0
  7  8  1  1
  7  9  1  0
  9 10  1  1
  9 11  1  0
 11 12  1  1
 11 14  1  0
 12 13  1  0
 14 15  1  0
M  END
