
     RDKit          3D

 15 15  0  0  0  0  0  0  0  0999 V2000
   -1.3100   -0.0720   -1.8400 C   0  0  0  0  0  0  0  0  0  0  0  0
   -1.0430   -0.6500   -0.4800 C   0  0  2  0  0  0  0  0  0  0  0  0
   -1.5980   -2.0830   -0.5220 C   0  0  0  0  0  0  0  0  0  0  0  0
   -1.7300    0.0810    0.6230 C   0  0  2  0  0  0  0  0  0  0  0  0
   -3.0940   -0.0210    0.6240 O   0  0  0  0  0  0  0  0  0  0  0  0
   -1.2360    1.5110    0.6010 C   0  0  1  0  0  0  0  0  0  0  0  0
   -1.6430    2.1160    1.7900 O   0  0  0  0  0  0  0  0  0  0  0  0
    0.2570    1.5410    0.4310 C   0  0  0  0  0  0  0  0  0  0  0  0
    0.8890    0.3480    0.5950 O   0  0  0  0  0  0  0  0  0  0  0  0
    0.4060   -0.7300   -0.0980 C   0  0  1  0  0  0  0  0  0  0  0  0
    0.5270   -1.8330    0.7500 O   0  0  0  0  0  0  0  0  0  0  0  0
    1.2940   -0.9580   -1.3280 C   0  0  0  0  0  0  0  0  0  0  0  0
    3.0320   -1.0670   -0.9060 S   0  0  0  0  0  0  0  0  0  0  0  0
    3.7530    0.4440   -0.2840 C   0  0  0  0  0  0  0  0  0  0  0  0
    3.7850    1.4340   -1.2650 O   0  0  0  0  0  0  0  0  0  0  0  0
  2  1  1  6
  2  3  1  0
  2  4  1  0
  2 10  1  0
  4  5  1  6
  4  6  1  0
  6  7  1  1
  6  8  1  0
  8  9  1  0
  9 10  1  0
 10 11  1  1
 10 12  1  0
 12 13  1  0
 13 14  1  0
 14 15  1  0
M  END
