
     RDKit          3D

 15 15  0  0  0  0  0  0  0  0999 V2000
    2.0950   -0.3760   -1.3390 C   0  0  0  0  0  0  0  0  0  0  0  0
    1.4710    0.0800   -0.0380 C   0  0  1  0  0  0  0  0  0  0  0  0
    2.1170   -0.5540    1.0370 O   0  0  0  0  0  0  0  0  0  0  0  0
    1.7210    1.5590    0.1220 C   0  0  0  0  0  0  0  0  0  0  0  0
    3.5490    1.7530    0.1390 S   0  0  0  0  0  0  0  0  0  0  0  0
    4.1760    0.9980    1.5680 O   0  0  0  0  0  0  0  0  0  0  0  0
    0.0000   -0.2660   -0.0780 C   0  0  1  0  0  0  0  0  0  0  0  0
   -0.0820   -1.7750   -0.1790 C   0  0  0  0  0  0  0  0  0  0  0  0
   -0.6780    0.1240    1.2260 C   0  0  0  0  0  0  0  0  0  0  0  0
   -2.1490   -0.1370    1.1360 C   0  0  2  0  0  0  0  0  0  0  0  0
   -2.4590   -1.4720    1.2820 O   0  0  0  0  0  0  0  0  0  0  0  0
   -2.7540    0.3830   -0.1370 C   0  0  1  0  0  0  0  0  0  0  0  0
   -3.0840    1.7360   -0.0670 O   0  0  0  0  0  0  0  0  0  0  0  0
   -1.9010    0.1540   -1.3410 C   0  0  0  0  0  0  0  0  0  0  0  0
   -0.5560    0.3840   -1.1460 O   0  0  0  0  0  0  0  0  0  0  0  0
  2  1  1  6
  2  3  1  0
  2  4  1  0
  2  7  1  0
  4  5  1  0
  5  6  1  0
  7  8  1  6
  7  9  1  0
  7 15  1  0
  9 10  1  0
 10 11  1  6
 10 12  1  0
 12 13  1  1
 12 14  1  0
 14 15  1  0
M  END
