
     RDKit          3D

 15 15  0  0  0  0  0  0  0  0999 V2000
    4.3610   -0.2410    0.9270 O   0  0  0  0  0  0  0  0  0  0  0  0
    4.0410    0.2900   -0.3170 C   0  0  0  0  0  0  0  0  0  0  0  0
    2.6830   -0.1800   -0.7320 C   0  0  1  0  0  0  0  0  0  0  0  0
    2.6730   -1.5670   -0.8080 O   0  0  0  0  0  0  0  0  0  0  0  0
    1.6510    0.3350    0.2370 C   0  0  0  0  0  0  0  0  0  0  0  0
    0.3650   -0.0770   -0.1820 O   0  0  0  0  0  0  0  0  0  0  0  0
   -0.6090    0.3760    0.6810 C   0  0  2  0  0  0  0  0  0  0  0  0
   -1.3740   -0.7350    1.3460 C   0  0  0  0  0  0  0  0  0  0  0  0
   -2.3060   -1.4610    0.4320 C   0  0  2  0  0  0  0  0  0  0  0  0
   -1.6620   -1.8690   -0.7250 O   0  0  0  0  0  0  0  0  0  0  0  0
   -3.5860   -0.7180    0.1530 C   0  0  0  0  0  0  0  0  0  0  0  0
   -3.3950    0.0720   -1.4830 S   0  0  0  0  0  0  0  0  0  0  0  0
   -1.7800    0.9010   -1.4700 C   0  0  0  0  0  0  0  0  0  0  0  0
   -1.5030    1.3440   -0.0550 C   0  0  2  0  0  0  0  0  0  0  0  0
   -0.9000    2.6010   -0.1290 O   0  0  0  0  0  0  0  0  0  0  0  0
  1  2  1  0
  2  3  1  0
  3  4  1  1
  3  5  1  0
  5  6  1  0
  7  6  1  6
  7  8  1  0
  7 14  1  0
  8  9  1  0
  9 10  1  6
  9 11  1  0
 11 12  1  0
 12 13  1  0
 13 14  1  0
 14 15  1  6
M  END
