
     RDKit          3D

 15 15  0  0  0  0  0  0  0  0999 V2000
    0.4620    0.2820   -2.0700 C   0  0  0  0  0  0  0  0  0  0  0  0
    0.2200   -0.0180   -0.5750 C   0  0  1  0  0  0  0  0  0  0  0  0
   -1.1750    0.4240   -0.2550 C   0  0  2  0  0  0  0  0  0  0  0  0
   -1.3390    1.9260   -0.5400 C   0  0  0  0  0  0  0  0  0  0  0  0
   -2.6640    2.3010   -0.3120 O   0  0  0  0  0  0  0  0  0  0  0  0
   -1.4880    0.1150    1.0260 O   0  0  0  0  0  0  0  0  0  0  0  0
   -2.6080   -0.5690    1.3220 C   0  0  0  0  0  0  0  0  0  0  0  0
   -2.7870   -1.8190    0.8050 O   0  0  0  0  0  0  0  0  0  0  0  0
    0.3960   -1.5130   -0.4640 C   0  0  0  0  0  0  0  0  0  0  0  0
    1.0160   -2.0030    1.1650 S   0  0  0  0  0  0  0  0  0  0  0  0
    2.4270   -0.8990    1.5620 C   0  0  0  0  0  0  0  0  0  0  0  0
    2.5580    0.0370    0.3790 C   0  0  1  0  0  0  0  0  0  0  0  0
    2.9680   -0.7370   -0.7110 O   0  0  0  0  0  0  0  0  0  0  0  0
    1.2630    0.7440    0.1850 C   0  0  2  0  0  0  0  0  0  0  0  0
    0.8220    1.1940    1.4270 O   0  0  0  0  0  0  0  0  0  0  0  0
  2  1  1  6
  2  3  1  0
  2  9  1  0
  2 14  1  0
  3  4  1  1
  3  6  1  0
  4  5  1  0
  6  7  1  0
  7  8  1  0
  9 10  1  0
 10 11  1  0
 11 12  1  0
 12 13  1  6
 12 14  1  0
 14 15  1  1
M  END
