
     RDKit          3D

 15 15  0  0  0  0  0  0  0  0999 V2000
   -0.9420    1.0100    2.1820 O   0  0  0  0  0  0  0  0  0  0  0  0
   -1.9190    0.0440    1.9240 C   0  0  0  0  0  0  0  0  0  0  0  0
   -1.8090   -0.3290    0.4630 C   0  0  0  0  0  0  0  0  0  0  0  0
   -2.8500   -0.1290   -0.2860 C   0  0  0  0  0  0  0  0  0  0  0  0
   -3.0190   -0.3980   -1.7210 C   0  0  1  0  0  0  0  0  0  0  0  0
   -3.4780    0.7370   -2.4040 O   0  0  0  0  0  0  0  0  0  0  0  0
   -1.5590   -1.0960   -2.4990 S   0  0  0  0  0  0  0  0  0  0  0  0
   -0.3210   -1.2410   -1.2000 C   0  0  0  0  0  0  0  0  0  0  0  0
   -0.5290   -0.8800    0.0510 C   0  0  0  0  0  0  0  0  0  0  0  0
    0.4850   -1.0330    0.9620 O   0  0  0  0  0  0  0  0  0  0  0  0
    1.8430   -0.7890    0.7230 C   0  0  0  0  0  0  0  0  0  0  0  0
    2.0230    0.6540    0.3270 C   0  0  2  0  0  0  0  0  0  0  0  0
    1.3120    0.9770   -0.8240 O   0  0  0  0  0  0  0  0  0  0  0  0
    3.4960    0.9150    0.0050 C   0  0  0  0  0  0  0  0  0  0  0  0
    3.8170    0.0900   -1.0650 O   0  0  0  0  0  0  0  0  0  0  0  0
  1  2  1  0
  2  3  1  0
  3  4  2  0
  3  9  1  0
  4  5  1  0
  5  6  1  6
  5  7  1  0
  7  8  1  0
  8  9  2  0
  9 10  1  0
 10 11  1  0
 11 12  1  0
 12 13  1  6
 12 14  1  0
 14 15  1  0
M  END
