
     RDKit          3D

 15 15  0  0  0  0  0  0  0  0999 V2000
   -1.9250    2.7720   -0.5010 O   0  0  0  0  0  0  0  0  0  0  0  0
   -1.1720    1.6880   -0.9400 C   0  0  0  0  0  0  0  0  0  0  0  0
   -1.3440    0.5020   -0.0060 C   0  0  0  0  0  0  0  0  0  0  0  0
   -2.1210    0.6540    1.0150 C   0  0  0  0  0  0  0  0  0  0  0  0
   -2.5050   -0.2540    2.0920 C   0  0  1  0  0  0  0  0  0  0  0  0
   -3.8890   -0.4760    2.0770 O   0  0  0  0  0  0  0  0  0  0  0  0
   -1.7390   -1.8560    1.8750 S   0  0  0  0  0  0  0  0  0  0  0  0
   -0.7400   -1.7880    0.4140 C   0  0  0  0  0  0  0  0  0  0  0  0
   -0.6260   -0.7150   -0.3480 C   0  0  0  0  0  0  0  0  0  0  0  0
    0.1720   -0.8070   -1.4360 O   0  0  0  0  0  0  0  0  0  0  0  0
    1.4060   -0.3860   -1.7940 C   0  0  0  0  0  0  0  0  0  0  0  0
    2.5850   -0.8310   -0.9740 C   0  0  2  0  0  0  0  0  0  0  0  0
    2.7560   -2.1820   -0.8860 O   0  0  0  0  0  0  0  0  0  0  0  0
    2.5500   -0.1400    0.3640 C   0  0  0  0  0  0  0  0  0  0  0  0
    2.3630    1.2350    0.0810 O   0  0  0  0  0  0  0  0  0  0  0  0
  1  2  1  0
  2  3  1  0
  3  4  2  0
  3  9  1  0
  4  5  1  0
  5  6  1  6
  5  7  1  0
  7  8  1  0
  8  9  2  0
  9 10  1  0
 10 11  1  0
 11 12  1  0
 12 13  1  1
 12 14  1  0
 14 15  1  0
M  END
