
     RDKit          3D

 15 15  0  0  0  0  0  0  0  0999 V2000
    2.5830    1.6910   -0.3120 C   0  0  0  0  0  0  0  0  0  0  0  0
    2.8810    0.2760   -0.6910 C   0  0  1  0  0  0  0  0  0  0  0  0
    4.3170   -0.1150   -0.4560 C   0  0  0  0  0  0  0  0  0  0  0  0
    1.7310   -0.9130    0.0450 S   0  0  0  0  0  0  0  0  0  0  0  0
    0.0390   -0.6770   -0.6330 C   0  0  2  0  0  0  0  0  0  0  0  0
   -0.4280    0.5040   -0.2340 O   0  0  0  0  0  0  0  0  0  0  0  0
   -1.7310    0.7630   -0.0760 C   0  0  2  0  0  0  0  0  0  0  0  0
   -1.8780    1.9800    0.8500 C   0  0  0  0  0  0  0  0  0  0  0  0
   -1.2680    3.0970    0.3300 O   0  0  0  0  0  0  0  0  0  0  0  0
   -2.6200   -0.3460    0.3510 C   0  0  2  0  0  0  0  0  0  0  0  0
   -2.7870   -0.2410    1.7510 O   0  0  0  0  0  0  0  0  0  0  0  0
   -2.1930   -1.7170   -0.0190 C   0  0  2  0  0  0  0  0  0  0  0  0
   -2.4640   -2.5680    1.0840 O   0  0  0  0  0  0  0  0  0  0  0  0
   -0.7960   -1.9010   -0.4390 C   0  0  1  0  0  0  0  0  0  0  0  0
   -0.7340   -2.7410   -1.5850 O   0  0  0  0  0  0  0  0  0  0  0  0
  2  1  1  1
  2  3  1  0
  2  4  1  0
  5  4  1  1
  5  6  1  0
  5 14  1  0
  6  7  1  0
  7  8  1  1
  7 10  1  0
  8  9  1  0
 10 11  1  1
 10 12  1  0
 12 13  1  1
 12 14  1  0
 14 15  1  6
M  END
