
     RDKit          3D

 15 15  0  0  0  0  0  0  0  0999 V2000
   -0.0710    2.4510   -0.8970 C   0  0  0  0  0  0  0  0  0  0  0  0
   -0.9590    1.2690   -0.6470 C   0  0  1  0  0  0  0  0  0  0  0  0
   -2.0020    1.6560    0.2090 O   0  0  0  0  0  0  0  0  0  0  0  0
   -1.5780    0.7920   -1.8090 O   0  0  0  0  0  0  0  0  0  0  0  0
   -2.5870   -0.0910   -1.4770 C   0  0  0  0  0  0  0  0  0  0  0  0
   -2.0460   -1.3000   -0.7280 C   0  0  0  0  0  0  0  0  0  0  0  0
   -1.2620   -0.8250    0.4930 C   0  0  1  0  0  0  0  0  0  0  0  0
   -2.1060   -0.1690    1.3870 O   0  0  0  0  0  0  0  0  0  0  0  0
   -0.7180   -2.0370    1.1870 C   0  0  0  0  0  0  0  0  0  0  0  0
   -0.3240   -1.7520    2.5000 O   0  0  0  0  0  0  0  0  0  0  0  0
   -0.2040    0.0750   -0.0810 C   0  0  2  0  0  0  0  0  0  0  0  0
    1.1020    0.5190    1.0420 S   0  0  0  0  0  0  0  0  0  0  0  0
    2.6060    0.8160    0.0520 C   0  0  0  0  0  0  0  0  0  0  0  0
    3.5250   -0.3760    0.2230 C   0  0  0  0  0  0  0  0  0  0  0  0
    4.7440   -0.1690   -0.4050 O   0  0  0  0  0  0  0  0  0  0  0  0
  2  1  1  6
  2  3  1  0
  2  4  1  0
  2 11  1  0
  4  5  1  0
  5  6  1  0
  6  7  1  0
  7  8  1  1
  7  9  1  0
  7 11  1  0
  9 10  1  0
 11 12  1  1
 12 13  1  0
 13 14  1  0
 14 15  1  0
M  END
