
     RDKit          3D

 15 16  0  0  0  0  0  0  0  0999 V2000
    4.3760    1.2930   -0.2200 O   0  0  0  0  0  0  0  0  0  0  0  0
    3.7090    0.1350    0.1510 C   0  0  0  0  0  0  0  0  0  0  0  0
    2.3340    0.2380   -0.1280 O   0  0  0  0  0  0  0  0  0  0  0  0
    1.7030   -0.9290    0.2530 C   0  0  2  0  0  0  0  0  0  0  0  0
    1.0070   -1.4910   -0.9690 C   0  0  0  0  0  0  0  0  0  0  0  0
   -0.4690   -1.5630   -0.6600 C   0  0  0  0  0  0  0  0  0  0  0  0
   -1.0950   -0.1880   -0.5310 C   0  0  1  0  0  0  0  0  0  0  0  0
   -0.7530    0.6950   -1.5450 O   0  0  0  0  0  0  0  0  0  0  0  0
   -2.5670   -0.3280   -0.2630 C   0  0  2  0  0  0  0  0  0  0  0  0
   -3.2980    0.7210   -0.8180 O   0  0  0  0  0  0  0  0  0  0  0  0
   -2.2640   -0.1920    1.2110 C   0  0  0  0  0  0  0  0  0  0  0  0
   -0.9040    0.3010    0.8590 C   0  0  2  0  0  0  0  0  0  0  0  0
   -0.8190    1.8000    1.0550 C   0  0  0  0  0  0  0  0  0  0  0  0
   -1.9670    2.4580    0.6280 O   0  0  0  0  0  0  0  0  0  0  0  0
    0.4820   -0.6090    1.5840 S   0  0  0  0  0  0  0  0  0  0  0  0
  1  2  1  0
  2  3  1  0
  4  3  1  6
  4  5  1  0
  4 15  1  0
  5  6  1  0
  6  7  1  0
  7  8  1  6
  7  9  1  0
  7 12  1  0
  9 10  1  6
  9 11  1  0
 11 12  1  0
 12 13  1  6
 12 15  1  0
 13 14  1  0
M  END
