
     RDKit          3D

 15 15  0  0  0  0  0  0  0  0999 V2000
    2.2670   -1.4720   -0.5360 C   0  0  0  0  0  0  0  0  0  0  0  0
    1.3570   -0.8120    0.4760 C   0  0  1  0  0  0  0  0  0  0  0  0
    1.3180   -1.6520    1.5890 O   0  0  0  0  0  0  0  0  0  0  0  0
    1.9970    0.4750    0.8860 C   0  0  0  0  0  0  0  0  0  0  0  0
    2.1940    1.5340   -0.5920 S   0  0  0  0  0  0  0  0  0  0  0  0
    2.9340    3.0130   -0.0930 O   0  0  0  0  0  0  0  0  0  0  0  0
   -0.0450   -0.5900   -0.1000 C   0  0  1  0  0  0  0  0  0  0  0  0
   -0.6330   -1.9120   -0.5680 C   0  0  0  0  0  0  0  0  0  0  0  0
   -0.8840   -0.1030    1.0350 C   0  0  0  0  0  0  0  0  0  0  0  0
   -2.2630    0.2100    0.5020 C   0  0  2  0  0  0  0  0  0  0  0  0
   -2.8790   -0.8550   -0.1030 O   0  0  0  0  0  0  0  0  0  0  0  0
   -2.0590    1.2940   -0.5270 C   0  0  1  0  0  0  0  0  0  0  0  0
   -1.7960    2.4740    0.1730 O   0  0  0  0  0  0  0  0  0  0  0  0
   -1.0000    1.0070   -1.5180 C   0  0  0  0  0  0  0  0  0  0  0  0
    0.0280    0.2320   -1.1780 O   0  0  0  0  0  0  0  0  0  0  0  0
  2  1  1  6
  2  3  1  0
  2  4  1  0
  2  7  1  0
  4  5  1  0
  5  6  1  0
  7  8  1  6
  7  9  1  0
  7 15  1  0
  9 10  1  0
 10 11  1  6
 10 12  1  0
 12 13  1  1
 12 14  1  0
 14 15  1  0
M  END
