
     RDKit          3D

 15 15  0  0  0  0  0  0  0  0999 V2000
    0.0490   -1.9730   -1.9900 O   0  0  0  0  0  0  0  0  0  0  0  0
   -0.3300   -0.6670   -1.8300 C   0  0  0  0  0  0  0  0  0  0  0  0
    0.0910   -0.0540   -0.5070 C   0  0  2  0  0  0  0  0  0  0  0  0
    1.5570   -0.0520   -0.3090 C   0  0  0  0  0  0  0  0  0  0  0  0
    2.2630   -1.3570   -0.3080 C   0  0  0  0  0  0  0  0  0  0  0  0
    4.0430   -0.9710   -0.0430 S   0  0  0  0  0  0  0  0  0  0  0  0
    4.2240   -0.3280    1.5350 O   0  0  0  0  0  0  0  0  0  0  0  0
   -0.7300   -0.6930    0.5630 C   0  0  1  0  0  0  0  0  0  0  0  0
   -0.2650   -1.9170    0.9690 O   0  0  0  0  0  0  0  0  0  0  0  0
   -0.9870    0.2020    1.7540 C   0  0  0  0  0  0  0  0  0  0  0  0
   -2.3070    0.9320    1.5740 C   0  0  0  0  0  0  0  0  0  0  0  0
   -2.0640    2.0760    0.8380 O   0  0  0  0  0  0  0  0  0  0  0  0
   -1.7730    1.6390   -0.4750 C   0  0  0  0  0  0  0  0  0  0  0  0
   -0.3060    1.4300   -0.6260 C   0  0  2  0  0  0  0  0  0  0  0  0
    0.1520    1.8410   -1.8780 O   0  0  0  0  0  0  0  0  0  0  0  0
  1  2  1  0
  3  2  1  6
  3  4  1  0
  3  8  1  0
  3 14  1  0
  4  5  1  0
  5  6  1  0
  6  7  1  0
  8  9  1  1
  8 10  1  0
 10 11  1  0
 11 12  1  0
 12 13  1  0
 13 14  1  0
 14 15  1  6
M  END
