
     RDKit          3D

 15 15  0  0  0  0  0  0  0  0999 V2000
   -4.1860    0.9270   -0.4650 C   0  0  0  0  0  0  0  0  0  0  0  0
   -3.2270   -0.0980    0.1030 C   0  0  2  0  0  0  0  0  0  0  0  0
   -3.7940   -1.3730    0.0650 O   0  0  0  0  0  0  0  0  0  0  0  0
   -2.9780    0.1940    1.4330 O   0  0  0  0  0  0  0  0  0  0  0  0
   -1.8020    0.9100    1.5770 C   0  0  0  0  0  0  0  0  0  0  0  0
   -0.6750   -0.0810    1.3220 C   0  0  0  0  0  0  0  0  0  0  0  0
   -0.7810   -0.6330   -0.0680 C   0  0  2  0  0  0  0  0  0  0  0  0
    0.7090   -0.2440   -1.0050 S   0  0  0  0  0  0  0  0  0  0  0  0
    2.2150   -0.5260   -0.0430 C   0  0  0  0  0  0  0  0  0  0  0  0
    3.3750    0.2470   -0.6570 C   0  0  2  0  0  0  0  0  0  0  0  0
    3.4920   -0.0980   -2.0030 O   0  0  0  0  0  0  0  0  0  0  0  0
    4.6400   -0.1310    0.0910 C   0  0  0  0  0  0  0  0  0  0  0  0
    5.3740    0.9980    0.4130 O   0  0  0  0  0  0  0  0  0  0  0  0
   -1.9910   -0.0670   -0.7590 C   0  0  1  0  0  0  0  0  0  0  0  0
   -2.2780   -0.7520   -1.9490 O   0  0  0  0  0  0  0  0  0  0  0  0
  2  1  1  6
  2  3  1  0
  2  4  1  0
  2 14  1  0
  4  5  1  0
  5  6  1  0
  6  7  1  0
  7  8  1  6
  7 14  1  0
  8  9  1  0
  9 10  1  0
 10 11  1  6
 10 12  1  0
 12 13  1  0
 14 15  1  6
M  END
