
     RDKit          3D

 15 15  0  0  0  0  0  0  0  0999 V2000
   -0.3910   -1.6130   -1.6940 C   0  0  0  0  0  0  0  0  0  0  0  0
   -0.2910   -0.3770   -0.7870 C   0  0  1  0  0  0  0  0  0  0  0  0
    0.9850   -0.4390   -0.0440 C   0  0  2  0  0  0  0  0  0  0  0  0
    1.1760   -1.6380    0.8360 C   0  0  0  0  0  0  0  0  0  0  0  0
    0.3820   -1.6340    1.9800 O   0  0  0  0  0  0  0  0  0  0  0  0
    1.2850    0.7080    0.6550 O   0  0  0  0  0  0  0  0  0  0  0  0
    2.4160    1.3680    0.2160 C   0  0  0  0  0  0  0  0  0  0  0  0
    3.5620    0.5780    0.3030 O   0  0  0  0  0  0  0  0  0  0  0  0
   -0.1920    0.7900   -1.7820 C   0  0  0  0  0  0  0  0  0  0  0  0
   -0.6000    2.3640   -1.0550 S   0  0  0  0  0  0  0  0  0  0  0  0
   -1.7030    2.1870    0.3580 C   0  0  0  0  0  0  0  0  0  0  0  0
   -1.6140    0.8170    0.9890 C   0  0  1  0  0  0  0  0  0  0  0  0
   -2.8210    0.6430    1.6990 O   0  0  0  0  0  0  0  0  0  0  0  0
   -1.5420   -0.2890   -0.0110 C   0  0  2  0  0  0  0  0  0  0  0  0
   -1.8520   -1.4830    0.6190 O   0  0  0  0  0  0  0  0  0  0  0  0
  2  1  1  6
  2  3  1  0
  2  9  1  0
  2 14  1  0
  3  4  1  1
  3  6  1  0
  4  5  1  0
  6  7  1  0
  7  8  1  0
  9 10  1  0
 10 11  1  0
 11 12  1  0
 12 13  1  6
 12 14  1  0
 14 15  1  1
M  END
