
     RDKit          3D

 18 20  0  0  0  0  0  0  0  0999 V2000
   -4.3550    1.8120    0.6410 N   0  0  0  0  0  0  0  0  0  0  0  0
   -3.7560    0.5230    0.5230 C   0  0  0  0  0  0  0  0  0  0  0  0
   -4.5330   -0.4870    0.2280 C   0  0  0  0  0  0  0  0  0  0  0  0
   -3.9420   -1.8490    0.0960 C   0  0  0  0  0  0  0  0  0  0  0  0
   -2.6410   -1.6690   -0.5200 N   0  0  0  0  0  0  0  0  0  0  0  0
   -1.7520   -0.9310    0.3830 C   0  0  1  0  0  0  0  0  0  0  0  0
   -0.3470   -1.0070   -0.1200 C   0  0  1  0  0  0  0  0  0  0  0  0
   -0.0950   -0.4590   -1.4680 C   0  0  0  0  0  0  0  0  0  0  0  0
    0.4860    0.9220   -1.5360 C   0  0  0  0  0  0  0  0  0  0  0  0
    1.5720    1.1930   -0.5550 C   0  0  0  0  0  0  0  0  0  0  0  0
    1.9090    0.0040    0.3000 C   0  0  2  0  0  0  0  0  0  0  0  0
    2.8100    0.4760    1.4130 C   0  0  0  0  0  0  0  0  0  0  0  0
    4.2430    0.0540    1.1810 C   0  0  0  0  0  0  0  0  0  0  0  0
    4.6290    0.1600   -0.2800 C   0  0  0  0  0  0  0  0  0  0  0  0
    3.6210   -0.5770   -1.1220 C   0  0  0  0  0  0  0  0  0  0  0  0
    2.5580   -1.0070   -0.3750 O   0  0  0  0  0  0  0  0  0  0  0  0
    0.6270   -0.4780    0.9220 C   0  0  0  0  0  0  0  0  0  0  0  0
   -2.2690    0.4050    0.7430 C   0  0  0  0  0  0  0  0  0  0  0  0
  1  2  1  0
  2  3  2  0
  2 18  1  0
  3  4  1  0
  4  5  1  0
  5  6  1  0
  6  7  1  0
  6 18  1  6
  7  8  1  6
  7 17  1  0
  8  9  1  0
  9 10  1  0
 11 10  1  6
 11 12  1  0
 11 16  1  0
 11 17  1  0
 12 13  1  0
 13 14  1  0
 14 15  1  0
 15 16  1  0
M  CHG  1   1   1
M  END
