
     RDKit          3D

 11 11  0  0  0  0  0  0  0  0999 V2000
    2.8710    1.3480    0.7690 O   0  0  0  0  0  0  0  0  0  0  0  0
    2.4840    0.3260   -0.0820 C   0  0  0  0  0  0  0  0  0  0  0  0
    1.4100   -0.5610    0.5470 C   0  0  2  0  0  0  0  0  0  0  0  0
    1.0810   -1.5440   -0.3530 O   0  0  0  0  0  0  0  0  0  0  0  0
   -0.3050   -1.5000   -0.5410 C   0  0  0  0  0  0  0  0  0  0  0  0
   -0.6340   -0.0990   -0.1360 C   0  0  1  0  0  0  0  0  0  0  0  0
   -0.3820    0.7940   -1.1560 O   0  0  0  0  0  0  0  0  0  0  0  0
   -2.0560    0.0850    0.3110 C   0  0  2  0  0  0  0  0  0  0  0  0
   -2.2240    1.3780    0.7570 O   0  0  0  0  0  0  0  0  0  0  0  0
   -2.4490   -0.7860    1.3030 O   0  0  0  0  0  0  0  0  0  0  0  0
    0.2800    0.1370    0.8870 O   0  0  0  0  0  0  0  0  0  0  0  0
  1  2  1  0
  3  2  1  6
  3  4  1  0
  3 11  1  0
  4  5  1  0
  5  6  1  0
  6  7  1  6
  6  8  1  0
  6 11  1  0
  8  9  1  1
  8 10  1  0
M  END
