
     RDKit          3D

 12 12  0  0  0  0  0  0  0  0999 V2000
   -0.9520   -3.0050   -0.1530 O   0  0  0  0  0  0  0  0  0  0  0  0
   -0.5820   -1.8070   -0.0880 C   0  0  0  0  0  0  0  0  0  0  0  0
    0.6330   -1.3910   -0.5550 O   0  0  0  0  0  0  0  0  0  0  0  0
    1.0810   -0.0580   -0.5920 C   0  0  2  0  0  0  0  0  0  0  0  0
    2.1960    0.0760    0.4520 C   0  0  0  0  0  0  0  0  0  0  0  0
    3.2340   -0.7940    0.1420 O   0  0  0  0  0  0  0  0  0  0  0  0
    0.0260    0.9600   -0.3990 C   0  0  2  0  0  0  0  0  0  0  0  0
    0.2200    1.6100    0.8230 O   0  0  0  0  0  0  0  0  0  0  0  0
   -1.3680    0.4240   -0.4360 C   0  0  2  0  0  0  0  0  0  0  0  0
   -2.3010    1.3570   -0.0840 O   0  0  0  0  0  0  0  0  0  0  0  0
   -1.4660   -0.7750    0.5120 C   0  0  1  0  0  0  0  0  0  0  0  0
   -2.7830   -1.2060    0.6110 O   0  0  0  0  0  0  0  0  0  0  0  0
  1  2  2  0
  2  3  1  0
  2 11  1  0
  3  4  1  0
  4  5  1  1
  4  7  1  0
  5  6  1  0
  7  8  1  1
  7  9  1  0
  9 10  1  1
  9 11  1  0
 11 12  1  6
M  END
