
     RDKit          3D

 12 12  0  0  0  0  0  0  0  0999 V2000
   -2.5490   -1.4340    1.0360 O   0  0  0  0  0  0  0  0  0  0  0  0
   -2.5410   -0.5510   -0.0280 C   0  0  0  0  0  0  0  0  0  0  0  0
   -1.2300    0.1310   -0.2460 C   0  0  2  0  0  0  0  0  0  0  0  0
   -1.3590    0.9820   -1.3360 O   0  0  0  0  0  0  0  0  0  0  0  0
   -0.1530   -0.9140   -0.4700 C   0  0  0  0  0  0  0  0  0  0  0  0
    1.0210   -0.3210    0.2880 C   0  0  1  0  0  0  0  0  0  0  0  0
    1.2180   -0.9740    1.4780 O   0  0  0  0  0  0  0  0  0  0  0  0
    2.2260   -0.3790   -0.6220 C   0  0  0  0  0  0  0  0  0  0  0  0
    3.3410    0.2020   -0.0330 O   0  0  0  0  0  0  0  0  0  0  0  0
    0.5480    1.1100    0.4800 C   0  0  1  0  0  0  0  0  0  0  0  0
    0.6160    1.7290   -0.7560 O   0  0  0  0  0  0  0  0  0  0  0  0
   -0.8050    0.8820    0.8280 O   0  0  0  0  0  0  0  0  0  0  0  0
  1  2  1  0
  2  3  1  0
  3  4  1  6
  3  5  1  0
  3 12  1  0
  5  6  1  0
  6  7  1  1
  6  8  1  0
  6 10  1  0
  8  9  1  0
 10 11  1  6
 10 12  1  0
M  END
