
     RDKit          3D

 18 20  0  0  0  0  0  0  0  0999 V2000
    3.5580    1.8540   -1.4990 C   0  0  0  0  0  0  0  0  0  0  0  0
    3.4670    1.5620   -0.0330 C   0  0  0  0  0  0  0  0  0  0  0  0
    2.5850    0.3760    0.2670 C   0  0  1  0  0  0  0  0  0  0  0  0
    1.1530    0.6080   -0.2330 C   0  0  0  0  0  0  0  0  0  0  0  0
    0.3500   -0.5180    0.3940 C   0  0  2  0  0  0  0  0  0  0  0  0
    0.9010   -1.8260    0.0100 C   0  0  0  0  0  0  0  0  0  0  0  0
    0.1180   -2.8050   -0.3680 C   0  0  0  0  0  0  0  0  0  0  0  0
   -1.2940   -2.6950   -0.4460 N   0  0  0  0  0  0  0  0  0  0  0  0
   -1.8400   -1.4360   -0.0880 C   0  0  0  0  0  0  0  0  0  0  0  0
   -1.0810   -0.4300    0.2980 C   0  0  0  0  0  0  0  0  0  0  0  0
   -1.8430    0.8340    0.6370 C   0  0  1  0  0  0  0  0  0  0  0  0
   -2.4310    1.5070   -0.5550 C   0  0  0  0  0  0  0  0  0  0  0  0
   -2.9570    0.4360    1.5670 C   0  0  0  0  0  0  0  0  0  0  0  0
   -3.8620   -0.6290    1.0750 C   0  0  0  0  0  0  0  0  0  0  0  0
   -3.3470   -1.2670   -0.1640 C   0  0  0  0  0  0  0  0  0  0  0  0
    2.3760   -1.9840    0.0130 C   0  0  0  0  0  0  0  0  0  0  0  0
    2.8310   -3.1180    0.1990 O   0  0  0  0  0  0  0  0  0  0  0  0
    3.1620   -0.8330   -0.1980 N   0  0  0  0  0  0  0  0  0  0  0  0
  1  2  1  0
  3  2  1  6
  3  4  1  0
  3 18  1  0
  5  4  1  6
  5  6  1  0
  5 10  1  0
  6  7  2  0
  6 16  1  0
  7  8  1  0
  8  9  1  0
  9 10  2  0
  9 15  1  0
 10 11  1  0
 11 12  1  6
 11 13  1  0
 13 14  1  0
 14 15  1  0
 16 17  2  0
 16 18  1  0
M  CHG  1  18   1
M  END
