
     RDKit          3D

 11 11  0  0  0  0  0  0  0  0999 V2000
    2.9470    0.7190   -0.2340 C   0  0  0  0  0  0  0  0  0  0  0  0
    1.7660    0.4590   -0.9130 O   0  0  0  0  0  0  0  0  0  0  0  0
    0.7480    0.2410   -0.0060 C   0  0  1  0  0  0  0  0  0  0  0  0
   -0.3920    1.1550   -0.1610 C   0  0  0  0  0  0  0  0  0  0  0  0
   -1.5590    0.7570    0.2720 C   0  0  0  0  0  0  0  0  0  0  0  0
   -2.6590    1.6070    0.1370 O   0  0  0  0  0  0  0  0  0  0  0  0
   -1.7990   -0.5620    0.9110 C   0  0  1  0  0  0  0  0  0  0  0  0
   -2.8910   -1.1900    0.3080 O   0  0  0  0  0  0  0  0  0  0  0  0
   -0.7110   -1.3930    0.8790 O   0  0  0  0  0  0  0  0  0  0  0  0
    0.1660   -1.1670   -0.1500 C   0  0  2  0  0  0  0  0  0  0  0  0
    1.1280   -2.1290   -0.2210 O   0  0  0  0  0  0  0  0  0  0  0  0
  1  2  1  0
  3  2  1  6
  3  4  1  0
  3 10  1  0
  4  5  2  0
  5  6  1  0
  5  7  1  0
  7  8  1  6
  7  9  1  0
  9 10  1  0
 10 11  1  1
M  END
