
     RDKit          3D

 18 20  0  0  0  0  0  0  0  0999 V2000
    3.1780   -1.6970   -0.6340 N   0  0  0  0  0  0  0  0  0  0  0  0
    2.7370   -0.7840    0.4050 C   0  0  1  0  0  0  0  0  0  0  0  0
    3.8110    0.2330    0.7110 C   0  0  0  0  0  0  0  0  0  0  0  0
    4.2110    1.0590   -0.4590 C   0  0  0  0  0  0  0  0  0  0  0  0
    3.1240    1.4060   -1.4030 C   0  0  0  0  0  0  0  0  0  0  0  0
    1.7720    1.0390   -0.9060 C   0  0  0  0  0  0  0  0  0  0  0  0
    0.7040    1.7270   -1.2950 N   0  0  0  0  0  0  0  0  0  0  0  0
   -0.5560    1.4150   -0.8570 C   0  0  0  0  0  0  0  0  0  0  0  0
   -1.5170    2.1340   -1.2860 O   0  0  0  0  0  0  0  0  0  0  0  0
   -0.8260    0.3880    0.0040 C   0  0  0  0  0  0  0  0  0  0  0  0
   -2.1450    0.0310    0.4850 C   0  0  0  0  0  0  0  0  0  0  0  0
   -2.2810   -1.0000    1.3430 C   0  0  0  0  0  0  0  0  0  0  0  0
   -3.6950   -1.2830    1.7750 C   0  0  0  0  0  0  0  0  0  0  0  0
   -4.4380   -1.5670    0.4940 C   0  0  0  0  0  0  0  0  0  0  0  0
   -4.4860   -0.3200   -0.3330 C   0  0  0  0  0  0  0  0  0  0  0  0
   -3.4310    0.6740    0.1530 C   0  0  0  0  0  0  0  0  0  0  0  0
    0.2850   -0.3510    0.4280 C   0  0  0  0  0  0  0  0  0  0  0  0
    1.5390    0.0020   -0.0430 C   0  0  0  0  0  0  0  0  0  0  0  0
  2  1  1  6
  2  3  1  0
  2 18  1  0
  3  4  1  0
  4  5  1  0
  5  6  1  0
  6  7  1  0
  6 18  2  0
  7  8  1  0
  8  9  2  0
  8 10  1  0
 10 11  1  0
 10 17  2  0
 11 12  2  0
 11 16  1  0
 12 13  1  0
 13 14  1  0
 14 15  1  0
 15 16  1  0
 17 18  1  0
M  CHG  1   1   1
M  END
