
     RDKit          3D

 18 20  0  0  0  0  0  0  0  0999 V2000
    1.8030   -2.1480    0.9430 C   0  0  0  0  0  0  0  0  0  0  0  0
    1.4290   -0.8030    0.4090 C   0  0  0  0  0  0  0  0  0  0  0  0
    2.3610    0.1150    0.2150 C   0  0  0  0  0  0  0  0  0  0  0  0
    3.8020   -0.1030    0.5030 C   0  0  0  0  0  0  0  0  0  0  0  0
    4.6390    0.0360   -0.6650 N   0  0  0  0  0  0  0  0  0  0  0  0
    1.9330    1.4040   -0.3200 C   0  0  0  0  0  0  0  0  0  0  0  0
    2.8220    2.3010   -0.5120 O   0  0  0  0  0  0  0  0  0  0  0  0
    0.6150    1.7450   -0.6460 N   0  0  0  0  0  0  0  0  0  0  0  0
   -0.1440    2.9620   -0.9160 C   0  0  0  0  0  0  0  0  0  0  0  0
   -1.5980    2.5240   -0.9540 C   0  0  0  0  0  0  0  0  0  0  0  0
   -1.5310    1.3110   -0.0950 C   0  0  1  0  0  0  0  0  0  0  0  0
   -2.7150    0.4410   -0.0770 C   0  0  0  0  0  0  0  0  0  0  0  0
   -2.4090   -0.9640    0.3680 C   0  0  2  0  0  0  0  0  0  0  0  0
   -2.8710   -1.8940   -0.7540 C   0  0  0  0  0  0  0  0  0  0  0  0
   -3.1610   -1.3430    1.6270 C   0  0  0  0  0  0  0  0  0  0  0  0
   -0.9700   -1.2040    0.6190 C   0  0  0  0  0  0  0  0  0  0  0  0
    0.0190   -0.4960    0.1090 C   0  0  0  0  0  0  0  0  0  0  0  0
   -0.3290    0.6220   -0.7680 C   0  0  2  0  0  0  0  0  0  0  0  0
  1  2  1  0
  2  3  2  0
  2 17  1  0
  3  4  1  0
  3  6  1  0
  4  5  1  0
  6  7  2  0
  6  8  1  0
  8  9  1  0
 18  8  1  1
  9 10  1  0
 11 10  1  6
 11 12  1  0
 11 18  1  0
 12 13  1  0
 13 14  1  6
 13 15  1  0
 13 16  1  0
 16 17  2  0
 17 18  1  0
M  CHG  1   5   1
M  END
