
     RDKit          3D

 12 12  0  0  0  0  0  0  0  0999 V2000
   -2.5910    1.1680    0.6740 O   0  0  0  0  0  0  0  0  0  0  0  0
   -2.0330   -0.0920    0.4060 C   0  0  0  0  0  0  0  0  0  0  0  0
   -0.6140    0.1590   -0.0840 C   0  0  1  0  0  0  0  0  0  0  0  0
   -0.5920    0.9290   -1.2220 O   0  0  0  0  0  0  0  0  0  0  0  0
    0.0830    0.7580    0.9420 O   0  0  0  0  0  0  0  0  0  0  0  0
    1.3250    1.1940    0.5410 C   0  0  2  0  0  0  0  0  0  0  0  0
    1.2860    2.4520   -0.0460 O   0  0  0  0  0  0  0  0  0  0  0  0
    2.0050    0.2030   -0.4010 C   0  0  0  0  0  0  0  0  0  0  0  0
    1.4700   -1.1620   -0.0720 C   0  0  0  0  0  0  0  0  0  0  0  0
    0.0060   -1.1830   -0.4150 C   0  0  2  0  0  0  0  0  0  0  0  0
   -0.1730   -1.4370   -1.7740 O   0  0  0  0  0  0  0  0  0  0  0  0
   -0.6110   -2.1420    0.3770 O   0  0  0  0  0  0  0  0  0  0  0  0
  1  2  1  0
  2  3  1  0
  3  4  1  6
  3  5  1  0
  3 10  1  0
  5  6  1  0
  6  7  1  6
  6  8  1  0
  8  9  1  0
  9 10  1  0
 10 11  1  6
 10 12  1  0
M  END
