
     RDKit          3D

 17 17  0  0  0  0  0  0  0  0999 V2000
   -0.8700   -1.8180   -0.6370 C   0  0  0  0  0  0  0  0  0  0  0  0
   -0.2580   -0.6680    0.1300 C   0  0  2  0  0  0  0  0  0  0  0  0
    1.2110   -0.7950   -0.0190 C   0  0  0  0  0  0  0  0  0  0  0  0
    1.9380   -0.9290    0.9930 O   0  0  0  0  0  0  0  0  0  0  0  0
    1.8430   -0.7730   -1.2540 O   0  0  0  0  0  0  0  0  0  0  0  0
    3.2430   -0.8960   -1.3780 C   0  0  0  0  0  0  0  0  0  0  0  0
    3.9470    0.2050   -0.6560 C   0  0  0  0  0  0  0  0  0  0  0  0
    5.2000    0.2660   -0.6530 O   0  0  0  0  0  0  0  0  0  0  0  0
    3.2390    1.1740    0.0200 O   0  0  0  0  0  0  0  0  0  0  0  0
   -0.5860   -0.7400    1.6010 C   0  0  0  0  0  0  0  0  0  0  0  0
   -2.0470   -0.6270    1.8960 C   0  0  0  0  0  0  0  0  0  0  0  0
   -2.7860    0.3770    1.0980 C   0  0  0  0  0  0  0  0  0  0  0  0
   -2.2680    0.6390   -0.2640 C   0  0  0  0  0  0  0  0  0  0  0  0
   -0.7580    0.6690   -0.3460 C   0  0  1  0  0  0  0  0  0  0  0  0
   -0.3260    1.6320    0.5660 O   0  0  0  0  0  0  0  0  0  0  0  0
   -0.2970    1.0550   -1.7040 C   0  0  0  0  0  0  0  0  0  0  0  0
   -0.8740    2.3180   -1.9830 O   0  0  0  0  0  0  0  0  0  0  0  0
  2  1  1  6
  2  3  1  0
  2 10  1  0
  2 14  1  0
  3  4  2  0
  3  5  1  0
  5  6  1  0
  6  7  1  0
  7  8  2  0
  7  9  1  0
 10 11  1  0
 11 12  1  0
 12 13  1  0
 13 14  1  0
 14 15  1  1
 14 16  1  0
 16 17  1  0
M  END
