
     RDKit          3D

 17 17  0  0  0  0  0  0  0  0999 V2000
    2.0840    2.1200    0.1220 C   0  0  0  0  0  0  0  0  0  0  0  0
    2.9840    0.9440   -0.0760 C   0  0  0  0  0  0  0  0  0  0  0  0
    2.6340   -0.2860    0.2390 C   0  0  0  0  0  0  0  0  0  0  0  0
    1.3990   -0.5040    0.7690 O   0  0  0  0  0  0  0  0  0  0  0  0
    0.2090   -0.5230    0.1000 C   0  0  0  0  0  0  0  0  0  0  0  0
    0.0900   -0.4670   -1.2160 C   0  0  0  0  0  0  0  0  0  0  0  0
   -1.1880   -0.4860   -1.9580 C   0  0  0  0  0  0  0  0  0  0  0  0
   -2.4090   -0.3380   -1.0850 C   0  0  0  0  0  0  0  0  0  0  0  0
   -2.0180    0.3430    0.1830 C   0  0  1  0  0  0  0  0  0  0  0  0
   -3.1300    0.6980    1.0510 C   0  0  0  0  0  0  0  0  0  0  0  0
   -3.1990    0.2320    2.2080 O   0  0  0  0  0  0  0  0  0  0  0  0
   -4.1200    1.5500    0.6070 O   0  0  0  0  0  0  0  0  0  0  0  0
   -1.0450   -0.6130    0.8900 C   0  0  2  0  0  0  0  0  0  0  0  0
   -0.8870   -0.2820    2.2130 O   0  0  0  0  0  0  0  0  0  0  0  0
    3.5370   -1.4030    0.0310 C   0  0  0  0  0  0  0  0  0  0  0  0
    4.6930   -1.2760   -0.4540 O   0  0  0  0  0  0  0  0  0  0  0  0
    3.1580   -2.6980    0.3670 O   0  0  0  0  0  0  0  0  0  0  0  0
  1  2  1  0
  2  3  2  3
  3  4  1  0
  3 15  1  0
  4  5  1  0
  5  6  2  0
  5 13  1  0
  6  7  1  0
  7  8  1  0
  8  9  1  0
  9 10  1  1
  9 13  1  0
 10 11  2  0
 10 12  1  0
 13 14  1  1
 15 16  2  0
 15 17  1  0
M  END
