
     RDKit          3D

 17 17  0  0  0  0  0  0  0  0999 V2000
    0.3900    1.5730    0.5400 C   0  0  0  0  0  0  0  0  0  0  0  0
   -0.0340    0.4780   -0.3660 C   0  0  2  0  0  0  0  0  0  0  0  0
    0.8720   -0.5590   -0.5230 O   0  0  0  0  0  0  0  0  0  0  0  0
    2.1270   -0.3400   -1.0130 C   0  0  0  0  0  0  0  0  0  0  0  0
    2.4570    0.8400   -1.3280 O   0  0  0  0  0  0  0  0  0  0  0  0
    3.1490   -1.4080   -1.2010 C   0  0  0  0  0  0  0  0  0  0  0  0
    4.4490   -0.9570   -0.5210 C   0  0  0  0  0  0  0  0  0  0  0  0
    4.1860   -0.7530    0.8590 O   0  0  0  0  0  0  0  0  0  0  0  0
   -0.5710    1.0600   -1.6510 C   0  0  0  0  0  0  0  0  0  0  0  0
   -1.7860    1.6590   -1.2710 O   0  0  0  0  0  0  0  0  0  0  0  0
   -2.2140    1.0900   -0.0490 C   0  0  0  0  0  0  0  0  0  0  0  0
   -3.1930    1.5570    0.6890 C   0  0  0  0  0  0  0  0  0  0  0  0
   -3.8670    2.6870    0.2480 O   0  0  0  0  0  0  0  0  0  0  0  0
   -1.3620   -0.0590    0.1750 C   0  0  0  0  0  0  0  0  0  0  0  0
   -1.6220   -1.1890    0.7150 C   0  0  0  0  0  0  0  0  0  0  0  0
   -2.9570   -1.6110    1.1960 C   0  0  0  0  0  0  0  0  0  0  0  0
   -2.9620   -1.8780    2.5490 O   0  0  0  0  0  0  0  0  0  0  0  0
  2  1  1  1
  2  3  1  0
  2  9  1  0
  2 14  1  0
  3  4  1  0
  4  5  2  0
  4  6  1  0
  6  7  1  0
  7  8  1  0
  9 10  1  0
 10 11  1  0
 11 12  2  3
 11 14  1  0
 12 13  1  0
 14 15  2  3
 15 16  1  0
 16 17  1  0
M  END
