
     RDKit          3D

 17 17  0  0  0  0  0  0  0  0999 V2000
    5.5230   -0.3400   -0.6720 C   0  0  0  0  0  0  0  0  0  0  0  0
    4.7190   -0.8520    0.4870 C   0  0  0  0  0  0  0  0  0  0  0  0
    3.3790   -0.4400    0.4710 O   0  0  0  0  0  0  0  0  0  0  0  0
    2.9710    0.8860    0.5010 C   0  0  0  0  0  0  0  0  0  0  0  0
    3.8680    1.7570    0.5450 O   0  0  0  0  0  0  0  0  0  0  0  0
    1.5300    1.2640    0.4820 C   0  0  0  0  0  0  0  0  0  0  0  0
    0.7690    0.0500    0.4310 O   0  0  0  0  0  0  0  0  0  0  0  0
   -0.6210    0.0770    0.4030 C   0  0  0  0  0  0  0  0  0  0  0  0
   -1.3020   -0.3520   -0.6210 C   0  0  0  0  0  0  0  0  0  0  0  0
   -2.7520   -0.3380   -0.6820 C   0  0  1  0  0  0  0  0  0  0  0  0
   -3.3080   -1.7090   -1.1070 C   0  0  0  0  0  0  0  0  0  0  0  0
   -4.6940   -1.5660   -1.1280 O   0  0  0  0  0  0  0  0  0  0  0  0
   -3.4380    0.1950    0.4960 C   0  0  2  0  0  0  0  0  0  0  0  0
   -4.3880    1.1940    0.1530 O   0  0  0  0  0  0  0  0  0  0  0  0
   -2.5830    0.6460    1.5790 C   0  0  0  0  0  0  0  0  0  0  0  0
   -1.2770    0.6180    1.5960 C   0  0  0  0  0  0  0  0  0  0  0  0
   -0.5400    1.0790    2.6960 O   0  0  0  0  0  0  0  0  0  0  0  0
  1  2  1  0
  2  3  1  0
  3  4  1  0
  4  5  2  0
  4  6  1  0
  6  7  1  0
  7  8  1  0
  8  9  2  0
  8 16  1  0
  9 10  1  0
 10 11  1  1
 10 13  1  0
 11 12  1  0
 13 14  1  6
 13 15  1  0
 15 16  2  0
 16 17  1  0
M  END
