
     RDKit          3D

 17 17  0  0  0  0  0  0  0  0999 V2000
    0.4090   -1.4880    0.6480 C   0  0  0  0  0  0  0  0  0  0  0  0
   -0.1950   -0.1610    0.2680 C   0  0  2  0  0  0  0  0  0  0  0  0
    0.3700    0.3340   -0.8900 O   0  0  0  0  0  0  0  0  0  0  0  0
    1.7470    0.4670   -0.6730 C   0  0  0  0  0  0  0  0  0  0  0  0
    2.4460    1.0030   -1.8980 C   0  0  0  0  0  0  0  0  0  0  0  0
    3.8230    1.1180   -1.6270 O   0  0  0  0  0  0  0  0  0  0  0  0
    4.6640    0.0900   -1.2950 C   0  0  0  0  0  0  0  0  0  0  0  0
    4.2380   -1.0830   -1.2080 O   0  0  0  0  0  0  0  0  0  0  0  0
    6.0320    0.2820   -1.0350 O   0  0  0  0  0  0  0  0  0  0  0  0
   -0.2470    0.8920    1.3430 C   0  0  0  0  0  0  0  0  0  0  0  0
   -1.6270    1.2630    0.7750 C   0  0  1  0  0  0  0  0  0  0  0  0
   -2.6200    1.6910    1.8060 C   0  0  0  0  0  0  0  0  0  0  0  0
   -1.5010    2.1450   -0.2930 O   0  0  0  0  0  0  0  0  0  0  0  0
   -1.7130   -0.1440    0.2910 C   0  0  2  0  0  0  0  0  0  0  0  0
   -2.2660   -1.0580    1.3310 C   0  0  0  0  0  0  0  0  0  0  0  0
   -2.3640   -0.3560   -1.0510 C   0  0  0  0  0  0  0  0  0  0  0  0
   -2.0040    0.6220   -1.9740 O   0  0  0  0  0  0  0  0  0  0  0  0
  2  1  1  1
  2  3  1  0
  2 10  1  0
  2 14  1  0
  3  4  1  0
  4  5  1  0
  5  6  1  0
  6  7  1  0
  7  8  2  0
  7  9  1  0
 10 11  1  0
 11 12  1  1
 11 13  1  0
 11 14  1  0
 14 15  1  1
 14 16  1  0
 16 17  1  0
M  END
