
     RDKit          3D

 42 45  0  0  0  0  0  0  0  0999 V2000
  -11.5240   -0.3890   -0.1050 C   0  0  0  0  0  0  0  0  0  0  0  0
  -10.6980    0.0690    0.8700 O   0  0  0  0  0  0  0  0  0  0  0  0
   -9.3640   -0.1200    0.6350 C   0  0  0  0  0  0  0  0  0  0  0  0
   -8.8860   -1.5160    0.4860 C   0  0  2  0  0  0  0  0  0  0  0  0
   -7.3450   -1.5610    0.5130 C   0  0  0  0  0  0  0  0  0  0  0  0
   -6.9550   -1.0280   -0.7860 N   0  0  0  0  0  0  0  0  0  0  0  0
   -5.9800    0.0010   -0.8110 C   0  0  0  0  0  0  0  0  0  0  0  0
   -5.6510    0.4610   -1.9380 O   0  0  0  0  0  0  0  0  0  0  0  0
   -5.3430    0.5470    0.4280 C   0  0  0  0  0  0  0  0  0  0  0  0
   -4.3940    1.6570    0.0550 C   0  0  0  0  0  0  0  0  0  0  0  0
   -3.6950    2.2830    1.2310 C   0  0  0  0  0  0  0  0  0  0  0  0
   -2.8600    1.2990    2.0210 C   0  0  1  0  0  0  0  0  0  0  0  0
   -1.7900    0.6550    1.2290 C   0  0  0  0  0  0  0  0  0  0  0  0
   -0.4290    0.8310    1.8170 C   0  0  1  0  0  0  0  0  0  0  0  0
    0.5470    0.6000    0.6890 C   0  0  0  0  0  0  0  0  0  0  0  0
    1.3500    1.4910    0.3120 O   0  0  0  0  0  0  0  0  0  0  0  0
    0.5740   -0.6170    0.0390 O   0  0  0  0  0  0  0  0  0  0  0  0
    1.4790   -0.8430   -1.0120 C   0  0  0  0  0  0  0  0  0  0  0  0
    2.8540   -0.7050   -0.5240 C   0  0  0  0  0  0  0  0  0  0  0  0
    3.0610   -0.4400    0.6790 O   0  0  0  0  0  0  0  0  0  0  0  0
    3.9860   -0.8670   -1.3990 N   0  0  0  0  0  0  0  0  0  0  0  0
    5.2820   -0.7170   -0.8540 C   0  0  0  0  0  0  0  0  0  0  0  0
    5.5810   -0.3170    0.9170 S   0  0  0  0  0  0  0  0  0  0  0  0
    7.2970   -0.3090    0.7890 C   0  0  0  0  0  0  0  0  0  0  0  0
    7.6040   -0.6030   -0.5570 C   0  0  0  0  0  0  0  0  0  0  0  0
    6.5380   -0.8010   -1.3540 C   0  0  0  0  0  0  0  0  0  0  0  0
    6.6990   -1.1090   -2.8210 C   0  0  0  0  0  0  0  0  0  0  0  0
    5.7040   -1.2890   -3.5630 O   0  0  0  0  0  0  0  0  0  0  0  0
    7.9210   -1.2120   -3.4370 O   0  0  0  0  0  0  0  0  0  0  0  0
    8.0990   -1.4970   -4.8040 C   0  0  0  0  0  0  0  0  0  0  0  0
    8.9820   -0.7350   -1.1900 C   0  0  0  0  0  0  0  0  0  0  0  0
   10.0430   -0.6880   -0.1190 C   0  0  0  0  0  0  0  0  0  0  0  0
   10.5730    0.6780    0.1280 C   0  0  0  0  0  0  0  0  0  0  0  0
   10.2390    1.3070    1.4260 C   0  0  0  0  0  0  0  0  0  0  0  0
    9.2060    0.6120    2.2300 C   0  0  0  0  0  0  0  0  0  0  0  0
    8.0720   -0.0140    2.0120 C   0  0  0  0  0  0  0  0  0  0  0  0
   -0.1820    2.2340    2.3200 C   0  0  0  0  0  0  0  0  0  0  0  0
   -1.3850    2.7740    3.0540 C   0  0  0  0  0  0  0  0  0  0  0  0
   -2.3830    1.8260    3.1910 O   0  0  0  0  0  0  0  0  0  0  0  0
   -7.5570   -1.5490   -1.9700 C   0  0  0  0  0  0  0  0  0  0  0  0
   -9.0080   -1.9170   -1.8030 C   0  0  0  0  0  0  0  0  0  0  0  0
   -9.3900   -2.2550   -0.5380 O   0  0  0  0  0  0  0  0  0  0  0  0
  1  2  1  0
  2  3  1  0
  4  3  1  6
  4  5  1  0
  4 42  1  0
  5  6  1  0
  6  7  1  0
  6 40  1  0
  7  8  2  0
  7  9  1  0
  9 10  1  0
 10 11  1  0
 12 11  1  6
 12 13  1  0
 12 39  1  0
 13 14  1  0
 14 15  1  6
 14 37  1  0
 15 16  2  0
 15 17  1  0
 17 18  1  0
 18 19  1  0
 19 20  2  0
 19 21  1  0
 21 22  1  0
 22 23  1  0
 22 26  2  0
 23 24  1  0
 24 25  2  0
 24 36  1  0
 25 26  1  0
 25 31  1  0
 26 27  1  0
 27 28  2  0
 27 29  1  0
 29 30  1  0
 31 32  1  0
 32 33  1  0
 33 34  1  0
 34 35  1  0
 35 36  2  0
 37 38  1  0
 38 39  1  0
 40 41  1  0
 41 42  1  0
M  END
