
     RDKit          3D

 42 46  0  0  0  0  0  0  0  0999 V2000
   -6.1170    0.0000   -0.2210 C   0  0  0  0  0  0  0  0  0  0  0  0
   -4.7420   -0.2180   -0.5200 O   0  0  0  0  0  0  0  0  0  0  0  0
   -3.9990    0.8030   -1.1620 C   0  0  0  0  0  0  0  0  0  0  0  0
   -4.0100    0.8450   -2.5390 C   0  0  0  0  0  0  0  0  0  0  0  0
   -4.7500   -0.1230   -3.2410 O   0  0  0  0  0  0  0  0  0  0  0  0
   -3.3250    1.7970   -3.2640 C   0  0  0  0  0  0  0  0  0  0  0  0
   -2.6180    2.7180   -2.5170 C   0  0  0  0  0  0  0  0  0  0  0  0
   -2.5870    2.7040   -1.1450 C   0  0  0  0  0  0  0  0  0  0  0  0
   -3.2880    1.7300   -0.4430 C   0  0  0  0  0  0  0  0  0  0  0  0
   -3.0270    1.9710    0.9730 C   0  0  1  0  0  0  0  0  0  0  0  0
   -1.8620    1.3590    1.6120 C   0  0  0  0  0  0  0  0  0  0  0  0
   -1.6500   -0.0240    1.7290 N   0  0  0  0  0  0  0  0  0  0  0  0
   -1.9890   -0.7380    2.9370 C   0  0  0  0  0  0  0  0  0  0  0  0
   -3.2590   -1.4650    3.0300 C   0  0  1  0  0  0  0  0  0  0  0  0
   -3.2440   -2.1120    4.3240 O   0  0  0  0  0  0  0  0  0  0  0  0
   -4.5060   -0.5890    3.1550 C   0  0  0  0  0  0  0  0  0  0  0  0
   -5.5690   -1.4710    3.4120 O   0  0  0  0  0  0  0  0  0  0  0  0
   -0.9790   -0.7780    0.7500 C   0  0  0  0  0  0  0  0  0  0  0  0
   -0.8560   -2.0550    0.8670 O   0  0  0  0  0  0  0  0  0  0  0  0
   -0.3760   -0.1990   -0.4390 C   0  0  0  0  0  0  0  0  0  0  0  0
    0.2920   -1.2090   -1.2770 N   0  0  0  0  0  0  0  0  0  0  0  0
    1.6370   -1.4650   -0.9950 C   0  0  0  0  0  0  0  0  0  0  0  0
    2.2690   -2.3240   -1.6350 O   0  0  0  0  0  0  0  0  0  0  0  0
    2.3860   -0.7250    0.0850 C   0  0  0  0  0  0  0  0  0  0  0  0
    3.7580   -1.2850    0.1440 C   0  0  0  0  0  0  0  0  0  0  0  0
    4.6630   -0.6820    1.1590 C   0  0  1  0  0  0  0  0  0  0  0  0
    6.0090   -1.4110    1.0390 C   0  0  0  0  0  0  0  0  0  0  0  0
    7.0480   -0.6650    1.6400 O   0  0  0  0  0  0  0  0  0  0  0  0
    7.1580    0.6920    1.3810 C   0  0  0  0  0  0  0  0  0  0  0  0
    8.3660    1.3420    1.4790 C   0  0  0  0  0  0  0  0  0  0  0  0
    8.4640    2.7100    1.2150 C   0  0  0  0  0  0  0  0  0  0  0  0
    7.3240    3.3690    0.8600 C   0  0  0  0  0  0  0  0  0  0  0  0
    6.0940    2.7270    0.7560 C   0  0  0  0  0  0  0  0  0  0  0  0
    6.0170    1.3740    1.0210 C   0  0  0  0  0  0  0  0  0  0  0  0
    4.8280    0.7030    0.9310 O   0  0  0  0  0  0  0  0  0  0  0  0
   -0.4370   -1.8340   -2.3410 C   0  0  1  0  0  0  0  0  0  0  0  0
   -0.0440   -1.4580   -3.7210 C   0  0  0  0  0  0  0  0  0  0  0  0
    0.9480   -2.3800   -4.3150 C   0  0  0  0  0  0  0  0  0  0  0  0
    0.7270   -3.8900   -3.3660 S   0  0  0  0  0  0  0  0  0  0  0  0
   -0.5880   -3.3120   -2.2580 C   0  0  0  0  0  0  0  0  0  0  0  0
   -2.7540    3.5110    0.9550 C   0  0  0  0  0  0  0  0  0  0  0  0
   -1.9250    3.5630   -0.2230 O   0  0  0  0  0  0  0  0  0  0  0  0
  1  2  1  0
  2  3  1  0
  3  4  2  0
  3  9  1  0
  4  5  1  0
  4  6  1  0
  6  7  2  0
  7  8  1  0
  8  9  2  0
  8 42  1  0
  9 10  1  0
 10 11  1  6
 10 41  1  0
 11 12  1  0
 12 13  1  0
 12 18  1  0
 13 14  1  0
 14 15  1  1
 14 16  1  0
 16 17  1  0
 18 19  2  0
 18 20  1  0
 20 21  1  0
 21 22  1  0
 36 21  1  1
 22 23  2  0
 22 24  1  0
 24 25  1  0
 26 25  1  6
 26 27  1  0
 26 35  1  0
 27 28  1  0
 28 29  1  0
 29 30  2  0
 29 34  1  0
 30 31  1  0
 31 32  2  0
 32 33  1  0
 33 34  2  0
 34 35  1  0
 36 37  1  0
 36 40  1  0
 37 38  1  0
 38 39  1  0
 39 40  1  0
 41 42  1  0
M  END
