
     RDKit          3D

 42 45  0  0  0  0  0  0  0  0999 V2000
    8.4500   -0.6130    0.9520 C   0  0  0  0  0  0  0  0  0  0  0  0
    7.8160   -0.3250    2.2690 C   0  0  0  0  0  0  0  0  0  0  0  0
    6.8470    0.8200    2.2700 C   0  0  1  0  0  0  0  0  0  0  0  0
    7.4440    2.1210    1.8680 C   0  0  0  0  0  0  0  0  0  0  0  0
    6.1740    2.9390    1.5770 C   0  0  0  0  0  0  0  0  0  0  0  0
    5.2920    1.8820    0.9540 C   0  0  0  0  0  0  0  0  0  0  0  0
    4.2310    2.0000    0.0990 C   0  0  0  0  0  0  0  0  0  0  0  0
    3.5890    0.8620   -0.3360 C   0  0  0  0  0  0  0  0  0  0  0  0
    3.9780   -0.4190    0.0630 C   0  0  0  0  0  0  0  0  0  0  0  0
    3.2480   -1.5930   -0.4330 C   0  0  0  0  0  0  0  0  0  0  0  0
    3.6140   -2.8110   -0.0920 C   0  0  0  0  0  0  0  0  0  0  0  0
    2.8590   -4.0060   -0.6060 C   0  0  1  0  0  0  0  0  0  0  0  0
    3.0690   -4.1720   -1.9550 F   0  0  0  0  0  0  0  0  0  0  0  0
    3.2860   -5.1390    0.0460 F   0  0  0  0  0  0  0  0  0  0  0  0
    2.0910   -1.4260   -1.3450 C   0  0  0  0  0  0  0  0  0  0  0  0
    0.9520   -0.7140   -0.6500 C   0  0  0  0  0  0  0  0  0  0  0  0
    1.0460   -0.4500    0.5650 O   0  0  0  0  0  0  0  0  0  0  0  0
   -0.2110   -0.3470   -1.3700 N   0  0  0  0  0  0  0  0  0  0  0  0
   -1.3500    0.3170   -0.8710 C   0  0  0  0  0  0  0  0  0  0  0  0
   -1.4820    0.7560    0.4090 C   0  0  0  0  0  0  0  0  0  0  0  0
   -2.6100    1.4350    0.8770 C   0  0  0  0  0  0  0  0  0  0  0  0
   -3.6380    1.6720    0.0060 C   0  0  0  0  0  0  0  0  0  0  0  0
   -4.8000    2.3270    0.3470 O   0  0  0  0  0  0  0  0  0  0  0  0
   -5.9530    1.6120    0.5920 C   0  0  0  0  0  0  0  0  0  0  0  0
   -7.0790    1.8510   -0.2070 C   0  0  0  0  0  0  0  0  0  0  0  0
   -8.2280    1.1240    0.0520 C   0  0  0  0  0  0  0  0  0  0  0  0
   -9.4110    1.3490   -0.7580 C   0  0  0  0  0  0  0  0  0  0  0  0
   -9.3700    2.1990   -1.6740 O   0  0  0  0  0  0  0  0  0  0  0  0
   -8.2730    0.1880    1.0670 C   0  0  0  0  0  0  0  0  0  0  0  0
   -7.1730   -0.0450    1.8460 C   0  0  0  0  0  0  0  0  0  0  0  0
   -6.0040    0.6880    1.5900 C   0  0  0  0  0  0  0  0  0  0  0  0
   -4.9090    0.4330    2.3930 O   0  0  0  0  0  0  0  0  0  0  0  0
   -4.9820   -0.5260    3.4190 C   0  0  0  0  0  0  0  0  0  0  0  0
   -3.5220    1.2290   -1.3150 C   0  0  0  0  0  0  0  0  0  0  0  0
   -2.3960    0.5570   -1.7580 C   0  0  0  0  0  0  0  0  0  0  0  0
   -2.3630    0.0970   -3.1500 C   0  0  2  0  0  0  0  0  0  0  0  0
   -3.4920    0.7810   -3.9280 C   0  0  0  0  0  0  0  0  0  0  0  0
   -2.6630   -1.3670   -3.2610 C   0  0  0  0  0  0  0  0  0  0  0  0
   -3.8750   -1.9200   -2.7540 N   0  0  0  0  0  0  0  0  0  0  0  0
   -1.8510   -2.1450   -3.8060 O   0  0  0  0  0  0  0  0  0  0  0  0
    5.0440   -0.5000    0.9190 C   0  0  0  0  0  0  0  0  0  0  0  0
    5.7050    0.6360    1.3690 C   0  0  0  0  0  0  0  0  0  0  0  0
  1  2  1  0
  3  2  1  6
  3  4  1  0
  3 42  1  0
  4  5  1  0
  5  6  1  0
  6  7  2  0
  6 42  1  0
  7  8  1  0
  8  9  2  0
  9 10  1  0
  9 41  1  0
 10 11  2  3
 10 15  1  0
 11 12  1  0
 12 13  1  6
 12 14  1  0
 15 16  1  0
 16 17  2  0
 16 18  1  0
 18 19  1  0
 19 20  2  0
 19 35  1  0
 20 21  1  0
 21 22  2  0
 22 23  1  0
 22 34  1  0
 23 24  1  0
 24 25  2  0
 24 31  1  0
 25 26  1  0
 26 27  1  0
 26 29  2  0
 27 28  2  0
 29 30  1  0
 30 31  2  0
 31 32  1  0
 32 33  1  0
 34 35  2  0
 35 36  1  0
 36 37  1  6
 36 38  1  0
 38 39  1  0
 38 40  2  0
 41 42  2  0
M  END
