
     RDKit          3D

 42 45  0  0  0  0  0  0  0  0999 V2000
   -3.3660   -1.4410    4.7550 C   0  0  0  0  0  0  0  0  0  0  0  0
   -2.4520   -0.4360    4.3930 O   0  0  0  0  0  0  0  0  0  0  0  0
   -2.1830   -0.2230    3.0610 C   0  0  0  0  0  0  0  0  0  0  0  0
   -2.7440   -0.9150    2.1960 O   0  0  0  0  0  0  0  0  0  0  0  0
   -1.2160    0.8350    2.5960 C   0  0  1  0  0  0  0  0  0  0  0  0
    0.0130    0.9270    3.4120 C   0  0  0  0  0  0  0  0  0  0  0  0
   -1.0140    0.7560    1.1980 O   0  0  0  0  0  0  0  0  0  0  0  0
   -1.5950    1.5980    0.2990 C   0  0  0  0  0  0  0  0  0  0  0  0
   -2.3790    2.4720    0.8440 O   0  0  0  0  0  0  0  0  0  0  0  0
   -1.3860    1.5550   -1.1280 C   0  0  1  0  0  0  0  0  0  0  0  0
   -0.0180    2.2700   -1.4510 C   0  0  0  0  0  0  0  0  0  0  0  0
   -1.4400    0.2820   -1.8060 C   0  0  0  0  0  0  0  0  0  0  0  0
   -0.4760   -0.8230   -1.5880 C   0  0  2  0  0  0  0  0  0  0  0  0
   -1.0200   -1.9400   -2.6180 C   0  0  0  0  0  0  0  0  0  0  0  0
   -0.1420   -3.1180   -2.5160 C   0  0  0  0  0  0  0  0  0  0  0  0
   -0.5460   -4.3360   -2.1620 C   0  0  0  0  0  0  0  0  0  0  0  0
    0.5650   -5.2390   -2.1670 N   0  0  0  0  0  0  0  0  0  0  0  0
    1.7890   -4.4480   -2.2450 C   0  0  0  0  0  0  0  0  0  0  0  0
    1.2910   -3.1720   -2.7750 C   0  0  0  0  0  0  0  0  0  0  0  0
    2.0050   -2.3040   -3.3460 O   0  0  0  0  0  0  0  0  0  0  0  0
   -0.1280   -1.3800   -0.4950 O   0  0  0  0  0  0  0  0  0  0  0  0
    0.4610   -1.8380    0.5490 C   0  0  0  0  0  0  0  0  0  0  0  0
   -0.2120   -2.6910    1.4700 C   0  0  0  0  0  0  0  0  0  0  0  0
    0.3930   -3.1860    2.5830 C   0  0  0  0  0  0  0  0  0  0  0  0
    1.6970   -2.8910    2.8850 C   0  0  0  0  0  0  0  0  0  0  0  0
    2.3720   -2.0660    2.0090 C   0  0  0  0  0  0  0  0  0  0  0  0
    3.7100   -1.7360    2.2830 C   0  0  0  0  0  0  0  0  0  0  0  0
    4.4570   -0.9180    1.4660 C   0  0  0  0  0  0  0  0  0  0  0  0
    5.8830   -0.5920    1.7980 C   0  0  0  0  0  0  0  0  0  0  0  0
    3.8840   -0.3980    0.3340 C   0  0  0  0  0  0  0  0  0  0  0  0
    4.6050    0.4890   -0.6050 C   0  0  0  0  0  0  0  0  0  0  0  0
    2.5730   -0.7150    0.0560 C   0  0  0  0  0  0  0  0  0  0  0  0
    1.7960   -1.5450    0.8740 C   0  0  0  0  0  0  0  0  0  0  0  0
   -2.3340    2.4670   -1.7310 O   0  0  0  0  0  0  0  0  0  0  0  0
   -2.3470    3.8090   -1.4860 C   0  0  0  0  0  0  0  0  0  0  0  0
   -1.4990    4.3180   -0.7050 O   0  0  0  0  0  0  0  0  0  0  0  0
   -3.3340    4.6990   -2.1110 C   0  0  2  0  0  0  0  0  0  0  0  0
   -3.2810    4.6610   -3.6360 C   0  0  0  0  0  0  0  0  0  0  0  0
   -4.2750    6.1750   -3.9780 S   0  0  0  0  0  0  0  0  0  0  0  0
   -4.0260    6.9550   -2.3570 C   0  0  0  0  0  0  0  0  0  0  0  0
   -4.5330    8.0250   -1.9570 O   0  0  0  0  0  0  0  0  0  0  0  0
   -3.1420    6.0630   -1.6990 N   0  0  0  0  0  0  0  0  0  0  0  0
  1  2  1  0
  2  3  1  0
  3  4  2  0
  3  5  1  0
  5  6  1  1
  5  7  1  0
  7  8  1  0
  8  9  2  0
  8 10  1  0
 10 11  1  1
 10 12  1  0
 10 34  1  0
 13 12  1  1
 13 14  1  0
 13 21  1  0
 14 15  1  0
 15 16  2  0
 15 19  1  0
 16 17  1  0
 17 18  1  0
 18 19  1  0
 19 20  2  0
 21 22  1  0
 22 23  2  0
 22 33  1  0
 23 24  1  0
 24 25  2  0
 25 26  1  0
 26 27  2  0
 26 33  1  0
 27 28  1  0
 28 29  1  0
 28 30  2  0
 30 31  1  0
 30 32  1  0
 32 33  2  0
 34 35  1  0
 35 36  2  0
 37 35  1  1
 37 38  1  0
 37 42  1  0
 38 39  1  0
 39 40  1  0
 40 41  2  0
 40 42  1  0
M  END
