
     RDKit          3D

 42 45  0  0  0  0  0  0  0  0999 V2000
    3.0800   -1.2290   -1.4880 C   0  0  0  0  0  0  0  0  0  0  0  0
    3.4260   -0.0120   -0.8510 O   0  0  0  0  0  0  0  0  0  0  0  0
    4.0020   -0.2110    0.4640 C   0  0  0  0  0  0  0  0  0  0  0  0
    5.1870   -0.6910    0.5200 C   0  0  0  0  0  0  0  0  0  0  0  0
    6.0160   -1.0060    1.6070 C   0  0  0  0  0  0  0  0  0  0  0  0
    7.2340   -1.4920    1.4860 C   0  0  0  0  0  0  0  0  0  0  0  0
    7.8600   -1.7580    0.1910 C   0  0  0  0  0  0  0  0  0  0  0  0
    9.1120   -0.9500    0.0120 C   0  0  0  0  0  0  0  0  0  0  0  0
    9.5490   -0.2650    0.9680 O   0  0  0  0  0  0  0  0  0  0  0  0
    9.8150   -0.9420   -1.2240 N   0  0  0  0  0  0  0  0  0  0  0  0
   11.0290   -0.1360   -1.3340 C   0  0  1  0  0  0  0  0  0  0  0  0
   12.0870   -0.8970   -2.0810 C   0  0  0  0  0  0  0  0  0  0  0  0
   12.4710    0.0450   -3.2210 C   0  0  0  0  0  0  0  0  0  0  0  0
   12.0090    1.3070   -2.8370 O   0  0  0  0  0  0  0  0  0  0  0  0
   10.7410    0.9870   -2.3440 C   0  0  0  0  0  0  0  0  0  0  0  0
    3.0950    0.1940    1.5220 C   0  0  0  0  0  0  0  0  0  0  0  0
    3.2580    0.3170    2.8780 C   0  0  0  0  0  0  0  0  0  0  0  0
    2.0160    0.7480    3.3770 C   0  0  0  0  0  0  0  0  0  0  0  0
    1.1690    0.8680    2.3240 C   0  0  0  0  0  0  0  0  0  0  0  0
   -0.2430    1.3030    2.4300 C   0  0  0  0  0  0  0  0  0  0  0  0
   -0.7290    1.6260    3.5320 O   0  0  0  0  0  0  0  0  0  0  0  0
   -1.0520    1.3620    1.3100 O   0  0  0  0  0  0  0  0  0  0  0  0
   -2.3720    1.7600    1.2930 C   0  0  0  0  0  0  0  0  0  0  0  0
   -3.3020    0.9910    1.9510 C   0  0  0  0  0  0  0  0  0  0  0  0
   -4.6550    1.3390    1.9700 C   0  0  0  0  0  0  0  0  0  0  0  0
   -5.0960    2.4690    1.3260 C   0  0  0  0  0  0  0  0  0  0  0  0
   -6.8080    2.9550    1.3020 S   0  0  0  0  0  0  0  0  0  0  0  0
   -7.8470    1.7150    2.0540 C   0  0  0  0  0  0  0  0  0  0  0  0
   -7.9710    0.5260    1.1960 C   0  0  0  0  0  0  0  0  0  0  0  0
   -7.3580   -0.5270    1.4800 O   0  0  0  0  0  0  0  0  0  0  0  0
   -8.7970    0.5380    0.0150 N   0  0  0  0  0  0  0  0  0  0  0  0
   -8.8760   -0.6730   -0.7700 C   0  0  2  0  0  0  0  0  0  0  0  0
   -8.4490   -0.5050   -2.1500 C   0  0  0  0  0  0  0  0  0  0  0  0
   -7.2240   -0.4770   -2.5110 O   0  0  0  0  0  0  0  0  0  0  0  0
   -9.4200   -0.3670   -3.1560 O   0  0  0  0  0  0  0  0  0  0  0  0
  -10.5410   -1.2590   -3.1650 C   0  0  0  0  0  0  0  0  0  0  0  0
  -10.4750   -2.1380   -1.9220 C   0  0  0  0  0  0  0  0  0  0  0  0
  -10.2780   -1.2460   -0.7240 C   0  0  2  0  0  0  0  0  0  0  0  0
  -11.2350   -0.0500   -0.7370 C   0  0  0  0  0  0  0  0  0  0  0  0
   -4.1400    3.2350    0.6660 C   0  0  0  0  0  0  0  0  0  0  0  0
   -2.8230    2.9030    0.6440 C   0  0  0  0  0  0  0  0  0  0  0  0
    1.8170    0.5420    1.2680 O   0  0  0  0  0  0  0  0  0  0  0  0
  1  2  1  0
  2  3  1  0
  3  4  2  3
  3 16  1  0
  4  5  1  0
  5  6  2  3
  6  7  1  0
  7  8  1  0
  8  9  2  0
  8 10  1  0
 11 10  1  6
 11 12  1  0
 11 15  1  0
 12 13  1  0
 13 14  1  0
 14 15  1  0
 16 17  2  0
 16 42  1  0
 17 18  1  0
 18 19  2  0
 19 20  1  0
 19 42  1  0
 20 21  2  0
 20 22  1  0
 22 23  1  0
 23 24  2  0
 23 41  1  0
 24 25  1  0
 25 26  2  0
 26 27  1  0
 26 40  1  0
 27 28  1  0
 28 29  1  0
 29 30  2  0
 29 31  1  0
 32 31  1  6
 32 33  1  0
 32 38  1  0
 33 34  2  0
 33 35  1  0
 35 36  1  0
 36 37  1  0
 37 38  1  0
 38 39  1  6
 40 41  2  0
M  END
