
     RDKit          3D

 42 45  0  0  0  0  0  0  0  0999 V2000
   -8.0750    0.3310   -1.4190 C   0  0  0  0  0  0  0  0  0  0  0  0
   -8.0060    1.0280   -0.0800 C   0  0  0  0  0  0  0  0  0  0  0  0
   -6.7170    1.7640    0.0850 C   0  0  1  0  0  0  0  0  0  0  0  0
   -6.6200    2.4720    1.4200 C   0  0  0  0  0  0  0  0  0  0  0  0
   -6.0380    1.4450    2.3570 C   0  0  0  0  0  0  0  0  0  0  0  0
   -5.1620    0.6400    1.4520 C   0  0  0  0  0  0  0  0  0  0  0  0
   -4.0980   -0.1970    1.7460 C   0  0  0  0  0  0  0  0  0  0  0  0
   -3.4350   -0.8430    0.7340 C   0  0  0  0  0  0  0  0  0  0  0  0
   -3.7810   -0.7030   -0.6310 C   0  0  0  0  0  0  0  0  0  0  0  0
   -3.0340   -1.3940   -1.6390 C   0  0  0  0  0  0  0  0  0  0  0  0
   -3.2440   -1.4720   -2.9080 C   0  0  0  0  0  0  0  0  0  0  0  0
   -4.2530   -0.9370   -3.8210 C   0  0  1  0  0  0  0  0  0  0  0  0
   -3.9140   -1.2850   -5.1530 F   0  0  0  0  0  0  0  0  0  0  0  0
   -5.5040   -1.4830   -3.5850 F   0  0  0  0  0  0  0  0  0  0  0  0
   -1.8040   -2.1500   -1.1310 C   0  0  0  0  0  0  0  0  0  0  0  0
   -0.8440   -1.1300   -0.6260 C   0  0  0  0  0  0  0  0  0  0  0  0
   -1.1260    0.0670   -0.7290 O   0  0  0  0  0  0  0  0  0  0  0  0
    0.3580   -1.5580   -0.0440 N   0  0  0  0  0  0  0  0  0  0  0  0
    1.3670   -0.7630    0.4740 C   0  0  0  0  0  0  0  0  0  0  0  0
    1.2980    0.6100    0.5090 C   0  0  0  0  0  0  0  0  0  0  0  0
    2.3510    1.3530    1.0620 C   0  0  0  0  0  0  0  0  0  0  0  0
    3.4490    0.7160    1.5680 C   0  0  0  0  0  0  0  0  0  0  0  0
    4.4990    1.4350    2.1160 O   0  0  0  0  0  0  0  0  0  0  0  0
    5.6540    1.6070    1.3960 C   0  0  0  0  0  0  0  0  0  0  0  0
    6.8450    1.1210    1.9510 C   0  0  0  0  0  0  0  0  0  0  0  0
    8.0410    1.2650    1.2750 C   0  0  0  0  0  0  0  0  0  0  0  0
    9.2930    0.7740    1.8220 C   0  0  0  0  0  0  0  0  0  0  0  0
   10.3500    0.9260    1.1760 O   0  0  0  0  0  0  0  0  0  0  0  0
    8.0580    1.8910    0.0470 C   0  0  0  0  0  0  0  0  0  0  0  0
    6.8770    2.3560   -0.4710 C   0  0  0  0  0  0  0  0  0  0  0  0
    5.6550    2.2270    0.1850 C   0  0  0  0  0  0  0  0  0  0  0  0
    4.4910    2.7030   -0.3600 O   0  0  0  0  0  0  0  0  0  0  0  0
    4.4140    3.3550   -1.6120 C   0  0  0  0  0  0  0  0  0  0  0  0
    3.5070   -0.6680    1.5280 C   0  0  0  0  0  0  0  0  0  0  0  0
    2.4910   -1.4110    0.9920 C   0  0  0  0  0  0  0  0  0  0  0  0
    2.6460   -2.8910    0.9670 C   0  0  2  0  0  0  0  0  0  0  0  0
    3.8190   -3.3150    1.8450 C   0  0  0  0  0  0  0  0  0  0  0  0
    3.0060   -3.3820   -0.4090 C   0  0  0  0  0  0  0  0  0  0  0  0
    4.1870   -2.8490   -1.0250 N   0  0  0  0  0  0  0  0  0  0  0  0
    2.3490   -4.2200   -1.0530 O   0  0  0  0  0  0  0  0  0  0  0  0
   -4.8460    0.1430   -0.8380 C   0  0  0  0  0  0  0  0  0  0  0  0
   -5.5460    0.8170    0.1520 C   0  0  0  0  0  0  0  0  0  0  0  0
  1  2  1  0
  3  2  1  1
  3  4  1  0
  3 42  1  0
  4  5  1  0
  5  6  1  0
  6  7  2  0
  6 42  1  0
  7  8  1  0
  8  9  2  0
  9 10  1  0
  9 41  1  0
 10 11  2  3
 10 15  1  0
 11 12  1  0
 12 13  1  6
 12 14  1  0
 15 16  1  0
 16 17  2  0
 16 18  1  0
 18 19  1  0
 19 20  2  0
 19 35  1  0
 20 21  1  0
 21 22  2  0
 22 23  1  0
 22 34  1  0
 23 24  1  0
 24 25  2  0
 24 31  1  0
 25 26  1  0
 26 27  1  0
 26 29  2  0
 27 28  2  0
 29 30  1  0
 30 31  2  0
 31 32  1  0
 32 33  1  0
 34 35  2  0
 35 36  1  0
 36 37  1  1
 36 38  1  0
 38 39  1  0
 38 40  2  0
 41 42  2  0
M  END
