
     RDKit          3D

 42 46  0  0  0  0  0  0  0  0999 V2000
   -0.5890    2.1040    2.9620 C   0  0  0  0  0  0  0  0  0  0  0  0
   -1.6830    1.3930    2.4280 O   0  0  0  0  0  0  0  0  0  0  0  0
   -2.3520    1.9350    1.3450 C   0  0  0  0  0  0  0  0  0  0  0  0
   -3.4200    2.7960    1.5930 C   0  0  0  0  0  0  0  0  0  0  0  0
   -3.7730    3.0850    2.9100 O   0  0  0  0  0  0  0  0  0  0  0  0
   -4.1460    3.3790    0.5890 C   0  0  0  0  0  0  0  0  0  0  0  0
   -3.7990    3.0970   -0.7030 C   0  0  0  0  0  0  0  0  0  0  0  0
   -2.7550    2.2570   -1.0180 C   0  0  0  0  0  0  0  0  0  0  0  0
   -2.0480    1.6900    0.0200 C   0  0  0  0  0  0  0  0  0  0  0  0
   -0.9940    0.8510   -0.5870 C   0  0  1  0  0  0  0  0  0  0  0  0
   -1.4450   -0.5500   -0.9510 C   0  0  0  0  0  0  0  0  0  0  0  0
   -1.9320   -1.3190    0.1580 N   0  0  0  0  0  0  0  0  0  0  0  0
   -3.4020   -1.2110    0.4300 C   0  0  0  0  0  0  0  0  0  0  0  0
   -4.1990   -2.1450   -0.4130 C   0  0  1  0  0  0  0  0  0  0  0  0
   -3.9880   -1.9370   -1.7790 O   0  0  0  0  0  0  0  0  0  0  0  0
   -4.0370   -3.5990   -0.1230 C   0  0  0  0  0  0  0  0  0  0  0  0
   -4.2830   -3.9690    1.1820 O   0  0  0  0  0  0  0  0  0  0  0  0
   -1.1780   -2.1770    0.9050 C   0  0  0  0  0  0  0  0  0  0  0  0
   -1.8270   -2.5270    2.0470 O   0  0  0  0  0  0  0  0  0  0  0  0
    0.0920   -2.8170    0.8220 C   0  0  0  0  0  0  0  0  0  0  0  0
    0.9220   -2.6700   -0.3080 N   0  0  0  0  0  0  0  0  0  0  0  0
    1.9380   -1.6980   -0.3750 C   0  0  0  0  0  0  0  0  0  0  0  0
    2.6400   -1.5070   -1.4280 O   0  0  0  0  0  0  0  0  0  0  0  0
    2.2600   -0.8370    0.7870 C   0  0  0  0  0  0  0  0  0  0  0  0
    3.6000   -0.1500    0.5570 C   0  0  0  0  0  0  0  0  0  0  0  0
    3.9530    0.7650    1.6900 C   0  0  1  0  0  0  0  0  0  0  0  0
    5.3370    1.3610    1.3850 C   0  0  0  0  0  0  0  0  0  0  0  0
    5.2760    2.2750    0.3220 O   0  0  0  0  0  0  0  0  0  0  0  0
    4.2900    3.2350    0.3180 C   0  0  0  0  0  0  0  0  0  0  0  0
    4.4750    4.4090   -0.4110 C   0  0  0  0  0  0  0  0  0  0  0  0
    3.4800    5.3590   -0.4040 C   0  0  0  0  0  0  0  0  0  0  0  0
    2.3280    5.1330    0.3200 C   0  0  0  0  0  0  0  0  0  0  0  0
    2.1450    3.9630    1.0460 C   0  0  0  0  0  0  0  0  0  0  0  0
    3.1430    3.0050    1.0410 C   0  0  0  0  0  0  0  0  0  0  0  0
    3.0050    1.8310    1.7480 O   0  0  0  0  0  0  0  0  0  0  0  0
    0.8560   -3.6290   -1.4200 C   0  0  1  0  0  0  0  0  0  0  0  0
    0.7330   -3.0610   -2.7460 C   0  0  0  0  0  0  0  0  0  0  0  0
    0.8290   -4.2740   -3.7180 C   0  0  0  0  0  0  0  0  0  0  0  0
    2.3310   -5.0310   -3.0260 S   0  0  0  0  0  0  0  0  0  0  0  0
    2.1690   -4.4300   -1.3240 C   0  0  0  0  0  0  0  0  0  0  0  0
   -0.8400    1.5810   -1.9410 C   0  0  0  0  0  0  0  0  0  0  0  0
   -2.2220    1.8250   -2.2360 O   0  0  0  0  0  0  0  0  0  0  0  0
  1  2  1  0
  2  3  1  0
  3  4  2  0
  3  9  1  0
  4  5  1  0
  4  6  1  0
  6  7  2  0
  7  8  1  0
  8  9  2  0
  8 42  1  0
  9 10  1  0
 10 11  1  6
 10 41  1  0
 11 12  1  0
 12 13  1  0
 12 18  1  0
 13 14  1  0
 14 15  1  6
 14 16  1  0
 16 17  1  0
 18 19  2  0
 18 20  1  0
 20 21  1  0
 21 22  1  0
 36 21  1  1
 22 23  2  0
 22 24  1  0
 24 25  1  0
 26 25  1  6
 26 27  1  0
 26 35  1  0
 27 28  1  0
 28 29  1  0
 29 30  2  0
 29 34  1  0
 30 31  1  0
 31 32  2  0
 32 33  1  0
 33 34  2  0
 34 35  1  0
 36 37  1  0
 36 40  1  0
 37 38  1  0
 38 39  1  0
 39 40  1  0
 41 42  1  0
M  END
