
     RDKit          3D

 42 46  0  0  0  0  0  0  0  0999 V2000
   -5.6750    5.2210   -3.3430 C   0  0  0  0  0  0  0  0  0  0  0  0
   -4.8800    4.1590   -3.7740 O   0  0  0  0  0  0  0  0  0  0  0  0
   -4.0800    3.4470   -2.9040 C   0  0  0  0  0  0  0  0  0  0  0  0
   -3.3100    2.4040   -3.3780 C   0  0  0  0  0  0  0  0  0  0  0  0
   -2.4950    1.6600   -2.5590 C   0  0  0  0  0  0  0  0  0  0  0  0
   -2.4540    1.9760   -1.2240 C   0  0  0  0  0  0  0  0  0  0  0  0
   -1.3870    1.0390   -0.1570 S   0  0  2  0  0  0  0  0  0  0  0  0
   -1.0930    1.9630    1.0150 O   0  0  0  0  0  0  0  0  0  0  0  0
   -0.1050    0.8480   -0.8820 O   0  0  0  0  0  0  0  0  0  0  0  0
   -2.1210   -0.4050    0.3450 N   0  0  0  0  0  0  0  0  0  0  0  0
   -3.3370   -0.0340    1.0820 C   0  0  0  0  0  0  0  0  0  0  0  0
   -4.5790   -0.1490    0.2600 C   0  0  1  0  0  0  0  0  0  0  0  0
   -4.7840   -1.5820   -0.2200 C   0  0  0  0  0  0  0  0  0  0  0  0
   -5.3210   -2.2970    0.9870 C   0  0  0  0  0  0  0  0  0  0  0  0
   -5.9960   -1.2050    1.7360 C   0  0  0  0  0  0  0  0  0  0  0  0
   -6.7030   -1.4010    2.7570 O   0  0  0  0  0  0  0  0  0  0  0  0
   -5.7170    0.0450    1.1240 N   0  0  0  0  0  0  0  0  0  0  0  0
   -1.3060   -1.2220    1.1770 C   0  0  0  0  0  0  0  0  0  0  0  0
   -0.6030   -2.3740    0.5870 C   0  0  1  0  0  0  0  0  0  0  0  0
   -1.4650   -3.2380   -0.1070 O   0  0  0  0  0  0  0  0  0  0  0  0
    0.6540   -2.1990   -0.1300 C   0  0  2  0  0  0  0  0  0  0  0  0
    1.3510   -3.5530   -0.3980 C   0  0  0  0  0  0  0  0  0  0  0  0
    1.6710   -4.2750    0.8500 C   0  0  0  0  0  0  0  0  0  0  0  0
    2.8350   -4.0700    1.5480 C   0  0  0  0  0  0  0  0  0  0  0  0
    3.0920   -4.7720    2.6880 C   0  0  0  0  0  0  0  0  0  0  0  0
    2.1770   -5.6900    3.1390 C   0  0  0  0  0  0  0  0  0  0  0  0
    0.9950   -5.9340    2.4780 C   0  0  0  0  0  0  0  0  0  0  0  0
    0.7750   -5.2030    1.3290 C   0  0  0  0  0  0  0  0  0  0  0  0
    1.5960   -1.3490    0.5930 N   0  0  0  0  0  0  0  0  0  0  0  0
    2.5240   -0.5920   -0.1570 C   0  0  0  0  0  0  0  0  0  0  0  0
    2.5370   -0.6590   -1.3960 O   0  0  0  0  0  0  0  0  0  0  0  0
    3.4370    0.2400    0.4670 O   0  0  0  0  0  0  0  0  0  0  0  0
    4.3820    1.0180   -0.2090 C   0  0  2  0  0  0  0  0  0  0  0  0
    5.7970    0.7810    0.1920 C   0  0  0  0  0  0  0  0  0  0  0  0
    6.4740    2.1270    0.0680 C   0  0  2  0  0  0  0  0  0  0  0  0
    6.6290    2.8240    1.4070 C   0  0  0  0  0  0  0  0  0  0  0  0
    6.4660    4.2700    0.9930 C   0  0  0  0  0  0  0  0  0  0  0  0
    5.6390    4.2930   -0.0950 O   0  0  0  0  0  0  0  0  0  0  0  0
    5.4710    3.0390   -0.6040 C   0  0  2  0  0  0  0  0  0  0  0  0
    4.1360    2.5040   -0.0600 C   0  0  0  0  0  0  0  0  0  0  0  0
   -3.2170    3.0160   -0.7320 C   0  0  0  0  0  0  0  0  0  0  0  0
   -4.0300    3.7570   -1.5500 C   0  0  0  0  0  0  0  0  0  0  0  0
  1  2  1  0
  2  3  1  0
  3  4  2  0
  3 42  1  0
  4  5  1  0
  5  6  2  0
  6  7  1  0
  6 41  1  0
  7  8  2  0
  7  9  2  0
  7 10  1  1
 10 11  1  0
 10 18  1  0
 12 11  1  1
 12 13  1  0
 12 17  1  0
 13 14  1  0
 14 15  1  0
 15 16  2  0
 15 17  1  0
 18 19  1  0
 19 20  1  6
 19 21  1  0
 21 22  1  1
 21 29  1  0
 22 23  1  0
 23 24  2  0
 23 28  1  0
 24 25  1  0
 25 26  2  0
 26 27  1  0
 27 28  2  0
 29 30  1  0
 30 31  2  0
 30 32  1  0
 33 32  1  1
 33 34  1  0
 33 40  1  0
 35 34  1  1
 35 36  1  0
 35 39  1  0
 36 37  1  0
 37 38  1  0
 38 39  1  0
 39 40  1  1
 41 42  2  0
M  END
