
     RDKit          3D

 42 45  0  0  0  0  0  0  0  0999 V2000
    8.9720    0.2460    3.3880 C   0  0  0  0  0  0  0  0  0  0  0  0
    8.6630   -0.4980    2.1060 C   0  0  0  0  0  0  0  0  0  0  0  0
    7.6680   -1.6080    2.3840 C   0  0  0  0  0  0  0  0  0  0  0  0
    7.3310   -2.3750    1.1370 C   0  0  2  0  0  0  0  0  0  0  0  0
    8.5130   -3.0250    0.5010 C   0  0  0  0  0  0  0  0  0  0  0  0
    6.6310   -1.4610    0.2240 N   0  0  0  0  0  0  0  0  0  0  0  0
    5.2990   -1.6250   -0.1250 C   0  0  0  0  0  0  0  0  0  0  0  0
    4.6930   -2.6200    0.4090 O   0  0  0  0  0  0  0  0  0  0  0  0
    4.5880   -0.7450   -1.0300 C   0  0  0  0  0  0  0  0  0  0  0  0
    3.1990   -0.5750   -0.8410 C   0  0  0  0  0  0  0  0  0  0  0  0
    2.4120    0.2460   -1.5730 C   0  0  0  0  0  0  0  0  0  0  0  0
    1.0510    0.4070   -1.3830 O   0  0  0  0  0  0  0  0  0  0  0  0
    0.3460   -0.2970   -0.3730 C   0  0  0  0  0  0  0  0  0  0  0  0
   -1.0200    0.0210   -0.3620 O   0  0  0  0  0  0  0  0  0  0  0  0
   -1.4990    1.3100   -0.1510 C   0  0  0  0  0  0  0  0  0  0  0  0
   -0.6990    2.3830    0.0640 C   0  0  0  0  0  0  0  0  0  0  0  0
   -1.2280    3.6280    0.2650 C   0  0  0  0  0  0  0  0  0  0  0  0
   -2.5840    3.8390    0.2570 C   0  0  0  0  0  0  0  0  0  0  0  0
   -3.3870    2.7250    0.0350 C   0  0  0  0  0  0  0  0  0  0  0  0
   -2.8980    1.4560   -0.1720 C   0  0  0  0  0  0  0  0  0  0  0  0
   -3.6800    0.3410   -0.3940 O   0  0  0  0  0  0  0  0  0  0  0  0
   -5.0570    0.3430   -0.4420 C   0  0  1  0  0  0  0  0  0  0  0  0
   -5.5410   -0.2170   -1.7860 C   0  0  0  0  0  0  0  0  0  0  0  0
   -5.6270   -0.5460    0.6210 C   0  0  0  0  0  0  0  0  0  0  0  0
   -4.8020   -1.2250    1.3010 O   0  0  0  0  0  0  0  0  0  0  0  0
   -7.0080   -0.6150    0.8460 N   0  0  0  0  0  0  0  0  0  0  0  0
   -7.5770   -1.5000    1.8670 C   0  0  0  0  0  0  0  0  0  0  0  0
   -9.0100   -1.1090    1.9070 C   0  0  2  0  0  0  0  0  0  0  0  0
  -10.0010   -2.2200    1.6290 C   0  0  0  0  0  0  0  0  0  0  0  0
   -9.6270   -2.1500   -0.1380 S   0  0  0  0  0  0  0  0  0  0  0  0
   -8.3670   -2.9050   -0.5270 O   0  0  0  0  0  0  0  0  0  0  0  0
   -9.3550   -0.5290    0.5730 C   0  0  2  0  0  0  0  0  0  0  0  0
   -8.0450    0.1280    0.1810 C   0  0  1  0  0  0  0  0  0  0  0  0
   -8.0810    1.4850    0.8390 C   0  0  0  0  0  0  0  0  0  0  0  0
   -8.9280    2.3480    0.4260 O   0  0  0  0  0  0  0  0  0  0  0  0
   -7.2590    1.8600    1.8630 O   0  0  0  0  0  0  0  0  0  0  0  0
    2.9950    0.9850   -2.5880 C   0  0  0  0  0  0  0  0  0  0  0  0
    2.2320    1.8410   -3.3640 O   0  0  0  0  0  0  0  0  0  0  0  0
    2.7420    2.6190   -4.4040 C   0  0  0  0  0  0  0  0  0  0  0  0
    4.3490    0.8550   -2.8140 C   0  0  0  0  0  0  0  0  0  0  0  0
    5.1400   -0.0090   -2.0360 C   0  0  0  0  0  0  0  0  0  0  0  0
    6.5700   -0.1020   -2.4140 C   0  0  0  0  0  0  0  0  0  0  0  0
  1  2  1  0
  2  3  1  0
  3  4  1  0
  4  5  1  6
  4  6  1  0
  6  7  1  0
  7  8  2  0
  7  9  1  0
  9 10  2  0
  9 41  1  0
 10 11  1  0
 11 12  1  0
 11 37  2  0
 12 13  1  0
 13 14  1  0
 14 15  1  0
 15 16  2  0
 15 20  1  0
 16 17  1  0
 17 18  2  0
 18 19  1  0
 19 20  2  0
 20 21  1  0
 21 22  1  0
 22 23  1  6
 22 24  1  0
 24 25  2  0
 24 26  1  0
 26 27  1  0
 26 33  1  0
 28 27  1  6
 28 29  1  0
 28 32  1  0
 30 29  1  1
 30 31  2  0
 30 32  1  0
 32 33  1  6
 33 34  1  1
 34 35  2  0
 34 36  1  0
 37 38  1  0
 37 40  1  0
 38 39  1  0
 40 41  2  0
 41 42  1  0
M  END
