
     RDKit          3D

 42 45  0  0  0  0  0  0  0  0999 V2000
    3.7090    0.7190    1.4490 C   0  0  0  0  0  0  0  0  0  0  0  0
    3.2660   -0.3470    0.6130 O   0  0  0  0  0  0  0  0  0  0  0  0
    3.6790   -0.3230   -0.7770 C   0  0  0  0  0  0  0  0  0  0  0  0
    4.8740   -0.7550   -0.9470 C   0  0  0  0  0  0  0  0  0  0  0  0
    5.7200   -0.9250   -2.1000 C   0  0  0  0  0  0  0  0  0  0  0  0
    6.9520   -1.3980   -2.0660 C   0  0  0  0  0  0  0  0  0  0  0  0
    7.6910   -1.8340   -0.8910 C   0  0  0  0  0  0  0  0  0  0  0  0
    8.9480   -1.0310   -0.6880 C   0  0  0  0  0  0  0  0  0  0  0  0
    9.2990   -0.1130   -1.4700 O   0  0  0  0  0  0  0  0  0  0  0  0
    9.7730   -1.3250    0.4350 N   0  0  0  0  0  0  0  0  0  0  0  0
   10.9910   -0.5350    0.6160 C   0  0  1  0  0  0  0  0  0  0  0  0
   11.0340    0.1140    1.9860 C   0  0  0  0  0  0  0  0  0  0  0  0
   11.6230   -0.9660    2.8310 C   0  0  0  0  0  0  0  0  0  0  0  0
   12.0340   -1.9860    2.0090 O   0  0  0  0  0  0  0  0  0  0  0  0
   12.1420   -1.5120    0.7270 C   0  0  0  0  0  0  0  0  0  0  0  0
    2.7300    0.1630   -1.7410 C   0  0  0  0  0  0  0  0  0  0  0  0
    2.7370    0.3290   -3.0740 C   0  0  0  0  0  0  0  0  0  0  0  0
    1.4940    0.8550   -3.4610 C   0  0  0  0  0  0  0  0  0  0  0  0
    0.7840    0.9810   -2.3070 C   0  0  0  0  0  0  0  0  0  0  0  0
   -0.5970    1.5010   -2.2280 C   0  0  0  0  0  0  0  0  0  0  0  0
   -1.1660    1.8540   -3.2800 O   0  0  0  0  0  0  0  0  0  0  0  0
   -1.2870    1.6140   -1.0300 O   0  0  0  0  0  0  0  0  0  0  0  0
   -2.5960    2.1170   -1.0140 C   0  0  0  0  0  0  0  0  0  0  0  0
   -3.6710    1.2650   -1.1590 C   0  0  0  0  0  0  0  0  0  0  0  0
   -4.9760    1.7210   -1.1490 C   0  0  0  0  0  0  0  0  0  0  0  0
   -5.1930    3.0690   -0.9880 C   0  0  0  0  0  0  0  0  0  0  0  0
   -6.8710    3.7070   -0.9710 S   0  0  0  0  0  0  0  0  0  0  0  0
   -8.0020    2.3090   -1.1720 C   0  0  0  0  0  0  0  0  0  0  0  0
   -7.9240    1.4380    0.0290 C   0  0  0  0  0  0  0  0  0  0  0  0
   -7.1850    1.6850    1.0060 O   0  0  0  0  0  0  0  0  0  0  0  0
   -8.7220    0.2590    0.0920 N   0  0  0  0  0  0  0  0  0  0  0  0
   -8.6550   -0.5910    1.2520 C   0  0  2  0  0  0  0  0  0  0  0  0
   -8.2140   -1.9540    0.8370 C   0  0  0  0  0  0  0  0  0  0  0  0
   -7.9180   -2.2420   -0.3400 O   0  0  0  0  0  0  0  0  0  0  0  0
   -8.1390   -2.9230    1.8260 O   0  0  0  0  0  0  0  0  0  0  0  0
   -8.8860   -2.6950    3.0060 C   0  0  0  0  0  0  0  0  0  0  0  0
  -10.1880   -2.0080    2.6640 C   0  0  0  0  0  0  0  0  0  0  0  0
  -10.0130   -0.7180    1.9300 C   0  0  2  0  0  0  0  0  0  0  0  0
  -11.0990   -0.5740    0.8660 C   0  0  0  0  0  0  0  0  0  0  0  0
   -4.1200    3.9490   -0.8390 C   0  0  0  0  0  0  0  0  0  0  0  0
   -2.8380    3.4680   -0.8530 C   0  0  0  0  0  0  0  0  0  0  0  0
    1.5110    0.5750   -1.3040 O   0  0  0  0  0  0  0  0  0  0  0  0
  1  2  1  0
  2  3  1  0
  3  4  2  3
  3 16  1  0
  4  5  1  0
  5  6  2  3
  6  7  1  0
  7  8  1  0
  8  9  2  0
  8 10  1  0
 11 10  1  1
 11 12  1  0
 11 15  1  0
 12 13  1  0
 13 14  1  0
 14 15  1  0
 16 17  2  0
 16 42  1  0
 17 18  1  0
 18 19  2  0
 19 20  1  0
 19 42  1  0
 20 21  2  0
 20 22  1  0
 22 23  1  0
 23 24  2  0
 23 41  1  0
 24 25  1  0
 25 26  2  0
 26 27  1  0
 26 40  1  0
 27 28  1  0
 28 29  1  0
 29 30  2  0
 29 31  1  0
 32 31  1  6
 32 33  1  0
 32 38  1  0
 33 34  2  0
 33 35  1  0
 35 36  1  0
 36 37  1  0
 37 38  1  0
 38 39  1  6
 40 41  2  0
M  END
