
     RDKit          3D

 42 45  0  0  0  0  0  0  0  0999 V2000
    2.4850   -2.1070   -4.3630 C   0  0  0  0  0  0  0  0  0  0  0  0
    2.5140   -1.0590   -3.3840 O   0  0  0  0  0  0  0  0  0  0  0  0
    1.3490   -0.8970   -2.6320 C   0  0  0  0  0  0  0  0  0  0  0  0
    0.3710   -1.6370   -2.8330 O   0  0  0  0  0  0  0  0  0  0  0  0
    1.2570    0.1540   -1.5840 C   0  0  2  0  0  0  0  0  0  0  0  0
   -0.0280    0.0930   -0.9640 N   0  0  0  0  0  0  0  0  0  0  0  0
   -0.4880   -1.0710   -0.3000 C   0  0  0  0  0  0  0  0  0  0  0  0
    0.2640   -2.0730   -0.2620 O   0  0  0  0  0  0  0  0  0  0  0  0
   -1.8000   -1.1500    0.3380 C   0  0  0  0  0  0  0  0  0  0  0  0
   -2.6780   -0.1300    0.4390 N   0  0  0  0  0  0  0  0  0  0  0  0
   -3.7870   -0.5260    1.0800 C   0  0  0  0  0  0  0  0  0  0  0  0
   -5.0030    0.2840    1.4080 C   0  0  0  0  0  0  0  0  0  0  0  0
   -5.9490    0.1290    0.2090 C   0  0  0  0  0  0  0  0  0  0  0  0
   -7.1970    0.9020    0.4340 C   0  0  0  0  0  0  0  0  0  0  0  0
   -8.1000    0.4490    1.2040 O   0  0  0  0  0  0  0  0  0  0  0  0
   -7.3960    2.1100   -0.1780 O   0  0  0  0  0  0  0  0  0  0  0  0
   -8.5920    2.8660    0.0290 C   0  0  0  0  0  0  0  0  0  0  0  0
   -8.4600    4.1280   -0.7990 C   0  0  0  0  0  0  0  0  0  0  0  0
   -7.0100    5.0200   -0.2260 S   0  0  0  0  0  0  0  0  0  0  0  0
   -6.5320    4.4530    1.1010 O   0  0  0  0  0  0  0  0  0  0  0  0
   -3.5840   -1.8730    1.3960 C   0  0  0  0  0  0  0  0  0  0  0  0
   -2.3480   -2.2630    0.9350 C   0  0  0  0  0  0  0  0  0  0  0  0
   -1.7650   -3.6210    1.0550 C   0  0  1  0  0  0  0  0  0  0  0  0
   -2.6000   -4.4820    1.9620 C   0  0  0  0  0  0  0  0  0  0  0  0
   -2.1530   -5.9230    1.6950 C   0  0  0  0  0  0  0  0  0  0  0  0
   -2.6730   -6.3420    0.4710 O   0  0  0  0  0  0  0  0  0  0  0  0
   -2.9050   -5.2710   -0.3650 C   0  0  0  0  0  0  0  0  0  0  0  0
   -1.7450   -4.2910   -0.3070 C   0  0  0  0  0  0  0  0  0  0  0  0
    1.4850    1.4650   -2.3120 C   0  0  0  0  0  0  0  0  0  0  0  0
    1.5740    2.6480   -1.4260 C   0  0  0  0  0  0  0  0  0  0  0  0
    1.9820    2.3720   -0.0180 C   0  0  0  0  0  0  0  0  0  0  0  0
    2.7810    1.1260    0.1860 C   0  0  2  0  0  0  0  0  0  0  0  0
    4.1730    1.3610    0.0890 O   0  0  0  0  0  0  0  0  0  0  0  0
    5.0390    1.2350    1.1320 C   0  0  0  0  0  0  0  0  0  0  0  0
    4.5990    0.8950    2.2510 O   0  0  0  0  0  0  0  0  0  0  0  0
    6.4790    1.4880    0.9670 C   0  0  1  0  0  0  0  0  0  0  0  0
    7.1780    1.3200    2.2810 C   0  0  0  0  0  0  0  0  0  0  0  0
    7.0930    0.5490   -0.0670 C   0  0  0  0  0  0  0  0  0  0  0  0
    8.4050    1.2490   -0.3660 C   0  0  0  0  0  0  0  0  0  0  0  0
    8.1860    2.7050   -0.1040 C   0  0  0  0  0  0  0  0  0  0  0  0
    6.7170    2.8240    0.3200 C   0  0  0  0  0  0  0  0  0  0  0  0
    2.4250   -0.0260   -0.6620 C   0  0  0  0  0  0  0  0  0  0  0  0
  1  2  1  0
  2  3  1  0
  3  4  2  0
  3  5  1  0
  5  6  1  1
  5 29  1  0
  5 42  1  0
  6  7  1  0
  7  8  2  0
  7  9  1  0
  9 10  1  0
  9 22  2  0
 10 11  1  0
 11 12  1  0
 11 21  2  0
 12 13  1  0
 13 14  1  0
 14 15  2  0
 14 16  1  0
 16 17  1  0
 17 18  1  0
 18 19  1  0
 19 20  2  0
 21 22  1  0
 23 22  1  6
 23 24  1  0
 23 28  1  0
 24 25  1  0
 25 26  1  0
 26 27  1  0
 27 28  1  0
 29 30  1  0
 30 31  1  0
 31 32  1  0
 32 33  1  6
 32 42  1  0
 33 34  1  0
 34 35  2  0
 34 36  1  0
 36 37  1  1
 36 38  1  0
 36 41  1  0
 38 39  1  0
 39 40  1  0
 40 41  1  0
M  END
