
     RDKit          3D

 42 45  0  0  0  0  0  0  0  0999 V2000
    6.8650    3.9360   -0.6060 C   0  0  0  0  0  0  0  0  0  0  0  0
    8.1350    3.8820   -1.1130 O   0  0  0  0  0  0  0  0  0  0  0  0
    8.9480    2.8800   -0.7470 C   0  0  0  0  0  0  0  0  0  0  0  0
    8.5070    1.4910   -1.0980 C   0  0  0  0  0  0  0  0  0  0  0  0
    7.3240    1.1860   -0.5130 O   0  0  0  0  0  0  0  0  0  0  0  0
    6.8070   -0.0620   -0.7550 C   0  0  0  0  0  0  0  0  0  0  0  0
    7.7130   -1.1390   -0.2850 C   0  0  0  0  0  0  0  0  0  0  0  0
    7.0690   -2.4940   -0.5570 C   0  0  2  0  0  0  0  0  0  0  0  0
    6.7930   -2.7340   -2.0130 C   0  0  0  0  0  0  0  0  0  0  0  0
    5.7960   -2.5000    0.2000 C   0  0  0  0  0  0  0  0  0  0  0  0
    5.7430   -2.2160    1.5560 C   0  0  0  0  0  0  0  0  0  0  0  0
    4.3900   -2.3300    1.8770 C   0  0  0  0  0  0  0  0  0  0  0  0
    3.7090   -2.6680    0.7310 C   0  0  0  0  0  0  0  0  0  0  0  0
    2.2750   -2.8790    0.6550 C   0  0  0  0  0  0  0  0  0  0  0  0
    1.5790   -2.7340    1.6900 O   0  0  0  0  0  0  0  0  0  0  0  0
    1.6060   -3.2410   -0.5030 O   0  0  0  0  0  0  0  0  0  0  0  0
    0.2420   -3.4660   -0.6380 C   0  0  0  0  0  0  0  0  0  0  0  0
   -0.5670   -2.2430   -0.3030 C   0  0  0  0  0  0  0  0  0  0  0  0
   -0.1940   -0.9470   -0.3000 C   0  0  0  0  0  0  0  0  0  0  0  0
   -1.3470   -0.2340    0.0900 C   0  0  0  0  0  0  0  0  0  0  0  0
   -2.3420   -1.1210    0.3010 C   0  0  0  0  0  0  0  0  0  0  0  0
   -3.7240   -0.9650    0.7140 C   0  0  0  0  0  0  0  0  0  0  0  0
   -4.4240   -2.0710    0.7480 O   0  0  0  0  0  0  0  0  0  0  0  0
   -4.3760    0.1850    1.0660 N   0  0  0  0  0  0  0  0  0  0  0  0
   -3.7640    1.4910    1.1460 C   0  0  0  0  0  0  0  0  0  0  0  0
   -3.8160    2.1580   -0.2140 C   0  0  2  0  0  0  0  0  0  0  0  0
   -2.9930    3.4070   -0.1480 C   0  0  0  0  0  0  0  0  0  0  0  0
   -5.2730    2.4780   -0.5440 C   0  0  1  0  0  0  0  0  0  0  0  0
   -5.5470    2.0150   -1.9190 C   0  0  0  0  0  0  0  0  0  0  0  0
   -6.0090    2.8640   -2.7580 O   0  0  0  0  0  0  0  0  0  0  0  0
   -5.3370    0.6970   -2.3760 N   0  0  0  0  0  0  0  0  0  0  0  0
   -5.6520    0.3650   -3.7250 C   0  0  0  0  0  0  0  0  0  0  0  0
   -6.1130    1.2150   -4.5260 O   0  0  0  0  0  0  0  0  0  0  0  0
   -6.3970    1.8090    0.6810 S   0  0  0  0  0  0  0  0  0  0  0  0
   -5.8180    0.2240    1.3720 C   0  0  1  0  0  0  0  0  0  0  0  0
   -6.5500   -0.9300    0.8090 C   0  0  0  0  0  0  0  0  0  0  0  0
   -8.0440   -0.5930    0.8450 C   0  0  0  0  0  0  0  0  0  0  0  0
   -8.4850   -0.0370    2.1470 C   0  0  0  0  0  0  0  0  0  0  0  0
   -7.5010    0.3420    3.1590 C   0  0  0  0  0  0  0  0  0  0  0  0
   -6.0490    0.1640    2.8540 C   0  0  0  0  0  0  0  0  0  0  0  0
   -1.7970   -2.3190    0.0440 O   0  0  0  0  0  0  0  0  0  0  0  0
    4.5700   -2.7610   -0.2480 O   0  0  0  0  0  0  0  0  0  0  0  0
  1  2  1  0
  2  3  1  0
  3  4  1  0
  4  5  1  0
  5  6  1  0
  6  7  1  0
  7  8  1  0
  8  9  1  6
  8 10  1  0
 10 11  2  0
 10 42  1  0
 11 12  1  0
 12 13  2  0
 13 14  1  0
 13 42  1  0
 14 15  2  0
 14 16  1  0
 16 17  1  0
 17 18  1  0
 18 19  2  0
 18 41  1  0
 19 20  1  0
 20 21  2  0
 21 22  1  0
 21 41  1  0
 22 23  2  0
 22 24  1  0
 24 25  1  0
 24 35  1  0
 25 26  1  0
 26 27  1  1
 26 28  1  0
 28 29  1  6
 28 34  1  0
 29 30  2  0
 29 31  1  0
 31 32  1  0
 32 33  2  0
 34 35  1  0
 35 36  1  6
 35 40  1  0
 36 37  1  0
 37 38  1  0
 38 39  1  0
 39 40  1  0
M  END
