
     RDKit          3D

 41 44  0  0  0  0  0  0  0  0999 V2000
    1.1060   -2.7320   -2.7990 C   0  0  0  0  0  0  0  0  0  0  0  0
   -0.1750   -2.6770   -2.5510 C   0  0  0  0  0  0  0  0  0  0  0  0
   -1.0250   -1.6620   -3.1770 C   0  0  0  0  0  0  0  0  0  0  0  0
   -1.7100   -0.7900   -2.2040 N   0  0  0  0  0  0  0  0  0  0  0  0
   -1.0420    0.3770   -1.8440 C   0  0  0  0  0  0  0  0  0  0  0  0
   -1.5780    1.1770   -1.0410 O   0  0  0  0  0  0  0  0  0  0  0  0
    0.2660    0.7670   -2.3360 C   0  0  0  0  0  0  0  0  0  0  0  0
    0.3470    1.5000   -3.4980 C   0  0  0  0  0  0  0  0  0  0  0  0
    1.5860    1.8630   -3.9870 C   0  0  0  0  0  0  0  0  0  0  0  0
    2.6890    1.5050   -3.3400 N   0  0  0  0  0  0  0  0  0  0  0  0
    2.6790    0.7740   -2.1760 C   0  0  0  0  0  0  0  0  0  0  0  0
    3.8180    0.4350   -1.5600 O   0  0  0  0  0  0  0  0  0  0  0  0
    4.2090   -0.3170   -0.4890 C   0  0  1  0  0  0  0  0  0  0  0  0
    5.3230   -1.2990   -0.8190 C   0  0  0  0  0  0  0  0  0  0  0  0
    6.2950   -1.2910    0.3260 C   0  0  0  0  0  0  0  0  0  0  0  0
    6.9430   -0.0560    0.3010 O   0  0  0  0  0  0  0  0  0  0  0  0
    6.0790    0.9690    0.6640 C   0  0  2  0  0  0  0  0  0  0  0  0
    6.3180    2.1140   -0.2860 C   0  0  0  0  0  0  0  0  0  0  0  0
    6.0830    1.7640   -1.5960 O   0  0  0  0  0  0  0  0  0  0  0  0
    6.4240    1.5020    2.0590 C   0  0  0  0  0  0  0  0  0  0  0  0
    6.3260    0.5000    3.0160 O   0  0  0  0  0  0  0  0  0  0  0  0
    4.6500    0.5890    0.6050 C   0  0  0  0  0  0  0  0  0  0  0  0
    1.4260    0.4190   -1.6960 C   0  0  0  0  0  0  0  0  0  0  0  0
    1.2490   -0.3160   -0.5210 O   0  0  0  0  0  0  0  0  0  0  0  0
    1.1120    0.4250    0.6920 C   0  0  0  0  0  0  0  0  0  0  0  0
   -2.9610   -1.2190   -1.6930 C   0  0  2  0  0  0  0  0  0  0  0  0
   -4.1070   -0.2800   -1.6340 C   0  0  0  0  0  0  0  0  0  0  0  0
   -4.3640   -0.6550   -0.1850 C   0  0  2  0  0  0  0  0  0  0  0  0
   -4.1700    0.4930    0.6230 O   0  0  0  0  0  0  0  0  0  0  0  0
   -5.1530    0.9040    1.4990 C   0  0  0  0  0  0  0  0  0  0  0  0
   -6.2080    0.2130    1.5370 O   0  0  0  0  0  0  0  0  0  0  0  0
   -4.9850    2.1160    2.3690 C   0  0  0  0  0  0  0  0  0  0  0  0
   -6.2350    2.2930    3.2130 C   0  0  0  0  0  0  0  0  0  0  0  0
   -6.2990    1.7730    4.4460 C   0  0  0  0  0  0  0  0  0  0  0  0
   -7.4550    1.9550    5.1690 C   0  0  0  0  0  0  0  0  0  0  0  0
   -8.4740    2.8940    4.0480 S   0  0  0  0  0  0  0  0  0  0  0  0
   -7.2980    2.9760    2.7120 C   0  0  0  0  0  0  0  0  0  0  0  0
   -3.1590   -1.5850   -0.2710 C   0  0  1  0  0  0  0  0  0  0  0  0
   -3.7140   -3.0190   -0.0630 C   0  0  0  0  0  0  0  0  0  0  0  0
   -2.1590   -1.3260    0.7830 C   0  0  0  0  0  0  0  0  0  0  0  0
   -2.7240   -1.9010    2.0990 C   0  0  0  0  0  0  0  0  0  0  0  0
  1  2  2  0
  2  3  1  0
  3  4  1  0
  4  5  1  0
 26  4  1  1
  5  6  2  0
  5  7  1  0
  7  8  2  0
  7 23  1  0
  8  9  1  0
  9 10  2  0
 10 11  1  0
 11 12  1  0
 11 23  2  0
 13 12  1  6
 13 14  1  0
 13 22  1  0
 14 15  1  0
 15 16  1  0
 16 17  1  0
 17 18  1  6
 17 20  1  0
 17 22  1  0
 18 19  1  0
 20 21  1  0
 23 24  1  0
 24 25  1  0
 26 27  1  0
 26 38  1  0
 27 28  1  0
 28 29  1  1
 28 38  1  0
 29 30  1  0
 30 31  2  0
 30 32  1  0
 32 33  1  0
 33 34  1  0
 33 37  2  0
 34 35  2  0
 35 36  1  0
 36 37  1  0
 38 39  1  6
 38 40  1  0
 40 41  1  0
M  END
