
     RDKit          3D

 42 45  0  0  0  0  0  0  0  0999 V2000
    7.8590   -2.6660   -0.3830 C   0  0  0  0  0  0  0  0  0  0  0  0
    6.4540   -2.8300   -0.3520 O   0  0  0  0  0  0  0  0  0  0  0  0
    5.6080   -1.7590   -0.0050 C   0  0  0  0  0  0  0  0  0  0  0  0
    6.2010   -0.6910    0.2610 O   0  0  0  0  0  0  0  0  0  0  0  0
    4.1440   -1.9260    0.0290 C   0  0  1  0  0  0  0  0  0  0  0  0
    3.7850   -3.1470    0.8490 C   0  0  0  0  0  0  0  0  0  0  0  0
    3.4150   -0.7980    0.3790 O   0  0  0  0  0  0  0  0  0  0  0  0
    2.5040   -0.1660   -0.4490 C   0  0  0  0  0  0  0  0  0  0  0  0
    2.3610   -0.6700   -1.5930 O   0  0  0  0  0  0  0  0  0  0  0  0
    1.7750    1.0050    0.0150 C   0  0  1  0  0  0  0  0  0  0  0  0
    2.0280    2.1770   -0.8660 C   0  0  0  0  0  0  0  0  0  0  0  0
    0.3140    0.7770    0.2260 C   0  0  0  0  0  0  0  0  0  0  0  0
   -0.5210    0.3160   -0.8890 C   0  0  2  0  0  0  0  0  0  0  0  0
   -0.6040    1.1830   -2.1150 C   0  0  0  0  0  0  0  0  0  0  0  0
   -1.5320    0.5390   -3.1320 C   0  0  0  0  0  0  0  0  0  0  0  0
   -2.6420    1.0580   -3.6280 C   0  0  0  0  0  0  0  0  0  0  0  0
   -3.2240    0.1600   -4.5420 N   0  0  0  0  0  0  0  0  0  0  0  0
   -2.3410   -0.9530   -4.7900 C   0  0  0  0  0  0  0  0  0  0  0  0
   -1.3170   -0.7770   -3.7160 C   0  0  0  0  0  0  0  0  0  0  0  0
   -0.4720   -1.6390   -3.4330 O   0  0  0  0  0  0  0  0  0  0  0  0
   -1.8010    0.0270   -0.4410 O   0  0  0  0  0  0  0  0  0  0  0  0
   -2.8250    0.7650    0.0380 C   0  0  0  0  0  0  0  0  0  0  0  0
   -2.8810    2.1170    0.2360 C   0  0  0  0  0  0  0  0  0  0  0  0
   -3.9890    2.7940    0.7390 C   0  0  0  0  0  0  0  0  0  0  0  0
   -5.1120    2.0740    1.0640 C   0  0  0  0  0  0  0  0  0  0  0  0
   -5.1160    0.7040    0.8860 C   0  0  0  0  0  0  0  0  0  0  0  0
   -6.2530   -0.0470    1.2120 C   0  0  0  0  0  0  0  0  0  0  0  0
   -6.2900   -1.4130    1.0470 C   0  0  0  0  0  0  0  0  0  0  0  0
   -7.5250   -2.1990    1.4050 C   0  0  0  0  0  0  0  0  0  0  0  0
   -5.1840   -2.0470    0.5510 C   0  0  0  0  0  0  0  0  0  0  0  0
   -5.1550   -3.5120    0.3480 C   0  0  0  0  0  0  0  0  0  0  0  0
   -4.0570   -1.2800    0.2300 C   0  0  0  0  0  0  0  0  0  0  0  0
   -4.0070    0.0740    0.3890 C   0  0  0  0  0  0  0  0  0  0  0  0
    2.2130    1.3020    1.3740 O   0  0  0  0  0  0  0  0  0  0  0  0
    3.4990    1.6140    1.7000 C   0  0  0  0  0  0  0  0  0  0  0  0
    4.3320    1.6500    0.7810 O   0  0  0  0  0  0  0  0  0  0  0  0
    3.8860    1.9030    3.1180 C   0  0  2  0  0  0  0  0  0  0  0  0
    3.1150    3.1200    3.6100 C   0  0  0  0  0  0  0  0  0  0  0  0
    4.1310    4.4490    2.8420 S   0  0  0  0  0  0  0  0  0  0  0  0
    5.6140    3.4580    2.6090 C   0  0  0  0  0  0  0  0  0  0  0  0
    6.6520    3.8880    2.0750 O   0  0  0  0  0  0  0  0  0  0  0  0
    5.2780    2.1950    3.1520 N   0  0  0  0  0  0  0  0  0  0  0  0
  1  2  1  0
  2  3  1  0
  3  4  2  0
  3  5  1  0
  5  6  1  1
  5  7  1  0
  7  8  1  0
  8  9  2  0
  8 10  1  0
 10 11  1  6
 10 12  1  0
 10 34  1  0
 13 12  1  1
 13 14  1  0
 13 21  1  0
 14 15  1  0
 15 16  2  0
 15 19  1  0
 16 17  1  0
 17 18  1  0
 18 19  1  0
 19 20  2  0
 21 22  1  0
 22 23  2  0
 22 33  1  0
 23 24  1  0
 24 25  2  0
 25 26  1  0
 26 27  2  0
 26 33  1  0
 27 28  1  0
 28 29  1  0
 28 30  2  0
 30 31  1  0
 30 32  1  0
 32 33  2  0
 34 35  1  0
 35 36  2  0
 37 35  1  6
 37 38  1  0
 37 42  1  0
 38 39  1  0
 39 40  1  0
 40 41  2  0
 40 42  1  0
M  END
