
     RDKit          3D

 41 45  0  0  0  0  0  0  0  0999 V2000
   -1.7050   -4.5030   -2.3930 C   0  0  0  0  0  0  0  0  0  0  0  0
   -0.4770   -3.8040   -2.8360 C   0  0  0  0  0  0  0  0  0  0  0  0
   -0.2470   -2.5770   -2.4280 C   0  0  0  0  0  0  0  0  0  0  0  0
   -1.2020   -1.9200   -1.5470 C   0  0  0  0  0  0  0  0  0  0  0  0
   -0.9870   -0.6660   -1.1190 C   0  0  0  0  0  0  0  0  0  0  0  0
    0.0600    0.1850   -1.3830 O   0  0  0  0  0  0  0  0  0  0  0  0
   -0.0940    1.3970   -0.7460 C   0  0  0  0  0  0  0  0  0  0  0  0
    0.9390    2.4840   -0.8920 C   0  0  0  0  0  0  0  0  0  0  0  0
    2.2040    2.1290   -0.4450 O   0  0  0  0  0  0  0  0  0  0  0  0
    2.9670    1.1250   -0.9700 C   0  0  0  0  0  0  0  0  0  0  0  0
    2.5320    0.4500   -1.9320 O   0  0  0  0  0  0  0  0  0  0  0  0
    4.3090    0.8080   -0.4290 C   0  0  0  0  0  0  0  0  0  0  0  0
    4.8680    1.5020    0.6210 C   0  0  0  0  0  0  0  0  0  0  0  0
    6.1240    0.9390    0.8610 C   0  0  0  0  0  0  0  0  0  0  0  0
    6.2440   -0.0730   -0.0700 C   0  0  0  0  0  0  0  0  0  0  0  0
    7.4280   -0.9940   -0.2330 C   0  0  0  0  0  0  0  0  0  0  0  0
    8.5410   -0.2980    0.1040 O   0  0  0  0  0  0  0  0  0  0  0  0
    9.7320   -0.9050    0.0490 C   0  0  2  0  0  0  0  0  0  0  0  0
   10.5690   -0.9370    1.2670 C   0  0  0  0  0  0  0  0  0  0  0  0
   11.3180    0.3770    1.1660 C   0  0  0  0  0  0  0  0  0  0  0  0
   11.1920    0.7160   -0.2860 C   0  0  0  0  0  0  0  0  0  0  0  0
   10.6100   -0.3780   -0.9160 O   0  0  0  0  0  0  0  0  0  0  0  0
    5.1500   -0.0990   -0.7960 O   0  0  0  0  0  0  0  0  0  0  0  0
   -1.2160    1.3920   -0.0640 C   0  0  0  0  0  0  0  0  0  0  0  0
   -1.6940    2.5290    0.7470 C   0  0  0  0  0  0  0  0  0  0  0  0
   -3.1710    3.2570    0.0790 S   0  0  0  0  0  0  0  0  0  0  0  0
   -4.5380    2.1600    0.0850 C   0  0  0  0  0  0  0  0  0  0  0  0
   -5.3070    1.8960    1.1390 N   0  0  0  0  0  0  0  0  0  0  0  0
   -6.3600    1.0440    1.1220 C   0  0  0  0  0  0  0  0  0  0  0  0
   -6.6470    0.4160   -0.0640 C   0  0  0  0  0  0  0  0  0  0  0  0
   -5.8770    0.6590   -1.1780 C   0  0  0  0  0  0  0  0  0  0  0  0
   -6.1190    0.0960   -2.2760 O   0  0  0  0  0  0  0  0  0  0  0  0
   -4.8490    1.5180   -1.0840 N   0  0  0  0  0  0  0  0  0  0  0  0
   -7.7720   -0.5440   -0.2290 C   0  0  0  0  0  0  0  0  0  0  0  0
   -8.7250   -0.4430    0.9490 C   0  0  2  0  0  0  0  0  0  0  0  0
   -9.2850    0.8250    0.9210 O   0  0  0  0  0  0  0  0  0  0  0  0
  -10.6750    0.7870    0.8330 C   0  0  0  0  0  0  0  0  0  0  0  0
   -7.8560   -0.5250    2.2000 C   0  0  0  0  0  0  0  0  0  0  0  0
   -7.1720    0.8060    2.3540 C   0  0  0  0  0  0  0  0  0  0  0  0
   -1.8660    0.1030   -0.2350 C   0  0  0  0  0  0  0  0  0  0  0  0
   -2.9460   -0.3330    0.2430 O   0  0  0  0  0  0  0  0  0  0  0  0
  1  2  1  0
  2  3  2  3
  3  4  1  0
  4  5  2  3
  5  6  1  0
  5 40  1  0
  6  7  1  0
  7  8  1  0
  7 24  2  0
  8  9  1  0
  9 10  1  0
 10 11  2  0
 10 12  1  0
 12 13  2  0
 12 23  1  0
 13 14  1  0
 14 15  2  0
 15 16  1  0
 15 23  1  0
 16 17  1  0
 18 17  1  1
 18 19  1  0
 18 22  1  0
 19 20  1  0
 20 21  1  0
 21 22  1  0
 24 25  1  0
 24 40  1  0
 25 26  1  0
 26 27  1  0
 27 28  2  0
 27 33  1  0
 28 29  1  0
 29 30  2  0
 29 39  1  0
 30 31  1  0
 30 34  1  0
 31 32  2  0
 31 33  1  0
 34 35  1  0
 35 36  1  6
 35 38  1  0
 36 37  1  0
 38 39  1  0
 40 41  2  0
M  END
