
     RDKit          3D

 42 45  0  0  0  0  0  0  0  0999 V2000
   -3.5720   -1.9980    0.5260 C   0  0  0  0  0  0  0  0  0  0  0  0
   -3.3130   -1.7600   -0.8600 O   0  0  0  0  0  0  0  0  0  0  0  0
   -3.2950   -0.3450   -1.2260 C   0  0  0  0  0  0  0  0  0  0  0  0
   -4.4210    0.1630   -1.5050 C   0  0  0  0  0  0  0  0  0  0  0  0
   -4.8150    1.4690   -1.8940 C   0  0  0  0  0  0  0  0  0  0  0  0
   -6.0690    1.8000   -2.1540 C   0  0  0  0  0  0  0  0  0  0  0  0
   -7.1870    0.8770   -2.0770 C   0  0  0  0  0  0  0  0  0  0  0  0
   -8.2030    1.3240   -1.0550 C   0  0  0  0  0  0  0  0  0  0  0  0
   -8.0560    2.3450   -0.3490 O   0  0  0  0  0  0  0  0  0  0  0  0
   -9.3750    0.5440   -0.8980 N   0  0  0  0  0  0  0  0  0  0  0  0
  -10.3980    0.8850    0.0460 C   0  0  1  0  0  0  0  0  0  0  0  0
  -11.7190    1.1890   -0.6410 C   0  0  0  0  0  0  0  0  0  0  0  0
  -12.4790   -0.1040   -0.5300 C   0  0  0  0  0  0  0  0  0  0  0  0
  -11.7890   -0.9610    0.2870 O   0  0  0  0  0  0  0  0  0  0  0  0
  -10.7830   -0.2570    0.9410 C   0  0  0  0  0  0  0  0  0  0  0  0
   -1.9790    0.2320   -1.2080 C   0  0  0  0  0  0  0  0  0  0  0  0
   -1.5600    1.4920   -1.5250 C   0  0  0  0  0  0  0  0  0  0  0  0
   -0.1610    1.4870   -1.3200 C   0  0  0  0  0  0  0  0  0  0  0  0
    0.1930    0.2420   -0.8930 C   0  0  0  0  0  0  0  0  0  0  0  0
    1.5670   -0.1840   -0.5640 C   0  0  0  0  0  0  0  0  0  0  0  0
    2.5160    0.6320   -0.6780 O   0  0  0  0  0  0  0  0  0  0  0  0
    1.8710   -1.4550   -0.1320 O   0  0  0  0  0  0  0  0  0  0  0  0
    3.1550   -1.8720    0.1800 C   0  0  0  0  0  0  0  0  0  0  0  0
    3.7410   -1.7380    1.4160 C   0  0  0  0  0  0  0  0  0  0  0  0
    5.0290   -2.1870    1.6190 C   0  0  0  0  0  0  0  0  0  0  0  0
    5.7620   -2.7800    0.6010 C   0  0  0  0  0  0  0  0  0  0  0  0
    7.4460   -3.3610    0.8600 S   0  0  0  0  0  0  0  0  0  0  0  0
    7.9130   -2.9890    2.5720 C   0  0  0  0  0  0  0  0  0  0  0  0
    7.9910   -1.4950    2.7360 C   0  0  0  0  0  0  0  0  0  0  0  0
    8.2790   -1.0250    3.8760 O   0  0  0  0  0  0  0  0  0  0  0  0
    7.7440   -0.6450    1.6300 N   0  0  0  0  0  0  0  0  0  0  0  0
    7.8310    0.7990    1.8510 C   0  0  2  0  0  0  0  0  0  0  0  0
    6.4490    1.3240    1.5460 C   0  0  0  0  0  0  0  0  0  0  0  0
    5.7070    1.7070    2.4820 O   0  0  0  0  0  0  0  0  0  0  0  0
    6.0980    1.3420    0.2080 O   0  0  0  0  0  0  0  0  0  0  0  0
    6.9480    0.9670   -0.8220 C   0  0  0  0  0  0  0  0  0  0  0  0
    8.4020    0.9260   -0.5050 C   0  0  0  0  0  0  0  0  0  0  0  0
    8.7350    1.4750    0.8420 C   0  0  2  0  0  0  0  0  0  0  0  0
   10.1890    1.3070    1.1650 C   0  0  0  0  0  0  0  0  0  0  0  0
    5.1860   -2.9210   -0.6410 C   0  0  0  0  0  0  0  0  0  0  0  0
    3.8930   -2.4630   -0.8230 C   0  0  0  0  0  0  0  0  0  0  0  0
   -0.8670   -0.4590   -0.8370 O   0  0  0  0  0  0  0  0  0  0  0  0
  1  2  1  0
  2  3  1  0
  3  4  2  3
  3 16  1  0
  4  5  1  0
  5  6  2  3
  6  7  1  0
  7  8  1  0
  8  9  2  0
  8 10  1  0
 11 10  1  6
 11 12  1  0
 11 15  1  0
 12 13  1  0
 13 14  1  0
 14 15  1  0
 16 17  2  0
 16 42  1  0
 17 18  1  0
 18 19  2  0
 19 20  1  0
 19 42  1  0
 20 21  2  0
 20 22  1  0
 22 23  1  0
 23 24  2  0
 23 41  1  0
 24 25  1  0
 25 26  2  0
 26 27  1  0
 26 40  1  0
 27 28  1  0
 28 29  1  0
 29 30  2  0
 29 31  1  0
 32 31  1  6
 32 33  1  0
 32 38  1  0
 33 34  2  0
 33 35  1  0
 35 36  1  0
 36 37  1  0
 37 38  1  0
 38 39  1  1
 40 41  2  0
M  END
