
     RDKit          3D

 42 45  0  0  0  0  0  0  0  0999 V2000
    7.8900    1.3250   -0.4660 C   0  0  0  0  0  0  0  0  0  0  0  0
    7.5060    1.7570    0.9320 C   0  0  0  0  0  0  0  0  0  0  0  0
    6.1540    2.4450    0.9370 C   0  0  1  0  0  0  0  0  0  0  0  0
    6.1690    3.6610    0.0700 C   0  0  0  0  0  0  0  0  0  0  0  0
    5.0340    3.5350   -0.8930 C   0  0  0  0  0  0  0  0  0  0  0  0
    4.4420    2.1920   -0.6290 C   0  0  0  0  0  0  0  0  0  0  0  0
    3.4180    1.5090   -1.2240 C   0  0  0  0  0  0  0  0  0  0  0  0
    3.0170    0.2540   -0.8240 C   0  0  0  0  0  0  0  0  0  0  0  0
    3.6660   -0.3870    0.2420 C   0  0  0  0  0  0  0  0  0  0  0  0
    3.2130   -1.7190    0.6590 C   0  0  0  0  0  0  0  0  0  0  0  0
    3.8260   -2.3720    1.6170 C   0  0  0  0  0  0  0  0  0  0  0  0
    3.4280   -3.7260    2.0980 C   0  0  2  0  0  0  0  0  0  0  0  0
    3.6820   -4.6190    1.0880 F   0  0  0  0  0  0  0  0  0  0  0  0
    2.1020   -3.7740    2.4950 F   0  0  0  0  0  0  0  0  0  0  0  0
    2.0500   -2.3560   -0.0050 C   0  0  0  0  0  0  0  0  0  0  0  0
    0.7850   -1.5850    0.2390 C   0  0  0  0  0  0  0  0  0  0  0  0
    0.7810   -0.5670    0.9550 O   0  0  0  0  0  0  0  0  0  0  0  0
   -0.3930   -2.0630   -0.3760 N   0  0  0  0  0  0  0  0  0  0  0  0
   -1.6830   -1.5040   -0.2890 C   0  0  0  0  0  0  0  0  0  0  0  0
   -1.9870   -0.3340    0.3840 C   0  0  0  0  0  0  0  0  0  0  0  0
   -3.3040    0.1670    0.4090 C   0  0  0  0  0  0  0  0  0  0  0  0
   -4.3300   -0.4830   -0.2300 C   0  0  0  0  0  0  0  0  0  0  0  0
   -5.6410   -0.0080   -0.2220 O   0  0  0  0  0  0  0  0  0  0  0  0
   -6.0610    1.1570    0.3420 C   0  0  0  0  0  0  0  0  0  0  0  0
   -6.9860    1.1420    1.3570 C   0  0  0  0  0  0  0  0  0  0  0  0
   -7.4020    2.3350    1.9170 C   0  0  0  0  0  0  0  0  0  0  0  0
   -8.3840    2.3620    2.9990 C   0  0  0  0  0  0  0  0  0  0  0  0
   -8.8730    1.2830    3.4450 O   0  0  0  0  0  0  0  0  0  0  0  0
   -6.9100    3.5590    1.4820 C   0  0  0  0  0  0  0  0  0  0  0  0
   -5.9850    3.5640    0.4660 C   0  0  0  0  0  0  0  0  0  0  0  0
   -5.5640    2.3590   -0.1010 C   0  0  0  0  0  0  0  0  0  0  0  0
   -4.6310    2.4330   -1.1220 O   0  0  0  0  0  0  0  0  0  0  0  0
   -4.0950    3.6250   -1.6100 C   0  0  0  0  0  0  0  0  0  0  0  0
   -4.0070   -1.6450   -0.8940 C   0  0  0  0  0  0  0  0  0  0  0  0
   -2.7180   -2.1570   -0.9320 C   0  0  0  0  0  0  0  0  0  0  0  0
   -2.4620   -3.4070   -1.6510 C   0  0  2  0  0  0  0  0  0  0  0  0
   -3.6890   -3.8780   -2.4240 C   0  0  0  0  0  0  0  0  0  0  0  0
   -2.1200   -4.5040   -0.7210 C   0  0  0  0  0  0  0  0  0  0  0  0
   -1.8080   -5.7810   -1.2210 N   0  0  0  0  0  0  0  0  0  0  0  0
   -2.1080   -4.2930    0.5050 O   0  0  0  0  0  0  0  0  0  0  0  0
    4.6900    0.2990    0.8360 C   0  0  0  0  0  0  0  0  0  0  0  0
    5.0850    1.5750    0.4160 C   0  0  0  0  0  0  0  0  0  0  0  0
  1  2  1  0
  3  2  1  6
  3  4  1  0
  3 42  1  0
  4  5  1  0
  5  6  1  0
  6  7  2  0
  6 42  1  0
  7  8  1  0
  8  9  2  0
  9 10  1  0
  9 41  1  0
 10 11  2  3
 10 15  1  0
 11 12  1  0
 12 13  1  6
 12 14  1  0
 15 16  1  0
 16 17  2  0
 16 18  1  0
 18 19  1  0
 19 20  2  0
 19 35  1  0
 20 21  1  0
 21 22  2  0
 22 23  1  0
 22 34  1  0
 23 24  1  0
 24 25  2  0
 24 31  1  0
 25 26  1  0
 26 27  1  0
 26 29  2  0
 27 28  2  0
 29 30  1  0
 30 31  2  0
 31 32  1  0
 32 33  1  0
 34 35  2  0
 35 36  1  0
 36 37  1  1
 36 38  1  0
 38 39  1  0
 38 40  2  0
 41 42  2  0
M  END
