
     RDKit          3D

 42 46  0  0  0  0  0  0  0  0999 V2000
   -6.7970    0.2200    2.3510 C   0  0  0  0  0  0  0  0  0  0  0  0
   -5.7580   -0.7500    2.4110 O   0  0  0  0  0  0  0  0  0  0  0  0
   -5.5880   -1.7150    1.4390 C   0  0  0  0  0  0  0  0  0  0  0  0
   -6.2540   -2.9280    1.4950 C   0  0  0  0  0  0  0  0  0  0  0  0
   -7.1200   -3.1830    2.5670 O   0  0  0  0  0  0  0  0  0  0  0  0
   -6.0900   -3.9110    0.5160 C   0  0  0  0  0  0  0  0  0  0  0  0
   -5.2450   -3.6570   -0.5230 C   0  0  0  0  0  0  0  0  0  0  0  0
   -4.5660   -2.4610   -0.6100 C   0  0  0  0  0  0  0  0  0  0  0  0
   -4.7430   -1.4810    0.3860 C   0  0  0  0  0  0  0  0  0  0  0  0
   -3.8530   -0.3430   -0.0670 C   0  0  1  0  0  0  0  0  0  0  0  0
   -3.3810    0.5400    1.0010 C   0  0  0  0  0  0  0  0  0  0  0  0
   -2.5360    1.6110    0.5160 N   0  0  0  0  0  0  0  0  0  0  0  0
   -3.1310    2.8430   -0.0020 C   0  0  0  0  0  0  0  0  0  0  0  0
   -3.3930    2.9000   -1.4520 C   0  0  1  0  0  0  0  0  0  0  0  0
   -3.9470    4.1760   -1.7990 O   0  0  0  0  0  0  0  0  0  0  0  0
   -2.2370    2.6880   -2.3690 C   0  0  0  0  0  0  0  0  0  0  0  0
   -2.7680    2.7180   -3.6860 O   0  0  0  0  0  0  0  0  0  0  0  0
   -1.1260    1.5590    0.5570 C   0  0  0  0  0  0  0  0  0  0  0  0
   -0.5100    2.5470    0.0130 O   0  0  0  0  0  0  0  0  0  0  0  0
   -0.3800    0.4860    1.1760 C   0  0  0  0  0  0  0  0  0  0  0  0
    1.0910    0.6830    1.1430 N   0  0  0  0  0  0  0  0  0  0  0  0
    1.7220    0.1860   -0.0390 C   0  0  0  0  0  0  0  0  0  0  0  0
    1.0760   -0.3650   -0.9650 O   0  0  0  0  0  0  0  0  0  0  0  0
    3.2100    0.3480   -0.1390 C   0  0  0  0  0  0  0  0  0  0  0  0
    3.7360   -0.4060   -1.3420 C   0  0  0  0  0  0  0  0  0  0  0  0
    5.2430   -0.2580   -1.4710 C   0  0  1  0  0  0  0  0  0  0  0  0
    5.9470   -0.7770   -0.2340 C   0  0  0  0  0  0  0  0  0  0  0  0
    7.3540   -0.7960   -0.5570 O   0  0  0  0  0  0  0  0  0  0  0  0
    7.7250   -1.5660   -1.6800 C   0  0  0  0  0  0  0  0  0  0  0  0
    8.9290   -2.2010   -1.7950 C   0  0  0  0  0  0  0  0  0  0  0  0
    9.1980   -2.9330   -2.9390 C   0  0  0  0  0  0  0  0  0  0  0  0
    8.2710   -3.0310   -3.9620 C   0  0  0  0  0  0  0  0  0  0  0  0
    7.0620   -2.3950   -3.8510 C   0  0  0  0  0  0  0  0  0  0  0  0
    6.7990   -1.6630   -2.7030 C   0  0  0  0  0  0  0  0  0  0  0  0
    5.6000   -1.0360   -2.6020 O   0  0  0  0  0  0  0  0  0  0  0  0
    1.8210    1.2870    2.2280 C   0  0  1  0  0  0  0  0  0  0  0  0
    1.4300    2.6060    2.6800 C   0  0  0  0  0  0  0  0  0  0  0  0
    0.2890    2.5740    3.6300 C   0  0  0  0  0  0  0  0  0  0  0  0
    0.4140    0.9240    4.4310 S   0  0  0  0  0  0  0  0  0  0  0  0
    1.7470    0.3020    3.3760 C   0  0  0  0  0  0  0  0  0  0  0  0
   -2.7760   -1.1200   -0.7760 C   0  0  0  0  0  0  0  0  0  0  0  0
   -3.6500   -1.9810   -1.5760 O   0  0  0  0  0  0  0  0  0  0  0  0
  1  2  1  0
  2  3  1  0
  3  4  2  0
  3  9  1  0
  4  5  1  0
  4  6  1  0
  6  7  2  0
  7  8  1  0
  8  9  2  0
  8 42  1  0
  9 10  1  0
 10 11  1  1
 10 41  1  0
 11 12  1  0
 12 13  1  0
 12 18  1  0
 13 14  1  0
 14 15  1  1
 14 16  1  0
 16 17  1  0
 18 19  2  0
 18 20  1  0
 20 21  1  0
 21 22  1  0
 36 21  1  6
 22 23  2  0
 22 24  1  0
 24 25  1  0
 26 25  1  1
 26 27  1  0
 26 35  1  0
 27 28  1  0
 28 29  1  0
 29 30  2  0
 29 34  1  0
 30 31  1  0
 31 32  2  0
 32 33  1  0
 33 34  2  0
 34 35  1  0
 36 37  1  0
 36 40  1  0
 37 38  1  0
 38 39  1  0
 39 40  1  0
 41 42  1  0
M  END
