
     RDKit          3D

 42 46  0  0  0  0  0  0  0  0999 V2000
   -7.5600    5.0290   -0.8630 C   0  0  0  0  0  0  0  0  0  0  0  0
   -7.6390    3.6210   -0.8140 O   0  0  0  0  0  0  0  0  0  0  0  0
   -6.4810    2.8540   -1.0120 C   0  0  0  0  0  0  0  0  0  0  0  0
   -5.2540    3.4360   -1.2560 C   0  0  0  0  0  0  0  0  0  0  0  0
   -4.1370    2.6630   -1.4480 C   0  0  0  0  0  0  0  0  0  0  0  0
   -4.1950    1.2850   -1.4050 C   0  0  0  0  0  0  0  0  0  0  0  0
   -2.7400    0.3480   -1.6670 S   0  0  2  0  0  0  0  0  0  0  0  0
   -1.8310    1.0900   -2.6350 O   0  0  0  0  0  0  0  0  0  0  0  0
   -3.1480   -0.9670   -2.3150 O   0  0  0  0  0  0  0  0  0  0  0  0
   -1.8630    0.0640   -0.2400 N   0  0  0  0  0  0  0  0  0  0  0  0
   -2.5830   -0.6730    0.7190 C   0  0  0  0  0  0  0  0  0  0  0  0
   -3.3190    0.1880    1.7230 C   0  0  1  0  0  0  0  0  0  0  0  0
   -4.0510   -0.7000    2.6910 C   0  0  0  0  0  0  0  0  0  0  0  0
   -2.9330   -1.3000    3.5130 C   0  0  0  0  0  0  0  0  0  0  0  0
   -1.8260   -0.3170    3.4390 C   0  0  0  0  0  0  0  0  0  0  0  0
   -0.7020   -0.3990    3.9910 O   0  0  0  0  0  0  0  0  0  0  0  0
   -2.2860    0.7560    2.6110 N   0  0  0  0  0  0  0  0  0  0  0  0
   -0.5000   -0.2630   -0.4310 C   0  0  0  0  0  0  0  0  0  0  0  0
   -0.2070   -1.7280   -0.5740 C   0  0  1  0  0  0  0  0  0  0  0  0
   -0.9090   -2.1980   -1.6740 O   0  0  0  0  0  0  0  0  0  0  0  0
    1.2680   -1.8800   -0.8560 C   0  0  2  0  0  0  0  0  0  0  0  0
    1.6960   -3.3190   -1.0510 C   0  0  0  0  0  0  0  0  0  0  0  0
    1.0320   -4.0070   -2.1650 C   0  0  0  0  0  0  0  0  0  0  0  0
    1.5730   -3.9110   -3.4490 C   0  0  0  0  0  0  0  0  0  0  0  0
    0.9640   -4.5690   -4.4920 C   0  0  0  0  0  0  0  0  0  0  0  0
   -0.1720   -5.3190   -4.2740 C   0  0  0  0  0  0  0  0  0  0  0  0
   -0.6900   -5.4000   -2.9960 C   0  0  0  0  0  0  0  0  0  0  0  0
   -0.1070   -4.7560   -1.9360 C   0  0  0  0  0  0  0  0  0  0  0  0
    2.0740   -1.3800    0.2470 N   0  0  0  0  0  0  0  0  0  0  0  0
    3.0220   -0.3720    0.0260 C   0  0  0  0  0  0  0  0  0  0  0  0
    3.1380    0.0730   -1.1560 O   0  0  0  0  0  0  0  0  0  0  0  0
    3.8340    0.1640    1.0180 O   0  0  0  0  0  0  0  0  0  0  0  0
    4.7440    1.1780    0.6480 C   0  0  2  0  0  0  0  0  0  0  0  0
    6.1860    0.8010    0.9180 C   0  0  0  0  0  0  0  0  0  0  0  0
    6.7990    2.1940    1.0820 C   0  0  2  0  0  0  0  0  0  0  0  0
    8.0610    2.1650    1.8900 C   0  0  0  0  0  0  0  0  0  0  0  0
    7.5580    2.3200    3.3060 C   0  0  0  0  0  0  0  0  0  0  0  0
    6.1680    2.2570    3.2370 O   0  0  0  0  0  0  0  0  0  0  0  0
    5.8160    2.8380    2.0180 C   0  0  2  0  0  0  0  0  0  0  0  0
    4.4700    2.3790    1.5340 C   0  0  0  0  0  0  0  0  0  0  0  0
   -5.4150    0.6970   -1.1630 C   0  0  0  0  0  0  0  0  0  0  0  0
   -6.5270    1.4800   -0.9720 C   0  0  0  0  0  0  0  0  0  0  0  0
  1  2  1  0
  2  3  1  0
  3  4  2  0
  3 42  1  0
  4  5  1  0
  5  6  2  0
  6  7  1  0
  6 41  1  0
  7  8  2  0
  7  9  2  0
  7 10  1  1
 10 11  1  0
 10 18  1  0
 12 11  1  6
 12 13  1  0
 12 17  1  0
 13 14  1  0
 14 15  1  0
 15 16  2  0
 15 17  1  0
 18 19  1  0
 19 20  1  6
 19 21  1  0
 21 22  1  1
 21 29  1  0
 22 23  1  0
 23 24  2  0
 23 28  1  0
 24 25  1  0
 25 26  2  0
 26 27  1  0
 27 28  2  0
 29 30  1  0
 30 31  2  0
 30 32  1  0
 33 32  1  1
 33 34  1  0
 33 40  1  0
 35 34  1  1
 35 36  1  0
 35 39  1  0
 36 37  1  0
 37 38  1  0
 38 39  1  0
 39 40  1  6
 41 42  2  0
M  END
