
     RDKit          3D

 42 45  0  0  0  0  0  0  0  0999 V2000
   10.7490   -1.1400    2.2000 C   0  0  0  0  0  0  0  0  0  0  0  0
    9.6130   -0.7620    2.8770 O   0  0  0  0  0  0  0  0  0  0  0  0
    8.6110   -0.3670    1.9910 C   0  0  0  0  0  0  0  0  0  0  0  0
    8.1750   -1.4350    1.0440 C   0  0  0  0  0  0  0  0  0  0  0  0
    7.2110   -1.1810    0.1460 O   0  0  0  0  0  0  0  0  0  0  0  0
    7.3280   -0.3320   -0.8440 C   0  0  0  0  0  0  0  0  0  0  0  0
    7.4370    1.1330   -0.7290 C   0  0  0  0  0  0  0  0  0  0  0  0
    6.2780    1.8600   -0.1220 C   0  0  2  0  0  0  0  0  0  0  0  0
    5.9080    1.4930    1.2620 C   0  0  0  0  0  0  0  0  0  0  0  0
    5.0870    1.8420   -1.0480 C   0  0  0  0  0  0  0  0  0  0  0  0
    4.6110    2.8780   -1.8120 C   0  0  0  0  0  0  0  0  0  0  0  0
    3.5120    2.3930   -2.4900 C   0  0  0  0  0  0  0  0  0  0  0  0
    3.3630    1.0770   -2.1090 C   0  0  0  0  0  0  0  0  0  0  0  0
    2.3200    0.1720   -2.5840 C   0  0  0  0  0  0  0  0  0  0  0  0
    1.4730    0.5460   -3.4030 O   0  0  0  0  0  0  0  0  0  0  0  0
    2.2780   -1.1390   -2.1050 O   0  0  0  0  0  0  0  0  0  0  0  0
    1.2770   -2.0630   -2.5370 C   0  0  0  0  0  0  0  0  0  0  0  0
   -0.0820   -1.5310   -2.2040 C   0  0  0  0  0  0  0  0  0  0  0  0
   -0.9610   -1.1040   -3.1630 C   0  0  0  0  0  0  0  0  0  0  0  0
   -2.0890   -0.6920   -2.4510 C   0  0  0  0  0  0  0  0  0  0  0  0
   -1.8520   -0.8810   -1.1220 C   0  0  0  0  0  0  0  0  0  0  0  0
   -2.7030   -0.6050    0.0260 C   0  0  0  0  0  0  0  0  0  0  0  0
   -2.1730   -1.0090    1.1440 O   0  0  0  0  0  0  0  0  0  0  0  0
   -3.9320   -0.0110    0.1260 N   0  0  0  0  0  0  0  0  0  0  0  0
   -4.6480    0.5690   -0.9950 C   0  0  0  0  0  0  0  0  0  0  0  0
   -5.7200   -0.3760   -1.4880 C   0  0  2  0  0  0  0  0  0  0  0  0
   -6.0560   -0.1500   -2.9300 C   0  0  0  0  0  0  0  0  0  0  0  0
   -6.9240   -0.1380   -0.5830 C   0  0  1  0  0  0  0  0  0  0  0  0
   -8.0000   -1.1050   -0.8450 C   0  0  0  0  0  0  0  0  0  0  0  0
   -7.8460   -1.9920   -1.7090 O   0  0  0  0  0  0  0  0  0  0  0  0
   -9.2100   -1.0390   -0.1250 N   0  0  0  0  0  0  0  0  0  0  0  0
  -10.2880   -1.9670   -0.3530 C   0  0  0  0  0  0  0  0  0  0  0  0
  -10.1700   -2.8760   -1.2170 O   0  0  0  0  0  0  0  0  0  0  0  0
   -6.4050   -0.3060    1.1260 S   0  0  0  0  0  0  0  0  0  0  0  0
   -4.6450    0.0370    1.4010 C   0  0  1  0  0  0  0  0  0  0  0  0
   -4.1690   -0.9600    2.4180 C   0  0  0  0  0  0  0  0  0  0  0  0
   -5.3270   -1.0390    3.4470 C   0  0  0  0  0  0  0  0  0  0  0  0
   -5.6330    0.3320    3.9850 C   0  0  0  0  0  0  0  0  0  0  0  0
   -4.6750    1.3930    3.5030 C   0  0  0  0  0  0  0  0  0  0  0  0
   -4.5290    1.4070    2.0050 C   0  0  0  0  0  0  0  0  0  0  0  0
   -0.6180   -1.3930   -1.0330 O   0  0  0  0  0  0  0  0  0  0  0  0
    4.3170    0.7910   -1.2540 O   0  0  0  0  0  0  0  0  0  0  0  0
  1  2  1  0
  2  3  1  0
  3  4  1  0
  4  5  1  0
  5  6  1  0
  6  7  1  0
  7  8  1  0
  8  9  1  1
  8 10  1  0
 10 11  2  0
 10 42  1  0
 11 12  1  0
 12 13  2  0
 13 14  1  0
 13 42  1  0
 14 15  2  0
 14 16  1  0
 16 17  1  0
 17 18  1  0
 18 19  2  0
 18 41  1  0
 19 20  1  0
 20 21  2  0
 21 22  1  0
 21 41  1  0
 22 23  2  0
 22 24  1  0
 24 25  1  0
 24 35  1  0
 25 26  1  0
 26 27  1  6
 26 28  1  0
 28 29  1  6
 28 34  1  0
 29 30  2  0
 29 31  1  0
 31 32  1  0
 32 33  2  0
 34 35  1  0
 35 36  1  1
 35 40  1  0
 36 37  1  0
 37 38  1  0
 38 39  1  0
 39 40  1  0
M  END
