
     RDKit          3D

 42 45  0  0  0  0  0  0  0  0999 V2000
   11.3780   -0.9040   -1.9520 C   0  0  0  0  0  0  0  0  0  0  0  0
   10.0280   -0.8940   -2.2110 O   0  0  0  0  0  0  0  0  0  0  0  0
    9.2660   -1.0330   -1.0810 C   0  0  0  0  0  0  0  0  0  0  0  0
    9.4800    0.0550   -0.0620 C   0  0  2  0  0  0  0  0  0  0  0  0
    8.5790   -0.1830    1.1340 C   0  0  0  0  0  0  0  0  0  0  0  0
    7.9520    1.0840    1.4590 N   0  0  0  0  0  0  0  0  0  0  0  0
    6.5480    1.1690    1.7080 C   0  0  0  0  0  0  0  0  0  0  0  0
    6.1160    2.3170    1.9830 O   0  0  0  0  0  0  0  0  0  0  0  0
    5.6540    0.0090    1.6550 C   0  0  0  0  0  0  0  0  0  0  0  0
    4.2210    0.4570    1.6900 C   0  0  0  0  0  0  0  0  0  0  0  0
    3.9080    1.2840    0.4980 C   0  0  0  0  0  0  0  0  0  0  0  0
    2.4710    1.7710    0.4800 C   0  0  1  0  0  0  0  0  0  0  0  0
    1.4940    0.6220    0.4740 C   0  0  0  0  0  0  0  0  0  0  0  0
    0.0940    1.2090    0.5710 C   0  0  1  0  0  0  0  0  0  0  0  0
   -0.9530    0.1920    0.3920 C   0  0  0  0  0  0  0  0  0  0  0  0
   -1.8140   -0.0650    1.2840 O   0  0  0  0  0  0  0  0  0  0  0  0
   -1.0300   -0.5270   -0.7790 O   0  0  0  0  0  0  0  0  0  0  0  0
   -2.0030   -1.5170   -1.0280 C   0  0  0  0  0  0  0  0  0  0  0  0
   -3.3650   -0.9560   -0.9580 C   0  0  0  0  0  0  0  0  0  0  0  0
   -3.5590    0.2550   -0.7080 O   0  0  0  0  0  0  0  0  0  0  0  0
   -4.5310   -1.7750   -1.1740 N   0  0  0  0  0  0  0  0  0  0  0  0
   -5.8310   -1.2210   -1.1040 C   0  0  0  0  0  0  0  0  0  0  0  0
   -6.1010    0.5620   -0.7380 S   0  0  0  0  0  0  0  0  0  0  0  0
   -7.8240    0.4690   -0.8180 C   0  0  0  0  0  0  0  0  0  0  0  0
   -8.1420   -0.8640   -1.1100 C   0  0  0  0  0  0  0  0  0  0  0  0
   -7.0910   -1.7010   -1.2490 C   0  0  0  0  0  0  0  0  0  0  0  0
   -7.2420   -3.1670   -1.5540 C   0  0  0  0  0  0  0  0  0  0  0  0
   -8.3710   -3.6570   -1.6940 O   0  0  0  0  0  0  0  0  0  0  0  0
   -6.1690   -3.9990   -1.6850 O   0  0  0  0  0  0  0  0  0  0  0  0
   -6.2700   -5.3800   -1.9690 C   0  0  0  0  0  0  0  0  0  0  0  0
   -9.5140   -1.4890   -1.3050 C   0  0  0  0  0  0  0  0  0  0  0  0
  -10.5690   -0.3870   -1.2040 C   0  0  0  0  0  0  0  0  0  0  0  0
  -10.9950   -0.1440    0.1990 C   0  0  0  0  0  0  0  0  0  0  0  0
  -10.7920    1.2460    0.6830 C   0  0  0  0  0  0  0  0  0  0  0  0
   -9.7180    1.9920   -0.0070 C   0  0  0  0  0  0  0  0  0  0  0  0
   -8.5830    1.7090   -0.5830 C   0  0  0  0  0  0  0  0  0  0  0  0
   -0.0150    1.9570    1.8580 C   0  0  0  0  0  0  0  0  0  0  0  0
    1.3620    2.0260    2.4950 C   0  0  0  0  0  0  0  0  0  0  0  0
    2.2960    2.5590    1.6110 O   0  0  0  0  0  0  0  0  0  0  0  0
    8.8330    2.2340    1.5100 C   0  0  0  0  0  0  0  0  0  0  0  0
    9.4460    2.3690    0.1180 C   0  0  0  0  0  0  0  0  0  0  0  0
    9.1450    1.2650   -0.6830 O   0  0  0  0  0  0  0  0  0  0  0  0
  1  2  1  0
  2  3  1  0
  4  3  1  6
  4  5  1  0
  4 42  1  0
  5  6  1  0
  6  7  1  0
  6 40  1  0
  7  8  2  0
  7  9  1  0
  9 10  1  0
 10 11  1  0
 12 11  1  1
 12 13  1  0
 12 39  1  0
 13 14  1  0
 14 15  1  1
 14 37  1  0
 15 16  2  0
 15 17  1  0
 17 18  1  0
 18 19  1  0
 19 20  2  0
 19 21  1  0
 21 22  1  0
 22 23  1  0
 22 26  2  0
 23 24  1  0
 24 25  2  0
 24 36  1  0
 25 26  1  0
 25 31  1  0
 26 27  1  0
 27 28  2  0
 27 29  1  0
 29 30  1  0
 31 32  1  0
 32 33  1  0
 33 34  1  0
 34 35  1  0
 35 36  2  0
 37 38  1  0
 38 39  1  0
 40 41  1  0
 41 42  1  0
M  END
