
     RDKit          3D

 42 45  0  0  0  0  0  0  0  0999 V2000
   -5.2330    1.7210    2.2710 C   0  0  0  0  0  0  0  0  0  0  0  0
   -4.8740    0.3880    1.9990 O   0  0  0  0  0  0  0  0  0  0  0  0
   -3.8940    0.1510    1.0630 C   0  0  0  0  0  0  0  0  0  0  0  0
   -4.2200   -0.1190   -0.1740 C   0  0  0  0  0  0  0  0  0  0  0  0
   -5.6570   -0.1600   -0.5320 C   0  0  0  0  0  0  0  0  0  0  0  0
   -5.9830   -0.4220   -1.7530 C   0  0  0  0  0  0  0  0  0  0  0  0
   -7.2870   -0.5320   -2.4010 C   0  0  0  0  0  0  0  0  0  0  0  0
   -8.4740   -0.3070   -1.5920 C   0  0  0  0  0  0  0  0  0  0  0  0
   -8.4530   -0.0310   -0.3750 O   0  0  0  0  0  0  0  0  0  0  0  0
   -9.7980   -0.3900   -2.1620 N   0  0  0  0  0  0  0  0  0  0  0  0
  -10.9580   -0.1610   -1.3400 C   0  0  1  0  0  0  0  0  0  0  0  0
  -11.8220    0.9450   -1.9000 C   0  0  0  0  0  0  0  0  0  0  0  0
  -13.1890    0.3530   -1.8810 C   0  0  0  0  0  0  0  0  0  0  0  0
  -13.1140   -1.0020   -1.7150 O   0  0  0  0  0  0  0  0  0  0  0  0
  -11.8370   -1.3820   -1.4090 C   0  0  0  0  0  0  0  0  0  0  0  0
   -2.4870    0.2010    1.4450 C   0  0  0  0  0  0  0  0  0  0  0  0
   -1.9430    0.4640    2.6980 C   0  0  0  0  0  0  0  0  0  0  0  0
   -0.5830    0.3990    2.5460 C   0  0  0  0  0  0  0  0  0  0  0  0
   -0.3320    0.1020    1.2230 C   0  0  0  0  0  0  0  0  0  0  0  0
    0.9310   -0.0780    0.5310 C   0  0  0  0  0  0  0  0  0  0  0  0
    0.9590   -0.3860   -0.7080 O   0  0  0  0  0  0  0  0  0  0  0  0
    2.1660    0.0690    1.1510 O   0  0  0  0  0  0  0  0  0  0  0  0
    3.3030   -0.1320    0.3730 C   0  0  0  0  0  0  0  0  0  0  0  0
    3.6820    0.8380   -0.5520 C   0  0  0  0  0  0  0  0  0  0  0  0
    4.8010    0.6800   -1.3470 C   0  0  0  0  0  0  0  0  0  0  0  0
    5.5900   -0.4580   -1.2480 C   0  0  0  0  0  0  0  0  0  0  0  0
    7.0030   -0.5860   -2.3320 S   0  0  0  0  0  0  0  0  0  0  0  0
    7.9130   -2.1150   -1.9650 C   0  0  0  0  0  0  0  0  0  0  0  0
    8.5350   -2.0170   -0.6240 C   0  0  0  0  0  0  0  0  0  0  0  0
    9.1730   -2.9810   -0.1630 O   0  0  0  0  0  0  0  0  0  0  0  0
    8.3910   -0.8230    0.1140 N   0  0  0  0  0  0  0  0  0  0  0  0
    8.9650   -0.6380    1.4280 C   0  0  2  0  0  0  0  0  0  0  0  0
    7.9190   -0.1880    2.3550 C   0  0  0  0  0  0  0  0  0  0  0  0
    7.1230   -1.0190    2.8430 O   0  0  0  0  0  0  0  0  0  0  0  0
    7.7980    1.1600    2.7010 O   0  0  0  0  0  0  0  0  0  0  0  0
    8.5580    2.1850    2.1340 C   0  0  0  0  0  0  0  0  0  0  0  0
    9.5140    1.7170    1.0690 C   0  0  0  0  0  0  0  0  0  0  0  0
   10.1040    0.3750    1.3500 C   0  0  2  0  0  0  0  0  0  0  0  0
   10.9190   -0.0380    0.1240 C   0  0  0  0  0  0  0  0  0  0  0  0
    5.2240   -1.4150   -0.3390 C   0  0  0  0  0  0  0  0  0  0  0  0
    4.0920   -1.2520    0.4620 C   0  0  0  0  0  0  0  0  0  0  0  0
   -1.4920    0.0010    0.6470 O   0  0  0  0  0  0  0  0  0  0  0  0
  1  2  1  0
  2  3  1  0
  3  4  2  3
  3 16  1  0
  4  5  1  0
  5  6  2  3
  6  7  1  0
  7  8  1  0
  8  9  2  0
  8 10  1  0
 11 10  1  6
 11 12  1  0
 11 15  1  0
 12 13  1  0
 13 14  1  0
 14 15  1  0
 16 17  2  0
 16 42  1  0
 17 18  1  0
 18 19  2  0
 19 20  1  0
 19 42  1  0
 20 21  2  0
 20 22  1  0
 22 23  1  0
 23 24  2  0
 23 41  1  0
 24 25  1  0
 25 26  2  0
 26 27  1  0
 26 40  1  0
 27 28  1  0
 28 29  1  0
 29 30  2  0
 29 31  1  0
 32 31  1  6
 32 33  1  0
 32 38  1  0
 33 34  2  0
 33 35  1  0
 35 36  1  0
 36 37  1  0
 37 38  1  0
 38 39  1  6
 40 41  2  0
M  END
