
     RDKit          3D

 42 45  0  0  0  0  0  0  0  0999 V2000
   10.8770    2.9090    0.1020 C   0  0  0  0  0  0  0  0  0  0  0  0
   10.8690    1.5600    0.3440 O   0  0  0  0  0  0  0  0  0  0  0  0
    9.6820    1.0440    0.8140 C   0  0  0  0  0  0  0  0  0  0  0  0
    8.5080    1.2490   -0.1290 C   0  0  2  0  0  0  0  0  0  0  0  0
    7.2050    0.9140    0.5300 C   0  0  0  0  0  0  0  0  0  0  0  0
    6.7200   -0.3700    0.1700 N   0  0  0  0  0  0  0  0  0  0  0  0
    5.6880   -0.9640    0.9850 C   0  0  0  0  0  0  0  0  0  0  0  0
    5.2250   -2.1160    0.6900 O   0  0  0  0  0  0  0  0  0  0  0  0
    5.1770   -0.2280    2.1620 C   0  0  0  0  0  0  0  0  0  0  0  0
    3.8530   -0.7870    2.6070 C   0  0  0  0  0  0  0  0  0  0  0  0
    2.8450   -0.5920    1.5050 C   0  0  0  0  0  0  0  0  0  0  0  0
    1.4750   -1.1440    1.8830 C   0  0  1  0  0  0  0  0  0  0  0  0
    0.5370   -0.8840    0.7270 C   0  0  0  0  0  0  0  0  0  0  0  0
   -0.2810   -2.1080    0.3880 C   0  0  1  0  0  0  0  0  0  0  0  0
   -1.1070   -1.7920   -0.8080 C   0  0  0  0  0  0  0  0  0  0  0  0
   -1.2340   -0.5860   -1.1450 O   0  0  0  0  0  0  0  0  0  0  0  0
   -1.7430   -2.7760   -1.5640 O   0  0  0  0  0  0  0  0  0  0  0  0
   -2.5090   -2.4350   -2.6630 C   0  0  0  0  0  0  0  0  0  0  0  0
   -3.7520   -1.6440   -2.2860 C   0  0  0  0  0  0  0  0  0  0  0  0
   -4.3940   -1.2450   -3.2830 O   0  0  0  0  0  0  0  0  0  0  0  0
   -4.1010   -1.4170   -0.9580 N   0  0  0  0  0  0  0  0  0  0  0  0
   -5.2020   -0.6610   -0.5160 C   0  0  0  0  0  0  0  0  0  0  0  0
   -6.0350   -1.1510    1.0250 S   0  0  0  0  0  0  0  0  0  0  0  0
   -7.2320    0.1290    1.0070 C   0  0  0  0  0  0  0  0  0  0  0  0
   -6.9500    0.8400   -0.1160 C   0  0  0  0  0  0  0  0  0  0  0  0
   -5.9020    0.4340   -0.8940 C   0  0  0  0  0  0  0  0  0  0  0  0
   -5.3690    1.3410   -1.9850 C   0  0  0  0  0  0  0  0  0  0  0  0
   -4.2680    1.1780   -2.5240 O   0  0  0  0  0  0  0  0  0  0  0  0
   -6.0940    2.4220   -2.4540 O   0  0  0  0  0  0  0  0  0  0  0  0
   -5.5980    3.2750   -3.4820 C   0  0  0  0  0  0  0  0  0  0  0  0
   -7.7030    2.0710   -0.6170 C   0  0  0  0  0  0  0  0  0  0  0  0
   -8.8990    2.3490    0.2820 C   0  0  0  0  0  0  0  0  0  0  0  0
   -9.9390    1.3060   -0.0480 C   0  0  0  0  0  0  0  0  0  0  0  0
  -10.5260    0.8290    1.2380 C   0  0  0  0  0  0  0  0  0  0  0  0
   -9.4730    0.4090    2.1860 C   0  0  0  0  0  0  0  0  0  0  0  0
   -8.1940    0.1330    2.1110 C   0  0  0  0  0  0  0  0  0  0  0  0
    0.5810   -3.3070    0.1050 C   0  0  0  0  0  0  0  0  0  0  0  0
    1.8030   -3.2620    0.9790 C   0  0  0  0  0  0  0  0  0  0  0  0
    1.6300   -2.5110    2.1060 O   0  0  0  0  0  0  0  0  0  0  0  0
    7.1830   -1.1140   -0.9560 C   0  0  0  0  0  0  0  0  0  0  0  0
    8.5870   -0.7190   -1.3000 C   0  0  0  0  0  0  0  0  0  0  0  0
    8.7270    0.6700   -1.3540 O   0  0  0  0  0  0  0  0  0  0  0  0
  1  2  1  0
  2  3  1  0
  4  3  1  1
  4  5  1  0
  4 42  1  0
  5  6  1  0
  6  7  1  0
  6 40  1  0
  7  8  2  0
  7  9  1  0
  9 10  1  0
 10 11  1  0
 12 11  1  6
 12 13  1  0
 12 39  1  0
 13 14  1  0
 14 15  1  6
 14 37  1  0
 15 16  2  0
 15 17  1  0
 17 18  1  0
 18 19  1  0
 19 20  2  0
 19 21  1  0
 21 22  1  0
 22 23  1  0
 22 26  2  0
 23 24  1  0
 24 25  2  0
 24 36  1  0
 25 26  1  0
 25 31  1  0
 26 27  1  0
 27 28  2  0
 27 29  1  0
 29 30  1  0
 31 32  1  0
 32 33  1  0
 33 34  1  0
 34 35  1  0
 35 36  2  0
 37 38  1  0
 38 39  1  0
 40 41  1  0
 41 42  1  0
M  END
