
     RDKit          3D

 42 45  0  0  0  0  0  0  0  0999 V2000
   -9.8630   -0.1690    0.0860 C   0  0  0  0  0  0  0  0  0  0  0  0
   -8.6860   -0.9270   -0.4170 C   0  0  0  0  0  0  0  0  0  0  0  0
   -7.6320   -1.2320    0.5690 C   0  0  0  0  0  0  0  0  0  0  0  0
   -6.9060   -0.1240    1.2180 C   0  0  2  0  0  0  0  0  0  0  0  0
   -7.7450    0.7890    2.0190 C   0  0  0  0  0  0  0  0  0  0  0  0
   -6.0500    0.5810    0.2570 N   0  0  0  0  0  0  0  0  0  0  0  0
   -4.6560    0.5370    0.3100 C   0  0  0  0  0  0  0  0  0  0  0  0
   -4.1640   -0.1680    1.2550 O   0  0  0  0  0  0  0  0  0  0  0  0
   -3.7130    1.1870   -0.5800 C   0  0  0  0  0  0  0  0  0  0  0  0
   -2.4930    0.5360   -0.7490 C   0  0  0  0  0  0  0  0  0  0  0  0
   -1.4980    0.9710   -1.6040 C   0  0  0  0  0  0  0  0  0  0  0  0
   -0.3770    0.3200   -1.7210 O   0  0  0  0  0  0  0  0  0  0  0  0
    0.7360   -0.3410   -1.8260 C   0  0  0  0  0  0  0  0  0  0  0  0
    1.5730   -0.4860   -0.7330 O   0  0  0  0  0  0  0  0  0  0  0  0
    1.4750   -1.0130    0.4910 C   0  0  0  0  0  0  0  0  0  0  0  0
    0.3300   -1.6550    0.9670 C   0  0  0  0  0  0  0  0  0  0  0  0
    0.2410   -2.1910    2.2310 C   0  0  0  0  0  0  0  0  0  0  0  0
    1.3330   -2.0930    3.0740 C   0  0  0  0  0  0  0  0  0  0  0  0
    2.4660   -1.4820    2.6610 C   0  0  0  0  0  0  0  0  0  0  0  0
    2.5540   -0.9340    1.3670 C   0  0  0  0  0  0  0  0  0  0  0  0
    3.7120   -0.3360    1.0200 O   0  0  0  0  0  0  0  0  0  0  0  0
    4.2470    0.2890   -0.0490 C   0  0  1  0  0  0  0  0  0  0  0  0
    4.3620    1.8300    0.1940 C   0  0  0  0  0  0  0  0  0  0  0  0
    5.6010   -0.1560   -0.4910 C   0  0  0  0  0  0  0  0  0  0  0  0
    6.0720    0.3730   -1.5610 O   0  0  0  0  0  0  0  0  0  0  0  0
    6.3890   -1.1120    0.1860 N   0  0  0  0  0  0  0  0  0  0  0  0
    6.0460   -1.7830    1.4140 C   0  0  0  0  0  0  0  0  0  0  0  0
    7.4000   -2.1640    2.0220 C   0  0  2  0  0  0  0  0  0  0  0  0
    8.2510   -0.9570    2.3620 C   0  0  0  0  0  0  0  0  0  0  0  0
    9.6610   -1.8210    1.6160 S   0  0  0  0  0  0  0  0  0  0  0  0
   10.5020   -0.9310    0.6980 O   0  0  0  0  0  0  0  0  0  0  0  0
    8.1910   -2.4770    0.8010 C   0  0  2  0  0  0  0  0  0  0  0  0
    7.6800   -1.5770   -0.2580 C   0  0  1  0  0  0  0  0  0  0  0  0
    7.5980   -2.2350   -1.5940 C   0  0  0  0  0  0  0  0  0  0  0  0
    6.5420   -2.4080   -2.2360 O   0  0  0  0  0  0  0  0  0  0  0  0
    8.7920   -2.6760   -2.1370 O   0  0  0  0  0  0  0  0  0  0  0  0
   -1.7530    2.1520   -2.3420 C   0  0  0  0  0  0  0  0  0  0  0  0
   -0.7640    2.6050   -3.2080 O   0  0  0  0  0  0  0  0  0  0  0  0
   -1.0160    3.7830   -3.9460 C   0  0  0  0  0  0  0  0  0  0  0  0
   -2.9270    2.7840   -2.1820 C   0  0  0  0  0  0  0  0  0  0  0  0
   -3.9140    2.3140   -1.3060 C   0  0  0  0  0  0  0  0  0  0  0  0
   -5.1560    3.1140   -1.1640 C   0  0  0  0  0  0  0  0  0  0  0  0
  1  2  1  0
  2  3  1  0
  3  4  1  0
  4  5  1  6
  4  6  1  0
  6  7  1  0
  7  8  2  0
  7  9  1  0
  9 10  2  0
  9 41  1  0
 10 11  1  0
 11 12  1  0
 11 37  2  0
 12 13  1  0
 13 14  1  0
 14 15  1  0
 15 16  2  0
 15 20  1  0
 16 17  1  0
 17 18  2  0
 18 19  1  0
 19 20  2  0
 20 21  1  0
 21 22  1  0
 22 23  1  1
 22 24  1  0
 24 25  2  0
 24 26  1  0
 26 27  1  0
 26 33  1  0
 28 27  1  6
 28 29  1  0
 28 32  1  0
 30 29  1  1
 30 31  2  0
 30 32  1  0
 32 33  1  6
 33 34  1  6
 34 35  2  0
 34 36  1  0
 37 38  1  0
 37 40  1  0
 38 39  1  0
 40 41  2  0
 41 42  1  0
M  END
