
     RDKit          3D

 42 45  0  0  0  0  0  0  0  0999 V2000
    9.6850    2.1450    0.2280 C   0  0  0  0  0  0  0  0  0  0  0  0
   10.7230    1.4920    0.8430 O   0  0  0  0  0  0  0  0  0  0  0  0
   10.4480    0.2710    1.3750 C   0  0  0  0  0  0  0  0  0  0  0  0
    9.9850   -0.7110    0.3460 C   0  0  0  0  0  0  0  0  0  0  0  0
    9.7070   -1.9670    0.8200 O   0  0  0  0  0  0  0  0  0  0  0  0
    8.7000   -2.0450    1.7550 C   0  0  0  0  0  0  0  0  0  0  0  0
    7.3480   -1.6250    1.2790 C   0  0  0  0  0  0  0  0  0  0  0  0
    6.7700   -2.4360    0.1710 C   0  0  2  0  0  0  0  0  0  0  0  0
    7.5520   -2.4770   -1.0950 C   0  0  0  0  0  0  0  0  0  0  0  0
    5.3910   -1.8960   -0.1070 C   0  0  0  0  0  0  0  0  0  0  0  0
    4.1850   -2.5520   -0.0440 C   0  0  0  0  0  0  0  0  0  0  0  0
    3.2110   -1.6640   -0.3770 C   0  0  0  0  0  0  0  0  0  0  0  0
    3.8420   -0.4730   -0.6410 C   0  0  0  0  0  0  0  0  0  0  0  0
    3.1490    0.7620   -1.0400 C   0  0  0  0  0  0  0  0  0  0  0  0
    3.8450    1.7740   -1.2500 O   0  0  0  0  0  0  0  0  0  0  0  0
    1.7920    0.8290   -1.1840 O   0  0  0  0  0  0  0  0  0  0  0  0
    1.0690    1.9640   -1.5550 C   0  0  0  0  0  0  0  0  0  0  0  0
   -0.4000    1.5720   -1.5850 C   0  0  0  0  0  0  0  0  0  0  0  0
   -1.1600    1.4690   -2.7100 C   0  0  0  0  0  0  0  0  0  0  0  0
   -2.4310    1.0860   -2.2470 C   0  0  0  0  0  0  0  0  0  0  0  0
   -2.3940    0.9740   -0.8840 C   0  0  0  0  0  0  0  0  0  0  0  0
   -3.3890    0.6220    0.1030 C   0  0  0  0  0  0  0  0  0  0  0  0
   -2.9300    0.5500    1.2990 O   0  0  0  0  0  0  0  0  0  0  0  0
   -4.7390    0.3530   -0.0340 N   0  0  0  0  0  0  0  0  0  0  0  0
   -5.3200    0.4820   -1.3590 C   0  0  0  0  0  0  0  0  0  0  0  0
   -6.7930    0.6180   -1.4510 C   0  0  2  0  0  0  0  0  0  0  0  0
   -7.0900    1.0270   -2.9060 C   0  0  0  0  0  0  0  0  0  0  0  0
   -7.1850    1.7880   -0.5350 C   0  0  1  0  0  0  0  0  0  0  0  0
   -8.5380    2.2750   -0.8070 C   0  0  0  0  0  0  0  0  0  0  0  0
   -9.2190    1.7210   -1.7160 O   0  0  0  0  0  0  0  0  0  0  0  0
   -9.0320    3.3570   -0.0340 N   0  0  0  0  0  0  0  0  0  0  0  0
  -10.3540    3.8350   -0.2960 C   0  0  0  0  0  0  0  0  0  0  0  0
  -11.0460    3.3000   -1.1930 O   0  0  0  0  0  0  0  0  0  0  0  0
   -7.0080    1.1200    1.1430 S   0  0  0  0  0  0  0  0  0  0  0  0
   -5.5960   -0.0890    1.0640 C   0  0  2  0  0  0  0  0  0  0  0  0
   -5.0390   -0.0770    2.4240 C   0  0  0  0  0  0  0  0  0  0  0  0
   -4.2710   -1.2360    2.9220 C   0  0  0  0  0  0  0  0  0  0  0  0
   -4.3060   -2.3920    1.9330 C   0  0  0  0  0  0  0  0  0  0  0  0
   -5.7800   -2.5630    1.6070 C   0  0  0  0  0  0  0  0  0  0  0  0
   -6.2350   -1.4150    0.7390 C   0  0  0  0  0  0  0  0  0  0  0  0
   -1.1220    1.2870   -0.5680 O   0  0  0  0  0  0  0  0  0  0  0  0
    5.1120   -0.6590   -0.4700 O   0  0  0  0  0  0  0  0  0  0  0  0
  1  2  1  0
  2  3  1  0
  3  4  1  0
  4  5  1  0
  5  6  1  0
  6  7  1  0
  7  8  1  0
  8  9  1  6
  8 10  1  0
 10 11  2  0
 10 42  1  0
 11 12  1  0
 12 13  2  0
 13 14  1  0
 13 42  1  0
 14 15  2  0
 14 16  1  0
 16 17  1  0
 17 18  1  0
 18 19  2  0
 18 41  1  0
 19 20  1  0
 20 21  2  0
 21 22  1  0
 21 41  1  0
 22 23  2  0
 22 24  1  0
 24 25  1  0
 24 35  1  0
 25 26  1  0
 26 27  1  6
 26 28  1  0
 28 29  1  6
 28 34  1  0
 29 30  2  0
 29 31  1  0
 31 32  1  0
 32 33  2  0
 34 35  1  0
 35 36  1  1
 35 40  1  0
 36 37  1  0
 37 38  1  0
 38 39  1  0
 39 40  1  0
M  END
