
     RDKit          3D

 42 45  0  0  0  0  0  0  0  0999 V2000
   -3.1800   -2.8010    5.0460 C   0  0  0  0  0  0  0  0  0  0  0  0
   -3.1150   -1.8260    4.0290 O   0  0  0  0  0  0  0  0  0  0  0  0
   -1.9380   -1.4180    3.4280 C   0  0  0  0  0  0  0  0  0  0  0  0
   -0.8710   -1.9500    3.8160 O   0  0  0  0  0  0  0  0  0  0  0  0
   -1.8880   -0.3920    2.3600 C   0  0  2  0  0  0  0  0  0  0  0  0
   -0.5310   -0.1610    1.9000 N   0  0  0  0  0  0  0  0  0  0  0  0
    0.2500   -1.2290    1.3320 C   0  0  0  0  0  0  0  0  0  0  0  0
   -0.3300   -2.3430    1.2740 O   0  0  0  0  0  0  0  0  0  0  0  0
    1.6140   -0.9940    0.8670 C   0  0  0  0  0  0  0  0  0  0  0  0
    2.2690    0.1690    0.9410 N   0  0  0  0  0  0  0  0  0  0  0  0
    3.5110    0.0350    0.4280 C   0  0  0  0  0  0  0  0  0  0  0  0
    4.4550    1.1670    0.3800 C   0  0  0  0  0  0  0  0  0  0  0  0
    5.7640    0.8110   -0.2340 C   0  0  0  0  0  0  0  0  0  0  0  0
    6.6270    2.0470   -0.2220 C   0  0  0  0  0  0  0  0  0  0  0  0
    6.1680    3.1070    0.2700 O   0  0  0  0  0  0  0  0  0  0  0  0
    7.8960    2.0530   -0.7310 O   0  0  0  0  0  0  0  0  0  0  0  0
    8.6920    3.2150   -0.7180 C   0  0  0  0  0  0  0  0  0  0  0  0
    8.0850    4.3410   -1.5010 C   0  0  0  0  0  0  0  0  0  0  0  0
    9.2030    5.7420   -1.3960 S   0  0  0  0  0  0  0  0  0  0  0  0
    8.6050    6.7640   -0.4610 O   0  0  0  0  0  0  0  0  0  0  0  0
    3.6770   -1.2530    0.0050 C   0  0  0  0  0  0  0  0  0  0  0  0
    2.4720   -1.9010    0.2850 C   0  0  0  0  0  0  0  0  0  0  0  0
    2.2140   -3.3270   -0.0360 C   0  0  2  0  0  0  0  0  0  0  0  0
    3.5320   -4.0010   -0.3980 C   0  0  0  0  0  0  0  0  0  0  0  0
    3.8100   -3.8970   -1.8780 C   0  0  0  0  0  0  0  0  0  0  0  0
    2.9560   -4.7530   -2.5750 O   0  0  0  0  0  0  0  0  0  0  0  0
    1.7030   -4.8230   -1.9690 C   0  0  0  0  0  0  0  0  0  0  0  0
    1.3560   -3.4820   -1.3000 C   0  0  0  0  0  0  0  0  0  0  0  0
   -2.3660    0.9030    2.9800 C   0  0  0  0  0  0  0  0  0  0  0  0
   -3.8030    0.9010    3.3770 C   0  0  0  0  0  0  0  0  0  0  0  0
   -4.6580    0.3540    2.2720 C   0  0  0  0  0  0  0  0  0  0  0  0
   -3.8130    0.2540    1.0220 C   0  0  2  0  0  0  0  0  0  0  0  0
   -4.5790    0.0970   -0.1560 O   0  0  0  0  0  0  0  0  0  0  0  0
   -4.6200    1.0270   -1.1650 C   0  0  0  0  0  0  0  0  0  0  0  0
   -3.9120    2.0770   -0.9860 O   0  0  0  0  0  0  0  0  0  0  0  0
   -5.4020    0.9030   -2.4050 C   0  0  2  0  0  0  0  0  0  0  0  0
   -5.0050   -0.2610   -3.2550 C   0  0  0  0  0  0  0  0  0  0  0  0
   -5.4270    2.1520   -3.2210 C   0  0  0  0  0  0  0  0  0  0  0  0
   -6.5470    2.9910   -2.6450 C   0  0  0  0  0  0  0  0  0  0  0  0
   -7.4770    2.0500   -1.9420 C   0  0  0  0  0  0  0  0  0  0  0  0
   -6.8560    0.6740   -1.9860 C   0  0  0  0  0  0  0  0  0  0  0  0
   -2.7920   -0.8180    1.2240 C   0  0  0  0  0  0  0  0  0  0  0  0
  1  2  1  0
  2  3  1  0
  3  4  2  0
  3  5  1  0
  5  6  1  6
  5 29  1  0
  5 42  1  0
  6  7  1  0
  7  8  2  0
  7  9  1  0
  9 10  1  0
  9 22  2  0
 10 11  1  0
 11 12  1  0
 11 21  2  0
 12 13  1  0
 13 14  1  0
 14 15  2  0
 14 16  1  0
 16 17  1  0
 17 18  1  0
 18 19  1  0
 19 20  2  0
 21 22  1  0
 23 22  1  6
 23 24  1  0
 23 28  1  0
 24 25  1  0
 25 26  1  0
 26 27  1  0
 27 28  1  0
 29 30  1  0
 30 31  1  0
 31 32  1  0
 32 33  1  6
 32 42  1  0
 33 34  1  0
 34 35  2  0
 34 36  1  0
 36 37  1  6
 36 38  1  0
 36 41  1  0
 38 39  1  0
 39 40  1  0
 40 41  1  0
M  END
