
     RDKit          3D

 12 12  0  0  0  0  0  0  0  0999 V2000
   -0.9520    2.1820    0.7110 N   0  0  0  0  0  0  0  0  0  0  0  0
   -1.0730    0.8220    0.2420 C   0  0  0  0  0  0  0  0  0  0  0  0
   -2.2560    0.4220   -0.1810 C   0  0  0  0  0  0  0  0  0  0  0  0
   -2.4070   -0.9390   -0.6580 C   0  0  0  0  0  0  0  0  0  0  0  0
   -3.5610   -1.3070   -1.0630 O   0  0  0  0  0  0  0  0  0  0  0  0
   -1.3300   -1.7780   -0.6610 O   0  0  0  0  0  0  0  0  0  0  0  0
   -0.0330   -1.4770   -0.2600 C   0  0  0  0  0  0  0  0  0  0  0  0
    0.0880   -0.0860    0.2370 C   0  0  0  0  0  0  0  0  0  0  0  0
    1.2250    0.4050    0.6940 C   0  0  0  0  0  0  0  0  0  0  0  0
    2.4190   -0.4350    0.7200 C   0  0  0  0  0  0  0  0  0  0  0  0
    2.4820   -1.6200    0.3400 O   0  0  0  0  0  0  0  0  0  0  0  0
    3.6150    0.1180    1.2140 O   0  0  0  0  0  0  0  0  0  0  0  0
  1  2  1  0
  2  3  2  0
  2  8  1  0
  3  4  1  0
  4  5  2  0
  4  6  1  0
  6  7  1  0
  7  8  1  0
  8  9  2  3
  9 10  1  0
 10 11  2  0
 10 12  1  0
M  END
