
     RDKit          3D

 12 12  0  0  0  0  0  0  0  0999 V2000
    3.2750    0.1080   -0.1380 C   0  0  0  0  0  0  0  0  0  0  0  0
    1.8160    0.4680   -0.2730 C   0  0  0  0  0  0  0  0  0  0  0  0
    0.9800   -0.5630    0.2310 O   0  0  0  0  0  0  0  0  0  0  0  0
   -0.3970   -0.3510    0.1640 C   0  0  0  0  0  0  0  0  0  0  0  0
   -1.1270   -0.7420   -0.9330 C   0  0  0  0  0  0  0  0  0  0  0  0
   -0.4950   -1.3660   -2.0110 O   0  0  0  0  0  0  0  0  0  0  0  0
   -2.4920   -0.5280   -0.9920 C   0  0  0  0  0  0  0  0  0  0  0  0
   -3.0910    0.0750    0.0550 N   0  0  0  0  0  0  0  0  0  0  0  0
   -2.3970    0.4660    1.1380 C   0  0  0  0  0  0  0  0  0  0  0  0
   -2.9400    1.0310    2.1250 O   0  0  0  0  0  0  0  0  0  0  0  0
   -1.0390    0.2630    1.2180 C   0  0  0  0  0  0  0  0  0  0  0  0
   -0.3120    0.6750    2.3570 O   0  0  0  0  0  0  0  0  0  0  0  0
  1  2  1  0
  2  3  1  0
  3  4  1  0
  4  5  1  0
  4 11  2  0
  5  6  1  0
  5  7  2  0
  7  8  1  0
  8  9  1  0
  9 10  2  0
  9 11  1  0
 11 12  1  0
M  END
