
     RDKit          3D

 27 29  0  0  0  0  0  0  0  0999 V2000
    8.2130    1.0330    1.7940 C   0  0  0  0  0  0  0  0  0  0  0  0
    6.7530    0.8910    1.6170 C   0  0  0  0  0  0  0  0  0  0  0  0
    6.1300    0.3810    0.4960 C   0  0  0  0  0  0  0  0  0  0  0  0
    4.7730    0.3980    0.6720 C   0  0  0  0  0  0  0  0  0  0  0  0
    3.6960   -0.0170   -0.1900 C   0  0  0  0  0  0  0  0  0  0  0  0
    1.9090    0.0790    0.2620 S   0  0  0  0  0  0  0  0  0  0  0  0
    1.3300   -0.5830   -1.2660 C   0  0  0  0  0  0  0  0  0  0  0  0
   -0.0690   -0.7900   -1.5960 N   0  0  0  0  0  0  0  0  0  0  0  0
   -1.0470   -0.4390   -0.6300 C   0  0  0  0  0  0  0  0  0  0  0  0
   -0.6470    0.0220    0.4330 O   0  0  0  0  0  0  0  0  0  0  0  0
   -2.4270   -0.6030   -0.8580 N   0  0  0  0  0  0  0  0  0  0  0  0
   -3.4960   -0.3000    0.0140 C   0  0  0  0  0  0  0  0  0  0  0  0
   -3.2480    0.1750    1.2830 C   0  0  0  0  0  0  0  0  0  0  0  0
   -4.2990    0.4660    2.1360 C   0  0  0  0  0  0  0  0  0  0  0  0
   -5.5800    0.2800    1.7150 C   0  0  0  0  0  0  0  0  0  0  0  0
   -6.7110    0.5520    2.5210 N   0  0  0  0  0  0  0  0  0  0  0  0
   -7.4670    2.1260    2.4790 S   0  0  0  0  0  0  0  0  0  0  0  0
   -5.8660   -0.2020    0.4310 C   0  0  0  0  0  0  0  0  0  0  0  0
   -4.8340   -0.4960   -0.4300 C   0  0  0  0  0  0  0  0  0  0  0  0
   -5.0490   -0.9870   -1.7360 N   0  0  0  0  0  0  0  0  0  0  0  0
   -6.3290   -1.1740   -2.3040 C   0  0  0  0  0  0  0  0  0  0  0  0
   -7.3900   -0.9260   -1.7230 O   0  0  0  0  0  0  0  0  0  0  0  0
    2.3870   -0.7900   -1.8980 N   0  0  0  0  0  0  0  0  0  0  0  0
    3.5870   -0.5450   -1.4550 C   0  0  0  0  0  0  0  0  0  0  0  0
    4.8680   -0.8110   -2.2650 C   0  0  0  0  0  0  0  0  0  0  0  0
    4.5870    0.9230    1.9110 N   0  0  0  0  0  0  0  0  0  0  0  0
    5.7560    1.2090    2.4550 N   0  0  0  0  0  0  0  0  0  0  0  0
  1  2  1  0
  2  3  1  0
  2 27  2  0
  3  4  2  0
  4  5  1  0
  4 26  1  0
  5  6  1  0
  5 24  2  0
  6  7  1  0
  7  8  1  0
  7 23  2  0
  8  9  1  0
  9 10  2  0
  9 11  1  0
 11 12  1  0
 12 13  2  0
 12 19  1  0
 13 14  1  0
 14 15  2  0
 15 16  1  0
 15 18  1  0
 16 17  1  0
 18 19  2  0
 19 20  1  0
 20 21  1  0
 21 22  2  0
 23 24  1  0
 24 25  1  0
 26 27  1  0
M  END
