
     RDKit          3D

 27 29  0  0  0  0  0  0  0  0999 V2000
   -3.8200    3.7850    0.3520 N   0  0  0  0  0  0  0  0  0  0  0  0
   -2.7230    3.4460   -0.4880 C   0  0  0  0  0  0  0  0  0  0  0  0
   -1.9890    4.6600   -1.2920 S   0  0  0  0  0  0  0  0  0  0  0  0
   -2.2900    2.0940   -0.6150 N   0  0  0  0  0  0  0  0  0  0  0  0
   -2.9500    1.0730    0.0960 C   0  0  0  0  0  0  0  0  0  0  0  0
   -4.2170    1.4380    1.0710 S   0  0  0  0  0  0  0  0  0  0  0  0
   -2.5050   -0.2900   -0.0390 N   0  0  0  0  0  0  0  0  0  0  0  0
   -1.2340   -0.5330   -0.0730 C   0  0  0  0  0  0  0  0  0  0  0  0
   -0.2330    0.3210    0.0000 O   0  0  0  0  0  0  0  0  0  0  0  0
    0.9080   -0.3130   -0.0710 C   0  0  0  0  0  0  0  0  0  0  0  0
    2.2660    0.2730   -0.0260 C   0  0  0  0  0  0  0  0  0  0  0  0
    3.3530   -0.5680   -0.1170 C   0  0  0  0  0  0  0  0  0  0  0  0
    4.5910    0.0020   -0.0730 C   0  0  0  0  0  0  0  0  0  0  0  0
    4.6970    1.3880    0.0590 C   0  0  0  0  0  0  0  0  0  0  0  0
    3.6310    2.2240    0.1490 C   0  0  0  0  0  0  0  0  0  0  0  0
    3.6250    3.6250    0.2840 N   0  0  0  0  0  0  0  0  0  0  0  0
    4.7860    4.4010    0.3480 C   0  0  0  0  0  0  0  0  0  0  0  0
    5.9180    3.9180    0.2920 O   0  0  0  0  0  0  0  0  0  0  0  0
    2.4110    1.5980    0.1000 N   0  0  0  0  0  0  0  0  0  0  0  0
    0.5970   -1.6140   -0.1930 N   0  0  0  0  0  0  0  0  0  0  0  0
   -0.7240   -1.7620   -0.1960 N   0  0  0  0  0  0  0  0  0  0  0  0
   -1.4790   -2.9770   -0.3060 C   0  0  0  0  0  0  0  0  0  0  0  0
   -2.3830   -3.1560   -1.3320 C   0  0  0  0  0  0  0  0  0  0  0  0
   -3.1070   -4.3300   -1.4310 C   0  0  0  0  0  0  0  0  0  0  0  0
   -2.9630   -5.3600   -0.5250 C   0  0  0  0  0  0  0  0  0  0  0  0
   -2.0620   -5.1850    0.5000 C   0  0  0  0  0  0  0  0  0  0  0  0
   -1.3360   -4.0070    0.6000 C   0  0  0  0  0  0  0  0  0  0  0  0
  1  2  1  0
  2  3  2  0
  2  4  1  0
  4  5  1  0
  5  6  2  0
  5  7  1  0
  7  8  2  3
  8  9  1  0
  8 21  1  0
  9 10  1  0
 10 11  1  0
 10 20  2  0
 11 12  2  0
 11 19  1  0
 12 13  1  0
 13 14  2  0
 14 15  1  0
 15 16  1  0
 15 19  2  0
 16 17  1  0
 17 18  2  0
 20 21  1  0
 21 22  1  0
 22 23  2  0
 22 27  1  0
 23 24  1  0
 24 25  2  0
 25 26  1  0
 26 27  2  0
M  END
