
     RDKit          3D

 27 29  0  0  0  0  0  0  0  0999 V2000
   -1.4880    4.6570   -2.8110 C   0  0  0  0  0  0  0  0  0  0  0  0
   -0.9110    3.7680   -1.8640 N   0  0  0  0  0  0  0  0  0  0  0  0
   -1.1590    2.4150   -2.2090 C   0  0  0  0  0  0  0  0  0  0  0  0
   -0.7030    1.3790   -1.2230 C   0  0  0  0  0  0  0  0  0  0  0  0
    0.5300    0.9190   -1.1440 N   0  0  0  0  0  0  0  0  0  0  0  0
    0.9120   -0.1120   -0.3870 C   0  0  0  0  0  0  0  0  0  0  0  0
    2.2260   -0.7070   -0.3930 C   0  0  0  0  0  0  0  0  0  0  0  0
    3.0710   -0.1890    0.6370 N   0  0  0  0  0  0  0  0  0  0  0  0
    4.2830   -1.0040    0.8120 C   0  0  0  0  0  0  0  0  0  0  0  0
    4.2680   -1.9430    1.8090 C   0  0  0  0  0  0  0  0  0  0  0  0
    5.4160   -2.7100    1.9410 C   0  0  0  0  0  0  0  0  0  0  0  0
    6.4400   -2.5000    1.1160 N   0  0  0  0  0  0  0  0  0  0  0  0
    6.4580   -1.5860    0.1340 C   0  0  0  0  0  0  0  0  0  0  0  0
    7.5910   -1.4420   -0.6850 N   0  0  0  0  0  0  0  0  0  0  0  0
    5.3170   -0.7850   -0.0340 C   0  0  0  0  0  0  0  0  0  0  0  0
   -0.0830   -0.7160    0.3520 N   0  0  0  0  0  0  0  0  0  0  0  0
   -1.3440   -0.2640    0.3000 C   0  0  0  0  0  0  0  0  0  0  0  0
   -2.6070   -0.9690    1.2610 S   0  0  0  0  0  0  0  0  0  0  0  0
   -4.1240   -0.1590    1.0250 C   0  0  0  0  0  0  0  0  0  0  0  0
   -5.2140   -0.5110    1.6040 N   0  0  0  0  0  0  0  0  0  0  0  0
   -5.2850   -1.6360    2.5180 C   0  0  0  0  0  0  0  0  0  0  0  0
   -6.5070   -2.8180    1.9540 S   0  0  2  0  0  0  0  0  0  0  0  0
   -6.6330   -2.5570    0.4580 O   0  0  0  0  0  0  0  0  0  0  0  0
   -7.7770   -2.5050    2.6540 O   0  0  0  0  0  0  0  0  0  0  0  0
   -4.0800    0.8650    0.1500 C   0  0  0  0  0  0  0  0  0  0  0  0
   -3.0150    1.3180   -0.5360 C   0  0  0  0  0  0  0  0  0  0  0  0
   -1.7120    0.7850   -0.4710 C   0  0  0  0  0  0  0  0  0  0  0  0
  1  2  1  0
  2  3  1  0
  3  4  1  0
  4  5  2  0
  4 27  1  0
  5  6  1  0
  6  7  1  0
  6 16  2  0
  7  8  1  0
  8  9  1  0
  9 10  2  0
  9 15  1  0
 10 11  1  0
 11 12  2  0
 12 13  1  0
 13 14  1  0
 13 15  2  0
 16 17  1  0
 17 18  1  0
 17 27  2  0
 18 19  1  0
 19 20  2  3
 19 25  1  0
 20 21  1  0
 22 21  1  1
 22 23  2  0
 22 24  2  0
 25 26  2  0
 26 27  1  0
M  END
