
     RDKit          3D

 42 44  0  0  0  0  0  0  0  0999 V2000
   -0.8990   -2.5310    4.0660 C   0  0  0  0  0  0  0  0  0  0  0  0
   -1.0860   -1.3770    3.2730 O   0  0  0  0  0  0  0  0  0  0  0  0
   -0.0630   -0.4850    3.1250 C   0  0  0  0  0  0  0  0  0  0  0  0
    1.0210   -0.7580    3.7280 O   0  0  0  0  0  0  0  0  0  0  0  0
   -0.0970    0.7520    2.3420 C   0  0  2  0  0  0  0  0  0  0  0  0
   -1.1230    1.6700    3.0460 C   0  0  0  0  0  0  0  0  0  0  0  0
   -1.8190    2.3950    1.9370 C   0  0  0  0  0  0  0  0  0  0  0  0
   -2.0450    1.1930    0.9430 C   0  0  2  0  0  0  0  0  0  0  0  0
   -2.2370    1.7640   -0.3290 O   0  0  0  0  0  0  0  0  0  0  0  0
   -3.1990    0.4920    1.4650 C   0  0  0  0  0  0  0  0  0  0  0  0
   -3.7730   -0.7150    0.8180 C   0  0  1  0  0  0  0  0  0  0  0  0
   -4.9070   -1.1510    1.6450 O   0  0  0  0  0  0  0  0  0  0  0  0
   -4.3940   -0.6050   -0.5150 C   0  0  1  0  0  0  0  0  0  0  0  0
   -5.5800    0.3740   -0.5770 C   0  0  0  0  0  0  0  0  0  0  0  0
   -6.0420    0.3440   -2.0270 C   0  0  2  0  0  0  0  0  0  0  0  0
   -7.4330    0.4280   -2.0090 O   0  0  0  0  0  0  0  0  0  0  0  0
   -5.6980   -0.9590   -2.7120 C   0  0  0  0  0  0  0  0  0  0  0  0
   -4.2110   -1.2030   -2.8440 C   0  0  2  0  0  0  0  0  0  0  0  0
   -3.9250   -2.5470   -2.6400 O   0  0  0  0  0  0  0  0  0  0  0  0
   -3.5800   -0.3420   -1.7120 C   0  0  0  0  0  0  0  0  0  0  0  0
   -0.6730    0.6610    0.9680 C   0  0  2  0  0  0  0  0  0  0  0  0
   -0.3500   -0.5270    0.2130 C   0  0  0  0  0  0  0  0  0  0  0  0
   -0.5080   -1.6770    0.7500 O   0  0  0  0  0  0  0  0  0  0  0  0
    0.1330   -0.5740   -1.0810 O   0  0  0  0  0  0  0  0  0  0  0  0
    1.0210    0.3890   -1.5620 C   0  0  0  0  0  0  0  0  0  0  0  0
    2.1910   -0.1550   -2.3010 C   0  0  0  0  0  0  0  0  0  0  0  0
    2.3660    0.4270   -3.4460 O   0  0  0  0  0  0  0  0  0  0  0  0
    3.0640   -1.1780   -1.8920 N   0  0  0  0  0  0  0  0  0  0  0  0
    3.8970   -1.3260   -0.7740 C   0  0  0  0  0  0  0  0  0  0  0  0
    4.0560   -2.4860   -0.2320 O   0  0  0  0  0  0  0  0  0  0  0  0
    4.6920   -0.3140   -0.0470 C   0  0  1  0  0  0  0  0  0  0  0  0
    4.7860   -0.6820    1.2960 O   0  0  0  0  0  0  0  0  0  0  0  0
    6.1710   -0.4400   -0.5080 C   0  0  0  0  0  0  0  0  0  0  0  0
    6.2770   -0.2030   -1.9890 C   0  0  0  0  0  0  0  0  0  0  0  0
    7.7360   -0.3430   -2.3580 C   0  0  0  0  0  0  0  0  0  0  0  0
    7.9590   -0.1420   -3.7220 O   0  0  0  0  0  0  0  0  0  0  0  0
    4.2370    1.0870   -0.1300 C   0  0  0  0  0  0  0  0  0  0  0  0
    3.5880    1.6540    1.0010 N   0  0  0  0  0  0  0  0  0  0  0  0
    2.5470    0.7050    1.9230 S   0  0  2  0  0  0  0  0  0  0  0  0
    3.3110    0.3440    3.2070 O   0  0  0  0  0  0  0  0  0  0  0  0
    2.2160   -0.5780    1.2820 O   0  0  0  0  0  0  0  0  0  0  0  0
    1.1260    1.5090    2.3690 N   0  0  0  0  0  0  0  0  0  0  0  0
  1  2  1  0
  2  3  1  0
  3  4  2  0
  5  3  1  1
  5  6  1  0
  5 21  1  0
  5 42  1  0
  6  7  1  0
  7  8  1  0
  8  9  1  6
  8 10  1  0
  8 21  1  0
 10 11  1  0
 11 12  1  1
 11 13  1  0
 13 14  1  1
 13 20  1  0
 14 15  1  0
 15 16  1  1
 15 17  1  0
 17 18  1  0
 18 19  1  1
 18 20  1  0
 21 22  1  1
 22 23  2  0
 22 24  1  0
 24 25  1  0
 25 26  1  0
 26 27  2  0
 26 28  1  0
 28 29  1  0
 29 30  2  0
 29 31  1  0
 31 32  1  1
 31 33  1  0
 31 37  1  0
 33 34  1  0
 34 35  1  0
 35 36  1  0
 37 38  1  0
 39 38  1  6
 39 40  2  0
 39 41  2  0
 39 42  1  0
M  END
