
     RDKit          3D

 29 32  0  0  0  0  0  0  0  0999 V2000
   -3.5650   -3.5470    0.0680 C   0  0  0  0  0  0  0  0  0  0  0  0
   -2.9520   -2.2150   -0.2440 C   0  0  0  0  0  0  0  0  0  0  0  0
   -3.7160   -1.1150    0.0630 C   0  0  0  0  0  0  0  0  0  0  0  0
   -3.1760    0.1060   -0.2230 C   0  0  0  0  0  0  0  0  0  0  0  0
   -4.0410    1.2940    0.1230 C   0  0  0  0  0  0  0  0  0  0  0  0
   -1.9210    0.2880   -0.8020 C   0  0  0  0  0  0  0  0  0  0  0  0
   -1.1670   -0.8460   -1.1220 C   0  0  0  0  0  0  0  0  0  0  0  0
   -1.6770   -2.0810   -0.8320 C   0  0  0  0  0  0  0  0  0  0  0  0
   -0.9920   -3.4120   -0.8580 C   0  0  0  0  0  0  0  0  0  0  0  0
   -1.6230   -4.4470   -1.1650 O   0  0  0  0  0  0  0  0  0  0  0  0
    0.4030   -3.6330   -0.5410 N   0  0  0  0  0  0  0  0  0  0  0  0
    1.3150   -2.5080   -0.5070 C   0  0  0  0  0  0  0  0  0  0  0  0
    2.6650   -2.7710    0.0900 C   0  0  0  0  0  0  0  0  0  0  0  0
    3.7300   -1.8950   -0.5670 C   0  0  0  0  0  0  0  0  0  0  0  0
    4.0570   -0.7390    0.0480 O   0  0  0  0  0  0  0  0  0  0  0  0
    3.6930    0.5720    0.2210 C   0  0  0  0  0  0  0  0  0  0  0  0
    3.9260    1.0000    1.5500 C   0  0  0  0  0  0  0  0  0  0  0  0
    3.6520    2.2590    2.0270 C   0  0  0  0  0  0  0  0  0  0  0  0
    3.1070    3.1300    1.0980 C   0  0  0  0  0  0  0  0  0  0  0  0
    2.8760    2.7220   -0.1930 C   0  0  0  0  0  0  0  0  0  0  0  0
    3.1450    1.4870   -0.6920 C   0  0  0  0  0  0  0  0  0  0  0  0
    1.8860    4.0480   -1.0750 S   0  0  0  0  0  0  0  0  0  0  0  0
    0.1140    3.4660   -0.7690 C   0  0  0  0  0  0  0  0  0  0  0  0
   -0.3670    2.3360   -1.3700 C   0  0  0  0  0  0  0  0  0  0  0  0
   -1.4020    1.7180   -0.7120 C   0  0  0  0  0  0  0  0  0  0  0  0
   -1.8340    2.3480    0.4480 N   0  0  0  0  0  0  0  0  0  0  0  0
   -1.3730    3.4450    1.0000 C   0  0  0  0  0  0  0  0  0  0  0  0
   -1.8930    4.0180    2.1900 N   0  0  0  0  0  0  0  0  0  0  0  0
   -0.3210    4.0490    0.3500 N   0  0  0  0  0  0  0  0  0  0  0  0
  1  2  1  0
  2  3  2  0
  2  8  1  0
  3  4  1  0
  4  5  1  0
  4  6  2  0
  6  7  1  0
  6 25  1  0
  7  8  2  0
  8  9  1  0
  9 10  2  0
  9 11  1  0
 11 12  1  0
 12 13  1  0
 13 14  1  0
 14 15  1  0
 15 16  1  0
 16 17  2  0
 16 21  1  0
 17 18  1  0
 18 19  2  0
 19 20  1  0
 20 21  2  0
 20 22  1  0
 22 23  1  0
 23 24  1  0
 23 29  2  0
 24 25  2  0
 25 26  1  0
 26 27  2  0
 27 28  1  0
 27 29  1  0
M  END
