
     RDKit          3D

 41 43  0  0  0  0  0  0  0  0999 V2000
    9.9180    3.1560    0.3840 C   0  0  0  0  0  0  0  0  0  0  0  0
    8.7290    2.4900    0.0010 O   0  0  0  0  0  0  0  0  0  0  0  0
    8.5590    1.1210    0.1380 C   0  0  0  0  0  0  0  0  0  0  0  0
    9.5300    0.4680    0.6300 O   0  0  0  0  0  0  0  0  0  0  0  0
    7.3180    0.4330   -0.2620 C   0  0  1  0  0  0  0  0  0  0  0  0
    7.1500    0.6550   -1.7670 C   0  0  0  0  0  0  0  0  0  0  0  0
    5.5280   -0.0260   -2.2070 S   0  0  0  0  0  0  0  0  0  0  0  0
    5.2230   -1.4710   -1.1560 C   0  0  2  0  0  0  0  0  0  0  0  0
    4.7710   -2.6050   -2.0540 C   0  0  0  0  0  0  0  0  0  0  0  0
    4.0950   -1.2020   -0.1760 C   0  0  2  0  0  0  0  0  0  0  0  0
    3.9420   -2.3670    0.5780 O   0  0  0  0  0  0  0  0  0  0  0  0
    2.8400   -0.8770   -0.9540 C   0  0  0  0  0  0  0  0  0  0  0  0
    1.7550   -0.6850   -0.1060 O   0  0  0  0  0  0  0  0  0  0  0  0
    0.5920   -0.3860   -0.7940 C   0  0  0  0  0  0  0  0  0  0  0  0
   -0.4880   -0.2060    0.2270 C   0  0  0  0  0  0  0  0  0  0  0  0
   -0.2630   -0.3290    1.4590 O   0  0  0  0  0  0  0  0  0  0  0  0
   -1.8380    0.1200   -0.1880 N   0  0  0  0  0  0  0  0  0  0  0  0
   -2.8240    0.2790    0.8190 C   0  0  2  0  0  0  0  0  0  0  0  0
   -3.9500   -0.7280    0.9230 C   0  0  2  0  0  0  0  0  0  0  0  0
   -3.7510   -1.6480    2.1380 C   0  0  0  0  0  0  0  0  0  0  0  0
   -4.8150   -2.6700    2.3120 C   0  0  0  0  0  0  0  0  0  0  0  0
   -4.4630   -3.4260    3.4730 O   0  0  0  0  0  0  0  0  0  0  0  0
   -4.2130   -1.4410   -0.3170 C   0  0  0  0  0  0  0  0  0  0  0  0
   -3.4990   -1.3300   -1.3220 O   0  0  0  0  0  0  0  0  0  0  0  0
   -5.3030   -2.2910   -0.4120 O   0  0  0  0  0  0  0  0  0  0  0  0
   -5.6290   -3.0170   -1.5730 C   0  0  0  0  0  0  0  0  0  0  0  0
   -4.8640    0.4250    1.2290 C   0  0  2  0  0  0  0  0  0  0  0  0
   -6.1250    0.4840    0.5410 N   0  0  0  0  0  0  0  0  0  0  0  0
   -6.9040   -0.5650    0.7530 O   0  0  0  0  0  0  0  0  0  0  0  0
   -3.8120    1.3640    0.6840 C   0  0  1  0  0  0  0  0  0  0  0  0
   -3.5170    2.5340    1.6160 C   0  0  1  0  0  0  0  0  0  0  0  0
   -3.2960    1.9980    2.8800 O   0  0  0  0  0  0  0  0  0  0  0  0
   -2.2180    3.1480    1.1080 C   0  0  0  0  0  0  0  0  0  0  0  0
   -2.3140    3.4510   -0.3730 C   0  0  0  0  0  0  0  0  0  0  0  0
   -3.6500    3.2990   -0.7380 O   0  0  0  0  0  0  0  0  0  0  0  0
   -4.0480    1.9410   -0.6730 C   0  0  2  0  0  0  0  0  0  0  0  0
   -5.4180    1.9760   -0.9160 O   0  0  0  0  0  0  0  0  0  0  0  0
   -5.7910    1.4420   -2.1220 C   0  0  0  0  0  0  0  0  0  0  0  0
    6.4520   -1.9060   -0.4540 C   0  0  0  0  0  0  0  0  0  0  0  0
    6.6670   -3.1260   -0.2330 O   0  0  0  0  0  0  0  0  0  0  0  0
    7.4420   -0.9830    0.0010 N   0  0  0  0  0  0  0  0  0  0  0  0
  1  2  1  0
  2  3  1  0
  3  4  2  0
  5  3  1  6
  5  6  1  0
  5 41  1  0
  6  7  1  0
  7  8  1  0
  8  9  1  6
  8 10  1  0
  8 39  1  0
 10 11  1  6
 10 12  1  0
 12 13  1  0
 13 14  1  0
 14 15  1  0
 15 16  2  0
 15 17  1  0
 18 17  1  6
 18 19  1  0
 18 30  1  0
 19 20  1  1
 19 23  1  0
 19 27  1  0
 20 21  1  0
 21 22  1  0
 23 24  2  0
 23 25  1  0
 25 26  1  0
 27 28  1  6
 27 30  1  0
 28 29  1  0
 30 31  1  1
 30 36  1  0
 31 32  1  1
 31 33  1  0
 33 34  1  0
 34 35  1  0
 35 36  1  0
 36 37  1  1
 37 38  1  0
 39 40  2  0
 39 41  1  0
M  END
