
     RDKit          3D

 27 28  0  0  0  0  0  0  0  0999 V2000
    2.6850   -2.5240   -1.8800 C   0  0  0  0  0  0  0  0  0  0  0  0
    2.9650   -1.4000   -1.2370 C   0  0  0  0  0  0  0  0  0  0  0  0
    2.2820   -1.1820    0.0490 C   0  0  0  0  0  0  0  0  0  0  0  0
    1.8230   -0.0550    0.5760 C   0  0  0  0  0  0  0  0  0  0  0  0
    1.2190   -0.3940    1.8880 C   0  0  0  0  0  0  0  0  0  0  0  0
    0.6250   -1.7070    1.9100 N   0  0  0  0  0  0  0  0  0  0  0  0
    0.6660   -2.4900    3.1850 C   0  0  0  0  0  0  0  0  0  0  0  0
   -0.0130   -2.3860    0.8420 C   0  0  0  0  0  0  0  0  0  0  0  0
    0.0040   -3.6900    0.8980 O   0  0  0  0  0  0  0  0  0  0  0  0
   -0.6530   -1.7810   -0.2560 N   0  0  0  0  0  0  0  0  0  0  0  0
   -1.8460   -0.9420   -0.1950 C   0  0  1  0  0  0  0  0  0  0  0  0
   -1.7980   -0.0420   -1.3990 C   0  0  0  0  0  0  0  0  0  0  0  0
   -3.0980   -1.7520   -0.3070 C   0  0  0  0  0  0  0  0  0  0  0  0
   -4.5380   -0.6900   -0.2300 S   0  0  0  0  0  0  0  0  0  0  0  0
   -4.7980    0.3350   -1.6630 C   0  0  0  0  0  0  0  0  0  0  0  0
   -1.8710   -0.2290    1.1030 C   0  0  0  0  0  0  0  0  0  0  0  0
   -1.9480   -1.0130    2.1260 O   0  0  0  0  0  0  0  0  0  0  0  0
   -1.8260    1.1490    1.3730 N   0  0  0  0  0  0  0  0  0  0  0  0
   -1.4160    2.2560    0.6160 C   0  0  0  0  0  0  0  0  0  0  0  0
   -2.5950    3.1090    0.2660 N   0  0  0  0  0  0  0  0  0  0  0  0
   -0.2980    2.7520    0.1750 C   0  0  0  0  0  0  0  0  0  0  0  0
    1.1180    2.4560    0.2100 C   0  0  0  0  0  0  0  0  0  0  0  0
    1.8910    3.5640    0.4730 C   0  0  0  0  0  0  0  0  0  0  0  0
    1.9540    1.2860    0.0030 C   0  0  0  0  0  0  0  0  0  0  0  0
    3.0080    1.5750   -0.8240 C   0  0  0  0  0  0  0  0  0  0  0  0
    4.1670    0.8510   -1.3540 C   0  0  0  0  0  0  0  0  0  0  0  0
    3.8850   -0.4770   -1.8020 N   0  0  0  0  0  0  0  0  0  0  0  0
  1  2  2  0
  2  3  1  0
  2 27  1  0
  3  4  2  0
  4  5  1  0
  4 24  1  0
  5  6  1  0
  6  7  1  0
  6  8  1  0
  8  9  2  0
  8 10  1  0
 10 11  1  0
 11 12  1  6
 11 13  1  0
 11 16  1  0
 13 14  1  0
 14 15  1  0
 16 17  2  0
 16 18  1  0
 18 19  1  0
 19 20  1  0
 19 21  2  0
 21 22  1  0
 22 23  2  0
 22 24  1  0
 24 25  2  0
 25 26  1  0
 26 27  1  0
M  END
