
     RDKit          3D

 27 29  0  0  0  0  0  0  0  0999 V2000
    1.5440   -4.7480   -0.3410 C   0  0  0  0  0  0  0  0  0  0  0  0
    1.5300   -3.2650   -0.0750 C   0  0  0  0  0  0  0  0  0  0  0  0
    2.6460   -2.5690   -0.4870 C   0  0  0  0  0  0  0  0  0  0  0  0
    2.6440   -1.2250   -0.2320 C   0  0  0  0  0  0  0  0  0  0  0  0
    3.8780   -0.4580   -0.6410 C   0  0  0  0  0  0  0  0  0  0  0  0
    1.5730   -0.5820    0.4160 C   0  0  0  0  0  0  0  0  0  0  0  0
    0.4780   -1.3040    0.8370 C   0  0  0  0  0  0  0  0  0  0  0  0
    0.4480   -2.6400    0.5780 C   0  0  0  0  0  0  0  0  0  0  0  0
   -0.7170   -3.5780    0.6480 C   0  0  0  0  0  0  0  0  0  0  0  0
   -0.5920   -4.7650    1.0270 O   0  0  0  0  0  0  0  0  0  0  0  0
   -2.0820   -3.1970    0.2820 N   0  0  0  0  0  0  0  0  0  0  0  0
   -2.4000   -1.7750    0.2820 C   0  0  0  0  0  0  0  0  0  0  0  0
   -3.6770   -1.3360   -0.3610 C   0  0  0  0  0  0  0  0  0  0  0  0
   -3.5120    0.1200   -0.8020 C   0  0  0  0  0  0  0  0  0  0  0  0
   -2.8000    0.9550    0.1100 N   0  0  0  0  0  0  0  0  0  0  0  0
   -2.7710    2.3590    0.2380 C   0  0  0  0  0  0  0  0  0  0  0  0
   -3.0190    2.8360    1.4230 O   0  0  0  0  0  0  0  0  0  0  0  0
   -2.4900    3.3610   -0.8080 C   0  0  0  0  0  0  0  0  0  0  0  0
   -1.7170    4.5220   -0.2040 C   0  0  0  0  0  0  0  0  0  0  0  0
   -0.0030    4.5460   -0.6610 S   0  0  0  0  0  0  0  0  0  0  0  0
    1.0050    3.1210   -0.1670 C   0  0  0  0  0  0  0  0  0  0  0  0
    0.7140    1.7990   -0.2520 C   0  0  0  0  0  0  0  0  0  0  0  0
    1.6710    0.9280    0.2890 C   0  0  0  0  0  0  0  0  0  0  0  0
    2.7980    1.4390    0.8340 N   0  0  0  0  0  0  0  0  0  0  0  0
    3.0920    2.7450    0.9140 C   0  0  0  0  0  0  0  0  0  0  0  0
    4.2900    3.2100    1.4960 N   0  0  0  0  0  0  0  0  0  0  0  0
    2.1590    3.5660    0.3980 N   0  0  0  0  0  0  0  0  0  0  0  0
  1  2  1  0
  2  3  2  0
  2  8  1  0
  3  4  1  0
  4  5  1  0
  4  6  2  0
  6  7  1  0
  6 23  1  0
  7  8  2  0
  8  9  1  0
  9 10  2  0
  9 11  1  0
 11 12  1  0
 12 13  1  0
 13 14  1  0
 14 15  1  0
 15 16  1  0
 16 17  2  0
 16 18  1  0
 18 19  1  0
 19 20  1  0
 20 21  1  0
 21 22  1  0
 21 27  2  0
 22 23  2  0
 23 24  1  0
 24 25  2  0
 25 26  1  0
 25 27  1  0
M  END
