
     RDKit          3D

 27 28  0  0  0  0  0  0  0  0999 V2000
    5.9280    0.8580   -1.4260 C   0  0  0  0  0  0  0  0  0  0  0  0
    5.0530   -0.3000   -1.1140 C   0  0  0  0  0  0  0  0  0  0  0  0
    3.9450   -0.1280   -0.4060 C   0  0  0  0  0  0  0  0  0  0  0  0
    3.1270   -1.2640   -0.1250 C   0  0  0  0  0  0  0  0  0  0  0  0
    1.9510   -1.2560    0.5950 C   0  0  0  0  0  0  0  0  0  0  0  0
    1.6490    0.0970    1.0400 C   0  0  0  0  0  0  0  0  0  0  0  0
    0.5750    0.8450    0.9870 C   0  0  0  0  0  0  0  0  0  0  0  0
    0.5360    2.2230    1.5370 C   0  0  0  0  0  0  0  0  0  0  0  0
   -0.5480    2.8400    1.4340 O   0  0  0  0  0  0  0  0  0  0  0  0
    1.5980    2.8840    2.1560 N   0  0  0  0  0  0  0  0  0  0  0  0
    1.3790    4.5280    2.7560 S   0  0  0  0  0  0  0  0  0  0  0  0
   -0.6850    0.3990    0.3360 C   0  0  0  0  0  0  0  0  0  0  0  0
   -0.7350    0.7260   -1.1440 C   0  0  1  0  0  0  0  0  0  0  0  0
   -1.0560    2.1810   -1.4210 C   0  0  0  0  0  0  0  0  0  0  0  0
    0.5680    0.3360   -1.8110 C   0  0  0  0  0  0  0  0  0  0  0  0
   -1.8080   -0.1790   -1.7090 C   0  0  0  0  0  0  0  0  0  0  0  0
   -2.7790   -0.5350   -0.6110 C   0  0  0  0  0  0  0  0  0  0  0  0
   -3.6410    0.3040   -0.0140 N   0  0  0  0  0  0  0  0  0  0  0  0
   -4.3670   -0.3500    0.9030 C   0  0  0  0  0  0  0  0  0  0  0  0
   -5.4430    0.1700    1.8090 C   0  0  0  0  0  0  0  0  0  0  0  0
   -3.9480   -1.6480    0.8850 C   0  0  0  0  0  0  0  0  0  0  0  0
   -2.9320   -1.7830   -0.0780 C   0  0  0  0  0  0  0  0  0  0  0  0
   -2.2220   -2.9650   -0.4380 N   0  0  0  0  0  0  0  0  0  0  0  0
   -0.8710   -3.3900   -0.3180 C   0  0  0  0  0  0  0  0  0  0  0  0
   -0.6140   -4.1470   -1.3890 O   0  0  0  0  0  0  0  0  0  0  0  0
    0.1740   -3.2290    0.5780 N   0  0  0  0  0  0  0  0  0  0  0  0
    1.3190   -2.4970    0.8210 N   0  0  0  0  0  0  0  0  0  0  0  0
  1  2  1  0
  2  3  2  3
  3  4  1  0
  4  5  2  3
  5  6  1  0
  5 27  1  0
  6  7  2  0
  7  8  1  0
  7 12  1  0
  8  9  2  0
  8 10  1  0
 10 11  1  0
 12 13  1  0
 13 14  1  1
 13 15  1  0
 13 16  1  0
 16 17  1  0
 17 18  1  0
 17 22  2  0
 18 19  1  0
 19 20  1  0
 19 21  2  0
 21 22  1  0
 22 23  1  0
 23 24  1  0
 24 25  2  0
 24 26  1  0
 26 27  1  0
M  END
