
     RDKit          3D

 27 29  0  0  0  0  0  0  0  0999 V2000
   -3.6340   -2.7200   -0.0880 C   0  0  0  0  0  0  0  0  0  0  0  0
   -4.1810   -1.3510   -0.2770 C   0  0  0  0  0  0  0  0  0  0  0  0
   -5.3860   -1.1160   -1.0030 C   0  0  0  0  0  0  0  0  0  0  0  0
   -5.5520    0.2340   -1.0170 C   0  0  0  0  0  0  0  0  0  0  0  0
   -4.5730    0.7860   -0.3780 O   0  0  0  0  0  0  0  0  0  0  0  0
   -3.7250   -0.1290    0.0860 C   0  0  0  0  0  0  0  0  0  0  0  0
   -2.5080    0.1800    0.8680 C   0  0  0  0  0  0  0  0  0  0  0  0
   -1.8280   -0.7250    1.5340 C   0  0  0  0  0  0  0  0  0  0  0  0
   -0.6250   -0.5870    2.3270 C   0  0  0  0  0  0  0  0  0  0  0  0
    0.6570   -0.6830    1.9150 C   0  0  0  0  0  0  0  0  0  0  0  0
    1.0900   -0.9360    0.6650 N   0  0  0  0  0  0  0  0  0  0  0  0
    1.7870   -1.1420   -0.2990 C   0  0  0  0  0  0  0  0  0  0  0  0
    1.2590   -1.3900   -1.6540 N   0  0  0  0  0  0  0  0  0  0  0  0
    3.2970   -1.2000   -0.2960 C   0  0  0  0  0  0  0  0  0  0  0  0
    4.0450   -0.2460    0.2170 C   0  0  0  0  0  0  0  0  0  0  0  0
    5.4650   -0.4180    0.1830 N   0  0  0  0  0  0  0  0  0  0  0  0
    5.6890   -2.0420   -0.6380 S   0  0  0  0  0  0  0  0  0  0  0  0
    4.0090   -2.3170   -0.8410 C   0  0  0  0  0  0  0  0  0  0  0  0
    3.5490   -3.4910   -1.4740 N   0  0  0  0  0  0  0  0  0  0  0  0
    3.5210    1.0350    0.8060 C   0  0  0  0  0  0  0  0  0  0  0  0
    2.6560    1.7620   -0.1980 C   0  0  0  0  0  0  0  0  0  0  0  0
    1.4890    2.3730    0.5420 C   0  0  0  0  0  0  0  0  0  0  0  0
    0.1680    2.1190   -0.1250 C   0  0  2  0  0  0  0  0  0  0  0  0
   -0.0070    3.2810   -1.1250 C   0  0  0  0  0  0  0  0  0  0  0  0
   -0.9250    2.2020    0.9060 C   0  0  0  0  0  0  0  0  0  0  0  0
   -0.6550    2.9430    1.9340 O   0  0  0  0  0  0  0  0  0  0  0  0
   -2.1650    1.5870    0.8730 N   0  0  0  0  0  0  0  0  0  0  0  0
  1  2  1  0
  2  3  1  0
  2  6  2  0
  3  4  2  0
  4  5  1  0
  5  6  1  0
  6  7  1  0
  7  8  2  0
  7 27  1  0
  8  9  1  0
  9 10  2  0
 10 11  1  0
 11 12  2  0
 12 13  1  0
 12 14  1  0
 14 15  1  0
 14 18  2  0
 15 16  2  0
 15 20  1  0
 16 17  1  0
 17 18  1  0
 18 19  1  0
 20 21  1  0
 21 22  1  0
 22 23  1  0
 23 24  1  6
 23 25  1  0
 25 26  2  0
 25 27  1  0
M  END
