
     RDKit          3D

 27 29  0  0  0  0  0  0  0  0999 V2000
    2.6460   -3.0090   -1.2410 C   0  0  0  0  0  0  0  0  0  0  0  0
    2.0230   -2.3330   -0.3470 C   0  0  0  0  0  0  0  0  0  0  0  0
    1.9850   -0.8930   -0.2780 C   0  0  0  0  0  0  0  0  0  0  0  0
    2.6590   -0.2880   -1.3490 N   0  0  0  0  0  0  0  0  0  0  0  0
    1.3190   -0.1550    0.6690 C   0  0  0  0  0  0  0  0  0  0  0  0
    0.6060   -0.9210    1.6400 N   0  0  0  0  0  0  0  0  0  0  0  0
   -0.7170   -1.1450    2.0750 C   0  0  0  0  0  0  0  0  0  0  0  0
   -1.1450   -0.5540    3.1540 O   0  0  0  0  0  0  0  0  0  0  0  0
   -1.7480   -1.9570    1.5180 N   0  0  0  0  0  0  0  0  0  0  0  0
   -1.7320   -2.9160    0.4430 C   0  0  0  0  0  0  0  0  0  0  0  0
   -2.8170   -2.6280   -0.5810 C   0  0  0  0  0  0  0  0  0  0  0  0
   -3.5270   -3.5520   -1.0640 O   0  0  0  0  0  0  0  0  0  0  0  0
   -3.0690   -1.3420   -1.0240 N   0  0  0  0  0  0  0  0  0  0  0  0
   -4.1050   -0.5090   -1.5270 C   0  0  0  0  0  0  0  0  0  0  0  0
   -3.7210    0.9330   -1.0590 C   0  0  0  0  0  0  0  0  0  0  0  0
   -2.6210    0.5300   -0.0270 C   0  0  1  0  0  0  0  0  0  0  0  0
   -1.9210   -0.3910   -0.9490 C   0  0  0  0  0  0  0  0  0  0  0  0
   -1.9090    1.6520    0.5720 C   0  0  0  0  0  0  0  0  0  0  0  0
   -2.8510    2.0810    1.9390 S   0  0  0  0  0  0  0  0  0  0  0  0
   -0.7800    2.3870    0.2600 N   0  0  0  0  0  0  0  0  0  0  0  0
    0.6340    2.3680    0.3620 C   0  0  0  0  0  0  0  0  0  0  0  0
    1.2090    3.6850    0.2450 C   0  0  0  0  0  0  0  0  0  0  0  0
    2.5340    3.9600    0.2920 C   0  0  0  0  0  0  0  0  0  0  0  0
    3.3910    2.9290    0.4620 C   0  0  0  0  0  0  0  0  0  0  0  0
    2.8930    1.6650    0.5780 C   0  0  0  0  0  0  0  0  0  0  0  0
    3.9780    0.6190    0.8170 C   0  0  0  0  0  0  0  0  0  0  0  0
    1.5190    1.3090    0.5360 C   0  0  0  0  0  0  0  0  0  0  0  0
  1  2  2  0
  2  3  1  0
  3  4  1  0
  3  5  2  3
  5  6  1  0
  5 27  1  0
  6  7  1  0
  7  8  2  0
  7  9  1  0
  9 10  1  0
 10 11  1  0
 11 12  2  0
 11 13  1  0
 13 14  1  0
 13 17  1  0
 14 15  1  0
 16 15  1  6
 16 17  1  0
 16 18  1  0
 18 19  2  0
 18 20  1  0
 20 21  1  0
 21 22  2  0
 21 27  1  0
 22 23  1  0
 23 24  2  0
 24 25  1  0
 25 26  1  0
 25 27  2  0
M  END
