
     RDKit          3D

 33 36  0  0  0  0  0  0  0  0999 V2000
   -4.9720   -2.9020    3.2530 C   0  0  0  0  0  0  0  0  0  0  0  0
   -3.6690   -2.3570    2.6970 C   0  0  0  0  0  0  0  0  0  0  0  0
   -3.9110   -1.2460    1.7110 C   0  0  0  0  0  0  0  0  0  0  0  0
   -5.1090   -0.8800    1.6210 O   0  0  0  0  0  0  0  0  0  0  0  0
   -2.9250   -0.6380    0.9300 N   0  0  0  0  0  0  0  0  0  0  0  0
   -3.1640    0.3890    0.0170 C   0  0  0  0  0  0  0  0  0  0  0  0
   -4.2750    1.2170    0.0310 C   0  0  0  0  0  0  0  0  0  0  0  0
   -4.4740    2.2550   -0.8650 C   0  0  0  0  0  0  0  0  0  0  0  0
   -5.4960    3.1730   -1.0020 C   0  0  0  0  0  0  0  0  0  0  0  0
   -6.7110    3.2610   -0.1300 C   0  0  0  0  0  0  0  0  0  0  0  0
   -5.1230    3.9540   -2.0750 C   0  0  0  0  0  0  0  0  0  0  0  0
   -3.9620    3.5420   -2.5530 N   0  0  0  0  0  0  0  0  0  0  0  0
   -3.5390    2.5030   -1.8310 C   0  0  0  0  0  0  0  0  0  0  0  0
   -2.4110    1.6900   -1.8730 C   0  0  0  0  0  0  0  0  0  0  0  0
   -2.2190    0.6600   -0.9790 C   0  0  0  0  0  0  0  0  0  0  0  0
   -0.9950   -0.1630   -1.0590 C   0  0  0  0  0  0  0  0  0  0  0  0
   -1.1930   -1.5460   -1.5950 C   0  0  0  0  0  0  0  0  0  0  0  0
    0.0960   -2.2310   -1.6560 N   0  0  0  0  0  0  0  0  0  0  0  0
    0.8800   -2.4090   -0.5180 C   0  0  0  0  0  0  0  0  0  0  0  0
    0.5130   -1.9880    0.6020 O   0  0  0  0  0  0  0  0  0  0  0  0
    2.2190   -3.1010   -0.4830 C   0  0  0  0  0  0  0  0  0  0  0  0
    3.3090   -2.1270   -0.4100 C   0  0  0  0  0  0  0  0  0  0  0  0
    4.1410   -1.4620    1.0560 S   0  0  0  0  0  0  0  0  0  0  0  0
    5.2170   -0.3470    0.1820 C   0  0  0  0  0  0  0  0  0  0  0  0
    6.1750    0.5400    0.7950 C   0  0  0  0  0  0  0  0  0  0  0  0
    6.2770    0.6340    2.1610 C   0  0  0  0  0  0  0  0  0  0  0  0
    7.1790    1.4530    2.7890 C   0  0  0  0  0  0  0  0  0  0  0  0
    8.0300    2.2270    1.9960 C   0  0  0  0  0  0  0  0  0  0  0  0
    7.9390    2.1440    0.6010 C   0  0  0  0  0  0  0  0  0  0  0  0
    7.0190    1.3070    0.0350 C   0  0  0  0  0  0  0  0  0  0  0  0
    4.8890   -0.5460   -1.0920 C   0  0  0  0  0  0  0  0  0  0  0  0
    3.9530   -1.4130   -1.4690 C   0  0  0  0  0  0  0  0  0  0  0  0
    3.5250   -1.7140   -2.9130 C   0  0  0  0  0  0  0  0  0  0  0  0
  1  2  1  0
  2  3  1  0
  3  4  2  0
  3  5  1  0
  5  6  1  0
  6  7  2  0
  6 15  1  0
  7  8  1  0
  8  9  1  0
  8 13  2  0
  9 10  1  0
  9 11  2  0
 11 12  1  0
 12 13  1  0
 13 14  1  0
 14 15  2  0
 15 16  1  0
 16 17  1  0
 17 18  1  0
 18 19  1  0
 19 20  2  0
 19 21  1  0
 21 22  1  0
 22 23  1  0
 22 32  2  0
 23 24  1  0
 24 25  1  0
 24 31  2  0
 25 26  2  0
 25 30  1  0
 26 27  1  0
 27 28  2  0
 28 29  1  0
 29 30  2  0
 31 32  1  0
 32 33  1  0
M  END
