
     RDKit          3D

 32 34  0  0  0  0  0  0  0  0999 V2000
   -0.9500    1.1410   -3.0260 O   0  0  0  0  0  0  0  0  0  0  0  0
   -0.1330    1.4880   -2.1620 C   0  0  0  0  0  0  0  0  0  0  0  0
   -0.4700    1.4550   -0.8020 N   0  0  0  0  0  0  0  0  0  0  0  0
   -1.6550    1.0710   -0.1360 C   0  0  0  0  0  0  0  0  0  0  0  0
   -2.7640    0.6390   -0.6170 C   0  0  0  0  0  0  0  0  0  0  0  0
   -2.7810    0.5600   -2.0370 F   0  0  0  0  0  0  0  0  0  0  0  0
   -3.9530    0.0550   -0.0360 C   0  0  0  0  0  0  0  0  0  0  0  0
   -4.9820   -0.2260   -0.8480 C   0  0  0  0  0  0  0  0  0  0  0  0
   -6.1620   -0.7940   -0.3310 N   0  0  0  0  0  0  0  0  0  0  0  0
   -6.2550   -1.2650    0.9610 N   0  0  1  0  0  0  0  0  0  0  0  0
   -7.3570   -0.6790    1.5070 O   0  0  0  0  0  0  0  0  0  0  0  0
   -6.4020   -2.6210    0.9440 O   0  0  0  0  0  0  0  0  0  0  0  0
   -5.1710   -0.9620    1.7760 C   0  0  0  0  0  0  0  0  0  0  0  0
   -4.0840   -0.3450    1.3250 C   0  0  0  0  0  0  0  0  0  0  0  0
   -1.5740    1.3640    1.3590 C   0  0  2  0  0  0  0  0  0  0  0  0
   -0.9030    2.6170    1.4870 F   0  0  0  0  0  0  0  0  0  0  0  0
   -0.8910    0.4380    2.0530 F   0  0  0  0  0  0  0  0  0  0  0  0
    1.2540    1.9580   -2.5940 C   0  0  2  0  0  0  0  0  0  0  0  0
    1.2790    1.8720   -3.9810 O   0  0  0  0  0  0  0  0  0  0  0  0
    2.3020    1.1700   -1.9330 C   0  0  0  0  0  0  0  0  0  0  0  0
    2.5680   -0.1240   -2.3260 C   0  0  0  0  0  0  0  0  0  0  0  0
    3.5640   -0.8810   -1.7020 C   0  0  0  0  0  0  0  0  0  0  0  0
    4.3120   -0.3500   -0.6700 C   0  0  0  0  0  0  0  0  0  0  0  0
    5.3100   -1.0580   -0.0190 O   0  0  0  0  0  0  0  0  0  0  0  0
    5.2840   -1.3350    1.3270 C   0  0  0  0  0  0  0  0  0  0  0  0
    6.2750   -2.0150    2.0070 C   0  0  0  0  0  0  0  0  0  0  0  0
    5.8970   -2.0980    3.3260 C   0  0  0  0  0  0  0  0  0  0  0  0
    4.7460   -1.5030    3.4390 O   0  0  0  0  0  0  0  0  0  0  0  0
    4.3410   -1.0320    2.2650 C   0  0  0  0  0  0  0  0  0  0  0  0
    4.0150    0.9520   -0.3040 C   0  0  0  0  0  0  0  0  0  0  0  0
    4.6690    1.4860    0.6340 O   0  0  0  0  0  0  0  0  0  0  0  0
    3.0510    1.6640   -0.9180 N   0  0  0  0  0  0  0  0  0  0  0  0
  1  2  2  0
  2  3  1  0
  2 18  1  0
  3  4  1  0
  4  5  2  3
  4 15  1  0
  5  6  1  0
  5  7  1  0
  7  8  2  0
  7 14  1  0
  8  9  1  0
  9 10  1  0
 10 11  1  1
 10 12  1  0
 10 13  1  0
 13 14  2  0
 15 16  1  6
 15 17  1  0
 18 19  1  6
 18 20  1  0
 20 21  2  0
 20 32  1  0
 21 22  1  0
 22 23  2  0
 23 24  1  0
 23 30  1  0
 24 25  1  0
 25 26  1  0
 25 29  2  0
 26 27  2  0
 27 28  1  0
 28 29  1  0
 30 31  2  0
 30 32  1  0
M  CHG  2  10   1  11  -1
M  END
