
     RDKit          3D

 23 25  0  0  0  0  0  0  0  0999 V2000
    7.9390   -0.7010   -0.4370 C   0  0  0  0  0  0  0  0  0  0  0  0
    6.8960    0.3920   -0.2850 C   0  0  0  0  0  0  0  0  0  0  0  0
    7.2710    1.5910   -0.3030 N   0  0  0  0  0  0  0  0  0  0  0  0
    5.4990   -0.0010   -0.1260 C   0  0  0  0  0  0  0  0  0  0  0  0
    4.5380    1.0440    0.0160 N   0  0  0  0  0  0  0  0  0  0  0  0
    3.1710    0.6700    0.1710 C   0  0  0  0  0  0  0  0  0  0  0  0
    2.1790    1.6290    0.3150 C   0  0  0  0  0  0  0  0  0  0  0  0
    0.8350    1.2880    0.4690 C   0  0  0  0  0  0  0  0  0  0  0  0
    0.4870   -0.0360    0.4760 C   0  0  0  0  0  0  0  0  0  0  0  0
   -0.8800   -0.3780    0.6320 N   0  0  0  0  0  0  0  0  0  0  0  0
   -1.3480   -1.3690    1.3730 C   0  0  0  0  0  0  0  0  0  0  0  0
   -2.7470   -1.2950    1.1990 C   0  0  0  0  0  0  0  0  0  0  0  0
   -3.0550   -0.2650    0.3630 C   0  0  0  0  0  0  0  0  0  0  0  0
   -4.2920    0.2280   -0.1260 N   0  0  0  0  0  0  0  0  0  0  0  0
   -5.5660   -0.2690    0.1600 C   0  0  0  0  0  0  0  0  0  0  0  0
   -6.0920   -1.2770    0.9090 C   0  0  0  0  0  0  0  0  0  0  0  0
   -7.4560   -1.3060    0.8190 N   0  0  0  0  0  0  0  0  0  0  0  0
   -7.7850   -0.3240    0.0200 N   0  0  0  0  0  0  0  0  0  0  0  0
   -6.7190    0.3340   -0.4100 C   0  0  0  0  0  0  0  0  0  0  0  0
   -6.7790    1.4900   -1.3240 C   0  0  0  0  0  0  0  0  0  0  0  0
   -1.8400    0.2790    0.0360 N   0  0  0  0  0  0  0  0  0  0  0  0
    1.4320   -1.0160    0.3370 C   0  0  0  0  0  0  0  0  0  0  0  0
    2.7590   -0.6470    0.1860 C   0  0  0  0  0  0  0  0  0  0  0  0
  1  2  1  0
  2  3  2  0
  2  4  1  0
  4  5  1  0
  5  6  1  0
  6  7  2  0
  6 23  1  0
  7  8  1  0
  8  9  2  0
  9 10  1  0
  9 22  1  0
 10 11  1  0
 10 21  1  0
 11 12  2  0
 12 13  1  0
 13 14  1  0
 13 21  2  0
 14 15  1  0
 15 16  2  0
 15 19  1  0
 16 17  1  0
 17 18  1  0
 18 19  2  0
 19 20  1  0
 22 23  2  0
M  END
