
     RDKit          3D

 23 25  0  0  0  0  0  0  0  0999 V2000
    4.4650    1.4100   -1.7970 C   0  0  0  0  0  0  0  0  0  0  0  0
    4.3370    1.5410   -0.3040 C   0  0  2  0  0  0  0  0  0  0  0  0
    5.7100    1.2790    0.3290 C   0  0  0  0  0  0  0  0  0  0  0  0
    3.3850    0.5630    0.2960 C   0  0  2  0  0  0  0  0  0  0  0  0
    3.7880   -0.8760    0.0440 C   0  0  0  0  0  0  0  0  0  0  0  0
    2.0140    0.8090   -0.1060 N   0  0  0  0  0  0  0  0  0  0  0  0
    0.9930   -0.0650    0.4020 C   0  0  0  0  0  0  0  0  0  0  0  0
   -0.3000    0.1030    0.0720 N   0  0  0  0  0  0  0  0  0  0  0  0
   -1.2730   -0.7010    0.5350 C   0  0  0  0  0  0  0  0  0  0  0  0
   -2.6410   -0.5300    0.1910 N   0  0  0  0  0  0  0  0  0  0  0  0
   -3.0070    0.5640   -0.7020 C   0  0  0  0  0  0  0  0  0  0  0  0
   -4.4480    0.6080   -0.9610 C   0  0  0  0  0  0  0  0  0  0  0  0
   -5.3270    1.3330   -0.1750 C   0  0  0  0  0  0  0  0  0  0  0  0
   -6.6700    1.3450   -0.4570 C   0  0  0  0  0  0  0  0  0  0  0  0
   -7.1740    0.6560   -1.5000 N   0  0  0  0  0  0  0  0  0  0  0  0
   -6.3650   -0.0590   -2.2900 C   0  0  0  0  0  0  0  0  0  0  0  0
   -5.0310   -0.0830   -2.0260 C   0  0  0  0  0  0  0  0  0  0  0  0
   -0.9460   -1.7450    1.3850 C   0  0  0  0  0  0  0  0  0  0  0  0
   -1.7160   -2.7190    2.0090 C   0  0  0  0  0  0  0  0  0  0  0  0
   -0.8370   -3.4590    2.7110 N   0  0  0  0  0  0  0  0  0  0  0  0
    0.3920   -2.9930    2.5470 N   0  0  0  0  0  0  0  0  0  0  0  0
    0.3780   -1.9250    1.7280 C   0  0  0  0  0  0  0  0  0  0  0  0
    1.2980   -1.0810    1.2270 N   0  0  0  0  0  0  0  0  0  0  0  0
  2  1  1  6
  2  3  1  0
  2  4  1  0
  4  5  1  6
  4  6  1  0
  6  7  1  0
  7  8  2  0
  7 23  1  0
  8  9  1  0
  9 10  1  0
  9 18  2  0
 10 11  1  0
 11 12  1  0
 12 13  2  0
 12 17  1  0
 13 14  1  0
 14 15  2  0
 15 16  1  0
 16 17  2  0
 18 19  1  0
 18 22  1  0
 19 20  2  0
 20 21  1  0
 21 22  1  0
 22 23  2  0
M  END
