
     RDKit          3D

 11 10  0  0  0  0  0  0  0  0999 V2000
   -0.8300   -0.1160   -1.6710 O   0  0  0  0  0  0  0  0  0  0  0  0
   -0.8030    0.3320   -0.3440 C   0  0  0  0  0  0  0  0  0  0  0  0
   -1.9780    1.0510    0.1450 C   0  0  0  0  0  0  0  0  0  0  0  0
   -1.8730    1.5860    1.8270 Cl  0  0  0  0  0  0  0  0  0  0  0  0
    0.2730    0.0840    0.3880 C   0  0  0  0  0  0  0  0  0  0  0  0
    0.3610    0.6190    2.0480 Cl  0  0  0  0  0  0  0  0  0  0  0  0
    1.3610   -0.6420   -0.2370 C   0  0  0  0  0  0  0  0  0  0  0  0
    1.2440   -1.1700   -1.9180 Cl  0  0  0  0  0  0  0  0  0  0  0  0
    2.4460   -0.9150    0.4370 C   0  0  0  0  0  0  0  0  0  0  0  0
    3.7530   -1.7990   -0.3510 Cl  0  0  0  0  0  0  0  0  0  0  0  0
    2.5740   -0.3990    2.0970 Cl  0  0  0  0  0  0  0  0  0  0  0  0
  1  2  1  0
  2  3  1  0
  2  5  2  3
  3  4  1  0
  5  6  1  0
  5  7  1  0
  7  8  1  0
  7  9  2  3
  9 10  1  0
  9 11  1  0
M  END
