
     RDKit          3D

 23 25  0  0  0  0  0  0  0  0999 V2000
   -3.4690    2.8350    0.5600 C   0  0  0  0  0  0  0  0  0  0  0  0
   -3.8990    1.6690    0.1670 C   0  0  0  0  0  0  0  0  0  0  0  0
   -4.5420    1.4380   -1.1170 C   0  0  0  0  0  0  0  0  0  0  0  0
   -4.7160    2.4070   -1.9380 N   0  0  0  0  0  0  0  0  0  0  0  0
   -3.7170    0.4950    1.1000 C   0  0  0  0  0  0  0  0  0  0  0  0
   -2.9010   -0.4560    0.3800 N   0  0  0  0  0  0  0  0  0  0  0  0
   -2.6090   -1.6460    1.0930 C   0  0  0  0  0  0  0  0  0  0  0  0
   -2.6140   -2.8900    0.2610 C   0  0  0  0  0  0  0  0  0  0  0  0
   -1.3910   -3.0910   -0.5680 C   0  0  0  0  0  0  0  0  0  0  0  0
   -0.3850   -2.0330   -0.4660 C   0  0  0  0  0  0  0  0  0  0  0  0
    0.9000   -2.5370   -0.4870 C   0  0  0  0  0  0  0  0  0  0  0  0
    1.9100   -1.6860   -0.4030 N   0  0  0  0  0  0  0  0  0  0  0  0
    1.7750   -0.3470   -0.2960 C   0  0  0  0  0  0  0  0  0  0  0  0
    2.8990    0.5070   -0.2100 N   0  0  0  0  0  0  0  0  0  0  0  0
    4.2100   -0.0750   -0.2380 C   0  0  0  0  0  0  0  0  0  0  0  0
    5.2930    0.9180   -0.1410 C   0  0  0  0  0  0  0  0  0  0  0  0
    5.8100    1.3130    1.0900 C   0  0  0  0  0  0  0  0  0  0  0  0
    6.7980    2.2400    0.8510 C   0  0  0  0  0  0  0  0  0  0  0  0
    6.8560    2.3820   -0.4810 N   0  0  0  0  0  0  0  0  0  0  0  0
    5.9580    1.5930   -1.0650 N   0  0  0  0  0  0  0  0  0  0  0  0
    0.5040    0.1120   -0.2780 N   0  0  0  0  0  0  0  0  0  0  0  0
   -0.5860   -0.6730   -0.3580 C   0  0  0  0  0  0  0  0  0  0  0  0
   -1.8050    0.1430   -0.3100 C   0  0  0  0  0  0  0  0  0  0  0  0
  1  2  2  0
  2  3  1  0
  2  5  1  0
  3  4  2  0
  5  6  1  0
  6  7  1  0
  6 23  1  0
  7  8  1  0
  8  9  1  0
  9 10  1  0
 10 11  2  0
 10 22  1  0
 11 12  1  0
 12 13  2  0
 13 14  1  0
 13 21  1  0
 14 15  1  0
 15 16  1  0
 16 17  2  0
 16 20  1  0
 17 18  1  0
 18 19  2  0
 19 20  1  0
 21 22  2  0
 22 23  1  0
M  END
