
     RDKit          3D

 11 10  0  0  0  0  0  0  0  0999 V2000
    2.0270   -1.1540   -0.3700 C   0  0  0  0  0  0  0  0  0  0  0  0
    1.2440   -0.0670   -0.8280 O   0  0  0  0  0  0  0  0  0  0  0  0
   -0.0090    0.2040   -0.1910 C   0  0  0  0  0  0  0  0  0  0  0  0
   -0.9460   -0.6730   -0.3660 C   0  0  0  0  0  0  0  0  0  0  0  0
   -2.3160   -0.7790    0.0890 C   0  0  0  0  0  0  0  0  0  0  0  0
   -3.4800   -0.8200   -1.2900 Cl  0  0  0  0  0  0  0  0  0  0  0  0
   -0.1070    1.4220    0.5760 C   0  0  0  0  0  0  0  0  0  0  0  0
   -1.5450    1.9190    1.3990 Cl  0  0  0  0  0  0  0  0  0  0  0  0
    0.9420    2.2560    0.6860 C   0  0  0  0  0  0  0  0  0  0  0  0
    0.8960    3.7390    1.5920 Cl  0  0  0  0  0  0  0  0  0  0  0  0
    2.4140    1.8190   -0.1250 Cl  0  0  0  0  0  0  0  0  0  0  0  0
  1  2  1  0
  2  3  1  0
  3  4  2  3
  3  7  1  0
  4  5  1  0
  5  6  1  0
  7  8  1  0
  7  9  2  3
  9 10  1  0
  9 11  1  0
M  END
