
     RDKit          3D

 23 25  0  0  0  0  0  0  0  0999 V2000
    5.0320    0.7810    0.8760 C   0  0  0  0  0  0  0  0  0  0  0  0
    3.6690    1.1420    1.4500 C   0  0  0  0  0  0  0  0  0  0  0  0
    2.6890    1.4500    0.3440 C   0  0  0  0  0  0  0  0  0  0  0  0
    2.4930    0.3280   -0.5530 N   0  0  0  0  0  0  0  0  0  0  0  0
    3.1670    0.0370   -1.6620 C   0  0  0  0  0  0  0  0  0  0  0  0
    4.2450    0.7600   -2.2340 N   0  0  0  0  0  0  0  0  0  0  0  0
    2.6460   -1.1090   -2.1900 N   0  0  0  0  0  0  0  0  0  0  0  0
    1.6710   -1.4730   -1.3790 N   0  0  0  0  0  0  0  0  0  0  0  0
    1.5460   -0.6070   -0.3530 C   0  0  0  0  0  0  0  0  0  0  0  0
    0.5710   -0.6610    0.7700 C   0  0  2  0  0  0  0  0  0  0  0  0
    0.7690   -1.8850    1.6110 C   0  0  0  0  0  0  0  0  0  0  0  0
   -0.4760   -2.6460    1.9080 C   0  0  0  0  0  0  0  0  0  0  0  0
   -1.3120   -2.9110    0.6740 C   0  0  0  0  0  0  0  0  0  0  0  0
   -1.7250   -1.6260    0.1640 N   0  0  0  0  0  0  0  0  0  0  0  0
   -3.0290   -1.6900   -0.3910 C   0  0  0  0  0  0  0  0  0  0  0  0
   -3.8200   -0.7190   -0.8610 C   0  0  0  0  0  0  0  0  0  0  0  0
   -5.1570   -1.0990   -1.3880 C   0  0  0  0  0  0  0  0  0  0  0  0
   -3.4480    0.6620   -0.8810 N   0  0  0  0  0  0  0  0  0  0  0  0
   -2.3470    1.2430   -0.5450 C   0  0  0  0  0  0  0  0  0  0  0  0
   -2.3830    2.7180   -0.7250 C   0  0  0  0  0  0  0  0  0  0  0  0
   -3.6900    3.2040   -1.2570 C   0  0  0  0  0  0  0  0  0  0  0  0
   -1.1380    0.6940   -0.0420 N   0  0  0  0  0  0  0  0  0  0  0  0
   -0.8320   -0.5360    0.2750 C   0  0  0  0  0  0  0  0  0  0  0  0
  1  2  1  0
  2  3  1  0
  3  4  1  0
  4  5  1  0
  4  9  1  0
  5  6  1  0
  5  7  2  0
  7  8  1  0
  8  9  2  0
 10  9  1  6
 10 11  1  0
 10 23  1  0
 11 12  1  0
 12 13  1  0
 13 14  1  0
 14 15  1  0
 14 23  1  0
 15 16  2  0
 16 17  1  0
 16 18  1  0
 18 19  2  0
 19 20  1  0
 19 22  1  0
 20 21  1  0
 22 23  2  0
M  END
