
     RDKit          3D

 22 24  0  0  0  0  0  0  0  0999 V2000
   -4.6070    1.8630    0.6440 C   0  0  0  0  0  0  0  0  0  0  0  0
   -4.1480    0.7240   -0.0990 N   0  0  0  0  0  0  0  0  0  0  0  0
   -2.8520    0.2250    0.1370 C   0  0  0  0  0  0  0  0  0  0  0  0
   -2.8020   -0.8250    0.9560 C   0  0  0  0  0  0  0  0  0  0  0  0
   -4.1460   -1.1940    1.4080 C   0  0  0  0  0  0  0  0  0  0  0  0
   -1.7430   -1.6940    1.5110 C   0  0  0  0  0  0  0  0  0  0  0  0
   -0.4340   -1.6240    1.6280 C   0  0  0  0  0  0  0  0  0  0  0  0
    0.5450   -0.6230    1.2450 C   0  0  0  0  0  0  0  0  0  0  0  0
    0.5820    0.4350    0.4370 C   0  0  0  0  0  0  0  0  0  0  0  0
    1.8130    1.1280    0.3950 N   0  0  0  0  0  0  0  0  0  0  0  0
    2.9610    0.4600   -0.1350 C   0  0  0  0  0  0  0  0  0  0  0  0
    4.2120    0.9300   -0.2650 N   0  0  0  0  0  0  0  0  0  0  0  0
    5.0210   -0.0020   -0.8110 C   0  0  0  0  0  0  0  0  0  0  0  0
    6.3210   -0.0470   -1.1450 N   0  0  0  0  0  0  0  0  0  0  0  0
    6.8030   -1.1540   -1.6760 N   0  0  0  0  0  0  0  0  0  0  0  0
    6.0660   -2.2420   -1.9030 C   0  0  0  0  0  0  0  0  0  0  0  0
    4.7610   -2.2470   -1.5860 N   0  0  0  0  0  0  0  0  0  0  0  0
    4.2430   -1.1120   -1.0350 C   0  0  0  0  0  0  0  0  0  0  0  0
    3.0010   -0.7920   -0.6120 N   0  0  0  0  0  0  0  0  0  0  0  0
   -0.4480    1.0060   -0.4230 C   0  0  0  0  0  0  0  0  0  0  0  0
    0.1680    1.9130   -1.4250 C   0  0  0  0  0  0  0  0  0  0  0  0
   -1.7730    0.9350   -0.5520 C   0  0  0  0  0  0  0  0  0  0  0  0
  1  2  1  0
  2  3  1  0
  3  4  2  0
  3 22  1  0
  4  5  1  0
  4  6  1  0
  6  7  2  0
  7  8  1  0
  8  9  2  0
  9 10  1  0
  9 20  1  0
 10 11  1  0
 11 12  2  0
 11 19  1  0
 12 13  1  0
 13 14  2  0
 13 18  1  0
 14 15  1  0
 15 16  2  0
 16 17  1  0
 17 18  2  0
 18 19  1  0
 20 21  1  0
 20 22  2  0
M  END
