
     RDKit          3D

 23 25  0  0  0  0  0  0  0  0999 V2000
   -0.2160   -3.3410    1.6510 N   0  0  0  0  0  0  0  0  0  0  0  0
    0.5780   -2.3920    0.9590 C   0  0  0  0  0  0  0  0  0  0  0  0
    1.8900   -2.7000    0.6960 C   0  0  0  0  0  0  0  0  0  0  0  0
    2.6550   -1.7480    0.0150 C   0  0  0  0  0  0  0  0  0  0  0  0
    2.0960   -0.5540   -0.3680 C   0  0  0  0  0  0  0  0  0  0  0  0
    2.8350    0.4450   -1.0220 N   0  0  0  0  0  0  0  0  0  0  0  0
    4.1430    0.8560   -0.6670 C   0  0  0  0  0  0  0  0  0  0  0  0
    4.7990    0.3940    0.4480 C   0  0  0  0  0  0  0  0  0  0  0  0
    6.0490    0.8070    0.6990 N   0  0  0  0  0  0  0  0  0  0  0  0
    6.6830    1.6650   -0.1090 C   0  0  0  0  0  0  0  0  0  0  0  0
    6.0270    2.1400   -1.2390 C   0  0  0  0  0  0  0  0  0  0  0  0
    4.7840    1.7210   -1.4800 N   0  0  0  0  0  0  0  0  0  0  0  0
    0.7450   -0.2630   -0.0870 C   0  0  0  0  0  0  0  0  0  0  0  0
   -0.0090   -1.1810    0.5760 C   0  0  0  0  0  0  0  0  0  0  0  0
   -1.3780   -1.0240    0.8910 N   0  0  0  0  0  0  0  0  0  0  0  0
   -2.1020    0.2000    0.7430 C   0  0  0  0  0  0  0  0  0  0  0  0
   -1.5930    1.3420    1.0670 N   0  0  0  0  0  0  0  0  0  0  0  0
   -2.5300    2.4150    0.8170 C   0  0  0  0  0  0  0  0  0  0  0  0
   -3.8100    1.7310    0.4990 C   0  0  0  0  0  0  0  0  0  0  0  0
   -3.4350    0.3610    0.2690 N   0  0  0  0  0  0  0  0  0  0  0  0
   -4.2670   -0.6460   -0.3170 C   0  0  0  0  0  0  0  0  0  0  0  0
   -4.5740   -0.4400   -1.7700 C   0  0  0  0  0  0  0  0  0  0  0  0
   -5.2390    0.7700   -1.9800 O   0  0  0  0  0  0  0  0  0  0  0  0
  1  2  1  0
  2  3  2  0
  2 14  1  0
  3  4  1  0
  4  5  2  0
  5  6  1  0
  5 13  1  0
  6  7  1  0
  7  8  2  0
  7 12  1  0
  8  9  1  0
  9 10  2  0
 10 11  1  0
 11 12  2  0
 13 14  2  0
 14 15  1  0
 15 16  1  0
 16 17  2  0
 16 20  1  0
 17 18  1  0
 18 19  1  0
 19 20  1  0
 20 21  1  0
 21 22  1  0
 22 23  1  0
M  CHG  1  17   1
M  END
