
     RDKit          3D

 23 26  0  0  0  0  0  0  0  0999 V2000
    1.2900   -2.2100    0.1290 N   0  0  0  0  0  0  0  0  0  0  0  0
    1.0600   -0.9730    0.3830 C   0  0  0  0  0  0  0  0  0  0  0  0
   -0.2950   -0.5030    0.2710 N   0  0  0  0  0  0  0  0  0  0  0  0
   -1.4160   -1.3370    0.4380 C   0  0  0  0  0  0  0  0  0  0  0  0
   -1.4970   -2.6700    0.7290 C   0  0  0  0  0  0  0  0  0  0  0  0
   -2.8080   -3.0500    0.7950 N   0  0  0  0  0  0  0  0  0  0  0  0
   -3.5810   -1.9780    0.5500 C   0  0  0  0  0  0  0  0  0  0  0  0
   -4.9400   -1.7500    0.4830 C   0  0  0  0  0  0  0  0  0  0  0  0
   -5.4550   -0.5370    0.2100 N   0  0  0  0  0  0  0  0  0  0  0  0
   -4.6730    0.4830   -0.0030 N   0  0  0  0  0  0  0  0  0  0  0  0
   -5.1880    1.8260   -0.3040 C   0  0  1  0  0  0  0  0  0  0  0  0
   -5.5370    2.0200   -1.7630 C   0  0  0  0  0  0  0  0  0  0  0  0
   -6.5880    2.0310   -0.6790 C   0  0  0  0  0  0  0  0  0  0  0  0
   -3.3380    0.3030    0.0530 C   0  0  0  0  0  0  0  0  0  0  0  0
   -2.5730    1.2970   -0.1550 O   0  0  0  0  0  0  0  0  0  0  0  0
   -2.7320   -0.9050    0.3260 C   0  0  0  0  0  0  0  0  0  0  0  0
    2.1240   -0.1340    0.7540 N   0  0  0  0  0  0  0  0  0  0  0  0
    3.5170   -0.5230    0.6150 C   0  0  1  0  0  0  0  0  0  0  0  0
    3.7570   -0.7900   -0.8560 C   0  0  0  0  0  0  0  0  0  0  0  0
    4.5150    0.4420   -1.3140 C   0  0  0  0  0  0  0  0  0  0  0  0
    5.4270    0.6720   -0.1270 C   0  0  1  0  0  0  0  0  0  0  0  0
    6.0840    1.9560   -0.1860 N   0  0  0  0  0  0  0  0  0  0  0  0
    4.4500    0.5770    1.0250 C   0  0  0  0  0  0  0  0  0  0  0  0
  1  2  2  0
  2  3  1  0
  2 17  1  0
  3  4  1  0
  4  5  2  0
  4 16  1  0
  5  6  1  0
  6  7  1  0
  7  8  1  0
  7 16  2  0
  8  9  2  0
  9 10  1  0
 11 10  1  6
 10 14  1  0
 11 12  1  0
 11 13  1  0
 12 13  1  0
 14 15  2  0
 14 16  1  0
 18 17  1  6
 18 19  1  0
 18 23  1  0
 19 20  1  0
 20 21  1  0
 21 22  1  6
 21 23  1  0
M  CHG  1  22   1
M  END
