
     RDKit          3D

 23 25  0  0  0  0  0  0  0  0999 V2000
   -4.3890    0.5080    1.7680 C   0  0  0  0  0  0  0  0  0  0  0  0
   -3.1290    0.3960    0.9820 C   0  0  0  0  0  0  0  0  0  0  0  0
   -2.0140   -0.0440    1.5410 N   0  0  0  0  0  0  0  0  0  0  0  0
   -0.8440   -0.1740    0.9070 C   0  0  0  0  0  0  0  0  0  0  0  0
    0.2850   -0.6750    1.6760 C   0  0  0  0  0  0  0  0  0  0  0  0
    0.1090   -0.9900    3.0040 N   0  0  0  0  0  0  0  0  0  0  0  0
    1.2590   -1.4230    3.5010 C   0  0  0  0  0  0  0  0  0  0  0  0
    2.1640   -1.3850    2.4990 C   0  0  0  0  0  0  0  0  0  0  0  0
    1.5430   -0.9140    1.3600 N   0  0  0  0  0  0  0  0  0  0  0  0
    2.2810   -0.7830    0.1730 C   0  0  0  0  0  0  0  0  0  0  0  0
    2.4410   -1.7940   -0.7760 C   0  0  0  0  0  0  0  0  0  0  0  0
    3.2390   -1.6060   -1.8780 C   0  0  0  0  0  0  0  0  0  0  0  0
    3.8870   -0.4230   -2.0590 C   0  0  0  0  0  0  0  0  0  0  0  0
    4.7270   -0.1310   -3.1540 N   0  0  0  0  0  0  0  0  0  0  0  0
    3.7400    0.5670   -1.1450 N   0  0  0  0  0  0  0  0  0  0  0  0
    2.9610    0.3910   -0.0630 C   0  0  0  0  0  0  0  0  0  0  0  0
    2.8160    1.4350    0.8840 N   0  0  0  0  0  0  0  0  0  0  0  0
   -0.8330    0.1780   -0.3980 C   0  0  0  0  0  0  0  0  0  0  0  0
    0.1550    0.1180   -1.1170 O   0  0  0  0  0  0  0  0  0  0  0  0
   -1.9760    0.6480   -1.0410 N   0  0  0  0  0  0  0  0  0  0  0  0
   -1.9110    1.0140   -2.4490 C   0  0  0  0  0  0  0  0  0  0  0  0
   -3.1090    0.7520   -0.3470 C   0  0  0  0  0  0  0  0  0  0  0  0
   -4.3520    1.2510   -1.0010 C   0  0  0  0  0  0  0  0  0  0  0  0
  1  2  1  0
  2  3  1  0
  2 22  2  0
  3  4  2  0
  4  5  1  0
  4 18  1  0
  5  6  2  0
  5  9  1  0
  6  7  1  0
  7  8  2  0
  8  9  1  0
  9 10  1  0
 10 11  2  0
 10 16  1  0
 11 12  1  0
 12 13  2  0
 13 14  1  0
 13 15  1  0
 15 16  2  0
 16 17  1  0
 18 19  2  0
 18 20  1  0
 20 21  1  0
 20 22  1  0
 22 23  1  0
M  CHG  1   6   1
M  END
