
     RDKit          3D

 23 25  0  0  0  0  0  0  0  0999 V2000
   -5.9090   -1.1130   -0.1650 C   0  0  0  0  0  0  0  0  0  0  0  0
   -4.6720   -1.4260   -0.9940 C   0  0  0  0  0  0  0  0  0  0  0  0
   -3.9150   -2.5640   -0.4180 C   0  0  0  0  0  0  0  0  0  0  0  0
   -4.0950   -3.8810   -0.7210 N   0  0  0  0  0  0  0  0  0  0  0  0
   -3.2310   -4.5740   -0.0020 N   0  0  0  0  0  0  0  0  0  0  0  0
   -2.5100   -3.6910    0.7520 C   0  0  0  0  0  0  0  0  0  0  0  0
   -2.9370   -2.4450    0.4910 N   0  0  0  0  0  0  0  0  0  0  0  0
   -2.4560   -1.2380    1.0570 C   0  0  0  0  0  0  0  0  0  0  0  0
   -3.2260   -0.5770    1.9780 C   0  0  0  0  0  0  0  0  0  0  0  0
   -2.7420    0.5740    2.5020 C   0  0  0  0  0  0  0  0  0  0  0  0
   -1.5250    1.1070    2.1600 C   0  0  0  0  0  0  0  0  0  0  0  0
   -1.0830    2.3410    2.7680 N   0  0  0  0  0  0  0  0  0  0  0  0
   -0.7180    0.4510    1.2210 C   0  0  0  0  0  0  0  0  0  0  0  0
    0.5260    1.0370    0.8990 N   0  0  0  0  0  0  0  0  0  0  0  0
    1.4960    0.5670   -0.0050 C   0  0  0  0  0  0  0  0  0  0  0  0
    1.2880   -0.4940   -0.6290 O   0  0  0  0  0  0  0  0  0  0  0  0
    2.7180    1.3120   -0.2010 N   0  0  0  0  0  0  0  0  0  0  0  0
    3.7140    0.8420   -1.1210 C   0  0  1  0  0  0  0  0  0  0  0  0
    4.0540    1.8920   -2.1590 C   0  0  0  0  0  0  0  0  0  0  0  0
    5.4810    1.5600   -2.5400 C   0  0  0  0  0  0  0  0  0  0  0  0
    5.9660    0.6110   -1.5630 N   0  0  0  0  0  0  0  0  0  0  0  0
    5.0500    0.6350   -0.4470 C   0  0  0  0  0  0  0  0  0  0  0  0
   -1.2090   -0.7140    0.6900 C   0  0  0  0  0  0  0  0  0  0  0  0
  1  2  1  0
  2  3  1  0
  3  4  2  0
  3  7  1  0
  4  5  1  0
  5  6  2  0
  6  7  1  0
  7  8  1  0
  8  9  2  0
  8 23  1  0
  9 10  1  0
 10 11  2  0
 11 12  1  0
 11 13  1  0
 13 14  1  0
 13 23  2  0
 14 15  1  0
 15 16  2  0
 15 17  1  0
 18 17  1  1
 18 19  1  0
 18 22  1  0
 19 20  1  0
 20 21  1  0
 21 22  1  0
M  CHG  1  21   1
M  END
