
     RDKit          3D

 22 24  0  0  0  0  0  0  0  0999 V2000
   -1.2970   -0.3940   -3.8710 C   0  0  0  0  0  0  0  0  0  0  0  0
   -1.6820   -0.2910   -2.4300 C   0  0  0  0  0  0  0  0  0  0  0  0
   -2.8470   -0.2960   -1.8690 O   0  0  0  0  0  0  0  0  0  0  0  0
   -2.7620   -0.1830   -0.5710 C   0  0  0  0  0  0  0  0  0  0  0  0
   -3.9020   -0.1580    0.3410 C   0  0  0  0  0  0  0  0  0  0  0  0
   -5.2020   -0.2530   -0.1010 C   0  0  0  0  0  0  0  0  0  0  0  0
   -6.2810   -0.2270    0.7820 C   0  0  0  0  0  0  0  0  0  0  0  0
   -6.0550   -0.1030    2.1440 C   0  0  0  0  0  0  0  0  0  0  0  0
   -4.7560   -0.0070    2.5930 C   0  0  0  0  0  0  0  0  0  0  0  0
   -3.7030   -0.0350    1.7040 C   0  0  0  0  0  0  0  0  0  0  0  0
   -1.4540   -0.1010   -0.2810 N   0  0  0  0  0  0  0  0  0  0  0  0
   -0.7450   -0.1650   -1.4190 C   0  0  0  0  0  0  0  0  0  0  0  0
    0.7490   -0.1110   -1.5750 C   0  0  0  0  0  0  0  0  0  0  0  0
    1.2870    0.0210   -0.2770 O   0  0  0  0  0  0  0  0  0  0  0  0
    2.6480    0.0950   -0.1220 C   0  0  0  0  0  0  0  0  0  0  0  0
    3.4790    0.0400   -1.2110 C   0  0  0  0  0  0  0  0  0  0  0  0
    4.8450    0.1200   -0.9880 C   0  0  0  0  0  0  0  0  0  0  0  0
    5.3580    0.2500    0.2900 C   0  0  0  0  0  0  0  0  0  0  0  0
    4.5280    0.3040    1.3760 C   0  0  0  0  0  0  0  0  0  0  0  0
    5.0800    0.4410    2.7300 C   0  0  0  0  0  0  0  0  0  0  0  0
    5.2180    1.7900    3.1010 O   0  0  0  0  0  0  0  0  0  0  0  0
    3.1650    0.2250    1.1550 C   0  0  0  0  0  0  0  0  0  0  0  0
  1  2  1  0
  2  3  1  0
  2 12  2  0
  3  4  1  0
  4  5  1  0
  4 11  2  0
  5  6  2  0
  5 10  1  0
  6  7  1  0
  7  8  2  0
  8  9  1  0
  9 10  2  0
 11 12  1  0
 12 13  1  0
 13 14  1  0
 14 15  1  0
 15 16  2  0
 15 22  1  0
 16 17  1  0
 17 18  2  0
 18 19  1  0
 19 20  1  0
 19 22  2  0
 20 21  1  0
M  END
