
     RDKit          3D

 23 25  0  0  0  0  0  0  0  0999 V2000
   -5.7050    1.1780    1.1410 C   0  0  0  0  0  0  0  0  0  0  0  0
   -4.8400    0.6390    0.0210 C   0  0  1  0  0  0  0  0  0  0  0  0
   -3.8090    1.6470   -0.3700 C   0  0  0  0  0  0  0  0  0  0  0  0
   -2.4780    1.4680    0.2410 C   0  0  0  0  0  0  0  0  0  0  0  0
   -2.0320    0.0970    0.2370 N   0  0  0  0  0  0  0  0  0  0  0  0
   -0.7340   -0.2390   -0.2750 C   0  0  0  0  0  0  0  0  0  0  0  0
    0.3660    0.0010    0.4320 N   0  0  0  0  0  0  0  0  0  0  0  0
    1.6220   -0.3160    0.0010 C   0  0  0  0  0  0  0  0  0  0  0  0
    2.7520    0.0520    0.8470 C   0  0  0  0  0  0  0  0  0  0  0  0
    2.5600    0.7340    2.0290 N   0  0  0  0  0  0  0  0  0  0  0  0
    3.6980    0.9480    2.6290 N   0  0  0  0  0  0  0  0  0  0  0  0
    4.6670    0.4250    1.8830 C   0  0  0  0  0  0  0  0  0  0  0  0
    5.9180    0.4450    2.1610 N   0  0  0  0  0  0  0  0  0  0  0  0
    4.0550   -0.1290    0.7810 N   0  0  0  0  0  0  0  0  0  0  0  0
    4.8100   -0.8210   -0.2160 C   0  0  0  0  0  0  0  0  0  0  0  0
    5.2370    0.0350   -1.3520 C   0  0  0  0  0  0  0  0  0  0  0  0
    5.9640   -0.7700   -2.2470 O   0  0  0  0  0  0  0  0  0  0  0  0
    1.7660   -0.9100   -1.2240 C   0  0  0  0  0  0  0  0  0  0  0  0
    0.6300   -1.1780   -1.9980 C   0  0  0  0  0  0  0  0  0  0  0  0
   -0.6010   -0.8320   -1.4960 C   0  0  0  0  0  0  0  0  0  0  0  0
   -1.7820   -1.1040   -2.2730 N   0  0  0  0  0  0  0  0  0  0  0  0
   -2.9400   -0.8780    0.7710 C   0  0  0  0  0  0  0  0  0  0  0  0
   -4.3350   -0.7140    0.3450 C   0  0  0  0  0  0  0  0  0  0  0  0
  2  1  1  1
  2  3  1  0
  2 23  1  0
  3  4  1  0
  4  5  1  0
  5  6  1  0
  5 22  1  0
  6  7  2  0
  6 20  1  0
  7  8  1  0
  8  9  1  0
  8 18  2  0
  9 10  2  0
  9 14  1  0
 10 11  1  0
 11 12  1  0
 12 13  2  0
 12 14  1  0
 14 15  1  0
 15 16  1  0
 16 17  1  0
 18 19  1  0
 19 20  2  0
 20 21  1  0
 22 23  1  0
M  CHG  1   7   1
M  END
