
     RDKit          3D

 23 25  0  0  0  0  0  0  0  0999 V2000
   -0.6880    4.4000   -0.6680 N   0  0  0  0  0  0  0  0  0  0  0  0
   -0.8370    3.0410   -0.1350 C   0  0  0  0  0  0  0  0  0  0  0  0
   -1.5380    2.2500   -1.0520 N   0  0  0  0  0  0  0  0  0  0  0  0
   -2.2310    1.2020   -0.9540 C   0  0  0  0  0  0  0  0  0  0  0  0
   -2.9050    0.4990   -2.0430 N   0  0  0  0  0  0  0  0  0  0  0  0
   -3.8060   -0.4660   -1.4620 C   0  0  1  0  0  0  0  0  0  0  0  0
   -3.1040   -1.8300   -1.4520 C   0  0  0  0  0  0  0  0  0  0  0  0
   -4.0060   -2.7450   -0.7890 N   0  0  0  0  0  0  0  0  0  0  0  0
   -4.1160   -2.4560    0.6260 C   0  0  0  0  0  0  0  0  0  0  0  0
   -4.4390   -1.0370    0.9210 C   0  0  0  0  0  0  0  0  0  0  0  0
   -3.9660   -0.0280   -0.0510 C   0  0  1  0  0  0  0  0  0  0  0  0
   -2.5430    0.4310    0.2370 C   0  0  0  0  0  0  0  0  0  0  0  0
   -1.8670    0.1460    1.2680 N   0  0  0  0  0  0  0  0  0  0  0  0
   -0.5880    0.5230    1.5210 N   0  0  0  0  0  0  0  0  0  0  0  0
    0.5590   -0.0650    0.9130 C   0  0  0  0  0  0  0  0  0  0  0  0
    0.3900   -0.9820    0.0980 O   0  0  0  0  0  0  0  0  0  0  0  0
    1.8790    0.3520    1.2010 N   0  0  0  0  0  0  0  0  0  0  0  0
    3.0670   -0.2000    0.6220 C   0  0  1  0  0  0  0  0  0  0  0  0
    3.7910    0.9280   -0.0940 C   0  0  0  0  0  0  0  0  0  0  0  0
    4.9720    0.3910   -0.8760 C   0  0  0  0  0  0  0  0  0  0  0  0
    5.9310   -0.2230    0.1230 C   0  0  0  0  0  0  0  0  0  0  0  0
    5.2110   -1.3290    0.8490 C   0  0  0  0  0  0  0  0  0  0  0  0
    4.0110   -0.7850    1.6290 C   0  0  0  0  0  0  0  0  0  0  0  0
  1  2  1  0
  2  3  1  0
  3  4  2  3
  4  5  1  0
  4 12  1  0
  5  6  1  0
  6  7  1  1
  6 11  1  0
  7  8  1  0
  8  9  1  0
  9 10  1  0
 11 10  1  1
 11 12  1  0
 12 13  2  3
 13 14  1  0
 14 15  1  0
 15 16  2  0
 15 17  1  0
 18 17  1  1
 18 19  1  0
 18 23  1  0
 19 20  1  0
 20 21  1  0
 21 22  1  0
 22 23  1  0
M  CHG  1   8   1
M  END
