
     RDKit          3D

 30 34  0  0  0  0  0  0  0  0999 V2000
   -2.6280    1.7870   -0.3320 O   0  0  0  0  0  0  0  0  0  0  0  0
   -2.0900    1.0600    0.5190 C   0  0  0  0  0  0  0  0  0  0  0  0
   -2.8990    0.6180    1.6870 C   0  0  1  0  0  0  0  0  0  0  0  0
   -4.2740    1.1820    1.6380 C   0  0  0  0  0  0  0  0  0  0  0  0
   -5.1210    0.4630    0.7010 C   0  0  0  0  0  0  0  0  0  0  0  0
   -4.8140   -0.7810    0.4680 C   0  0  0  0  0  0  0  0  0  0  0  0
   -5.5390   -1.6780   -0.4390 C   0  0  0  0  0  0  0  0  0  0  0  0
   -6.7120   -1.1390   -1.1530 C   0  0  0  0  0  0  0  0  0  0  0  0
   -6.9870    0.2640   -0.8350 C   0  0  0  0  0  0  0  0  0  0  0  0
   -6.2920    0.9740   -0.0210 C   0  0  0  0  0  0  0  0  0  0  0  0
   -6.7120    2.3430    0.1720 N   0  0  0  0  0  0  0  0  0  0  0  0
   -7.0470    2.7040    1.4200 F   0  0  0  0  0  0  0  0  0  0  0  0
   -6.7780    3.2440   -0.8180 F   0  0  0  0  0  0  0  0  0  0  0  0
   -3.3440   -1.1590    1.4580 S   0  0  0  0  0  0  0  0  0  0  0  0
   -0.7360    0.6640    0.3720 N   0  0  0  0  0  0  0  0  0  0  0  0
    0.0380   -0.1760    1.2770 C   0  0  0  0  0  0  0  0  0  0  0  0
    1.4250    0.4540    1.1410 C   0  0  0  0  0  0  0  0  0  0  0  0
    1.4820    0.9890   -0.1860 N   0  0  0  0  0  0  0  0  0  0  0  0
    2.3080    0.2380   -1.0790 C   0  0  0  0  0  0  0  0  0  0  0  0
    3.7220    0.1450   -0.7070 C   0  0  0  0  0  0  0  0  0  0  0  0
    4.2430    0.9240    0.3010 C   0  0  0  0  0  0  0  0  0  0  0  0
    5.5780    0.8060    0.6230 C   0  0  0  0  0  0  0  0  0  0  0  0
    6.3830   -0.0760   -0.0520 C   0  0  0  0  0  0  0  0  0  0  0  0
    7.7420   -0.1950    0.2750 C   0  0  0  0  0  0  0  0  0  0  0  0
    8.5140   -1.0800   -0.4150 C   0  0  0  0  0  0  0  0  0  0  0  0
    7.9850   -1.8540   -1.4220 C   0  0  0  0  0  0  0  0  0  0  0  0
    6.6580   -1.7280   -1.7310 C   0  0  0  0  0  0  0  0  0  0  0  0
    5.8340   -0.8370   -1.0520 C   0  0  0  0  0  0  0  0  0  0  0  0
    4.5340   -0.7140   -1.3560 N   0  0  0  0  0  0  0  0  0  0  0  0
    0.1450    1.0180   -0.7070 C   0  0  0  0  0  0  0  0  0  0  0  0
  1  2  2  0
  3  2  1  6
  2 15  1  0
  3  4  1  0
  3 14  1  0
  4  5  1  0
  5  6  2  0
  5 10  1  0
  6  7  1  0
  6 14  1  0
  7  8  1  0
  8  9  1  0
  9 10  2  0
 10 11  1  0
 11 12  1  0
 11 13  1  0
 15 16  1  0
 15 30  1  0
 16 17  1  0
 17 18  1  0
 18 19  1  0
 18 30  1  0
 19 20  1  0
 20 21  2  0
 20 29  1  0
 21 22  1  0
 22 23  2  0
 23 24  1  0
 23 28  1  0
 24 25  2  0
 25 26  1  0
 26 27  2  0
 27 28  1  0
 28 29  2  0
M  END
