
     RDKit          3D

 31 34  0  0  0  0  0  0  0  0999 V2000
    1.6050    4.9480   -0.2100 C   0  0  0  0  0  0  0  0  0  0  0  0
    0.2090    4.3800   -0.3470 C   0  0  0  0  0  0  0  0  0  0  0  0
    0.0300    3.1270    0.0140 C   0  0  0  0  0  0  0  0  0  0  0  0
    1.1750    2.4560    0.4920 C   0  0  0  0  0  0  0  0  0  0  0  0
    1.1010    1.1530    0.8990 C   0  0  0  0  0  0  0  0  0  0  0  0
   -0.1270    0.5440    0.8180 C   0  0  0  0  0  0  0  0  0  0  0  0
   -1.1990    1.1810    0.3670 N   0  0  0  0  0  0  0  0  0  0  0  0
   -1.1760    2.5040   -0.0580 C   0  0  0  0  0  0  0  0  0  0  0  0
   -2.2860    3.0110   -0.4830 C   0  0  0  0  0  0  0  0  0  0  0  0
   -2.8110    4.2420   -1.0140 C   0  0  1  0  0  0  0  0  0  0  0  0
   -4.1960    4.0280   -1.3600 F   0  0  0  0  0  0  0  0  0  0  0  0
   -2.8020    5.3400   -0.1930 F   0  0  0  0  0  0  0  0  0  0  0  0
   -2.2650    4.5240   -2.2480 F   0  0  0  0  0  0  0  0  0  0  0  0
   -0.4350   -0.8200    1.1980 N   0  0  0  0  0  0  0  0  0  0  0  0
   -1.5080   -1.4210    0.5060 C   0  0  0  0  0  0  0  0  0  0  0  0
   -2.3190   -2.3410    1.1020 C   0  0  0  0  0  0  0  0  0  0  0  0
   -3.3360   -2.9060    0.3540 C   0  0  0  0  0  0  0  0  0  0  0  0
   -3.5750   -2.5870   -0.9700 C   0  0  0  0  0  0  0  0  0  0  0  0
   -4.6120   -3.1880   -1.6710 O   0  0  0  0  0  0  0  0  0  0  0  0
   -5.4120   -4.1310   -0.9890 C   0  0  0  0  0  0  0  0  0  0  0  0
   -2.7420   -1.6530   -1.5580 C   0  0  0  0  0  0  0  0  0  0  0  0
   -1.7260   -1.0880   -0.8110 C   0  0  0  0  0  0  0  0  0  0  0  0
    0.2830   -1.5760    2.2040 C   0  0  0  0  0  0  0  0  0  0  0  0
    1.6780   -1.9170    1.7800 C   0  0  0  0  0  0  0  0  0  0  0  0
    2.4350   -0.8500    1.2040 N   0  0  0  0  0  0  0  0  0  0  0  0
    3.4350   -1.2840    0.2720 C   0  0  0  0  0  0  0  0  0  0  0  0
    3.7030   -0.8390   -0.8810 N   0  0  0  0  0  0  0  0  0  0  0  0
    4.7250   -1.3980   -1.6510 C   0  0  0  0  0  0  0  0  0  0  0  0
    5.7720   -2.0650   -0.7780 C   0  0  0  0  0  0  0  0  0  0  0  0
    4.6150   -2.6330    0.5430 S   0  0  0  0  0  0  0  0  0  0  0  0
    2.3850    0.5740    1.3820 C   0  0  0  0  0  0  0  0  0  0  0  0
  1  2  1  0
  2  3  2  3
  3  4  1  0
  3  8  1  0
  4  5  2  0
  5  6  1  0
  5 31  1  0
  6  7  2  0
  6 14  1  0
  7  8  1  0
  8  9  2  3
  9 10  1  0
 10 11  1  6
 10 12  1  0
 10 13  1  0
 14 15  1  0
 14 23  1  0
 15 16  2  0
 15 22  1  0
 16 17  1  0
 17 18  2  0
 18 19  1  0
 18 21  1  0
 19 20  1  0
 21 22  2  0
 23 24  1  0
 24 25  1  0
 25 26  1  0
 25 31  1  0
 26 27  2  0
 26 30  1  0
 27 28  1  0
 28 29  1  0
 29 30  1  0
M  END
