
     RDKit          3D

 31 35  0  0  0  0  0  0  0  0999 V2000
   -5.0810    2.7150    1.3300 C   0  0  0  0  0  0  0  0  0  0  0  0
   -5.1960    1.4140    0.6610 N   0  0  0  0  0  0  0  0  0  0  0  0
   -4.0540    0.5880    0.5520 C   0  0  0  0  0  0  0  0  0  0  0  0
   -3.8930   -0.5360    1.3190 C   0  0  0  0  0  0  0  0  0  0  0  0
   -2.7500   -1.3210    1.2030 C   0  0  0  0  0  0  0  0  0  0  0  0
   -1.7420   -1.0030    0.3190 C   0  0  0  0  0  0  0  0  0  0  0  0
   -0.6050   -1.9420    0.1500 C   0  0  0  0  0  0  0  0  0  0  0  0
    0.6430   -1.4070   -0.1460 C   0  0  0  0  0  0  0  0  0  0  0  0
    1.1520   -0.0350   -0.0250 C   0  0  0  0  0  0  0  0  0  0  0  0
    0.4790    0.8740    0.5570 O   0  0  0  0  0  0  0  0  0  0  0  0
    2.3970    0.3690   -0.5380 N   0  0  0  0  0  0  0  0  0  0  0  0
    3.2540   -0.5420   -1.2350 C   0  0  0  0  0  0  0  0  0  0  0  0
    4.2820    0.1770   -2.1080 C   0  0  0  0  0  0  0  0  0  0  0  0
    5.0640    1.0890   -1.2390 C   0  0  0  0  0  0  0  0  0  0  0  0
    6.3460    1.3400   -1.1120 C   0  0  0  0  0  0  0  0  0  0  0  0
    6.5120    2.3640   -0.0630 C   0  0  0  0  0  0  0  0  0  0  0  0
    5.1150    2.6330    0.3600 C   0  0  0  0  0  0  0  0  0  0  0  0
    4.2650    1.9050   -0.3090 C   0  0  0  0  0  0  0  0  0  0  0  0
    2.7990    1.7440   -0.3420 C   0  0  0  0  0  0  0  0  0  0  0  0
    1.6220   -2.7820   -0.4830 S   0  0  0  0  0  0  0  0  0  0  0  0
    0.3050   -4.0180   -0.2030 C   0  0  0  0  0  0  0  0  0  0  0  0
    0.0480   -5.3360   -0.2190 N   0  0  0  0  0  0  0  0  0  0  0  0
   -1.2360   -5.4640    0.1000 C   0  0  0  0  0  0  0  0  0  0  0  0
   -1.7190   -4.1770    0.3040 C   0  0  0  0  0  0  0  0  0  0  0  0
   -0.7040   -3.2560    0.1050 N   0  0  0  0  0  0  0  0  0  0  0  0
   -1.9150    0.1210   -0.4440 C   0  0  0  0  0  0  0  0  0  0  0  0
   -3.0580    0.9200   -0.3380 C   0  0  0  0  0  0  0  0  0  0  0  0
   -6.4940    1.0320    0.1430 C   0  0  2  0  0  0  0  0  0  0  0  0
   -6.5030   -0.2070   -0.4240 F   0  0  0  0  0  0  0  0  0  0  0  0
   -6.8490    2.0330   -0.7700 F   0  0  0  0  0  0  0  0  0  0  0  0
   -7.3970    1.0370    1.1930 F   0  0  0  0  0  0  0  0  0  0  0  0
  1  2  1  0
  2  3  1  0
  2 28  1  0
  3  4  2  0
  3 27  1  0
  4  5  1  0
  5  6  2  0
  6  7  1  0
  6 26  1  0
  7  8  2  0
  7 25  1  0
  8  9  1  0
  8 20  1  0
  9 10  2  0
  9 11  1  0
 11 12  1  0
 11 19  1  0
 12 13  1  0
 13 14  1  0
 14 15  2  0
 14 18  1  0
 15 16  1  0
 16 17  1  0
 17 18  2  0
 18 19  1  0
 20 21  1  0
 21 22  2  0
 21 25  1  0
 22 23  1  0
 23 24  2  0
 24 25  1  0
 26 27  2  0
 28 29  1  6
 28 30  1  0
 28 31  1  0
M  END
