
     RDKit          3D

 31 35  0  0  0  0  0  0  0  0999 V2000
   -3.5430    2.5830    2.1860 O   0  0  0  0  0  0  0  0  0  0  0  0
   -2.9830    1.6480    1.5790 C   0  0  0  0  0  0  0  0  0  0  0  0
   -1.5940    1.3460    2.0060 C   0  0  0  0  0  0  0  0  0  0  0  0
   -0.7920    1.0890    0.7170 C   0  0  0  0  0  0  0  0  0  0  0  0
   -1.0950   -0.2230    0.2400 N   0  0  0  0  0  0  0  0  0  0  0  0
    0.0730   -0.8870   -0.2910 C   0  0  0  0  0  0  0  0  0  0  0  0
    0.1620   -2.2550   -0.3770 C   0  0  0  0  0  0  0  0  0  0  0  0
    1.2720   -2.8950   -0.8980 C   0  0  0  0  0  0  0  0  0  0  0  0
    2.3470   -2.1640   -1.3580 C   0  0  0  0  0  0  0  0  0  0  0  0
    2.2800   -0.7960   -1.2810 C   0  0  0  0  0  0  0  0  0  0  0  0
    3.4180    0.0190   -1.7510 C   0  0  0  0  0  0  0  0  0  0  0  0
    4.2240    0.4130   -0.5670 C   0  0  0  0  0  0  0  0  0  0  0  0
    4.0970    1.7070   -0.0780 C   0  0  0  0  0  0  0  0  0  0  0  0
    4.8170    2.1120    1.0180 C   0  0  0  0  0  0  0  0  0  0  0  0
    4.6460    3.3920    1.4450 F   0  0  0  0  0  0  0  0  0  0  0  0
    5.6890    1.2880    1.6890 C   0  0  0  0  0  0  0  0  0  0  0  0
    6.3640    1.7590    2.7630 F   0  0  0  0  0  0  0  0  0  0  0  0
    5.8120    0.0010    1.2000 C   0  0  0  0  0  0  0  0  0  0  0  0
    5.0930   -0.4210    0.0950 C   0  0  0  0  0  0  0  0  0  0  0  0
    5.2480   -1.6810   -0.3490 F   0  0  0  0  0  0  0  0  0  0  0  0
    1.1500   -0.1660   -0.7520 C   0  0  0  0  0  0  0  0  0  0  0  0
   -2.2840   -1.0050    0.1690 C   0  0  0  0  0  0  0  0  0  0  0  0
   -3.4980   -0.1480   -0.0870 C   0  0  0  0  0  0  0  0  0  0  0  0
   -3.7810    0.9710    0.5160 C   0  0  0  0  0  0  0  0  0  0  0  0
   -4.9590    1.8410    0.3030 C   0  0  0  0  0  0  0  0  0  0  0  0
   -6.1050    1.2380   -0.9390 S   0  0  0  0  0  0  0  0  0  0  0  0
   -5.4410   -0.2960   -1.5700 C   0  0  0  0  0  0  0  0  0  0  0  0
   -5.9070   -1.1440   -2.5060 N   0  0  0  0  0  0  0  0  0  0  0  0
   -5.0540   -2.1640   -2.6340 C   0  0  0  0  0  0  0  0  0  0  0  0
   -4.0730   -1.9220   -1.7670 N   0  0  0  0  0  0  0  0  0  0  0  0
   -4.2950   -0.7690   -1.0970 N   0  0  0  0  0  0  0  0  0  0  0  0
  1  2  2  0
  2  3  1  0
  2 24  1  0
  3  4  1  0
  4  5  1  0
  5  6  1  0
  5 22  1  0
  6  7  2  0
  6 21  1  0
  7  8  1  0
  8  9  2  0
  9 10  1  0
 10 11  1  0
 10 21  2  0
 11 12  1  0
 12 13  2  0
 12 19  1  0
 13 14  1  0
 14 15  1  0
 14 16  2  0
 16 17  1  0
 16 18  1  0
 18 19  2  0
 19 20  1  0
 22 23  1  0
 23 24  2  0
 23 31  1  0
 24 25  1  0
 25 26  1  0
 26 27  1  0
 27 28  2  0
 27 31  1  0
 28 29  1  0
 29 30  2  0
 30 31  1  0
M  END
