
     RDKit          3D

 29 31  0  0  0  0  0  0  0  0999 V2000
    7.1830    0.3930    2.1180 C   0  0  0  0  0  0  0  0  0  0  0  0
    5.8900    0.3000    1.3790 C   0  0  0  0  0  0  0  0  0  0  0  0
    5.6460    1.0120    0.3070 C   0  0  0  0  0  0  0  0  0  0  0  0
    6.6000    1.8570   -0.1370 F   0  0  0  0  0  0  0  0  0  0  0  0
    4.3740    0.8740   -0.3690 C   0  0  0  0  0  0  0  0  0  0  0  0
    4.1730    1.6170   -1.4530 C   0  0  0  0  0  0  0  0  0  0  0  0
    2.9960    1.5140   -2.1100 F   0  0  0  0  0  0  0  0  0  0  0  0
    5.1040    2.4730   -1.9100 F   0  0  0  0  0  0  0  0  0  0  0  0
    3.4020   -0.0160    0.1140 N   0  0  0  0  0  0  0  0  0  0  0  0
    3.4060   -1.4040   -0.2560 C   0  0  0  0  0  0  0  0  0  0  0  0
    1.9670   -1.8950   -0.0640 C   0  0  0  0  0  0  0  0  0  0  0  0
    1.0440   -0.8440   -0.5570 N   0  0  0  0  0  0  0  0  0  0  0  0
    0.3680   -1.0870   -1.7530 C   0  0  0  0  0  0  0  0  0  0  0  0
    0.6450   -2.2150   -2.3310 O   0  0  0  0  0  0  0  0  0  0  0  0
   -0.6080   -0.2920   -2.4860 C   0  0  0  0  0  0  0  0  0  0  0  0
   -0.9350    0.9200   -1.8070 N   0  0  0  0  0  0  0  0  0  0  0  0
   -1.8200    1.1210   -0.9150 C   0  0  0  0  0  0  0  0  0  0  0  0
   -2.0850    2.3670   -0.2860 N   0  0  0  0  0  0  0  0  0  0  0  0
   -3.0350    2.2480    0.5490 C   0  0  0  0  0  0  0  0  0  0  0  0
   -3.6440    3.3010    1.4350 C   0  0  0  0  0  0  0  0  0  0  0  0
   -3.4820    0.8670    0.5350 C   0  0  0  0  0  0  0  0  0  0  0  0
   -2.7410    0.1760   -0.3570 C   0  0  0  0  0  0  0  0  0  0  0  0
   -3.0910   -1.2480   -0.4550 C   0  0  0  0  0  0  0  0  0  0  0  0
   -4.5570   -1.2920   -0.8580 C   0  0  1  0  0  0  0  0  0  0  0  0
   -4.9890   -2.6250   -1.3630 C   0  0  0  0  0  0  0  0  0  0  0  0
   -5.3360   -0.8080    0.3440 C   0  0  0  0  0  0  0  0  0  0  0  0
   -4.5360    0.0900    1.2380 C   0  0  0  0  0  0  0  0  0  0  0  0
    0.9880    0.3270    0.2790 C   0  0  0  0  0  0  0  0  0  0  0  0
    2.3550    0.4380    0.9970 C   0  0  0  0  0  0  0  0  0  0  0  0
  1  2  1  0
  2  3  2  3
  3  4  1  0
  3  5  1  0
  5  6  2  3
  5  9  1  0
  6  7  1  0
  6  8  1  0
  9 10  1  0
  9 29  1  0
 10 11  1  0
 11 12  1  0
 12 13  1  0
 12 28  1  0
 13 14  2  0
 13 15  1  0
 15 16  1  0
 16 17  2  3
 17 18  1  0
 17 22  1  0
 18 19  2  0
 19 20  1  0
 19 21  1  0
 21 22  2  0
 21 27  1  0
 22 23  1  0
 23 24  1  0
 24 25  1  1
 24 26  1  0
 26 27  1  0
 28 29  1  0
M  CHG  1  16   1
M  END
