
     RDKit          3D

 31 35  0  0  0  0  0  0  0  0999 V2000
    1.6800   -1.3560    2.7510 O   0  0  0  0  0  0  0  0  0  0  0  0
    1.7810   -0.3890    1.9440 C   0  0  0  0  0  0  0  0  0  0  0  0
    0.5270    0.1760    1.4530 C   0  0  0  0  0  0  0  0  0  0  0  0
   -0.7200   -0.2320    1.7860 N   0  0  0  0  0  0  0  0  0  0  0  0
   -1.6260    0.5020    1.1230 C   0  0  0  0  0  0  0  0  0  0  0  0
   -3.4090    0.3800    1.2530 S   0  0  0  0  0  0  0  0  0  0  0  0
   -3.9670   -0.9200    0.1310 C   0  0  2  0  0  0  0  0  0  0  0  0
   -5.4600   -1.0910    0.1470 C   0  0  0  0  0  0  0  0  0  0  0  0
   -5.5990   -2.4240   -0.6060 C   0  0  0  0  0  0  0  0  0  0  0  0
   -4.4350   -3.2320   -0.0620 C   0  0  0  0  0  0  0  0  0  0  0  0
   -3.5060   -2.2950    0.6370 C   0  0  0  0  0  0  0  0  0  0  0  0
   -0.9240    1.3660    0.3810 N   0  0  0  0  0  0  0  0  0  0  0  0
   -1.4180    2.4060   -0.4990 C   0  0  0  0  0  0  0  0  0  0  0  0
   -2.3110    2.1360   -1.4970 C   0  0  0  0  0  0  0  0  0  0  0  0
   -2.7390    3.1940   -2.2990 C   0  0  0  0  0  0  0  0  0  0  0  0
   -2.2670    4.4650   -2.0770 C   0  0  0  0  0  0  0  0  0  0  0  0
   -1.3630    4.7420   -1.0680 C   0  0  0  0  0  0  0  0  0  0  0  0
   -0.9580    3.7000   -0.2990 C   0  0  0  0  0  0  0  0  0  0  0  0
   -0.0620    3.9720    0.7030 F   0  0  0  0  0  0  0  0  0  0  0  0
    0.3680    1.1700    0.5780 N   0  0  0  0  0  0  0  0  0  0  0  0
    3.0350    0.0740    1.5730 N   0  0  0  0  0  0  0  0  0  0  0  0
    3.3180    1.1700    0.6920 C   0  0  0  0  0  0  0  0  0  0  0  0
    3.8730    0.6910   -0.6370 C   0  0  0  0  0  0  0  0  0  0  0  0
    4.6870   -0.5360   -0.4400 C   0  0  0  0  0  0  0  0  0  0  0  0
    5.3510   -1.2180   -1.3700 C   0  0  0  0  0  0  0  0  0  0  0  0
    5.4200   -0.9310   -2.6900 F   0  0  0  0  0  0  0  0  0  0  0  0
    6.0250   -2.3760   -0.7440 C   0  0  0  0  0  0  0  0  0  0  0  0
    5.6510   -2.2520    0.6840 C   0  0  0  0  0  0  0  0  0  0  0  0
    6.0370   -3.0940    1.6570 F   0  0  0  0  0  0  0  0  0  0  0  0
    4.8760   -1.1870    0.8590 C   0  0  0  0  0  0  0  0  0  0  0  0
    4.2270   -0.6200    2.1030 C   0  0  0  0  0  0  0  0  0  0  0  0
  1  2  2  0
  2  3  1  0
  2 21  1  0
  3  4  1  0
  3 20  2  0
  4  5  2  0
  5  6  1  0
  5 12  1  0
  7  6  1  1
  7  8  1  0
  7 11  1  0
  8  9  1  0
  9 10  1  0
 10 11  1  0
 12 13  1  0
 12 20  1  0
 13 14  2  0
 13 18  1  0
 14 15  1  0
 15 16  2  0
 16 17  1  0
 17 18  2  0
 18 19  1  0
 21 22  1  0
 21 31  1  0
 22 23  1  0
 23 24  1  0
 24 25  2  0
 24 30  1  0
 25 26  1  0
 25 27  1  0
 27 28  1  0
 28 29  1  0
 28 30  2  0
 30 31  1  0
M  END
