
     RDKit          3D

 29 31  0  0  0  0  0  0  0  0999 V2000
    5.4820    2.2530   -0.6060 C   0  0  0  0  0  0  0  0  0  0  0  0
    6.2930    1.2300   -0.5010 C   0  0  0  0  0  0  0  0  0  0  0  0
    7.6670    1.4460   -0.6520 F   0  0  0  0  0  0  0  0  0  0  0  0
    5.8280   -0.1110   -0.2400 C   0  0  0  0  0  0  0  0  0  0  0  0
    6.7990   -1.0660   -0.1550 C   0  0  0  0  0  0  0  0  0  0  0  0
    6.4550   -2.4770    0.1090 C   0  0  0  0  0  0  0  0  0  0  0  0
    4.4420   -0.5120   -0.0640 C   0  0  1  0  0  0  0  0  0  0  0  0
    3.7920   -0.0540    1.2270 C   0  0  0  0  0  0  0  0  0  0  0  0
    2.4700   -0.8390    1.2850 C   0  0  0  0  0  0  0  0  0  0  0  0
    1.5780   -0.1590    0.3160 N   0  0  0  0  0  0  0  0  0  0  0  0
    0.2170   -0.0460    0.5860 C   0  0  0  0  0  0  0  0  0  0  0  0
   -0.1420   -0.6140    1.7090 O   0  0  0  0  0  0  0  0  0  0  0  0
   -0.8330    0.5490   -0.1000 N   0  0  0  0  0  0  0  0  0  0  0  0
   -0.8090    1.2940   -1.3360 C   0  0  0  0  0  0  0  0  0  0  0  0
   -1.2730    0.3170   -2.4050 C   0  0  0  0  0  0  0  0  0  0  0  0
   -2.6480   -0.1190   -1.9570 C   0  0  0  0  0  0  0  0  0  0  0  0
   -3.0580   -0.0660   -0.7110 C   0  0  0  0  0  0  0  0  0  0  0  0
   -2.2330    0.4260    0.4340 C   0  0  0  0  0  0  0  0  0  0  0  0
   -4.4300   -0.5570   -0.6770 C   0  0  0  0  0  0  0  0  0  0  0  0
   -5.3540   -0.3920    0.1770 N   0  0  0  0  0  0  0  0  0  0  0  0
   -5.2090    0.3920    1.3990 C   0  0  0  0  0  0  0  0  0  0  0  0
   -6.5540    0.5350    2.0870 C   0  0  0  0  0  0  0  0  0  0  0  0
   -7.5000    1.2370    1.1360 C   0  0  0  0  0  0  0  0  0  0  0  0
   -4.5900   -1.3620   -1.9340 C   0  0  1  0  0  0  0  0  0  0  0  0
   -4.1870   -2.6560   -1.7640 F   0  0  0  0  0  0  0  0  0  0  0  0
   -5.8880   -1.2850   -2.4000 F   0  0  0  0  0  0  0  0  0  0  0  0
   -3.6720   -0.6420   -2.7960 N   0  0  0  0  0  0  0  0  0  0  0  0
    2.1950    0.3380   -0.8820 C   0  0  0  0  0  0  0  0  0  0  0  0
    3.5320   -0.2640   -1.2120 C   0  0  0  0  0  0  0  0  0  0  0  0
  1  2  2  0
  2  3  1  0
  2  4  1  0
  4  5  2  3
  7  4  1  6
  5  6  1  0
  7  8  1  0
  7 29  1  0
  8  9  1  0
  9 10  1  0
 10 11  1  0
 10 28  1  0
 11 12  2  0
 11 13  1  0
 13 14  1  0
 13 18  1  0
 14 15  1  0
 15 16  1  0
 16 17  2  0
 16 27  1  0
 17 18  1  0
 17 19  1  0
 19 20  2  3
 19 24  1  0
 20 21  1  0
 21 22  1  0
 22 23  1  0
 24 25  1  1
 24 26  1  0
 24 27  1  0
 28 29  1  0
M  CHG  1  20   1
M  END
