
     RDKit          3D

 23 24  0  0  0  0  0  0  0  0999 V2000
    7.3170   -0.1410   -0.6460 C   0  0  0  0  0  0  0  0  0  0  0  0
    6.4000   -1.2270   -0.9760 C   0  0  0  0  0  0  0  0  0  0  0  0
    5.0780   -1.1350   -0.8210 C   0  0  0  0  0  0  0  0  0  0  0  0
    4.5120    0.0700   -0.3110 C   0  0  0  0  0  0  0  0  0  0  0  0
    5.2420    1.0490   -0.0050 O   0  0  0  0  0  0  0  0  0  0  0  0
    3.0410    0.2270   -0.1180 C   0  0  0  0  0  0  0  0  0  0  0  0
    2.2140   -0.7370   -0.4090 C   0  0  0  0  0  0  0  0  0  0  0  0
    0.7850   -0.6000   -0.2200 C   0  0  0  0  0  0  0  0  0  0  0  0
   -0.0830   -1.5800   -0.5840 C   0  0  0  0  0  0  0  0  0  0  0  0
   -1.4630   -1.4630   -0.4750 C   0  0  0  0  0  0  0  0  0  0  0  0
   -2.2340   -2.5900   -0.9080 C   0  0  0  0  0  0  0  0  0  0  0  0
   -2.0100   -0.2720    0.0400 C   0  0  0  0  0  0  0  0  0  0  0  0
   -3.4460   -0.2490    0.1230 C   0  0  1  0  0  0  0  0  0  0  0  0
   -4.0640   -0.4840   -1.2930 C   0  0  0  0  0  0  0  0  0  0  0  0
   -3.9820   -1.3790    1.0310 C   0  0  0  0  0  0  0  0  0  0  0  0
   -4.1870    0.9250    0.6010 C   0  0  0  0  0  0  0  0  0  0  0  0
   -4.3190    2.1340   -0.2590 C   0  0  0  0  0  0  0  0  0  0  0  0
   -4.7490    1.0070    1.6980 O   0  0  0  0  0  0  0  0  0  0  0  0
   -1.1430    0.7240    0.4160 C   0  0  0  0  0  0  0  0  0  0  0  0
   -1.6260    1.9820    1.0170 C   0  0  0  0  0  0  0  0  0  0  0  0
    0.2680    0.5610    0.2860 C   0  0  0  0  0  0  0  0  0  0  0  0
    1.1430    1.6600    0.7510 C   0  0  0  0  0  0  0  0  0  0  0  0
    2.5590    1.5410    0.3630 C   0  0  0  0  0  0  0  0  0  0  0  0
  1  2  1  0
  2  3  2  3
  3  4  1  0
  4  5  2  0
  4  6  1  0
  6  7  2  0
  6 23  1  0
  7  8  1  0
  8  9  2  0
  8 21  1  0
  9 10  1  0
 10 11  1  0
 10 12  2  0
 12 13  1  0
 12 19  1  0
 13 14  1  6
 13 15  1  0
 13 16  1  0
 16 17  1  0
 16 18  2  0
 19 20  1  0
 19 21  2  0
 21 22  1  0
 22 23  1  0
M  END
