
     RDKit          3D

 23 25  0  0  0  0  0  0  0  0999 V2000
    4.4060    1.9040    0.5790 C   0  0  0  0  0  0  0  0  0  0  0  0
    3.2660    1.0960   -0.0340 C   0  0  1  0  0  0  0  0  0  0  0  0
    3.4530   -0.3470    0.2290 C   0  0  0  0  0  0  0  0  0  0  0  0
    4.8070   -0.7360   -0.3780 C   0  0  0  0  0  0  0  0  0  0  0  0
    5.0090   -2.1820   -0.1210 C   0  0  0  0  0  0  0  0  0  0  0  0
    4.4130   -2.9960   -0.8040 O   0  0  0  0  0  0  0  0  0  0  0  0
    1.9780    1.6810    0.4390 C   0  0  0  0  0  0  0  0  0  0  0  0
    0.7410    1.0460   -0.0070 C   0  0  0  0  0  0  0  0  0  0  0  0
   -0.1300    1.7180   -0.7780 C   0  0  0  0  0  0  0  0  0  0  0  0
   -1.3890    1.1490   -1.2790 C   0  0  0  0  0  0  0  0  0  0  0  0
   -1.9630    0.0040   -0.5420 C   0  0  1  0  0  0  0  0  0  0  0  0
   -2.9580    0.5260    0.5000 C   0  0  0  0  0  0  0  0  0  0  0  0
   -3.2160    1.8020    0.7120 C   0  0  0  0  0  0  0  0  0  0  0  0
   -4.2420    1.9450    1.8070 C   0  0  0  0  0  0  0  0  0  0  0  0
   -4.5130    0.5520    2.1760 C   0  0  0  0  0  0  0  0  0  0  0  0
   -3.7670   -0.2410    1.4130 C   0  0  0  0  0  0  0  0  0  0  0  0
   -2.7550   -0.8530   -1.4760 C   0  0  0  0  0  0  0  0  0  0  0  0
   -2.3780   -2.2920   -1.5460 C   0  0  0  0  0  0  0  0  0  0  0  0
   -2.2060   -2.9650   -0.1940 C   0  0  0  0  0  0  0  0  0  0  0  0
   -1.3050   -2.1190    0.6450 C   0  0  0  0  0  0  0  0  0  0  0  0
   -0.8820   -2.5190    1.7230 O   0  0  0  0  0  0  0  0  0  0  0  0
   -0.9210   -0.7700    0.1540 C   0  0  0  0  0  0  0  0  0  0  0  0
    0.2510   -0.2560    0.4330 C   0  0  0  0  0  0  0  0  0  0  0  0
  2  1  1  1
  2  3  1  0
  2  7  1  0
  3  4  1  0
  4  5  1  0
  5  6  2  0
  7  8  1  0
  8  9  2  0
  8 23  1  0
  9 10  1  0
 10 11  1  0
 11 12  1  1
 11 17  1  0
 11 22  1  0
 12 13  2  0
 12 16  1  0
 13 14  1  0
 14 15  1  0
 15 16  2  0
 17 18  1  0
 18 19  1  0
 19 20  1  0
 20 21  2  0
 20 22  1  0
 22 23  2  0
M  END
