
     RDKit          3D

 23 24  0  0  0  0  0  0  0  0999 V2000
    2.5200   -3.5370    2.3190 C   0  0  0  0  0  0  0  0  0  0  0  0
    2.0040   -2.1510    1.8790 C   0  0  0  0  0  0  0  0  0  0  0  0
    1.1330   -2.0900    0.9120 C   0  0  0  0  0  0  0  0  0  0  0  0
    0.5360   -0.9040    0.3520 C   0  0  0  0  0  0  0  0  0  0  0  0
    1.0360    0.3730    0.4220 C   0  0  0  0  0  0  0  0  0  0  0  0
    2.3950    0.6150    0.9590 C   0  0  1  0  0  0  0  0  0  0  0  0
    3.3410   -0.2300    0.4120 O   0  0  0  0  0  0  0  0  0  0  0  0
    2.8850    2.0270    0.6080 C   0  0  2  0  0  0  0  0  0  0  0  0
    2.9660    2.2890   -0.8490 C   0  0  0  0  0  0  0  0  0  0  0  0
    4.3140    2.0600    1.1750 C   0  0  0  0  0  0  0  0  0  0  0  0
    0.2860    1.4190   -0.0670 C   0  0  0  0  0  0  0  0  0  0  0  0
   -0.9440    1.2550   -0.6300 C   0  0  0  0  0  0  0  0  0  0  0  0
   -1.6730    2.4350   -1.1260 C   0  0  0  0  0  0  0  0  0  0  0  0
   -2.7850    2.8200   -0.1680 C   0  0  0  0  0  0  0  0  0  0  0  0
   -3.5210    4.0310   -0.6930 C   0  0  0  0  0  0  0  0  0  0  0  0
   -1.4320   -0.0260   -0.6980 C   0  0  0  0  0  0  0  0  0  0  0  0
   -0.7610   -1.1210   -0.2380 C   0  0  0  0  0  0  0  0  0  0  0  0
   -1.3050   -2.5000   -0.3130 C   0  0  2  0  0  0  0  0  0  0  0  0
   -1.4660   -3.1680    1.0340 C   0  0  0  0  0  0  0  0  0  0  0  0
   -0.4610   -3.3340   -1.0890 O   0  0  0  0  0  0  0  0  0  0  0  0
   -2.6330   -2.5800   -1.0570 C   0  0  0  0  0  0  0  0  0  0  0  0
   -2.7730   -1.4750   -2.0690 C   0  0  0  0  0  0  0  0  0  0  0  0
   -2.7670   -0.1690   -1.3060 C   0  0  0  0  0  0  0  0  0  0  0  0
  1  2  1  0
  2  3  2  3
  3  4  1  0
  4  5  2  0
  4 17  1  0
  5  6  1  0
  5 11  1  0
  6  7  1  6
  6  8  1  0
  8  9  1  6
  8 10  1  0
 11 12  2  0
 12 13  1  0
 12 16  1  0
 13 14  1  0
 14 15  1  0
 16 17  2  0
 16 23  1  0
 17 18  1  0
 18 19  1  1
 18 20  1  0
 18 21  1  0
 21 22  1  0
 22 23  1  0
M  END
