
     RDKit          3D

 28 32  0  0  0  0  0  0  0  0999 V2000
   -0.4110   -2.9370   -0.4760 N   0  0  0  0  0  0  0  0  0  0  0  0
    0.9420   -2.6160   -0.6720 C   0  0  0  0  0  0  0  0  0  0  0  0
    1.7980   -3.5540   -1.1040 N   0  0  0  0  0  0  0  0  0  0  0  0
    3.1110   -3.2960   -1.2930 C   0  0  0  0  0  0  0  0  0  0  0  0
    3.5600   -2.0640   -1.0400 N   0  0  0  0  0  0  0  0  0  0  0  0
    2.7320   -1.1000   -0.6070 C   0  0  0  0  0  0  0  0  0  0  0  0
    1.3800   -1.3490   -0.4080 C   0  0  0  0  0  0  0  0  0  0  0  0
    0.8220   -0.1730    0.0360 C   0  0  0  0  0  0  0  0  0  0  0  0
   -0.5830    0.0510    0.3520 C   0  0  0  0  0  0  0  0  0  0  0  0
   -0.9230    0.5770    1.6050 C   0  0  0  0  0  0  0  0  0  0  0  0
   -2.2480    0.8090    1.9020 C   0  0  0  0  0  0  0  0  0  0  0  0
   -3.2690    0.5420    1.0100 C   0  0  0  0  0  0  0  0  0  0  0  0
   -4.6040    0.7910    1.3490 O   0  0  0  0  0  0  0  0  0  0  0  0
   -5.5760    0.4990    0.4020 C   0  0  0  0  0  0  0  0  0  0  0  0
   -6.1910   -0.7360    0.3180 C   0  0  0  0  0  0  0  0  0  0  0  0
   -7.1500   -1.0300   -0.6150 C   0  0  0  0  0  0  0  0  0  0  0  0
   -7.4990   -0.0280   -1.5000 C   0  0  0  0  0  0  0  0  0  0  0  0
   -6.9020    1.2170   -1.4430 C   0  0  0  0  0  0  0  0  0  0  0  0
   -5.9320    1.4890   -0.4870 C   0  0  0  0  0  0  0  0  0  0  0  0
   -2.8980    0.0250   -0.2130 C   0  0  0  0  0  0  0  0  0  0  0  0
   -1.5800   -0.2250   -0.5590 C   0  0  0  0  0  0  0  0  0  0  0  0
    1.8250    0.7900    0.1100 C   0  0  0  0  0  0  0  0  0  0  0  0
    2.9680    0.2050   -0.2840 N   0  0  0  0  0  0  0  0  0  0  0  0
    4.2620    0.8130   -0.3690 C   0  0  2  0  0  0  0  0  0  0  0  0
    5.3430    0.0050    0.3200 C   0  0  0  0  0  0  0  0  0  0  0  0
    6.3190    1.0260    0.8690 C   0  0  0  0  0  0  0  0  0  0  0  0
    5.8310    2.3810    0.3970 C   0  0  0  0  0  0  0  0  0  0  0  0
    4.3180    2.1340    0.3340 C   0  0  0  0  0  0  0  0  0  0  0  0
  1  2  1  0
  2  3  2  0
  2  7  1  0
  3  4  1  0
  4  5  2  0
  5  6  1  0
  6  7  2  0
  6 23  1  0
  7  8  1  0
  8  9  1  0
  8 22  2  0
  9 10  2  0
  9 21  1  0
 10 11  1  0
 11 12  2  0
 12 13  1  0
 12 20  1  0
 13 14  1  0
 14 15  2  0
 14 19  1  0
 15 16  1  0
 16 17  2  0
 17 18  1  0
 18 19  2  0
 20 21  2  0
 22 23  1  0
 24 23  1  1
 24 25  1  0
 24 28  1  0
 25 26  1  0
 26 27  1  0
 27 28  1  0
M  END
