
     RDKit          3D

 23 23  0  0  0  0  0  0  0  0999 V2000
   -1.6990    0.5720    2.8380 C   0  0  0  0  0  0  0  0  0  0  0  0
   -2.5430   -0.0990    2.1310 C   0  0  0  0  0  0  0  0  0  0  0  0
   -2.2580   -1.0230    1.1090 C   0  0  0  0  0  0  0  0  0  0  0  0
   -3.3030   -1.6720    0.5320 C   0  0  0  0  0  0  0  0  0  0  0  0
   -3.1860   -2.6810   -0.5520 C   0  0  0  0  0  0  0  0  0  0  0  0
   -2.1460   -3.5060   -0.7890 C   0  0  0  0  0  0  0  0  0  0  0  0
   -0.8850   -3.5840   -0.0120 C   0  0  0  0  0  0  0  0  0  0  0  0
   -0.3030   -2.5430    0.6390 C   0  0  0  0  0  0  0  0  0  0  0  0
    0.9140   -2.8340    1.3480 C   0  0  0  0  0  0  0  0  0  0  0  0
   -0.8290   -1.1870    0.7350 C   0  0  0  0  0  0  0  0  0  0  0  0
   -0.1350   -0.1540    0.5240 C   0  0  0  0  0  0  0  0  0  0  0  0
    1.3060   -0.2080    0.1450 C   0  0  0  0  0  0  0  0  0  0  0  0
    1.9560    0.8620    0.0600 O   0  0  0  0  0  0  0  0  0  0  0  0
    2.0470   -1.2880   -0.1540 O   0  0  0  0  0  0  0  0  0  0  0  0
    3.3100   -1.5650   -0.5400 C   0  0  0  0  0  0  0  0  0  0  0  0
    3.8250   -1.1140   -1.8580 C   0  0  0  0  0  0  0  0  0  0  0  0
    3.8720    0.3540   -2.0990 C   0  0  0  0  0  0  0  0  0  0  0  0
   -0.6780    1.1920    0.1820 C   0  0  0  0  0  0  0  0  0  0  0  0
   -2.0310    1.2990   -0.3720 C   0  0  0  0  0  0  0  0  0  0  0  0
    0.0490    2.2700    0.1350 C   0  0  0  0  0  0  0  0  0  0  0  0
   -0.3320    3.6210   -0.1810 C   0  0  0  0  0  0  0  0  0  0  0  0
    0.6810    4.5500   -0.1600 C   0  0  0  0  0  0  0  0  0  0  0  0
   -1.6340    4.1870   -0.5080 C   0  0  0  0  0  0  0  0  0  0  0  0
  1  2  2  0
  2  3  1  0
  3  4  2  0
  3 10  1  0
  4  5  1  0
  5  6  2  0
  6  7  1  0
  7  8  2  0
  8  9  1  0
  8 10  1  0
 10 11  2  3
 11 12  1  0
 11 18  1  0
 12 13  2  0
 12 14  1  0
 14 15  1  0
 15 16  1  0
 16 17  1  0
 18 19  1  0
 18 20  2  3
 20 21  1  0
 21 22  2  0
 21 23  1  0
M  END
