
     RDKit          3D

 23 25  0  0  0  0  0  0  0  0999 V2000
    2.5450   -2.5240    2.1690 C   0  0  0  0  0  0  0  0  0  0  0  0
    3.4970   -2.2550    1.3330 C   0  0  0  0  0  0  0  0  0  0  0  0
    3.6690   -1.1430    0.4450 C   0  0  0  0  0  0  0  0  0  0  0  0
    4.8100   -1.0750   -0.2280 C   0  0  0  0  0  0  0  0  0  0  0  0
    5.5760   -0.2920   -1.1980 C   0  0  0  0  0  0  0  0  0  0  0  0
    5.1510    1.0590   -1.5590 C   0  0  0  0  0  0  0  0  0  0  0  0
    4.6720    1.9720   -0.5260 C   0  0  0  0  0  0  0  0  0  0  0  0
    3.5760    2.0460    0.2650 C   0  0  0  0  0  0  0  0  0  0  0  0
    2.4290    1.0870    0.2940 C   0  0  0  0  0  0  0  0  0  0  0  0
    2.5120   -0.2560    0.3630 C   0  0  0  0  0  0  0  0  0  0  0  0
    1.2410   -0.9080    0.2220 C   0  0  0  0  0  0  0  0  0  0  0  0
    1.0580   -2.1450    0.1430 O   0  0  0  0  0  0  0  0  0  0  0  0
    0.0510   -0.1610    0.1650 O   0  0  0  0  0  0  0  0  0  0  0  0
   -1.2100   -0.8020    0.0300 C   0  0  0  0  0  0  0  0  0  0  0  0
   -2.2670    0.2050    0.0060 C   0  0  1  0  0  0  0  0  0  0  0  0
   -2.3790    1.0830    1.2120 C   0  0  0  0  0  0  0  0  0  0  0  0
   -3.8050    1.6500    1.1190 C   0  0  0  0  0  0  0  0  0  0  0  0
   -4.3900    1.0040   -0.0990 C   0  0  1  0  0  0  0  0  0  0  0  0
   -3.7140    1.6230   -1.3050 C   0  0  0  0  0  0  0  0  0  0  0  0
   -2.2730    1.0960   -1.2160 C   0  0  0  0  0  0  0  0  0  0  0  0
   -3.6830   -0.3620   -0.0680 C   0  0  2  0  0  0  0  0  0  0  0  0
   -4.0610   -1.1230    1.1590 C   0  0  0  0  0  0  0  0  0  0  0  0
   -3.9350   -1.1310   -1.3130 C   0  0  0  0  0  0  0  0  0  0  0  0
  1  2  2  0
  2  3  1  0
  3  4  2  0
  3 10  1  0
  4  5  1  0
  5  6  1  0
  6  7  1  0
  7  8  2  0
  8  9  1  0
  9 10  2  0
 10 11  1  0
 11 12  2  0
 11 13  1  0
 13 14  1  0
 15 14  1  1
 15 16  1  0
 15 20  1  0
 15 21  1  0
 16 17  1  0
 18 17  1  1
 18 19  1  0
 18 21  1  0
 19 20  1  0
 21 22  1  1
 21 23  1  0
M  END
