
     RDKit          3D

 23 24  0  0  0  0  0  0  0  0999 V2000
    6.1810   -1.1000    2.4050 C   0  0  0  0  0  0  0  0  0  0  0  0
    5.7060   -1.1710    0.9780 C   0  0  0  0  0  0  0  0  0  0  0  0
    4.3660   -0.5460    0.8010 C   0  0  0  0  0  0  0  0  0  0  0  0
    3.4180   -1.3550    0.3450 C   0  0  0  0  0  0  0  0  0  0  0  0
    2.0060   -1.1620    0.0360 C   0  0  0  0  0  0  0  0  0  0  0  0
    1.1760   -0.1480   -0.3400 C   0  0  0  0  0  0  0  0  0  0  0  0
   -0.2130   -0.4760   -0.5310 C   0  0  2  0  0  0  0  0  0  0  0  0
   -0.6750   -0.9070   -1.8920 C   0  0  0  0  0  0  0  0  0  0  0  0
   -1.4360   -2.2600   -1.8310 C   0  0  0  0  0  0  0  0  0  0  0  0
   -2.5230   -1.9550   -0.7870 C   0  0  0  0  0  0  0  0  0  0  0  0
   -2.9970   -0.7100   -1.0900 O   0  0  0  0  0  0  0  0  0  0  0  0
   -2.5870    0.3320   -0.3150 C   0  0  1  0  0  0  0  0  0  0  0  0
   -2.5790    1.4750   -1.1570 O   0  0  0  0  0  0  0  0  0  0  0  0
   -3.6830    0.6080    0.6840 C   0  0  1  0  0  0  0  0  0  0  0  0
   -3.3890    1.7320    1.6220 C   0  0  0  0  0  0  0  0  0  0  0  0
   -4.9910    0.9730   -0.0330 C   0  0  0  0  0  0  0  0  0  0  0  0
   -4.0160   -0.6070    1.5290 C   0  0  0  0  0  0  0  0  0  0  0  0
   -1.2350    0.2360    0.2990 C   0  0  0  0  0  0  0  0  0  0  0  0
    1.5080    1.2370   -0.5640 C   0  0  0  0  0  0  0  0  0  0  0  0
    0.6240    1.8850   -1.4900 C   0  0  0  0  0  0  0  0  0  0  0  0
    2.4680    2.0730   -0.1230 C   0  0  0  0  0  0  0  0  0  0  0  0
    3.6120    1.8940    0.8030 C   0  0  0  0  0  0  0  0  0  0  0  0
    4.3690    0.8770    1.1790 C   0  0  0  0  0  0  0  0  0  0  0  0
  1  2  1  0
  2  3  1  0
  3  4  2  0
  3 23  1  0
  4  5  1  0
  5  6  2  0
  7  6  1  6
  6 19  1  0
  7  8  1  0
  7 18  1  0
  8  9  1  0
  9 10  1  0
 10 11  1  0
 11 12  1  0
 12 13  1  6
 12 14  1  0
 12 18  1  0
 14 15  1  1
 14 16  1  0
 14 17  1  0
 19 20  1  0
 19 21  2  0
 21 22  1  0
 22 23  2  0
M  END
