
     RDKit          3D

 23 24  0  0  0  0  0  0  0  0999 V2000
   -0.4020    2.8540   -0.2780 C   0  0  0  0  0  0  0  0  0  0  0  0
    0.8700    2.2480   -0.8450 C   0  0  0  0  0  0  0  0  0  0  0  0
    0.8440    0.8480   -0.8810 O   0  0  0  0  0  0  0  0  0  0  0  0
    0.7070   -0.0060    0.1760 C   0  0  0  0  0  0  0  0  0  0  0  0
   -0.5480   -0.3860    0.5870 C   0  0  0  0  0  0  0  0  0  0  0  0
   -1.7670    0.0560   -0.0730 C   0  0  0  0  0  0  0  0  0  0  0  0
   -2.8370    0.5900    0.6130 C   0  0  0  0  0  0  0  0  0  0  0  0
   -3.9920    0.9930   -0.0470 C   0  0  0  0  0  0  0  0  0  0  0  0
   -5.1270    1.5690    0.7090 C   0  0  0  0  0  0  0  0  0  0  0  0
   -4.1110    0.8730   -1.4110 C   0  0  0  0  0  0  0  0  0  0  0  0
   -3.0470    0.3410   -2.1040 C   0  0  0  0  0  0  0  0  0  0  0  0
   -3.1530    0.1930   -3.5930 C   0  0  0  0  0  0  0  0  0  0  0  0
   -1.9040   -0.0570   -1.4440 C   0  0  0  0  0  0  0  0  0  0  0  0
   -0.6280   -1.2560    1.6710 C   0  0  0  0  0  0  0  0  0  0  0  0
    0.4690   -1.7480    2.3400 C   0  0  0  0  0  0  0  0  0  0  0  0
    0.3320   -2.6830    3.5000 C   0  0  0  0  0  0  0  0  0  0  0  0
    1.7350   -1.3390    1.8930 C   0  0  0  0  0  0  0  0  0  0  0  0
    2.8280   -1.8210    2.5560 O   0  0  0  0  0  0  0  0  0  0  0  0
    1.8380   -0.4770    0.8200 C   0  0  0  0  0  0  0  0  0  0  0  0
    3.1360   -0.0370    0.3620 C   0  0  0  0  0  0  0  0  0  0  0  0
    4.1680   -0.7570    0.0470 C   0  0  0  0  0  0  0  0  0  0  0  0
    4.2210   -2.2310    0.0930 C   0  0  0  0  0  0  0  0  0  0  0  0
    5.4400   -0.0850   -0.4120 C   0  0  0  0  0  0  0  0  0  0  0  0
  1  2  1  0
  2  3  1  0
  3  4  1  0
  4  5  2  0
  4 19  1  0
  5  6  1  0
  5 14  1  0
  6  7  2  0
  6 13  1  0
  7  8  1  0
  8  9  1  0
  8 10  2  0
 10 11  1  0
 11 12  1  0
 11 13  2  0
 14 15  2  0
 15 16  1  0
 15 17  1  0
 17 18  1  0
 17 19  2  0
 19 20  1  0
 20 21  2  3
 21 22  1  0
 21 23  1  0
M  END
