
     RDKit          3D

 23 24  0  0  0  0  0  0  0  0999 V2000
   -1.1640   -4.2670    1.5800 C   0  0  0  0  0  0  0  0  0  0  0  0
   -1.5380   -3.0630    0.8140 C   0  0  0  0  0  0  0  0  0  0  0  0
   -0.7480   -1.9130    0.8490 C   0  0  0  0  0  0  0  0  0  0  0  0
   -1.0480   -0.7770    0.1570 C   0  0  0  0  0  0  0  0  0  0  0  0
   -0.2280    0.4200    0.0450 C   0  0  0  0  0  0  0  0  0  0  0  0
    1.1970    0.4050    0.1000 C   0  0  0  0  0  0  0  0  0  0  0  0
    1.9460   -0.6350    0.2310 C   0  0  0  0  0  0  0  0  0  0  0  0
    3.4550   -0.4640    0.2790 C   0  0  2  0  0  0  0  0  0  0  0  0
    3.9200   -1.4070    1.3900 C   0  0  0  0  0  0  0  0  0  0  0  0
    3.8450    0.9410    0.6320 C   0  0  0  0  0  0  0  0  0  0  0  0
    3.9800   -0.8730   -1.0650 C   0  0  0  0  0  0  0  0  0  0  0  0
   -0.8300    1.6060   -0.1560 C   0  0  0  0  0  0  0  0  0  0  0  0
   -0.1330    2.8570   -0.2860 C   0  0  0  0  0  0  0  0  0  0  0  0
   -0.8550    3.9830   -0.4850 C   0  0  0  0  0  0  0  0  0  0  0  0
   -0.3160    5.3150   -0.6370 C   0  0  0  0  0  0  0  0  0  0  0  0
   -1.3060    6.1800   -0.6260 C   0  0  0  0  0  0  0  0  0  0  0  0
   -2.5170    5.5230   -0.4740 O   0  0  0  0  0  0  0  0  0  0  0  0
   -2.3200    4.1090   -0.5910 C   0  0  0  0  0  0  0  0  0  0  0  0
   -2.2240   -0.7970   -0.6190 C   0  0  0  0  0  0  0  0  0  0  0  0
   -3.0170   -1.9190   -0.6670 C   0  0  0  0  0  0  0  0  0  0  0  0
   -4.2610   -1.9570   -1.4800 C   0  0  0  0  0  0  0  0  0  0  0  0
   -2.6680   -3.0490    0.0520 C   0  0  0  0  0  0  0  0  0  0  0  0
   -3.4830   -4.1610   -0.0160 O   0  0  0  0  0  0  0  0  0  0  0  0
  1  2  1  0
  2  3  2  0
  2 22  1  0
  3  4  1  0
  4  5  1  0
  4 19  2  0
  5  6  1  0
  5 12  2  3
  6  7  2  3
  7  8  1  0
  8  9  1  1
  8 10  1  0
  8 11  1  0
 12 13  1  0
 13 14  2  3
 14 15  1  0
 14 18  1  0
 15 16  2  0
 16 17  1  0
 17 18  1  0
 19 20  1  0
 20 21  1  0
 20 22  2  0
 22 23  1  0
M  END
