
     RDKit          3D

 21 21  0  0  0  0  0  0  0  0999 V2000
    5.5250    0.2520    0.6140 C   0  0  0  0  0  0  0  0  0  0  0  0
    4.7910   -0.5980   -0.3980 C   0  0  0  0  0  0  0  0  0  0  0  0
    3.3220   -0.5060   -0.2720 C   0  0  0  0  0  0  0  0  0  0  0  0
    2.6650   -1.1270    0.7560 C   0  0  0  0  0  0  0  0  0  0  0  0
    3.3360   -1.8640    1.7550 N   0  0  0  0  0  0  0  0  0  0  0  0
    2.8040   -1.9370    2.8980 O   0  0  0  0  0  0  0  0  0  0  0  0
    4.5140   -2.4910    1.5520 O   0  0  0  0  0  0  0  0  0  0  0  0
    1.2680   -0.9860    0.7820 C   0  0  0  0  0  0  0  0  0  0  0  0
    0.5780   -0.2640   -0.1660 C   0  0  0  0  0  0  0  0  0  0  0  0
   -0.8030   -0.1610   -0.0870 O   0  0  0  0  0  0  0  0  0  0  0  0
   -1.3530    0.8890    0.6280 C   0  0  0  0  0  0  0  0  0  0  0  0
   -0.5670    1.7020    1.1740 O   0  0  0  0  0  0  0  0  0  0  0  0
   -2.8070    1.0920    0.7760 C   0  0  0  0  0  0  0  0  0  0  0  0
   -3.5540    0.0580    0.0800 N   0  0  0  0  0  0  0  0  0  0  0  0
   -4.9640    0.3050    0.2620 C   0  0  0  0  0  0  0  0  0  0  0  0
   -5.7350   -0.1380   -0.9880 C   0  0  0  0  0  0  0  0  0  0  0  0
   -5.5460   -1.4780   -1.2170 O   0  0  0  0  0  0  0  0  0  0  0  0
    1.2500    0.3560   -1.1940 C   0  0  0  0  0  0  0  0  0  0  0  0
    0.3930    1.2910   -2.4290 Cl  0  0  0  0  0  0  0  0  0  0  0  0
    2.6170    0.2320   -1.2420 C   0  0  0  0  0  0  0  0  0  0  0  0
    3.3160    0.8490   -2.2690 O   0  0  0  0  0  0  0  0  0  0  0  0
  1  2  1  0
  2  3  1  0
  3  4  2  0
  3 20  1  0
  4  5  1  0
  4  8  1  0
  5  6  2  0
  5  7  1  0
  8  9  2  0
  9 10  1  0
  9 18  1  0
 10 11  1  0
 11 12  2  0
 11 13  1  0
 13 14  1  0
 14 15  1  0
 15 16  1  0
 16 17  1  0
 18 19  1  0
 18 20  2  0
 20 21  1  0
M  CHG  3   5   1   7  -1  14   1
M  END
