
     RDKit          3D

 21 21  0  0  0  0  0  0  0  0999 V2000
   -4.4430   -1.7420    1.6860 C   0  0  0  0  0  0  0  0  0  0  0  0
   -3.3220   -1.4760    0.8960 O   0  0  0  0  0  0  0  0  0  0  0  0
   -3.4230   -0.5510   -0.1340 C   0  0  0  0  0  0  0  0  0  0  0  0
   -4.6080    0.1080   -0.3900 C   0  0  0  0  0  0  0  0  0  0  0  0
   -4.6780    1.0280   -1.4280 C   0  0  0  0  0  0  0  0  0  0  0  0
   -5.8690    1.7010   -1.6970 O   0  0  0  0  0  0  0  0  0  0  0  0
   -3.5510    1.2680   -2.1890 C   0  0  0  0  0  0  0  0  0  0  0  0
   -3.6210    2.4240   -3.5010 Cl  0  0  0  0  0  0  0  0  0  0  0  0
   -2.3610    0.6020   -1.9280 C   0  0  0  0  0  0  0  0  0  0  0  0
   -2.2900   -0.3120   -0.8970 C   0  0  0  0  0  0  0  0  0  0  0  0
   -1.1190   -0.9980   -0.6040 O   0  0  0  0  0  0  0  0  0  0  0  0
   -0.2370   -0.4280    0.3030 C   0  0  0  0  0  0  0  0  0  0  0  0
   -0.4360    0.6730    0.8750 O   0  0  0  0  0  0  0  0  0  0  0  0
    0.9290   -1.1160    0.5920 O   0  0  0  0  0  0  0  0  0  0  0  0
    1.9280   -0.6950    1.4750 C   0  0  0  0  0  0  0  0  0  0  0  0
    2.5380    0.6240    1.0660 C   0  0  1  0  0  0  0  0  0  0  0  0
    3.5730    1.0230    2.0090 N   0  0  0  0  0  0  0  0  0  0  0  0
    3.0900    0.5980   -0.3220 C   0  0  0  0  0  0  0  0  0  0  0  0
    4.1670   -0.4500   -0.4410 C   0  0  0  0  0  0  0  0  0  0  0  0
    4.7280   -0.5080   -1.7700 N   0  0  0  0  0  0  0  0  0  0  0  0
    5.9960    0.0180   -1.7680 O   0  0  0  0  0  0  0  0  0  0  0  0
  1  2  1  0
  2  3  1  0
  3  4  2  0
  3 10  1  0
  4  5  1  0
  5  6  1  0
  5  7  2  0
  7  8  1  0
  7  9  1  0
  9 10  2  0
 10 11  1  0
 11 12  1  0
 12 13  2  0
 12 14  1  0
 14 15  1  0
 15 16  1  0
 16 17  1  1
 16 18  1  0
 18 19  1  0
 19 20  1  0
 20 21  1  0
M  CHG  3  17   1  20   1  21  -1
M  END
