
     RDKit          3D

 21 21  0  0  0  0  0  0  0  0999 V2000
   -2.0170    2.6190   -1.4900 N   0  0  0  0  0  0  0  0  0  0  0  0
   -1.8360    3.0610   -0.1350 C   0  0  0  0  0  0  0  0  0  0  0  0
   -1.5750    1.8260    0.7530 C   0  0  2  0  0  0  0  0  0  0  0  0
   -1.3910    2.2630    2.1360 N   0  0  0  0  0  0  0  0  0  0  0  0
   -0.1270    2.7060    2.5950 C   0  0  0  0  0  0  0  0  0  0  0  0
    0.1230    2.8800    3.8260 O   0  0  0  0  0  0  0  0  0  0  0  0
    0.9400    2.9750    1.6030 C   0  0  0  0  0  0  0  0  0  0  0  0
    0.8230    2.1300    0.4970 O   0  0  0  0  0  0  0  0  0  0  0  0
   -0.3020    1.2750    0.2880 C   0  0  0  0  0  0  0  0  0  0  0  0
   -0.1290    0.1160   -0.2770 C   0  0  0  0  0  0  0  0  0  0  0  0
   -1.1860   -0.8180   -0.5340 C   0  0  0  0  0  0  0  0  0  0  0  0
   -2.3880   -0.6390   -0.2770 O   0  0  0  0  0  0  0  0  0  0  0  0
   -0.8380   -2.1180   -1.1550 C   0  0  0  0  0  0  0  0  0  0  0  0
   -1.7650   -3.0130   -1.4340 C   0  0  0  0  0  0  0  0  0  0  0  0
   -1.3830   -4.2110   -2.0140 O   0  0  0  0  0  0  0  0  0  0  0  0
    0.5180   -2.3760   -1.4310 N   0  0  0  0  0  0  0  0  0  0  0  0
    1.4770   -2.5010   -0.3740 C   0  0  0  0  0  0  0  0  0  0  0  0
    1.0570   -2.3790    0.8200 O   0  0  0  0  0  0  0  0  0  0  0  0
    2.8960   -2.7630   -0.6820 C   0  0  0  0  0  0  0  0  0  0  0  0
    3.6500   -2.8170    0.6440 C   0  0  0  0  0  0  0  0  0  0  0  0
    3.4310   -1.2350    1.4320 Cl  0  0  0  0  0  0  0  0  0  0  0  0
  1  2  1  0
  3  2  1  6
  3  4  1  0
  3  9  1  0
  4  5  1  0
  5  6  2  0
  5  7  1  0
  7  8  1  0
  8  9  1  0
  9 10  2  3
 10 11  1  0
 11 12  2  0
 11 13  1  0
 13 14  2  3
 13 16  1  0
 14 15  1  0
 16 17  1  0
 17 18  2  0
 17 19  1  0
 19 20  1  0
 20 21  1  0
M  CHG  1   1   1
M  END
