
     RDKit          3D

 21 21  0  0  0  0  0  0  0  0999 V2000
   -0.9070    4.6180   -0.0690 C   0  0  0  0  0  0  0  0  0  0  0  0
   -1.3470    3.2890   -0.2430 O   0  0  0  0  0  0  0  0  0  0  0  0
   -0.7430    2.2040    0.4000 C   0  0  0  0  0  0  0  0  0  0  0  0
    0.2170    2.3820    1.1580 O   0  0  0  0  0  0  0  0  0  0  0  0
   -1.3440    0.8730    0.0960 C   0  0  0  0  0  0  0  0  0  0  0  0
   -0.6580   -0.2520    0.8040 C   0  0  1  0  0  0  0  0  0  0  0  0
   -1.3230   -1.4860    0.4680 N   0  0  0  0  0  0  0  0  0  0  0  0
   -2.0910   -1.4670   -0.7350 C   0  0  0  0  0  0  0  0  0  0  0  0
   -3.0820   -2.6410   -0.6360 C   0  0  0  0  0  0  0  0  0  0  0  0
   -2.3200   -3.7950   -0.5160 O   0  0  0  0  0  0  0  0  0  0  0  0
    0.7920   -0.3110    0.4690 C   0  0  0  0  0  0  0  0  0  0  0  0
    1.3590    0.4180   -0.5530 C   0  0  0  0  0  0  0  0  0  0  0  0
    2.7100    0.3380   -0.8550 C   0  0  0  0  0  0  0  0  0  0  0  0
    3.2580    1.0990   -1.9080 N   0  0  0  0  0  0  0  0  0  0  0  0
    2.5120    1.8460   -2.5690 O   0  0  0  0  0  0  0  0  0  0  0  0
    4.5850    1.0640   -2.2550 O   0  0  0  0  0  0  0  0  0  0  0  0
    3.4730   -0.5120   -0.0800 C   0  0  0  0  0  0  0  0  0  0  0  0
    2.9110   -1.2530    0.9530 C   0  0  0  0  0  0  0  0  0  0  0  0
    3.6870   -2.1040    1.7250 O   0  0  0  0  0  0  0  0  0  0  0  0
    1.5660   -1.1590    1.2370 C   0  0  0  0  0  0  0  0  0  0  0  0
    0.8660   -2.1030    2.5510 Cl  0  0  0  0  0  0  0  0  0  0  0  0
  1  2  1  0
  2  3  1  0
  3  4  2  0
  3  5  1  0
  6  5  1  6
  6  7  1  0
  6 11  1  0
  7  8  1  0
  8  9  1  0
  9 10  1  0
 11 12  2  0
 11 20  1  0
 12 13  1  0
 13 14  1  0
 13 17  2  0
 14 15  2  0
 14 16  1  0
 17 18  1  0
 18 19  1  0
 18 20  2  0
 20 21  1  0
M  CHG  3   7   1  14   1  16  -1
M  END
