
     RDKit          3D

 20 20  0  0  0  0  0  0  0  0999 V2000
    1.4840   -2.9270    1.4650 C   0  0  0  0  0  0  0  0  0  0  0  0
    1.1090   -1.5890    1.3590 O   0  0  0  0  0  0  0  0  0  0  0  0
    1.6980   -0.7370    0.4350 C   0  0  0  0  0  0  0  0  0  0  0  0
    2.6780   -1.2380   -0.3960 C   0  0  0  0  0  0  0  0  0  0  0  0
    3.3070   -0.4580   -1.3350 C   0  0  0  0  0  0  0  0  0  0  0  0
    2.9580    0.8850   -1.4690 C   0  0  0  0  0  0  0  0  0  0  0  0
    3.5910    1.7120   -2.4290 N   0  0  0  0  0  0  0  0  0  0  0  0
    4.4660    1.2190   -3.1530 O   0  0  0  0  0  0  0  0  0  0  0  0
    3.2470    3.0110   -2.5520 O   0  0  0  0  0  0  0  0  0  0  0  0
    1.9670    1.3650   -0.6180 C   0  0  0  0  0  0  0  0  0  0  0  0
    1.3320    0.5880    0.3260 C   0  0  0  0  0  0  0  0  0  0  0  0
    0.3370    1.1390    1.1540 N   0  0  0  0  0  0  0  0  0  0  0  0
   -0.9970    0.5600    0.9120 C   0  0  1  0  0  0  0  0  0  0  0  0
   -1.7520    0.8020    2.1910 C   0  0  0  0  0  0  0  0  0  0  0  0
   -3.0450    0.3360    2.2000 O   0  0  0  0  0  0  0  0  0  0  0  0
   -1.5900    1.1960   -0.2970 C   0  0  1  0  0  0  0  0  0  0  0  0
   -0.7050    0.9170   -1.3640 O   0  0  0  0  0  0  0  0  0  0  0  0
   -2.9840    0.7990   -0.6140 C   0  0  0  0  0  0  0  0  0  0  0  0
   -3.1770   -0.6590   -0.8690 C   0  0  0  0  0  0  0  0  0  0  0  0
   -2.4300   -1.1380   -1.9380 O   0  0  0  0  0  0  0  0  0  0  0  0
  1  2  1  0
  2  3  1  0
  3  4  2  0
  3 11  1  0
  4  5  1  0
  5  6  2  0
  6  7  1  0
  6 10  1  0
  7  8  2  0
  7  9  1  0
 10 11  2  0
 11 12  1  0
 12 13  1  0
 13 14  1  1
 13 16  1  0
 14 15  1  0
 16 17  1  6
 16 18  1  0
 18 19  1  0
 19 20  1  0
M  CHG  3   7   1   9  -1  12   1
M  END
