
     RDKit          3D

 24 27  0  0  0  0  0  0  0  0999 V2000
    0.6120   -2.2530    2.6740 C   0  0  0  0  0  0  0  0  0  0  0  0
    0.4490   -2.3360    1.1470 C   0  0  0  0  0  0  0  0  0  0  0  0
    0.5130   -1.0230    0.5660 N   0  0  0  0  0  0  0  0  0  0  0  0
    1.6510   -0.6300   -0.1720 C   0  0  0  0  0  0  0  0  0  0  0  0
    2.6640   -1.5230   -0.5100 C   0  0  0  0  0  0  0  0  0  0  0  0
    3.7940   -1.1410   -1.2330 C   0  0  0  0  0  0  0  0  0  0  0  0
    4.7930   -2.1050   -1.5420 N   0  0  0  0  0  0  0  0  0  0  0  0
    3.8840    0.1720   -1.6130 C   0  0  0  0  0  0  0  0  0  0  0  0
    2.8850    1.0990   -1.2910 C   0  0  0  0  0  0  0  0  0  0  0  0
    1.7740    0.7050   -0.5750 C   0  0  0  0  0  0  0  0  0  0  0  0
    0.7420    1.6700   -0.2410 C   0  0  0  0  0  0  0  0  0  0  0  0
    0.8290    3.0190   -0.5480 C   0  0  0  0  0  0  0  0  0  0  0  0
   -0.1760    3.9060   -0.1420 C   0  0  0  0  0  0  0  0  0  0  0  0
   -1.2820    3.5030    0.5680 C   0  0  0  0  0  0  0  0  0  0  0  0
   -2.2700    4.4390    0.9590 N   0  0  0  0  0  0  0  0  0  0  0  0
   -1.3580    2.1610    0.8670 C   0  0  0  0  0  0  0  0  0  0  0  0
   -0.3630    1.2550    0.4690 C   0  0  0  0  0  0  0  0  0  0  0  0
   -0.6150   -0.1540    0.8210 C   0  0  1  0  0  0  0  0  0  0  0  0
   -1.8440   -0.6530    0.0970 C   0  0  0  0  0  0  0  0  0  0  0  0
   -1.7320   -1.1150   -1.2090 C   0  0  0  0  0  0  0  0  0  0  0  0
   -2.8540   -1.5540   -1.8790 C   0  0  0  0  0  0  0  0  0  0  0  0
   -4.0970   -1.5420   -1.2660 C   0  0  0  0  0  0  0  0  0  0  0  0
   -4.2050   -1.0880    0.0170 C   0  0  0  0  0  0  0  0  0  0  0  0
   -3.0910   -0.6540    0.6760 C   0  0  0  0  0  0  0  0  0  0  0  0
  1  2  1  0
  2  3  1  0
  3  4  1  0
  3 18  1  0
  4  5  2  0
  4 10  1  0
  5  6  1  0
  6  7  1  0
  6  8  2  0
  8  9  1  0
  9 10  2  0
 10 11  1  0
 11 12  2  0
 11 17  1  0
 12 13  1  0
 13 14  2  0
 14 15  1  0
 14 16  1  0
 16 17  2  0
 17 18  1  0
 18 19  1  6
 19 20  2  0
 19 24  1  0
 20 21  1  0
 21 22  2  0
 22 23  1  0
 23 24  2  0
M  END
