
     RDKit          3D

 21 20  0  0  0  0  0  0  0  0999 V2000
   -2.5170    1.8800   -2.5310 C   0  0  0  0  0  0  0  0  0  0  0  0
   -1.5090    1.8630   -1.4970 C   0  0  0  0  0  0  0  0  0  0  0  0
   -0.9020    3.1540   -1.2880 O   0  0  0  0  0  0  0  0  0  0  0  0
   -1.0730    0.9100   -0.7460 C   0  0  0  0  0  0  0  0  0  0  0  0
    0.0100    1.3770    0.2020 C   0  0  0  0  0  0  0  0  0  0  0  0
    0.3600    2.6130    0.1500 O   0  0  0  0  0  0  0  0  0  0  0  0
    0.6620    0.6400    1.1090 O   0  0  0  0  0  0  0  0  0  0  0  0
    1.6600    1.1580    1.9530 C   0  0  0  0  0  0  0  0  0  0  0  0
    2.8350    1.7240    1.2280 C   0  0  0  0  0  0  0  0  0  0  0  0
    3.4320    0.7020    0.4410 O   0  0  0  0  0  0  0  0  0  0  0  0
    3.9080   -0.4200    1.1150 C   0  0  0  0  0  0  0  0  0  0  0  0
    5.0100   -0.3410    1.8160 C   0  0  0  0  0  0  0  0  0  0  0  0
    5.6890    0.8740    1.8730 O   0  0  0  0  0  0  0  0  0  0  0  0
    3.1870   -1.7230    1.0580 C   0  0  0  0  0  0  0  0  0  0  0  0
    3.0570   -2.3250   -0.5990 Cl  0  0  0  0  0  0  0  0  0  0  0  0
   -1.4940   -0.4850   -0.6440 C   0  0  0  0  0  0  0  0  0  0  0  0
   -0.8930   -1.3510    0.1740 C   0  0  0  0  0  0  0  0  0  0  0  0
   -1.3440   -2.6980    0.2360 N   0  0  0  0  0  0  0  0  0  0  0  0
   -2.5610   -2.7770    0.8060 O   0  0  0  0  0  0  0  0  0  0  0  0
   -2.6200   -1.0000   -1.4550 C   0  0  0  0  0  0  0  0  0  0  0  0
   -3.8300   -0.3460   -1.0580 N   0  0  0  0  0  0  0  0  0  0  0  0
  1  2  1  0
  2  3  1  0
  2  4  2  3
  4  5  1  0
  4 16  1  0
  5  6  2  0
  5  7  1  0
  7  8  1  0
  8  9  1  0
  9 10  1  0
 10 11  1  0
 11 12  2  3
 11 14  1  0
 12 13  1  0
 14 15  1  0
 16 17  2  3
 16 20  1  0
 17 18  1  0
 18 19  1  0
 20 21  1  0
M  CHG  3  13  -1  18   1  21   1
M  END
