
     RDKit          3D

 20 20  0  0  0  0  0  0  0  0999 V2000
   -2.7140   -2.6400   -0.7640 C   0  0  0  0  0  0  0  0  0  0  0  0
   -1.2870   -2.3980   -1.2290 C   0  0  0  0  0  0  0  0  0  0  0  0
   -1.0270   -1.0810   -1.6200 O   0  0  0  0  0  0  0  0  0  0  0  0
   -1.1550    0.0150   -0.8000 C   0  0  0  0  0  0  0  0  0  0  0  0
   -2.3780    0.6510   -0.7640 C   0  0  0  0  0  0  0  0  0  0  0  0
   -3.4010    0.1490   -1.5580 O   0  0  0  0  0  0  0  0  0  0  0  0
   -4.6490    0.8130   -1.5130 C   0  0  0  0  0  0  0  0  0  0  0  0
   -2.5690    1.7640    0.0470 C   0  0  0  0  0  0  0  0  0  0  0  0
   -1.5100    2.2070    0.8050 C   0  0  0  0  0  0  0  0  0  0  0  0
   -1.6660    3.3010    1.6140 O   0  0  0  0  0  0  0  0  0  0  0  0
   -0.2700    1.5720    0.7750 C   0  0  0  0  0  0  0  0  0  0  0  0
    0.7220    2.0900    1.5670 O   0  0  0  0  0  0  0  0  0  0  0  0
   -0.0670    0.4710   -0.0220 C   0  0  0  0  0  0  0  0  0  0  0  0
    1.2060   -0.2360   -0.1160 C   0  0  0  0  0  0  0  0  0  0  0  0
    2.2810    0.2830    0.6900 N   0  0  0  0  0  0  0  0  0  0  0  0
    3.5060   -0.5200    0.4510 C   0  0  0  0  0  0  0  0  0  0  0  0
    4.5660   -0.1030    1.4430 C   0  0  0  0  0  0  0  0  0  0  0  0
    5.7700   -0.8430    1.2610 N   0  0  0  0  0  0  0  0  0  0  0  0
    5.8440   -1.7030    0.3730 O   0  0  0  0  0  0  0  0  0  0  0  0
    6.8490   -0.6100    2.0640 O   0  0  0  0  0  0  0  0  0  0  0  0
  1  2  1  0
  2  3  1  0
  3  4  1  0
  4  5  2  0
  4 13  1  0
  5  6  1  0
  5  8  1  0
  6  7  1  0
  8  9  2  0
  9 10  1  0
  9 11  1  0
 11 12  1  0
 11 13  2  0
 13 14  1  0
 14 15  1  0
 15 16  1  0
 16 17  1  0
 17 18  1  0
 18 19  2  0
 18 20  1  0
M  CHG  3  15   1  18   1  20  -1
M  END
