
     RDKit          3D

 21 21  0  0  0  0  0  0  0  0999 V2000
   -1.8830    0.9740   -3.0850 C   0  0  0  0  0  0  0  0  0  0  0  0
   -1.7590    0.7690   -1.6390 C   0  0  0  0  0  0  0  0  0  0  0  0
   -2.3560    1.6010   -0.8810 O   0  0  0  0  0  0  0  0  0  0  0  0
   -1.0250   -0.2820   -1.0730 O   0  0  0  0  0  0  0  0  0  0  0  0
   -0.9970   -0.3490    0.3110 C   0  0  0  0  0  0  0  0  0  0  0  0
   -1.9650   -1.0760    0.9840 C   0  0  0  0  0  0  0  0  0  0  0  0
   -2.9940   -1.7500    0.1720 C   0  0  0  0  0  0  0  0  0  0  0  0
   -3.9660   -2.4890    0.9450 N   0  0  0  0  0  0  0  0  0  0  0  0
   -5.1580   -2.1440    0.8530 O   0  0  0  0  0  0  0  0  0  0  0  0
   -3.6740   -3.5410    1.7710 O   0  0  0  0  0  0  0  0  0  0  0  0
   -1.9810   -1.1730    2.3600 C   0  0  0  0  0  0  0  0  0  0  0  0
   -0.9770   -0.5070    3.0400 C   0  0  0  0  0  0  0  0  0  0  0  0
   -0.9180   -0.5740    4.7840 Cl  0  0  0  0  0  0  0  0  0  0  0  0
    0.0070    0.2300    2.3840 C   0  0  0  0  0  0  0  0  0  0  0  0
    0.9650    0.8630    3.1340 O   0  0  0  0  0  0  0  0  0  0  0  0
    0.0020    0.3120    1.0100 C   0  0  0  0  0  0  0  0  0  0  0  0
    0.9260    1.0120    0.2530 O   0  0  0  0  0  0  0  0  0  0  0  0
    2.1000    0.4410   -0.2890 C   0  0  1  0  0  0  0  0  0  0  0  0
    1.8820    0.3690   -1.7840 C   0  0  0  0  0  0  0  0  0  0  0  0
    3.2730    1.2820    0.0870 C   0  0  0  0  0  0  0  0  0  0  0  0
    4.5270    0.7770   -0.4380 N   0  0  0  0  0  0  0  0  0  0  0  0
  1  2  1  0
  2  3  2  0
  2  4  1  0
  4  5  1  0
  5  6  2  0
  5 16  1  0
  6  7  1  0
  6 11  1  0
  7  8  1  0
  8  9  2  0
  8 10  1  0
 11 12  2  0
 12 13  1  0
 12 14  1  0
 14 15  1  0
 14 16  2  0
 16 17  1  0
 17 18  1  0
 18 19  1  6
 18 20  1  0
 20 21  1  0
M  CHG  3   8   1  10  -1  21   1
M  END
