
     RDKit          3D

 21 21  0  0  0  0  0  0  0  0999 V2000
    3.9680    2.6770   -0.3480 O   0  0  0  0  0  0  0  0  0  0  0  0
    3.8760    2.0740    0.7370 C   0  0  0  0  0  0  0  0  0  0  0  0
    3.9690    2.7670    1.9390 O   0  0  0  0  0  0  0  0  0  0  0  0
    3.6800    0.7010    0.7190 O   0  0  0  0  0  0  0  0  0  0  0  0
    3.5830   -0.0220   -0.5030 C   0  0  0  0  0  0  0  0  0  0  0  0
    3.3740   -1.4780   -0.2460 C   0  0  2  0  0  0  0  0  0  0  0  0
    3.2720   -2.1790   -1.4370 O   0  0  0  0  0  0  0  0  0  0  0  0
    2.2100   -1.7220    0.6900 C   0  0  2  0  0  0  0  0  0  0  0  0
    2.1360   -3.0760    1.0150 O   0  0  0  0  0  0  0  0  0  0  0  0
    0.9430   -1.2290    0.0390 C   0  0  0  0  0  0  0  0  0  0  0  0
   -0.1710   -1.3890    0.8630 O   0  0  0  0  0  0  0  0  0  0  0  0
   -1.2900   -0.9020    0.1670 C   0  0  1  0  0  0  0  0  0  0  0  0
   -1.3620   -1.6960   -1.0020 O   0  0  0  0  0  0  0  0  0  0  0  0
   -2.5490   -1.1790    0.9400 C   0  0  0  0  0  0  0  0  0  0  0  0
   -3.7660   -0.6810    0.2550 C   0  0  0  0  0  0  0  0  0  0  0  0
   -3.4790    0.3260   -0.8330 C   0  0  0  0  0  0  0  0  0  0  0  0
   -2.3980    1.2870   -0.4380 C   0  0  1  0  0  0  0  0  0  0  0  0
   -2.1930    2.1960   -1.4950 O   0  0  0  0  0  0  0  0  0  0  0  0
   -2.7620    2.0900    0.7930 C   0  0  0  0  0  0  0  0  0  0  0  0
   -1.6920    2.9610    1.0750 O   0  0  0  0  0  0  0  0  0  0  0  0
   -1.1240    0.5140   -0.2580 C   0  0  0  0  0  0  0  0  0  0  0  0
  1  2  2  0
  2  3  1  0
  2  4  1  0
  4  5  1  0
  5  6  1  0
  6  7  1  6
  6  8  1  0
  8  9  1  6
  8 10  1  0
 10 11  1  0
 11 12  1  0
 12 13  1  6
 12 14  1  0
 12 21  1  0
 14 15  1  0
 15 16  1  0
 16 17  1  0
 17 18  1  6
 17 19  1  0
 17 21  1  0
 19 20  1  0
M  END
