
     RDKit          3D

 21 21  0  0  0  0  0  0  0  0999 V2000
   -5.4590    0.6020    0.7410 C   0  0  0  0  0  0  0  0  0  0  0  0
   -4.0070    0.7540    0.4120 C   0  0  2  0  0  0  0  0  0  0  0  0
   -3.3700    1.2660    1.5650 O   0  0  0  0  0  0  0  0  0  0  0  0
   -3.8510    1.6750   -0.5840 O   0  0  0  0  0  0  0  0  0  0  0  0
   -2.8890    1.3940   -1.5140 C   0  0  0  0  0  0  0  0  0  0  0  0
   -1.6660    0.7570   -0.9230 C   0  0  0  0  0  0  0  0  0  0  0  0
   -0.3950    1.1570   -1.2080 O   0  0  0  0  0  0  0  0  0  0  0  0
   -1.8750   -0.2340   -0.0920 C   0  0  0  0  0  0  0  0  0  0  0  0
   -0.8410   -0.9860    0.5890 C   0  0  2  0  0  0  0  0  0  0  0  0
   -1.0840   -0.9800    1.9560 O   0  0  0  0  0  0  0  0  0  0  0  0
    0.5730   -0.5660    0.3190 C   0  0  0  0  0  0  0  0  0  0  0  0
    1.4780   -1.4760    1.1200 C   0  0  0  0  0  0  0  0  0  0  0  0
    2.7860   -1.0970    0.9040 O   0  0  0  0  0  0  0  0  0  0  0  0
    3.2400   -1.1490   -0.3820 C   0  0  0  0  0  0  0  0  0  0  0  0
    4.7150   -0.7150   -0.3380 C   0  0  1  0  0  0  0  0  0  0  0  0
    5.2700   -0.7360   -1.6110 O   0  0  0  0  0  0  0  0  0  0  0  0
    4.7570    0.7080    0.1920 C   0  0  2  0  0  0  0  0  0  0  0  0
    4.0060    1.4820   -0.7050 O   0  0  0  0  0  0  0  0  0  0  0  0
    6.0500    1.1500    0.3320 O   0  0  0  0  0  0  0  0  0  0  0  0
   -3.3270   -0.5740    0.1280 C   0  0  1  0  0  0  0  0  0  0  0  0
   -3.4980   -1.4070    1.2080 O   0  0  0  0  0  0  0  0  0  0  0  0
  2  1  1  1
  2  3  1  0
  2  4  1  0
  2 20  1  0
  4  5  1  0
  5  6  1  0
  6  7  1  0
  6  8  2  0
  8  9  1  0
  8 20  1  0
  9 10  1  1
  9 11  1  0
 11 12  1  0
 12 13  1  0
 13 14  1  0
 14 15  1  0
 15 16  1  6
 15 17  1  0
 17 18  1  6
 17 19  1  0
 20 21  1  1
M  END
