
     RDKit          3D

 22 22  0  0  0  0  0  0  0  0999 V2000
   -0.9040    1.6360   -2.3400 O   0  0  0  0  0  0  0  0  0  0  0  0
   -0.7250    2.1130   -1.0600 C   0  0  0  0  0  0  0  0  0  0  0  0
   -0.1860    1.0340   -0.1460 C   0  0  1  0  0  0  0  0  0  0  0  0
    0.0240    1.5000    1.2470 C   0  0  0  0  0  0  0  0  0  0  0  0
    1.3860    1.7430    1.5340 O   0  0  0  0  0  0  0  0  0  0  0  0
    2.0790    1.9360    0.4480 O   0  0  0  0  0  0  0  0  0  0  0  0
    3.4240    1.7120    0.6010 C   0  0  0  0  0  0  0  0  0  0  0  0
    3.7930    0.2350    0.6000 C   0  0  0  0  0  0  0  0  0  0  0  0
    3.2970   -0.4240   -0.4940 O   0  0  0  0  0  0  0  0  0  0  0  0
    2.9820   -1.7650   -0.2240 C   0  0  0  0  0  0  0  0  0  0  0  0
    1.9990   -2.2810   -1.2040 C   0  0  1  0  0  0  0  0  0  0  0  0
    1.8310   -3.6670   -0.9810 O   0  0  0  0  0  0  0  0  0  0  0  0
    0.7880   -1.7070   -1.2550 O   0  0  0  0  0  0  0  0  0  0  0  0
    0.1870   -1.3670   -0.0730 C   0  0  0  0  0  0  0  0  0  0  0  0
   -0.8990   -0.2840   -0.2980 C   0  0  2  0  0  0  0  0  0  0  0  0
   -1.2280   -0.3820   -1.6450 O   0  0  0  0  0  0  0  0  0  0  0  0
   -1.9710   -0.5920    0.6420 C   0  0  0  0  0  0  0  0  0  0  0  0
   -3.1680    0.2380    0.7840 C   0  0  1  0  0  0  0  0  0  0  0  0
   -3.9510   -0.4120    1.7880 O   0  0  0  0  0  0  0  0  0  0  0  0
   -2.9850    1.5020    1.3450 O   0  0  0  0  0  0  0  0  0  0  0  0
   -4.0890    0.3160   -0.3870 C   0  0  0  0  0  0  0  0  0  0  0  0
   -4.5180   -0.9340   -0.8270 O   0  0  0  0  0  0  0  0  0  0  0  0
  1  2  1  0
  3  2  1  6
  3  4  1  0
  3 15  1  0
  4  5  1  0
  5  6  1  0
  6  7  1  0
  7  8  1  0
  8  9  1  0
  9 10  1  0
 10 11  1  0
 11 12  1  1
 11 13  1  0
 13 14  1  0
 14 15  1  0
 15 16  1  6
 15 17  1  0
 17 18  1  0
 18 19  1  1
 18 20  1  0
 18 21  1  0
 21 22  1  0
M  END
