
     RDKit          3D

 28 30  0  0  0  0  0  0  0  0999 V2000
   -4.6640   -4.2490   -1.5620 C   0  0  0  0  0  0  0  0  0  0  0  0
   -3.7390   -4.0050   -0.4990 N   0  0  0  0  0  0  0  0  0  0  0  0
   -3.7940   -4.7890    0.7100 C   0  0  0  0  0  0  0  0  0  0  0  0
   -2.7580   -2.9790   -0.6360 C   0  0  0  0  0  0  0  0  0  0  0  0
   -1.8410   -2.7140    0.3710 C   0  0  0  0  0  0  0  0  0  0  0  0
   -0.8910   -1.7240    0.2480 C   0  0  0  0  0  0  0  0  0  0  0  0
   -0.8130   -0.9480   -0.8950 C   0  0  0  0  0  0  0  0  0  0  0  0
    0.1920    0.1290   -1.0510 C   0  0  1  0  0  0  0  0  0  0  0  0
   -0.3380    1.4410   -0.6080 C   0  0  0  0  0  0  0  0  0  0  0  0
   -0.3340    2.5690   -1.4120 C   0  0  0  0  0  0  0  0  0  0  0  0
   -0.8420    3.7750   -1.0080 C   0  0  0  0  0  0  0  0  0  0  0  0
   -1.3920    3.9310    0.2380 C   0  0  0  0  0  0  0  0  0  0  0  0
   -1.9280    5.1760    0.6850 N   0  0  0  0  0  0  0  0  0  0  0  0
   -1.0620    6.0650    1.4160 C   0  0  0  0  0  0  0  0  0  0  0  0
   -3.2900    5.5210    0.4070 C   0  0  0  0  0  0  0  0  0  0  0  0
   -1.4110    2.8160    1.0670 C   0  0  0  0  0  0  0  0  0  0  0  0
   -0.8940    1.6100    0.6410 C   0  0  0  0  0  0  0  0  0  0  0  0
    1.5300   -0.2030   -0.5440 C   0  0  0  0  0  0  0  0  0  0  0  0
    2.4040   -0.9360   -1.3550 C   0  0  0  0  0  0  0  0  0  0  0  0
    3.6730   -1.2850   -0.9650 C   0  0  0  0  0  0  0  0  0  0  0  0
    4.1380   -0.9120    0.2780 C   0  0  0  0  0  0  0  0  0  0  0  0
    5.4590   -1.2980    0.6330 N   0  0  0  0  0  0  0  0  0  0  0  0
    6.5730   -0.4360    0.3360 C   0  0  0  0  0  0  0  0  0  0  0  0
    5.7250   -2.5570    1.2990 C   0  0  0  0  0  0  0  0  0  0  0  0
    3.3190   -0.1940    1.1090 C   0  0  0  0  0  0  0  0  0  0  0  0
    2.0290    0.1520    0.6910 C   0  0  0  0  0  0  0  0  0  0  0  0
   -1.7290   -1.2230   -1.8860 C   0  0  0  0  0  0  0  0  0  0  0  0
   -2.6920   -2.2150   -1.7810 C   0  0  0  0  0  0  0  0  0  0  0  0
  1  2  1  0
  2  3  1  0
  2  4  1  0
  4  5  2  0
  4 28  1  0
  5  6  1  0
  6  7  2  0
  8  7  1  1
  7 27  1  0
  8  9  1  0
  8 18  1  0
  9 10  2  0
  9 17  1  0
 10 11  1  0
 11 12  2  0
 12 13  1  0
 12 16  1  0
 13 14  1  0
 13 15  1  0
 16 17  2  0
 18 19  2  0
 18 26  1  0
 19 20  1  0
 20 21  2  0
 21 22  1  0
 21 25  1  0
 22 23  1  0
 22 24  1  0
 25 26  2  0
 27 28  2  0
M  END
