
     RDKit          3D

 22 22  0  0  0  0  0  0  0  0999 V2000
   -4.6590   -0.1770   -1.1990 O   0  0  0  0  0  0  0  0  0  0  0  0
   -4.3630   -0.6190   -0.0660 C   0  0  0  0  0  0  0  0  0  0  0  0
   -5.1100   -1.7540    0.5510 C   0  0  0  0  0  0  0  0  0  0  0  0
   -4.5890   -2.0430    1.7900 O   0  0  0  0  0  0  0  0  0  0  0  0
   -3.3370   -0.0470    0.6080 O   0  0  0  0  0  0  0  0  0  0  0  0
   -2.4540    0.9490    0.3500 C   0  0  0  0  0  0  0  0  0  0  0  0
   -1.3700    0.6320   -0.6190 C   0  0  2  0  0  0  0  0  0  0  0  0
   -1.9020    0.3350   -1.9960 C   0  0  0  0  0  0  0  0  0  0  0  0
   -0.8190    0.2370   -2.9140 O   0  0  0  0  0  0  0  0  0  0  0  0
   -0.5790   -0.5860   -0.2010 C   0  0  0  0  0  0  0  0  0  0  0  0
    0.4780   -0.2510    0.8300 C   0  0  1  0  0  0  0  0  0  0  0  0
    1.2650   -1.3860    1.0020 O   0  0  0  0  0  0  0  0  0  0  0  0
    1.3060    0.8490    0.2120 C   0  0  2  0  0  0  0  0  0  0  0  0
    1.6260    0.4790   -1.0730 O   0  0  0  0  0  0  0  0  0  0  0  0
    2.4860    1.2400    1.0140 C   0  0  0  0  0  0  0  0  0  0  0  0
    3.4640    0.3330    1.2390 O   0  0  0  0  0  0  0  0  0  0  0  0
    4.1240   -0.1660    0.1450 C   0  0  0  0  0  0  0  0  0  0  0  0
    5.2290   -1.1380    0.5580 C   0  0  0  0  0  0  0  0  0  0  0  0
    4.6300   -2.1880    1.2600 O   0  0  0  0  0  0  0  0  0  0  0  0
    0.3780    2.0470    0.1060 C   0  0  2  0  0  0  0  0  0  0  0  0
   -0.0860    2.5070    1.3150 O   0  0  0  0  0  0  0  0  0  0  0  0
   -0.6080    1.7860   -0.7670 O   0  0  0  0  0  0  0  0  0  0  0  0
  1  2  2  0
  2  3  1  0
  2  5  1  0
  3  4  1  0
  5  6  1  0
  7  6  1  1
  7  8  1  0
  7 10  1  0
  7 22  1  0
  8  9  1  0
 10 11  1  0
 11 12  1  6
 11 13  1  0
 13 14  1  6
 13 15  1  0
 13 20  1  0
 15 16  1  0
 16 17  1  0
 17 18  1  0
 18 19  1  0
 20 21  1  1
 20 22  1  0
M  END
