
     RDKit          3D

 21 21  0  0  0  0  0  0  0  0999 V2000
    6.0250    1.7530   -0.1390 O   0  0  0  0  0  0  0  0  0  0  0  0
    4.8660    1.5540    0.3030 C   0  0  0  0  0  0  0  0  0  0  0  0
    4.0150    2.6530    0.3700 O   0  0  0  0  0  0  0  0  0  0  0  0
    4.4440    0.2080    0.7270 C   0  0  2  0  0  0  0  0  0  0  0  0
    5.5110   -0.6670    0.5390 O   0  0  0  0  0  0  0  0  0  0  0  0
    3.4240   -0.2020   -0.1220 O   0  0  0  0  0  0  0  0  0  0  0  0
    2.2500   -0.5190    0.5690 C   0  0  0  0  0  0  0  0  0  0  0  0
    1.2510   -0.9450   -0.5170 C   0  0  1  0  0  0  0  0  0  0  0  0
    1.9300   -2.0890   -1.2430 C   0  0  0  0  0  0  0  0  0  0  0  0
    2.1110   -3.1110   -0.3160 O   0  0  0  0  0  0  0  0  0  0  0  0
    0.0330   -1.2910    0.0100 O   0  0  0  0  0  0  0  0  0  0  0  0
   -0.9410   -0.4410   -0.4410 C   0  0  2  0  0  0  0  0  0  0  0  0
   -1.5990    0.3520    0.6710 C   0  0  0  0  0  0  0  0  0  0  0  0
   -2.5660    1.3030   -0.0050 C   0  0  2  0  0  0  0  0  0  0  0  0
   -2.0010    1.8250   -1.1690 O   0  0  0  0  0  0  0  0  0  0  0  0
   -3.0030    2.4110    0.9210 C   0  0  0  0  0  0  0  0  0  0  0  0
   -3.5550    1.7830    2.0580 O   0  0  0  0  0  0  0  0  0  0  0  0
   -3.7570    0.4540   -0.4480 C   0  0  0  0  0  0  0  0  0  0  0  0
   -3.3810   -1.0010   -0.5440 C   0  0  0  0  0  0  0  0  0  0  0  0
   -2.0250   -1.2220   -1.1390 C   0  0  2  0  0  0  0  0  0  0  0  0
   -1.7500   -2.5820   -1.1020 O   0  0  0  0  0  0  0  0  0  0  0  0
  1  2  2  0
  2  3  1  0
  2  4  1  0
  4  5  1  6
  4  6  1  0
  6  7  1  0
  8  7  1  1
  8  9  1  0
  8 11  1  0
  9 10  1  0
 12 11  1  1
 12 13  1  0
 12 20  1  0
 13 14  1  0
 14 15  1  6
 14 16  1  0
 14 18  1  0
 16 17  1  0
 18 19  1  0
 19 20  1  0
 20 21  1  1
M  END
