
     RDKit          3D

 23 25  0  0  0  0  0  0  0  0999 V2000
    2.7810   -2.7250    0.5110 C   0  0  0  0  0  0  0  0  0  0  0  0
    1.4470   -2.1260    0.7950 C   0  0  0  0  0  0  0  0  0  0  0  0
    1.2390   -0.8650    0.3740 C   0  0  0  0  0  0  0  0  0  0  0  0
    2.3660   -0.3030   -0.2930 N   0  0  0  0  0  0  0  0  0  0  0  0
    2.4350    0.9960   -0.8410 C   0  0  0  0  0  0  0  0  0  0  0  0
    1.4480    1.7680   -0.7640 O   0  0  0  0  0  0  0  0  0  0  0  0
    3.6680    1.4630   -1.5100 C   0  0  0  0  0  0  0  0  0  0  0  0
    3.8460    2.6940   -2.0730 C   0  0  0  0  0  0  0  0  0  0  0  0
    5.1490    2.7270   -2.5950 C   0  0  0  0  0  0  0  0  0  0  0  0
    5.6710    1.4880   -2.3030 C   0  0  0  0  0  0  0  0  0  0  0  0
    4.7610    0.7960   -1.6700 O   0  0  0  0  0  0  0  0  0  0  0  0
    0.0940    0.0010    0.4820 C   0  0  0  0  0  0  0  0  0  0  0  0
   -1.1600   -0.4250    1.1200 C   0  0  1  0  0  0  0  0  0  0  0  0
   -2.3640    0.0910    0.3700 C   0  0  0  0  0  0  0  0  0  0  0  0
   -3.2340    0.9810    0.9490 C   0  0  0  0  0  0  0  0  0  0  0  0
   -4.3440    1.4820    0.3110 C   0  0  0  0  0  0  0  0  0  0  0  0
   -5.2830    2.4510    0.9520 C   0  0  0  0  0  0  0  0  0  0  0  0
   -4.5410    1.0270   -0.9820 C   0  0  0  0  0  0  0  0  0  0  0  0
   -3.6690    0.1400   -1.5520 C   0  0  0  0  0  0  0  0  0  0  0  0
   -2.6050   -0.3150   -0.8860 N   0  0  0  0  0  0  0  0  0  0  0  0
   -1.4090   -1.8500    1.3870 C   0  0  0  0  0  0  0  0  0  0  0  0
   -0.4420   -2.4190    2.3380 N   0  0  0  0  0  0  0  0  0  0  0  0
    0.5460   -3.0160    1.4970 C   0  0  0  0  0  0  0  0  0  0  0  0
  1  2  1  0
  2  3  2  0
  2 23  1  0
  3  4  1  0
  3 12  1  0
  4  5  1  0
  5  6  2  0
  5  7  1  0
  7  8  2  0
  7 11  1  0
  8  9  1  0
  9 10  2  0
 10 11  1  0
 12 13  1  0
 13 14  1  6
 13 21  1  0
 14 15  2  0
 14 20  1  0
 15 16  1  0
 16 17  1  0
 16 18  2  0
 18 19  1  0
 19 20  2  0
 21 22  1  0
 22 23  1  0
M  CHG  1  20   1
M  END
