
     RDKit          3D

 19 20  0  0  0  0  0  0  0  0999 V2000
    3.6940    2.2970   -1.1360 C   0  0  0  0  0  0  0  0  0  0  0  0
    2.2980    2.6070   -0.9180 N   0  0  0  0  0  0  0  0  0  0  0  0
    1.6770    1.6260    0.0000 C   0  0  0  0  0  0  0  0  0  0  0  0
    1.3740    0.3770   -0.7040 C   0  0  0  0  0  0  0  0  0  0  0  0
    0.7650   -0.7640   -0.0360 C   0  0  1  0  0  0  0  0  0  0  0  0
   -0.5910   -0.4760    0.5570 C   0  0  1  0  0  0  0  0  0  0  0  0
   -0.3840    0.5520    1.5110 O   0  0  0  0  0  0  0  0  0  0  0  0
   -1.5660    0.1020   -0.4480 C   0  0  0  0  0  0  0  0  0  0  0  0
   -2.8880    0.3620    0.1850 C   0  0  0  0  0  0  0  0  0  0  0  0
   -3.3080    0.1500    1.3980 C   0  0  0  0  0  0  0  0  0  0  0  0
   -4.6950    0.5980    1.4640 C   0  0  0  0  0  0  0  0  0  0  0  0
   -5.5260    0.5510    2.5860 O   0  0  0  0  0  0  0  0  0  0  0  0
   -5.0260    1.0460    0.3110 N   0  0  0  0  0  0  0  0  0  0  0  0
   -3.9600    0.9380   -0.5490 N   0  0  0  0  0  0  0  0  0  0  0  0
    0.5790   -1.8720   -1.0810 C   0  0  0  0  0  0  0  0  0  0  0  0
    0.4900   -3.2010   -0.3990 C   0  0  0  0  0  0  0  0  0  0  0  0
    1.7750   -3.5530    0.0110 O   0  0  0  0  0  0  0  0  0  0  0  0
    2.5200   -2.4280    0.4160 C   0  0  0  0  0  0  0  0  0  0  0  0
    1.5670   -1.4330    1.0460 C   0  0  0  0  0  0  0  0  0  0  0  0
  1  2  1  0
  2  3  1  0
  3  4  1  0
  5  4  1  6
  5  6  1  0
  5 15  1  0
  5 19  1  0
  6  7  1  1
  6  8  1  0
  8  9  1  0
  9 10  2  0
  9 14  1  0
 10 11  1  0
 11 12  1  0
 11 13  2  0
 13 14  1  0
 15 16  1  0
 16 17  1  0
 17 18  1  0
 18 19  1  0
M  CHG  2   2   1  14   1
M  END
