
     RDKit          3D

 25 29  0  0  0  0  0  0  0  0999 V2000
    5.9690    1.5110    0.4080 C   0  0  0  0  0  0  0  0  0  0  0  0
    5.0660    0.5520    0.9330 O   0  0  0  0  0  0  0  0  0  0  0  0
    3.6830    0.6660    0.7300 C   0  0  0  0  0  0  0  0  0  0  0  0
    3.1510    1.8730    0.7350 C   0  0  0  0  0  0  0  0  0  0  0  0
    1.7240    2.0480    0.5270 C   0  0  0  0  0  0  0  0  0  0  0  0
    0.9710    1.0050    0.3300 C   0  0  0  0  0  0  0  0  0  0  0  0
   -0.5250    1.2260    0.1180 C   0  0  0  0  0  0  0  0  0  0  0  0
   -1.1050    0.0100   -0.4560 C   0  0  0  0  0  0  0  0  0  0  0  0
   -2.5160   -0.0480   -0.4340 C   0  0  0  0  0  0  0  0  0  0  0  0
   -3.2150    1.0100    0.1010 C   0  0  0  0  0  0  0  0  0  0  0  0
   -4.6200    1.0260    0.1540 C   0  0  0  0  0  0  0  0  0  0  0  0
   -5.2790   -0.0650   -0.3520 C   0  0  0  0  0  0  0  0  0  0  0  0
   -4.5750   -1.1250   -0.8880 C   0  0  0  0  0  0  0  0  0  0  0  0
   -3.1970   -1.1390   -0.9390 C   0  0  0  0  0  0  0  0  0  0  0  0
   -2.4710   -2.1690   -1.4670 C   0  0  0  0  0  0  0  0  0  0  0  0
   -1.0960   -2.0920   -1.4790 C   0  0  0  0  0  0  0  0  0  0  0  0
   -0.4170   -1.0100   -0.9770 N   0  0  0  0  0  0  0  0  0  0  0  0
    1.0360   -1.0210   -1.0410 C   0  0  0  0  0  0  0  0  0  0  0  0
    1.4820   -0.3560    0.2810 C   0  0  1  0  0  0  0  0  0  0  0  0
    2.9090   -0.5430    0.5260 C   0  0  2  0  0  0  0  0  0  0  0  0
    3.1660   -1.5020    1.5350 O   0  0  0  0  0  0  0  0  0  0  0  0
    3.8060   -2.6230    1.0740 C   0  0  0  0  0  0  0  0  0  0  0  0
   -6.6360    0.2140   -0.1730 O   0  0  0  0  0  0  0  0  0  0  0  0
   -6.8230    1.5920    0.0910 C   0  0  0  0  0  0  0  0  0  0  0  0
   -5.5430    1.9520    0.6320 O   0  0  0  0  0  0  0  0  0  0  0  0
  1  2  1  0
  2  3  1  0
  3  4  2  0
  3 20  1  0
  4  5  1  0
  5  6  2  0
  6  7  1  0
  6 19  1  0
  7  8  1  0
  8  9  2  0
  8 17  1  0
  9 10  1  0
  9 14  1  0
 10 11  2  0
 11 12  1  0
 11 25  1  0
 12 13  2  0
 12 23  1  0
 13 14  1  0
 14 15  2  0
 15 16  1  0
 16 17  2  0
 17 18  1  0
 19 18  1  6
 19 20  1  0
 20 21  1  1
 21 22  1  0
 23 24  1  0
 24 25  1  0
M  CHG  1  17   1
M  END
