
     RDKit          3D

 24 26  0  0  0  0  0  0  0  0999 V2000
   -5.4600   -0.3960   -1.9500 C   0  0  0  0  0  0  0  0  0  0  0  0
   -4.2600   -0.1580   -1.1070 C   0  0  0  0  0  0  0  0  0  0  0  0
   -2.9520   -0.3320   -1.4800 C   0  0  0  0  0  0  0  0  0  0  0  0
   -2.0860   -0.0190   -0.4500 C   0  0  0  0  0  0  0  0  0  0  0  0
   -0.6270   -0.0930   -0.5110 C   0  0  1  0  0  0  0  0  0  0  0  0
   -0.2880   -0.5630   -1.8770 N   0  0  0  0  0  0  0  0  0  0  0  0
    0.0660    1.2240   -0.3920 C   0  0  0  0  0  0  0  0  0  0  0  0
    1.5620    0.9930   -0.3220 C   0  0  0  0  0  0  0  0  0  0  0  0
    1.9710    0.1940    0.7770 N   0  0  0  0  0  0  0  0  0  0  0  0
    3.0690   -0.6860    0.5650 C   0  0  0  0  0  0  0  0  0  0  0  0
    4.3160    0.0310    0.2170 C   0  0  0  0  0  0  0  0  0  0  0  0
    4.6600    1.3430    0.4180 C   0  0  0  0  0  0  0  0  0  0  0  0
    5.9360    1.5190   -0.0870 C   0  0  0  0  0  0  0  0  0  0  0  0
    6.3150    0.2940   -0.5790 C   0  0  0  0  0  0  0  0  0  0  0  0
    7.5850   -0.0270   -1.2150 C   0  0  0  0  0  0  0  0  0  0  0  0
    8.4770    0.8410   -1.3690 O   0  0  0  0  0  0  0  0  0  0  0  0
    5.3340   -0.5370   -0.3760 O   0  0  0  0  0  0  0  0  0  0  0  0
    0.8610   -0.4050    1.4840 C   0  0  0  0  0  0  0  0  0  0  0  0
    0.0120   -1.0920    0.4040 C   0  0  1  0  0  0  0  0  0  0  0  0
   -0.9160   -2.1240    0.9590 C   0  0  0  0  0  0  0  0  0  0  0  0
   -2.9230    0.3640    0.5970 C   0  0  0  0  0  0  0  0  0  0  0  0
   -2.5130    0.8000    1.9340 C   0  0  0  0  0  0  0  0  0  0  0  0
   -4.2040    0.2660    0.1640 N   0  0  0  0  0  0  0  0  0  0  0  0
   -5.3850    0.5720    0.9470 C   0  0  0  0  0  0  0  0  0  0  0  0
  1  2  1  0
  2  3  2  0
  2 23  1  0
  3  4  1  0
  4  5  1  0
  4 21  2  0
  5  6  1  6
  5  7  1  0
  5 19  1  0
  7  8  1  0
  8  9  1  0
  9 10  1  0
  9 18  1  0
 10 11  1  0
 11 12  2  0
 11 17  1  0
 12 13  1  0
 13 14  2  0
 14 15  1  0
 14 17  1  0
 15 16  2  0
 18 19  1  0
 19 20  1  1
 21 22  1  0
 21 23  1  0
 23 24  1  0
M  CHG  1   6   1
M  END
