
     RDKit          3D

 19 19  0  0  0  0  0  0  0  0999 V2000
    1.9620    0.2210    2.0240 C   0  0  0  0  0  0  0  0  0  0  0  0
    1.1990    0.1800    0.7170 C   0  0  1  0  0  0  0  0  0  0  0  0
    0.1740    1.1830    0.6080 N   0  0  0  0  0  0  0  0  0  0  0  0
   -0.5710    1.1390   -0.5790 C   0  0  0  0  0  0  0  0  0  0  0  0
   -1.9920    0.7100   -0.5690 C   0  0  2  0  0  0  0  0  0  0  0  0
   -2.9280    1.4980    0.2610 C   0  0  0  0  0  0  0  0  0  0  0  0
   -3.3290    0.8900    1.5740 C   0  0  0  0  0  0  0  0  0  0  0  0
   -3.6350   -0.4410    1.4830 O   0  0  0  0  0  0  0  0  0  0  0  0
   -2.4900   -1.1600    1.0640 C   0  0  0  0  0  0  0  0  0  0  0  0
   -2.2690   -0.7470   -0.3740 C   0  0  2  0  0  0  0  0  0  0  0  0
   -1.4370   -1.6530   -1.1000 N   0  0  0  0  0  0  0  0  0  0  0  0
    2.0380   -0.1310   -0.4290 C   0  0  0  0  0  0  0  0  0  0  0  0
    2.5690   -1.5180   -0.5730 C   0  0  0  0  0  0  0  0  0  0  0  0
    2.3370   -2.5160    0.1780 C   0  0  0  0  0  0  0  0  0  0  0  0
    1.5420   -2.5380    1.2930 O   0  0  0  0  0  0  0  0  0  0  0  0
    2.9400   -3.7660   -0.1280 O   0  0  0  0  0  0  0  0  0  0  0  0
    2.4630    0.6870   -1.3480 C   0  0  0  0  0  0  0  0  0  0  0  0
    2.2850    2.1260   -1.5680 C   0  0  0  0  0  0  0  0  0  0  0  0
    1.6500    2.2490   -2.8180 O   0  0  0  0  0  0  0  0  0  0  0  0
  2  1  1  1
  2  3  1  0
  2 12  1  0
  3  4  1  0
  5  4  1  1
  5  6  1  0
  5 10  1  0
  6  7  1  0
  7  8  1  0
  8  9  1  0
  9 10  1  0
 10 11  1  1
 12 13  1  0
 12 17  2  3
 13 14  2  3
 14 15  1  0
 14 16  1  0
 17 18  1  0
 18 19  1  0
M  CHG  2   3   1  11   1
M  END
