
     RDKit          3D

 20 20  0  0  0  0  0  0  0  0999 V2000
   -4.4280    1.0500   -1.7600 C   0  0  0  0  0  0  0  0  0  0  0  0
   -3.3710    0.2680   -1.6720 C   0  0  0  0  0  0  0  0  0  0  0  0
   -2.9080   -0.6750   -2.6700 N   0  0  0  0  0  0  0  0  0  0  0  0
   -1.7260   -1.2940   -2.1780 C   0  0  0  0  0  0  0  0  0  0  0  0
   -1.3280   -2.4300   -2.4590 O   0  0  0  0  0  0  0  0  0  0  0  0
   -1.1330   -0.2460   -1.2760 C   0  0  2  0  0  0  0  0  0  0  0  0
   -0.2170   -0.7610   -0.3990 O   0  0  0  0  0  0  0  0  0  0  0  0
    1.0520   -0.1100   -0.5420 C   0  0  0  0  0  0  0  0  0  0  0  0
    2.0020   -0.6980    0.4200 C   0  0  0  0  0  0  0  0  0  0  0  0
    2.1970   -2.2120    0.2100 C   0  0  0  0  0  0  0  0  0  0  0  0
    2.7060   -2.4370   -1.1180 N   0  0  0  0  0  0  0  0  0  0  0  0
    2.6710   -0.1760    1.3720 C   0  0  0  0  0  0  0  0  0  0  0  0
    3.5240   -1.0960    2.1440 O   0  0  0  0  0  0  0  0  0  0  0  0
    2.8170    1.1740    1.8990 C   0  0  0  0  0  0  0  0  0  0  0  0
    2.1970    2.2390    1.3590 O   0  0  0  0  0  0  0  0  0  0  0  0
    2.7360    2.7300    0.1830 C   0  0  0  0  0  0  0  0  0  0  0  0
   -2.4150    0.1660   -0.5830 C   0  0  0  0  0  0  0  0  0  0  0  0
   -2.5370    0.3200    0.6950 C   0  0  0  0  0  0  0  0  0  0  0  0
   -3.7270    0.6530    1.4560 C   0  0  0  0  0  0  0  0  0  0  0  0
   -3.5990    0.7700    2.7570 N   0  0  0  0  0  0  0  0  0  0  0  0
  1  2  2  0
  2  3  1  0
  2 17  1  0
  3  4  1  0
  4  5  2  0
  4  6  1  0
  6  7  1  1
  6 17  1  0
  7  8  1  0
  8  9  1  0
  9 10  1  0
  9 12  2  3
 10 11  1  0
 12 13  1  0
 12 14  1  0
 14 15  1  0
 15 16  1  0
 17 18  2  3
 18 19  1  0
 19 20  2  0
M  CHG  2  11   1  20   1
M  END
