
     RDKit          3D

 24 26  0  0  0  0  0  0  0  0999 V2000
   -2.6050   -2.1660   -1.8750 C   0  0  0  0  0  0  0  0  0  0  0  0
   -3.9410   -1.5570   -1.8000 C   0  0  0  0  0  0  0  0  0  0  0  0
   -4.2750   -0.3740   -1.3290 C   0  0  0  0  0  0  0  0  0  0  0  0
   -5.7140   -0.0110   -1.3830 C   0  0  0  0  0  0  0  0  0  0  0  0
   -5.9990    1.3560   -1.0150 C   0  0  0  0  0  0  0  0  0  0  0  0
   -5.1040    2.2050   -0.5950 C   0  0  0  0  0  0  0  0  0  0  0  0
   -3.7210    1.7870   -0.4880 C   0  0  0  0  0  0  0  0  0  0  0  0
   -3.3090    0.5550   -0.8240 C   0  0  0  0  0  0  0  0  0  0  0  0
   -1.9310    0.3220   -0.6190 N   0  0  0  0  0  0  0  0  0  0  0  0
   -1.3840   -0.5260    0.3860 C   0  0  0  0  0  0  0  0  0  0  0  0
   -2.1960   -1.1050    1.1480 O   0  0  0  0  0  0  0  0  0  0  0  0
    0.0700   -0.7370    0.5530 C   0  0  1  0  0  0  0  0  0  0  0  0
    0.6980   -1.3290   -0.6960 C   0  0  0  0  0  0  0  0  0  0  0  0
    0.6740    0.6040    0.8640 C   0  0  0  0  0  0  0  0  0  0  0  0
    2.1300    0.5400    1.0550 N   0  0  0  0  0  0  0  0  0  0  0  0
    2.8380    0.2980    2.2800 C   0  0  0  0  0  0  0  0  0  0  0  0
    4.2670    0.3170    1.9130 C   0  0  0  0  0  0  0  0  0  0  0  0
    5.4380    0.1360    2.6620 C   0  0  0  0  0  0  0  0  0  0  0  0
    6.6580    0.2160    2.0380 C   0  0  0  0  0  0  0  0  0  0  0  0
    6.8230    0.4610    0.7180 N   0  0  0  0  0  0  0  0  0  0  0  0
    5.6950    0.6310    0.0170 C   0  0  0  0  0  0  0  0  0  0  0  0
    4.4400    0.5650    0.5790 C   0  0  0  0  0  0  0  0  0  0  0  0
    3.0970    0.7060    0.0370 C   0  0  0  0  0  0  0  0  0  0  0  0
    2.8240    0.9450   -1.1780 O   0  0  0  0  0  0  0  0  0  0  0  0
  1  2  1  0
  2  3  2  3
  3  4  1  0
  3  8  1  0
  4  5  1  0
  5  6  2  0
  6  7  1  0
  7  8  2  0
  8  9  1  0
  9 10  1  0
 10 11  2  0
 10 12  1  0
 12 13  1  6
 12 14  1  0
 14 15  1  0
 15 16  1  0
 15 23  1  0
 16 17  1  0
 17 18  2  0
 17 22  1  0
 18 19  1  0
 19 20  2  0
 20 21  1  0
 21 22  2  0
 22 23  1  0
 23 24  2  0
M  CHG  1  20   1
M  END
