
     RDKit          3D

 20 21  0  0  0  0  0  0  0  0999 V2000
    6.4650    0.6630    0.1100 N   0  0  0  0  0  0  0  0  0  0  0  0
    5.2940    0.0130   -0.3690 C   0  0  0  0  0  0  0  0  0  0  0  0
    5.0530   -1.1210    0.1590 O   0  0  0  0  0  0  0  0  0  0  0  0
    4.4260    0.5980   -1.3910 C   0  0  0  0  0  0  0  0  0  0  0  0
    3.0620    0.0460   -1.5470 C   0  0  2  0  0  0  0  0  0  0  0  0
    2.5420    0.7850   -2.7130 O   0  0  0  0  0  0  0  0  0  0  0  0
    2.0430    0.4320   -0.5260 C   0  0  2  0  0  0  0  0  0  0  0  0
    2.2610    0.1190    0.8960 C   0  0  0  0  0  0  0  0  0  0  0  0
    1.8850   -1.2590    1.1020 N   0  0  0  0  0  0  0  0  0  0  0  0
    1.0750   -1.6420   -0.0280 C   0  0  0  0  0  0  0  0  0  0  0  0
    0.7650   -0.3800   -0.7990 C   0  0  1  0  0  0  0  0  0  0  0  0
   -0.3840    0.3250   -0.1990 C   0  0  0  0  0  0  0  0  0  0  0  0
   -0.2740    1.4430    0.3820 O   0  0  0  0  0  0  0  0  0  0  0  0
   -1.6660   -0.2050   -0.2390 O   0  0  0  0  0  0  0  0  0  0  0  0
   -2.7800    0.4370    0.3200 C   0  0  1  0  0  0  0  0  0  0  0  0
   -3.8520    0.7800   -0.6680 C   0  0  0  0  0  0  0  0  0  0  0  0
   -5.0610    1.2710    0.1080 C   0  0  0  0  0  0  0  0  0  0  0  0
   -5.6560    0.2320    0.8990 N   0  0  0  0  0  0  0  0  0  0  0  0
   -4.7650   -0.8830    1.1260 C   0  0  0  0  0  0  0  0  0  0  0  0
   -3.3990   -0.3680    1.4440 C   0  0  0  0  0  0  0  0  0  0  0  0
  1  2  1  0
  2  3  2  0
  2  4  1  0
  4  5  1  0
  5  6  1  6
  5  7  1  0
  7  8  1  1
  7 11  1  0
  8  9  1  0
  9 10  1  0
 10 11  1  0
 11 12  1  1
 12 13  2  0
 12 14  1  0
 15 14  1  6
 15 16  1  0
 15 20  1  0
 16 17  1  0
 17 18  1  0
 18 19  1  0
 19 20  1  0
M  CHG  2   9   1  18   1
M  END
