
     RDKit          3D

 24 25  0  0  0  0  0  0  0  0999 V2000
   -3.8630   -4.5250   -0.5950 C   0  0  0  0  0  0  0  0  0  0  0  0
   -2.5410   -4.1910   -0.5730 O   0  0  0  0  0  0  0  0  0  0  0  0
   -2.2620   -3.0330    0.1180 C   0  0  0  0  0  0  0  0  0  0  0  0
   -2.9750   -1.8730   -0.5050 C   0  0  0  0  0  0  0  0  0  0  0  0
   -2.6620   -0.6220    0.2490 N   0  0  0  0  0  0  0  0  0  0  0  0
   -3.5010   -0.2740    1.3280 C   0  0  0  0  0  0  0  0  0  0  0  0
   -3.4420    0.6860    2.0770 O   0  0  0  0  0  0  0  0  0  0  0  0
   -1.5340    0.0940   -0.2080 C   0  0  0  0  0  0  0  0  0  0  0  0
   -0.8950   -0.5420   -1.3440 O   0  0  0  0  0  0  0  0  0  0  0  0
    0.4030   -0.9290   -1.1010 O   0  0  0  0  0  0  0  0  0  0  0  0
    1.4020    0.0350   -0.9700 C   0  0  0  0  0  0  0  0  0  0  0  0
    1.3630    1.1270   -1.6930 N   0  0  0  0  0  0  0  0  0  0  0  0
    2.4860    1.9250   -1.3640 C   0  0  0  0  0  0  0  0  0  0  0  0
    2.8050    3.0010   -1.9060 O   0  0  0  0  0  0  0  0  0  0  0  0
    3.1970    1.2490   -0.2750 C   0  0  2  0  0  0  0  0  0  0  0  0
    4.6290    0.9930   -0.7380 C   0  0  0  0  0  0  0  0  0  0  0  0
    5.2870    1.2360   -1.8190 C   0  0  0  0  0  0  0  0  0  0  0  0
    6.4980    0.6430   -1.3030 C   0  0  0  0  0  0  0  0  0  0  0  0
    5.7350    0.3990   -0.1400 N   0  0  0  0  0  0  0  0  0  0  0  0
    2.5150    0.0390   -0.1450 O   0  0  0  0  0  0  0  0  0  0  0  0
   -0.8880    1.4440    0.3180 P   0  0  0  0  0  0  0  0  0  0  0  0
   -1.0970    2.6850    1.5580 C   0  0  1  0  0  0  0  0  0  0  0  0
   -2.3490    3.5590    1.4450 C   0  0  0  0  0  0  0  0  0  0  0  0
   -1.0480    2.1760    2.8630 F   0  0  0  0  0  0  0  0  0  0  0  0
  1  2  1  0
  2  3  1  0
  3  4  1  0
  4  5  1  0
  5  6  1  0
  5  8  1  0
  6  7  2  0
  8  9  1  0
  8 21  2  3
  9 10  1  0
 10 11  1  0
 11 12  2  0
 11 20  1  0
 12 13  1  0
 13 14  2  0
 13 15  1  0
 15 16  1  6
 15 20  1  0
 16 17  2  0
 16 19  1  0
 17 18  1  0
 18 19  1  0
 21 22  1  0
 22 23  1  6
 22 24  1  0
M  END
