
     RDKit          3D

 24 26  0  0  0  0  0  0  0  0999 V2000
   -5.4180    1.9670   -1.1550 C   0  0  0  0  0  0  0  0  0  0  0  0
   -4.7680    0.7670   -1.7420 C   0  0  0  0  0  0  0  0  0  0  0  0
   -3.4170    0.5270   -1.2490 N   0  0  0  0  0  0  0  0  0  0  0  0
   -2.3790    1.1110   -1.9300 N   0  0  0  0  0  0  0  0  0  0  0  0
   -1.1710    0.9710   -1.5880 C   0  0  0  0  0  0  0  0  0  0  0  0
   -0.7820    0.1650   -0.4250 C   0  0  2  0  0  0  0  0  0  0  0  0
    0.6100    0.9180    0.5640 P   0  0  0  0  0  0  0  0  0  0  0  0
    2.1590    0.5400   -0.2540 N   0  0  0  0  0  0  0  0  0  0  0  0
    2.7000    1.4630   -1.2240 C   0  0  0  0  0  0  0  0  0  0  0  0
    3.8950    0.9860   -1.7330 F   0  0  0  0  0  0  0  0  0  0  0  0
    2.8890   -0.6730    0.0310 C   0  0  0  0  0  0  0  0  0  0  0  0
    4.0460   -0.9470    0.5950 C   0  0  0  0  0  0  0  0  0  0  0  0
    5.0240   -0.1060    1.1460 O   0  0  0  0  0  0  0  0  0  0  0  0
    6.2870   -0.0790    0.5050 C   0  0  0  0  0  0  0  0  0  0  0  0
    3.8470   -2.3930    0.3960 C   0  0  0  0  0  0  0  0  0  0  0  0
    2.6500   -2.0090   -0.1810 O   0  0  0  0  0  0  0  0  0  0  0  0
   -0.8490   -1.3100   -0.5740 C   0  0  0  0  0  0  0  0  0  0  0  0
   -1.8010   -0.5840    0.3000 C   0  0  1  0  0  0  0  0  0  0  0  0
   -1.6790   -0.8040    1.7790 C   0  0  0  0  0  0  0  0  0  0  0  0
   -0.6880   -0.3290    2.3570 O   0  0  0  0  0  0  0  0  0  0  0  0
   -2.6410   -1.5100    2.4500 O   0  0  0  0  0  0  0  0  0  0  0  0
   -2.5770   -1.7360    3.7880 O   0  0  0  0  0  0  0  0  0  0  0  0
   -3.1620   -0.2690   -0.1140 C   0  0  0  0  0  0  0  0  0  0  0  0
   -4.1870   -0.7020    0.5360 O   0  0  0  0  0  0  0  0  0  0  0  0
  1  2  1  0
  2  3  1  0
  3  4  1  0
  3 23  1  0
  4  5  2  0
  5  6  1  0
  6  7  1  1
  6 17  1  0
  6 18  1  0
  7  8  1  0
  8  9  1  0
  8 11  1  0
  9 10  1  0
 11 12  2  0
 11 16  1  0
 12 13  1  0
 12 15  1  0
 13 14  1  0
 15 16  1  0
 17 18  1  0
 18 19  1  1
 18 23  1  0
 19 20  2  0
 19 21  1  0
 21 22  1  0
 23 24  2  0
M  END
