
     RDKit          3D

 17 17  0  0  0  0  0  0  0  0999 V2000
   -3.3350    1.7630    0.0700 C   0  0  0  0  0  0  0  0  0  0  0  0
   -2.7560    0.7070    1.0100 C   0  0  0  0  0  0  0  0  0  0  0  0
   -1.5300    0.1860    0.4460 N   0  0  0  0  0  0  0  0  0  0  0  0
   -0.2320    0.7190    0.6830 C   0  0  0  0  0  0  0  0  0  0  0  0
    0.0740    1.7180    1.4110 O   0  0  0  0  0  0  0  0  0  0  0  0
    0.6840   -0.1080   -0.0770 C   0  0  0  0  0  0  0  0  0  0  0  0
    1.9900    0.0620   -0.1210 C   0  0  0  0  0  0  0  0  0  0  0  0
    2.7450    1.4140    0.8200 P   0  0  0  0  0  0  0  0  0  0  0  0
    2.0850    2.9160    0.1950 O   0  0  0  0  0  0  0  0  0  0  0  0
    4.4600    1.4080    0.7060 O   0  0  0  0  0  0  0  0  0  0  0  0
    2.9600   -1.1030   -1.1470 P   0  0  0  0  0  0  0  0  0  0  0  0
    4.6410   -0.7880   -1.0740 O   0  0  0  0  0  0  0  0  0  0  0  0
    2.5460   -2.7370   -0.8650 O   0  0  0  0  0  0  0  0  0  0  0  0
   -0.1260   -1.1220   -0.7490 C   0  0  0  0  0  0  0  0  0  0  0  0
   -1.3890   -0.9230   -0.4270 C   0  0  0  0  0  0  0  0  0  0  0  0
   -2.4270   -1.7150   -0.8980 O   0  0  0  0  0  0  0  0  0  0  0  0
   -2.8710   -2.8130   -0.2130 N   0  0  0  0  0  0  0  0  0  0  0  0
  1  2  1  0
  2  3  1  0
  3  4  1  0
  3 15  1  0
  4  5  2  0
  4  6  1  0
  6  7  2  3
  6 14  1  0
  7  8  1  0
  7 11  1  0
  8  9  1  0
  8 10  1  0
 11 12  1  0
 11 13  1  0
 14 15  2  0
 15 16  1  0
 16 17  1  0
M  END
