
     RDKit          3D

 21 22  0  0  0  0  0  0  0  0999 V2000
    5.6440   -0.9220    2.4090 O   0  0  0  0  0  0  0  0  0  0  0  0
    4.6090   -0.5710    1.7730 C   0  0  0  0  0  0  0  0  0  0  0  0
    3.3660   -0.4880    2.3710 C   0  0  0  0  0  0  0  0  0  0  0  0
    2.2710   -0.0990    1.6230 C   0  0  0  0  0  0  0  0  0  0  0  0
    2.3730    0.2090    0.3080 N   0  0  0  0  0  0  0  0  0  0  0  0
    1.2020    0.5980   -0.3800 C   0  0  2  0  0  0  0  0  0  0  0  0
    0.0390   -0.0220    0.1040 O   0  0  0  0  0  0  0  0  0  0  0  0
   -0.9110    0.6210   -0.6920 C   0  0  2  0  0  0  0  0  0  0  0  0
   -2.2810    0.0410   -0.5700 C   0  0  0  0  0  0  0  0  0  0  0  0
   -2.6340    0.1730    0.7580 O   0  0  0  0  0  0  0  0  0  0  0  0
   -3.9950   -0.3340    1.2120 P   0  0  0  0  0  0  0  0  0  0  0  0
   -4.6540    0.9740    0.3860 O   0  0  0  0  0  0  0  0  0  0  0  0
   -3.8660   -1.7690    0.4080 O   0  0  0  0  0  0  0  0  0  0  0  0
   -3.7120   -0.1960    2.7980 O   0  0  0  0  0  0  0  0  0  0  0  0
   -0.3790    0.2260   -2.0750 C   0  0  1  0  0  0  0  0  0  0  0  0
   -0.8540    1.0430   -3.0700 O   0  0  0  0  0  0  0  0  0  0  0  0
    1.1200    0.4110   -1.8340 C   0  0  1  0  0  0  0  0  0  0  0  0
    1.4560    1.6070   -2.5010 O   0  0  0  0  0  0  0  0  0  0  0  0
    3.5920    0.1200   -0.2450 C   0  0  0  0  0  0  0  0  0  0  0  0
    3.6480    0.4130   -1.4650 O   0  0  0  0  0  0  0  0  0  0  0  0
    4.6800   -0.2600    0.4660 N   0  0  0  0  0  0  0  0  0  0  0  0
  1  2  2  0
  2  3  1  0
  2 21  1  0
  3  4  2  0
  4  5  1  0
  6  5  1  1
  5 19  1  0
  6  7  1  0
  6 17  1  0
  7  8  1  0
  8  9  1  1
  8 15  1  0
  9 10  1  0
 10 11  1  0
 11 12  1  0
 11 13  1  0
 11 14  1  0
 15 16  1  6
 15 17  1  0
 17 18  1  6
 19 20  2  0
 19 21  1  0
M  END
