
     RDKit          3D

 17 17  0  0  0  0  0  0  0  0999 V2000
   -1.7410   -3.0240   -1.1700 O   0  0  0  0  0  0  0  0  0  0  0  0
   -1.8400   -1.9360   -0.6100 C   0  0  0  0  0  0  0  0  0  0  0  0
   -0.7870   -1.4040    0.2910 C   0  0  0  0  0  0  0  0  0  0  0  0
   -0.8760    0.0160    0.1750 N   0  0  0  0  0  0  0  0  0  0  0  0
    0.2200    0.7950    0.5830 C   0  0  0  0  0  0  0  0  0  0  0  0
    1.4750    0.7430   -0.1930 C   0  0  0  0  0  0  0  0  0  0  0  0
    2.0130   -0.5390   -0.2320 O   0  0  0  0  0  0  0  0  0  0  0  0
    3.4860   -0.6440   -1.1180 P   0  0  0  0  0  0  0  0  0  0  0  0
    3.5100    0.3320   -2.5330 O   0  0  0  0  0  0  0  0  0  0  0  0
    5.2300   -0.2260    0.1580 P   0  0  0  0  0  0  0  0  0  0  0  0
    6.4940   -1.4030   -0.1340 O   0  0  0  0  0  0  0  0  0  0  0  0
    5.8210    1.3850   -0.0710 O   0  0  0  0  0  0  0  0  0  0  0  0
   -2.0730    0.4360    0.8870 C   0  0  0  0  0  0  0  0  0  0  0  0
   -3.2750   -0.0390    0.1340 C   0  0  1  0  0  0  0  0  0  0  0  0
   -4.0150    1.0830   -0.5780 C   0  0  0  0  0  0  0  0  0  0  0  0
   -5.2130    0.5530   -1.0980 O   0  0  0  0  0  0  0  0  0  0  0  0
   -2.9790   -1.1140   -0.7950 N   0  0  0  0  0  0  0  0  0  0  0  0
  1  2  2  0
  2  3  1  0
  2 17  1  0
  3  4  1  0
  4  5  1  0
  4 13  1  0
  5  6  1  0
  6  7  1  0
  7  8  1  0
  8  9  1  0
  8 10  1  0
 10 11  1  0
 10 12  1  0
 13 14  1  0
 14 15  1  6
 14 17  1  0
 15 16  1  0
M  END
