
     RDKit          3D

 17 17  0  0  0  0  0  0  0  0999 V2000
   -4.7830    1.7310   -1.0600 N   0  0  0  0  0  0  0  0  0  0  0  0
   -3.6910    1.7500   -0.1180 C   0  0  0  0  0  0  0  0  0  0  0  0
   -2.5490    1.1850   -0.4900 C   0  0  0  0  0  0  0  0  0  0  0  0
   -1.2990    1.0700    0.2730 C   0  0  0  0  0  0  0  0  0  0  0  0
   -0.6150   -0.1160   -0.3510 C   0  0  1  0  0  0  0  0  0  0  0  0
    0.8030    0.0740   -0.2660 N   0  0  0  0  0  0  0  0  0  0  0  0
    1.5920   -1.0890   -0.0020 C   0  0  0  0  0  0  0  0  0  0  0  0
    3.0560   -0.8690   -0.2710 C   0  0  0  0  0  0  0  0  0  0  0  0
    3.6990    0.1210    0.4560 O   0  0  0  0  0  0  0  0  0  0  0  0
    5.0570    0.3370    0.0900 C   0  0  0  0  0  0  0  0  0  0  0  0
    5.5750   -0.3410   -0.8430 O   0  0  0  0  0  0  0  0  0  0  0  0
    5.7880    1.2850    0.7560 O   0  0  0  0  0  0  0  0  0  0  0  0
   -1.3420   -1.6160    0.2850 P   0  0  0  0  0  0  0  0  0  0  0  0
   -2.8670   -1.5470    1.0010 O   0  0  0  0  0  0  0  0  0  0  0  0
   -0.6110   -3.0970    0.0590 O   0  0  0  0  0  0  0  0  0  0  0  0
   -1.0490    0.0830   -1.8300 C   0  0  0  0  0  0  0  0  0  0  0  0
   -2.3410    0.5760   -1.7250 O   0  0  0  0  0  0  0  0  0  0  0  0
  1  2  1  0
  2  3  2  3
  3  4  1  0
  3 17  1  0
  4  5  1  0
  5  6  1  6
  5 13  1  0
  5 16  1  0
  6  7  1  0
  7  8  1  0
  8  9  1  0
  9 10  1  0
 10 11  2  0
 10 12  1  0
 13 14  1  0
 13 15  1  0
 16 17  1  0
M  END
