
     RDKit          3D

 17 17  0  0  0  0  0  0  0  0999 V2000
   -3.8040   -1.2220    0.5670 N   0  0  0  0  0  0  0  0  0  0  0  0
   -3.4430   -0.4500   -0.5790 C   0  0  0  0  0  0  0  0  0  0  0  0
   -2.0750    0.2450   -0.4180 C   0  0  1  0  0  0  0  0  0  0  0  0
   -1.1170   -0.7690   -0.2380 N   0  0  0  0  0  0  0  0  0  0  0  0
    0.2420   -0.3970   -0.0670 C   0  0  0  0  0  0  0  0  0  0  0  0
    1.1540   -1.6300   -0.2280 C   0  0  0  0  0  0  0  0  0  0  0  0
    2.9210   -1.2480   -0.0460 P   0  0  0  0  0  0  0  0  0  0  0  0
    3.9050   -2.4500    0.6300 O   0  0  0  0  0  0  0  0  0  0  0  0
    3.3280    0.3570    0.3370 O   0  0  0  0  0  0  0  0  0  0  0  0
    4.6650    0.8520   -0.6940 P   0  0  0  0  0  0  0  0  0  0  0  0
    6.0570   -0.0660   -0.2390 O   0  0  0  0  0  0  0  0  0  0  0  0
    4.9760    2.5580   -0.4250 O   0  0  0  0  0  0  0  0  0  0  0  0
   -1.8760    1.0840   -1.6530 C   0  0  0  0  0  0  0  0  0  0  0  0
   -1.3320    2.3230   -1.2570 O   0  0  0  0  0  0  0  0  0  0  0  0
   -1.4260    2.4270    0.1300 C   0  0  0  0  0  0  0  0  0  0  0  0
   -0.9480    3.3330    0.8310 O   0  0  0  0  0  0  0  0  0  0  0  0
   -2.2070    1.2690    0.6740 C   0  0  0  0  0  0  0  0  0  0  0  0
  1  2  1  0
  3  2  1  6
  3  4  1  0
  3 13  1  0
  3 17  1  0
  4  5  1  0
  5  6  1  0
  6  7  1  0
  7  8  1  0
  7  9  1  0
  9 10  1  0
 10 11  1  0
 10 12  1  0
 13 14  1  0
 14 15  1  0
 15 16  2  0
 15 17  1  0
M  END
