
     RDKit          3D

 26 29  0  0  0  0  0  0  0  0999 V2000
    7.5420    1.9250   -0.7570 C   0  0  0  0  0  0  0  0  0  0  0  0
    6.3620    1.1270   -1.2920 C   0  0  0  0  0  0  0  0  0  0  0  0
    5.5910    0.5920   -0.1070 C   0  0  0  0  0  0  0  0  0  0  0  0
    4.3970   -0.2150   -0.5210 C   0  0  1  0  0  0  0  0  0  0  0  0
    3.6690   -0.7220    0.7030 C   0  0  0  0  0  0  0  0  0  0  0  0
    2.3170   -0.1870    0.6270 N   0  0  0  0  0  0  0  0  0  0  0  0
    1.1430   -0.9620    0.7870 C   0  0  0  0  0  0  0  0  0  0  0  0
    1.1780   -2.2570    1.2050 C   0  0  0  0  0  0  0  0  0  0  0  0
    0.0200   -3.0250    1.3550 C   0  0  0  0  0  0  0  0  0  0  0  0
   -1.2100   -2.4830    1.0790 C   0  0  0  0  0  0  0  0  0  0  0  0
   -2.3700   -3.2160    1.2180 C   0  0  0  0  0  0  0  0  0  0  0  0
   -3.6170   -2.6610    0.9360 C   0  0  0  0  0  0  0  0  0  0  0  0
   -3.6820   -1.3370    0.5070 C   0  0  0  0  0  0  0  0  0  0  0  0
   -4.9470   -0.7330    0.2080 N   0  0  0  0  0  0  0  0  0  0  0  0
   -4.9530    0.6310   -0.2300 C   0  0  0  0  0  0  0  0  0  0  0  0
   -6.3070    1.0790   -0.5080 C   0  0  0  0  0  0  0  0  0  0  0  0
   -7.4980    0.4440   -0.6770 C   0  0  0  0  0  0  0  0  0  0  0  0
   -8.6010    1.1510   -0.9250 C   0  0  0  0  0  0  0  0  0  0  0  0
   -8.5180    2.5260   -1.0070 C   0  0  0  0  0  0  0  0  0  0  0  0
   -6.7460    2.7820   -0.7070 S   0  0  0  0  0  0  0  0  0  0  0  0
   -2.5020   -0.6420    0.3820 C   0  0  0  0  0  0  0  0  0  0  0  0
   -1.2680   -1.1820    0.6570 C   0  0  0  0  0  0  0  0  0  0  0  0
   -0.0940   -0.4280    0.5130 C   0  0  0  0  0  0  0  0  0  0  0  0
    2.2930    1.2550    0.3730 C   0  0  0  0  0  0  0  0  0  0  0  0
    2.8300    1.4330   -1.0240 C   0  0  0  0  0  0  0  0  0  0  0  0
    3.6040    0.3910   -1.4530 O   0  0  0  0  0  0  0  0  0  0  0  0
  1  2  1  0
  2  3  1  0
  4  3  1  1
  4  5  1  0
  4 26  1  0
  5  6  1  0
  6  7  1  0
  6 24  1  0
  7  8  2  0
  7 23  1  0
  8  9  1  0
  9 10  2  0
 10 11  1  0
 10 22  1  0
 11 12  2  0
 12 13  1  0
 13 14  1  0
 13 21  2  0
 14 15  1  0
 15 16  1  0
 16 17  2  0
 16 20  1  0
 17 18  1  0
 18 19  2  0
 19 20  1  0
 21 22  1  0
 22 23  2  0
 24 25  1  0
 25 26  1  0
M  END
