
     RDKit          3D

 26 29  0  0  0  0  0  0  0  0999 V2000
   -0.3880    1.4460    2.4410 O   0  0  0  0  0  0  0  0  0  0  0  0
   -1.5160    1.2290    1.8690 C   0  0  0  0  0  0  0  0  0  0  0  0
   -2.5540    2.0350    2.0350 N   0  0  0  0  0  0  0  0  0  0  0  0
   -3.7680    1.8570    1.4590 C   0  0  0  0  0  0  0  0  0  0  0  0
   -4.7860    2.7480    1.7130 C   0  0  0  0  0  0  0  0  0  0  0  0
   -6.0210    2.5570    1.1500 C   0  0  0  0  0  0  0  0  0  0  0  0
   -6.1890    1.4660    0.3470 C   0  0  0  0  0  0  0  0  0  0  0  0
   -5.1660    0.5750    0.0940 C   0  0  0  0  0  0  0  0  0  0  0  0
   -3.9150    0.7330    0.6360 C   0  0  0  0  0  0  0  0  0  0  0  0
   -2.8660   -0.1590    0.4170 C   0  0  0  0  0  0  0  0  0  0  0  0
   -3.0440   -1.2550   -0.5330 C   0  0  0  0  0  0  0  0  0  0  0  0
   -2.7540   -2.5510   -0.4880 C   0  0  0  0  0  0  0  0  0  0  0  0
   -3.0900   -3.4000   -1.4700 C   0  0  0  0  0  0  0  0  0  0  0  0
   -3.7760   -2.8550   -2.5710 C   0  0  0  0  0  0  0  0  0  0  0  0
   -3.8890   -1.1270   -2.1020 S   0  0  0  0  0  0  0  0  0  0  0  0
   -1.6770    0.1090    1.0400 C   0  0  0  0  0  0  0  0  0  0  0  0
   -0.4600   -0.7020    0.8400 C   0  0  0  0  0  0  0  0  0  0  0  0
    0.5300    0.0500   -0.0690 C   0  0  0  0  0  0  0  0  0  0  0  0
    1.7260   -0.8660   -0.2160 C   0  0  0  0  0  0  0  0  0  0  0  0
    2.6940   -0.1990   -1.0630 N   0  0  0  0  0  0  0  0  0  0  0  0
    3.8540   -1.0280   -1.3020 C   0  0  0  0  0  0  0  0  0  0  0  0
    4.6670   -1.3360   -0.0930 C   0  0  0  0  0  0  0  0  0  0  0  0
    5.8790   -0.4010   -0.0370 C   0  0  0  0  0  0  0  0  0  0  0  0
    5.3390    0.9320    0.4460 C   0  0  0  0  0  0  0  0  0  0  0  0
    4.4770    1.4790   -0.6920 C   0  0  0  0  0  0  0  0  0  0  0  0
    3.0380    1.1060   -0.5520 C   0  0  0  0  0  0  0  0  0  0  0  0
  1  2  2  0
  2  3  1  0
  2 16  1  0
  3  4  1  0
  4  5  2  0
  4  9  1  0
  5  6  1  0
  6  7  2  0
  7  8  1  0
  8  9  2  0
  9 10  1  0
 10 11  1  0
 10 16  2  0
 11 12  2  0
 11 15  1  0
 12 13  1  0
 13 14  2  0
 14 15  1  0
 16 17  1  0
 17 18  1  0
 18 19  1  0
 19 20  1  0
 20 21  1  0
 20 26  1  0
 21 22  1  0
 22 23  1  0
 23 24  1  0
 24 25  1  0
 25 26  1  0
M  END
