
     RDKit          3D

 26 29  0  0  0  0  0  0  0  0999 V2000
   -5.8070    4.1850   -0.6200 C   0  0  0  0  0  0  0  0  0  0  0  0
   -4.4470    3.6400   -0.3440 C   0  0  0  0  0  0  0  0  0  0  0  0
   -4.3790    2.2050   -0.3890 N   0  0  0  0  0  0  0  0  0  0  0  0
   -3.1550    1.5420   -0.1480 C   0  0  0  0  0  0  0  0  0  0  0  0
   -2.0030    2.2830    0.1370 C   0  0  0  0  0  0  0  0  0  0  0  0
   -0.8210    1.6340    0.3690 C   0  0  0  0  0  0  0  0  0  0  0  0
   -0.6930    0.2590    0.3400 C   0  0  0  0  0  0  0  0  0  0  0  0
   -1.8160   -0.4710    0.0620 C   0  0  0  0  0  0  0  0  0  0  0  0
   -3.0210    0.1690   -0.1760 C   0  0  0  0  0  0  0  0  0  0  0  0
   -1.4750   -1.8120    0.0800 C   0  0  0  0  0  0  0  0  0  0  0  0
   -2.2080   -2.9690   -0.1290 C   0  0  0  0  0  0  0  0  0  0  0  0
   -1.5970   -4.1940   -0.0470 C   0  0  0  0  0  0  0  0  0  0  0  0
   -2.3230   -5.4570   -0.2590 C   0  0  0  0  0  0  0  0  0  0  0  0
   -0.2470   -4.2430    0.2480 C   0  0  0  0  0  0  0  0  0  0  0  0
    0.4740   -3.0810    0.4560 C   0  0  0  0  0  0  0  0  0  0  0  0
   -0.1300   -1.8390    0.3750 C   0  0  0  0  0  0  0  0  0  0  0  0
    0.3430   -0.5800    0.5320 N   0  0  0  0  0  0  0  0  0  0  0  0
    1.7110   -0.2320    0.8480 C   0  0  0  0  0  0  0  0  0  0  0  0
    2.5420   -0.0400   -0.3380 C   0  0  0  0  0  0  0  0  0  0  0  0
    2.1290   -0.1590   -1.5150 O   0  0  0  0  0  0  0  0  0  0  0  0
    3.9500    0.3170   -0.1330 C   0  0  0  0  0  0  0  0  0  0  0  0
    4.6700    0.5130    1.0120 C   0  0  0  0  0  0  0  0  0  0  0  0
    5.9510    0.8330    0.9050 C   0  0  0  0  0  0  0  0  0  0  0  0
    6.5290    0.9620   -0.3240 C   0  0  0  0  0  0  0  0  0  0  0  0
    7.8840    1.2970   -0.7550 C   0  0  0  0  0  0  0  0  0  0  0  0
    5.1540    0.6020   -1.4160 S   0  0  0  0  0  0  0  0  0  0  0  0
  1  2  1  0
  2  3  1  0
  3  4  1  0
  4  5  2  0
  4  9  1  0
  5  6  1  0
  6  7  2  0
  7  8  1  0
  7 17  1  0
  8  9  2  0
  8 10  1  0
 10 11  2  0
 10 16  1  0
 11 12  1  0
 12 13  1  0
 12 14  2  0
 14 15  1  0
 15 16  2  0
 16 17  1  0
 17 18  1  0
 18 19  1  0
 19 20  2  0
 19 21  1  0
 21 22  2  0
 21 26  1  0
 22 23  1  0
 23 24  2  0
 24 25  1  0
 24 26  1  0
M  END
