
     RDKit          3D

 26 29  0  0  0  0  0  0  0  0999 V2000
    8.9690   -0.2800    1.0150 C   0  0  0  0  0  0  0  0  0  0  0  0
    7.4580   -0.3900    0.7010 C   0  0  0  0  0  0  0  0  0  0  0  0
    6.9720   -1.6410    0.2730 C   0  0  0  0  0  0  0  0  0  0  0  0
    5.2230   -1.3190    0.0340 S   0  0  0  0  0  0  0  0  0  0  0  0
    5.2790    0.4030    0.5100 C   0  0  0  0  0  0  0  0  0  0  0  0
    4.1850    1.2940    0.5500 N   0  0  0  0  0  0  0  0  0  0  0  0
    2.8440    1.0060    0.2780 C   0  0  0  0  0  0  0  0  0  0  0  0
    1.9980    2.0750   -0.0100 C   0  0  0  0  0  0  0  0  0  0  0  0
    0.6680    1.9070   -0.2650 C   0  0  0  0  0  0  0  0  0  0  0  0
    0.1020    0.6320   -0.2430 C   0  0  0  0  0  0  0  0  0  0  0  0
   -1.2490    0.4770   -0.5020 O   0  0  0  0  0  0  0  0  0  0  0  0
   -1.7850   -0.8240   -0.4670 C   0  0  0  0  0  0  0  0  0  0  0  0
   -3.2570   -0.8080   -0.7620 C   0  0  0  0  0  0  0  0  0  0  0  0
   -3.8060   -1.4860   -1.8270 C   0  0  0  0  0  0  0  0  0  0  0  0
   -5.1720   -1.4410   -2.0670 C   0  0  0  0  0  0  0  0  0  0  0  0
   -6.0350   -0.7230   -1.2610 C   0  0  0  0  0  0  0  0  0  0  0  0
   -5.4900   -0.0460   -0.2000 C   0  0  0  0  0  0  0  0  0  0  0  0
   -4.1220   -0.0930    0.0390 C   0  0  0  0  0  0  0  0  0  0  0  0
   -6.5860    0.6540    0.5110 C   0  0  0  0  0  0  0  0  0  0  0  0
   -7.7790   -0.2260    0.2150 C   0  0  0  0  0  0  0  0  0  0  0  0
   -7.5270   -0.5070   -1.2770 C   0  0  0  0  0  0  0  0  0  0  0  0
    0.9450   -0.4100    0.0410 C   0  0  0  0  0  0  0  0  0  0  0  0
    2.3140   -0.2440    0.3040 C   0  0  0  0  0  0  0  0  0  0  0  0
    6.6000    0.6150    0.8140 C   0  0  0  0  0  0  0  0  0  0  0  0
    7.0150    1.9600    1.2630 C   0  0  0  0  0  0  0  0  0  0  0  0
    7.3310    3.0280    1.6350 N   0  0  0  0  0  0  0  0  0  0  0  0
  1  2  1  0
  2  3  2  0
  2 24  1  0
  3  4  1  0
  4  5  1  0
  5  6  1  0
  5 24  2  0
  6  7  1  0
  7  8  2  0
  7 23  1  0
  8  9  1  0
  9 10  2  0
 10 11  1  0
 10 22  1  0
 11 12  1  0
 12 13  1  0
 13 14  2  0
 13 18  1  0
 14 15  1  0
 15 16  2  0
 16 17  1  0
 16 21  1  0
 17 18  2  0
 17 19  1  0
 19 20  1  0
 20 21  1  0
 22 23  2  0
 24 25  1  0
 25 26  3  0
M  END
