
     RDKit          3D

 26 29  0  0  0  0  0  0  0  0999 V2000
    4.6810    2.0340   -0.7530 O   0  0  0  0  0  0  0  0  0  0  0  0
    4.0420    2.1510    0.3240 C   0  0  0  0  0  0  0  0  0  0  0  0
    3.2820    3.4520    0.5080 C   0  0  0  0  0  0  0  0  0  0  0  0
    2.1720    3.6310   -0.8820 S   0  0  0  0  0  0  0  0  0  0  0  0
    0.8470    2.4410   -0.7890 C   0  0  0  0  0  0  0  0  0  0  0  0
   -0.0810    2.3470   -1.8270 C   0  0  0  0  0  0  0  0  0  0  0  0
   -1.1440    1.4770   -1.8120 C   0  0  0  0  0  0  0  0  0  0  0  0
   -1.3470    0.6230   -0.7210 C   0  0  0  0  0  0  0  0  0  0  0  0
   -2.4470   -0.2780   -0.7060 N   0  0  0  0  0  0  0  0  0  0  0  0
   -3.1540   -0.5030   -1.9550 C   0  0  0  0  0  0  0  0  0  0  0  0
   -4.0850   -1.6990   -1.8560 C   0  0  0  0  0  0  0  0  0  0  0  0
   -5.0440   -1.3980   -0.7380 C   0  0  0  0  0  0  0  0  0  0  0  0
   -6.3260   -1.3800   -0.5340 C   0  0  0  0  0  0  0  0  0  0  0  0
   -6.6310   -0.9740    0.8650 C   0  0  0  0  0  0  0  0  0  0  0  0
   -5.2820   -0.7580    1.4490 C   0  0  0  0  0  0  0  0  0  0  0  0
   -4.4030   -1.0040    0.5230 C   0  0  0  0  0  0  0  0  0  0  0  0
   -2.9080   -0.9670    0.4800 C   0  0  0  0  0  0  0  0  0  0  0  0
   -0.4300    0.7190    0.3000 C   0  0  0  0  0  0  0  0  0  0  0  0
    0.6370    1.5960    0.2770 C   0  0  0  0  0  0  0  0  0  0  0  0
    4.0410    1.1410    1.2850 N   0  0  0  0  0  0  0  0  0  0  0  0
    4.7310   -0.0900    1.1900 C   0  0  0  0  0  0  0  0  0  0  0  0
    5.7370   -0.3380    0.3020 C   0  0  0  0  0  0  0  0  0  0  0  0
    6.3910   -1.5690    0.2090 C   0  0  0  0  0  0  0  0  0  0  0  0
    5.9820   -2.5640    1.0680 C   0  0  0  0  0  0  0  0  0  0  0  0
    4.9630   -2.3340    1.9790 C   0  0  0  0  0  0  0  0  0  0  0  0
    4.3410   -1.1290    2.0510 C   0  0  0  0  0  0  0  0  0  0  0  0
  1  2  2  0
  2  3  1  0
  2 20  1  0
  3  4  1  0
  4  5  1  0
  5  6  2  0
  5 19  1  0
  6  7  1  0
  7  8  2  0
  8  9  1  0
  8 18  1  0
  9 10  1  0
  9 17  1  0
 10 11  1  0
 11 12  1  0
 12 13  2  0
 12 16  1  0
 13 14  1  0
 14 15  1  0
 15 16  2  0
 16 17  1  0
 18 19  2  0
 20 21  1  0
 21 22  2  0
 21 26  1  0
 22 23  1  0
 23 24  2  0
 24 25  1  0
 25 26  2  0
M  END
