
     RDKit          3D

 17 18  0  0  0  0  0  0  0  0999 V2000
   -4.4650    1.9750   -0.6530 N   0  0  0  0  0  0  0  0  0  0  0  0
   -4.6180    0.5720   -0.5300 C   0  0  0  0  0  0  0  0  0  0  0  0
   -5.7720    0.0770   -0.6030 O   0  0  0  0  0  0  0  0  0  0  0  0
   -3.4750   -0.2970   -0.3240 C   0  0  0  0  0  0  0  0  0  0  0  0
   -3.6340   -1.6550   -0.2070 C   0  0  0  0  0  0  0  0  0  0  0  0
   -2.5650   -2.4800   -0.0140 C   0  0  0  0  0  0  0  0  0  0  0  0
   -1.3380   -1.9420    0.0620 N   0  0  0  0  0  0  0  0  0  0  0  0
   -1.1510   -0.5990   -0.0500 C   0  0  0  0  0  0  0  0  0  0  0  0
    0.1840   -0.1270    0.0440 N   0  0  0  0  0  0  0  0  0  0  0  0
    1.3070   -1.0130    0.2490 C   0  0  0  0  0  0  0  0  0  0  0  0
    2.5930   -0.2310    0.3070 C   0  0  0  0  0  0  0  0  0  0  0  0
    3.3140   -0.3010    1.4010 C   0  0  0  0  0  0  0  0  0  0  0  0
    4.5760    0.3810    1.6350 C   0  0  0  0  0  0  0  0  0  0  0  0
    5.1050    1.3080    0.3970 S   0  0  0  0  0  0  0  0  0  0  0  0
    3.9930    1.2910   -1.0290 C   0  0  0  0  0  0  0  0  0  0  0  0
    2.9070    0.5380   -0.8840 C   0  0  0  0  0  0  0  0  0  0  0  0
   -2.2110    0.2360   -0.2440 C   0  0  0  0  0  0  0  0  0  0  0  0
  1  2  1  0
  2  3  2  0
  2  4  1  0
  4  5  2  0
  4 17  1  0
  5  6  1  0
  6  7  2  0
  7  8  1  0
  8  9  1  0
  8 17  2  0
  9 10  1  0
 10 11  1  0
 11 12  2  0
 11 16  1  0
 12 13  1  0
 13 14  2  0
 14 15  1  0
 15 16  2  0
M  END
