
     RDKit          3D

 17 17  0  0  0  0  0  0  0  0999 V2000
   -3.3410    0.2640   -2.1270 C   0  0  0  0  0  0  0  0  0  0  0  0
   -2.0400    0.2050   -1.3030 C   0  0  0  0  0  0  0  0  0  0  0  0
   -1.8300    1.2070   -0.4830 C   0  0  0  0  0  0  0  0  0  0  0  0
   -2.7880    2.2680   -0.3940 O   0  0  0  0  0  0  0  0  0  0  0  0
   -2.3860    3.1680    0.4940 N   0  0  0  0  0  0  0  0  0  0  0  0
   -1.1340    2.7000    1.0030 C   0  0  0  0  0  0  0  0  0  0  0  0
   -0.3980    3.5750    1.8620 N   0  0  0  0  0  0  0  0  0  0  0  0
   -0.7610    1.5660    0.4750 C   0  0  0  0  0  0  0  0  0  0  0  0
    0.2990    0.6370    0.9060 C   0  0  0  0  0  0  0  0  0  0  0  0
    0.6610   -0.3510    0.1130 C   0  0  0  0  0  0  0  0  0  0  0  0
    1.6180   -1.3930    0.2450 C   0  0  0  0  0  0  0  0  0  0  0  0
    1.8010   -2.3030   -0.7410 C   0  0  0  0  0  0  0  0  0  0  0  0
    0.9930   -2.2310   -2.0030 C   0  0  0  0  0  0  0  0  0  0  0  0
    2.8150   -3.3530   -0.5230 C   0  0  0  0  0  0  0  0  0  0  0  0
    0.8930    0.7170    2.2050 C   0  0  0  0  0  0  0  0  0  0  0  0
    1.9610   -0.1260    2.6930 N   0  0  0  0  0  0  0  0  0  0  0  0
    0.3440    1.6520    3.4610 S   0  0  0  0  0  0  0  0  0  0  0  0
  1  2  1  0
  2  3  2  3
  3  4  1  0
  3  8  1  0
  4  5  1  0
  5  6  1  0
  6  7  1  0
  6  8  2  0
  8  9  1  0
  9 10  2  3
  9 15  1  0
 10 11  1  0
 11 12  2  3
 12 13  1  0
 12 14  1  0
 15 16  1  0
 15 17  2  0
M  END
