
     RDKit          3D

 17 18  0  0  0  0  0  0  0  0999 V2000
   -4.0680    1.6310    0.6630 N   0  0  0  0  0  0  0  0  0  0  0  0
   -4.6390    0.6800   -0.2100 C   0  0  0  0  0  0  0  0  0  0  0  0
   -4.0700   -0.3270   -0.7590 C   0  0  0  0  0  0  0  0  0  0  0  0
   -4.8600   -1.4930   -1.8570 S   0  0  0  0  0  0  0  0  0  0  0  0
   -3.6870   -2.8250   -1.4680 C   0  0  0  0  0  0  0  0  0  0  0  0
   -2.5270   -2.0330   -1.0140 C   0  0  0  0  0  0  0  0  0  0  0  0
   -2.7050   -0.8090   -0.6640 C   0  0  0  0  0  0  0  0  0  0  0  0
   -1.6700    0.0880   -0.2010 N   0  0  0  0  0  0  0  0  0  0  0  0
   -0.3130   -0.2380   -0.0470 C   0  0  0  0  0  0  0  0  0  0  0  0
    0.1130   -1.3530   -0.3040 O   0  0  0  0  0  0  0  0  0  0  0  0
    0.6390    0.7400    0.4240 N   0  0  0  0  0  0  0  0  0  0  0  0
    2.0210    0.3980    0.5790 C   0  0  2  0  0  0  0  0  0  0  0  0
    2.5100    0.5670    2.0010 C   0  0  0  0  0  0  0  0  0  0  0  0
    3.8740   -0.0770    2.0470 C   0  0  0  0  0  0  0  0  0  0  0  0
    4.6620   -0.0150    0.9980 C   0  0  0  0  0  0  0  0  0  0  0  0
    4.3230    0.6580   -0.2810 C   0  0  0  0  0  0  0  0  0  0  0  0
    2.9380    1.2180   -0.3030 C   0  0  0  0  0  0  0  0  0  0  0  0
  1  2  1  0
  2  3  2  3
  3  4  1  0
  3  7  1  0
  4  5  1  0
  5  6  1  0
  6  7  2  0
  7  8  1  0
  8  9  1  0
  9 10  2  0
  9 11  1  0
 12 11  1  1
 12 13  1  0
 12 17  1  0
 13 14  1  0
 14 15  2  0
 15 16  1  0
 16 17  1  0
M  END
