
     RDKit          3D

 17 17  0  0  0  0  0  0  0  0999 V2000
   -4.0210   -1.3920   -0.8530 C   0  0  0  0  0  0  0  0  0  0  0  0
   -3.7200   -0.2140   -0.3470 C   0  0  0  0  0  0  0  0  0  0  0  0
   -4.6540    0.8560    0.0470 C   0  0  0  0  0  0  0  0  0  0  0  0
   -3.9490    1.8750    0.5080 C   0  0  0  0  0  0  0  0  0  0  0  0
   -2.5400    1.5340    0.4420 C   0  0  0  0  0  0  0  0  0  0  0  0
   -2.3940    0.3120   -0.0580 C   0  0  0  0  0  0  0  0  0  0  0  0
   -1.1090   -0.3750   -0.2740 C   0  0  0  0  0  0  0  0  0  0  0  0
   -1.0450   -1.5180   -0.7460 O   0  0  0  0  0  0  0  0  0  0  0  0
    0.1170    0.2640    0.0570 N   0  0  0  0  0  0  0  0  0  0  0  0
    1.3630   -0.4120   -0.1570 C   0  0  0  0  0  0  0  0  0  0  0  0
    2.2830    0.0930   -0.9630 C   0  0  0  0  0  0  0  0  0  0  0  0
    3.5250   -0.5290   -1.2100 N   0  0  0  0  0  0  0  0  0  0  0  0
    4.6150    0.0880   -0.9460 C   0  0  0  0  0  0  0  0  0  0  0  0
    4.5620    1.4540   -0.3830 C   0  0  0  0  0  0  0  0  0  0  0  0
    1.5930   -1.6610    0.5280 C   0  0  0  0  0  0  0  0  0  0  0  0
    0.6290   -2.2300    1.3980 N   0  0  0  0  0  0  0  0  0  0  0  0
    3.0030   -2.4500    0.3010 S   0  0  0  0  0  0  0  0  0  0  0  0
  1  2  2  0
  2  3  1  0
  2  6  1  0
  3  4  2  0
  4  5  1  0
  5  6  2  0
  6  7  1  0
  7  8  2  0
  7  9  1  0
  9 10  1  0
 10 11  2  3
 10 15  1  0
 11 12  1  0
 12 13  2  3
 13 14  1  0
 15 16  1  0
 15 17  2  0
M  END
