
     RDKit          3D

 17 18  0  0  0  0  0  0  0  0999 V2000
    2.8540    1.2450    1.7070 C   0  0  0  0  0  0  0  0  0  0  0  0
    3.1630    0.6770    0.3550 C   0  0  0  0  0  0  0  0  0  0  0  0
    4.2430    0.8830   -0.3610 C   0  0  0  0  0  0  0  0  0  0  0  0
    4.1290    0.1340   -1.6170 C   0  0  0  0  0  0  0  0  0  0  0  0
    2.8190   -0.5350   -1.5160 C   0  0  0  0  0  0  0  0  0  0  0  0
    2.2760   -0.2090   -0.3700 C   0  0  0  0  0  0  0  0  0  0  0  0
    0.9940   -0.6530    0.1130 N   0  0  0  0  0  0  0  0  0  0  0  0
   -0.2050   -0.3330   -0.5950 C   0  0  0  0  0  0  0  0  0  0  0  0
   -0.0850    0.5500   -1.9700 S   0  0  0  0  0  0  0  0  0  0  0  0
   -1.4490   -0.7660   -0.1250 N   0  0  0  0  0  0  0  0  0  0  0  0
   -1.6770   -1.5510    1.0710 C   0  0  0  0  0  0  0  0  0  0  0  0
   -3.0150   -1.0150    1.5330 C   0  0  0  0  0  0  0  0  0  0  0  0
   -3.7770   -1.0520    0.2000 C   0  0  0  0  0  0  0  0  0  0  0  0
   -2.7200   -0.5130   -0.7400 C   0  0  1  0  0  0  0  0  0  0  0  0
   -3.0010    0.9320   -0.9080 C   0  0  0  0  0  0  0  0  0  0  0  0
   -2.1250    1.9640   -0.5000 N   0  0  0  0  0  0  0  0  0  0  0  0
   -4.0890    1.2600   -1.4470 O   0  0  0  0  0  0  0  0  0  0  0  0
  1  2  1  0
  2  3  2  0
  2  6  1  0
  3  4  1  0
  4  5  1  0
  5  6  2  0
  6  7  1  0
  7  8  1  0
  8  9  2  0
  8 10  1  0
 10 11  1  0
 10 14  1  0
 11 12  1  0
 12 13  1  0
 13 14  1  0
 14 15  1  1
 15 16  1  0
 15 17  2  0
M  END
