
     RDKit          3D

 17 18  0  0  0  0  0  0  0  0999 V2000
   -3.8120   -1.6920    1.0520 C   0  0  0  0  0  0  0  0  0  0  0  0
   -3.2910   -0.4070    0.4610 C   0  0  0  0  0  0  0  0  0  0  0  0
   -4.1810    0.4910   -0.0900 C   0  0  0  0  0  0  0  0  0  0  0  0
   -3.6430    1.6490   -0.6150 C   0  0  0  0  0  0  0  0  0  0  0  0
   -2.2620    1.8380   -0.5600 C   0  0  0  0  0  0  0  0  0  0  0  0
   -1.6970    3.0270   -1.0970 N   0  0  0  0  0  0  0  0  0  0  0  0
   -1.4330    0.8940    0.0070 C   0  0  0  0  0  0  0  0  0  0  0  0
   -0.1400    1.0890    0.0500 N   0  0  0  0  0  0  0  0  0  0  0  0
    0.7520    0.1670    0.6130 C   0  0  0  0  0  0  0  0  0  0  0  0
    0.4760   -0.3900    1.7330 N   0  0  0  0  0  0  0  0  0  0  0  0
    2.0210   -0.2080   -0.0220 C   0  0  0  0  0  0  0  0  0  0  0  0
    2.5900    0.2090   -1.2060 C   0  0  0  0  0  0  0  0  0  0  0  0
    3.7710   -0.3060   -1.5430 C   0  0  0  0  0  0  0  0  0  0  0  0
    4.3550   -1.2000   -0.7280 C   0  0  0  0  0  0  0  0  0  0  0  0
    5.6720   -1.9250   -0.8730 C   0  0  0  0  0  0  0  0  0  0  0  0
    3.2320   -1.3560    0.5830 S   0  0  0  0  0  0  0  0  0  0  0  0
   -1.9990   -0.1850    0.4900 O   0  0  0  0  0  0  0  0  0  0  0  0
  1  2  1  0
  2  3  2  0
  2 17  1  0
  3  4  1  0
  4  5  2  0
  5  6  1  0
  5  7  1  0
  7  8  2  3
  7 17  1  0
  8  9  1  0
  9 10  2  0
  9 11  1  0
 11 12  2  0
 11 16  1  0
 12 13  1  0
 13 14  2  0
 14 15  1  0
 14 16  1  0
M  END
