
     RDKit          3D

 11 11  0  0  0  0  0  0  0  0999 V2000
   -2.5620    0.6190   -0.1510 C   0  0  0  0  0  0  0  0  0  0  0  0
   -1.1270    0.4640    0.2770 C   0  0  2  0  0  0  0  0  0  0  0  0
   -0.3820    1.5240   -0.1960 O   0  0  0  0  0  0  0  0  0  0  0  0
    0.9690    1.2680   -0.2870 C   0  0  1  0  0  0  0  0  0  0  0  0
    1.7210    2.4330   -0.1330 O   0  0  0  0  0  0  0  0  0  0  0  0
    1.3510    0.2200    0.7420 C   0  0  2  0  0  0  0  0  0  0  0  0
    2.7480    0.0930    0.8150 O   0  0  0  0  0  0  0  0  0  0  0  0
    0.8050   -1.1070    0.2150 C   0  0  2  0  0  0  0  0  0  0  0  0
    1.6000   -1.4490   -0.8730 O   0  0  0  0  0  0  0  0  0  0  0  0
   -0.6210   -0.8580   -0.2690 C   0  0  1  0  0  0  0  0  0  0  0  0
   -1.3970   -1.8880    0.2610 O   0  0  0  0  0  0  0  0  0  0  0  0
  2  1  1  6
  2  3  1  0
  2 10  1  0
  3  4  1  0
  4  5  1  1
  4  6  1  0
  6  7  1  6
  6  8  1  0
  8  9  1  6
  8 10  1  0
 10 11  1  1
M  END
