
     RDKit          3D

 17 18  0  0  0  0  0  0  0  0999 V2000
    5.4860    1.1150    1.7620 O   0  0  0  0  0  0  0  0  0  0  0  0
    4.8430    0.4800    0.9080 C   0  0  0  0  0  0  0  0  0  0  0  0
    3.5540    0.0790    1.1600 C   0  0  0  0  0  0  0  0  0  0  0  0
    2.8100   -0.6330    0.2260 C   0  0  0  0  0  0  0  0  0  0  0  0
    1.4190   -1.0800    0.4640 C   0  0  0  0  0  0  0  0  0  0  0  0
    0.4800    0.0180   -0.0130 C   0  0  0  0  0  0  0  0  0  0  0  0
   -0.9640   -0.3650    0.1970 C   0  0  0  0  0  0  0  0  0  0  0  0
   -1.8000    0.7150   -0.2740 N   0  0  0  0  0  0  0  0  0  0  0  0
   -3.2220    0.5960   -0.1850 C   0  0  0  0  0  0  0  0  0  0  0  0
   -4.0190    1.5730    0.2000 C   0  0  0  0  0  0  0  0  0  0  0  0
   -5.4020    1.0570    0.1570 C   0  0  0  0  0  0  0  0  0  0  0  0
   -5.2530   -0.3380   -0.3050 C   0  0  0  0  0  0  0  0  0  0  0  0
   -3.9750   -0.6100   -0.5060 C   0  0  0  0  0  0  0  0  0  0  0  0
    3.4250   -0.9050   -0.9350 N   0  0  0  0  0  0  0  0  0  0  0  0
    4.6890   -0.5140   -1.1870 C   0  0  0  0  0  0  0  0  0  0  0  0
    5.3450   -0.9000   -2.6410 S   0  0  0  0  0  0  0  0  0  0  0  0
    5.4000    0.1780   -0.2670 N   0  0  0  0  0  0  0  0  0  0  0  0
  1  2  2  0
  2  3  1  0
  2 17  1  0
  3  4  2  0
  4  5  1  0
  4 14  1  0
  5  6  1  0
  6  7  1  0
  7  8  1  0
  8  9  1  0
  9 10  2  0
  9 13  1  0
 10 11  1  0
 11 12  1  0
 12 13  2  0
 14 15  1  0
 15 16  2  0
 15 17  1  0
M  END
