
     RDKit          3D

 16 16  0  0  0  0  0  0  0  0999 V2000
    4.1180    0.5640   -1.3640 C   0  0  0  0  0  0  0  0  0  0  0  0
    4.7880   -0.5100   -0.5610 C   0  0  0  0  0  0  0  0  0  0  0  0
    4.2150   -0.6270    0.8430 C   0  0  0  0  0  0  0  0  0  0  0  0
    2.7460   -0.9560    0.6820 C   0  0  0  0  0  0  0  0  0  0  0  0
    2.1070   -1.0890    1.9000 O   0  0  0  0  0  0  0  0  0  0  0  0
    0.7760   -1.3830    1.8090 C   0  0  0  0  0  0  0  0  0  0  0  0
   -0.0640   -0.3970    1.1240 C   0  0  0  0  0  0  0  0  0  0  0  0
    0.2050    0.9590    1.0930 C   0  0  0  0  0  0  0  0  0  0  0  0
   -0.6060    1.8550    0.4350 C   0  0  0  0  0  0  0  0  0  0  0  0
   -1.7320    1.4290   -0.2290 C   0  0  0  0  0  0  0  0  0  0  0  0
   -2.0330    0.0780   -0.2200 C   0  0  0  0  0  0  0  0  0  0  0  0
   -3.2290   -0.3940   -0.9210 C   0  0  0  0  0  0  0  0  0  0  0  0
   -4.4440   -0.4700   -0.0690 C   0  0  0  0  0  0  0  0  0  0  0  0
   -4.8990    0.8040    0.5520 C   0  0  0  0  0  0  0  0  0  0  0  0
   -3.9100    1.3000    1.3800 O   0  0  0  0  0  0  0  0  0  0  0  0
   -1.1950   -0.8160    0.4560 C   0  0  0  0  0  0  0  0  0  0  0  0
  1  2  1  0
  2  3  1  0
  3  4  1  0
  4  5  1  0
  5  6  1  0
  6  7  1  0
  7  8  2  0
  7 16  1  0
  8  9  1  0
  9 10  2  0
 10 11  1  0
 11 12  1  0
 11 16  2  0
 12 13  1  0
 13 14  1  0
 14 15  1  0
M  END
