
     RDKit          3D

 16 15  0  0  0  0  0  0  0  0999 V2000
    6.2890    1.4700    0.2100 C   0  0  0  0  0  0  0  0  0  0  0  0
    4.8310    1.0600    0.0540 C   0  0  0  0  0  0  0  0  0  0  0  0
    4.7550   -0.4240   -0.1740 C   0  0  0  0  0  0  0  0  0  0  0  0
    3.3440   -0.9060   -0.3390 C   0  0  0  0  0  0  0  0  0  0  0  0
    2.4810   -0.6330    0.8540 C   0  0  0  0  0  0  0  0  0  0  0  0
    1.0700   -1.1380    0.6640 C   0  0  0  0  0  0  0  0  0  0  0  0
    0.4390   -0.4700   -0.5130 C   0  0  0  0  0  0  0  0  0  0  0  0
   -0.9880   -0.9390   -0.7450 C   0  0  0  0  0  0  0  0  0  0  0  0
   -1.8890   -0.6650    0.4270 C   0  0  0  0  0  0  0  0  0  0  0  0
   -3.2690   -1.1780    0.0630 C   0  0  0  0  0  0  0  0  0  0  0  0
   -4.2730   -0.9640    1.1270 C   0  0  0  0  0  0  0  0  0  0  0  0
   -4.5350    0.4430    1.5260 C   0  0  0  0  0  0  0  0  0  0  0  0
   -5.1210    1.3730    0.5420 C   0  0  0  0  0  0  0  0  0  0  0  0
   -4.3810    1.6270   -0.6820 C   0  0  0  0  0  0  0  0  0  0  0  0
   -4.8520    1.3140   -1.8140 O   0  0  0  0  0  0  0  0  0  0  0  0
   -3.1270    2.2270   -0.6600 O   0  0  0  0  0  0  0  0  0  0  0  0
  1  2  1  0
  2  3  1  0
  3  4  1  0
  4  5  1  0
  5  6  1  0
  6  7  1  0
  7  8  1  0
  8  9  1  0
  9 10  1  0
 10 11  1  0
 11 12  1  0
 12 13  1  0
 13 14  1  0
 14 15  2  0
 14 16  1  0
M  END
