
     RDKit          3D

 16 16  0  0  0  0  0  0  0  0999 V2000
   -5.4190    1.4630   -0.4020 C   0  0  0  0  0  0  0  0  0  0  0  0
   -4.2340    0.5410   -0.3240 C   0  0  0  0  0  0  0  0  0  0  0  0
   -3.6670    0.3070    0.8240 C   0  0  0  0  0  0  0  0  0  0  0  0
   -2.5100   -0.5660    1.0120 C   0  0  0  0  0  0  0  0  0  0  0  0
   -1.9670   -1.1070   -0.2860 C   0  0  1  0  0  0  0  0  0  0  0  0
   -1.4570   -0.0190   -1.1590 C   0  0  0  0  0  0  0  0  0  0  0  0
    0.0180    0.1650   -1.2380 C   0  0  0  0  0  0  0  0  0  0  0  0
    0.8580   -1.0210   -0.9040 C   0  0  1  0  0  0  0  0  0  0  0  0
    2.2990   -0.7180   -0.8690 C   0  0  0  0  0  0  0  0  0  0  0  0
    3.0820   -1.3190   -1.6440 O   0  0  0  0  0  0  0  0  0  0  0  0
    2.8690    0.2130   -0.0140 O   0  0  0  0  0  0  0  0  0  0  0  0
    4.2180    0.5310    0.0560 C   0  0  2  0  0  0  0  0  0  0  0  0
    4.8280    0.4050    1.4120 C   0  0  0  0  0  0  0  0  0  0  0  0
    4.3620    1.9960   -0.3800 C   0  0  0  0  0  0  0  0  0  0  0  0
    0.3400   -1.5630    0.4130 C   0  0  0  0  0  0  0  0  0  0  0  0
   -0.9860   -2.1920    0.0590 C   0  0  0  0  0  0  0  0  0  0  0  0
  1  2  1  0
  2  3  2  3
  3  4  1  0
  5  4  1  1
  5  6  1  0
  5 16  1  0
  6  7  1  0
  7  8  1  0
  8  9  1  1
  8 15  1  0
  9 10  2  0
  9 11  1  0
 11 12  1  0
 12 13  1  1
 12 14  1  0
 15 16  1  0
M  END
