
     RDKit          3D

 16 16  0  0  0  0  0  0  0  0999 V2000
    6.2640   -0.0220   -0.0320 C   0  0  0  0  0  0  0  0  0  0  0  0
    4.8560   -0.4140    0.3880 C   0  0  0  0  0  0  0  0  0  0  0  0
    3.8300    0.0310   -0.5980 C   0  0  0  0  0  0  0  0  0  0  0  0
    2.5450   -0.3250   -0.2420 O   0  0  0  0  0  0  0  0  0  0  0  0
    2.1680    0.2210    0.9740 C   0  0  0  0  0  0  0  0  0  0  0  0
    0.7320   -0.2060    1.2730 C   0  0  0  0  0  0  0  0  0  0  0  0
   -0.0740    0.2900    0.2170 O   0  0  0  0  0  0  0  0  0  0  0  0
   -1.4480    0.0800    0.1730 C   0  0  0  0  0  0  0  0  0  0  0  0
   -2.1000   -0.6320    1.1720 C   0  0  0  0  0  0  0  0  0  0  0  0
   -3.4640   -0.8290    1.1100 C   0  0  0  0  0  0  0  0  0  0  0  0
   -4.1820   -1.5930    2.1770 C   0  0  0  0  0  0  0  0  0  0  0  0
   -4.1290   -0.2930    0.0280 C   0  0  0  0  0  0  0  0  0  0  0  0
   -3.4840    0.4170   -0.9700 C   0  0  0  0  0  0  0  0  0  0  0  0
   -4.2780    0.9630   -2.1060 C   0  0  0  0  0  0  0  0  0  0  0  0
   -2.1210    0.6130   -0.9070 C   0  0  0  0  0  0  0  0  0  0  0  0
   -1.4070    1.3780   -1.9750 C   0  0  0  0  0  0  0  0  0  0  0  0
  1  2  1  0
  2  3  1  0
  3  4  1  0
  4  5  1  0
  5  6  1  0
  6  7  1  0
  7  8  1  0
  8  9  2  0
  8 15  1  0
  9 10  1  0
 10 11  1  0
 10 12  2  0
 12 13  1  0
 13 14  1  0
 13 15  2  0
 15 16  1  0
M  END
