
     RDKit          3D

 16 16  0  0  0  0  0  0  0  0999 V2000
    6.3610   -1.0310    0.4750 C   0  0  0  0  0  0  0  0  0  0  0  0
    4.8380   -1.0380    0.4680 C   0  0  0  0  0  0  0  0  0  0  0  0
    4.3930   -0.2640   -0.7530 C   0  0  0  0  0  0  0  0  0  0  0  0
    2.8940   -0.2000   -0.8710 C   0  0  0  0  0  0  0  0  0  0  0  0
    2.3020    0.4180    0.2280 O   0  0  0  0  0  0  0  0  0  0  0  0
    0.9340    0.4240    0.0180 C   0  0  1  0  0  0  0  0  0  0  0  0
    0.1910   -0.3370    1.1120 C   0  0  0  0  0  0  0  0  0  0  0  0
   -1.1650   -0.6530    0.5190 C   0  0  0  0  0  0  0  0  0  0  0  0
   -1.7700    0.4180   -0.2810 C   0  0  1  0  0  0  0  0  0  0  0  0
   -3.2510    0.5800   -0.0400 C   0  0  1  0  0  0  0  0  0  0  0  0
   -3.8010    1.7360   -0.9090 C   0  0  0  0  0  0  0  0  0  0  0  0
   -4.1170   -0.5700   -0.3540 C   0  0  1  0  0  0  0  0  0  0  0  0
   -3.9360   -1.8490    0.3510 C   0  0  0  0  0  0  0  0  0  0  0  0
   -5.4510   -0.1560   -0.1530 O   0  0  0  0  0  0  0  0  0  0  0  0
   -1.0700    1.7430   -0.3390 C   0  0  0  0  0  0  0  0  0  0  0  0
    0.3350    1.8100    0.1010 C   0  0  0  0  0  0  0  0  0  0  0  0
  1  2  1  0
  2  3  1  0
  3  4  1  0
  4  5  1  0
  6  5  1  1
  6  7  1  0
  6 16  1  0
  7  8  1  0
  9  8  1  1
  9 10  1  0
  9 15  1  0
 10 11  1  6
 10 12  1  0
 12 13  1  1
 12 14  1  0
 15 16  1  0
M  END
