
     RDKit          3D

 16 16  0  0  0  0  0  0  0  0999 V2000
   -3.7410    1.3850    0.0810 C   0  0  0  0  0  0  0  0  0  0  0  0
   -3.6970    0.6720   -1.2130 C   0  0  0  0  0  0  0  0  0  0  0  0
   -2.6470   -0.3500   -1.4250 C   0  0  0  0  0  0  0  0  0  0  0  0
   -2.6240   -1.5290   -0.5350 C   0  0  2  0  0  0  0  0  0  0  0  0
   -3.8240   -2.2610   -0.5800 O   0  0  0  0  0  0  0  0  0  0  0  0
   -2.1610   -1.2080    0.8420 C   0  0  0  0  0  0  0  0  0  0  0  0
   -0.9870   -0.4920    0.8140 O   0  0  0  0  0  0  0  0  0  0  0  0
    0.0340   -1.1980    0.2780 C   0  0  0  0  0  0  0  0  0  0  0  0
    1.3250   -0.4260    0.2790 C   0  0  0  0  0  0  0  0  0  0  0  0
    2.4460   -1.0310   -0.2400 C   0  0  0  0  0  0  0  0  0  0  0  0
    3.6810   -0.3960   -0.2810 C   0  0  0  0  0  0  0  0  0  0  0  0
    4.8960   -1.0450   -0.8400 C   0  0  0  0  0  0  0  0  0  0  0  0
    3.7800    0.8860    0.2160 C   0  0  0  0  0  0  0  0  0  0  0  0
    2.6610    1.5030    0.7380 C   0  0  0  0  0  0  0  0  0  0  0  0
    2.7740    2.8810    1.2720 C   0  0  0  0  0  0  0  0  0  0  0  0
    1.4260    0.8490    0.7730 C   0  0  0  0  0  0  0  0  0  0  0  0
  1  2  1  0
  2  3  1  0
  3  4  1  0
  4  5  1  1
  4  6  1  0
  6  7  1  0
  7  8  1  0
  8  9  1  0
  9 10  2  0
  9 16  1  0
 10 11  1  0
 11 12  1  0
 11 13  2  0
 13 14  1  0
 14 15  1  0
 14 16  2  0
M  END
