
     RDKit          3D

 16 16  0  0  0  0  0  0  0  0999 V2000
    2.3620   -1.8120    1.8550 C   0  0  0  0  0  0  0  0  0  0  0  0
    2.7950   -0.8470    1.1280 C   0  0  0  0  0  0  0  0  0  0  0  0
    2.2840   -0.1780   -0.0240 C   0  0  0  0  0  0  0  0  0  0  0  0
    3.1250    0.8040   -0.5080 C   0  0  0  0  0  0  0  0  0  0  0  0
    2.8150    1.6170   -1.6810 C   0  0  0  0  0  0  0  0  0  0  0  0
    1.0460   -0.3300   -0.7700 C   0  0  0  0  0  0  0  0  0  0  0  0
   -0.2720   -0.1090   -0.1300 C   0  0  1  0  0  0  0  0  0  0  0  0
   -0.3840    1.2450    0.4770 C   0  0  0  0  0  0  0  0  0  0  0  0
    0.5680    2.0300    0.6240 O   0  0  0  0  0  0  0  0  0  0  0  0
   -1.6320    1.7120    0.9320 O   0  0  0  0  0  0  0  0  0  0  0  0
   -1.7560    3.0050    1.5170 C   0  0  0  0  0  0  0  0  0  0  0  0
   -1.2740   -0.0190   -1.3250 C   0  0  0  0  0  0  0  0  0  0  0  0
   -1.9140   -1.3520   -1.5950 C   0  0  0  0  0  0  0  0  0  0  0  0
   -2.7980   -1.7950   -0.4490 C   0  0  0  0  0  0  0  0  0  0  0  0
   -2.2740   -1.2440    0.8720 C   0  0  0  0  0  0  0  0  0  0  0  0
   -0.7550   -1.1380    0.8240 C   0  0  0  0  0  0  0  0  0  0  0  0
  1  2  2  0
  2  3  1  0
  3  4  2  3
  3  6  1  0
  4  5  1  0
  7  6  1  6
  7  8  1  0
  7 12  1  0
  7 16  1  0
  8  9  2  0
  8 10  1  0
 10 11  1  0
 12 13  1  0
 13 14  1  0
 14 15  1  0
 15 16  1  0
M  END
