
     RDKit          3D

 21 23  0  0  0  0  0  0  0  0999 V2000
   -4.8350   -0.3790   -1.1550 C   0  0  0  0  0  0  0  0  0  0  0  0
   -4.1750   -0.0180    0.1450 C   0  0  0  0  0  0  0  0  0  0  0  0
   -2.7680    0.3800   -0.0160 C   0  0  0  0  0  0  0  0  0  0  0  0
   -1.6600   -0.4130    0.2880 C   0  0  0  0  0  0  0  0  0  0  0  0
   -0.5490    0.3100    0.0010 C   0  0  0  0  0  0  0  0  0  0  0  0
    0.8750   -0.0430    0.1320 C   0  0  0  0  0  0  0  0  0  0  0  0
    1.8330    0.8280   -0.1910 O   0  0  0  0  0  0  0  0  0  0  0  0
    3.0120    0.3160   -0.0010 C   0  0  0  0  0  0  0  0  0  0  0  0
    4.2830    0.8270   -0.1900 C   0  0  0  0  0  0  0  0  0  0  0  0
    5.3700    0.0190    0.1100 C   0  0  0  0  0  0  0  0  0  0  0  0
    5.2420   -1.2740    0.5890 C   0  0  0  0  0  0  0  0  0  0  0  0
    6.3550   -2.0460    0.8750 O   0  0  0  0  0  0  0  0  0  0  0  0
    3.9470   -1.7660    0.7710 C   0  0  0  0  0  0  0  0  0  0  0  0
    2.8740   -0.9640    0.4730 C   0  0  0  0  0  0  0  0  0  0  0  0
    1.4800   -1.1720    0.5500 C   0  0  0  0  0  0  0  0  0  0  0  0
    0.9590   -2.3390    0.9820 O   0  0  0  0  0  0  0  0  0  0  0  0
   -0.9700    1.4790   -0.4530 O   0  0  0  0  0  0  0  0  0  0  0  0
   -2.2660    1.5730   -0.4840 C   0  0  0  0  0  0  0  0  0  0  0  0
   -3.0840    2.7090   -0.9240 C   0  0  0  0  0  0  0  0  0  0  0  0
   -2.4980    3.7340   -1.3270 O   0  0  0  0  0  0  0  0  0  0  0  0
   -4.4610    2.6820   -0.9070 O   0  0  0  0  0  0  0  0  0  0  0  0
  1  2  1  0
  2  3  1  0
  3  4  1  0
  3 18  2  0
  4  5  2  0
  5  6  1  0
  5 17  1  0
  6  7  1  0
  6 15  2  0
  7  8  1  0
  8  9  2  0
  8 14  1  0
  9 10  1  0
 10 11  2  0
 11 12  1  0
 11 13  1  0
 13 14  2  0
 14 15  1  0
 15 16  1  0
 17 18  1  0
 18 19  1  0
 19 20  2  0
 19 21  1  0
M  END
