
     RDKit          3D

 21 23  0  0  0  0  0  0  0  0999 V2000
    6.5280   -0.8690    0.4190 O   0  0  0  0  0  0  0  0  0  0  0  0
    5.6430    0.1430   -0.0010 C   0  0  0  0  0  0  0  0  0  0  0  0
    4.2190   -0.3790    0.2170 C   0  0  0  0  0  0  0  0  0  0  0  0
    3.3070    0.6130   -0.1940 O   0  0  0  0  0  0  0  0  0  0  0  0
    1.9310    0.4540   -0.1260 C   0  0  0  0  0  0  0  0  0  0  0  0
    1.4080   -0.7120    0.3590 C   0  0  0  0  0  0  0  0  0  0  0  0
    0.0030   -0.8560    0.4210 C   0  0  0  0  0  0  0  0  0  0  0  0
   -0.8060    0.1660   -0.0030 C   0  0  0  0  0  0  0  0  0  0  0  0
   -0.2910    1.3430   -0.4930 C   0  0  0  0  0  0  0  0  0  0  0  0
    1.1020    1.4680   -0.5460 C   0  0  0  0  0  0  0  0  0  0  0  0
    1.6990    2.6220   -1.0270 O   0  0  0  0  0  0  0  0  0  0  0  0
   -2.2390    0.0340    0.0530 C   0  0  0  0  0  0  0  0  0  0  0  0
   -3.0930    1.0220   -0.3560 C   0  0  0  0  0  0  0  0  0  0  0  0
   -4.4660    0.8650   -0.2890 C   0  0  0  0  0  0  0  0  0  0  0  0
   -5.3420    1.8700   -0.7060 O   0  0  0  0  0  0  0  0  0  0  0  0
   -5.0450   -0.2920    0.1920 C   0  0  0  0  0  0  0  0  0  0  0  0
   -6.3940   -0.4950    0.2780 O   0  0  0  0  0  0  0  0  0  0  0  0
   -4.1760   -1.2790    0.6010 C   0  0  0  0  0  0  0  0  0  0  0  0
   -2.8030   -1.1540    0.5480 C   0  0  0  0  0  0  0  0  0  0  0  0
   -1.9440   -2.1420    0.9580 O   0  0  0  0  0  0  0  0  0  0  0  0
   -0.5680   -2.1080    0.9420 C   0  0  0  0  0  0  0  0  0  0  0  0
  1  2  1  0
  2  3  1  0
  3  4  1  0
  4  5  1  0
  5  6  2  0
  5 10  1  0
  6  7  1  0
  7  8  2  0
  7 21  1  0
  8  9  1  0
  8 12  1  0
  9 10  2  0
 10 11  1  0
 12 13  2  0
 12 19  1  0
 13 14  1  0
 14 15  1  0
 14 16  2  0
 16 17  1  0
 16 18  1  0
 18 19  2  0
 19 20  1  0
 20 21  1  0
M  END
