
     RDKit          3D

 25 26  0  0  0  0  0  0  0  0999 V2000
    2.9970    2.9480    1.0460 C   0  0  0  0  0  0  0  0  0  0  0  0
    3.6760    2.0000    0.4760 C   0  0  0  0  0  0  0  0  0  0  0  0
    3.0830    0.7270    0.0940 C   0  0  0  0  0  0  0  0  0  0  0  0
    3.9170   -0.1190   -0.4740 C   0  0  0  0  0  0  0  0  0  0  0  0
    5.3600    0.2310   -0.6980 C   0  0  0  0  0  0  0  0  0  0  0  0
    1.7160    0.5410    0.3660 N   0  0  0  0  0  0  0  0  0  0  0  0
    0.9450   -0.6450    0.0660 C   0  0  0  0  0  0  0  0  0  0  0  0
    1.5830   -1.5540   -0.4730 O   0  0  0  0  0  0  0  0  0  0  0  0
   -0.4850   -0.7540    0.3780 C   0  0  0  0  0  0  0  0  0  0  0  0
   -0.9810    0.4600    0.9950 N   0  0  0  0  0  0  0  0  0  0  0  0
   -1.0950    1.6550    0.1910 C   0  0  0  0  0  0  0  0  0  0  0  0
   -1.1190    1.7930   -1.1150 C   0  0  0  0  0  0  0  0  0  0  0  0
   -1.2500    3.2210   -1.4950 C   0  0  0  0  0  0  0  0  0  0  0  0
   -1.2990    3.8920   -0.1820 C   0  0  0  0  0  0  0  0  0  0  0  0
   -1.2100    2.9800    0.7710 C   0  0  0  0  0  0  0  0  0  0  0  0
   -1.2290    3.3180    2.1000 F   0  0  0  0  0  0  0  0  0  0  0  0
   -1.2490   -1.7930    0.1280 C   0  0  0  0  0  0  0  0  0  0  0  0
   -0.7950   -3.0250   -0.5150 C   0  0  0  0  0  0  0  0  0  0  0  0
    0.3520   -3.1790   -0.9010 O   0  0  0  0  0  0  0  0  0  0  0  0
   -1.7490   -4.1380   -0.7160 C   0  0  0  0  0  0  0  0  0  0  0  0
   -2.9890   -4.0480   -0.3330 C   0  0  0  0  0  0  0  0  0  0  0  0
   -3.8990   -5.1430   -0.5390 N   0  0  0  0  0  0  0  0  0  0  0  0
   -3.4010   -2.8660    0.2780 N   0  0  0  0  0  0  0  0  0  0  0  0
   -2.6610   -1.8110    0.5150 C   0  0  0  0  0  0  0  0  0  0  0  0
   -3.3310   -0.7050    1.1930 C   0  0  0  0  0  0  0  0  0  0  0  0
  1  2  2  0
  2  3  1  0
  3  4  2  3
  3  6  1  0
  4  5  1  0
  6  7  1  0
  7  8  2  0
  7  9  1  0
  9 10  1  0
  9 17  2  3
 10 11  1  0
 11 12  2  0
 11 15  1  0
 12 13  1  0
 13 14  1  0
 14 15  2  0
 15 16  1  0
 17 18  1  0
 17 24  1  0
 18 19  2  0
 18 20  1  0
 20 21  2  0
 21 22  1  0
 21 23  1  0
 23 24  2  0
 24 25  1  0
M  END
