
     RDKit          3D

 25 27  0  0  0  0  0  0  0  0999 V2000
    7.2350    1.8900   -0.7160 C   0  0  0  0  0  0  0  0  0  0  0  0
    6.1840    0.8880   -0.3530 C   0  0  0  0  0  0  0  0  0  0  0  0
    6.5000   -0.3670    0.1120 C   0  0  0  0  0  0  0  0  0  0  0  0
    5.5370   -1.2790    0.4430 C   0  0  0  0  0  0  0  0  0  0  0  0
    5.8490   -2.5440    0.9120 O   0  0  0  0  0  0  0  0  0  0  0  0
    4.2000   -0.9200    0.3020 C   0  0  0  0  0  0  0  0  0  0  0  0
    3.2090   -1.9440    0.6510 C   0  0  0  0  0  0  0  0  0  0  0  0
    1.8540   -1.4780    0.5180 N   0  0  0  0  0  0  0  0  0  0  0  0
    1.3590   -0.4410    1.3510 C   0  0  0  0  0  0  0  0  0  0  0  0
    2.1370    0.0460    2.2070 O   0  0  0  0  0  0  0  0  0  0  0  0
   -0.0420    0.0460    1.2040 C   0  0  0  0  0  0  0  0  0  0  0  0
   -0.6030    0.9630    1.8830 N   0  0  0  0  0  0  0  0  0  0  0  0
   -1.9220    1.1970    1.5160 N   0  0  0  0  0  0  0  0  0  0  0  0
   -2.2270    0.3020    0.4610 C   0  0  0  0  0  0  0  0  0  0  0  0
   -3.3940    0.2110   -0.1740 C   0  0  0  0  0  0  0  0  0  0  0  0
   -3.6710   -0.7380   -1.2700 C   0  0  0  0  0  0  0  0  0  0  0  0
   -5.1390   -1.0700   -1.3870 C   0  0  0  0  0  0  0  0  0  0  0  0
   -6.0040    0.1540   -1.4930 C   0  0  0  0  0  0  0  0  0  0  0  0
   -5.3150    1.3980   -0.9880 C   0  0  0  0  0  0  0  0  0  0  0  0
   -4.4770    1.1130    0.2460 C   0  0  1  0  0  0  0  0  0  0  0  0
   -5.2830    0.5530    1.3140 N   0  0  0  0  0  0  0  0  0  0  0  0
   -0.9980   -0.4860    0.2230 C   0  0  0  0  0  0  0  0  0  0  0  0
    3.8870    0.3330   -0.1640 C   0  0  0  0  0  0  0  0  0  0  0  0
    4.8670    1.2460   -0.4940 C   0  0  0  0  0  0  0  0  0  0  0  0
    4.5460    2.4870   -0.9550 F   0  0  0  0  0  0  0  0  0  0  0  0
  1  2  1  0
  2  3  2  0
  2 24  1  0
  3  4  1  0
  4  5  1  0
  4  6  2  0
  6  7  1  0
  6 23  1  0
  7  8  1  0
  8  9  1  0
  9 10  2  0
  9 11  1  0
 11 12  2  0
 11 22  1  0
 12 13  1  0
 13 14  1  0
 14 15  2  3
 14 22  1  0
 15 16  1  0
 15 20  1  0
 16 17  1  0
 17 18  1  0
 18 19  1  0
 19 20  1  0
 20 21  1  1
 23 24  2  0
 24 25  1  0
M  CHG  1  21   1
M  END
