
     RDKit          3D

 21 23  0  0  0  0  0  0  0  0999 V2000
   -0.1540    3.2510   -0.1350 O   0  0  0  0  0  0  0  0  0  0  0  0
   -0.8260    2.1660   -0.1330 C   0  0  0  0  0  0  0  0  0  0  0  0
   -2.1340    2.2350   -0.1970 O   0  0  0  0  0  0  0  0  0  0  0  0
   -2.8990    1.1740   -0.2000 C   0  0  0  0  0  0  0  0  0  0  0  0
   -4.2720    1.3370   -0.2700 C   0  0  0  0  0  0  0  0  0  0  0  0
   -5.0990    0.2400   -0.2750 C   0  0  0  0  0  0  0  0  0  0  0  0
   -4.5410   -1.0270   -0.2110 C   0  0  0  0  0  0  0  0  0  0  0  0
   -5.3570   -2.1490   -0.2150 O   0  0  0  0  0  0  0  0  0  0  0  0
   -3.1670   -1.2080   -0.1410 C   0  0  0  0  0  0  0  0  0  0  0  0
   -2.3520   -0.1070   -0.1360 C   0  0  0  0  0  0  0  0  0  0  0  0
   -0.9930   -0.2330   -0.0690 C   0  0  0  0  0  0  0  0  0  0  0  0
   -0.3760   -1.4480   -0.0030 C   0  0  0  0  0  0  0  0  0  0  0  0
    1.0020   -1.4900    0.0630 C   0  0  0  0  0  0  0  0  0  0  0  0
    1.6330   -2.7210    0.1300 O   0  0  0  0  0  0  0  0  0  0  0  0
    1.7780   -0.3590    0.0650 C   0  0  0  0  0  0  0  0  0  0  0  0
    3.1610   -0.4430    0.1330 O   0  0  0  0  0  0  0  0  0  0  0  0
    3.9370    0.7260    0.1340 C   0  0  0  0  0  0  0  0  0  0  0  0
    5.4040    0.3300    0.2140 C   0  0  0  0  0  0  0  0  0  0  0  0
    5.6040   -0.3890    1.3940 O   0  0  0  0  0  0  0  0  0  0  0  0
    1.1640    0.8890   -0.0010 C   0  0  0  0  0  0  0  0  0  0  0  0
   -0.2130    0.9330   -0.0670 C   0  0  0  0  0  0  0  0  0  0  0  0
  1  2  2  0
  2  3  1  0
  2 21  1  0
  3  4  1  0
  4  5  2  0
  4 10  1  0
  5  6  1  0
  6  7  2  0
  7  8  1  0
  7  9  1  0
  9 10  2  0
 10 11  1  0
 11 12  2  0
 11 21  1  0
 12 13  1  0
 13 14  1  0
 13 15  2  0
 15 16  1  0
 15 20  1  0
 16 17  1  0
 17 18  1  0
 18 19  1  0
 20 21  2  0
M  END
