
     RDKit          3D

 21 23  0  0  0  0  0  0  0  0999 V2000
    5.2290    0.1460   -1.7620 O   0  0  0  0  0  0  0  0  0  0  0  0
    4.1510   -0.1540   -0.9540 C   0  0  0  0  0  0  0  0  0  0  0  0
    3.7430   -1.4460   -0.7140 C   0  0  0  0  0  0  0  0  0  0  0  0
    2.6480   -1.6980    0.1090 C   0  0  0  0  0  0  0  0  0  0  0  0
    2.2840   -3.0060    0.3140 O   0  0  0  0  0  0  0  0  0  0  0  0
    1.9550   -0.6500    0.6980 C   0  0  0  0  0  0  0  0  0  0  0  0
    0.7930   -0.8810    1.5730 C   0  0  2  0  0  0  0  0  0  0  0  0
    0.5730   -2.2690    1.6430 O   0  0  0  0  0  0  0  0  0  0  0  0
   -0.4170   -0.1480    1.1280 C   0  0  0  0  0  0  0  0  0  0  0  0
   -0.7910    0.9950    1.7990 C   0  0  0  0  0  0  0  0  0  0  0  0
   -1.9180    1.6640    1.3720 C   0  0  0  0  0  0  0  0  0  0  0  0
   -2.6870    1.2420    0.3050 C   0  0  0  0  0  0  0  0  0  0  0  0
   -2.3000    0.0820   -0.3690 C   0  0  0  0  0  0  0  0  0  0  0  0
   -1.1850   -0.5710    0.0620 C   0  0  0  0  0  0  0  0  0  0  0  0
   -3.1020   -0.2940   -1.4250 O   0  0  0  0  0  0  0  0  0  0  0  0
   -4.5240   -0.1280   -1.3400 C   0  0  0  0  0  0  0  0  0  0  0  0
   -4.9180    1.1740   -0.7290 C   0  0  0  0  0  0  0  0  0  0  0  0
   -3.8110    1.8740   -0.1510 O   0  0  0  0  0  0  0  0  0  0  0  0
    2.3660    0.6350    0.4550 C   0  0  0  0  0  0  0  0  0  0  0  0
    3.4520    0.8790   -0.3620 C   0  0  0  0  0  0  0  0  0  0  0  0
    3.8720    2.1720   -0.6110 O   0  0  0  0  0  0  0  0  0  0  0  0
  1  2  1  0
  2  3  2  0
  2 20  1  0
  3  4  1  0
  4  5  1  0
  4  6  2  0
  6  7  1  0
  6 19  1  0
  7  8  1  6
  7  9  1  0
  9 10  2  0
  9 14  1  0
 10 11  1  0
 11 12  2  0
 12 13  1  0
 12 18  1  0
 13 14  2  0
 13 15  1  0
 15 16  1  0
 16 17  1  0
 17 18  1  0
 19 20  2  0
 20 21  1  0
M  END
