
     RDKit          3D

 32 33  0  0  0  0  0  0  0  0999 V2000
   -4.1150   -1.4370   -1.7870 N   0  0  0  0  0  0  0  0  0  0  0  0
   -3.2380   -0.5570   -1.0500 C   0  0  0  0  0  0  0  0  0  0  0  0
   -2.2940   -0.0730   -1.7110 O   0  0  0  0  0  0  0  0  0  0  0  0
   -3.5000   -0.3120    0.3180 N   0  0  0  0  0  0  0  0  0  0  0  0
   -4.5460   -0.8750    0.9760 C   0  0  0  0  0  0  0  0  0  0  0  0
   -5.5250   -1.7750    0.4820 N   0  0  0  0  0  0  0  0  0  0  0  0
   -5.4210   -3.5350    0.5940 P   0  0  0  0  0  0  0  0  0  0  0  0
   -6.6160   -4.2710   -0.4270 O   0  0  0  0  0  0  0  0  0  0  0  0
   -3.8870   -4.2000    0.2300 O   0  0  0  0  0  0  0  0  0  0  0  0
   -4.4930   -0.4160    2.2400 N   0  0  0  0  0  0  0  0  0  0  0  0
   -3.4530    0.3980    2.3530 N   0  0  0  0  0  0  0  0  0  0  0  0
   -2.8120    0.4770    1.1470 C   0  0  0  0  0  0  0  0  0  0  0  0
   -1.6030    1.2690    0.8270 C   0  0  1  0  0  0  0  0  0  0  0  0
   -0.9730    1.7570    2.1090 C   0  0  0  0  0  0  0  0  0  0  0  0
    0.2820    1.2070    2.0900 O   0  0  0  0  0  0  0  0  0  0  0  0
    0.5620    1.0160    0.7590 C   0  0  1  0  0  0  0  0  0  0  0  0
    1.0630    2.2930    0.1240 C   0  0  0  0  0  0  0  0  0  0  0  0
    0.1540    3.3310    0.1960 O   0  0  0  0  0  0  0  0  0  0  0  0
    0.9090    4.7060   -0.5920 P   0  0  0  0  0  0  0  0  0  0  0  0
    0.4040    6.1280    0.2600 O   0  0  0  0  0  0  0  0  0  0  0  0
    2.6340    4.5690   -0.4620 O   0  0  0  0  0  0  0  0  0  0  0  0
    1.6140   -0.0070    0.5310 C   0  0  0  0  0  0  0  0  0  0  0  0
    2.1560   -0.6040    1.4670 O   0  0  0  0  0  0  0  0  0  0  0  0
    1.9830   -0.2850   -0.7740 O   0  0  0  0  0  0  0  0  0  0  0  0
    2.9860   -1.2540   -1.0090 C   0  0  0  0  0  0  0  0  0  0  0  0
    4.2740   -0.8270   -0.3610 C   0  0  0  0  0  0  0  0  0  0  0  0
    4.3170    0.2580    0.2630 O   0  0  0  0  0  0  0  0  0  0  0  0
    5.4430   -1.6040   -0.4280 N   0  0  0  0  0  0  0  0  0  0  0  0
    6.9890   -1.1110    0.3410 P   0  0  0  0  0  0  0  0  0  0  0  0
    6.9460   -1.3900    2.0480 O   0  0  0  0  0  0  0  0  0  0  0  0
    8.2790   -1.9690   -0.4270 O   0  0  0  0  0  0  0  0  0  0  0  0
   -0.6120    0.5480    0.1650 O   0  0  0  0  0  0  0  0  0  0  0  0
  1  2  1  0
  2  3  2  0
  2  4  1  0
  4  5  1  0
  4 12  1  0
  5  6  1  0
  5 10  2  0
  6  7  1  0
  7  8  1  0
  7  9  1  0
 10 11  1  0
 11 12  2  0
 13 12  1  1
 13 14  1  0
 13 32  1  0
 14 15  1  0
 15 16  1  0
 16 17  1  6
 16 22  1  0
 16 32  1  0
 17 18  1  0
 18 19  1  0
 19 20  1  0
 19 21  1  0
 22 23  2  0
 22 24  1  0
 24 25  1  0
 25 26  1  0
 26 27  2  0
 26 28  1  0
 28 29  1  0
 29 30  1  0
 29 31  1  0
M  END
