
     RDKit          3D

 31 32  0  0  0  0  0  0  0  0999 V2000
   -1.4520    3.0740    2.6370 N   0  0  0  0  0  0  0  0  0  0  0  0
   -0.8750    2.6990    1.3940 C   0  0  0  0  0  0  0  0  0  0  0  0
    0.3550    2.8470    1.2570 O   0  0  0  0  0  0  0  0  0  0  0  0
   -1.7410    2.1770    0.3790 N   0  0  0  0  0  0  0  0  0  0  0  0
   -1.0740    1.8080   -0.8530 C   0  0  0  0  0  0  0  0  0  0  0  0
    0.0810    0.8960   -0.6830 C   0  0  0  0  0  0  0  0  0  0  0  0
   -0.0010   -0.1560    0.3540 C   0  0  2  0  0  0  0  0  0  0  0  0
    0.7290   -1.4050   -0.1840 C   0  0  0  0  0  0  0  0  0  0  0  0
    1.9620   -0.9180   -0.6480 O   0  0  0  0  0  0  0  0  0  0  0  0
    2.9340   -2.1890   -1.2980 P   0  0  0  0  0  0  0  0  0  0  0  0
    2.8940   -3.6040   -0.3230 O   0  0  0  0  0  0  0  0  0  0  0  0
    4.5300   -1.5870   -1.5380 O   0  0  0  0  0  0  0  0  0  0  0  0
    5.0720   -0.5640   -0.2740 P   0  0  0  0  0  0  0  0  0  0  0  0
    4.8860    1.0990   -0.7930 O   0  0  0  0  0  0  0  0  0  0  0  0
    6.7360   -0.7900    0.1110 O   0  0  0  0  0  0  0  0  0  0  0  0
    7.0270   -0.6180    1.8190 P   0  0  0  0  0  0  0  0  0  0  0  0
    5.5450   -1.0070    2.6370 O   0  0  0  0  0  0  0  0  0  0  0  0
    7.5230    0.9900    2.2140 O   0  0  0  0  0  0  0  0  0  0  0  0
   -1.2850   -0.4860    0.8700 N   0  0  0  0  0  0  0  0  0  0  0  0
   -2.2400   -1.3580    0.2840 C   0  0  0  0  0  0  0  0  0  0  0  0
   -2.9400   -2.1440    1.0180 O   0  0  0  0  0  0  0  0  0  0  0  0
   -2.5330   -1.4670   -1.1600 C   0  0  1  0  0  0  0  0  0  0  0  0
   -2.2930   -2.8060   -1.4980 O   0  0  0  0  0  0  0  0  0  0  0  0
   -3.4510   -3.3410   -1.9770 C   0  0  0  0  0  0  0  0  0  0  0  0
   -4.5030   -2.5060   -1.5850 O   0  0  0  0  0  0  0  0  0  0  0  0
   -3.9560   -1.1960   -1.4720 C   0  0  0  0  0  0  0  0  0  0  0  0
   -4.5370   -0.1110   -1.6050 N   0  0  0  0  0  0  0  0  0  0  0  0
   -4.2910    1.2190   -1.5570 N   0  0  0  0  0  0  0  0  0  0  0  0
   -4.1520    2.0450   -0.4280 N   0  0  0  0  0  0  0  0  0  0  0  0
   -3.1500    2.0400    0.5530 C   0  0  0  0  0  0  0  0  0  0  0  0
   -3.5140    1.8970    1.7760 O   0  0  0  0  0  0  0  0  0  0  0  0
  1  2  1  0
  2  3  2  0
  2  4  1  0
  4  5  1  0
  4 30  1  0
  5  6  1  0
  6  7  1  0
  7  8  1  6
  7 19  1  0
  8  9  1  0
  9 10  1  0
 10 11  1  0
 10 12  1  0
 12 13  1  0
 13 14  1  0
 13 15  1  0
 15 16  1  0
 16 17  1  0
 16 18  1  0
 19 20  1  0
 20 21  2  0
 20 22  1  0
 22 23  1  1
 22 26  1  0
 23 24  1  0
 24 25  1  0
 25 26  1  0
 26 27  2  0
 27 28  1  0
 28 29  1  0
 29 30  1  0
 30 31  2  0
M  END
