
     RDKit          3D

 32 35  0  0  0  0  0  0  0  0999 V2000
   -6.5450   -1.4800    1.8300 O   0  0  0  0  0  0  0  0  0  0  0  0
   -5.4060   -1.6070    1.3060 C   0  0  0  0  0  0  0  0  0  0  0  0
   -4.8570   -2.7620    0.6380 N   0  0  0  0  0  0  0  0  0  0  0  0
   -3.6890   -2.5190    0.1920 C   0  0  0  0  0  0  0  0  0  0  0  0
   -2.5140   -2.9500   -0.4520 O   0  0  0  0  0  0  0  0  0  0  0  0
   -1.5360   -1.9460   -0.3140 N   0  0  0  0  0  0  0  0  0  0  0  0
   -2.0220   -0.9520    0.3270 C   0  0  0  0  0  0  0  0  0  0  0  0
   -1.5370    0.3100    0.7640 N   0  0  0  0  0  0  0  0  0  0  0  0
   -0.3460    0.5240    1.4990 C   0  0  2  0  0  0  0  0  0  0  0  0
   -0.5530    1.2790    2.7550 C   0  0  0  0  0  0  0  0  0  0  0  0
   -0.9100    0.7940    3.8890 O   0  0  0  0  0  0  0  0  0  0  0  0
   -0.2870    2.6390    2.4840 N   0  0  0  0  0  0  0  0  0  0  0  0
    0.4220    2.6660    1.2540 C   0  0  0  0  0  0  0  0  0  0  0  0
    0.8530    3.6870    0.6510 O   0  0  0  0  0  0  0  0  0  0  0  0
    0.5930    1.3520    0.7690 N   0  0  0  0  0  0  0  0  0  0  0  0
    1.4900    0.8830   -0.2310 C   0  0  0  0  0  0  0  0  0  0  0  0
    2.2460    1.7230   -0.7770 O   0  0  0  0  0  0  0  0  0  0  0  0
    1.5550   -0.4360   -0.6130 O   0  0  0  0  0  0  0  0  0  0  0  0
    2.6510   -1.0390   -1.8430 P   0  0  0  0  0  0  0  0  0  0  0  0
    3.1530   -2.6370   -1.3940 O   0  0  0  0  0  0  0  0  0  0  0  0
    4.4150   -2.6310   -0.2250 P   0  0  0  0  0  0  0  0  0  0  0  0
    5.9730   -2.9160   -0.9290 O   0  0  0  0  0  0  0  0  0  0  0  0
    4.3950   -1.2420    0.7900 O   0  0  0  0  0  0  0  0  0  0  0  0
    4.4360    0.2070   -2.0500 P   0  0  0  0  0  0  0  0  0  0  0  0
    4.1880    1.3880   -3.2840 O   0  0  0  0  0  0  0  0  0  0  0  0
    4.7720    1.0090   -0.5510 O   0  0  0  0  0  0  0  0  0  0  0  0
   -2.4250    1.3840    0.3210 C   0  0  0  0  0  0  0  0  0  0  0  0
   -2.1800    2.5790    0.6040 O   0  0  0  0  0  0  0  0  0  0  0  0
   -3.6070    1.0900   -0.4540 N   0  0  0  0  0  0  0  0  0  0  0  0
   -3.8780   -0.2490   -0.9350 C   0  0  0  0  0  0  0  0  0  0  0  0
   -3.4680   -1.1010    0.3940 C   0  0  1  0  0  0  0  0  0  0  0  0
   -4.3730   -0.6400    1.2430 O   0  0  0  0  0  0  0  0  0  0  0  0
  1  2  2  0
  2  3  1  0
  2 32  1  0
  3  4  2  0
  4  5  1  0
  4 31  1  0
  5  6  1  0
  6  7  2  0
  7  8  1  0
  7 31  1  0
  9  8  1  6
  8 27  1  0
  9 10  1  0
  9 15  1  0
 10 11  2  0
 10 12  1  0
 12 13  1  0
 13 14  2  0
 13 15  1  0
 15 16  1  0
 16 17  2  0
 16 18  1  0
 18 19  1  0
 19 20  1  0
 19 24  1  0
 20 21  1  0
 21 22  1  0
 21 23  1  0
 24 25  1  0
 24 26  1  0
 27 28  2  0
 27 29  1  0
 29 30  1  0
 31 30  1  6
 31 32  1  0
M  END
