
     RDKit          3D

 31 32  0  0  0  0  0  0  0  0999 V2000
    2.9650   -0.0610   -1.3710 N   0  0  0  0  0  0  0  0  0  0  0  0
    3.1550    0.1660   -0.1530 C   0  0  0  0  0  0  0  0  0  0  0  0
    4.5050    0.6640    0.1450 N   0  0  0  0  0  0  0  0  0  0  0  0
    5.4990    1.3270   -1.1840 P   0  0  0  0  0  0  0  0  0  0  0  0
    5.4260    3.0520   -1.1160 O   0  0  0  0  0  0  0  0  0  0  0  0
    7.6160    0.7530   -0.9160 P   0  0  0  0  0  0  0  0  0  0  0  0
    7.9500    0.5690    0.7860 O   0  0  0  0  0  0  0  0  0  0  0  0
    7.9240   -0.7770   -1.6690 O   0  0  0  0  0  0  0  0  0  0  0  0
    2.3180    0.0170    0.9560 N   0  0  0  0  0  0  0  0  0  0  0  0
    0.9020    0.2010    1.0800 C   0  0  0  0  0  0  0  0  0  0  0  0
    0.1640   -0.8650    0.3600 C   0  0  0  0  0  0  0  0  0  0  0  0
   -1.2700   -0.7950    0.4910 N   0  0  0  0  0  0  0  0  0  0  0  0
   -1.8610   -1.5300    1.5490 C   0  0  0  0  0  0  0  0  0  0  0  0
   -1.2260   -1.9230    2.5430 O   0  0  0  0  0  0  0  0  0  0  0  0
   -3.3320   -1.8650    1.4860 C   0  0  0  0  0  0  0  0  0  0  0  0
   -3.9360   -0.6940    1.1090 O   0  0  0  0  0  0  0  0  0  0  0  0
   -3.5870   -0.2920   -0.1710 C   0  0  2  0  0  0  0  0  0  0  0  0
   -4.4110    0.9290   -0.4740 C   0  0  0  0  0  0  0  0  0  0  0  0
   -4.3390    1.5440   -1.5670 O   0  0  0  0  0  0  0  0  0  0  0  0
   -5.3010    1.3990    0.5180 N   0  0  0  0  0  0  0  0  0  0  0  0
   -6.1040    2.4820    0.3900 O   0  0  0  0  0  0  0  0  0  0  0  0
   -5.8960    3.1820   -0.6830 O   0  0  0  0  0  0  0  0  0  0  0  0
   -4.1370   -1.3380   -1.1000 C   0  0  0  0  0  0  0  0  0  0  0  0
   -5.3940   -1.5160   -1.0130 O   0  0  0  0  0  0  0  0  0  0  0  0
   -3.3440   -2.0480   -1.9760 O   0  0  0  0  0  0  0  0  0  0  0  0
   -2.1430   -1.5080   -2.3520 N   0  0  0  0  0  0  0  0  0  0  0  0
   -1.7820   -0.2420   -1.8140 C   0  0  0  0  0  0  0  0  0  0  0  0
   -1.1990    0.6430   -2.5130 O   0  0  0  0  0  0  0  0  0  0  0  0
   -2.1310   -0.0230   -0.3750 C   0  0  2  0  0  0  0  0  0  0  0  0
    3.1830   -0.5110    2.4960 P   0  0  0  0  0  0  0  0  0  0  0  0
    3.1290   -1.9820    2.9590 O   0  0  0  0  0  0  0  0  0  0  0  0
  1  2  2  0
  2  3  1  0
  2  9  1  0
  3  4  1  0
  4  5  1  0
  4  6  1  0
  6  7  1  0
  6  8  1  0
  9 10  1  0
  9 30  1  0
 10 11  1  0
 11 12  1  0
 12 13  1  0
 29 12  1  1
 13 14  2  0
 13 15  1  0
 15 16  1  0
 16 17  1  0
 17 18  1  6
 17 23  1  0
 17 29  1  0
 18 19  2  0
 18 20  1  0
 20 21  1  0
 21 22  1  0
 23 24  2  0
 23 25  1  0
 25 26  1  0
 26 27  1  0
 27 28  2  0
 27 29  1  0
 30 31  2  0
M  END
