
     RDKit          3D

 32 33  0  0  0  0  0  0  0  0999 V2000
    5.2710    2.2010    0.5680 N   0  0  0  0  0  0  0  0  0  0  0  0
    5.7420    1.0550    0.1170 C   0  0  0  0  0  0  0  0  0  0  0  0
    4.6760    0.2860   -0.1400 N   0  0  0  0  0  0  0  0  0  0  0  0
    3.6670   -0.4430   -0.3830 C   0  0  0  0  0  0  0  0  0  0  0  0
    4.1530   -1.3880   -1.2190 O   0  0  0  0  0  0  0  0  0  0  0  0
    2.3490   -0.8460   -0.2850 N   0  0  0  0  0  0  0  0  0  0  0  0
    1.2840   -0.4480    0.4240 C   0  0  0  0  0  0  0  0  0  0  0  0
    1.4650    0.6210    1.0630 O   0  0  0  0  0  0  0  0  0  0  0  0
    0.0540   -1.1800    0.4770 N   0  0  0  0  0  0  0  0  0  0  0  0
   -0.8690   -0.6330    1.4810 C   0  0  0  0  0  0  0  0  0  0  0  0
   -1.8150    0.3380    0.8840 C   0  0  2  0  0  0  0  0  0  0  0  0
   -2.9550   -0.3400    0.1480 C   0  0  0  0  0  0  0  0  0  0  0  0
   -4.1520    0.4750    0.3970 N   0  0  0  0  0  0  0  0  0  0  0  0
   -5.3320   -0.0130   -0.2200 C   0  0  0  0  0  0  0  0  0  0  0  0
   -5.7480    0.8890   -1.3770 C   0  0  2  0  0  0  0  0  0  0  0  0
   -6.9470    0.4060   -1.8950 O   0  0  0  0  0  0  0  0  0  0  0  0
   -7.9360    1.2420   -1.7290 O   0  0  0  0  0  0  0  0  0  0  0  0
   -8.3530    1.3130   -0.4880 O   0  0  0  0  0  0  0  0  0  0  0  0
   -4.7370    0.9560   -2.3330 O   0  0  0  0  0  0  0  0  0  0  0  0
   -3.8180    1.8670   -2.0340 O   0  0  0  0  0  0  0  0  0  0  0  0
   -3.7350    2.0810   -0.3190 P   0  0  0  0  0  0  0  0  0  0  0  0
   -2.0390    2.5060    0.2810 C   0  0  0  0  0  0  0  0  0  0  0  0
   -1.2360    1.3830    0.2230 O   0  0  0  0  0  0  0  0  0  0  0  0
   -0.3110   -2.1330   -0.2440 O   0  0  0  0  0  0  0  0  0  0  0  0
    0.1060   -3.2970   -0.6540 C   0  0  0  0  0  0  0  0  0  0  0  0
    0.4310   -4.5000    0.7210 P   0  0  0  0  0  0  0  0  0  0  0  0
   -0.7410   -4.4840    1.9510 O   0  0  0  0  0  0  0  0  0  0  0  0
    2.0580   -4.5720    1.2230 O   0  0  0  0  0  0  0  0  0  0  0  0
    7.0980    0.8440   -0.0430 N   0  0  0  0  0  0  0  0  0  0  0  0
    8.2410    2.1640    0.2460 P   0  0  0  0  0  0  0  0  0  0  0  0
    7.5570    3.7050   -0.0290 O   0  0  0  0  0  0  0  0  0  0  0  0
    8.8950    2.0830    1.8350 O   0  0  0  0  0  0  0  0  0  0  0  0
  1  2  2  0
  2  3  1  0
  2 29  1  0
  3  4  1  0
  4  5  2  0
  4  6  1  0
  6  7  1  0
  7  8  2  0
  7  9  1  0
  9 10  1  0
  9 24  1  0
 11 10  1  6
 11 12  1  0
 11 23  1  0
 12 13  1  0
 13 14  1  0
 13 21  1  0
 14 15  1  0
 15 16  1  6
 15 19  1  0
 16 17  1  0
 17 18  1  0
 19 20  1  0
 20 21  1  0
 21 22  1  0
 22 23  1  0
 24 25  1  0
 25 26  1  0
 26 27  1  0
 26 28  1  0
 29 30  1  0
 30 31  1  0
 30 32  1  0
M  END
