
     RDKit          3D

 32 33  0  0  0  0  0  0  0  0999 V2000
    0.6880    4.7650    0.9630 O   0  0  0  0  0  0  0  0  0  0  0  0
    1.0330    3.7490    1.6010 C   0  0  0  0  0  0  0  0  0  0  0  0
    1.3320    3.8750    2.9440 O   0  0  0  0  0  0  0  0  0  0  0  0
    1.0930    2.5480    0.9080 O   0  0  0  0  0  0  0  0  0  0  0  0
    0.7890    2.4440   -0.4400 C   0  0  0  0  0  0  0  0  0  0  0  0
    0.4470    3.4950   -1.0370 O   0  0  0  0  0  0  0  0  0  0  0  0
    0.8730    1.1050   -1.1400 C   0  0  1  0  0  0  0  0  0  0  0  0
    0.5060    1.3170   -2.4990 O   0  0  0  0  0  0  0  0  0  0  0  0
    2.2530    0.6330   -1.1190 C   0  0  0  0  0  0  0  0  0  0  0  0
    2.5160   -0.6500   -0.5490 N   0  0  0  0  0  0  0  0  0  0  0  0
    1.5460   -1.3970   -0.0410 C   0  0  0  0  0  0  0  0  0  0  0  0
    2.1510   -2.5390    0.4110 N   0  0  0  0  0  0  0  0  0  0  0  0
    3.4440   -2.4570    0.1710 N   0  0  0  0  0  0  0  0  0  0  0  0
    3.7170   -1.2940   -0.4280 C   0  0  0  0  0  0  0  0  0  0  0  0
    4.9860   -0.7910   -0.8670 N   0  0  0  0  0  0  0  0  0  0  0  0
    6.4860   -1.7090   -0.6610 P   0  0  0  0  0  0  0  0  0  0  0  0
    6.3240   -3.2140   -1.5450 O   0  0  0  0  0  0  0  0  0  0  0  0
    6.8060   -2.1100    0.9830 O   0  0  0  0  0  0  0  0  0  0  0  0
    0.2000   -0.9560   -0.0450 N   0  0  0  0  0  0  0  0  0  0  0  0
   -0.1460    0.1790   -0.5370 C   0  0  0  0  0  0  0  0  0  0  0  0
   -1.5370    0.6140   -0.5310 C   0  0  0  0  0  0  0  0  0  0  0  0
   -1.8070    1.7570   -1.0470 O   0  0  0  0  0  0  0  0  0  0  0  0
   -2.6330   -0.1020   -0.0110 N   0  0  0  0  0  0  0  0  0  0  0  0
   -2.4730   -1.3800    0.6200 C   0  0  0  0  0  0  0  0  0  0  0  0
   -2.5770   -2.8070   -0.5430 P   0  0  0  0  0  0  0  0  0  0  0  0
   -1.9680   -2.4440   -2.1010 O   0  0  0  0  0  0  0  0  0  0  0  0
   -4.1280   -3.5390   -0.5640 O   0  0  0  0  0  0  0  0  0  0  0  0
   -3.9700    0.4790   -0.1220 C   0  0  0  0  0  0  0  0  0  0  0  0
   -4.3690    1.5290    1.3570 P   0  0  0  0  0  0  0  0  0  0  0  0
   -5.6040    2.6830    0.9200 O   0  0  0  0  0  0  0  0  0  0  0  0
   -5.0050    0.5590    2.6640 O   0  0  0  0  0  0  0  0  0  0  0  0
   -4.0700    0.2930    3.5570 O   0  0  0  0  0  0  0  0  0  0  0  0
  1  2  2  0
  2  3  1  0
  2  4  1  0
  4  5  1  0
  5  6  2  0
  5  7  1  0
  7  8  1  6
  7  9  1  0
  7 20  1  0
  9 10  1  0
 10 11  1  0
 10 14  1  0
 11 12  2  0
 11 19  1  0
 12 13  1  0
 13 14  2  0
 14 15  1  0
 15 16  1  0
 16 17  1  0
 16 18  1  0
 19 20  2  0
 20 21  1  0
 21 22  2  0
 21 23  1  0
 23 24  1  0
 23 28  1  0
 24 25  1  0
 25 26  1  0
 25 27  1  0
 28 29  1  0
 29 30  1  0
 29 31  1  0
 31 32  1  0
M  END
