
     RDKit          3D

 31 31  0  0  0  0  0  0  0  0999 V2000
   -4.9830    4.4120    2.5790 O   0  0  0  0  0  0  0  0  0  0  0  0
   -4.9020    3.1650    1.6540 P   0  0  0  0  0  0  0  0  0  0  0  0
   -3.3250    2.7010    0.9940 N   0  0  0  0  0  0  0  0  0  0  0  0
   -3.2960    1.2890    0.5620 C   0  0  2  0  0  0  0  0  0  0  0  0
   -4.5710    1.0760   -0.7310 P   0  0  0  0  0  0  0  0  0  0  0  0
   -6.1220    0.6590   -0.1000 O   0  0  0  0  0  0  0  0  0  0  0  0
   -4.6980    2.4290   -1.7970 O   0  0  0  0  0  0  0  0  0  0  0  0
   -3.6300    0.3920    1.7320 C   0  0  0  0  0  0  0  0  0  0  0  0
   -3.3600   -0.9650    1.3710 N   0  0  0  0  0  0  0  0  0  0  0  0
   -4.3080   -2.0150    1.4190 C   0  0  0  0  0  0  0  0  0  0  0  0
   -5.4740   -1.7610    1.8040 O   0  0  0  0  0  0  0  0  0  0  0  0
   -3.9500   -3.2980    1.0480 O   0  0  0  0  0  0  0  0  0  0  0  0
   -4.8150   -4.3090    1.0810 O   0  0  0  0  0  0  0  0  0  0  0  0
   -2.0070   -1.2690    0.9240 C   0  0  0  0  0  0  0  0  0  0  0  0
   -1.6330   -0.3850   -0.2590 C   0  0  1  0  0  0  0  0  0  0  0  0
   -0.3410   -0.6880   -0.6980 N   0  0  0  0  0  0  0  0  0  0  0  0
    0.8310   -0.5520    0.0770 C   0  0  0  0  0  0  0  0  0  0  0  0
    0.7220   -0.1310    1.2330 O   0  0  0  0  0  0  0  0  0  0  0  0
    2.1310   -0.8730   -0.3980 N   0  0  0  0  0  0  0  0  0  0  0  0
    3.3010   -0.7460    0.3520 N   0  0  0  0  0  0  0  0  0  0  0  0
    4.4640   -0.2900   -0.3230 C   0  0  0  0  0  0  0  0  0  0  0  0
    4.4380   -0.0080   -1.5640 O   0  0  0  0  0  0  0  0  0  0  0  0
    5.7230   -0.1200    0.3320 N   0  0  0  0  0  0  0  0  0  0  0  0
    6.8690    0.3460   -0.4060 C   0  0  0  0  0  0  0  0  0  0  0  0
    8.0700    0.4430    0.4990 C   0  0  0  0  0  0  0  0  0  0  0  0
    9.1860    0.8950   -0.2130 O   0  0  0  0  0  0  0  0  0  0  0  0
   10.1970    0.9620    0.6050 O   0  0  0  0  0  0  0  0  0  0  0  0
   -2.8150   -0.7610   -1.6790 P   0  0  0  0  0  0  0  0  0  0  0  0
   -2.3220   -2.2860   -2.3850 O   0  0  0  0  0  0  0  0  0  0  0  0
   -2.5420    0.4600   -2.8770 O   0  0  0  0  0  0  0  0  0  0  0  0
   -1.8920    1.0360    0.1330 C   0  0  0  0  0  0  0  0  0  0  0  0
  1  2  2  0
  2  3  1  0
  4  3  1  1
  4  5  1  0
  4  8  1  0
  4 31  1  0
  5  6  1  0
  5  7  1  0
  8  9  1  0
  9 10  1  0
  9 14  1  0
 10 11  2  0
 10 12  1  0
 12 13  1  0
 14 15  1  0
 15 16  1  6
 15 28  1  0
 15 31  1  0
 16 17  1  0
 17 18  2  0
 17 19  1  0
 19 20  1  0
 20 21  1  0
 21 22  2  0
 21 23  1  0
 23 24  1  0
 24 25  1  0
 25 26  1  0
 26 27  1  0
 28 29  1  0
 28 30  1  0
M  END
