
     RDKit          3D

 44 49  0  0  0  0  0  0  0  0999 V2000
   -7.2360   -4.0270    1.1460 N   0  0  0  0  0  0  0  0  0  0  0  0
   -8.3830   -3.2080    1.1620 C   0  0  0  0  0  0  0  0  0  0  0  0
   -9.4790   -3.6890    1.4750 O   0  0  0  0  0  0  0  0  0  0  0  0
   -8.2860   -1.7630    0.7970 C   0  0  0  0  0  0  0  0  0  0  0  0
   -7.1130   -1.2940    0.4660 C   0  0  0  0  0  0  0  0  0  0  0  0
   -6.9150    0.0690    0.1100 N   0  0  0  0  0  0  0  0  0  0  0  0
   -5.6050    0.5280   -0.2210 C   0  0  1  0  0  0  0  0  0  0  0  0
   -4.6990   -0.3570   -0.6770 O   0  0  0  0  0  0  0  0  0  0  0  0
   -3.8130    0.2170   -1.5170 C   0  0  2  0  0  0  0  0  0  0  0  0
   -2.3740    0.3020   -0.9360 C   0  0  0  0  0  0  0  0  0  0  0  0
   -2.5360    1.1650    0.0680 O   0  0  0  0  0  0  0  0  0  0  0  0
   -1.3600    1.7370    0.9280 P   0  0  0  0  0  0  0  0  0  0  0  0
   -0.6930    2.7750   -0.1000 O   0  0  0  0  0  0  0  0  0  0  0  0
   -1.7560    2.6470    2.2570 O   0  0  0  0  0  0  0  0  0  0  0  0
    0.1320    1.3660    0.8730 O   0  0  0  0  0  0  0  0  0  0  0  0
    1.4380    1.3770    1.3840 P   0  0  0  0  0  0  0  0  0  0  0  0
    0.9540   -0.2190    1.4750 O   0  0  0  0  0  0  0  0  0  0  0  0
    0.6630    2.6010    2.0630 O   0  0  0  0  0  0  0  0  0  0  0  0
    2.5220    1.7500    0.2350 O   0  0  0  0  0  0  0  0  0  0  0  0
    2.6310    0.6130   -0.6370 C   0  0  0  0  0  0  0  0  0  0  0  0
    3.9380    0.0820   -0.2150 C   0  0  1  0  0  0  0  0  0  0  0  0
    4.5790   -0.9650   -0.7100 O   0  0  0  0  0  0  0  0  0  0  0  0
    5.6280   -1.1210    0.2710 C   0  0  1  0  0  0  0  0  0  0  0  0
    6.7980   -1.5970   -0.4590 N   0  0  0  0  0  0  0  0  0  0  0  0
    6.8120   -2.2280   -1.6320 C   0  0  0  0  0  0  0  0  0  0  0  0
    8.1170   -2.4380   -1.9860 N   0  0  0  0  0  0  0  0  0  0  0  0
    8.9320   -1.9450   -1.0510 C   0  0  0  0  0  0  0  0  0  0  0  0
   10.2940   -1.8730   -0.9150 C   0  0  0  0  0  0  0  0  0  0  0  0
   11.1740   -2.4010   -1.8890 N   0  0  0  0  0  0  0  0  0  0  0  0
   10.7930   -1.2800    0.1820 N   0  0  0  0  0  0  0  0  0  0  0  0
    9.9630   -0.7600    1.1360 C   0  0  0  0  0  0  0  0  0  0  0  0
    8.6530   -0.8360    0.9890 N   0  0  0  0  0  0  0  0  0  0  0  0
    8.0700   -1.4150   -0.0810 C   0  0  0  0  0  0  0  0  0  0  0  0
    5.9270    0.2490    0.8400 C   0  0  2  0  0  0  0  0  0  0  0  0
    5.6590    0.3930    2.1770 O   0  0  0  0  0  0  0  0  0  0  0  0
    5.0060    1.1250   -0.0350 C   0  0  2  0  0  0  0  0  0  0  0  0
    4.6150    2.2750    0.5850 O   0  0  0  0  0  0  0  0  0  0  0  0
   -4.2370    1.6850   -1.7010 C   0  0  1  0  0  0  0  0  0  0  0  0
   -3.9870    2.1840   -2.9390 O   0  0  0  0  0  0  0  0  0  0  0  0
   -5.6510    1.6870   -1.2210 C   0  0  1  0  0  0  0  0  0  0  0  0
   -6.5620    1.3620   -2.2130 O   0  0  0  0  0  0  0  0  0  0  0  0
   -8.0390    0.9210    0.1300 C   0  0  0  0  0  0  0  0  0  0  0  0
   -9.2290    0.4760    0.4550 C   0  0  0  0  0  0  0  0  0  0  0  0
   -9.4890   -0.9250    0.8160 C   0  0  0  0  0  0  0  0  0  0  0  0
  1  2  1  0
  2  3  2  0
  2  4  1  0
  4  5  2  0
  4 44  1  0
  5  6  1  0
  7  6  1  6
  6 42  1  0
  7  8  1  0
  7 40  1  0
  8  9  1  0
  9 10  1  1
  9 38  1  0
 10 11  1  0
 11 12  1  0
 12 13  1  0
 12 14  1  0
 12 15  1  0
 15 16  1  0
 16 17  1  0
 16 18  1  0
 16 19  1  0
 19 20  1  0
 21 20  1  6
 21 22  1  0
 21 36  1  0
 22 23  1  0
 23 24  1  6
 23 34  1  0
 24 25  1  0
 24 33  1  0
 25 26  2  0
 26 27  1  0
 27 28  2  0
 27 33  1  0
 28 29  1  0
 28 30  1  0
 30 31  2  0
 31 32  1  0
 32 33  2  0
 34 35  1  1
 34 36  1  0
 36 37  1  1
 38 39  1  6
 38 40  1  0
 40 41  1  6
 42 43  2  0
 43 44  1  0
 18 15  1  0
M  END
