
     RDKit          3D

 31 32  0  0  0  0  0  0  0  0999 V2000
   -1.9950    1.4060    2.8040 O   0  0  0  0  0  0  0  0  0  0  0  0
   -2.8600    0.5320    2.9440 C   0  0  0  0  0  0  0  0  0  0  0  0
   -3.2100    0.1590    4.2390 O   0  0  0  0  0  0  0  0  0  0  0  0
   -3.4720   -0.0680    1.8050 N   0  0  0  0  0  0  0  0  0  0  0  0
   -3.1370    0.2880    0.4380 C   0  0  2  0  0  0  0  0  0  0  0  0
   -3.4110    1.6300    0.1800 O   0  0  0  0  0  0  0  0  0  0  0  0
   -4.7130    1.9780    0.4180 C   0  0  0  0  0  0  0  0  0  0  0  0
   -5.9510    1.0560   -0.5830 P   0  0  0  0  0  0  0  0  0  0  0  0
   -6.5110   -0.3780    0.2470 O   0  0  0  0  0  0  0  0  0  0  0  0
   -7.3600    2.0910   -0.7490 O   0  0  0  0  0  0  0  0  0  0  0  0
   -3.9480   -0.4560   -0.3860 O   0  0  0  0  0  0  0  0  0  0  0  0
   -3.4740   -0.5640   -1.6920 C   0  0  0  0  0  0  0  0  0  0  0  0
   -2.3280   -1.5080   -1.6240 C   0  0  0  0  0  0  0  0  0  0  0  0
   -2.1890   -2.5330   -2.3140 O   0  0  0  0  0  0  0  0  0  0  0  0
   -1.3320   -1.1290   -0.6440 N   0  0  0  0  0  0  0  0  0  0  0  0
   -1.7120    0.0200    0.1450 C   0  0  0  0  0  0  0  0  0  0  0  0
   -0.7390    0.7680    0.5580 N   0  0  0  0  0  0  0  0  0  0  0  0
    0.6090    0.5210    0.2860 C   0  0  0  0  0  0  0  0  0  0  0  0
    1.1260    0.1140   -0.8690 N   0  0  0  0  0  0  0  0  0  0  0  0
    2.4580   -0.0170   -0.7600 C   0  0  0  0  0  0  0  0  0  0  0  0
    3.3910   -0.4260   -1.7450 N   0  0  0  0  0  0  0  0  0  0  0  0
    4.7980   -0.5070   -1.4520 C   0  0  1  0  0  0  0  0  0  0  0  0
    5.4860   -0.9550   -2.6040 O   0  0  0  0  0  0  0  0  0  0  0  0
    5.4540    1.1650   -0.9580 P   0  0  0  0  0  0  0  0  0  0  0  0
    4.1820    2.3190   -0.8200 O   0  0  0  0  0  0  0  0  0  0  0  0
    6.3070    1.0820    0.5400 O   0  0  0  0  0  0  0  0  0  0  0  0
    7.3730   -0.2840    0.6170 P   0  0  0  0  0  0  0  0  0  0  0  0
    7.5150   -1.0820   -0.9000 O   0  0  0  0  0  0  0  0  0  0  0  0
    6.9090   -1.3860    1.8600 O   0  0  0  0  0  0  0  0  0  0  0  0
    2.7500    0.3330    0.5410 C   0  0  0  0  0  0  0  0  0  0  0  0
    1.5990    0.6670    1.1880 N   0  0  0  0  0  0  0  0  0  0  0  0
  1  2  2  0
  2  3  1  0
  2  4  1  0
  5  4  1  1
  5  6  1  0
  5 11  1  0
  5 16  1  0
  6  7  1  0
  7  8  1  0
  8  9  1  0
  8 10  1  0
 11 12  1  0
 12 13  1  0
 13 14  2  0
 13 15  1  0
 15 16  1  0
 16 17  2  3
 17 18  1  0
 18 19  2  0
 18 31  1  0
 19 20  1  0
 20 21  1  0
 20 30  2  0
 21 22  1  0
 22 23  1  6
 22 24  1  0
 24 25  1  0
 24 26  1  0
 26 27  1  0
 27 28  1  0
 27 29  1  0
 30 31  1  0
M  END
