
     RDKit          3D

 13 14  0  0  0  0  0  0  0  0999 V2000
   -2.2700   -1.2910   -0.9880 C   0  0  0  0  0  0  0  0  0  0  0  0
   -1.8040   -0.6980    0.3100 C   0  0  0  0  0  0  0  0  0  0  0  0
   -0.6430    0.1250    0.1870 N   0  0  0  0  0  0  0  0  0  0  0  0
   -0.6480    1.4480   -0.0500 C   0  0  0  0  0  0  0  0  0  0  0  0
   -1.8600    2.2880   -0.2270 C   0  0  0  0  0  0  0  0  0  0  0  0
    0.6590    1.8800   -0.0990 C   0  0  0  0  0  0  0  0  0  0  0  0
    1.4810    0.7670    0.1180 C   0  0  0  0  0  0  0  0  0  0  0  0
    2.8420    0.5880    0.1800 C   0  0  0  0  0  0  0  0  0  0  0  0
    3.3790   -0.6690    0.4170 C   0  0  0  0  0  0  0  0  0  0  0  0
    2.5330   -1.7520    0.5920 C   0  0  0  0  0  0  0  0  0  0  0  0
    3.3010   -3.4800    0.9190 Br  0  0  0  0  0  0  0  0  0  0  0  0
    1.1630   -1.5720    0.5300 C   0  0  0  0  0  0  0  0  0  0  0  0
    0.6310   -0.3190    0.2940 C   0  0  0  0  0  0  0  0  0  0  0  0
  1  2  1  0
  2  3  1  0
  3  4  1  0
  3 13  1  0
  4  5  1  0
  4  6  2  0
  6  7  1  0
  7  8  2  0
  7 13  1  0
  8  9  1  0
  9 10  2  0
 10 11  1  0
 10 12  1  0
 12 13  2  0
M  END
