
     RDKit          3D

 13 14  0  0  0  0  0  0  0  0999 V2000
    5.4800    0.1420   -0.9540 Br  0  0  0  0  0  0  0  0  0  0  0  0
    4.6280    1.2500    0.3180 C   0  0  0  0  0  0  0  0  0  0  0  0
    3.3930    1.2750    0.6490 C   0  0  0  0  0  0  0  0  0  0  0  0
    2.3450    0.4420    0.1120 C   0  0  0  0  0  0  0  0  0  0  0  0
    2.4010   -0.5370   -0.8390 C   0  0  0  0  0  0  0  0  0  0  0  0
    1.1170   -1.0380   -1.0000 C   0  0  0  0  0  0  0  0  0  0  0  0
    0.2730   -0.3990   -0.1790 N   0  0  0  0  0  0  0  0  0  0  0  0
   -1.1340   -0.6750   -0.0930 C   0  0  2  0  0  0  0  0  0  0  0  0
   -1.9840    0.3950   -0.7310 C   0  0  0  0  0  0  0  0  0  0  0  0
   -3.3690    0.0520   -0.1970 C   0  0  0  0  0  0  0  0  0  0  0  0
   -3.1290   -0.6440    1.1390 C   0  0  0  0  0  0  0  0  0  0  0  0
   -1.6280   -0.6090    1.3580 C   0  0  0  0  0  0  0  0  0  0  0  0
    0.9940    0.4980    0.5010 C   0  0  0  0  0  0  0  0  0  0  0  0
  1  2  1  0
  2  3  2  3
  3  4  1  0
  4  5  1  0
  4 13  2  0
  5  6  2  0
  6  7  1  0
  8  7  1  1
  7 13  1  0
  8  9  1  0
  8 12  1  0
  9 10  1  0
 10 11  1  0
 11 12  1  0
M  END
