
     RDKit          3D

 13 14  0  0  0  0  0  0  0  0999 V2000
    5.1910   -0.1560   -0.2090 Br  0  0  0  0  0  0  0  0  0  0  0  0
    4.2110    1.5150   -0.3220 C   0  0  0  0  0  0  0  0  0  0  0  0
    2.7650    1.2670   -0.2310 C   0  0  0  0  0  0  0  0  0  0  0  0
    2.3150    0.0450   -0.0930 C   0  0  0  0  0  0  0  0  0  0  0  0
    0.8990   -0.3200    0.0080 C   0  0  0  0  0  0  0  0  0  0  0  0
    0.5520   -1.6450    0.1510 C   0  0  0  0  0  0  0  0  0  0  0  0
   -0.7830   -2.0290    0.2500 C   0  0  0  0  0  0  0  0  0  0  0  0
   -1.7770   -1.0760    0.2050 C   0  0  0  0  0  0  0  0  0  0  0  0
   -1.4460    0.2330    0.0650 C   0  0  0  0  0  0  0  0  0  0  0  0
   -0.1110    0.6020   -0.0330 C   0  0  0  0  0  0  0  0  0  0  0  0
   -2.7010    1.0120    0.0500 C   0  0  0  0  0  0  0  0  0  0  0  0
   -3.7140    0.0670   -0.3160 N   0  0  0  0  0  0  0  0  0  0  0  0
   -3.2760   -1.1760    0.2840 C   0  0  0  0  0  0  0  0  0  0  0  0
  1  2  1  0
  2  3  1  0
  3  4  2  3
  4  5  1  0
  5  6  2  0
  5 10  1  0
  6  7  1  0
  7  8  2  0
  8  9  1  0
  8 13  1  0
  9 10  2  0
  9 11  1  0
 11 12  1  0
 12 13  1  0
M  END
