
     RDKit          3D

 13 14  0  0  0  0  0  0  0  0999 V2000
   -2.3910   -1.4850    0.2850 C   0  0  0  0  0  0  0  0  0  0  0  0
   -1.5590   -0.9600   -0.8520 C   0  0  0  0  0  0  0  0  0  0  0  0
   -0.5600   -0.0030   -0.4200 N   0  0  0  0  0  0  0  0  0  0  0  0
   -0.7850    1.3200   -0.3510 C   0  0  0  0  0  0  0  0  0  0  0  0
   -2.0560    2.0410   -0.6930 C   0  0  0  0  0  0  0  0  0  0  0  0
    0.3950    1.8770    0.0970 C   0  0  0  0  0  0  0  0  0  0  0  0
    1.3540    0.9030    0.3090 C   0  0  0  0  0  0  0  0  0  0  0  0
    2.6580    0.8880    0.7360 C   0  0  0  0  0  0  0  0  0  0  0  0
    3.3370   -0.3000    0.8320 C   0  0  0  0  0  0  0  0  0  0  0  0
    5.1440   -0.3110    1.4270 Br  0  0  0  0  0  0  0  0  0  0  0  0
    2.7340   -1.5140    0.5030 C   0  0  0  0  0  0  0  0  0  0  0  0
    1.4270   -1.4530    0.0790 C   0  0  0  0  0  0  0  0  0  0  0  0
    0.6970   -0.2880   -0.0360 C   0  0  0  0  0  0  0  0  0  0  0  0
  1  2  1  0
  2  3  1  0
  3  4  1  0
  3 13  1  0
  4  5  1  0
  4  6  2  0
  6  7  1  0
  7  8  2  0
  7 13  1  0
  8  9  1  0
  9 10  1  0
  9 11  2  0
 11 12  1  0
 12 13  2  0
M  END
