
     RDKit          3D

 12 12  0  0  0  0  0  0  0  0999 V2000
    1.5700   -2.8360   -1.1220 C   0  0  0  0  0  0  0  0  0  0  0  0
    1.9990   -1.5920   -0.9630 C   0  0  0  0  0  0  0  0  0  0  0  0
    1.0350   -0.4680   -1.0420 C   0  0  0  0  0  0  0  0  0  0  0  0
    0.9980    0.2820    0.1580 N   0  0  0  0  0  0  0  0  0  0  0  0
    2.2110    1.0320    0.4040 C   0  0  0  0  0  0  0  0  0  0  0  0
    1.9570    2.2640   -0.4840 C   0  0  0  0  0  0  0  0  0  0  0  0
    0.4340    2.2840   -0.6800 C   0  0  0  0  0  0  0  0  0  0  0  0
   -0.0710    1.2240    0.2730 C   0  0  1  0  0  0  0  0  0  0  0  0
   -1.4400    0.7580    0.0470 C   0  0  0  0  0  0  0  0  0  0  0  0
   -1.9680   -0.2860    0.9670 C   0  0  2  0  0  0  0  0  0  0  0  0
   -1.2130   -1.5850    1.0000 C   0  0  0  0  0  0  0  0  0  0  0  0
   -3.4060   -0.6670    0.5710 C   0  0  0  0  0  0  0  0  0  0  0  0
  1  2  2  0
  2  3  1  0
  3  4  1  0
  4  5  1  0
  4  8  1  0
  5  6  1  0
  6  7  1  0
  7  8  1  0
  8  9  1  6
  9 10  1  0
 10 11  1  6
 10 12  1  0
M  END
