
     RDKit          3D

 13 14  0  0  0  0  0  0  0  0999 V2000
    3.0710   -0.6870   -0.9910 C   0  0  0  0  0  0  0  0  0  0  0  0
    1.7820   -0.3670   -0.3550 C   0  0  0  0  0  0  0  0  0  0  0  0
    0.6410   -0.9850   -0.8740 C   0  0  0  0  0  0  0  0  0  0  0  0
   -0.5480   -0.6830   -0.2660 C   0  0  0  0  0  0  0  0  0  0  0  0
   -0.6030    0.1900    0.8040 C   0  0  0  0  0  0  0  0  0  0  0  0
    0.5280    0.7790    1.2900 N   0  0  0  0  0  0  0  0  0  0  0  0
    1.7200    0.5010    0.7100 C   0  0  0  0  0  0  0  0  0  0  0  0
    2.9770    1.1090    1.1910 C   0  0  0  0  0  0  0  0  0  0  0  0
    3.4720    2.5230   -0.0650 Br  0  0  0  0  0  0  0  0  0  0  0  0
   -1.9330    0.4400    1.3870 C   0  0  0  0  0  0  0  0  0  0  0  0
   -2.8930    0.7940    0.3020 C   0  0  0  0  0  0  0  0  0  0  0  0
   -2.7910   -0.0750   -0.9170 C   0  0  0  0  0  0  0  0  0  0  0  0
   -1.8680   -1.2590   -0.7110 C   0  0  0  0  0  0  0  0  0  0  0  0
  1  2  1  0
  2  3  2  0
  2  7  1  0
  3  4  1  0
  4  5  2  0
  4 13  1  0
  5  6  1  0
  5 10  1  0
  6  7  2  0
  7  8  1  0
  8  9  1  0
 10 11  1  0
 11 12  1  0
 12 13  1  0
M  END
