
     RDKit          3D

 12 12  0  0  0  0  0  0  0  0999 V2000
   -2.4820    2.2220   -0.0220 C   0  0  0  0  0  0  0  0  0  0  0  0
   -1.2700    1.5200    0.6140 C   0  0  0  0  0  0  0  0  0  0  0  0
   -1.1070    0.1990   -0.0180 N   0  0  0  0  0  0  0  0  0  0  0  0
   -2.1570   -0.6180    0.4610 C   0  0  0  0  0  0  0  0  0  0  0  0
   -2.5060   -1.8780   -0.2250 C   0  0  0  0  0  0  0  0  0  0  0  0
    0.2250   -0.2370   -0.0260 C   0  0  2  0  0  0  0  0  0  0  0  0
    0.3690   -1.6020   -0.6450 C   0  0  0  0  0  0  0  0  0  0  0  0
    0.9170   -0.1690    1.3120 C   0  0  0  0  0  0  0  0  0  0  0  0
    2.3700   -0.5350    1.1980 C   0  0  0  0  0  0  0  0  0  0  0  0
    3.0950    0.4120    0.2880 C   0  0  0  0  0  0  0  0  0  0  0  0
    2.4560    0.3450   -1.0690 C   0  0  0  0  0  0  0  0  0  0  0  0
    0.9890    0.6780   -1.0030 C   0  0  0  0  0  0  0  0  0  0  0  0
  1  2  1  0
  2  3  1  0
  3  4  1  0
  3  6  1  0
  4  5  1  0
  6  7  1  6
  6  8  1  0
  6 12  1  0
  8  9  1  0
  9 10  1  0
 10 11  1  0
 11 12  1  0
M  END
