
     RDKit          3D

  8  7  0  0  0  0  0  0  0  0999 V2000
   -2.4490    0.7920    0.6490 N   0  0  0  0  0  0  0  0  0  0  0  0
   -1.1100    0.5960    0.7220 O   0  0  0  0  0  0  0  0  0  0  0  0
   -0.8530   -0.5600   -0.0260 C   0  0  0  0  0  0  0  0  0  0  0  0
    0.6100   -0.8380   -0.1770 C   0  0  0  0  0  0  0  0  0  0  0  0
    1.2750   -1.0430    1.0130 O   0  0  0  0  0  0  0  0  0  0  0  0
    2.0080   -0.0380    1.3980 O   0  0  0  0  0  0  0  0  0  0  0  0
    3.3140    0.3320    0.3470 P   0  0  0  0  0  0  0  0  0  0  0  0
    3.6920    1.8020   -0.0220 O   0  0  0  0  0  0  0  0  0  0  0  0
  1  2  1  0
  2  3  1  0
  3  4  1  0
  4  5  1  0
  5  6  1  0
  6  7  1  0
  7  8  2  0
M  END
