
     RDKit          3D

 22 23  0  0  0  0  0  0  0  0999 V2000
   -2.0280    2.2150    0.0550 C   0  0  0  0  0  0  0  0  0  0  0  0
   -2.9180    1.0310    0.0390 C   0  0  0  0  0  0  0  0  0  0  0  0
   -4.2160    1.1500   -0.4530 C   0  0  0  0  0  0  0  0  0  0  0  0
   -5.0600    0.0610   -0.4750 C   0  0  0  0  0  0  0  0  0  0  0  0
   -6.2390    0.1800   -0.9250 O   0  0  0  0  0  0  0  0  0  0  0  0
   -4.5760   -1.1030   -0.0040 N   0  0  0  0  0  0  0  0  0  0  0  0
   -3.3140   -1.2110    0.4720 C   0  0  0  0  0  0  0  0  0  0  0  0
   -2.9890   -2.3640    0.8830 O   0  0  0  0  0  0  0  0  0  0  0  0
   -2.4640   -0.1590    0.5050 N   0  0  0  0  0  0  0  0  0  0  0  0
   -1.1500   -0.3660    1.0250 C   0  0  2  0  0  0  0  0  0  0  0  0
   -0.2440    0.6190    0.7320 O   0  0  0  0  0  0  0  0  0  0  0  0
    0.9900    0.0280    0.8420 C   0  0  2  0  0  0  0  0  0  0  0  0
    2.0630    0.8490    0.1720 C   0  0  0  0  0  0  0  0  0  0  0  0
    3.2230    0.1010    0.3860 O   0  0  0  0  0  0  0  0  0  0  0  0
    4.5870    0.5490   -0.1260 P   0  0  0  0  0  0  0  0  0  0  0  0
    5.4160   -0.5920    0.6380 O   0  0  0  0  0  0  0  0  0  0  0  0
    4.0620    0.3210   -1.6960 O   0  0  0  0  0  0  0  0  0  0  0  0
    4.3480    2.0280    0.6180 O   0  0  0  0  0  0  0  0  0  0  0  0
    0.7890   -1.2240   -0.0210 C   0  0  1  0  0  0  0  0  0  0  0  0
    1.7510   -2.1820    0.2440 O   0  0  0  0  0  0  0  0  0  0  0  0
   -0.5980   -1.6540    0.4190 C   0  0  1  0  0  0  0  0  0  0  0  0
   -0.4210   -2.6440    1.3780 O   0  0  0  0  0  0  0  0  0  0  0  0
  1  2  1  0
  2  3  2  0
  2  9  1  0
  3  4  1  0
  4  5  2  0
  4  6  1  0
  6  7  1  0
  7  8  2  0
  7  9  1  0
 10  9  1  6
 10 11  1  0
 10 21  1  0
 11 12  1  0
 12 13  1  6
 12 19  1  0
 13 14  1  0
 14 15  1  0
 15 16  1  0
 15 17  1  0
 15 18  1  0
 19 20  1  1
 19 21  1  0
 21 22  1  1
M  END
