
     RDKit          3D

  9  8  0  0  0  0  0  0  0  0999 V2000
    0.0260   -1.5280   -0.4750 O   0  0  0  0  0  0  0  0  0  0  0  0
    0.1880   -0.3210   -0.1790 C   0  0  0  0  0  0  0  0  0  0  0  0
    1.5070    0.3090    0.0690 C   0  0  0  0  0  0  0  0  0  0  0  0
    2.5940   -0.6280   -0.0700 N   0  0  0  0  0  0  0  0  0  0  0  0
    3.7480    0.0210    0.1690 O   0  0  0  0  0  0  0  0  0  0  0  0
   -0.9460    0.4680   -0.0790 O   0  0  0  0  0  0  0  0  0  0  0  0
   -2.5390   -0.2480   -0.3670 P   0  0  0  0  0  0  0  0  0  0  0  0
   -3.0030   -1.1320    1.0300 O   0  0  0  0  0  0  0  0  0  0  0  0
   -3.6560    1.0620   -0.5870 O   0  0  0  0  0  0  0  0  0  0  0  0
  1  2  2  0
  2  3  1  0
  2  6  1  0
  3  4  1  0
  4  5  1  0
  6  7  1  0
  7  8  1  0
  7  9  1  0
M  END
