
     RDKit          3D

 20 19  0  0  0  0  0  0  0  0999 V2000
   -5.5080    2.0800   -0.5320 O   0  0  0  0  0  0  0  0  0  0  0  0
   -5.5140    1.4780    0.5640 C   0  0  0  0  0  0  0  0  0  0  0  0
   -6.2880    1.9820    1.5850 O   0  0  0  0  0  0  0  0  0  0  0  0
   -4.7350    0.3340    0.6770 O   0  0  0  0  0  0  0  0  0  0  0  0
   -3.9490   -0.1750   -0.3630 C   0  0  2  0  0  0  0  0  0  0  0  0
   -4.3270   -1.4430   -0.7560 O   0  0  0  0  0  0  0  0  0  0  0  0
   -2.4970   -0.1320    0.0900 C   0  0  0  0  0  0  0  0  0  0  0  0
   -1.6650   -0.6270   -0.9050 O   0  0  0  0  0  0  0  0  0  0  0  0
   -0.0460   -0.5530   -0.3370 P   0  0  0  0  0  0  0  0  0  0  0  0
    0.4640    1.0900   -0.2530 O   0  0  0  0  0  0  0  0  0  0  0  0
    0.9920   -1.5260   -1.3160 O   0  0  0  0  0  0  0  0  0  0  0  0
    2.5490   -1.7450   -0.6380 P   0  0  0  0  0  0  0  0  0  0  0  0
    2.8090   -3.3140    0.0110 O   0  0  0  0  0  0  0  0  0  0  0  0
    3.0510   -0.3950    0.5080 C   0  0  1  0  0  0  0  0  0  0  0  0
    3.8210   -0.9580    1.5240 O   0  0  0  0  0  0  0  0  0  0  0  0
    3.8820    0.5980   -0.2110 C   0  0  0  0  0  0  0  0  0  0  0  0
    3.4300    1.2590   -1.1810 O   0  0  0  0  0  0  0  0  0  0  0  0
    5.2640    0.8460    0.1830 C   0  0  0  0  0  0  0  0  0  0  0  0
    5.7610    0.2120    1.1440 O   0  0  0  0  0  0  0  0  0  0  0  0
    6.0720    1.7610   -0.4610 O   0  0  0  0  0  0  0  0  0  0  0  0
  1  2  2  0
  2  3  1  0
  2  4  1  0
  4  5  1  0
  5  6  1  1
  5  7  1  0
  7  8  1  0
  8  9  1  0
  9 10  1  0
  9 11  1  0
 11 12  1  0
 12 13  1  0
 12 14  1  0
 14 15  1  1
 14 16  1  0
 16 17  2  0
 16 18  1  0
 18 19  2  0
 18 20  1  0
M  END
