
     RDKit          3D

 25 28  0  0  0  0  0  0  0  0999 V2000
   -5.1260    2.4800   -2.5810 C   0  0  0  0  0  0  0  0  0  0  0  0
   -4.5160    1.4880   -1.6770 C   0  0  0  0  0  0  0  0  0  0  0  0
   -5.3140    0.6290   -0.9490 C   0  0  0  0  0  0  0  0  0  0  0  0
   -4.7740   -0.3010   -0.1020 C   0  0  0  0  0  0  0  0  0  0  0  0
   -3.3860   -0.4330    0.0710 C   0  0  0  0  0  0  0  0  0  0  0  0
   -2.6160    0.4130   -0.6470 C   0  0  0  0  0  0  0  0  0  0  0  0
   -3.1510    1.3740   -1.5200 C   0  0  0  0  0  0  0  0  0  0  0  0
   -1.1670    0.3780   -0.5580 C   0  0  0  0  0  0  0  0  0  0  0  0
   -0.4280    1.1380   -1.2010 O   0  0  0  0  0  0  0  0  0  0  0  0
   -0.5910   -0.6140    0.3450 C   0  0  0  0  0  0  0  0  0  0  0  0
   -1.3810   -1.4650    1.0660 C   0  0  0  0  0  0  0  0  0  0  0  0
   -0.7500   -2.3910    1.9130 C   0  0  0  0  0  0  0  0  0  0  0  0
    0.6190   -2.4620    2.0320 C   0  0  0  0  0  0  0  0  0  0  0  0
    1.4110   -1.6040    1.3040 C   0  0  0  0  0  0  0  0  0  0  0  0
    0.8050   -0.6890    0.4680 C   0  0  0  0  0  0  0  0  0  0  0  0
    1.5490    0.1860   -0.2770 O   0  0  0  0  0  0  0  0  0  0  0  0
    2.9320    0.2440   -0.2720 C   0  0  0  0  0  0  0  0  0  0  0  0
    3.7000   -0.4990   -1.1430 C   0  0  0  0  0  0  0  0  0  0  0  0
    5.0640   -0.4240   -1.1170 C   0  0  0  0  0  0  0  0  0  0  0  0
    5.7400    0.3900   -0.2290 C   0  0  0  0  0  0  0  0  0  0  0  0
    7.2040    0.4620   -0.2110 C   0  0  0  0  0  0  0  0  0  0  0  0
    7.7510    1.2190    0.6180 O   0  0  0  0  0  0  0  0  0  0  0  0
    4.9700    1.1330    0.6420 C   0  0  0  0  0  0  0  0  0  0  0  0
    3.5950    1.0620    0.6210 C   0  0  0  0  0  0  0  0  0  0  0  0
   -2.8430   -1.4360    0.9810 C   0  0  0  0  0  0  0  0  0  0  0  0
  1  2  1  0
  2  3  2  0
  2  7  1  0
  3  4  1  0
  4  5  2  0
  5  6  1  0
  5 25  1  0
  6  7  2  0
  6  8  1  0
  8  9  2  0
  8 10  1  0
 10 11  2  0
 10 15  1  0
 11 12  1  0
 11 25  1  0
 12 13  2  0
 13 14  1  0
 14 15  2  0
 15 16  1  0
 16 17  1  0
 17 18  2  0
 17 24  1  0
 18 19  1  0
 19 20  2  0
 20 21  1  0
 20 23  1  0
 21 22  2  0
 23 24  2  0
M  END
