
     RDKit          3D

 24 27  0  0  0  0  0  0  0  0999 V2000
   -3.2110    4.9860    1.0390 O   0  0  0  0  0  0  0  0  0  0  0  0
   -2.3170    4.2190    1.4750 C   0  0  0  0  0  0  0  0  0  0  0  0
   -2.3020    2.8150    1.0050 C   0  0  0  0  0  0  0  0  0  0  0  0
   -3.2410    2.3540    0.1120 C   0  0  0  0  0  0  0  0  0  0  0  0
   -3.1920    1.0430   -0.2990 C   0  0  0  0  0  0  0  0  0  0  0  0
   -2.2050    0.2150    0.1910 C   0  0  0  0  0  0  0  0  0  0  0  0
   -1.2460    0.6320    1.0850 C   0  0  0  0  0  0  0  0  0  0  0  0
   -1.3200    1.9590    1.4810 C   0  0  0  0  0  0  0  0  0  0  0  0
   -0.1610   -0.1310    1.6790 C   0  0  0  0  0  0  0  0  0  0  0  0
    0.6890   -0.9520    0.8160 C   0  0  2  0  0  0  0  0  0  0  0  0
    1.6430   -0.1010    0.0580 C   0  0  0  0  0  0  0  0  0  0  0  0
    1.3350    0.3610   -1.2090 C   0  0  0  0  0  0  0  0  0  0  0  0
    2.2250    1.1300   -1.9120 C   0  0  0  0  0  0  0  0  0  0  0  0
    3.4280    1.4260   -1.3190 C   0  0  0  0  0  0  0  0  0  0  0  0
    3.7840    0.9950   -0.0690 C   0  0  0  0  0  0  0  0  0  0  0  0
    2.8530    0.2080    0.6320 C   0  0  0  0  0  0  0  0  0  0  0  0
    3.2780   -0.1880    1.8850 O   0  0  0  0  0  0  0  0  0  0  0  0
    0.0060   -1.8900   -0.0980 C   0  0  0  0  0  0  0  0  0  0  0  0
    0.8960   -2.8690   -0.4860 C   0  0  0  0  0  0  0  0  0  0  0  0
    0.5250   -3.8920   -1.3530 C   0  0  0  0  0  0  0  0  0  0  0  0
   -0.7530   -3.9480   -1.8460 C   0  0  0  0  0  0  0  0  0  0  0  0
   -1.6570   -2.9810   -1.4710 C   0  0  0  0  0  0  0  0  0  0  0  0
   -1.2680   -1.9680   -0.6060 C   0  0  0  0  0  0  0  0  0  0  0  0
   -2.3120   -1.0790   -0.3360 O   0  0  0  0  0  0  0  0  0  0  0  0
  1  2  2  0
  2  3  1  0
  3  4  2  0
  3  8  1  0
  4  5  1  0
  5  6  2  0
  6  7  1  0
  6 24  1  0
  7  8  2  0
  7  9  1  0
  9 10  1  0
 10 11  1  6
 10 18  1  0
 11 12  2  0
 11 16  1  0
 12 13  1  0
 13 14  2  0
 14 15  1  0
 15 16  2  0
 16 17  1  0
 18 19  2  0
 18 23  1  0
 19 20  1  0
 20 21  2  0
 21 22  1  0
 22 23  2  0
 23 24  1  0
M  END
