
     RDKit          3D

 28 31  0  0  0  0  0  0  0  0999 V2000
    8.6580    2.4390   -0.4800 C   0  0  0  0  0  0  0  0  0  0  0  0
    7.9320    1.0970   -0.7060 C   0  0  0  0  0  0  0  0  0  0  0  0
    8.0100    0.0740   -1.2070 N   0  0  0  0  0  0  0  0  0  0  0  0
    7.1190   -0.8830   -1.1750 N   0  0  0  0  0  0  0  0  0  0  0  0
    6.0710   -0.7630   -0.5760 C   0  0  0  0  0  0  0  0  0  0  0  0
    4.8490   -1.6050   -0.3190 C   0  0  0  0  0  0  0  0  0  0  0  0
    3.8960   -0.8960    0.4960 N   0  0  0  0  0  0  0  0  0  0  0  0
    2.5170   -1.2160    0.1490 C   0  0  0  0  0  0  0  0  0  0  0  0
    1.6740   -0.0500    0.5280 C   0  0  0  0  0  0  0  0  0  0  0  0
    0.2810   -0.1660    0.2670 N   0  0  1  0  0  0  0  0  0  0  0  0
   -0.2630   -1.4880    0.5130 C   0  0  2  0  0  0  0  0  0  0  0  0
    0.2870   -2.3580   -0.4270 O   0  0  0  0  0  0  0  0  0  0  0  0
   -1.7350   -1.4300    0.1910 C   0  0  0  0  0  0  0  0  0  0  0  0
   -2.3630   -2.5830   -0.2200 C   0  0  0  0  0  0  0  0  0  0  0  0
   -3.7060   -2.5940   -0.5430 C   0  0  0  0  0  0  0  0  0  0  0  0
   -4.4640   -1.4520   -0.4670 C   0  0  0  0  0  0  0  0  0  0  0  0
   -3.8350   -0.2820   -0.0530 C   0  0  0  0  0  0  0  0  0  0  0  0
   -4.5200    0.9040    0.0510 C   0  0  0  0  0  0  0  0  0  0  0  0
   -5.9070    0.9730   -0.2710 N   0  0  0  0  0  0  0  0  0  0  0  0
   -6.4640    0.6830   -1.5640 C   0  0  0  0  0  0  0  0  0  0  0  0
   -6.8380    1.3640    0.7820 C   0  0  0  0  0  0  0  0  0  0  0  0
   -3.8880    2.0590    0.4630 C   0  0  0  0  0  0  0  0  0  0  0  0
   -2.5550    2.0770    0.7870 C   0  0  0  0  0  0  0  0  0  0  0  0
   -1.8520    0.8820    0.6860 C   0  0  0  0  0  0  0  0  0  0  0  0
   -2.4720   -0.2670    0.2770 C   0  0  0  0  0  0  0  0  0  0  0  0
   -0.4090    0.8390    1.0400 C   0  0  1  0  0  0  0  0  0  0  0  0
   -0.2650    0.5830    2.3950 O   0  0  0  0  0  0  0  0  0  0  0  0
    6.2140    0.9210    0.1080 S   0  0  0  0  0  0  0  0  0  0  0  0
  1  2  1  0
  2  3  2  0
  2 28  1  0
  3  4  1  0
  4  5  2  0
  5  6  1  0
  5 28  1  0
  6  7  1  0
  7  8  1  0
  8  9  1  0
 10  9  1  1
 10 11  1  0
 10 26  1  0
 11 12  1  6
 11 13  1  0
 13 14  2  0
 13 25  1  0
 14 15  1  0
 15 16  2  0
 16 17  1  0
 17 18  2  0
 17 25  1  0
 18 19  1  0
 18 22  1  0
 19 20  1  0
 19 21  1  0
 22 23  2  0
 23 24  1  0
 24 25  2  0
 24 26  1  0
 26 27  1  1
M  CHG  2   7   1  10   1
M  END
