
     RDKit          3D

 25 28  0  0  0  0  0  0  0  0999 V2000
    4.7540    2.8660   -0.0330 C   0  0  0  0  0  0  0  0  0  0  0  0
    4.5200    2.1650   -1.1190 C   0  0  0  0  0  0  0  0  0  0  0  0
    3.6330    1.0010   -1.1620 C   0  0  0  0  0  0  0  0  0  0  0  0
    3.4340    0.3260   -2.3590 C   0  0  0  0  0  0  0  0  0  0  0  0
    2.6010   -0.7690   -2.3970 C   0  0  0  0  0  0  0  0  0  0  0  0
    1.9670   -1.1980   -1.2610 C   0  0  0  0  0  0  0  0  0  0  0  0
    2.1280   -0.5620   -0.0390 C   0  0  0  0  0  0  0  0  0  0  0  0
    1.4710   -0.9970    1.2000 C   0  0  2  0  0  0  0  0  0  0  0  0
    1.7940   -2.4510    1.5220 C   0  0  0  0  0  0  0  0  0  0  0  0
    0.8770   -3.0760    2.4930 C   0  0  0  0  0  0  0  0  0  0  0  0
    0.0240   -2.2450    3.2140 O   0  0  0  0  0  0  0  0  0  0  0  0
   -0.6380   -1.2430    2.4770 C   0  0  0  0  0  0  0  0  0  0  0  0
   -1.6840   -0.6680    2.8610 O   0  0  0  0  0  0  0  0  0  0  0  0
   -0.0080   -0.9060    1.1970 C   0  0  0  0  0  0  0  0  0  0  0  0
   -0.7430   -0.5390    0.1940 C   0  0  0  0  0  0  0  0  0  0  0  0
   -2.1750   -0.4340    0.1200 C   0  0  0  0  0  0  0  0  0  0  0  0
   -3.0640   -1.3590    0.5730 C   0  0  0  0  0  0  0  0  0  0  0  0
   -4.4310   -1.2060    0.4980 C   0  0  0  0  0  0  0  0  0  0  0  0
   -4.9440   -0.0580   -0.0650 C   0  0  0  0  0  0  0  0  0  0  0  0
   -4.0790    0.9030   -0.5350 C   0  0  0  0  0  0  0  0  0  0  0  0
   -2.7170    0.7290   -0.4500 C   0  0  0  0  0  0  0  0  0  0  0  0
   -2.1280    1.8430   -0.9960 O   0  0  0  0  0  0  0  0  0  0  0  0
   -3.0500    2.8060   -1.3630 C   0  0  0  0  0  0  0  0  0  0  0  0
   -4.3960    2.1980   -1.1690 C   0  0  0  0  0  0  0  0  0  0  0  0
    2.9860    0.5450   -0.0600 C   0  0  0  0  0  0  0  0  0  0  0  0
  1  2  2  0
  2  3  1  0
  3  4  2  0
  3 25  1  0
  4  5  1  0
  5  6  2  0
  6  7  1  0
  8  7  1  6
  7 25  2  0
  8  9  1  0
  8 14  1  0
  9 10  1  0
 10 11  1  0
 11 12  1  0
 12 13  2  0
 12 14  1  0
 14 15  2  3
 15 16  1  0
 16 17  2  0
 16 21  1  0
 17 18  1  0
 18 19  2  0
 19 20  1  0
 20 21  2  0
 20 24  1  0
 21 22  1  0
 22 23  1  0
 23 24  1  0
M  END
