
     RDKit          3D

 25 27  0  0  0  0  0  0  0  0999 V2000
    7.0960    2.9730    1.5520 C   0  0  0  0  0  0  0  0  0  0  0  0
    6.2070    1.9440    1.5010 C   0  0  0  0  0  0  0  0  0  0  0  0
    5.3210    0.8920    1.4320 C   0  0  0  0  0  0  0  0  0  0  0  0
    4.1300    0.9950    0.7010 C   0  0  0  0  0  0  0  0  0  0  0  0
    3.3350   -0.0760    0.5460 C   0  0  0  0  0  0  0  0  0  0  0  0
    2.1000    0.0910   -0.2530 C   0  0  0  0  0  0  0  0  0  0  0  0
    0.9190   -0.2950    0.1900 C   0  0  0  0  0  0  0  0  0  0  0  0
    0.6960   -0.9320    1.5000 C   0  0  0  0  0  0  0  0  0  0  0  0
   -0.5240   -1.3120    1.8300 C   0  0  0  0  0  0  0  0  0  0  0  0
   -1.7430   -1.1830    1.0450 C   0  0  0  0  0  0  0  0  0  0  0  0
   -1.5310   -0.5260   -0.2860 C   0  0  0  0  0  0  0  0  0  0  0  0
   -2.6310   -0.3340   -1.0610 C   0  0  0  0  0  0  0  0  0  0  0  0
   -3.9960   -0.7650   -0.7010 C   0  0  0  0  0  0  0  0  0  0  0  0
   -4.2200   -1.7180   -0.0070 O   0  0  0  0  0  0  0  0  0  0  0  0
   -5.0650   -0.0110   -1.1950 O   0  0  0  0  0  0  0  0  0  0  0  0
   -6.4210   -0.2230   -1.0080 C   0  0  0  0  0  0  0  0  0  0  0  0
   -7.1180    1.0100   -1.6260 C   0  0  0  0  0  0  0  0  0  0  0  0
   -2.5040    0.3050   -2.3080 C   0  0  0  0  0  0  0  0  0  0  0  0
   -1.2590    0.7040   -2.6570 C   0  0  0  0  0  0  0  0  0  0  0  0
   -0.1550    0.5190   -1.8960 C   0  0  0  0  0  0  0  0  0  0  0  0
   -0.2790   -0.1310   -0.6430 C   0  0  0  0  0  0  0  0  0  0  0  0
    3.6680   -1.2910    1.1010 C   0  0  0  0  0  0  0  0  0  0  0  0
    4.8330   -1.3900    1.8190 C   0  0  0  0  0  0  0  0  0  0  0  0
    5.6860   -0.3160    2.0080 C   0  0  0  0  0  0  0  0  0  0  0  0
    6.8260   -0.4810    2.7410 O   0  0  0  0  0  0  0  0  0  0  0  0
  1  2  3  0
  2  3  1  0
  3  4  2  0
  3 24  1  0
  4  5  1  0
  5  6  1  0
  5 22  2  0
  6  7  2  3
  7  8  1  0
  7 21  1  0
  8  9  2  0
  9 10  1  0
 10 11  1  0
 11 12  2  0
 11 21  1  0
 12 13  1  0
 12 18  1  0
 13 14  2  0
 13 15  1  0
 15 16  1  0
 16 17  1  0
 18 19  2  0
 19 20  1  0
 20 21  2  0
 22 23  1  0
 23 24  2  0
 24 25  1  0
M  END
