
     RDKit          3D

 28 30  0  0  0  0  0  0  0  0999 V2000
   -3.8650   -3.0370    0.8690 C   0  0  0  0  0  0  0  0  0  0  0  0
   -3.1480   -2.5080    2.0690 C   0  0  0  0  0  0  0  0  0  0  0  0
   -2.9950   -1.0940    2.0560 O   0  0  0  0  0  0  0  0  0  0  0  0
   -2.2930   -0.4540    1.0290 C   0  0  0  0  0  0  0  0  0  0  0  0
   -2.9290    0.4860    0.3650 C   0  0  0  0  0  0  0  0  0  0  0  0
   -4.3250    0.8320    0.6890 C   0  0  0  0  0  0  0  0  0  0  0  0
   -4.8590    0.3060    1.6970 O   0  0  0  0  0  0  0  0  0  0  0  0
   -5.0820    1.7630   -0.1330 C   0  0  0  0  0  0  0  0  0  0  0  0
   -6.4840    2.1250    0.1410 C   0  0  0  0  0  0  0  0  0  0  0  0
   -4.4880    2.3270   -1.1980 C   0  0  0  0  0  0  0  0  0  0  0  0
   -3.1550    2.1100   -1.6010 C   0  0  2  0  0  0  0  0  0  0  0  0
   -2.6450    1.8260   -2.9490 C   0  0  0  0  0  0  0  0  0  0  0  0
   -1.1500    1.9310   -2.5500 C   0  0  0  0  0  0  0  0  0  0  0  0
   -0.2270    2.4750   -3.1170 O   0  0  0  0  0  0  0  0  0  0  0  0
   -1.0940    1.1660   -1.2330 C   0  0  0  0  0  0  0  0  0  0  0  0
    0.1800    0.9470   -0.6030 C   0  0  0  0  0  0  0  0  0  0  0  0
    1.1880    0.8750   -1.4290 O   0  0  0  0  0  0  0  0  0  0  0  0
    0.5960    0.8110    0.7170 N   0  0  0  0  0  0  0  0  0  0  0  0
    1.9450    0.5820    1.1010 N   0  0  0  0  0  0  0  0  0  0  0  0
    2.6860   -0.5140    0.6260 C   0  0  0  0  0  0  0  0  0  0  0  0
    2.1080   -1.3040   -0.1680 O   0  0  0  0  0  0  0  0  0  0  0  0
    4.0220   -0.7970    0.9650 N   0  0  0  0  0  0  0  0  0  0  0  0
    4.6940   -1.9560    0.4150 C   0  0  2  0  0  0  0  0  0  0  0  0
    5.7910   -2.6200    1.1510 C   0  0  0  0  0  0  0  0  0  0  0  0
    6.1170   -1.7160   -0.0050 C   0  0  2  0  0  0  0  0  0  0  0  0
    6.8000   -0.4310    0.3600 C   0  0  0  0  0  0  0  0  0  0  0  0
    6.0980    0.7840   -0.2070 C   0  0  0  0  0  0  0  0  0  0  0  0
   -2.3400    1.1150   -0.7980 C   0  0  0  0  0  0  0  0  0  0  0  0
  1  2  1  0
  2  3  1  0
  3  4  1  0
  4  5  2  3
  5  6  1  0
  5 28  1  0
  6  7  2  0
  6  8  1  0
  8  9  1  0
  8 10  2  0
 10 11  1  0
 11 12  1  6
 11 28  1  0
 12 13  1  0
 13 14  2  0
 13 15  1  0
 15 16  1  0
 15 28  2  0
 16 17  2  0
 16 18  1  0
 18 19  1  0
 19 20  1  0
 20 21  2  0
 20 22  1  0
 23 22  1  1
 23 24  1  0
 23 25  1  0
 24 25  1  0
 25 26  1  1
 26 27  1  0
M  END
