
     RDKit          3D

 25 28  0  0  0  0  0  0  0  0999 V2000
    6.6980   -0.4270   -1.6690 C   0  0  0  0  0  0  0  0  0  0  0  0
    5.9230   -0.1230   -0.5480 O   0  0  0  0  0  0  0  0  0  0  0  0
    4.5420   -0.1350   -0.5240 C   0  0  0  0  0  0  0  0  0  0  0  0
    3.7720   -0.4500   -1.6130 C   0  0  0  0  0  0  0  0  0  0  0  0
    2.3980   -0.4660   -1.6020 C   0  0  0  0  0  0  0  0  0  0  0  0
    1.7480   -0.1460   -0.4270 C   0  0  0  0  0  0  0  0  0  0  0  0
    0.2870   -0.1520   -0.3820 C   0  0  0  0  0  0  0  0  0  0  0  0
   -0.4120   -1.0420   -1.1730 C   0  0  0  0  0  0  0  0  0  0  0  0
   -1.7880   -1.0470   -1.1280 C   0  0  0  0  0  0  0  0  0  0  0  0
   -2.5210   -0.1850   -0.3100 C   0  0  0  0  0  0  0  0  0  0  0  0
   -3.8910   -0.2120   -0.2860 C   0  0  0  0  0  0  0  0  0  0  0  0
   -4.5820    0.6500    0.5320 C   0  0  0  0  0  0  0  0  0  0  0  0
   -3.9040    1.5620    1.3460 C   0  0  0  0  0  0  0  0  0  0  0  0
   -4.6450    2.4950    2.2320 C   0  0  0  0  0  0  0  0  0  0  0  0
   -2.5250    1.5690    1.3030 C   0  0  0  0  0  0  0  0  0  0  0  0
   -1.8100    0.7120    0.4890 C   0  0  0  0  0  0  0  0  0  0  0  0
   -0.4360    0.7050    0.4320 C   0  0  0  0  0  0  0  0  0  0  0  0
   -4.6380   -1.1500   -1.1390 C   0  0  0  0  0  0  0  0  0  0  0  0
   -3.8770   -2.3960   -1.4390 C   0  0  0  0  0  0  0  0  0  0  0  0
   -2.5360   -2.0080   -1.9680 C   0  0  0  0  0  0  0  0  0  0  0  0
   -2.0340   -2.4200   -3.0180 O   0  0  0  0  0  0  0  0  0  0  0  0
    2.4960    0.1820    0.7090 C   0  0  0  0  0  0  0  0  0  0  0  0
    3.8750    0.1860    0.6550 C   0  0  0  0  0  0  0  0  0  0  0  0
    4.5910    0.5140    1.7930 O   0  0  0  0  0  0  0  0  0  0  0  0
    3.9090    0.8390    2.9870 C   0  0  0  0  0  0  0  0  0  0  0  0
  1  2  1  0
  2  3  1  0
  3  4  2  0
  3 23  1  0
  4  5  1  0
  5  6  2  0
  6  7  1  0
  6 22  1  0
  7  8  2  0
  7 17  1  0
  8  9  1  0
  9 10  2  0
  9 20  1  0
 10 11  1  0
 10 16  1  0
 11 12  2  0
 11 18  1  0
 12 13  1  0
 13 14  1  0
 13 15  2  0
 15 16  1  0
 16 17  2  0
 18 19  1  0
 19 20  1  0
 20 21  2  0
 22 23  2  0
 23 24  1  0
 24 25  1  0
M  END
