
     RDKit          3D

 25 28  0  0  0  0  0  0  0  0999 V2000
   -6.4240   -0.5510    0.2510 C   0  0  0  0  0  0  0  0  0  0  0  0
   -5.2740    0.3910    0.1370 C   0  0  0  0  0  0  0  0  0  0  0  0
   -5.1870    1.4660    0.9820 C   0  0  0  0  0  0  0  0  0  0  0  0
   -4.1160    2.3290    0.8650 C   0  0  0  0  0  0  0  0  0  0  0  0
   -3.1400    2.1090   -0.0980 C   0  0  0  0  0  0  0  0  0  0  0  0
   -3.2070    1.0250   -0.9680 C   0  0  0  0  0  0  0  0  0  0  0  0
   -2.1710    0.7980   -1.9850 C   0  0  0  0  0  0  0  0  0  0  0  0
   -1.0750   -0.0640   -1.4290 C   0  0  0  0  0  0  0  0  0  0  0  0
   -1.1250   -1.4400   -1.5300 C   0  0  0  0  0  0  0  0  0  0  0  0
   -0.1360   -2.2600   -1.0300 C   0  0  0  0  0  0  0  0  0  0  0  0
    0.9520   -1.7210   -0.4030 C   0  0  0  0  0  0  0  0  0  0  0  0
    1.0130   -0.3370   -0.2960 C   0  0  0  0  0  0  0  0  0  0  0  0
    0.0230    0.4830   -0.7960 C   0  0  0  0  0  0  0  0  0  0  0  0
    2.0400    0.4140    0.3080 O   0  0  0  0  0  0  0  0  0  0  0  0
    3.3310   -0.0620    0.5680 C   0  0  0  0  0  0  0  0  0  0  0  0
    4.3220    0.8920    0.4280 C   0  0  0  0  0  0  0  0  0  0  0  0
    5.6330    0.5450    0.6570 C   0  0  0  0  0  0  0  0  0  0  0  0
    6.6870    1.5370    0.5140 C   0  0  0  0  0  0  0  0  0  0  0  0
    6.3930    2.7130    0.1800 O   0  0  0  0  0  0  0  0  0  0  0  0
    5.9850   -0.7340    1.0230 C   0  0  0  0  0  0  0  0  0  0  0  0
    5.0050   -1.6870    1.1640 C   0  0  0  0  0  0  0  0  0  0  0  0
    3.6930   -1.3440    0.9360 C   0  0  0  0  0  0  0  0  0  0  0  0
    2.8030   -2.5240    1.1490 C   0  0  0  0  0  0  0  0  0  0  0  0
    1.8950   -2.6030    0.0680 O   0  0  0  0  0  0  0  0  0  0  0  0
   -4.2990    0.1890   -0.8100 C   0  0  0  0  0  0  0  0  0  0  0  0
  1  2  1  0
  2  3  2  0
  2 25  1  0
  3  4  1  0
  4  5  2  0
  5  6  1  0
  6  7  1  0
  6 25  2  0
  7  8  1  0
  8  9  2  0
  8 13  1  0
  9 10  1  0
 10 11  2  0
 11 12  1  0
 11 24  1  0
 12 13  2  0
 12 14  1  0
 14 15  1  0
 15 16  2  0
 15 22  1  0
 16 17  1  0
 17 18  1  0
 17 20  2  0
 18 19  2  0
 20 21  1  0
 21 22  2  0
 22 23  1  0
 23 24  1  0
M  END
