
     RDKit          3D

 25 27  0  0  0  0  0  0  0  0999 V2000
   -6.7500    0.2450    0.5670 C   0  0  0  0  0  0  0  0  0  0  0  0
   -5.9150   -0.3470   -0.5910 C   0  0  0  0  0  0  0  0  0  0  0  0
   -4.4730   -0.3290   -0.1900 C   0  0  0  0  0  0  0  0  0  0  0  0
   -3.4900    0.2070   -0.9320 C   0  0  0  0  0  0  0  0  0  0  0  0
   -3.9080    0.8010   -2.2200 C   0  0  0  0  0  0  0  0  0  0  0  0
   -2.0960    0.1410   -0.6000 C   0  0  0  0  0  0  0  0  0  0  0  0
   -1.0900    0.6510   -1.2360 C   0  0  0  0  0  0  0  0  0  0  0  0
   -1.0990    1.4480   -2.4760 C   0  0  0  0  0  0  0  0  0  0  0  0
    0.2930    0.4310   -0.6210 C   0  0  0  0  0  0  0  0  0  0  0  0
    1.4130    0.8350   -1.1300 C   0  0  0  0  0  0  0  0  0  0  0  0
    2.5520    0.4650   -0.3030 C   0  0  0  0  0  0  0  0  0  0  0  0
    3.8120    0.4520   -0.7070 C   0  0  0  0  0  0  0  0  0  0  0  0
    4.9330    0.0910    0.0970 C   0  0  0  0  0  0  0  0  0  0  0  0
    5.9600   -0.6500   -0.4440 C   0  0  0  0  0  0  0  0  0  0  0  0
    7.0700   -1.0160    0.3080 C   0  0  0  0  0  0  0  0  0  0  0  0
    7.1440   -0.6260    1.6370 C   0  0  0  0  0  0  0  0  0  0  0  0
    8.2460   -0.9850    2.4030 O   0  0  0  0  0  0  0  0  0  0  0  0
    6.1320    0.1110    2.1920 C   0  0  0  0  0  0  0  0  0  0  0  0
    5.0250    0.4670    1.4110 C   0  0  0  0  0  0  0  0  0  0  0  0
    1.9770    0.1240    1.0040 C   0  0  0  0  0  0  0  0  0  0  0  0
    0.5420   -0.2210    0.6710 C   0  0  0  0  0  0  0  0  0  0  0  0
   -1.8310   -0.5780    0.5980 O   0  0  0  0  0  0  0  0  0  0  0  0
   -2.7980   -1.1600    1.3700 C   0  0  0  0  0  0  0  0  0  0  0  0
   -2.4810   -1.9680    2.3250 O   0  0  0  0  0  0  0  0  0  0  0  0
   -4.2070   -0.8990    1.1500 C   0  0  0  0  0  0  0  0  0  0  0  0
  1  2  1  0
  2  3  1  0
  3  4  2  0
  3 25  1  0
  4  5  1  0
  4  6  1  0
  6  7  2  3
  6 22  1  0
  7  8  1  0
  7  9  1  0
  9 10  2  0
  9 21  1  0
 10 11  1  0
 11 12  2  3
 11 20  1  0
 12 13  1  0
 13 14  2  0
 13 19  1  0
 14 15  1  0
 15 16  2  0
 16 17  1  0
 16 18  1  0
 18 19  2  0
 20 21  1  0
 22 23  1  0
 23 24  2  0
 23 25  1  0
M  END
