
     RDKit          3D

 16 17  0  0  0  0  0  0  0  0999 V2000
   -3.7660    1.5650    0.9360 C   0  0  0  0  0  0  0  0  0  0  0  0
   -2.2910    1.3870    1.9920 S   0  0  0  0  0  0  0  0  0  0  0  0
   -0.8460    1.4440    0.9510 C   0  0  0  0  0  0  0  0  0  0  0  0
   -0.2150    2.6180    0.6510 N   0  0  0  0  0  0  0  0  0  0  0  0
    0.8180    2.3270   -0.1360 N   0  0  0  0  0  0  0  0  0  0  0  0
    0.8240    0.9820   -0.3200 C   0  0  0  0  0  0  0  0  0  0  0  0
    1.8010    0.2230   -1.1290 C   0  0  2  0  0  0  0  0  0  0  0  0
    3.1810    0.3970   -0.5370 C   0  0  0  0  0  0  0  0  0  0  0  0
    1.8510    0.7410   -2.5600 C   0  0  0  0  0  0  0  0  0  0  0  0
   -0.1990    0.4360    0.3490 N   0  0  0  0  0  0  0  0  0  0  0  0
   -0.5530   -0.9450    0.4210 C   0  0  0  0  0  0  0  0  0  0  0  0
   -0.3300   -1.6890    1.4870 C   0  0  0  0  0  0  0  0  0  0  0  0
    0.4290   -1.1500    3.0040 Cl  0  0  0  0  0  0  0  0  0  0  0  0
   -0.8230   -3.0450    1.1950 C   0  0  0  0  0  0  0  0  0  0  0  0
   -1.3340   -2.9530   -0.1400 N   0  0  0  0  0  0  0  0  0  0  0  0
   -1.1890   -1.7640   -0.5990 C   0  0  0  0  0  0  0  0  0  0  0  0
  1  2  1  0
  2  3  1  0
  3  4  2  0
  3 10  1  0
  4  5  1  0
  5  6  2  0
  6  7  1  0
  6 10  1  0
  7  8  1  1
  7  9  1  0
 10 11  1  0
 11 12  2  0
 11 16  1  0
 12 13  1  0
 12 14  1  0
 14 15  1  0
 15 16  2  0
M  END
