
     RDKit          3D

 16 17  0  0  0  0  0  0  0  0999 V2000
   -3.2770    1.5360    0.2160 C   0  0  0  0  0  0  0  0  0  0  0  0
   -2.0580    1.4010   -0.6880 C   0  0  0  0  0  0  0  0  0  0  0  0
   -1.4530    0.0910   -0.6140 N   0  0  0  0  0  0  0  0  0  0  0  0
   -2.2210   -0.9780   -1.1500 C   0  0  0  0  0  0  0  0  0  0  0  0
   -2.0170   -2.2610   -0.8680 C   0  0  0  0  0  0  0  0  0  0  0  0
   -3.1290   -3.3270   -1.6880 Cl  0  0  0  0  0  0  0  0  0  0  0  0
   -1.0200   -2.8940    0.0090 C   0  0  0  0  0  0  0  0  0  0  0  0
    0.0220   -2.3630    0.5820 N   0  0  0  0  0  0  0  0  0  0  0  0
    0.4970   -1.0380    0.5300 C   0  0  0  0  0  0  0  0  0  0  0  0
    1.7320   -0.8610    1.0680 N   0  0  0  0  0  0  0  0  0  0  0  0
    2.3130    0.3480    1.0850 C   0  0  0  0  0  0  0  0  0  0  0  0
    3.9310    0.5060    1.8020 S   0  0  0  0  0  0  0  0  0  0  0  0
    5.1260    0.2040    0.4460 C   0  0  0  0  0  0  0  0  0  0  0  0
    1.6860    1.4530    0.5610 C   0  0  0  0  0  0  0  0  0  0  0  0
    0.4540    1.2420    0.0310 N   0  0  0  0  0  0  0  0  0  0  0  0
   -0.1600    0.0630   -0.0070 C   0  0  0  0  0  0  0  0  0  0  0  0
  1  2  1  0
  2  3  1  0
  3  4  1  0
  3 16  1  0
  4  5  2  0
  5  6  1  0
  5  7  1  0
  7  8  2  0
  8  9  1  0
  9 10  2  0
  9 16  1  0
 10 11  1  0
 11 12  1  0
 11 14  2  0
 12 13  1  0
 14 15  1  0
 15 16  2  0
M  END
