
     RDKit          3D

 15 16  0  0  0  0  0  0  0  0999 V2000
   -3.8720    1.2760   -0.4790 C   0  0  0  0  0  0  0  0  0  0  0  0
   -3.3880   -0.1740    0.2550 S   0  0  1  0  0  0  0  0  0  0  0  0
   -4.5690   -1.4340   -0.2090 C   0  0  0  0  0  0  0  0  0  0  0  0
   -1.8930   -0.7090   -0.5240 C   0  0  0  0  0  0  0  0  0  0  0  0
   -1.7990   -1.5070   -1.5970 N   0  0  0  0  0  0  0  0  0  0  0  0
   -0.5180   -1.6520   -1.8470 N   0  0  0  0  0  0  0  0  0  0  0  0
    0.2190   -0.9660   -0.9590 C   0  0  0  0  0  0  0  0  0  0  0  0
   -0.6360   -0.3670   -0.1200 N   0  0  0  0  0  0  0  0  0  0  0  0
   -0.3660    0.4810    1.0040 C   0  0  0  0  0  0  0  0  0  0  0  0
    0.8050    0.8450    1.4410 C   0  0  0  0  0  0  0  0  0  0  0  0
    2.0790    0.5370    0.9750 N   0  0  0  0  0  0  0  0  0  0  0  0
    2.7760    1.3430   -0.0130 C   0  0  0  0  0  0  0  0  0  0  0  0
    4.1480    0.7800   -0.1650 C   0  0  0  0  0  0  0  0  0  0  0  0
    3.9790   -0.6580    0.2660 C   0  0  0  0  0  0  0  0  0  0  0  0
    2.9570   -0.5590    1.3550 C   0  0  0  0  0  0  0  0  0  0  0  0
  2  1  1  6
  2  3  1  0
  2  4  1  0
  4  5  2  0
  4  8  1  0
  5  6  1  0
  6  7  2  0
  7  8  1  0
  8  9  1  0
  9 10  2  3
 10 11  1  0
 11 12  1  0
 11 15  1  0
 12 13  1  0
 13 14  1  0
 14 15  1  0
M  END
