
     RDKit          3D

 16 17  0  0  0  0  0  0  0  0999 V2000
   -3.0730   -4.5620   -0.0010 N   0  0  0  0  0  0  0  0  0  0  0  0
   -2.4510   -3.5950    0.2580 C   0  0  0  0  0  0  0  0  0  0  0  0
   -1.6940   -2.4630    0.5730 N   0  0  0  0  0  0  0  0  0  0  0  0
   -1.7570   -1.3670   -0.0970 C   0  0  0  0  0  0  0  0  0  0  0  0
   -2.8380   -1.1770   -1.5260 S   0  0  0  0  0  0  0  0  0  0  0  0
   -2.6350    0.6470   -1.6610 C   0  0  0  0  0  0  0  0  0  0  0  0
   -1.2560    0.7730   -1.0530 C   0  0  0  0  0  0  0  0  0  0  0  0
   -1.1140   -0.1230    0.0380 N   0  0  0  0  0  0  0  0  0  0  0  0
   -0.3410    0.2390    1.2320 C   0  0  0  0  0  0  0  0  0  0  0  0
    1.0670    0.5040    0.9490 C   0  0  0  0  0  0  0  0  0  0  0  0
    1.7040   -0.0910   -0.1140 C   0  0  0  0  0  0  0  0  0  0  0  0
    3.0540    0.1600   -0.3870 C   0  0  0  0  0  0  0  0  0  0  0  0
    3.7590    1.0170    0.4220 C   0  0  0  0  0  0  0  0  0  0  0  0
    5.4560    1.3370    0.0880 Cl  0  0  0  0  0  0  0  0  0  0  0  0
    3.1250    1.5930    1.4600 N   0  0  0  0  0  0  0  0  0  0  0  0
    1.8140    1.3540    1.7310 C   0  0  0  0  0  0  0  0  0  0  0  0
  1  2  3  0
  2  3  1  0
  3  4  2  3
  4  5  1  0
  4  8  1  0
  5  6  1  0
  6  7  1  0
  7  8  1  0
  8  9  1  0
  9 10  1  0
 10 11  2  0
 10 16  1  0
 11 12  1  0
 12 13  2  0
 13 14  1  0
 13 15  1  0
 15 16  2  0
M  END
