
     RDKit          3D

 16 17  0  0  0  0  0  0  0  0999 V2000
   -2.6520   -1.1240    1.3140 C   0  0  0  0  0  0  0  0  0  0  0  0
   -1.6870   -0.5950    0.4100 N   0  0  0  0  0  0  0  0  0  0  0  0
   -1.0690   -1.5840   -0.4360 C   0  0  0  0  0  0  0  0  0  0  0  0
    0.2920   -1.1410   -0.9020 C   0  0  0  0  0  0  0  0  0  0  0  0
    0.8880   -1.8960   -1.7980 C   0  0  0  0  0  0  0  0  0  0  0  0
    0.1220   -3.3610   -2.4160 Cl  0  0  0  0  0  0  0  0  0  0  0  0
    0.9960    0.0760   -0.4220 C   0  0  0  0  0  0  0  0  0  0  0  0
    2.2870   -0.0730   -0.2650 C   0  0  0  0  0  0  0  0  0  0  0  0
    3.3000    0.8950    0.1870 C   0  0  0  0  0  0  0  0  0  0  0  0
    4.1080    0.2480    1.7090 S   0  0  0  0  0  0  0  0  0  0  0  0
    0.3470    1.3120   -0.1420 N   0  0  0  0  0  0  0  0  0  0  0  0
    0.9580    2.4450    0.0850 N   0  0  0  0  0  0  0  0  0  0  0  0
    0.1180    3.4240    0.3150 N   0  0  0  0  0  0  0  0  0  0  0  0
   -1.1240    2.9210    0.2380 C   0  0  0  0  0  0  0  0  0  0  0  0
   -0.9820    1.6000   -0.0470 C   0  0  0  0  0  0  0  0  0  0  0  0
   -2.0660    0.6080   -0.2430 C   0  0  0  0  0  0  0  0  0  0  0  0
  1  2  1  0
  2  3  1  0
  2 16  1  0
  3  4  1  0
  4  5  2  3
  4  7  1  0
  5  6  1  0
  7  8  2  3
  7 11  1  0
  8  9  1  0
  9 10  1  0
 11 12  1  0
 11 15  1  0
 12 13  2  0
 13 14  1  0
 14 15  2  0
 15 16  1  0
M  END
