
     RDKit          3D

 16 17  0  0  0  0  0  0  0  0999 V2000
   -2.4170    1.7190   -1.1810 C   0  0  0  0  0  0  0  0  0  0  0  0
   -1.0840    1.1720   -1.5130 C   0  0  0  0  0  0  0  0  0  0  0  0
   -0.4120    1.5970   -2.6200 N   0  0  0  0  0  0  0  0  0  0  0  0
    0.7160    0.9560   -2.6640 N   0  0  0  0  0  0  0  0  0  0  0  0
    0.7590    0.1190   -1.5790 C   0  0  0  0  0  0  0  0  0  0  0  0
    2.1470   -0.9630   -1.2420 S   0  0  0  0  0  0  0  0  0  0  0  0
    3.3840   -0.1210   -0.2160 C   0  0  0  0  0  0  0  0  0  0  0  0
    3.9890    0.9840   -0.9590 C   0  0  0  0  0  0  0  0  0  0  0  0
    4.4650    1.8610   -1.5390 N   0  0  0  0  0  0  0  0  0  0  0  0
   -0.3700    0.2530   -0.8540 N   0  0  0  0  0  0  0  0  0  0  0  0
   -0.7250   -0.4380    0.3580 C   0  0  0  0  0  0  0  0  0  0  0  0
   -1.8020   -0.3300    1.0920 C   0  0  0  0  0  0  0  0  0  0  0  0
   -1.7090   -1.2510    2.2470 C   0  0  0  0  0  0  0  0  0  0  0  0
   -0.4240   -1.9180    2.0910 C   0  0  0  0  0  0  0  0  0  0  0  0
    0.2500   -3.1420    3.1770 Cl  0  0  0  0  0  0  0  0  0  0  0  0
    0.1390   -1.4420    0.9960 C   0  0  0  0  0  0  0  0  0  0  0  0
  1  2  1  0
  2  3  2  0
  2 10  1  0
  3  4  1  0
  4  5  2  0
  5  6  1  0
  5 10  1  0
  6  7  1  0
  7  8  1  0
  8  9  3  0
 10 11  1  0
 11 12  2  0
 11 16  1  0
 12 13  1  0
 13 14  1  0
 14 15  1  0
 14 16  2  0
M  END
