
     RDKit          3D

 16 17  0  0  0  0  0  0  0  0999 V2000
   -3.7740    1.6380   -0.5150 C   0  0  0  0  0  0  0  0  0  0  0  0
   -4.0500    0.4640    0.0010 C   0  0  0  0  0  0  0  0  0  0  0  0
   -5.7910    0.1310    0.2370 Cl  0  0  0  0  0  0  0  0  0  0  0  0
   -3.0840   -0.5360    0.3740 C   0  0  0  0  0  0  0  0  0  0  0  0
   -3.5240   -1.6780    0.8850 C   0  0  0  0  0  0  0  0  0  0  0  0
   -1.6640   -0.3260    0.2080 C   0  0  0  0  0  0  0  0  0  0  0  0
   -0.7460   -1.2870    0.5670 N   0  0  0  0  0  0  0  0  0  0  0  0
    0.4910   -0.8380    0.3080 C   0  0  0  0  0  0  0  0  0  0  0  0
    0.3360    0.3940   -0.2080 N   0  0  0  0  0  0  0  0  0  0  0  0
   -0.9390    0.6970   -0.2680 N   0  0  0  0  0  0  0  0  0  0  0  0
    1.4920    1.1170   -0.5810 C   0  0  0  0  0  0  0  0  0  0  0  0
    1.4210    2.6200   -1.2150 S   0  0  0  0  0  0  0  0  0  0  0  0
    2.7730    0.5270   -0.4000 N   0  0  0  0  0  0  0  0  0  0  0  0
    3.9570    1.3380   -0.1650 C   0  0  0  0  0  0  0  0  0  0  0  0
    2.8320   -0.9340   -0.4640 C   0  0  0  0  0  0  0  0  0  0  0  0
    1.8080   -1.4720    0.5080 C   0  0  0  0  0  0  0  0  0  0  0  0
  1  2  2  0
  2  3  1  0
  2  4  1  0
  4  5  2  0
  4  6  1  0
  6  7  1  0
  6 10  2  0
  7  8  2  0
  8  9  1  0
  8 16  1  0
  9 10  1  0
  9 11  1  0
 11 12  2  0
 11 13  1  0
 13 14  1  0
 13 15  1  0
 15 16  1  0
M  END
