
     RDKit          3D

 20 19  0  0  0  0  0  0  0  0999 V2000
   -5.0760    0.4290    0.1730 N   0  0  0  0  0  0  0  0  0  0  0  0
   -5.3370    1.3820   -0.8680 C   0  0  0  0  0  0  0  0  0  0  0  0
   -4.4980    1.1820   -2.0420 C   0  0  0  0  0  0  0  0  0  0  0  0
   -5.1870    0.9430   -3.3160 S   0  0  0  0  0  0  0  0  0  0  0  0
   -3.0300    1.1780   -2.1030 C   0  0  1  0  0  0  0  0  0  0  0  0
   -2.5560    2.3910   -1.5880 O   0  0  0  0  0  0  0  0  0  0  0  0
   -2.3900   -0.0270   -1.4480 C   0  0  0  0  0  0  0  0  0  0  0  0
   -2.5920    0.0020   -0.0940 O   0  0  0  0  0  0  0  0  0  0  0  0
   -2.2520   -1.1990    0.4510 C   0  0  0  0  0  0  0  0  0  0  0  0
   -0.8310   -1.5750    0.2960 C   0  0  0  0  0  0  0  0  0  0  0  0
   -0.0180   -0.6520    0.9400 N   0  0  0  0  0  0  0  0  0  0  0  0
    1.4840   -0.9380    0.9510 C   0  0  0  0  0  0  0  0  0  0  0  0
    1.8790   -1.9060    0.3440 O   0  0  0  0  0  0  0  0  0  0  0  0
    2.0960    0.0250    1.7150 N   0  0  0  0  0  0  0  0  0  0  0  0
    3.7570   -0.4100    1.2860 C   0  0  0  0  0  0  0  0  0  0  0  0
    3.8550   -1.2480    0.5280 O   0  0  0  0  0  0  0  0  0  0  0  0
    4.6340    0.3420    1.9560 O   0  0  0  0  0  0  0  0  0  0  0  0
    6.0640    0.1810    1.7940 C   0  0  0  0  0  0  0  0  0  0  0  0
    6.5230    0.4800    0.4140 C   0  0  0  0  0  0  0  0  0  0  0  0
    5.9900   -0.2820   -0.5850 O   0  0  0  0  0  0  0  0  0  0  0  0
  1  2  1  0
  2  3  1  0
  3  4  2  0
  3  5  1  0
  5  6  1  1
  5  7  1  0
  7  8  1  0
  8  9  1  0
  9 10  1  0
 10 11  1  0
 11 12  1  0
 12 13  2  0
 12 14  1  0
 14 15  1  0
 15 16  2  0
 15 17  1  0
 17 18  1  0
 18 19  1  0
 19 20  1  0
M  END
