
     RDKit          3D

 16 17  0  0  0  0  0  0  0  0999 V2000
    4.3440   -1.5080    2.7510 N   0  0  0  0  0  0  0  0  0  0  0  0
    3.7030   -0.6930    2.6070 C   0  0  0  0  0  0  0  0  0  0  0  0
    2.7630    0.4870    2.3730 C   0  0  0  0  0  0  0  0  0  0  0  0
    2.1400    0.3740    1.1010 C   0  0  0  0  0  0  0  0  0  0  0  0
    2.8430    0.6510   -0.0670 N   0  0  0  0  0  0  0  0  0  0  0  0
    2.2570    0.6130   -1.2150 C   0  0  0  0  0  0  0  0  0  0  0  0
    0.9490    0.3120   -1.4430 C   0  0  0  0  0  0  0  0  0  0  0  0
    0.3080    0.1710   -3.0050 Cl  0  0  0  0  0  0  0  0  0  0  0  0
    0.1920    0.0240   -0.2470 C   0  0  0  0  0  0  0  0  0  0  0  0
   -1.2840   -0.1870   -0.3200 C   0  0  0  0  0  0  0  0  0  0  0  0
   -1.8720   -0.8440    0.5760 C   0  0  0  0  0  0  0  0  0  0  0  0
   -3.6280   -1.1190    0.5670 S   0  0  0  0  0  0  0  0  0  0  0  0
   -4.2290   -0.3860   -0.9950 C   0  0  0  0  0  0  0  0  0  0  0  0
   -3.2090    0.2560   -1.6720 N   0  0  0  0  0  0  0  0  0  0  0  0
   -1.9580    0.4410   -1.5430 C   0  0  0  0  0  0  0  0  0  0  0  0
    0.8570    0.0830    0.8450 N   0  0  0  0  0  0  0  0  0  0  0  0
  1  2  3  0
  2  3  1  0
  3  4  1  0
  4  5  2  0
  4 16  1  0
  5  6  1  0
  6  7  2  0
  7  8  1  0
  7  9  1  0
  9 10  1  0
  9 16  2  0
 10 11  2  0
 10 15  1  0
 11 12  1  0
 12 13  1  0
 13 14  1  0
 14 15  2  0
M  END
