
     RDKit          3D

 22 25  0  0  0  0  0  0  0  0999 V2000
   -2.3650   -1.7180    0.4290 C   0  0  0  0  0  0  0  0  0  0  0  0
   -1.2540   -1.4310   -0.1940 C   0  0  0  0  0  0  0  0  0  0  0  0
   -0.4610   -2.5050   -0.8150 C   0  0  0  0  0  0  0  0  0  0  0  0
   -0.7260   -3.8190   -0.8560 N   0  0  0  0  0  0  0  0  0  0  0  0
    0.2090   -4.4620   -1.5240 N   0  0  0  0  0  0  0  0  0  0  0  0
    1.1320   -3.5460   -1.9450 C   0  0  0  0  0  0  0  0  0  0  0  0
    0.7180   -2.3100   -1.5000 C   0  0  0  0  0  0  0  0  0  0  0  0
    1.3680   -1.0100   -1.6330 C   0  0  0  0  0  0  0  0  0  0  0  0
    1.6810   -0.4340   -2.8390 C   0  0  0  0  0  0  0  0  0  0  0  0
    2.3210    0.8100   -2.8900 C   0  0  0  0  0  0  0  0  0  0  0  0
    2.6580    1.5000   -1.7540 C   0  0  0  0  0  0  0  0  0  0  0  0
    2.3500    0.9310   -0.5030 C   0  0  0  0  0  0  0  0  0  0  0  0
    1.7290   -0.2750   -0.4990 C   0  0  0  0  0  0  0  0  0  0  0  0
    2.8430    1.8900    0.5250 C   0  0  0  0  0  0  0  0  0  0  0  0
    3.5210    2.9900   -0.2270 C   0  0  0  0  0  0  0  0  0  0  0  0
    3.2780    2.7170   -1.5820 O   0  0  0  0  0  0  0  0  0  0  0  0
   -3.2530   -0.7600    1.0970 C   0  0  0  0  0  0  0  0  0  0  0  0
   -2.8630    0.6750    1.0370 C   0  0  2  0  0  0  0  0  0  0  0  0
   -1.5410    1.0320    1.6310 C   0  0  0  0  0  0  0  0  0  0  0  0
   -1.9230    2.0100    2.7460 C   0  0  0  0  0  0  0  0  0  0  0  0
   -3.1230    2.5210    2.2660 O   0  0  0  0  0  0  0  0  0  0  0  0
   -3.8050    1.4170    1.8740 N   0  0  0  0  0  0  0  0  0  0  0  0
  1  2  2  3
  1 17  1  0
  2  3  1  0
  3  4  2  0
  3  7  1  0
  4  5  1  0
  5  6  1  0
  6  7  2  0
  7  8  1  0
  8  9  2  0
  8 13  1  0
  9 10  1  0
 10 11  2  0
 11 12  1  0
 11 16  1  0
 12 13  2  0
 12 14  1  0
 14 15  1  0
 15 16  1  0
 18 17  1  1
 18 19  1  0
 18 22  1  0
 19 20  1  0
 20 21  1  0
 21 22  1  0
M  END
