
     RDKit          3D

 22 24  0  0  0  0  0  0  0  0999 V2000
   -1.1490    3.9710    0.1700 C   0  0  0  0  0  0  0  0  0  0  0  0
   -1.4050    2.5540    0.6260 C   0  0  0  0  0  0  0  0  0  0  0  0
   -0.2560    1.6650    0.3960 C   0  0  0  0  0  0  0  0  0  0  0  0
   -0.4050    0.3040    0.7060 C   0  0  0  0  0  0  0  0  0  0  0  0
   -1.6990   -0.2410    1.0680 C   0  0  0  0  0  0  0  0  0  0  0  0
   -2.5620   -0.6900   -0.0640 C   0  0  0  0  0  0  0  0  0  0  0  0
   -3.1850   -1.8830   -0.0190 C   0  0  0  0  0  0  0  0  0  0  0  0
   -3.9650   -2.0800   -1.2560 C   0  0  0  0  0  0  0  0  0  0  0  0
   -3.7010   -0.8910   -1.9920 N   0  0  0  0  0  0  0  0  0  0  0  0
   -2.9050   -0.1020   -1.3120 C   0  0  0  0  0  0  0  0  0  0  0  0
    0.6970   -0.5040    0.5750 C   0  0  0  0  0  0  0  0  0  0  0  0
    0.9070   -1.8570    0.8030 C   0  0  0  0  0  0  0  0  0  0  0  0
   -0.0450   -2.8620    1.2780 C   0  0  0  0  0  0  0  0  0  0  0  0
    2.1840   -2.0890    0.5120 N   0  0  0  0  0  0  0  0  0  0  0  0
    2.8440   -0.9780    0.1040 C   0  0  0  0  0  0  0  0  0  0  0  0
    4.2330   -0.9330   -0.2750 C   0  0  0  0  0  0  0  0  0  0  0  0
    4.9370    0.2770   -0.7240 C   0  0  0  0  0  0  0  0  0  0  0  0
    4.8890   -2.0330   -0.2110 O   0  0  0  0  0  0  0  0  0  0  0  0
    1.9250    0.0370    0.1360 C   0  0  0  0  0  0  0  0  0  0  0  0
    2.0170    1.3430   -0.1520 N   0  0  0  0  0  0  0  0  0  0  0  0
    0.9420    2.1530   -0.0250 C   0  0  0  0  0  0  0  0  0  0  0  0
    1.1240    3.3760   -0.3200 O   0  0  0  0  0  0  0  0  0  0  0  0
  1  2  1  0
  2  3  1  0
  3  4  2  0
  3 21  1  0
  4  5  1  0
  4 11  1  0
  5  6  1  0
  6  7  2  0
  6 10  1  0
  7  8  1  0
  8  9  1  0
  9 10  2  0
 11 12  2  0
 11 19  1  0
 12 13  1  0
 12 14  1  0
 14 15  1  0
 15 16  1  0
 15 19  2  0
 16 17  1  0
 16 18  2  0
 19 20  1  0
 20 21  1  0
 21 22  2  0
M  END
