
     RDKit          3D

 22 24  0  0  0  0  0  0  0  0999 V2000
    7.3070    0.0340    0.0640 C   0  0  0  0  0  0  0  0  0  0  0  0
    6.0180    0.0850    0.7690 C   0  0  0  0  0  0  0  0  0  0  0  0
    4.8680    0.2340    0.0590 C   0  0  0  0  0  0  0  0  0  0  0  0
    3.6160    0.2820    0.7610 C   0  0  0  0  0  0  0  0  0  0  0  0
    2.4090    0.4210    0.3420 C   0  0  0  0  0  0  0  0  0  0  0  0
    1.8670    0.5820   -0.9580 N   0  0  0  0  0  0  0  0  0  0  0  0
    2.5080    0.9550   -2.0880 C   0  0  0  0  0  0  0  0  0  0  0  0
    1.5870    0.9950   -3.1410 C   0  0  0  0  0  0  0  0  0  0  0  0
    0.4320    0.6440   -2.6040 N   0  0  0  0  0  0  0  0  0  0  0  0
    0.5570    0.3800   -1.2710 C   0  0  0  0  0  0  0  0  0  0  0  0
   -0.5430    0.0010   -0.4010 C   0  0  0  0  0  0  0  0  0  0  0  0
   -1.7520    0.6710   -0.6270 C   0  0  0  0  0  0  0  0  0  0  0  0
   -2.8690    0.3540    0.0720 C   0  0  0  0  0  0  0  0  0  0  0  0
   -2.8550   -0.6380    1.0300 C   0  0  0  0  0  0  0  0  0  0  0  0
   -1.6980   -1.2830    1.2480 N   0  0  0  0  0  0  0  0  0  0  0  0
   -0.5540   -0.9770    0.5490 C   0  0  0  0  0  0  0  0  0  0  0  0
    0.4980   -1.6210    0.7870 O   0  0  0  0  0  0  0  0  0  0  0  0
   -4.0350   -1.0130    1.8100 C   0  0  0  0  0  0  0  0  0  0  0  0
   -5.3400   -0.6530    1.1810 C   0  0  0  0  0  0  0  0  0  0  0  0
   -5.2210   -0.0930   -0.2050 C   0  0  0  0  0  0  0  0  0  0  0  0
   -4.1930    1.0420   -0.1310 C   0  0  2  0  0  0  0  0  0  0  0  0
   -4.2040    1.8310   -1.2530 O   0  0  0  0  0  0  0  0  0  0  0  0
  1  2  1  0
  2  3  2  3
  3  4  1  0
  4  5  2  3
  5  6  1  0
  6  7  1  0
  6 10  1  0
  7  8  2  0
  8  9  1  0
  9 10  2  0
 10 11  1  0
 11 12  2  0
 11 16  1  0
 12 13  1  0
 13 14  2  0
 13 21  1  0
 14 15  1  0
 14 18  1  0
 15 16  1  0
 16 17  2  0
 18 19  1  0
 19 20  1  0
 20 21  1  0
 21 22  1  6
M  END
