
     RDKit          3D

 17 18  0  0  0  0  0  0  0  0999 V2000
   -3.7530    1.2590    2.8270 O   0  0  0  0  0  0  0  0  0  0  0  0
   -3.6620    0.9570    1.6260 N   0  0  0  0  0  0  0  0  0  0  0  0
   -4.7780    0.4880    0.9880 O   0  0  0  0  0  0  0  0  0  0  0  0
   -2.4270    1.1000    0.9440 C   0  0  0  0  0  0  0  0  0  0  0  0
   -1.9180    0.1540    0.1530 C   0  0  0  0  0  0  0  0  0  0  0  0
   -2.5820   -1.0970   -0.0750 N   0  0  0  0  0  0  0  0  0  0  0  0
   -1.5300   -2.0270   -0.4960 C   0  0  0  0  0  0  0  0  0  0  0  0
   -0.6130   -1.0770   -1.2770 C   0  0  0  0  0  0  0  0  0  0  0  0
   -0.7060    0.1770   -0.5760 N   0  0  0  0  0  0  0  0  0  0  0  0
    0.2720    1.2270   -0.6340 C   0  0  0  0  0  0  0  0  0  0  0  0
    1.5760    0.7650   -0.1570 C   0  0  0  0  0  0  0  0  0  0  0  0
    2.4780    0.2180   -1.0440 C   0  0  0  0  0  0  0  0  0  0  0  0
    3.7090   -0.2180   -0.5950 C   0  0  0  0  0  0  0  0  0  0  0  0
    4.0470   -0.1110    0.7350 C   0  0  0  0  0  0  0  0  0  0  0  0
    5.6130   -0.6600    1.3380 Cl  0  0  0  0  0  0  0  0  0  0  0  0
    3.1320    0.4290    1.5570 N   0  0  0  0  0  0  0  0  0  0  0  0
    1.9230    0.8660    1.1610 C   0  0  0  0  0  0  0  0  0  0  0  0
  1  2  2  0
  2  3  1  0
  2  4  1  0
  4  5  2  3
  5  6  1  0
  5  9  1  0
  6  7  1  0
  7  8  1  0
  8  9  1  0
  9 10  1  0
 10 11  1  0
 11 12  2  0
 11 17  1  0
 12 13  1  0
 13 14  2  0
 14 15  1  0
 14 16  1  0
 16 17  2  0
M  CHG  2   2   1   3  -1
M  END
