
     RDKit          3D

 22 24  0  0  0  0  0  0  0  0999 V2000
   -5.5830   -1.3760    1.9720 C   0  0  0  0  0  0  0  0  0  0  0  0
   -4.9800   -0.7280    0.9960 C   0  0  0  0  0  0  0  0  0  0  0  0
   -5.7660   -0.4490   -0.2430 C   0  0  0  0  0  0  0  0  0  0  0  0
   -4.9730    0.2330   -1.2740 C   0  0  0  0  0  0  0  0  0  0  0  0
   -3.7120    0.5850   -1.1160 C   0  0  0  0  0  0  0  0  0  0  0  0
   -2.7790    1.2630   -2.0240 C   0  0  0  0  0  0  0  0  0  0  0  0
   -3.0030    1.8360   -3.1220 O   0  0  0  0  0  0  0  0  0  0  0  0
   -1.4500    1.1610   -1.4140 C   0  0  0  0  0  0  0  0  0  0  0  0
   -1.6630    0.8000    0.0420 C   0  0  2  0  0  0  0  0  0  0  0  0
   -0.7320   -0.3340    0.3720 C   0  0  0  0  0  0  0  0  0  0  0  0
    0.6550    0.1020    0.1380 N   0  0  0  0  0  0  0  0  0  0  0  0
    1.7500   -0.7550    0.3790 C   0  0  0  0  0  0  0  0  0  0  0  0
    1.4280   -1.9170    0.8180 O   0  0  0  0  0  0  0  0  0  0  0  0
    3.1610   -0.4260    0.1770 C   0  0  0  0  0  0  0  0  0  0  0  0
    4.2100   -1.1340    0.8100 C   0  0  0  0  0  0  0  0  0  0  0  0
    5.3930   -0.5590    0.4440 C   0  0  0  0  0  0  0  0  0  0  0  0
    6.7550   -1.0090    0.9020 C   0  0  0  0  0  0  0  0  0  0  0  0
    5.1110    0.4580   -0.3770 N   0  0  0  0  0  0  0  0  0  0  0  0
    3.7920    0.5380   -0.5370 C   0  0  0  0  0  0  0  0  0  0  0  0
    3.1300    1.5350   -1.4080 C   0  0  0  0  0  0  0  0  0  0  0  0
   -3.0560    0.2860    0.1320 C   0  0  0  0  0  0  0  0  0  0  0  0
   -3.6460   -0.3140    1.1040 N   0  0  0  0  0  0  0  0  0  0  0  0
  1  2  2  0
  2  3  1  0
  2 22  1  0
  3  4  1  0
  4  5  2  0
  5  6  1  0
  5 21  1  0
  6  7  2  0
  6  8  1  0
  8  9  1  0
  9 10  1  6
  9 21  1  0
 10 11  1  0
 11 12  1  0
 12 13  2  0
 12 14  1  0
 14 15  1  0
 14 19  2  0
 15 16  2  0
 16 17  1  0
 16 18  1  0
 18 19  1  0
 19 20  1  0
 21 22  2  0
M  END
