
     RDKit          3D

 22 25  0  0  0  0  0  0  0  0999 V2000
   -6.7430    1.1240   -0.1770 C   0  0  0  0  0  0  0  0  0  0  0  0
   -5.4490    1.1660   -0.1180 C   0  0  0  0  0  0  0  0  0  0  0  0
   -4.4110    0.1270   -0.0360 C   0  0  0  0  0  0  0  0  0  0  0  0
   -4.7280   -1.2170   -0.0070 C   0  0  0  0  0  0  0  0  0  0  0  0
   -3.7550   -2.1900    0.0690 C   0  0  0  0  0  0  0  0  0  0  0  0
   -2.4280   -1.7550    0.1170 C   0  0  0  0  0  0  0  0  0  0  0  0
   -2.1080   -0.4130    0.0890 C   0  0  0  0  0  0  0  0  0  0  0  0
   -0.7290    0.0060    0.1400 N   0  0  0  0  0  0  0  0  0  0  0  0
    0.3100   -0.9730    0.2200 C   0  0  0  0  0  0  0  0  0  0  0  0
    1.6380   -0.2860    0.2600 C   0  0  2  0  0  0  0  0  0  0  0  0
    1.8740    0.5460   -0.9830 C   0  0  0  0  0  0  0  0  0  0  0  0
    3.1380    1.2520   -0.7680 N   0  0  0  0  0  0  0  0  0  0  0  0
    4.2170    0.5150   -0.2070 C   0  0  0  0  0  0  0  0  0  0  0  0
    5.5150    1.0120   -0.1950 C   0  0  0  0  0  0  0  0  0  0  0  0
    6.5700    0.3090    0.3450 C   0  0  0  0  0  0  0  0  0  0  0  0
    6.3630   -0.9350    0.9020 C   0  0  0  0  0  0  0  0  0  0  0  0
    5.0630   -1.4360    0.8920 C   0  0  0  0  0  0  0  0  0  0  0  0
    4.0080   -0.7300    0.3500 C   0  0  0  0  0  0  0  0  0  0  0  0
    2.7050   -1.2330    0.3400 O   0  0  0  0  0  0  0  0  0  0  0  0
   -3.1090    0.4670    0.0140 N   0  0  0  0  0  0  0  0  0  0  0  0
   -5.4500    2.6180   -0.1650 C   0  0  0  0  0  0  0  0  0  0  0  0
   -6.8250    2.4810   -0.2240 O   0  0  0  0  0  0  0  0  0  0  0  0
  1  2  2  0
  1 22  1  0
  2  3  1  0
  2 21  1  0
  3  4  2  0
  3 20  1  0
  4  5  1  0
  5  6  2  0
  6  7  1  0
  7  8  1  0
  7 20  2  0
  8  9  1  0
 10  9  1  6
 10 11  1  0
 10 19  1  0
 11 12  1  0
 12 13  1  0
 13 14  2  0
 13 18  1  0
 14 15  1  0
 15 16  2  0
 16 17  1  0
 17 18  2  0
 18 19  1  0
 21 22  1  0
M  END
