
     RDKit          3D

 26 28  0  0  0  0  0  0  0  0999 V2000
    7.8230    1.2760   -2.2960 N   0  0  0  0  0  0  0  0  0  0  0  0
    6.4310    0.9670   -2.1520 C   0  0  0  0  0  0  0  0  0  0  0  0
    5.7000    1.9360   -1.7710 O   0  0  0  0  0  0  0  0  0  0  0  0
    5.9050   -0.3770   -2.4320 C   0  0  0  0  0  0  0  0  0  0  0  0
    4.4820   -0.4020   -2.2040 N   0  0  0  0  0  0  0  0  0  0  0  0
    3.7240    0.4640   -2.9460 C   0  0  0  0  0  0  0  0  0  0  0  0
    4.0990    1.2860   -3.7860 O   0  0  0  0  0  0  0  0  0  0  0  0
    2.3770    0.4900   -2.8040 N   0  0  0  0  0  0  0  0  0  0  0  0
    1.0970    0.4480   -2.6010 C   0  0  0  0  0  0  0  0  0  0  0  0
    0.6030    1.3890   -3.4350 O   0  0  0  0  0  0  0  0  0  0  0  0
   -0.0060   -0.0370   -2.0030 N   0  0  0  0  0  0  0  0  0  0  0  0
   -0.1600   -0.9990   -1.0500 C   0  0  0  0  0  0  0  0  0  0  0  0
    0.8810   -1.5260   -0.6490 O   0  0  0  0  0  0  0  0  0  0  0  0
   -1.5490   -1.2850   -0.6310 C   0  0  1  0  0  0  0  0  0  0  0  0
   -1.4570   -2.3680    0.2890 N   0  0  0  0  0  0  0  0  0  0  0  0
   -1.7190   -2.2410    1.6690 C   0  0  0  0  0  0  0  0  0  0  0  0
   -1.2660   -3.0730    2.5130 O   0  0  0  0  0  0  0  0  0  0  0  0
   -2.5350   -1.1130    2.0930 C   0  0  0  0  0  0  0  0  0  0  0  0
   -2.9670   -0.2950    1.1560 C   0  0  0  0  0  0  0  0  0  0  0  0
   -4.2050    0.4800    1.4130 C   0  0  0  0  0  0  0  0  0  0  0  0
   -4.3230    0.9440    2.8420 C   0  0  1  0  0  0  0  0  0  0  0  0
   -5.4660    0.1690    3.5030 C   0  0  0  0  0  0  0  0  0  0  0  0
   -4.6210   -1.4160    3.8310 S   0  0  0  0  0  0  0  0  0  0  0  0
   -2.8900   -0.8780    3.4960 C   0  0  2  0  0  0  0  0  0  0  0  0
   -3.0870    0.6380    3.6570 C   0  0  0  0  0  0  0  0  0  0  0  0
   -2.2530   -0.1540   -0.0930 N   0  0  0  0  0  0  0  0  0  0  0  0
  1  2  1  0
  2  3  2  0
  2  4  1  0
  4  5  1  0
  5  6  1  0
  6  7  2  0
  6  8  1  0
  8  9  1  0
  9 10  2  0
  9 11  1  0
 11 12  1  0
 12 13  2  0
 14 12  1  1
 14 15  1  0
 14 26  1  0
 15 16  1  0
 16 17  2  0
 16 18  1  0
 18 19  2  0
 18 24  1  0
 19 20  1  0
 19 26  1  0
 21 20  1  6
 21 22  1  0
 21 25  1  0
 22 23  1  0
 24 23  1  6
 24 25  1  0
M  END
