
     RDKit          3D

 25 26  0  0  0  0  0  0  0  0999 V2000
    7.3270   -2.7690    0.7110 C   0  0  0  0  0  0  0  0  0  0  0  0
    6.1810   -1.9680    1.0010 N   0  0  0  0  0  0  0  0  0  0  0  0
    5.5450   -1.2320   -0.2100 C   0  0  0  0  0  0  0  0  0  0  0  0
    6.0570   -1.3820   -1.2430 O   0  0  0  0  0  0  0  0  0  0  0  0
    4.4130   -0.5460    0.3160 N   0  0  0  0  0  0  0  0  0  0  0  0
    3.5080   -0.4580   -1.1930 C   0  0  0  0  0  0  0  0  0  0  0  0
    4.0370   -0.8580   -2.1230 O   0  0  0  0  0  0  0  0  0  0  0  0
    2.2310    0.1160   -1.0420 C   0  0  0  0  0  0  0  0  0  0  0  0
    1.5690    0.4560    0.0820 C   0  0  0  0  0  0  0  0  0  0  0  0
    0.2230    1.0750   -0.0660 C   0  0  0  0  0  0  0  0  0  0  0  0
    0.0690    2.2270   -0.7040 N   0  0  0  0  0  0  0  0  0  0  0  0
   -1.2770    2.5190   -0.7410 C   0  0  0  0  0  0  0  0  0  0  0  0
   -1.7590    3.7960   -1.3250 C   0  0  2  0  0  0  0  0  0  0  0  0
   -1.4240    4.9790   -0.4250 C   0  0  0  0  0  0  0  0  0  0  0  0
   -3.1850    3.7290   -1.7070 N   0  0  0  0  0  0  0  0  0  0  0  0
   -1.8790    1.5060   -0.1050 N   0  0  0  0  0  0  0  0  0  0  0  0
   -1.0420    0.5800    0.3470 C   0  0  0  0  0  0  0  0  0  0  0  0
   -1.1750   -0.6190    1.1860 C   0  0  2  0  0  0  0  0  0  0  0  0
   -1.3700   -1.9920    0.6600 C   0  0  0  0  0  0  0  0  0  0  0  0
   -2.5400   -1.2260    1.2150 C   0  0  2  0  0  0  0  0  0  0  0  0
   -3.6440   -1.1190    0.1580 C   0  0  0  0  0  0  0  0  0  0  0  0
   -5.1330   -1.9870    0.6870 S   0  0  1  0  0  0  0  0  0  0  0  0
   -4.7200   -3.6470    0.9420 N   0  0  0  0  0  0  0  0  0  0  0  0
   -5.5940   -1.3540    1.9500 O   0  0  0  0  0  0  0  0  0  0  0  0
   -6.1270   -1.8570   -0.4350 O   0  0  0  0  0  0  0  0  0  0  0  0
  1  2  1  0
  2  3  1  0
  3  4  2  0
  3  5  1  0
  5  6  1  0
  6  7  2  0
  6  8  1  0
  8  9  2  3
  9 10  1  0
 10 11  1  0
 10 17  2  0
 11 12  2  0
 12 13  1  0
 12 16  1  0
 13 14  1  1
 13 15  1  0
 16 17  1  0
 18 17  1  6
 18 19  1  0
 18 20  1  0
 19 20  1  0
 20 21  1  6
 21 22  1  0
 22 23  1  1
 22 24  2  0
 22 25  2  0
M  END
