
     RDKit          3D

 26 27  0  0  0  0  0  0  0  0999 V2000
    7.2790    1.2480    1.1450 C   0  0  0  0  0  0  0  0  0  0  0  0
    5.9640    0.4730    1.0890 C   0  0  2  0  0  0  0  0  0  0  0  0
    6.1820   -0.9430    1.3180 N   0  0  0  0  0  0  0  0  0  0  0  0
    5.2940   -1.6480    0.4710 C   0  0  0  0  0  0  0  0  0  0  0  0
    5.0740   -2.8750    0.4620 O   0  0  0  0  0  0  0  0  0  0  0  0
    4.6660   -0.6410   -0.4110 C   0  0  1  0  0  0  0  0  0  0  0  0
    3.3340   -0.2900    0.0170 N   0  0  0  0  0  0  0  0  0  0  0  0
    2.2540   -0.4030   -0.8930 C   0  0  0  0  0  0  0  0  0  0  0  0
    2.5080   -0.8110   -2.0550 O   0  0  0  0  0  0  0  0  0  0  0  0
    0.9330   -0.0640   -0.4990 N   0  0  0  0  0  0  0  0  0  0  0  0
   -0.1840   -0.1830   -1.4490 C   0  0  0  0  0  0  0  0  0  0  0  0
   -1.4430    0.2420   -0.7510 C   0  0  0  0  0  0  0  0  0  0  0  0
   -1.2810    1.6060   -0.2550 N   0  0  0  0  0  0  0  0  0  0  0  0
   -2.5030   -0.4820   -0.5280 C   0  0  0  0  0  0  0  0  0  0  0  0
   -2.5680   -1.8670   -0.9520 C   0  0  0  0  0  0  0  0  0  0  0  0
   -1.5980   -2.6340   -1.6050 N   0  0  0  0  0  0  0  0  0  0  0  0
   -3.6410   -2.5680   -0.7320 O   0  0  0  0  0  0  0  0  0  0  0  0
   -3.6540    0.1340    0.2160 C   0  0  2  0  0  0  0  0  0  0  0  0
   -3.5540   -0.1860    1.6750 C   0  0  0  0  0  0  0  0  0  0  0  0
   -4.9510   -0.5480   -0.2390 C   0  0  0  0  0  0  0  0  0  0  0  0
   -6.1010    0.2820    0.2130 C   0  0  0  0  0  0  0  0  0  0  0  0
   -5.5130    1.9200    0.1640 S   0  0  2  0  0  0  0  0  0  0  0  0
   -5.7130    2.5510    1.5010 O   0  0  0  0  0  0  0  0  0  0  0  0
   -6.0630    2.7420   -0.9480 O   0  0  0  0  0  0  0  0  0  0  0  0
   -3.7520    1.5750   -0.1230 C   0  0  0  0  0  0  0  0  0  0  0  0
    5.4740    0.5620   -0.2520 N   0  0  0  0  0  0  0  0  0  0  0  0
  2  1  1  6
  2  3  1  0
  2 26  1  0
  3  4  1  0
  4  5  2  0
  4  6  1  0
  6  7  1  1
  6 26  1  0
  7  8  1  0
  8  9  2  0
  8 10  1  0
 10 11  1  0
 11 12  1  0
 12 13  1  0
 12 14  2  3
 14 15  1  0
 14 18  1  0
 15 16  1  0
 15 17  2  0
 18 19  1  1
 18 20  1  0
 18 25  1  0
 20 21  1  0
 22 21  1  1
 22 23  2  0
 22 24  2  0
 22 25  1  0
M  END
