
     RDKit          3D

 25 26  0  0  0  0  0  0  0  0999 V2000
    7.8180   -1.7800   -0.1160 C   0  0  0  0  0  0  0  0  0  0  0  0
    6.6140   -1.0560   -0.2350 N   0  0  0  0  0  0  0  0  0  0  0  0
    5.3070   -1.8550   -0.4300 C   0  0  0  0  0  0  0  0  0  0  0  0
    5.4390   -2.9850   -0.4620 O   0  0  0  0  0  0  0  0  0  0  0  0
    4.3210   -0.8270   -0.5010 N   0  0  0  0  0  0  0  0  0  0  0  0
    3.0080   -1.8560   -0.1580 C   0  0  0  0  0  0  0  0  0  0  0  0
    3.2890   -3.0040   -0.1020 O   0  0  0  0  0  0  0  0  0  0  0  0
    1.7190   -1.3190    0.0480 C   0  0  0  0  0  0  0  0  0  0  0  0
    1.3300   -0.1440   -0.0690 C   0  0  0  0  0  0  0  0  0  0  0  0
    0.2860    0.8300   -0.0020 C   0  0  0  0  0  0  0  0  0  0  0  0
    0.3330    2.1240   -0.3000 N   0  0  0  0  0  0  0  0  0  0  0  0
   -0.8910    2.6340   -0.1670 C   0  0  0  0  0  0  0  0  0  0  0  0
   -1.1840    4.0900   -0.3610 C   0  0  2  0  0  0  0  0  0  0  0  0
   -1.1190    4.7140    1.0210 C   0  0  0  0  0  0  0  0  0  0  0  0
   -2.4440    4.2120   -1.0230 N   0  0  0  0  0  0  0  0  0  0  0  0
   -1.7180    1.6810    0.2090 N   0  0  0  0  0  0  0  0  0  0  0  0
   -1.0350    0.5050    0.3340 C   0  0  0  0  0  0  0  0  0  0  0  0
   -1.4530   -0.7310    0.9710 C   0  0  2  0  0  0  0  0  0  0  0  0
   -1.7900   -2.0700    0.5400 C   0  0  0  0  0  0  0  0  0  0  0  0
   -2.9220   -1.1230    0.7680 C   0  0  2  0  0  0  0  0  0  0  0  0
   -3.6870   -0.8390   -0.4920 C   0  0  0  0  0  0  0  0  0  0  0  0
   -5.3630   -1.5410   -0.2630 S   0  0  2  0  0  0  0  0  0  0  0  0
   -5.2080   -3.2830    0.0010 N   0  0  0  0  0  0  0  0  0  0  0  0
   -6.1810   -1.2990   -1.4760 O   0  0  0  0  0  0  0  0  0  0  0  0
   -6.0250   -0.9840    0.9220 O   0  0  0  0  0  0  0  0  0  0  0  0
  1  2  1  0
  2  3  1  0
  3  4  2  0
  3  5  1  0
  5  6  1  0
  6  7  2  0
  6  8  1  0
  8  9  2  3
  9 10  1  0
 10 11  1  0
 10 17  2  0
 11 12  2  0
 12 13  1  0
 12 16  1  0
 13 14  1  1
 13 15  1  0
 16 17  1  0
 18 17  1  6
 18 19  1  0
 18 20  1  0
 19 20  1  0
 20 21  1  6
 21 22  1  0
 22 23  1  1
 22 24  2  0
 22 25  2  0
M  END
