
     RDKit          3D

 22 24  0  0  0  0  0  0  0  0999 V2000
   -2.7920    2.4650    0.0380 C   0  0  0  0  0  0  0  0  0  0  0  0
   -1.6680    2.6090    0.9930 C   0  0  0  0  0  0  0  0  0  0  0  0
   -0.4330    1.8310    0.6360 C   0  0  0  0  0  0  0  0  0  0  0  0
   -0.2780    0.4840    0.8750 C   0  0  0  0  0  0  0  0  0  0  0  0
   -1.3360   -0.3070    1.4770 C   0  0  0  0  0  0  0  0  0  0  0  0
   -2.3830   -0.8170    0.5550 C   0  0  0  0  0  0  0  0  0  0  0  0
   -2.5040   -0.7550   -0.7490 C   0  0  0  0  0  0  0  0  0  0  0  0
   -3.7460   -1.4250   -1.1900 C   0  0  0  0  0  0  0  0  0  0  0  0
   -4.3270   -1.8820    0.0380 N   0  0  0  0  0  0  0  0  0  0  0  0
   -3.5680   -1.5420    0.9990 C   0  0  0  0  0  0  0  0  0  0  0  0
    0.9150   -0.1090    0.5150 C   0  0  0  0  0  0  0  0  0  0  0  0
    1.4250   -1.4130    0.5960 C   0  0  0  0  0  0  0  0  0  0  0  0
    0.6770   -2.5580    1.1610 C   0  0  0  0  0  0  0  0  0  0  0  0
    2.6740   -1.4380    0.0840 N   0  0  0  0  0  0  0  0  0  0  0  0
    3.0450   -0.2230   -0.3420 C   0  0  0  0  0  0  0  0  0  0  0  0
    4.3080    0.1570   -0.9470 C   0  0  0  0  0  0  0  0  0  0  0  0
    5.3630   -0.8560   -1.1550 C   0  0  0  0  0  0  0  0  0  0  0  0
    4.5070    1.3370   -1.2940 O   0  0  0  0  0  0  0  0  0  0  0  0
    1.9580    0.6080   -0.0780 C   0  0  0  0  0  0  0  0  0  0  0  0
    1.7910    1.9190   -0.3040 N   0  0  0  0  0  0  0  0  0  0  0  0
    0.6380    2.4940    0.0430 C   0  0  0  0  0  0  0  0  0  0  0  0
    0.5020    3.7250   -0.1780 O   0  0  0  0  0  0  0  0  0  0  0  0
  1  2  1  0
  2  3  1  0
  3  4  2  0
  3 21  1  0
  4  5  1  0
  4 11  1  0
  5  6  1  0
  6  7  2  0
  6 10  1  0
  7  8  1  0
  8  9  1  0
  9 10  2  0
 11 12  2  0
 11 19  1  0
 12 13  1  0
 12 14  1  0
 14 15  1  0
 15 16  1  0
 15 19  2  0
 16 17  1  0
 16 18  2  0
 19 20  1  0
 20 21  1  0
 21 22  2  0
M  END
