
     RDKit          3D

 26 27  0  0  0  0  0  0  0  0999 V2000
    6.5270    1.7520   -1.1200 N   0  0  0  0  0  0  0  0  0  0  0  0
    4.8070    1.5190   -1.4740 S   0  0  0  0  0  0  0  0  0  0  0  0
    4.7290    0.3330   -2.4200 O   0  0  0  0  0  0  0  0  0  0  0  0
    3.9970    1.2030    0.0750 C   0  0  0  0  0  0  0  0  0  0  0  0
    2.5240    0.9790   -0.0090 C   0  0  2  0  0  0  0  0  0  0  0  0
    2.0240    0.7390    1.4070 C   0  0  0  0  0  0  0  0  0  0  0  0
    2.5230   -0.6650    1.6630 C   0  0  0  0  0  0  0  0  0  0  0  0
    2.4180   -1.3570    0.3200 C   0  0  0  0  0  0  0  0  0  0  0  0
    2.1220   -0.2990   -0.7000 C   0  0  1  0  0  0  0  0  0  0  0  0
    0.7030   -0.2220   -1.0080 N   0  0  0  0  0  0  0  0  0  0  0  0
    0.0200   -1.2550   -1.6920 C   0  0  0  0  0  0  0  0  0  0  0  0
    0.6970   -2.3920   -2.1100 C   0  0  0  0  0  0  0  0  0  0  0  0
    0.0570   -3.4150   -2.7820 C   0  0  0  0  0  0  0  0  0  0  0  0
   -1.2570   -3.2640   -3.0170 N   0  0  0  0  0  0  0  0  0  0  0  0
   -1.9340   -2.1730   -2.6210 C   0  0  0  0  0  0  0  0  0  0  0  0
   -3.1780   -2.0250   -2.8410 O   0  0  0  0  0  0  0  0  0  0  0  0
   -1.3270   -1.1110   -1.9370 C   0  0  0  0  0  0  0  0  0  0  0  0
   -2.0690    0.0240   -1.5350 N   0  0  0  0  0  0  0  0  0  0  0  0
   -2.6940    0.0370   -0.2690 C   0  0  0  0  0  0  0  0  0  0  0  0
   -2.5960   -0.9620    0.5090 O   0  0  0  0  0  0  0  0  0  0  0  0
   -3.4580    1.1510    0.1980 N   0  0  0  0  0  0  0  0  0  0  0  0
   -4.0480    1.0910    1.4620 N   0  0  0  0  0  0  0  0  0  0  0  0
   -5.2940    1.7460    1.7440 C   0  0  0  0  0  0  0  0  0  0  0  0
   -5.8510    2.3840    0.8170 O   0  0  0  0  0  0  0  0  0  0  0  0
   -5.9380    1.6970    3.0740 C   0  0  0  0  0  0  0  0  0  0  0  0
   -7.1180    2.4270    3.0440 O   0  0  0  0  0  0  0  0  0  0  0  0
  2  1  1  1
  2  3  2  0
  2  4  1  0
  5  4  1  1
  5  6  1  0
  5  9  1  0
  6  7  1  0
  7  8  1  0
  8  9  1  0
  9 10  1  1
 10 11  1  0
 11 12  1  0
 11 17  2  0
 12 13  2  0
 13 14  1  0
 14 15  1  0
 15 16  2  0
 15 17  1  0
 17 18  1  0
 18 19  1  0
 19 20  2  0
 19 21  1  0
 21 22  1  0
 22 23  1  0
 23 24  2  0
 23 25  1  0
 25 26  1  0
M  END
