
     RDKit          3D

 22 24  0  0  0  0  0  0  0  0999 V2000
    6.2830    1.0730   -0.4560 C   0  0  0  0  0  0  0  0  0  0  0  0
    5.4200   -0.1280   -0.5890 C   0  0  0  0  0  0  0  0  0  0  0  0
    4.1260   -0.0430   -0.3590 C   0  0  0  0  0  0  0  0  0  0  0  0
    3.2800   -1.2290   -0.4900 C   0  0  0  0  0  0  0  0  0  0  0  0
    1.9950   -1.1370   -0.2610 C   0  0  0  0  0  0  0  0  0  0  0  0
    1.1580   -2.2660   -0.3810 N   0  0  0  0  0  0  0  0  0  0  0  0
    1.6500   -3.5100   -0.6340 C   0  0  0  0  0  0  0  0  0  0  0  0
    0.5720   -4.3540   -0.6420 C   0  0  0  0  0  0  0  0  0  0  0  0
   -0.5380   -3.6620   -0.4050 N   0  0  0  0  0  0  0  0  0  0  0  0
   -0.1740   -2.3420   -0.2410 C   0  0  0  0  0  0  0  0  0  0  0  0
   -1.1670   -1.3350    0.0590 C   0  0  0  0  0  0  0  0  0  0  0  0
   -1.0350   -0.0170   -0.2520 C   0  0  0  0  0  0  0  0  0  0  0  0
   -2.0400    0.8790    0.1520 C   0  0  0  0  0  0  0  0  0  0  0  0
   -3.1230    0.4330    0.8390 C   0  0  0  0  0  0  0  0  0  0  0  0
   -3.2400   -0.8840    1.1400 N   0  0  0  0  0  0  0  0  0  0  0  0
   -2.3040   -1.7470    0.7690 C   0  0  0  0  0  0  0  0  0  0  0  0
   -2.4460   -2.9840    1.0690 O   0  0  0  0  0  0  0  0  0  0  0  0
   -4.2080    1.3700    1.2840 C   0  0  0  0  0  0  0  0  0  0  0  0
   -4.1220    2.6120    0.4380 C   0  0  0  0  0  0  0  0  0  0  0  0
   -2.7010    3.1510    0.6640 C   0  0  0  0  0  0  0  0  0  0  0  0
   -1.8160    2.3230   -0.2340 C   0  0  2  0  0  0  0  0  0  0  0  0
   -2.2220    2.5410   -1.5500 O   0  0  0  0  0  0  0  0  0  0  0  0
  1  2  1  0
  2  3  2  3
  3  4  1  0
  4  5  2  3
  5  6  1  0
  6  7  1  0
  6 10  1  0
  7  8  2  0
  8  9  1  0
  9 10  2  0
 10 11  1  0
 11 12  2  0
 11 16  1  0
 12 13  1  0
 13 14  2  0
 13 21  1  0
 14 15  1  0
 14 18  1  0
 15 16  1  0
 16 17  2  0
 18 19  1  0
 19 20  1  0
 20 21  1  0
 21 22  1  6
M  END
