
     RDKit          3D

 22 24  0  0  0  0  0  0  0  0999 V2000
    2.3450   -1.8100   -2.2750 C   0  0  0  0  0  0  0  0  0  0  0  0
    2.8120   -0.8300   -1.5120 C   0  0  0  0  0  0  0  0  0  0  0  0
    4.2450   -0.4870   -1.6090 C   0  0  0  0  0  0  0  0  0  0  0  0
    4.6440    0.5840   -0.6820 C   0  0  0  0  0  0  0  0  0  0  0  0
    3.7840    1.1780    0.1210 C   0  0  0  0  0  0  0  0  0  0  0  0
    3.9490    2.2640    1.1240 C   0  0  0  0  0  0  0  0  0  0  0  0
    4.8420    3.1380    1.0720 O   0  0  0  0  0  0  0  0  0  0  0  0
    2.8530    2.0190    2.0950 C   0  0  0  0  0  0  0  0  0  0  0  0
    1.7160    1.6890    1.1600 C   0  0  2  0  0  0  0  0  0  0  0  0
    0.6050    0.9560    1.8600 C   0  0  0  0  0  0  0  0  0  0  0  0
   -0.4430    0.6770    0.8990 N   0  0  0  0  0  0  0  0  0  0  0  0
   -1.6420   -0.0150    1.2650 C   0  0  0  0  0  0  0  0  0  0  0  0
   -1.7280   -0.3640    2.4730 O   0  0  0  0  0  0  0  0  0  0  0  0
   -2.7010   -0.3010    0.3100 C   0  0  0  0  0  0  0  0  0  0  0  0
   -3.1690    0.4430   -0.7260 C   0  0  0  0  0  0  0  0  0  0  0  0
   -4.2050   -0.2400   -1.3770 C   0  0  0  0  0  0  0  0  0  0  0  0
   -4.9750    0.2360   -2.5530 C   0  0  0  0  0  0  0  0  0  0  0  0
   -4.3420   -1.3960   -0.7110 N   0  0  0  0  0  0  0  0  0  0  0  0
   -3.4460   -1.4600    0.3140 C   0  0  0  0  0  0  0  0  0  0  0  0
   -3.3750   -2.6340    1.2200 C   0  0  0  0  0  0  0  0  0  0  0  0
    2.3870    0.8000    0.1430 C   0  0  0  0  0  0  0  0  0  0  0  0
    1.9430   -0.1270   -0.6190 N   0  0  0  0  0  0  0  0  0  0  0  0
  1  2  2  0
  2  3  1  0
  2 22  1  0
  3  4  1  0
  4  5  2  0
  5  6  1  0
  5 21  1  0
  6  7  2  0
  6  8  1  0
  8  9  1  0
  9 10  1  1
  9 21  1  0
 10 11  1  0
 11 12  1  0
 12 13  2  0
 12 14  1  0
 14 15  1  0
 14 19  2  0
 15 16  2  0
 16 17  1  0
 16 18  1  0
 18 19  1  0
 19 20  1  0
 21 22  2  0
M  END
