
     RDKit          3D

 12 13  0  0  0  0  0  0  0  0999 V2000
    3.2800    1.8960   -0.1440 O   0  0  0  0  0  0  0  0  0  0  0  0
    2.1680    1.3620    0.0420 C   0  0  0  0  0  0  0  0  0  0  0  0
    0.9340    1.9360    0.4470 N   0  0  0  0  0  0  0  0  0  0  0  0
   -0.0600    0.9260    0.5220 C   0  0  0  0  0  0  0  0  0  0  0  0
    0.4930   -0.2330    0.1870 C   0  0  0  0  0  0  0  0  0  0  0  0
   -0.4230   -1.4200    0.2130 C   0  0  0  0  0  0  0  0  0  0  0  0
   -1.6050   -1.0560   -0.6860 C   0  0  0  0  0  0  0  0  0  0  0  0
   -2.2240    0.2480   -0.3250 C   0  0  0  0  0  0  0  0  0  0  0  0
   -1.5060    0.8790    0.8740 C   0  0  0  0  0  0  0  0  0  0  0  0
    1.9030   -0.0570   -0.1350 C   0  0  0  0  0  0  0  0  0  0  0  0
    2.7160   -1.0220   -0.5010 C   0  0  0  0  0  0  0  0  0  0  0  0
    4.3860   -0.6530   -0.8550 Cl  0  0  0  0  0  0  0  0  0  0  0  0
  1  2  2  0
  2  3  1  0
  2 10  1  0
  3  4  1  0
  4  5  2  0
  4  9  1  0
  5  6  1  0
  5 10  1  0
  6  7  1  0
  7  8  1  0
  8  9  1  0
 10 11  2  3
 11 12  1  0
M  END
