
     RDKit          3D

 14 15  0  0  0  0  0  0  0  0999 V2000
   -2.0720   -1.4430    1.4780 N   0  0  0  0  0  0  0  0  0  0  0  0
   -2.1970   -0.2750    0.6520 C   0  0  0  0  0  0  0  0  0  0  0  0
   -3.1280    0.6610    0.8680 N   0  0  0  0  0  0  0  0  0  0  0  0
   -2.9400    1.5990   -0.1000 C   0  0  0  0  0  0  0  0  0  0  0  0
   -1.8860    1.2280   -0.9090 C   0  0  0  0  0  0  0  0  0  0  0  0
   -1.4410    0.0580   -0.4200 N   0  0  0  0  0  0  0  0  0  0  0  0
   -0.3580   -0.7300   -0.9190 C   0  0  0  0  0  0  0  0  0  0  0  0
    0.9520   -0.3920   -0.3150 C   0  0  0  0  0  0  0  0  0  0  0  0
    1.8060    0.5590   -0.8390 C   0  0  0  0  0  0  0  0  0  0  0  0
    3.0220    0.8390   -0.2360 C   0  0  0  0  0  0  0  0  0  0  0  0
    3.4010    0.1670    0.9050 C   0  0  0  0  0  0  0  0  0  0  0  0
    4.9290    0.4750    1.7180 Cl  0  0  0  0  0  0  0  0  0  0  0  0
    2.5760   -0.7470    1.4050 N   0  0  0  0  0  0  0  0  0  0  0  0
    1.3760   -1.0380    0.8290 C   0  0  0  0  0  0  0  0  0  0  0  0
  1  2  1  0
  2  3  2  0
  2  6  1  0
  3  4  1  0
  4  5  2  0
  5  6  1  0
  6  7  1  0
  7  8  1  0
  8  9  2  0
  8 14  1  0
  9 10  1  0
 10 11  2  0
 11 12  1  0
 11 13  1  0
 13 14  2  0
M  END
