
     RDKit          3D

 14 15  0  0  0  0  0  0  0  0999 V2000
   -2.9130   -0.8700    1.3300 C   0  0  0  0  0  0  0  0  0  0  0  0
   -2.5530   -1.2790    0.1500 C   0  0  0  0  0  0  0  0  0  0  0  0
   -1.3710   -1.0850   -0.5960 C   0  0  0  0  0  0  0  0  0  0  0  0
   -1.3430   -1.7330   -1.8010 C   0  0  0  0  0  0  0  0  0  0  0  0
   -2.6720   -2.7140   -2.3510 Cl  0  0  0  0  0  0  0  0  0  0  0  0
   -0.1830   -0.3890   -0.3060 N   0  0  0  0  0  0  0  0  0  0  0  0
    1.0200   -0.6730   -0.8530 N   0  0  0  0  0  0  0  0  0  0  0  0
    1.9500    0.1900   -0.4800 C   0  0  0  0  0  0  0  0  0  0  0  0
    3.3880    0.2450   -0.8410 C   0  0  0  0  0  0  0  0  0  0  0  0
    1.3330    1.0910    0.3530 C   0  0  0  0  0  0  0  0  0  0  0  0
    1.4960    2.2220    1.1070 C   0  0  0  0  0  0  0  0  0  0  0  0
    0.3170    2.4980    1.6170 N   0  0  0  0  0  0  0  0  0  0  0  0
   -0.5990    1.6280    1.2490 N   0  0  0  0  0  0  0  0  0  0  0  0
   -0.0100    0.7110    0.4490 C   0  0  0  0  0  0  0  0  0  0  0  0
  1  2  2  0
  2  3  1  0
  3  4  2  3
  3  6  1  0
  4  5  1  0
  6  7  1  0
  6 14  1  0
  7  8  2  0
  8  9  1  0
  8 10  1  0
 10 11  1  0
 10 14  2  0
 11 12  2  0
 12 13  1  0
 13 14  1  0
M  END
