
     RDKit          3D

 14 15  0  0  0  0  0  0  0  0999 V2000
    3.5060    1.6670   -0.0470 C   0  0  0  0  0  0  0  0  0  0  0  0
    2.7320    0.3720    0.0160 C   0  0  0  0  0  0  0  0  0  0  0  0
    3.3310   -0.8470    0.1770 C   0  0  0  0  0  0  0  0  0  0  0  0
    2.5150   -1.9440    0.2330 N   0  0  0  0  0  0  0  0  0  0  0  0
    1.2040   -1.8470    0.1370 N   0  0  0  0  0  0  0  0  0  0  0  0
    0.5930   -0.6750   -0.0200 C   0  0  0  0  0  0  0  0  0  0  0  0
   -0.8440   -0.4920   -0.1130 C   0  0  0  0  0  0  0  0  0  0  0  0
   -1.3250    0.2650   -1.0820 C   0  0  0  0  0  0  0  0  0  0  0  0
   -0.2800    1.0530   -2.2460 Cl  0  0  0  0  0  0  0  0  0  0  0  0
   -2.7390    0.4460   -1.2500 N   0  0  0  0  0  0  0  0  0  0  0  0
   -3.6680    0.0150   -0.2590 C   0  0  0  0  0  0  0  0  0  0  0  0
   -3.1000   -0.8340    0.7960 C   0  0  0  0  0  0  0  0  0  0  0  0
   -1.7940   -1.0460    0.8360 C   0  0  0  0  0  0  0  0  0  0  0  0
    1.4100    0.4250   -0.0760 N   0  0  0  0  0  0  0  0  0  0  0  0
  1  2  1  0
  2  3  2  0
  2 14  1  0
  3  4  1  0
  4  5  2  0
  5  6  1  0
  6  7  1  0
  6 14  2  0
  7  8  2  0
  7 13  1  0
  8  9  1  0
  8 10  1  0
 10 11  1  0
 11 12  1  0
 12 13  2  0
M  END
