
     RDKit          3D

 14 15  0  0  0  0  0  0  0  0999 V2000
   -2.3330    1.8290   -1.0020 C   0  0  0  0  0  0  0  0  0  0  0  0
   -0.8990    1.8170   -0.6620 C   0  0  0  0  0  0  0  0  0  0  0  0
   -0.0730    2.9060   -0.6090 C   0  0  0  0  0  0  0  0  0  0  0  0
    1.1730    2.4980   -0.2620 N   0  0  0  0  0  0  0  0  0  0  0  0
    1.1580    1.1910   -0.0940 N   0  0  0  0  0  0  0  0  0  0  0  0
    1.9270    0.1420    0.2250 C   0  0  0  0  0  0  0  0  0  0  0  0
    3.3850    0.2530    0.5540 C   0  0  0  0  0  0  0  0  0  0  0  0
    1.1410   -0.9920    0.1880 C   0  0  0  0  0  0  0  0  0  0  0  0
    1.6150   -2.2950    0.4710 N   0  0  0  0  0  0  0  0  0  0  0  0
   -0.1130   -0.5990   -0.1600 N   0  0  0  0  0  0  0  0  0  0  0  0
   -1.2490   -1.4640   -0.3140 C   0  0  0  0  0  0  0  0  0  0  0  0
   -2.0250   -1.6330    0.9760 C   0  0  0  0  0  0  0  0  0  0  0  0
   -3.4140   -2.7110    0.7150 Cl  0  0  0  0  0  0  0  0  0  0  0  0
   -0.1080    0.7360   -0.3340 C   0  0  0  0  0  0  0  0  0  0  0  0
  1  2  1  0
  2  3  1  0
  2 14  2  0
  3  4  2  0
  4  5  1  0
  5  6  1  0
  5 14  1  0
  6  7  1  0
  6  8  2  0
  8  9  1  0
  8 10  1  0
 10 11  1  0
 10 14  1  0
 11 12  1  0
 12 13  1  0
M  END
