
     RDKit          3D

 14 15  0  0  0  0  0  0  0  0999 V2000
    0.4580   -2.4560    0.0180 N   0  0  0  0  0  0  0  0  0  0  0  0
   -0.4100   -1.3430   -0.0280 C   0  0  0  0  0  0  0  0  0  0  0  0
   -1.7740   -1.5480   -0.2100 C   0  0  0  0  0  0  0  0  0  0  0  0
   -2.5820   -0.4380   -0.2480 C   0  0  0  0  0  0  0  0  0  0  0  0
   -2.0530    0.8280   -0.1100 C   0  0  0  0  0  0  0  0  0  0  0  0
   -2.9640    2.0080   -0.1570 C   0  0  0  0  0  0  0  0  0  0  0  0
   -3.5260    2.3710    1.4920 Cl  0  0  0  0  0  0  0  0  0  0  0  0
   -0.7260    0.9580    0.0640 N   0  0  0  0  0  0  0  0  0  0  0  0
    0.1040   -0.0750    0.1090 C   0  0  0  0  0  0  0  0  0  0  0  0
    1.5210    0.1050    0.2960 N   0  0  0  0  0  0  0  0  0  0  0  0
    2.2410    1.2120    0.0720 C   0  0  0  0  0  0  0  0  0  0  0  0
    3.5480    0.9230    0.3880 C   0  0  0  0  0  0  0  0  0  0  0  0
    3.6030   -0.3960    0.8110 C   0  0  0  0  0  0  0  0  0  0  0  0
    2.3400   -0.8480    0.7360 N   0  0  0  0  0  0  0  0  0  0  0  0
  1  2  1  0
  2  3  2  0
  2  9  1  0
  3  4  1  0
  4  5  2  0
  5  6  1  0
  5  8  1  0
  6  7  1  0
  8  9  2  0
  9 10  1  0
 10 11  1  0
 10 14  1  0
 11 12  2  0
 12 13  1  0
 13 14  2  0
M  END
