
     RDKit          3D

 14 15  0  0  0  0  0  0  0  0999 V2000
   -3.2900   -1.8370   -1.3230 N   0  0  0  0  0  0  0  0  0  0  0  0
   -2.7940   -0.6640   -0.6770 C   0  0  0  0  0  0  0  0  0  0  0  0
   -1.5600   -0.1980   -0.9250 N   0  0  0  0  0  0  0  0  0  0  0  0
   -1.0490    0.9030   -0.3400 C   0  0  0  0  0  0  0  0  0  0  0  0
    0.3220    1.3530   -0.6670 C   0  0  0  0  0  0  0  0  0  0  0  0
    1.2950    0.7480    0.2270 N   0  0  0  0  0  0  0  0  0  0  0  0
    1.2090   -0.7070    0.0740 C   0  0  0  0  0  0  0  0  0  0  0  0
    2.5560   -1.1170    0.6400 C   0  0  0  0  0  0  0  0  0  0  0  0
    3.4690   -0.1500   -0.1090 C   0  0  0  0  0  0  0  0  0  0  0  0
    2.6370    1.1090   -0.0960 C   0  0  0  0  0  0  0  0  0  0  0  0
   -1.8410    1.5600    0.5420 N   0  0  0  0  0  0  0  0  0  0  0  0
   -3.0840    1.1260    0.8180 C   0  0  0  0  0  0  0  0  0  0  0  0
   -3.5980   -0.0020    0.2150 C   0  0  0  0  0  0  0  0  0  0  0  0
   -5.2280   -0.5760    0.5730 Cl  0  0  0  0  0  0  0  0  0  0  0  0
  1  2  1  0
  2  3  2  0
  2 13  1  0
  3  4  1  0
  4  5  1  0
  4 11  2  0
  5  6  1  0
  6  7  1  0
  6 10  1  0
  7  8  1  0
  8  9  1  0
  9 10  1  0
 11 12  1  0
 12 13  2  0
 13 14  1  0
M  END
