
     RDKit          3D

 14 15  0  0  0  0  0  0  0  0999 V2000
   -2.4960    1.8480   -0.3040 C   0  0  0  0  0  0  0  0  0  0  0  0
   -1.0290    1.8700   -0.0520 C   0  0  0  0  0  0  0  0  0  0  0  0
   -0.2520    2.9630    0.2700 C   0  0  0  0  0  0  0  0  0  0  0  0
    1.0140    2.5700    0.4150 N   0  0  0  0  0  0  0  0  0  0  0  0
    1.0580    1.2690    0.1960 N   0  0  0  0  0  0  0  0  0  0  0  0
    1.9510    0.2660    0.1720 C   0  0  0  0  0  0  0  0  0  0  0  0
    3.4170    0.3140    0.4280 C   0  0  0  0  0  0  0  0  0  0  0  0
    1.2260   -0.8660   -0.1480 C   0  0  0  0  0  0  0  0  0  0  0  0
    1.7300   -2.2010   -0.2960 N   0  0  0  0  0  0  0  0  0  0  0  0
   -0.0770   -0.5410   -0.3120 N   0  0  0  0  0  0  0  0  0  0  0  0
   -1.1530   -1.4320   -0.6490 C   0  0  0  0  0  0  0  0  0  0  0  0
   -1.8260   -2.0350    0.5530 C   0  0  0  0  0  0  0  0  0  0  0  0
   -3.1270   -3.1050   -0.0550 Cl  0  0  0  0  0  0  0  0  0  0  0  0
   -0.1670    0.7950   -0.0940 C   0  0  0  0  0  0  0  0  0  0  0  0
  1  2  1  0
  2  3  1  0
  2 14  2  0
  3  4  2  0
  4  5  1  0
  5  6  1  0
  5 14  1  0
  6  7  1  0
  6  8  2  0
  8  9  1  0
  8 10  1  0
 10 11  1  0
 10 14  1  0
 11 12  1  0
 12 13  1  0
M  END
