
     RDKit          3D

 14 15  0  0  0  0  0  0  0  0999 V2000
    3.8060    0.9590   -0.8540 C   0  0  0  0  0  0  0  0  0  0  0  0
    2.7470    0.0870   -0.2490 C   0  0  0  0  0  0  0  0  0  0  0  0
    3.1950   -1.0640    0.3790 C   0  0  0  0  0  0  0  0  0  0  0  0
    2.2600   -1.8600    0.9260 N   0  0  0  0  0  0  0  0  0  0  0  0
    0.9860   -1.5310    0.8510 N   0  0  0  0  0  0  0  0  0  0  0  0
    0.5300   -0.4020    0.2370 C   0  0  0  0  0  0  0  0  0  0  0  0
   -0.9240   -0.1330    0.2100 C   0  0  0  0  0  0  0  0  0  0  0  0
   -1.4370    1.0580    0.4050 C   0  0  0  0  0  0  0  0  0  0  0  0
   -0.3240    2.4070    0.7170 Cl  0  0  0  0  0  0  0  0  0  0  0  0
   -2.8320    1.2900    0.3670 N   0  0  0  0  0  0  0  0  0  0  0  0
   -3.7780    0.2330    0.1630 C   0  0  0  0  0  0  0  0  0  0  0  0
   -3.1270   -1.0600   -0.0510 C   0  0  0  0  0  0  0  0  0  0  0  0
   -1.8330   -1.2510   -0.0330 C   0  0  0  0  0  0  0  0  0  0  0  0
    1.4440    0.4020   -0.3120 N   0  0  0  0  0  0  0  0  0  0  0  0
  1  2  1  0
  2  3  2  0
  2 14  1  0
  3  4  1  0
  4  5  2  0
  5  6  1  0
  6  7  1  0
  6 14  2  0
  7  8  2  0
  7 13  1  0
  8  9  1  0
  8 10  1  0
 10 11  1  0
 11 12  1  0
 12 13  2  0
M  END
