
     RDKit          3D

 14 15  0  0  0  0  0  0  0  0999 V2000
   -5.2010   -0.9840    1.0220 Cl  0  0  0  0  0  0  0  0  0  0  0  0
   -3.7220   -0.2030    0.5030 C   0  0  0  0  0  0  0  0  0  0  0  0
   -2.5840   -0.7930    0.2850 C   0  0  0  0  0  0  0  0  0  0  0  0
   -1.5410    0.1440   -0.1400 C   0  0  0  0  0  0  0  0  0  0  0  0
   -0.1980   -0.1600   -0.4560 N   0  0  0  0  0  0  0  0  0  0  0  0
    0.4320   -1.3560    0.0340 C   0  0  0  0  0  0  0  0  0  0  0  0
    1.8530   -1.5140   -0.3980 C   0  0  0  0  0  0  0  0  0  0  0  0
    2.7180   -0.4170    0.0490 C   0  0  0  0  0  0  0  0  0  0  0  0
    3.3990   -0.3620    1.2040 N   0  0  0  0  0  0  0  0  0  0  0  0
    4.0720    0.7870    1.2560 N   0  0  0  0  0  0  0  0  0  0  0  0
    3.8340    1.4860    0.1400 C   0  0  0  0  0  0  0  0  0  0  0  0
    2.9910    0.7200   -0.5940 N   0  0  0  0  0  0  0  0  0  0  0  0
   -2.0860    1.3620   -0.1790 C   0  0  0  0  0  0  0  0  0  0  0  0
   -3.5090    1.2480    0.2240 C   0  0  0  0  0  0  0  0  0  0  0  0
  1  2  1  0
  2  3  2  0
  2 14  1  0
  3  4  1  0
  4  5  1  0
  4 13  2  0
  5  6  1  0
  6  7  1  0
  7  8  1  0
  8  9  2  0
  8 12  1  0
  9 10  1  0
 10 11  2  0
 11 12  1  0
 13 14  1  0
M  END
