
     RDKit          3D

 22 22  0  0  0  0  0  0  0  0999 V2000
   -3.4510   -2.3190    1.8840 O   0  0  0  0  0  0  0  0  0  0  0  0
   -3.1870   -1.1570    2.5910 C   0  0  0  0  0  0  0  0  0  0  0  0
   -2.2210   -0.2900    1.8080 C   0  0  1  0  0  0  0  0  0  0  0  0
   -1.0200   -0.9270    1.5760 O   0  0  0  0  0  0  0  0  0  0  0  0
    0.0900   -0.3810    2.1410 C   0  0  0  0  0  0  0  0  0  0  0  0
    0.4300    1.0170    1.6790 C   0  0  1  0  0  0  0  0  0  0  0  0
    1.5630    1.5090    2.3300 O   0  0  0  0  0  0  0  0  0  0  0  0
    0.8140    1.0020    0.1910 C   0  0  0  0  0  0  0  0  0  0  0  0
    1.9280    0.1810   -0.0020 O   0  0  0  0  0  0  0  0  0  0  0  0
    2.3210    0.1170   -1.3130 C   0  0  1  0  0  0  0  0  0  0  0  0
    3.7010    0.6520   -1.5840 C   0  0  0  0  0  0  0  0  0  0  0  0
    4.6970   -0.3030   -1.4900 O   0  0  0  0  0  0  0  0  0  0  0  0
    4.5720   -1.3390   -2.3880 C   0  0  0  0  0  0  0  0  0  0  0  0
    3.1680   -1.4350   -2.9750 C   0  0  1  0  0  0  0  0  0  0  0  0
    3.0410   -2.6180   -3.6610 O   0  0  0  0  0  0  0  0  0  0  0  0
    2.2150   -1.3320   -1.7850 C   0  0  2  0  0  0  0  0  0  0  0  0
    0.9040   -1.5790   -2.1760 O   0  0  0  0  0  0  0  0  0  0  0  0
   -2.8230   -0.0200    0.5960 O   0  0  0  0  0  0  0  0  0  0  0  0
   -3.0890    1.2970    0.3390 C   0  0  1  0  0  0  0  0  0  0  0  0
   -2.3930    1.8250   -0.7500 O   0  0  0  0  0  0  0  0  0  0  0  0
   -4.5500    1.6220    0.1320 C   0  0  0  0  0  0  0  0  0  0  0  0
   -5.3560    1.3320    1.2010 O   0  0  0  0  0  0  0  0  0  0  0  0
  1  2  1  0
  3  2  1  1
  3  4  1  0
  3 18  1  0
  4  5  1  0
  5  6  1  0
  6  7  1  1
  6  8  1  0
  8  9  1  0
 10  9  1  1
 10 11  1  0
 10 16  1  0
 11 12  1  0
 12 13  1  0
 13 14  1  0
 14 15  1  1
 14 16  1  0
 16 17  1  6
 18 19  1  0
 19 20  1  6
 19 21  1  0
 21 22  1  0
M  END
