
     RDKit          3D

 22 24  0  0  0  0  0  0  0  0999 V2000
   -4.8170    2.0840   -0.4770 O   0  0  0  0  0  0  0  0  0  0  0  0
   -3.8260    1.3440   -0.2460 C   0  0  0  0  0  0  0  0  0  0  0  0
   -3.4760    0.2620   -1.0480 O   0  0  0  0  0  0  0  0  0  0  0  0
   -2.1850   -0.2540   -1.1600 C   0  0  2  0  0  0  0  0  0  0  0  0
   -2.2690   -1.6060   -1.4930 O   0  0  0  0  0  0  0  0  0  0  0  0
   -1.3280   -0.0270    0.0580 C   0  0  1  0  0  0  0  0  0  0  0  0
   -0.6890   -1.3350    0.5120 C   0  0  2  0  0  0  0  0  0  0  0  0
   -1.5190   -2.1000    1.2830 O   0  0  0  0  0  0  0  0  0  0  0  0
    0.5650   -0.9180    1.2850 C   0  0  1  0  0  0  0  0  0  0  0  0
    0.9900   -1.9480    2.1020 O   0  0  0  0  0  0  0  0  0  0  0  0
    1.5650   -0.5600    0.2120 C   0  0  2  0  0  0  0  0  0  0  0  0
    2.9090   -0.1700    0.7750 C   0  0  0  0  0  0  0  0  0  0  0  0
    3.7860    0.1100   -0.4540 C   0  0  0  0  0  0  0  0  0  0  0  0
    3.1460    1.3090   -1.1370 C   0  0  0  0  0  0  0  0  0  0  0  0
    1.8980    1.6030   -0.6550 O   0  0  0  0  0  0  0  0  0  0  0  0
    1.0200    0.5410   -0.6340 C   0  0  1  0  0  0  0  0  0  0  0  0
    0.8780    0.0290   -1.9410 O   0  0  0  0  0  0  0  0  0  0  0  0
   -0.3230    1.0430   -0.2130 C   0  0  2  0  0  0  0  0  0  0  0  0
   -0.2230    1.9490    0.8650 O   0  0  0  0  0  0  0  0  0  0  0  0
   -2.2000    0.4210    1.2390 C   0  0  2  0  0  0  0  0  0  0  0  0
   -3.0440   -0.5930    1.6540 O   0  0  0  0  0  0  0  0  0  0  0  0
   -2.9840    1.5640    0.8620 O   0  0  0  0  0  0  0  0  0  0  0  0
  1  2  2  0
  2  3  1  0
  2 22  1  0
  3  4  1  0
  4  5  1  1
  6  4  1  6
  6  7  1  0
  6 18  1  0
  6 20  1  0
  7  8  1  1
  7  9  1  0
  9 10  1  6
  9 11  1  0
 11 12  1  1
 11 16  1  0
 12 13  1  0
 13 14  1  0
 14 15  1  0
 15 16  1  0
 16 17  1  6
 16 18  1  0
 18 19  1  1
 20 21  1  6
 20 22  1  0
M  END
