
     RDKit          3D

 23 23  0  0  0  0  0  0  0  0999 V2000
    2.3700   -1.8910    1.3460 O   0  0  0  0  0  0  0  0  0  0  0  0
    2.3970   -0.7760    0.7970 C   0  0  0  0  0  0  0  0  0  0  0  0
    3.6210   -0.2650    0.3840 O   0  0  0  0  0  0  0  0  0  0  0  0
    4.8410   -0.9530    0.5570 C   0  0  0  0  0  0  0  0  0  0  0  0
    5.9340   -0.0650   -0.0230 C   0  0  2  0  0  0  0  0  0  0  0  0
    7.1830   -0.6360    0.0890 O   0  0  0  0  0  0  0  0  0  0  0  0
    5.8890    1.1390    0.7050 O   0  0  0  0  0  0  0  0  0  0  0  0
    1.2020    0.0510    0.5520 C   0  0  1  0  0  0  0  0  0  0  0  0
    1.5120    1.2520   -0.0770 O   0  0  0  0  0  0  0  0  0  0  0  0
    0.1930   -0.6630   -0.3590 C   0  0  0  0  0  0  0  0  0  0  0  0
   -0.9700    0.2940   -0.2340 C   0  0  1  0  0  0  0  0  0  0  0  0
   -0.8290    1.2260   -1.2690 O   0  0  0  0  0  0  0  0  0  0  0  0
   -2.3080   -0.3570   -0.3280 C   0  0  2  0  0  0  0  0  0  0  0  0
   -2.5300   -1.3830    0.7640 C   0  0  0  0  0  0  0  0  0  0  0  0
   -3.7950   -1.9730    0.6510 O   0  0  0  0  0  0  0  0  0  0  0  0
   -2.2430   -1.1680   -1.6490 C   0  0  0  0  0  0  0  0  0  0  0  0
   -3.4290   -1.8310   -1.8680 O   0  0  0  0  0  0  0  0  0  0  0  0
   -3.4460    0.5740   -0.5270 C   0  0  0  0  0  0  0  0  0  0  0  0
   -3.6800    1.6030    0.5110 C   0  0  0  0  0  0  0  0  0  0  0  0
   -4.8180    2.3380    0.0870 O   0  0  0  0  0  0  0  0  0  0  0  0
   -0.6870    0.9210    1.1100 C   0  0  2  0  0  0  0  0  0  0  0  0
   -0.1720    2.2100    0.8960 O   0  0  0  0  0  0  0  0  0  0  0  0
    0.3990    0.2090    1.6740 O   0  0  0  0  0  0  0  0  0  0  0  0
  1  2  2  0
  2  3  1  0
  2  8  1  0
  3  4  1  0
  4  5  1  0
  5  6  1  1
  5  7  1  0
  8  9  1  6
  8 10  1  0
  8 23  1  0
 10 11  1  0
 11 12  1  6
 11 13  1  0
 11 21  1  0
 13 14  1  1
 13 16  1  0
 13 18  1  0
 14 15  1  0
 16 17  1  0
 18 19  1  0
 19 20  1  0
 21 22  1  6
 21 23  1  0
M  END
