
     RDKit          3D

 23 24  0  0  0  0  0  0  0  0999 V2000
   -3.1430   -2.9690    0.8990 O   0  0  0  0  0  0  0  0  0  0  0  0
   -3.8100   -1.7880    0.6660 C   0  0  0  0  0  0  0  0  0  0  0  0
   -2.8990   -0.8050   -0.0410 C   0  0  2  0  0  0  0  0  0  0  0  0
   -1.7900   -0.5370    0.7220 O   0  0  0  0  0  0  0  0  0  0  0  0
   -0.9430    0.3540    0.1130 C   0  0  2  0  0  0  0  0  0  0  0  0
    0.2480    0.4770    0.8150 O   0  0  0  0  0  0  0  0  0  0  0  0
    1.3590    0.1260    0.0360 C   0  0  2  0  0  0  0  0  0  0  0  0
    2.0950   -1.0260    0.6460 C   0  0  1  0  0  0  0  0  0  0  0  0
    1.7850   -2.3500   -0.0210 C   0  0  0  0  0  0  0  0  0  0  0  0
    2.4210   -3.3360    0.7670 O   0  0  0  0  0  0  0  0  0  0  0  0
    3.4630   -0.8730    0.6600 O   0  0  0  0  0  0  0  0  0  0  0  0
    3.9480   -0.3840   -0.5450 C   0  0  2  0  0  0  0  0  0  0  0  0
    5.3450   -0.4620   -0.5300 O   0  0  0  0  0  0  0  0  0  0  0  0
    3.5860    1.0860   -0.6030 C   0  0  2  0  0  0  0  0  0  0  0  0
    4.5400    1.7590    0.1790 O   0  0  0  0  0  0  0  0  0  0  0  0
    2.1950    1.3640   -0.1200 C   0  0  2  0  0  0  0  0  0  0  0  0
    2.2440    2.0430    1.0930 O   0  0  0  0  0  0  0  0  0  0  0  0
   -1.6570    1.6850   -0.0320 C   0  0  2  0  0  0  0  0  0  0  0  0
   -2.1960    2.1020    1.1940 O   0  0  0  0  0  0  0  0  0  0  0  0
   -2.8300    1.4470   -0.9650 C   0  0  1  0  0  0  0  0  0  0  0  0
   -2.3030    0.7990   -2.0940 O   0  0  0  0  0  0  0  0  0  0  0  0
   -3.7470    0.4500   -0.2850 C   0  0  2  0  0  0  0  0  0  0  0  0
   -4.2670    0.9470    0.9020 O   0  0  0  0  0  0  0  0  0  0  0  0
  1  2  1  0
  3  2  1  1
  3  4  1  0
  3 22  1  0
  4  5  1  0
  5  6  1  1
  5 18  1  0
  7  6  1  1
  7  8  1  0
  7 16  1  0
  8  9  1  6
  8 11  1  0
  9 10  1  0
 11 12  1  0
 12 13  1  1
 12 14  1  0
 14 15  1  1
 14 16  1  0
 16 17  1  1
 18 19  1  1
 18 20  1  0
 20 21  1  6
 20 22  1  0
 22 23  1  1
M  END
