
     RDKit          3D

 13 12  0  0  0  0  0  0  0  0999 V2000
   -2.3700    1.9400    1.3850 C   0  0  0  0  0  0  0  0  0  0  0  0
   -1.0130    1.5040    1.2280 O   0  0  0  0  0  0  0  0  0  0  0  0
   -0.6140    1.2290   -0.0690 C   0  0  0  0  0  0  0  0  0  0  0  0
   -0.5260    2.2470   -0.9480 C   0  0  0  0  0  0  0  0  0  0  0  0
   -0.8160    3.5460   -0.6040 O   0  0  0  0  0  0  0  0  0  0  0  0
   -0.3040   -0.1270   -0.4480 C   0  0  0  0  0  0  0  0  0  0  0  0
   -0.3470   -1.1800    0.2810 C   0  0  0  0  0  0  0  0  0  0  0  0
   -0.7160   -1.3330    1.6950 C   0  0  0  0  0  0  0  0  0  0  0  0
    0.4180   -1.8940    2.4470 N   0  0  0  0  0  0  0  0  0  0  0  0
    0.0970   -0.2700   -1.8040 O   0  0  0  0  0  0  0  0  0  0  0  0
    1.4670   -0.1640   -2.0750 C   0  0  0  0  0  0  0  0  0  0  0  0
    2.3480   -1.1710   -1.4280 C   0  0  0  0  0  0  0  0  0  0  0  0
    2.0930   -2.4740   -1.7600 O   0  0  0  0  0  0  0  0  0  0  0  0
  1  2  1  0
  2  3  1  0
  3  4  2  3
  3  6  1  0
  4  5  1  0
  6  7  2  3
  6 10  1  0
  7  8  1  0
  8  9  1  0
 10 11  1  0
 11 12  1  0
 12 13  1  0
M  END
