
     RDKit          3D

 23 23  0  0  0  0  0  0  0  0999 V2000
   -2.8250   -0.4720   -1.3770 C   0  0  0  0  0  0  0  0  0  0  0  0
   -1.7670    0.2600   -0.5290 C   0  0  1  0  0  0  0  0  0  0  0  0
   -1.5710    1.4830   -1.1040 O   0  0  0  0  0  0  0  0  0  0  0  0
   -2.3150    0.3520    0.8460 C   0  0  2  0  0  0  0  0  0  0  0  0
   -3.6560    1.1080    0.8770 C   0  0  0  0  0  0  0  0  0  0  0  0
   -4.6390    0.5250    0.1390 O   0  0  0  0  0  0  0  0  0  0  0  0
   -1.4630    1.1220    1.8400 C   0  0  0  0  0  0  0  0  0  0  0  0
   -1.2540    2.4350    1.4940 O   0  0  0  0  0  0  0  0  0  0  0  0
   -0.5460   -0.6540   -0.6050 C   0  0  2  0  0  0  0  0  0  0  0  0
   -0.8720   -1.8450    0.0560 O   0  0  0  0  0  0  0  0  0  0  0  0
    0.6780    0.0090   -0.0420 C   0  0  0  0  0  0  0  0  0  0  0  0
    1.6900   -0.1400   -1.1860 C   0  0  1  0  0  0  0  0  0  0  0  0
    1.6260    0.9630   -2.0450 O   0  0  0  0  0  0  0  0  0  0  0  0
    3.0450   -0.2980   -0.6570 C   0  0  0  0  0  0  0  0  0  0  0  0
    3.9450    0.4970   -0.9910 O   0  0  0  0  0  0  0  0  0  0  0  0
    3.3370   -1.3260    0.2130 O   0  0  0  0  0  0  0  0  0  0  0  0
    4.6480   -1.4700    0.7190 C   0  0  0  0  0  0  0  0  0  0  0  0
    5.0710   -0.2620    1.4800 C   0  0  0  0  0  0  0  0  0  0  0  0
    6.2070   -0.2050    2.0050 O   0  0  0  0  0  0  0  0  0  0  0  0
    4.2200    0.8030    1.6140 O   0  0  0  0  0  0  0  0  0  0  0  0
    1.2340   -1.2290   -1.8970 O   0  0  0  0  0  0  0  0  0  0  0  0
   -0.1410   -1.0290   -1.9770 C   0  0  1  0  0  0  0  0  0  0  0  0
   -0.6190   -2.2910   -2.3770 O   0  0  0  0  0  0  0  0  0  0  0  0
  2  1  1  6
  2  3  1  0
  2  4  1  0
  2  9  1  0
  4  5  1  6
  4  7  1  0
  5  6  1  0
  7  8  1  0
  9 10  1  1
  9 11  1  0
  9 22  1  0
 11 12  1  0
 12 13  1  6
 12 14  1  0
 12 21  1  0
 14 15  2  0
 14 16  1  0
 16 17  1  0
 17 18  1  0
 18 19  2  0
 18 20  1  0
 21 22  1  0
 22 23  1  1
M  END
