
     RDKit          3D

 22 23  0  0  0  0  0  0  0  0999 V2000
   -4.7400    0.7800   -0.5060 O   0  0  0  0  0  0  0  0  0  0  0  0
   -4.4040   -0.3150    0.0110 C   0  0  0  0  0  0  0  0  0  0  0  0
   -5.2160   -1.4080    0.1560 O   0  0  0  0  0  0  0  0  0  0  0  0
   -4.7320   -2.1880    1.2330 C   0  0  0  0  0  0  0  0  0  0  0  0
   -3.2810   -1.8190    1.3820 C   0  0  0  0  0  0  0  0  0  0  0  0
   -3.0430   -0.5820    0.5500 C   0  0  1  0  0  0  0  0  0  0  0  0
   -2.2180   -0.8750   -0.4950 O   0  0  0  0  0  0  0  0  0  0  0  0
   -1.1380   -0.0350   -0.6610 C   0  0  1  0  0  0  0  0  0  0  0  0
    0.0270   -0.7280   -0.4780 O   0  0  0  0  0  0  0  0  0  0  0  0
    1.1800    0.0350   -0.5240 C   0  0  2  0  0  0  0  0  0  0  0  0
    2.2400   -0.8610   -0.5890 O   0  0  0  0  0  0  0  0  0  0  0  0
    1.3510    0.9400    0.6430 C   0  0  0  0  0  0  0  0  0  0  0  0
    2.4710    1.7220    0.6570 O   0  0  0  0  0  0  0  0  0  0  0  0
    3.6930    1.1560    0.7520 C   0  0  0  0  0  0  0  0  0  0  0  0
    3.9950    0.4220    2.0270 C   0  0  1  0  0  0  0  0  0  0  0  0
    3.9090    1.2940    3.1310 O   0  0  0  0  0  0  0  0  0  0  0  0
    3.2510   -0.7170    2.2310 O   0  0  0  0  0  0  0  0  0  0  0  0
    1.2470    0.8070   -1.8450 C   0  0  1  0  0  0  0  0  0  0  0  0
    1.2160   -0.1650   -2.8510 O   0  0  0  0  0  0  0  0  0  0  0  0
    0.0280    1.6970   -1.8950 C   0  0  0  0  0  0  0  0  0  0  0  0
   -1.1760    0.7480   -1.9480 C   0  0  1  0  0  0  0  0  0  0  0  0
   -1.0120   -0.0140   -3.0750 O   0  0  0  0  0  0  0  0  0  0  0  0
  1  2  2  0
  2  3  1  0
  2  6  1  0
  3  4  1  0
  4  5  1  0
  5  6  1  0
  6  7  1  6
  8  7  1  6
  8  9  1  0
  8 21  1  0
  9 10  1  0
 10 11  1  6
 10 12  1  0
 10 18  1  0
 12 13  1  0
 13 14  1  0
 14 15  1  0
 15 16  1  1
 15 17  1  0
 18 19  1  6
 18 20  1  0
 20 21  1  0
 21 22  1  6
M  END
