
     RDKit          3D

 22 22  0  0  0  0  0  0  0  0999 V2000
    4.1750   -1.2440   -1.7910 O   0  0  0  0  0  0  0  0  0  0  0  0
    3.4120   -1.8000   -2.6110 C   0  0  0  0  0  0  0  0  0  0  0  0
    3.9640   -2.2870   -3.8050 O   0  0  0  0  0  0  0  0  0  0  0  0
    2.0790   -1.9150   -2.3200 O   0  0  0  0  0  0  0  0  0  0  0  0
    1.4650   -1.4490   -1.1340 C   0  0  0  0  0  0  0  0  0  0  0  0
    2.0360   -2.1420    0.0580 C   0  0  2  0  0  0  0  0  0  0  0  0
    1.7940   -3.5250   -0.1430 O   0  0  0  0  0  0  0  0  0  0  0  0
    1.4100   -1.7870    1.3780 C   0  0  1  0  0  0  0  0  0  0  0  0
    2.0740   -2.6110    2.3770 O   0  0  0  0  0  0  0  0  0  0  0  0
    1.5550   -0.5340    1.8270 O   0  0  0  0  0  0  0  0  0  0  0  0
    0.5720    0.1880    2.3800 C   0  0  0  0  0  0  0  0  0  0  0  0
   -0.6370    0.5990    1.6460 C   0  0  2  0  0  0  0  0  0  0  0  0
   -1.4050    1.3560    2.6140 O   0  0  0  0  0  0  0  0  0  0  0  0
   -1.5540   -0.4950    1.2390 C   0  0  0  0  0  0  0  0  0  0  0  0
   -2.9670    0.0450    0.9670 C   0  0  0  0  0  0  0  0  0  0  0  0
   -2.8970    1.3570    0.2340 C   0  0  0  0  0  0  0  0  0  0  0  0
   -1.5520    1.5530   -0.4420 C   0  0  1  0  0  0  0  0  0  0  0  0
   -1.6320    2.7980   -1.3000 C   0  0  2  0  0  0  0  0  0  0  0  0
   -2.6360    2.6200   -2.2510 O   0  0  0  0  0  0  0  0  0  0  0  0
   -0.4460    3.0290   -1.9650 O   0  0  0  0  0  0  0  0  0  0  0  0
   -0.4180    1.5910    0.5280 C   0  0  1  0  0  0  0  0  0  0  0  0
   -0.3380    2.8910    1.0410 O   0  0  0  0  0  0  0  0  0  0  0  0
  1  2  2  0
  2  3  1  0
  2  4  1  0
  4  5  1  0
  5  6  1  0
  6  7  1  6
  6  8  1  0
  8  9  1  1
  8 10  1  0
 10 11  1  0
 11 12  1  0
 12 13  1  1
 12 14  1  0
 12 21  1  0
 14 15  1  0
 15 16  1  0
 17 16  1  1
 17 18  1  0
 17 21  1  0
 18 19  1  6
 18 20  1  0
 21 22  1  1
M  END
