
     RDKit          3D

 22 23  0  0  0  0  0  0  0  0999 V2000
    4.9280   -1.6780    1.0980 C   0  0  0  0  0  0  0  0  0  0  0  0
    3.6170   -1.4640    0.6080 O   0  0  0  0  0  0  0  0  0  0  0  0
    3.1600   -0.2260    0.1980 C   0  0  0  0  0  0  0  0  0  0  0  0
    3.9530    0.7440    0.2690 O   0  0  0  0  0  0  0  0  0  0  0  0
    1.7960    0.0190   -0.3150 C   0  0  2  0  0  0  0  0  0  0  0  0
    1.5750    1.3260   -0.6580 O   0  0  0  0  0  0  0  0  0  0  0  0
    0.2990    1.6980   -0.9140 C   0  0  2  0  0  0  0  0  0  0  0  0
    0.1170    3.1810   -0.7220 C   0  0  0  0  0  0  0  0  0  0  0  0
    1.0670    3.9270   -0.3680 O   0  0  0  0  0  0  0  0  0  0  0  0
   -1.1160    3.7830   -0.9310 O   0  0  0  0  0  0  0  0  0  0  0  0
   -0.7640    0.9950   -0.1640 C   0  0  1  0  0  0  0  0  0  0  0  0
   -0.9630    1.4870    1.2390 C   0  0  0  0  0  0  0  0  0  0  0  0
   -2.0780    0.8650   -0.8650 C   0  0  1  0  0  0  0  0  0  0  0  0
   -1.8160    0.5020   -2.1950 O   0  0  0  0  0  0  0  0  0  0  0  0
   -2.6830   -0.3490   -0.1900 C   0  0  0  0  0  0  0  0  0  0  0  0
   -1.5400   -1.1010    0.4560 C   0  0  1  0  0  0  0  0  0  0  0  0
   -1.5500   -0.9680    1.8400 O   0  0  0  0  0  0  0  0  0  0  0  0
   -1.5900   -2.5670    0.0840 C   0  0  0  0  0  0  0  0  0  0  0  0
   -2.7570   -3.1700    0.5930 O   0  0  0  0  0  0  0  0  0  0  0  0
   -0.3490   -0.4870   -0.1780 C   0  0  1  0  0  0  0  0  0  0  0  0
   -0.1900   -0.8600   -1.4810 O   0  0  0  0  0  0  0  0  0  0  0  0
    0.8220   -0.5450    0.5060 O   0  0  0  0  0  0  0  0  0  0  0  0
  1  2  1  0
  2  3  1  0
  3  4  2  0
  5  3  1  1
  5  6  1  0
  5 22  1  0
  6  7  1  0
  7  8  1  1
  7 11  1  0
  8  9  2  0
  8 10  1  0
 11 12  1  1
 11 13  1  0
 11 20  1  0
 13 14  1  6
 13 15  1  0
 15 16  1  0
 16 17  1  1
 16 18  1  0
 16 20  1  0
 18 19  1  0
 20 21  1  6
 20 22  1  0
M  END
