
     RDKit          3D

 20 19  0  0  0  0  0  0  0  0999 V2000
   -7.1200    1.4250    1.3360 C   0  0  0  0  0  0  0  0  0  0  0  0
   -6.3680    1.0750    0.0620 C   0  0  0  0  0  0  0  0  0  0  0  0
   -5.1970    2.0200   -0.0380 C   0  0  0  0  0  0  0  0  0  0  0  0
   -4.3590    1.7850   -1.2650 C   0  0  0  0  0  0  0  0  0  0  0  0
   -3.7810    0.4130   -1.3420 C   0  0  0  0  0  0  0  0  0  0  0  0
   -2.8920    0.0920   -0.1880 C   0  0  0  0  0  0  0  0  0  0  0  0
   -2.3010   -1.2880   -0.2410 C   0  0  0  0  0  0  0  0  0  0  0  0
   -1.4660   -1.5500   -1.4480 C   0  0  0  0  0  0  0  0  0  0  0  0
   -0.2840   -0.6270   -1.5720 C   0  0  0  0  0  0  0  0  0  0  0  0
    0.6780   -0.7080   -0.3930 C   0  0  0  0  0  0  0  0  0  0  0  0
    1.2540   -2.0480   -0.2070 C   0  0  0  0  0  0  0  0  0  0  0  0
    2.1880   -2.3420    0.8790 C   0  0  0  0  0  0  0  0  0  0  0  0
    3.5040   -1.7110    1.0160 C   0  0  0  0  0  0  0  0  0  0  0  0
    3.6350   -0.2580    1.2090 C   0  0  0  0  0  0  0  0  0  0  0  0
    5.1070    0.1080    1.4020 C   0  0  0  0  0  0  0  0  0  0  0  0
    5.9760   -0.2350    0.2410 C   0  0  0  0  0  0  0  0  0  0  0  0
    5.5610    0.4390   -1.0550 C   0  0  0  0  0  0  0  0  0  0  0  0
    5.6500    1.9030   -0.8460 C   0  0  0  0  0  0  0  0  0  0  0  0
    4.7810    2.5260   -0.1870 O   0  0  0  0  0  0  0  0  0  0  0  0
    6.7180    2.5990   -1.3910 O   0  0  0  0  0  0  0  0  0  0  0  0
  1  2  1  0
  2  3  1  0
  3  4  1  0
  4  5  1  0
  5  6  1  0
  6  7  1  0
  7  8  1  0
  8  9  1  0
  9 10  1  0
 10 11  1  0
 11 12  1  0
 12 13  1  0
 13 14  1  0
 14 15  1  0
 15 16  1  0
 16 17  1  0
 17 18  1  0
 18 19  2  0
 18 20  1  0
M  END
