
     RDKit          3D

 20 20  0  0  0  0  0  0  0  0999 V2000
    3.9230    2.5760   -0.2550 C   0  0  0  0  0  0  0  0  0  0  0  0
    4.7060    1.5310   -0.3100 C   0  0  0  0  0  0  0  0  0  0  0  0
    4.4730    0.3020    0.3790 C   0  0  0  0  0  0  0  0  0  0  0  0
    5.3910   -0.6900    0.3040 C   0  0  0  0  0  0  0  0  0  0  0  0
    6.5970   -0.4480   -0.4920 C   0  0  0  0  0  0  0  0  0  0  0  0
    3.3150    0.0090    1.2090 C   0  0  0  0  0  0  0  0  0  0  0  0
    2.0660   -0.1740    0.4310 C   0  0  2  0  0  0  0  0  0  0  0  0
    1.6050    0.8200   -0.3410 O   0  0  0  0  0  0  0  0  0  0  0  0
    0.9950   -0.6100    1.4620 C   0  0  0  0  0  0  0  0  0  0  0  0
   -0.2830   -0.8060    0.6620 C   0  0  0  0  0  0  0  0  0  0  0  0
   -1.4070   -1.2400    1.5760 C   0  0  0  0  0  0  0  0  0  0  0  0
   -2.5590   -1.4220    0.8770 O   0  0  0  0  0  0  0  0  0  0  0  0
   -3.4060   -0.7190    0.1450 C   0  0  0  0  0  0  0  0  0  0  0  0
   -3.2980    0.6160   -0.1110 C   0  0  0  0  0  0  0  0  0  0  0  0
   -4.2360    1.3010   -0.8960 C   0  0  0  0  0  0  0  0  0  0  0  0
   -4.1200    2.7480   -1.1770 C   0  0  0  0  0  0  0  0  0  0  0  0
   -5.2980    0.6030   -1.4230 C   0  0  0  0  0  0  0  0  0  0  0  0
   -5.4260   -0.7300   -1.1780 C   0  0  0  0  0  0  0  0  0  0  0  0
   -4.5060   -1.3830   -0.4130 C   0  0  0  0  0  0  0  0  0  0  0  0
   -4.6930   -2.8500   -0.1740 C   0  0  0  0  0  0  0  0  0  0  0  0
  1  2  2  0
  2  3  1  0
  3  4  2  3
  3  6  1  0
  4  5  1  0
  6  7  1  0
  7  8  1  1
  7  9  1  0
  9 10  1  0
 10 11  1  0
 11 12  1  0
 12 13  1  0
 13 14  2  0
 13 19  1  0
 14 15  1  0
 15 16  1  0
 15 17  2  0
 17 18  1  0
 18 19  2  0
 19 20  1  0
M  END
