
     RDKit          3D

 20 20  0  0  0  0  0  0  0  0999 V2000
   -1.6090    2.9520   -0.4280 C   0  0  0  0  0  0  0  0  0  0  0  0
   -1.4440    1.5770   -0.5910 O   0  0  0  0  0  0  0  0  0  0  0  0
   -2.3940    0.6220   -0.3620 C   0  0  0  0  0  0  0  0  0  0  0  0
   -3.6740    0.9680    0.0760 C   0  0  0  0  0  0  0  0  0  0  0  0
   -4.6430    0.0180    0.3100 C   0  0  0  0  0  0  0  0  0  0  0  0
   -5.9740    0.4810    0.7760 C   0  0  0  0  0  0  0  0  0  0  0  0
   -4.3360   -1.3150    0.1020 C   0  0  0  0  0  0  0  0  0  0  0  0
   -5.3530   -2.3620    0.3450 C   0  0  0  0  0  0  0  0  0  0  0  0
   -3.0840   -1.6960   -0.3300 C   0  0  0  0  0  0  0  0  0  0  0  0
   -2.1370   -0.7140   -0.5540 C   0  0  0  0  0  0  0  0  0  0  0  0
   -0.7680   -1.1140   -1.0050 C   0  0  0  0  0  0  0  0  0  0  0  0
    0.1230   -1.0680    0.2190 C   0  0  0  0  0  0  0  0  0  0  0  0
    1.5050   -1.5060   -0.1790 C   0  0  0  0  0  0  0  0  0  0  0  0
    2.0760   -0.5960   -1.2180 C   0  0  0  0  0  0  0  0  0  0  0  0
    2.2230    0.8090   -0.7380 C   0  0  0  0  0  0  0  0  0  0  0  0
    3.1240    0.9230    0.4160 C   0  0  0  0  0  0  0  0  0  0  0  0
    4.5430    0.5910    0.3270 C   0  0  2  0  0  0  0  0  0  0  0  0
    5.0150   -0.7460   -0.0390 C   0  0  0  0  0  0  0  0  0  0  0  0
    5.1360    0.9030    1.7310 C   0  0  0  0  0  0  0  0  0  0  0  0
    5.1430    1.5040   -0.5840 O   0  0  0  0  0  0  0  0  0  0  0  0
  1  2  1  0
  2  3  1  0
  3  4  2  0
  3 10  1  0
  4  5  1  0
  5  6  1  0
  5  7  2  0
  7  8  1  0
  7  9  1  0
  9 10  2  0
 10 11  1  0
 11 12  1  0
 12 13  1  0
 13 14  1  0
 14 15  1  0
 15 16  1  0
 16 17  1  0
 17 18  1  6
 17 19  1  0
 17 20  1  0
M  END
