
     RDKit          3D

 20 20  0  0  0  0  0  0  0  0999 V2000
    3.7930    3.2970   -0.1110 C   0  0  0  0  0  0  0  0  0  0  0  0
    4.3750    1.9200   -0.3620 C   0  0  0  0  0  0  0  0  0  0  0  0
    3.3830    0.8690    0.0080 C   0  0  0  0  0  0  0  0  0  0  0  0
    2.8520    0.7600    1.4040 C   0  0  0  0  0  0  0  0  0  0  0  0
    2.9830    0.0320   -0.9290 C   0  0  0  0  0  0  0  0  0  0  0  0
    1.9910   -1.0230   -0.5720 C   0  0  0  0  0  0  0  0  0  0  0  0
    0.7240   -0.8680   -1.4370 C   0  0  0  0  0  0  0  0  0  0  0  0
   -0.1700   -1.9640   -0.9850 C   0  0  0  0  0  0  0  0  0  0  0  0
   -0.1830   -3.0810   -1.8320 C   0  0  0  0  0  0  0  0  0  0  0  0
   -0.9220   -4.1810   -1.5030 C   0  0  0  0  0  0  0  0  0  0  0  0
   -1.6400   -4.1570   -0.3330 C   0  0  0  0  0  0  0  0  0  0  0  0
   -1.6560   -3.0880    0.5220 C   0  0  0  0  0  0  0  0  0  0  0  0
   -2.4340   -3.0790    1.7760 C   0  0  0  0  0  0  0  0  0  0  0  0
   -0.8920   -1.9510    0.1780 C   0  0  0  0  0  0  0  0  0  0  0  0
   -0.9090   -0.8820    1.0180 O   0  0  0  0  0  0  0  0  0  0  0  0
   -1.8000    0.1550    1.1580 C   0  0  0  0  0  0  0  0  0  0  0  0
   -2.0110    1.0320   -0.0370 C   0  0  0  0  0  0  0  0  0  0  0  0
   -3.0690    2.1160    0.2730 C   0  0  0  0  0  0  0  0  0  0  0  0
   -3.1880    2.9280   -1.0030 C   0  0  0  0  0  0  0  0  0  0  0  0
   -4.1170    3.9510   -0.8680 O   0  0  0  0  0  0  0  0  0  0  0  0
  1  2  1  0
  2  3  1  0
  3  4  1  0
  3  5  2  3
  5  6  1  0
  6  7  1  0
  7  8  1  0
  8  9  2  0
  8 14  1  0
  9 10  1  0
 10 11  2  0
 11 12  1  0
 12 13  1  0
 12 14  2  0
 14 15  1  0
 15 16  1  0
 16 17  1  0
 17 18  1  0
 18 19  1  0
 19 20  1  0
M  END
