
     RDKit          3D

 20 20  0  0  0  0  0  0  0  0999 V2000
    4.1000   -2.5710    1.2990 C   0  0  0  0  0  0  0  0  0  0  0  0
    3.4950   -1.2110    1.6580 C   0  0  0  0  0  0  0  0  0  0  0  0
    3.2500   -0.5110    0.3630 C   0  0  0  0  0  0  0  0  0  0  0  0
    2.6430    0.8660    0.5560 C   0  0  0  0  0  0  0  0  0  0  0  0
    3.3420    1.8330    1.3630 C   0  0  0  0  0  0  0  0  0  0  0  0
    3.0470    2.9970    1.6360 O   0  0  0  0  0  0  0  0  0  0  0  0
    1.5020    1.0830   -0.0520 C   0  0  0  0  0  0  0  0  0  0  0  0
    0.7830    2.3530    0.0310 C   0  0  0  0  0  0  0  0  0  0  0  0
    0.7280    2.9640   -1.3750 C   0  0  0  0  0  0  0  0  0  0  0  0
    1.0020    0.0110   -0.8010 O   0  0  0  0  0  0  0  0  0  0  0  0
   -0.1940   -0.1820   -1.3810 C   0  0  0  0  0  0  0  0  0  0  0  0
   -1.4460   -0.3280   -0.6730 C   0  0  0  0  0  0  0  0  0  0  0  0
   -2.5810   -0.4040   -1.5080 C   0  0  0  0  0  0  0  0  0  0  0  0
   -2.4240   -0.2910   -3.0030 C   0  0  0  0  0  0  0  0  0  0  0  0
   -3.8100   -0.5790   -0.9600 C   0  0  0  0  0  0  0  0  0  0  0  0
   -3.9710   -0.6830    0.4010 C   0  0  0  0  0  0  0  0  0  0  0  0
   -5.3190   -0.8710    0.9850 C   0  0  0  0  0  0  0  0  0  0  0  0
   -2.8570   -0.6080    1.1970 C   0  0  0  0  0  0  0  0  0  0  0  0
   -1.5630   -0.4300    0.6810 C   0  0  0  0  0  0  0  0  0  0  0  0
   -0.4180   -0.4240    1.6450 C   0  0  0  0  0  0  0  0  0  0  0  0
  1  2  1  0
  2  3  1  0
  3  4  1  0
  4  5  1  0
  4  7  2  3
  5  6  2  0
  7  8  1  0
  7 10  1  0
  8  9  1  0
 10 11  1  0
 11 12  1  0
 12 13  2  0
 12 19  1  0
 13 14  1  0
 13 15  1  0
 15 16  2  0
 16 17  1  0
 16 18  1  0
 18 19  2  0
 19 20  1  0
M  END
