
     RDKit          3D

 20 20  0  0  0  0  0  0  0  0999 V2000
    6.0030   -0.6880    0.4240 C   0  0  0  0  0  0  0  0  0  0  0  0
    4.6550   -0.4240    1.0600 C   0  0  0  0  0  0  0  0  0  0  0  0
    4.3730    1.0610    1.1600 C   0  0  0  0  0  0  0  0  0  0  0  0
    4.3600    1.7330   -0.1710 C   0  0  0  0  0  0  0  0  0  0  0  0
    3.3150    1.1770   -1.1060 C   0  0  0  0  0  0  0  0  0  0  0  0
    1.9260    1.3080   -0.5780 C   0  0  0  0  0  0  0  0  0  0  0  0
    0.9750    0.7400   -1.5540 C   0  0  0  0  0  0  0  0  0  0  0  0
    1.3660    0.2690   -2.5850 O   0  0  0  0  0  0  0  0  0  0  0  0
   -0.4720    0.7560   -1.2460 C   0  0  0  0  0  0  0  0  0  0  0  0
   -1.2940    0.1360   -2.3520 C   0  0  1  0  0  0  0  0  0  0  0  0
   -0.9660   -1.1790   -2.5930 O   0  0  0  0  0  0  0  0  0  0  0  0
   -2.7500    0.3730   -2.1140 C   0  0  0  0  0  0  0  0  0  0  0  0
   -3.2700   -0.1760   -0.8700 C   0  0  0  0  0  0  0  0  0  0  0  0
   -3.7920   -1.4470   -0.7510 C   0  0  0  0  0  0  0  0  0  0  0  0
   -4.2830   -1.9650    0.4230 C   0  0  0  0  0  0  0  0  0  0  0  0
   -4.8290   -3.3490    0.4630 C   0  0  0  0  0  0  0  0  0  0  0  0
   -4.2440   -1.1490    1.5400 C   0  0  0  0  0  0  0  0  0  0  0  0
   -3.7300    0.1310    1.4660 C   0  0  0  0  0  0  0  0  0  0  0  0
   -3.7150    0.9620    2.7060 C   0  0  0  0  0  0  0  0  0  0  0  0
   -3.2400    0.6270    0.2640 C   0  0  0  0  0  0  0  0  0  0  0  0
  1  2  1  0
  2  3  1  0
  3  4  1  0
  4  5  1  0
  5  6  1  0
  6  7  1  0
  7  8  2  0
  7  9  1  0
  9 10  1  0
 10 11  1  1
 10 12  1  0
 12 13  1  0
 13 14  2  0
 13 20  1  0
 14 15  1  0
 15 16  1  0
 15 17  2  0
 17 18  1  0
 18 19  1  0
 18 20  2  0
M  END
