
     RDKit          3D

 20 20  0  0  0  0  0  0  0  0999 V2000
   -2.7580   -2.2780    2.1450 C   0  0  0  0  0  0  0  0  0  0  0  0
   -3.4720   -1.9170    1.1060 C   0  0  0  0  0  0  0  0  0  0  0  0
   -3.3590   -0.6540    0.3490 C   0  0  0  0  0  0  0  0  0  0  0  0
   -2.2300    0.2350    0.7360 C   0  0  2  0  0  0  0  0  0  0  0  0
   -2.2680    1.5080   -0.1080 C   0  0  0  0  0  0  0  0  0  0  0  0
   -3.5230    2.2670    0.0780 C   0  0  0  0  0  0  0  0  0  0  0  0
   -3.4710    3.4970    0.5420 C   0  0  0  0  0  0  0  0  0  0  0  0
   -0.8940   -0.3850    0.3840 C   0  0  0  0  0  0  0  0  0  0  0  0
   -0.0190   -0.5690    1.1900 O   0  0  0  0  0  0  0  0  0  0  0  0
   -0.6090   -0.8000   -1.0260 C   0  0  0  0  0  0  0  0  0  0  0  0
    0.7470   -1.4030   -1.1520 C   0  0  0  0  0  0  0  0  0  0  0  0
    1.8650   -0.5060   -0.7850 C   0  0  0  0  0  0  0  0  0  0  0  0
    1.6870    0.8390   -0.5730 C   0  0  0  0  0  0  0  0  0  0  0  0
    2.7690    1.6440   -0.2370 C   0  0  0  0  0  0  0  0  0  0  0  0
    4.0380    1.1250   -0.1080 C   0  0  0  0  0  0  0  0  0  0  0  0
    5.1710    2.0020    0.2490 C   0  0  0  0  0  0  0  0  0  0  0  0
    5.0420    3.2160    0.4420 O   0  0  0  0  0  0  0  0  0  0  0  0
    4.2270   -0.2300   -0.3190 C   0  0  0  0  0  0  0  0  0  0  0  0
    3.1380   -1.0240   -0.6550 C   0  0  0  0  0  0  0  0  0  0  0  0
    3.3160   -2.4720   -0.8810 C   0  0  0  0  0  0  0  0  0  0  0  0
  1  2  2  0
  2  3  1  0
  4  3  1  6
  4  5  1  0
  4  8  1  0
  5  6  1  0
  6  7  2  0
  8  9  2  0
  8 10  1  0
 10 11  1  0
 11 12  1  0
 12 13  2  0
 12 19  1  0
 13 14  1  0
 14 15  2  0
 15 16  1  0
 15 18  1  0
 16 17  2  0
 18 19  2  0
 19 20  1  0
M  END
