
     RDKit          3D

 33 35  0  0  0  0  0  0  0  0999 V2000
    3.1440    4.7300    1.0250 C   0  0  0  0  0  0  0  0  0  0  0  0
    2.4390    3.6210    1.0140 C   0  0  0  0  0  0  0  0  0  0  0  0
    3.0500    2.3580    1.4900 C   0  0  0  0  0  0  0  0  0  0  0  0
    3.0030    1.4200    0.3280 N   0  0  0  0  0  0  0  0  0  0  0  0
    4.1450    1.4190   -0.5250 C   0  0  0  0  0  0  0  0  0  0  0  0
    5.3010    0.5730   -0.1100 C   0  0  2  0  0  0  0  0  0  0  0  0
    6.4140    0.7330   -1.1610 C   0  0  0  0  0  0  0  0  0  0  0  0
    4.9390   -0.8620    0.0240 C   0  0  0  0  0  0  0  0  0  0  0  0
    6.0040   -1.7980    0.4620 C   0  0  2  0  0  0  0  0  0  0  0  0
    6.6060   -1.4650    1.8110 C   0  0  0  0  0  0  0  0  0  0  0  0
    7.0790   -2.1300   -0.5020 C   0  0  0  0  0  0  0  0  0  0  0  0
    1.8420    0.6400    0.2480 C   0  0  0  0  0  0  0  0  0  0  0  0
    0.9660    0.7690    1.1730 O   0  0  0  0  0  0  0  0  0  0  0  0
    1.5460   -0.3080   -0.8150 C   0  0  0  0  0  0  0  0  0  0  0  0
    0.2240   -0.8770   -0.6620 O   0  0  0  0  0  0  0  0  0  0  0  0
   -0.8680   -0.0410   -0.6800 C   0  0  0  0  0  0  0  0  0  0  0  0
   -0.6750    1.1920   -0.8310 O   0  0  0  0  0  0  0  0  0  0  0  0
   -2.2350   -0.5580   -0.5280 C   0  0  0  0  0  0  0  0  0  0  0  0
   -2.5600   -1.8860   -0.3580 C   0  0  0  0  0  0  0  0  0  0  0  0
   -3.9550   -1.9690   -0.2520 C   0  0  0  0  0  0  0  0  0  0  0  0
   -4.8090   -3.0370   -0.0730 C   0  0  0  0  0  0  0  0  0  0  0  0
   -4.2110   -4.3920    0.0380 C   0  0  0  0  0  0  0  0  0  0  0  0
   -6.1500   -2.8040   -0.0070 C   0  0  0  0  0  0  0  0  0  0  0  0
   -6.6410   -1.4920   -0.1210 C   0  0  0  0  0  0  0  0  0  0  0  0
   -8.1050   -1.2950   -0.0990 C   0  0  0  0  0  0  0  0  0  0  0  0
   -5.7930   -0.4390   -0.2960 C   0  0  0  0  0  0  0  0  0  0  0  0
   -6.1790    0.9620   -0.3420 C   0  0  0  0  0  0  0  0  0  0  0  0
   -7.3190    1.5020   -0.0230 C   0  0  0  0  0  0  0  0  0  0  0  0
   -7.3030    3.0060   -0.2250 C   0  0  0  0  0  0  0  0  0  0  0  0
   -5.9470    3.2280   -0.7280 C   0  0  0  0  0  0  0  0  0  0  0  0
   -5.3300    2.0690   -0.7860 C   0  0  0  0  0  0  0  0  0  0  0  0
   -4.3980   -0.6740   -0.3660 C   0  0  0  0  0  0  0  0  0  0  0  0
   -3.3560    0.1130   -0.5260 O   0  0  0  0  0  0  0  0  0  0  0  0
  1  2  2  0
  2  3  1  0
  3  4  1  0
  4  5  1  0
  4 12  1  0
  5  6  1  0
  6  7  1  6
  6  8  1  0
  8  9  1  0
  9 10  1  1
  9 11  1  0
 12 13  2  0
 12 14  1  0
 14 15  1  0
 15 16  1  0
 16 17  2  0
 16 18  1  0
 18 19  2  0
 18 33  1  0
 19 20  1  0
 20 21  2  0
 20 32  1  0
 21 22  1  0
 21 23  1  0
 23 24  2  0
 24 25  1  0
 24 26  1  0
 26 27  1  0
 26 32  2  0
 27 28  2  0
 27 31  1  0
 28 29  1  0
 29 30  1  0
 30 31  2  0
 32 33  1  0
M  END
