
     RDKit          3D

 33 35  0  0  0  0  0  0  0  0999 V2000
    3.3570    1.8670    4.1700 C   0  0  0  0  0  0  0  0  0  0  0  0
    2.3030    1.6700    3.3860 C   0  0  0  0  0  0  0  0  0  0  0  0
    1.9200    0.3220    2.9970 C   0  0  0  0  0  0  0  0  0  0  0  0
    1.8670    0.0030    1.6140 N   0  0  0  0  0  0  0  0  0  0  0  0
    0.6100    0.2290    0.9310 C   0  0  0  0  0  0  0  0  0  0  0  0
    0.5100   -0.0250   -0.2980 O   0  0  0  0  0  0  0  0  0  0  0  0
   -0.5600    0.7550    1.6600 C   0  0  0  0  0  0  0  0  0  0  0  0
   -1.6350    0.9050    0.7730 O   0  0  0  0  0  0  0  0  0  0  0  0
   -2.1640   -0.1790    0.1080 C   0  0  0  0  0  0  0  0  0  0  0  0
   -1.6590   -1.3090    0.3110 O   0  0  0  0  0  0  0  0  0  0  0  0
   -3.2940    0.0270   -0.8090 C   0  0  0  0  0  0  0  0  0  0  0  0
   -3.0120    0.2990   -2.1250 C   0  0  0  0  0  0  0  0  0  0  0  0
   -1.6350    0.3940   -2.6680 C   0  0  0  0  0  0  0  0  0  0  0  0
   -4.1020    0.4930   -2.9830 C   0  0  0  0  0  0  0  0  0  0  0  0
   -5.4010    0.4130   -2.5190 C   0  0  0  0  0  0  0  0  0  0  0  0
   -5.6460    0.1420   -1.2070 C   0  0  0  0  0  0  0  0  0  0  0  0
   -4.6050   -0.0540   -0.3390 C   0  0  0  0  0  0  0  0  0  0  0  0
   -4.7800   -0.3540    1.1000 C   0  0  0  0  0  0  0  0  0  0  0  0
   -6.1260   -0.8800    1.4540 C   0  0  0  0  0  0  0  0  0  0  0  0
   -7.0010   -1.1930    0.2640 C   0  0  0  0  0  0  0  0  0  0  0  0
   -7.0180    0.0370   -0.6170 C   0  0  2  0  0  0  0  0  0  0  0  0
   -8.0950    0.0080   -1.6490 C   0  0  0  0  0  0  0  0  0  0  0  0
    2.9280   -0.5680    0.8110 C   0  0  2  0  0  0  0  0  0  0  0  0
    3.4540   -1.8440    1.3610 C   0  0  0  0  0  0  0  0  0  0  0  0
    3.9880    0.4700    0.5600 C   0  0  0  0  0  0  0  0  0  0  0  0
    3.8670    1.5870    1.0700 O   0  0  0  0  0  0  0  0  0  0  0  0
    5.1630    0.2160   -0.2650 C   0  0  0  0  0  0  0  0  0  0  0  0
    5.4030   -0.9630   -0.9360 C   0  0  0  0  0  0  0  0  0  0  0  0
    6.5540   -1.1640   -1.7060 C   0  0  0  0  0  0  0  0  0  0  0  0
    7.5060   -0.1780   -1.8260 C   0  0  0  0  0  0  0  0  0  0  0  0
    8.7420   -0.3650   -2.6390 C   0  0  0  0  0  0  0  0  0  0  0  0
    7.2700    1.0040   -1.1560 C   0  0  0  0  0  0  0  0  0  0  0  0
    6.1380    1.2050   -0.3970 C   0  0  0  0  0  0  0  0  0  0  0  0
  1  2  2  0
  2  3  1  0
  3  4  1  0
  4  5  1  0
  4 23  1  0
  5  6  2  0
  5  7  1  0
  7  8  1  0
  8  9  1  0
  9 10  2  0
  9 11  1  0
 11 12  2  0
 11 17  1  0
 12 13  1  0
 12 14  1  0
 14 15  2  0
 15 16  1  0
 16 17  2  0
 16 21  1  0
 17 18  1  0
 18 19  1  0
 19 20  1  0
 20 21  1  0
 21 22  1  6
 23 24  1  1
 23 25  1  0
 25 26  2  0
 25 27  1  0
 27 28  2  0
 27 33  1  0
 28 29  1  0
 29 30  2  0
 30 31  1  0
 30 32  1  0
 32 33  2  0
M  END
