
     RDKit          3D

 33 33  0  0  0  0  0  0  0  0999 V2000
    8.5560    0.8780   -3.4690 C   0  0  0  0  0  0  0  0  0  0  0  0
    7.8770   -0.3710   -3.4030 O   0  0  0  0  0  0  0  0  0  0  0  0
    7.2800   -0.7090   -2.2010 C   0  0  0  0  0  0  0  0  0  0  0  0
    7.3500    0.0690   -1.2300 O   0  0  0  0  0  0  0  0  0  0  0  0
    6.5440   -2.0050   -2.0370 C   0  0  0  0  0  0  0  0  0  0  0  0
    6.0100   -2.1220   -0.6480 C   0  0  0  0  0  0  0  0  0  0  0  0
    6.7160   -2.7310    0.3580 C   0  0  0  0  0  0  0  0  0  0  0  0
    6.2020   -2.8110    1.6450 C   0  0  0  0  0  0  0  0  0  0  0  0
    4.9740   -2.2900    1.9680 C   0  0  0  0  0  0  0  0  0  0  0  0
    4.4250   -2.3840    3.3470 C   0  0  0  0  0  0  0  0  0  0  0  0
    4.2410   -1.6660    0.9480 C   0  0  0  0  0  0  0  0  0  0  0  0
    2.9960   -1.1280    1.3060 N   0  0  0  0  0  0  0  0  0  0  0  0
    2.0420   -0.5990    0.4010 C   0  0  0  0  0  0  0  0  0  0  0  0
    2.2430   -0.5800   -0.8320 O   0  0  0  0  0  0  0  0  0  0  0  0
    0.7990   -0.0750    0.9380 N   0  0  0  0  0  0  0  0  0  0  0  0
   -0.1460    0.4240   -0.0250 C   0  0  0  0  0  0  0  0  0  0  0  0
   -1.3830    0.9310    0.6110 C   0  0  0  0  0  0  0  0  0  0  0  0
   -1.3590    1.3370    1.7770 O   0  0  0  0  0  0  0  0  0  0  0  0
   -2.6030    0.9670   -0.0610 O   0  0  0  0  0  0  0  0  0  0  0  0
   -3.7830    1.4380    0.5320 C   0  0  2  0  0  0  0  0  0  0  0  0
   -4.6720    0.2840    0.8880 C   0  0  0  0  0  0  0  0  0  0  0  0
   -5.1340   -0.6130   -0.1730 C   0  0  2  0  0  0  0  0  0  0  0  0
   -5.9510   -1.5920    0.4570 O   0  0  0  0  0  0  0  0  0  0  0  0
   -4.0510   -1.4150   -0.8500 C   0  0  0  0  0  0  0  0  0  0  0  0
   -4.6800   -2.3150   -1.9070 C   0  0  0  0  0  0  0  0  0  0  0  0
   -5.9470   -3.5340   -1.0830 Br  0  0  0  0  0  0  0  0  0  0  0  0
   -4.4500    2.5180   -0.1840 C   0  0  0  0  0  0  0  0  0  0  0  0
   -3.9810    3.0030   -1.2800 O   0  0  0  0  0  0  0  0  0  0  0  0
   -5.6520    3.1320    0.2370 N   0  0  0  0  0  0  0  0  0  0  0  0
   -6.3100    4.1940   -0.4750 C   0  0  0  0  0  0  0  0  0  0  0  0
   -7.5510    4.6310    0.2450 C   0  0  0  0  0  0  0  0  0  0  0  0
   -7.2240    5.0930    1.5320 O   0  0  0  0  0  0  0  0  0  0  0  0
    4.7580   -1.5900   -0.3220 C   0  0  0  0  0  0  0  0  0  0  0  0
  1  2  1  0
  2  3  1  0
  3  4  2  0
  3  5  1  0
  5  6  1  0
  6  7  2  0
  6 33  1  0
  7  8  1  0
  8  9  2  0
  9 10  1  0
  9 11  1  0
 11 12  1  0
 11 33  2  0
 12 13  1  0
 13 14  2  0
 13 15  1  0
 15 16  1  0
 16 17  1  0
 17 18  2  0
 17 19  1  0
 19 20  1  0
 20 21  1  6
 20 27  1  0
 21 22  1  0
 22 23  1  1
 22 24  1  0
 24 25  1  0
 25 26  1  0
 27 28  2  0
 27 29  1  0
 29 30  1  0
 30 31  1  0
 31 32  1  0
M  END
