
     RDKit          3D

 33 35  0  0  0  0  0  0  0  0999 V2000
    5.5210   -2.4740   -2.0560 C   0  0  0  0  0  0  0  0  0  0  0  0
    4.2900   -2.2890   -1.6560 C   0  0  0  0  0  0  0  0  0  0  0  0
    4.0060   -2.0360   -0.2330 C   0  0  1  0  0  0  0  0  0  0  0  0
    5.3110   -1.9960    0.5320 C   0  0  0  0  0  0  0  0  0  0  0  0
    3.3250   -0.7130    0.0050 C   0  0  0  0  0  0  0  0  0  0  0  0
    2.0290   -0.5540   -0.6640 C   0  0  0  0  0  0  0  0  0  0  0  0
    1.9750   -0.3310   -1.9300 O   0  0  0  0  0  0  0  0  0  0  0  0
    0.8150   -0.6300    0.0130 N   0  0  0  0  0  0  0  0  0  0  0  0
    0.9290   -1.1570    1.4100 C   0  0  0  0  0  0  0  0  0  0  0  0
    1.1380   -0.0790    2.3920 C   0  0  0  0  0  0  0  0  0  0  0  0
    1.0520    1.1090    2.0420 O   0  0  0  0  0  0  0  0  0  0  0  0
    1.4350   -0.3370    3.7200 O   0  0  0  0  0  0  0  0  0  0  0  0
    1.6350    0.7320    4.6520 C   0  0  0  0  0  0  0  0  0  0  0  0
   -0.4360   -0.1510   -0.3060 C   0  0  0  0  0  0  0  0  0  0  0  0
   -0.7430    0.9620   -0.8860 C   0  0  0  0  0  0  0  0  0  0  0  0
    0.0610    2.0250   -1.3370 C   0  0  0  0  0  0  0  0  0  0  0  0
   -0.5090    3.0140   -2.0560 C   0  0  0  0  0  0  0  0  0  0  0  0
    0.2020    4.1770   -2.5820 C   0  0  0  0  0  0  0  0  0  0  0  0
    1.6700    4.1310   -2.6890 C   0  0  0  0  0  0  0  0  0  0  0  0
    2.2270    2.8030   -2.2150 C   0  0  0  0  0  0  0  0  0  0  0  0
    1.4490    2.4020   -0.9670 C   0  0  0  0  0  0  0  0  0  0  0  0
   -2.2630    1.1350   -0.9750 C   0  0  0  0  0  0  0  0  0  0  0  0
   -2.6960    1.0280    0.5030 C   0  0  0  0  0  0  0  0  0  0  0  0
   -2.6120   -0.4000    0.8910 C   0  0  1  0  0  0  0  0  0  0  0  0
   -3.8960   -1.0850    1.0090 C   0  0  0  0  0  0  0  0  0  0  0  0
   -4.4070   -1.3730    2.2510 C   0  0  0  0  0  0  0  0  0  0  0  0
   -5.6140   -2.0210    2.4410 C   0  0  0  0  0  0  0  0  0  0  0  0
   -6.3320   -2.3930    1.3100 C   0  0  0  0  0  0  0  0  0  0  0  0
   -5.8630   -2.1280    0.0440 C   0  0  0  0  0  0  0  0  0  0  0  0
   -6.6130   -2.5170   -1.1540 C   0  0  0  0  0  0  0  0  0  0  0  0
   -7.7120   -3.1020   -1.0160 O   0  0  0  0  0  0  0  0  0  0  0  0
   -4.6340   -1.4690   -0.0920 C   0  0  0  0  0  0  0  0  0  0  0  0
   -1.6380   -1.0870   -0.0210 C   0  0  0  0  0  0  0  0  0  0  0  0
  1  2  2  0
  2  3  1  0
  3  4  1  1
  3  5  1  0
  5  6  1  0
  6  7  2  0
  6  8  1  0
  8  9  1  0
  8 14  1  0
  9 10  1  0
 10 11  2  0
 10 12  1  0
 12 13  1  0
 14 15  2  0
 14 33  1  0
 15 16  1  0
 15 22  1  0
 16 17  2  0
 16 21  1  0
 17 18  1  0
 18 19  1  0
 19 20  1  0
 20 21  1  0
 22 23  1  0
 23 24  1  0
 24 25  1  6
 24 33  1  0
 25 26  2  0
 25 32  1  0
 26 27  1  0
 27 28  2  0
 28 29  1  0
 29 30  1  0
 29 32  2  0
 30 31  2  0
M  END
