
     RDKit          3D

 33 33  0  0  0  0  0  0  0  0999 V2000
    6.9460   -1.6620   -0.9250 C   0  0  0  0  0  0  0  0  0  0  0  0
    6.8940   -0.6280    0.1220 C   0  0  0  0  0  0  0  0  0  0  0  0
    6.1780    0.6430   -0.1530 C   0  0  1  0  0  0  0  0  0  0  0  0
    6.7980    1.3430   -1.3580 C   0  0  0  0  0  0  0  0  0  0  0  0
    4.7600    0.6360   -0.1420 N   0  0  0  0  0  0  0  0  0  0  0  0
    3.8880   -0.0710   -1.0060 C   0  0  0  0  0  0  0  0  0  0  0  0
    4.4110   -0.7770   -1.9040 O   0  0  0  0  0  0  0  0  0  0  0  0
    2.4210    0.0000   -0.8810 C   0  0  0  0  0  0  0  0  0  0  0  0
    1.6200   -0.5580   -1.8860 C   0  0  0  0  0  0  0  0  0  0  0  0
    0.2360   -0.5130   -1.7980 C   0  0  0  0  0  0  0  0  0  0  0  0
   -0.3760    0.0850   -0.7140 C   0  0  0  0  0  0  0  0  0  0  0  0
   -1.7680    0.1540   -0.5830 O   0  0  0  0  0  0  0  0  0  0  0  0
   -2.4410   -0.8610    0.0630 C   0  0  0  0  0  0  0  0  0  0  0  0
   -1.7650   -1.8210    0.5140 O   0  0  0  0  0  0  0  0  0  0  0  0
   -3.9410   -0.8320    0.2300 C   0  0  1  0  0  0  0  0  0  0  0  0
   -4.2550    0.3270    1.1180 C   0  0  0  0  0  0  0  0  0  0  0  0
   -4.5380   -0.7380   -1.1280 C   0  0  0  0  0  0  0  0  0  0  0  0
   -6.0160   -0.6890   -1.2080 C   0  0  0  0  0  0  0  0  0  0  0  0
   -6.6520    0.3760   -0.6350 O   0  0  0  0  0  0  0  0  0  0  0  0
   -6.3120    1.5630   -1.2520 C   0  0  0  0  0  0  0  0  0  0  0  0
   -7.0360    2.7500   -0.6640 C   0  0  0  0  0  0  0  0  0  0  0  0
   -6.6740    3.0210    1.2030 Br  0  0  0  0  0  0  0  0  0  0  0  0
   -4.3320   -2.0360    0.9420 N   0  0  0  0  0  0  0  0  0  0  0  0
   -4.0140   -3.2890    0.3690 C   0  0  0  0  0  0  0  0  0  0  0  0
   -4.4090   -4.4540    1.0850 N   0  0  0  0  0  0  0  0  0  0  0  0
   -3.4140   -3.4590   -0.7160 O   0  0  0  0  0  0  0  0  0  0  0  0
    0.3870    0.6410    0.2870 C   0  0  0  0  0  0  0  0  0  0  0  0
   -0.2410    1.2390    1.3720 O   0  0  0  0  0  0  0  0  0  0  0  0
    0.5700    1.8010    2.3830 C   0  0  0  0  0  0  0  0  0  0  0  0
    1.7610    0.5790    0.1700 C   0  0  0  0  0  0  0  0  0  0  0  0
    6.6100    1.5630    0.9890 C   0  0  0  0  0  0  0  0  0  0  0  0
    5.7800    2.1410    1.7220 O   0  0  0  0  0  0  0  0  0  0  0  0
    7.9570    1.7780    1.2380 O   0  0  0  0  0  0  0  0  0  0  0  0
  1  2  1  0
  2  3  1  0
  3  4  1  6
  3  5  1  0
  3 31  1  0
  5  6  1  0
  6  7  2  0
  6  8  1  0
  8  9  2  0
  8 30  1  0
  9 10  1  0
 10 11  2  0
 11 12  1  0
 11 27  1  0
 12 13  1  0
 13 14  2  0
 13 15  1  0
 15 16  1  1
 15 17  1  0
 15 23  1  0
 17 18  1  0
 18 19  1  0
 19 20  1  0
 20 21  1  0
 21 22  1  0
 23 24  1  0
 24 25  1  0
 24 26  2  0
 27 28  1  0
 27 30  2  0
 28 29  1  0
 31 32  2  0
 31 33  1  0
M  END
