
     RDKit          3D

 34 38  0  0  0  0  0  0  0  0999 V2000
    0.3350    0.0760   -1.3050 O   0  0  0  0  0  0  0  0  0  0  0  0
   -0.3650    1.1320   -1.1210 C   0  0  0  0  0  0  0  0  0  0  0  0
    0.0970    2.2900   -1.7900 N   0  0  0  0  0  0  0  0  0  0  0  0
    1.2880    2.2710   -2.6260 C   0  0  0  0  0  0  0  0  0  0  0  0
    2.4900    1.8880   -1.8380 C   0  0  0  0  0  0  0  0  0  0  0  0
    2.5600    1.7010   -0.4680 C   0  0  0  0  0  0  0  0  0  0  0  0
    3.8840    1.3550   -0.2190 C   0  0  0  0  0  0  0  0  0  0  0  0
    4.5420    1.3500   -1.4350 C   0  0  0  0  0  0  0  0  0  0  0  0
    5.9980    1.0270   -1.6200 C   0  0  1  0  0  0  0  0  0  0  0  0
    6.4730    0.2160   -0.4390 C   0  0  0  0  0  0  0  0  0  0  0  0
    7.5590   -0.4670   -0.9810 O   0  0  0  0  0  0  0  0  0  0  0  0
    7.2170   -0.7810   -2.2900 C   0  0  0  0  0  0  0  0  0  0  0  0
    6.2150    0.1420   -2.7210 N   0  0  0  0  0  0  0  0  0  0  0  0
    3.6720    1.6690   -2.3330 O   0  0  0  0  0  0  0  0  0  0  0  0
   -1.5600    1.1020   -0.2660 C   0  0  0  0  0  0  0  0  0  0  0  0
   -2.2370    2.2070   -0.1170 C   0  0  0  0  0  0  0  0  0  0  0  0
   -3.4340    2.2850    0.6940 C   0  0  0  0  0  0  0  0  0  0  0  0
   -4.5870    1.5590    0.4940 C   0  0  0  0  0  0  0  0  0  0  0  0
   -5.6820    1.6640    1.3190 C   0  0  0  0  0  0  0  0  0  0  0  0
   -6.7700    0.9220    1.0600 F   0  0  0  0  0  0  0  0  0  0  0  0
   -5.6770    2.5100    2.3920 C   0  0  0  0  0  0  0  0  0  0  0  0
   -4.5420    3.2520    2.6220 C   0  0  0  0  0  0  0  0  0  0  0  0
   -3.4610    3.1430    1.8020 C   0  0  0  0  0  0  0  0  0  0  0  0
   -2.3460    3.8780    2.0350 F   0  0  0  0  0  0  0  0  0  0  0  0
   -1.8960   -0.1250    0.4480 C   0  0  0  0  0  0  0  0  0  0  0  0
   -2.8440   -0.2870    1.3000 N   0  0  0  0  0  0  0  0  0  0  0  0
   -2.9070   -1.6050    1.8150 C   0  0  0  0  0  0  0  0  0  0  0  0
   -3.4990   -1.9870    2.8590 O   0  0  0  0  0  0  0  0  0  0  0  0
   -2.1180   -2.4150    0.8410 C   0  0  1  0  0  0  0  0  0  0  0  0
   -1.4160   -3.5330    1.5340 C   0  0  0  0  0  0  0  0  0  0  0  0
   -2.0770   -4.7800    0.9810 C   0  0  0  0  0  0  0  0  0  0  0  0
   -2.5100   -4.4150   -0.3990 C   0  0  0  0  0  0  0  0  0  0  0  0
   -2.9300   -2.9770   -0.2760 C   0  0  0  0  0  0  0  0  0  0  0  0
   -1.2170   -1.3820    0.3320 N   0  0  0  0  0  0  0  0  0  0  0  0
  1  2  2  0
  2  3  1  0
  2 15  1  0
  3  4  1  0
  4  5  1  0
  5  6  2  0
  5 14  1  0
  6  7  1  0
  7  8  2  0
  9  8  1  1
  8 14  1  0
  9 10  1  0
  9 13  1  0
 10 11  1  0
 11 12  1  0
 12 13  1  0
 15 16  2  3
 15 25  1  0
 16 17  1  0
 17 18  2  0
 17 23  1  0
 18 19  1  0
 19 20  1  0
 19 21  2  0
 21 22  1  0
 22 23  2  0
 23 24  1  0
 25 26  2  0
 25 34  1  0
 26 27  1  0
 27 28  2  0
 27 29  1  0
 29 30  1  1
 29 33  1  0
 29 34  1  0
 30 31  1  0
 31 32  1  0
 32 33  1  0
M  END
