
     RDKit          3D

 34 38  0  0  0  0  0  0  0  0999 V2000
   -1.7500    1.4930   -2.0460 C   0  0  0  0  0  0  0  0  0  0  0  0
   -2.4820    0.4750   -1.2580 C   0  0  0  0  0  0  0  0  0  0  0  0
   -1.8710   -0.7200   -0.9560 C   0  0  0  0  0  0  0  0  0  0  0  0
   -2.6340   -1.6700   -0.2840 C   0  0  0  0  0  0  0  0  0  0  0  0
   -3.9380   -1.3720    0.0480 C   0  0  0  0  0  0  0  0  0  0  0  0
   -4.5870   -2.2530    0.6540 O   0  0  0  0  0  0  0  0  0  0  0  0
   -4.5450   -0.2120   -0.2350 N   0  0  0  0  0  0  0  0  0  0  0  0
   -5.9040    0.0190    0.1470 C   0  0  0  0  0  0  0  0  0  0  0  0
   -6.9290   -0.3470   -0.6940 C   0  0  0  0  0  0  0  0  0  0  0  0
   -8.2400   -0.1480   -0.3760 C   0  0  0  0  0  0  0  0  0  0  0  0
   -8.5580    0.4370    0.8250 C   0  0  0  0  0  0  0  0  0  0  0  0
   -7.5440    0.8100    1.6780 C   0  0  0  0  0  0  0  0  0  0  0  0
   -8.0160    1.5600    3.2120 Cl  0  0  0  0  0  0  0  0  0  0  0  0
   -6.2150    0.6140    1.3670 C   0  0  0  0  0  0  0  0  0  0  0  0
   -3.8150    0.7020   -0.8850 C   0  0  0  0  0  0  0  0  0  0  0  0
   -4.3970    2.0190   -1.2460 C   0  0  0  0  0  0  0  0  0  0  0  0
   -1.7860   -2.8860   -0.1400 C   0  0  0  0  0  0  0  0  0  0  0  0
   -0.7860   -2.6970   -1.2580 C   0  0  0  0  0  0  0  0  0  0  0  0
   -0.5390   -1.2500   -1.1610 N   0  0  0  0  0  0  0  0  0  0  0  0
    0.8750   -0.3680   -1.3340 S   0  0  1  0  0  0  0  0  0  0  0  0
    1.5440   -0.5200   -2.6720 O   0  0  0  0  0  0  0  0  0  0  0  0
    0.7450    1.1210   -0.9850 O   0  0  0  0  0  0  0  0  0  0  0  0
    2.0700   -0.8640   -0.1600 C   0  0  0  0  0  0  0  0  0  0  0  0
    1.8310   -1.8300    0.7490 C   0  0  0  0  0  0  0  0  0  0  0  0
    2.8500   -2.1630    1.6560 C   0  0  0  0  0  0  0  0  0  0  0  0
    4.0470   -1.4920    1.5790 C   0  0  0  0  0  0  0  0  0  0  0  0
    4.2680   -0.5110    0.6450 C   0  0  0  0  0  0  0  0  0  0  0  0
    5.5170    0.2080    0.5560 N   0  0  0  0  0  0  0  0  0  0  0  0
    6.4890    0.0210    1.5780 C   0  0  0  0  0  0  0  0  0  0  0  0
    7.3740    1.2040    1.8560 C   0  0  0  0  0  0  0  0  0  0  0  0
    7.8730    1.7870    0.5770 C   0  0  0  0  0  0  0  0  0  0  0  0
    6.7210    2.1920   -0.3180 C   0  0  0  0  0  0  0  0  0  0  0  0
    5.7620    1.0870   -0.5620 C   0  0  0  0  0  0  0  0  0  0  0  0
    3.2640   -0.2410   -0.1860 N   0  0  0  0  0  0  0  0  0  0  0  0
  1  2  1  0
  2  3  1  0
  2 15  2  0
  3  4  2  0
  3 19  1  0
  4  5  1  0
  4 17  1  0
  5  6  2  0
  5  7  1  0
  7  8  1  0
  7 15  1  0
  8  9  2  0
  8 14  1  0
  9 10  1  0
 10 11  2  0
 11 12  1  0
 12 13  1  0
 12 14  2  0
 15 16  1  0
 17 18  1  0
 18 19  1  0
 20 19  1  6
 20 21  2  0
 20 22  2  0
 20 23  1  0
 23 24  2  0
 23 34  1  0
 24 25  1  0
 25 26  2  0
 26 27  1  0
 27 28  1  0
 27 34  2  0
 28 29  1  0
 28 33  1  0
 29 30  1  0
 30 31  1  0
 31 32  1  0
 32 33  1  0
M  END
