
     RDKit          3D

 34 38  0  0  0  0  0  0  0  0999 V2000
    8.6540   -0.0750    2.7290 C   0  0  0  0  0  0  0  0  0  0  0  0
    7.4370   -0.2220    1.8860 C   0  0  0  0  0  0  0  0  0  0  0  0
    6.8120   -1.4380    1.7140 C   0  0  0  0  0  0  0  0  0  0  0  0
    5.6790   -1.5830    0.9300 C   0  0  0  0  0  0  0  0  0  0  0  0
    5.1260   -0.4930    0.2830 C   0  0  0  0  0  0  0  0  0  0  0  0
    5.7420    0.7250    0.4480 C   0  0  0  0  0  0  0  0  0  0  0  0
    6.8730    0.8620    1.2320 C   0  0  0  0  0  0  0  0  0  0  0  0
    7.6630    2.4240    1.4450 Cl  0  0  0  0  0  0  0  0  0  0  0  0
    3.9870   -0.8780   -0.4520 N   0  0  0  0  0  0  0  0  0  0  0  0
    3.1240   -0.0280   -1.2730 C   0  0  0  0  0  0  0  0  0  0  0  0
    1.9990    0.0550   -1.6200 N   0  0  0  0  0  0  0  0  0  0  0  0
    1.4410    0.9510   -2.3910 C   0  0  0  0  0  0  0  0  0  0  0  0
    0.0120    0.9730   -2.7690 C   0  0  0  0  0  0  0  0  0  0  0  0
   -0.3950    1.9250   -3.5410 O   0  0  0  0  0  0  0  0  0  0  0  0
   -0.9670    0.0570   -2.3740 N   0  0  0  0  0  0  0  0  0  0  0  0
   -0.7400   -1.0880   -1.5250 C   0  0  0  0  0  0  0  0  0  0  0  0
   -1.5430   -0.8380   -0.2720 C   0  0  0  0  0  0  0  0  0  0  0  0
   -2.7420   -0.2450   -0.4130 C   0  0  0  0  0  0  0  0  0  0  0  0
   -3.5280   -0.0020    0.8430 C   0  0  0  0  0  0  0  0  0  0  0  0
   -4.7670   -0.5930    0.9590 N   0  0  0  0  0  0  0  0  0  0  0  0
   -5.9050   -0.2260    0.2490 C   0  0  0  0  0  0  0  0  0  0  0  0
   -6.8330    0.7010    1.0350 C   0  0  0  0  0  0  0  0  0  0  0  0
   -6.9890    0.3220    2.4640 C   0  0  0  0  0  0  0  0  0  0  0  0
   -5.8260   -0.3680    3.0910 C   0  0  0  0  0  0  0  0  0  0  0  0
   -5.0490   -1.2670    2.1730 C   0  0  0  0  0  0  0  0  0  0  0  0
   -3.2800    0.1470   -1.7080 C   0  0  0  0  0  0  0  0  0  0  0  0
   -2.3470    0.2870   -2.8580 C   0  0  0  0  0  0  0  0  0  0  0  0
    2.2980    1.9230   -2.8530 C   0  0  0  0  0  0  0  0  0  0  0  0
    2.0700    3.1060   -3.7380 C   0  0  0  0  0  0  0  0  0  0  0  0
    3.8680    1.4430   -2.1130 S   0  0  0  0  0  0  0  0  0  0  0  0
    3.7940   -2.2460   -0.2800 C   0  0  0  0  0  0  0  0  0  0  0  0
    2.8790   -2.9360   -0.7820 O   0  0  0  0  0  0  0  0  0  0  0  0
    4.8560   -2.7460    0.6020 C   0  0  0  0  0  0  0  0  0  0  0  0
    5.0210   -3.9160    0.9870 O   0  0  0  0  0  0  0  0  0  0  0  0
  1  2  1  0
  2  3  2  0
  2  7  1  0
  3  4  1  0
  4  5  2  0
  4 33  1  0
  5  6  1  0
  5  9  1  0
  6  7  2  0
  7  8  1  0
  9 10  1  0
  9 31  1  0
 10 11  2  0
 10 30  1  0
 11 12  1  0
 12 13  1  0
 12 28  2  0
 13 14  2  0
 13 15  1  0
 15 16  1  0
 15 27  1  0
 16 17  1  0
 17 18  2  0
 18 19  1  0
 18 26  1  0
 19 20  1  0
 20 21  1  0
 20 25  1  0
 21 22  1  0
 22 23  1  0
 23 24  1  0
 24 25  1  0
 26 27  1  0
 28 29  1  0
 28 30  1  0
 31 32  2  0
 31 33  1  0
 33 34  2  0
M  END
