
     RDKit          3D

 33 36  0  0  0  0  0  0  0  0999 V2000
   -8.1310   -0.2470   -0.8270 C   0  0  0  0  0  0  0  0  0  0  0  0
   -7.9090    1.1650   -0.4070 C   0  0  0  0  0  0  0  0  0  0  0  0
   -7.0270    1.3780    0.7570 C   0  0  0  0  0  0  0  0  0  0  0  0
   -5.6460    0.8980    0.6660 C   0  0  0  0  0  0  0  0  0  0  0  0
   -5.2920   -0.3970    0.9550 C   0  0  0  0  0  0  0  0  0  0  0  0
   -6.2960   -1.3970    1.4720 C   0  0  0  0  0  0  0  0  0  0  0  0
   -3.9810   -0.7720    0.8040 C   0  0  0  0  0  0  0  0  0  0  0  0
   -2.9540    0.0690    0.3750 C   0  0  0  0  0  0  0  0  0  0  0  0
   -1.6330   -0.4700    0.2600 N   0  0  0  0  0  0  0  0  0  0  0  0
   -0.4440    0.2520    0.1000 C   0  0  0  0  0  0  0  0  0  0  0  0
   -0.4890    1.5050    0.0460 O   0  0  0  0  0  0  0  0  0  0  0  0
    0.8940   -0.3710   -0.0110 C   0  0  0  0  0  0  0  0  0  0  0  0
    1.9780    0.3860   -0.1650 C   0  0  0  0  0  0  0  0  0  0  0  0
    3.2580   -0.3140   -0.2640 C   0  0  0  0  0  0  0  0  0  0  0  0
    4.3960    0.3460   -0.0220 C   0  0  0  0  0  0  0  0  0  0  0  0
    5.6880   -0.4230   -0.1370 C   0  0  2  0  0  0  0  0  0  0  0  0
    6.8500    0.4320    0.0520 C   0  0  0  0  0  0  0  0  0  0  0  0
    7.5910    0.2380    1.1840 N   0  0  0  0  0  0  0  0  0  0  0  0
    8.6670    0.9570    1.4550 C   0  0  0  0  0  0  0  0  0  0  0  0
    9.0350    1.9350    0.5390 C   0  0  0  0  0  0  0  0  0  0  0  0
    8.2770    2.1170   -0.5990 C   0  0  0  0  0  0  0  0  0  0  0  0
    8.5830    3.0020   -1.4580 O   0  0  0  0  0  0  0  0  0  0  0  0
    7.2050    1.3710   -0.8250 N   0  0  0  0  0  0  0  0  0  0  0  0
    5.6220   -1.1550   -1.4080 C   0  0  0  0  0  0  0  0  0  0  0  0
    6.5640   -1.2360   -2.2410 O   0  0  0  0  0  0  0  0  0  0  0  0
    4.3700   -1.8200   -1.6950 N   0  0  0  0  0  0  0  0  0  0  0  0
    3.3840   -1.7520   -0.6250 C   0  0  2  0  0  0  0  0  0  0  0  0
    2.0900   -2.4130   -0.9240 C   0  0  0  0  0  0  0  0  0  0  0  0
    1.0950   -1.8100    0.0380 C   0  0  0  0  0  0  0  0  0  0  0  0
    0.4470   -2.4880    0.8650 O   0  0  0  0  0  0  0  0  0  0  0  0
   -3.3180    1.3510    0.0930 C   0  0  0  0  0  0  0  0  0  0  0  0
   -4.6270    1.7670    0.2320 C   0  0  0  0  0  0  0  0  0  0  0  0
   -4.9740    3.0500   -0.0530 F   0  0  0  0  0  0  0  0  0  0  0  0
  1  2  1  0
  2  3  1  0
  3  4  1  0
  4  5  2  0
  4 32  1  0
  5  6  1  0
  5  7  1  0
  7  8  2  0
  8  9  1  0
  8 31  1  0
  9 10  1  0
 10 11  2  0
 10 12  1  0
 12 13  2  0
 12 29  1  0
 13 14  1  0
 14 15  2  0
 14 27  1  0
 15 16  1  0
 16 17  1  6
 16 24  1  0
 17 18  2  0
 17 23  1  0
 18 19  1  0
 19 20  2  0
 20 21  1  0
 21 22  2  0
 21 23  1  0
 24 25  2  0
 24 26  1  0
 26 27  1  0
 27 28  1  6
 28 29  1  0
 29 30  2  0
 31 32  2  0
 32 33  1  0
M  END
