
     RDKit          3D

 35 39  0  0  0  0  0  0  0  0999 V2000
   -0.0740   -0.6250   -0.1740 O   0  0  0  0  0  0  0  0  0  0  0  0
    0.4380   -1.3270    0.7070 C   0  0  0  0  0  0  0  0  0  0  0  0
    1.8700   -0.9980    1.0770 C   0  0  0  0  0  0  0  0  0  0  0  0
    2.3720    0.0970    0.3080 N   0  0  0  0  0  0  0  0  0  0  0  0
    3.3700   -0.3190   -0.6660 C   0  0  0  0  0  0  0  0  0  0  0  0
    3.7900    0.8210   -1.5540 C   0  0  0  0  0  0  0  0  0  0  0  0
    4.3860    1.9550   -0.8010 C   0  0  0  0  0  0  0  0  0  0  0  0
    3.7890    3.1620   -0.5060 C   0  0  0  0  0  0  0  0  0  0  0  0
    4.6650    3.9090    0.1870 N   0  0  0  0  0  0  0  0  0  0  0  0
    5.8220    3.2250    0.3550 C   0  0  0  0  0  0  0  0  0  0  0  0
    7.0230    3.5340    0.9850 C   0  0  0  0  0  0  0  0  0  0  0  0
    8.0540    2.6240    1.0000 C   0  0  0  0  0  0  0  0  0  0  0  0
    7.8540    1.4070    0.3740 C   0  0  0  0  0  0  0  0  0  0  0  0
    6.6780    1.1070   -0.2420 C   0  0  0  0  0  0  0  0  0  0  0  0
    5.6490    2.0110   -0.2590 C   0  0  0  0  0  0  0  0  0  0  0  0
   -0.2600   -2.3610    1.3270 N   0  0  0  0  0  0  0  0  0  0  0  0
   -1.5900   -2.7720    1.1520 C   0  0  0  0  0  0  0  0  0  0  0  0
   -2.0540   -4.5020    1.4300 S   0  0  0  0  0  0  0  0  0  0  0  0
   -3.7540   -4.2950    1.0680 C   0  0  0  0  0  0  0  0  0  0  0  0
   -3.9050   -2.9210    0.7580 C   0  0  0  0  0  0  0  0  0  0  0  0
   -2.7820   -2.1820    0.8140 C   0  0  0  0  0  0  0  0  0  0  0  0
   -2.8770   -0.6800    0.7930 C   0  0  0  0  0  0  0  0  0  0  0  0
   -2.0230    0.0370    1.3980 O   0  0  0  0  0  0  0  0  0  0  0  0
   -3.8670    0.0560    0.1210 N   0  0  0  0  0  0  0  0  0  0  0  0
   -3.9070    1.5230    0.1670 C   0  0  0  0  0  0  0  0  0  0  0  0
   -2.9220    2.1610   -0.7010 C   0  0  0  0  0  0  0  0  0  0  0  0
   -2.7930    3.5320   -0.6410 C   0  0  0  0  0  0  0  0  0  0  0  0
   -1.9040    4.2030   -1.4170 C   0  0  0  0  0  0  0  0  0  0  0  0
   -1.1020    3.5080   -2.2920 C   0  0  0  0  0  0  0  0  0  0  0  0
   -1.2200    2.1170   -2.3660 C   0  0  0  0  0  0  0  0  0  0  0  0
   -2.1280    1.4490   -1.5710 C   0  0  0  0  0  0  0  0  0  0  0  0
   -5.3910   -2.6860    0.5050 C   0  0  0  0  0  0  0  0  0  0  0  0
   -5.7040   -3.5350   -0.7070 C   0  0  0  0  0  0  0  0  0  0  0  0
   -5.7750   -4.9740   -0.2020 C   0  0  0  0  0  0  0  0  0  0  0  0
   -4.9220   -5.2020    1.0130 C   0  0  0  0  0  0  0  0  0  0  0  0
  1  2  2  0
  2  3  1  0
  2 16  1  0
  3  4  1  0
  4  5  1  0
  5  6  1  0
  6  7  1  0
  7  8  2  0
  7 15  1  0
  8  9  1  0
  9 10  1  0
 10 11  2  0
 10 15  1  0
 11 12  1  0
 12 13  2  0
 13 14  1  0
 14 15  2  0
 16 17  1  0
 17 18  1  0
 17 21  2  0
 18 19  1  0
 19 20  2  0
 19 35  1  0
 20 21  1  0
 20 32  1  0
 21 22  1  0
 22 23  2  0
 22 24  1  0
 24 25  1  0
 25 26  1  0
 26 27  2  0
 26 31  1  0
 27 28  1  0
 28 29  2  0
 29 30  1  0
 30 31  2  0
 32 33  1  0
 33 34  1  0
 34 35  1  0
M  CHG  1   4   1
M  END
