
     RDKit          3D

 34 37  0  0  0  0  0  0  0  0999 V2000
    0.9000   -5.4290   -1.7140 C   0  0  0  0  0  0  0  0  0  0  0  0
    1.3830   -4.9370   -0.3920 C   0  0  0  0  0  0  0  0  0  0  0  0
    1.0070   -3.5660   -0.1100 N   0  0  0  0  0  0  0  0  0  0  0  0
   -0.2320   -3.3180    0.5480 C   0  0  0  0  0  0  0  0  0  0  0  0
   -0.7360   -4.3640    1.0460 O   0  0  0  0  0  0  0  0  0  0  0  0
   -1.0310   -2.0680    0.7530 C   0  0  0  0  0  0  0  0  0  0  0  0
   -0.3440   -0.9680   -0.1680 C   0  0  1  0  0  0  0  0  0  0  0  0
   -1.3890    0.0380   -0.4380 C   0  0  0  0  0  0  0  0  0  0  0  0
   -2.3910    0.2810    0.5010 C   0  0  0  0  0  0  0  0  0  0  0  0
   -3.3380    1.2340    0.2910 C   0  0  0  0  0  0  0  0  0  0  0  0
   -4.3530    1.4790    1.3400 C   0  0  0  0  0  0  0  0  0  0  0  0
   -5.4040    2.3550    1.2870 C   0  0  0  0  0  0  0  0  0  0  0  0
   -6.1210    2.2900    2.4860 C   0  0  0  0  0  0  0  0  0  0  0  0
   -5.4740    1.3750    3.2130 N   0  0  0  0  0  0  0  0  0  0  0  0
   -4.4280    0.8910    2.5420 N   0  0  0  0  0  0  0  0  0  0  0  0
   -3.3460    1.9960   -0.8580 C   0  0  0  0  0  0  0  0  0  0  0  0
   -2.3680    1.7760   -1.8020 C   0  0  0  0  0  0  0  0  0  0  0  0
   -1.4220    0.8150   -1.5750 C   0  0  0  0  0  0  0  0  0  0  0  0
   -0.4310    0.6130   -2.5640 O   0  0  0  0  0  0  0  0  0  0  0  0
    0.8680   -0.5640    0.5860 C   0  0  2  0  0  0  0  0  0  0  0  0
    1.1830    0.7630    1.0520 C   0  0  0  0  0  0  0  0  0  0  0  0
    1.4190    1.9160    0.2270 C   0  0  0  0  0  0  0  0  0  0  0  0
    0.4450    2.5980   -0.2260 O   0  0  0  0  0  0  0  0  0  0  0  0
    2.7830    2.3820   -0.1440 C   0  0  0  0  0  0  0  0  0  0  0  0
    2.8720    3.4580   -0.9880 C   0  0  0  0  0  0  0  0  0  0  0  0
    4.1470    3.9360   -1.3080 C   0  0  0  0  0  0  0  0  0  0  0  0
    4.2290    4.9990   -2.1390 F   0  0  0  0  0  0  0  0  0  0  0  0
    5.3010    3.3530   -0.7960 C   0  0  0  0  0  0  0  0  0  0  0  0
    5.1780    2.2810    0.0420 C   0  0  0  0  0  0  0  0  0  0  0  0
    6.2980    1.7120    0.5450 F   0  0  0  0  0  0  0  0  0  0  0  0
    3.9000    1.7910    0.3700 C   0  0  0  0  0  0  0  0  0  0  0  0
    1.9930   -1.1960   -0.1720 N   0  0  0  0  0  0  0  0  0  0  0  0
    1.9610   -2.5670   -0.5420 C   0  0  0  0  0  0  0  0  0  0  0  0
    2.8620   -2.9260   -1.3230 O   0  0  0  0  0  0  0  0  0  0  0  0
  1  2  1  0
  2  3  1  0
  3  4  1  0
  3 33  1  0
  4  5  2  0
  4  6  1  0
  6  7  1  0
  7  8  1  1
  7 20  1  0
  8  9  2  0
  8 18  1  0
  9 10  1  0
 10 11  1  0
 10 16  2  0
 11 12  1  0
 11 15  2  0
 12 13  2  0
 13 14  1  0
 14 15  1  0
 16 17  1  0
 17 18  2  0
 18 19  1  0
 20 21  1  6
 20 32  1  0
 21 22  1  0
 22 23  2  0
 22 24  1  0
 24 25  2  0
 24 31  1  0
 25 26  1  0
 26 27  1  0
 26 28  2  0
 28 29  1  0
 29 30  1  0
 29 31  2  0
 32 33  1  0
 33 34  2  0
M  END
