
     RDKit          3D

 33 35  0  0  0  0  0  0  0  0999 V2000
   -3.5940   -1.2120   -2.2270 N   0  0  0  0  0  0  0  0  0  0  0  0
   -3.3420    0.0750   -1.6610 C   0  0  0  0  0  0  0  0  0  0  0  0
   -4.1590    1.0010   -1.9020 O   0  0  0  0  0  0  0  0  0  0  0  0
   -2.1540    0.2380   -0.8610 C   0  0  1  0  0  0  0  0  0  0  0  0
   -1.7980    1.5240   -0.3410 O   0  0  0  0  0  0  0  0  0  0  0  0
   -0.3900    1.5310    0.0020 C   0  0  0  0  0  0  0  0  0  0  0  0
    0.2060    2.6560   -0.1540 O   0  0  0  0  0  0  0  0  0  0  0  0
    0.2820    0.4190    0.4820 N   0  0  0  0  0  0  0  0  0  0  0  0
    1.6540    0.2380    0.6730 N   0  0  0  0  0  0  0  0  0  0  0  0
    2.5980    1.0620    0.0040 C   0  0  0  0  0  0  0  0  0  0  0  0
    2.2240    1.9880   -0.7530 O   0  0  0  0  0  0  0  0  0  0  0  0
    4.0630    0.9060    0.1390 C   0  0  0  0  0  0  0  0  0  0  0  0
    4.6670   -0.0780    0.8010 N   0  0  0  0  0  0  0  0  0  0  0  0
    6.0330   -0.2010    0.7900 C   0  0  0  0  0  0  0  0  0  0  0  0
    6.7450   -1.3300    1.4840 C   0  0  0  0  0  0  0  0  0  0  0  0
    8.0880   -0.9770    1.6480 O   0  0  0  0  0  0  0  0  0  0  0  0
    6.8680    0.6780    0.1030 C   0  0  0  0  0  0  0  0  0  0  0  0
    6.2690    1.6920   -0.5720 C   0  0  0  0  0  0  0  0  0  0  0  0
    4.8780    1.8110   -0.5620 C   0  0  0  0  0  0  0  0  0  0  0  0
    4.2900    2.8460   -1.2610 O   0  0  0  0  0  0  0  0  0  0  0  0
   -0.5260   -0.8060    0.6650 C   0  0  0  0  0  0  0  0  0  0  0  0
   -0.0340   -1.8300    1.0930 O   0  0  0  0  0  0  0  0  0  0  0  0
   -1.9520   -0.6680    0.3050 C   0  0  0  0  0  0  0  0  0  0  0  0
   -2.8630   -1.2100    1.0830 C   0  0  0  0  0  0  0  0  0  0  0  0
   -4.2910   -0.9160    0.8280 C   0  0  0  0  0  0  0  0  0  0  0  0
   -4.7780    0.3890    1.0020 C   0  0  0  0  0  0  0  0  0  0  0  0
   -6.1050    0.3680    0.6820 C   0  0  0  0  0  0  0  0  0  0  0  0
   -6.3880   -0.9340    0.3240 C   0  0  0  0  0  0  0  0  0  0  0  0
   -7.7570   -1.3440   -0.1200 C   0  0  2  0  0  0  0  0  0  0  0  0
   -7.8690   -2.7090   -0.1390 F   0  0  0  0  0  0  0  0  0  0  0  0
   -7.9150   -0.9140   -1.4830 F   0  0  0  0  0  0  0  0  0  0  0  0
   -8.7240   -0.6920    0.6050 F   0  0  0  0  0  0  0  0  0  0  0  0
   -5.2910   -1.6360    0.4350 O   0  0  0  0  0  0  0  0  0  0  0  0
  1  2  1  0
  2  3  2  0
  4  2  1  1
  4  5  1  0
  4 23  1  0
  5  6  1  0
  6  7  2  0
  6  8  1  0
  8  9  1  0
  8 21  1  0
  9 10  1  0
 10 11  2  0
 10 12  1  0
 12 13  2  0
 12 19  1  0
 13 14  1  0
 14 15  1  0
 14 17  2  0
 15 16  1  0
 17 18  1  0
 18 19  2  0
 19 20  1  0
 21 22  2  0
 21 23  1  0
 23 24  2  3
 24 25  1  0
 25 26  2  0
 25 33  1  0
 26 27  1  0
 27 28  2  0
 28 29  1  0
 28 33  1  0
 29 30  1  6
 29 31  1  0
 29 32  1  0
M  END
