
     RDKit          3D

 32 33  0  0  0  0  0  0  0  0999 V2000
   -3.1580    0.7490    1.5830 C   0  0  0  0  0  0  0  0  0  0  0  0
   -3.0650    1.0310    0.1070 C   0  0  1  0  0  0  0  0  0  0  0  0
   -2.1480    0.0960   -0.6040 C   0  0  0  0  0  0  0  0  0  0  0  0
   -0.7470    0.1160   -0.1750 C   0  0  0  0  0  0  0  0  0  0  0  0
    0.1190    0.9520   -0.8750 C   0  0  0  0  0  0  0  0  0  0  0  0
    1.4590    1.0410   -0.5640 C   0  0  0  0  0  0  0  0  0  0  0  0
    2.3230    1.8570   -1.2690 C   0  0  0  0  0  0  0  0  0  0  0  0
    3.6810    1.9130   -0.9410 C   0  0  0  0  0  0  0  0  0  0  0  0
    4.1890    1.1570    0.0890 C   0  0  0  0  0  0  0  0  0  0  0  0
    5.5160    1.1470    0.4810 O   0  0  0  0  0  0  0  0  0  0  0  0
    6.3150    0.0240    0.5120 C   0  0  0  0  0  0  0  0  0  0  0  0
    5.7690   -1.0670    0.1560 O   0  0  0  0  0  0  0  0  0  0  0  0
    7.6590   -0.0240    0.9000 N   0  0  0  0  0  0  0  0  0  0  0  0
    8.4610   -1.1610    0.9430 N   0  0  0  0  0  0  0  0  0  0  0  0
    9.5460   -1.4460    0.0960 C   0  0  0  0  0  0  0  0  0  0  0  0
    9.8070   -0.5690   -0.8050 O   0  0  0  0  0  0  0  0  0  0  0  0
   10.3180   -2.5930    0.1870 O   0  0  0  0  0  0  0  0  0  0  0  0
    3.3120    0.3450    0.7850 C   0  0  0  0  0  0  0  0  0  0  0  0
    1.9720    0.2810    0.4720 C   0  0  0  0  0  0  0  0  0  0  0  0
    1.1350   -0.5270    1.1490 N   0  0  0  0  0  0  0  0  0  0  0  0
    1.6330   -1.2920    2.1960 O   0  0  0  0  0  0  0  0  0  0  0  0
   -0.1880   -0.6100    0.8360 C   0  0  0  0  0  0  0  0  0  0  0  0
   -4.4010    1.0830   -0.5820 C   0  0  2  0  0  0  0  0  0  0  0  0
   -5.2180    2.1270    0.0540 N   0  0  0  0  0  0  0  0  0  0  0  0
   -5.1470   -0.1760   -0.6200 C   0  0  0  0  0  0  0  0  0  0  0  0
   -4.6430   -1.1730   -1.2480 O   0  0  0  0  0  0  0  0  0  0  0  0
   -6.3730   -0.4160   -0.0360 O   0  0  0  0  0  0  0  0  0  0  0  0
   -7.1010   -1.6050   -0.0710 C   0  0  0  0  0  0  0  0  0  0  0  0
   -7.5780   -2.0600   -1.4060 C   0  0  2  0  0  0  0  0  0  0  0  0
   -8.2910   -3.2720   -1.2840 F   0  0  0  0  0  0  0  0  0  0  0  0
   -6.6050   -2.2900   -2.3400 F   0  0  0  0  0  0  0  0  0  0  0  0
   -8.5250   -1.1700   -1.9200 F   0  0  0  0  0  0  0  0  0  0  0  0
  2  1  1  1
  2  3  1  0
  2 23  1  0
  3  4  1  0
  4  5  2  0
  4 22  1  0
  5  6  1  0
  6  7  2  0
  6 19  1  0
  7  8  1  0
  8  9  2  0
  9 10  1  0
  9 18  1  0
 10 11  1  0
 11 12  2  0
 11 13  1  0
 13 14  1  0
 14 15  1  0
 15 16  2  0
 15 17  1  0
 18 19  2  0
 19 20  1  0
 20 21  1  0
 20 22  2  0
 23 24  1  1
 23 25  1  0
 25 26  2  0
 25 27  1  0
 27 28  1  0
 28 29  1  0
 29 30  1  1
 29 31  1  0
 29 32  1  0
M  CHG  2  20   1  21  -1
M  END
