
     RDKit          3D

 33 36  0  0  0  0  0  0  0  0999 V2000
    2.8540   -0.7880    1.8530 O   0  0  0  0  0  0  0  0  0  0  0  0
    2.3740    0.2950    1.4550 C   0  0  0  0  0  0  0  0  0  0  0  0
    3.1630    1.5210    1.6440 C   0  0  0  0  0  0  0  0  0  0  0  0
    4.4890    1.2040    2.3420 C   0  0  0  0  0  0  0  0  0  0  0  0
    5.3060    0.2890    1.6040 N   0  0  0  0  0  0  0  0  0  0  0  0
    5.9340    0.5610    0.3560 C   0  0  0  0  0  0  0  0  0  0  0  0
    5.9860    1.8330   -0.1400 C   0  0  0  0  0  0  0  0  0  0  0  0
    6.5920    2.0830   -1.3690 C   0  0  0  0  0  0  0  0  0  0  0  0
    7.1480    1.0480   -2.1000 C   0  0  0  0  0  0  0  0  0  0  0  0
    7.0950   -0.2400   -1.5960 C   0  0  0  0  0  0  0  0  0  0  0  0
    6.4970   -0.4650   -0.3910 C   0  0  0  0  0  0  0  0  0  0  0  0
    1.0910    0.2730    0.8410 N   0  0  0  0  0  0  0  0  0  0  0  0
    0.3750   -0.9440    0.6840 C   0  0  0  0  0  0  0  0  0  0  0  0
    1.0130   -2.4890    1.2370 S   0  0  0  0  0  0  0  0  0  0  0  0
   -0.4400   -3.4470    0.6820 C   0  0  0  0  0  0  0  0  0  0  0  0
   -1.2640   -2.4810    0.1280 C   0  0  0  0  0  0  0  0  0  0  0  0
   -2.4880   -3.0800   -0.5070 C   0  0  0  0  0  0  0  0  0  0  0  0
   -3.5000   -3.5680    0.2910 C   0  0  0  0  0  0  0  0  0  0  0  0
   -4.6110   -4.1880   -0.2320 C   0  0  0  0  0  0  0  0  0  0  0  0
   -4.7270   -4.3300   -1.5880 C   0  0  0  0  0  0  0  0  0  0  0  0
   -3.7120   -3.8410   -2.3960 C   0  0  0  0  0  0  0  0  0  0  0  0
   -2.5810   -3.2110   -1.8850 C   0  0  0  0  0  0  0  0  0  0  0  0
   -0.8990   -1.2090    0.1090 C   0  0  0  0  0  0  0  0  0  0  0  0
   -1.6340   -0.0480   -0.4250 C   0  0  0  0  0  0  0  0  0  0  0  0
   -1.1100    1.1150   -0.4870 O   0  0  0  0  0  0  0  0  0  0  0  0
   -2.9630   -0.0770   -0.9100 N   0  0  0  0  0  0  0  0  0  0  0  0
   -3.6130    1.1300   -1.4350 C   0  0  0  0  0  0  0  0  0  0  0  0
   -4.0550    2.0470   -0.3590 C   0  0  0  0  0  0  0  0  0  0  0  0
   -5.1940    1.7680    0.3920 C   0  0  0  0  0  0  0  0  0  0  0  0
   -5.6300    2.6060    1.3940 C   0  0  0  0  0  0  0  0  0  0  0  0
   -4.9500    3.7630    1.6980 C   0  0  0  0  0  0  0  0  0  0  0  0
   -3.8180    4.0520    0.9610 C   0  0  0  0  0  0  0  0  0  0  0  0
   -3.3870    3.2060   -0.0440 C   0  0  0  0  0  0  0  0  0  0  0  0
  1  2  2  0
  2  3  1  0
  2 12  1  0
  3  4  1  0
  4  5  1  0
  5  6  1  0
  6  7  2  0
  6 11  1  0
  7  8  1  0
  8  9  2  0
  9 10  1  0
 10 11  2  0
 12 13  1  0
 13 14  1  0
 13 23  2  0
 14 15  1  0
 15 16  2  0
 16 17  1  0
 16 23  1  0
 17 18  2  0
 17 22  1  0
 18 19  1  0
 19 20  2  0
 20 21  1  0
 21 22  2  0
 23 24  1  0
 24 25  2  0
 24 26  1  0
 26 27  1  0
 27 28  1  0
 28 29  2  0
 28 33  1  0
 29 30  1  0
 30 31  2  0
 31 32  1  0
 32 33  2  0
M  END
