
     RDKit          3D

 33 34  0  0  0  0  0  0  0  0999 V2000
   -0.4680    4.0120    2.9140 C   0  0  0  0  0  0  0  0  0  0  0  0
   -1.2150    3.1690    1.9310 C   0  0  1  0  0  0  0  0  0  0  0  0
   -1.7790    3.9710    0.8460 N   0  0  0  0  0  0  0  0  0  0  0  0
   -2.5000    3.2190   -0.1390 C   0  0  0  0  0  0  0  0  0  0  0  0
   -3.5030    3.7370   -0.7500 O   0  0  0  0  0  0  0  0  0  0  0  0
   -2.0900    1.8580   -0.4500 C   0  0  0  0  0  0  0  0  0  0  0  0
   -2.7840    1.0130   -1.4400 C   0  0  0  0  0  0  0  0  0  0  0  0
   -4.1620    0.8500   -1.0520 N   0  0  0  0  0  0  0  0  0  0  0  0
   -4.7640   -0.3880   -1.4820 C   0  0  0  0  0  0  0  0  0  0  0  0
   -4.7840   -1.4100   -0.3960 C   0  0  1  0  0  0  0  0  0  0  0  0
   -3.3890   -1.8380    0.0220 C   0  0  0  0  0  0  0  0  0  0  0  0
   -5.5120   -0.9010    0.6770 O   0  0  0  0  0  0  0  0  0  0  0  0
   -5.5520   -2.6560   -0.8440 C   0  0  0  0  0  0  0  0  0  0  0  0
   -4.9880   -3.2470   -1.9640 O   0  0  0  0  0  0  0  0  0  0  0  0
   -1.0270    1.3820    0.2240 C   0  0  0  0  0  0  0  0  0  0  0  0
   -0.3170    2.1790    1.2040 C   0  0  0  0  0  0  0  0  0  0  0  0
    0.9400    2.1210    1.5100 C   0  0  0  0  0  0  0  0  0  0  0  0
    2.0410    1.4740    1.1760 O   0  0  0  0  0  0  0  0  0  0  0  0
    2.4620    0.5960    0.2750 C   0  0  0  0  0  0  0  0  0  0  0  0
    1.6770    0.1740   -0.5910 O   0  0  0  0  0  0  0  0  0  0  0  0
    3.8450    0.0930    0.2590 C   0  0  0  0  0  0  0  0  0  0  0  0
    4.6680    0.4930    1.1160 O   0  0  0  0  0  0  0  0  0  0  0  0
    4.2920   -0.8410   -0.7040 N   0  0  0  0  0  0  0  0  0  0  0  0
    5.6130   -1.3200   -0.7190 N   0  0  0  0  0  0  0  0  0  0  0  0
    6.8330   -0.5870   -0.7270 C   0  0  0  0  0  0  0  0  0  0  0  0
    6.8590    0.6680   -0.8220 O   0  0  0  0  0  0  0  0  0  0  0  0
    7.9070   -1.4860   -0.6180 O   0  0  0  0  0  0  0  0  0  0  0  0
    7.3440   -2.6380    0.0020 C   0  0  0  0  0  0  0  0  0  0  0  0
    5.9970   -2.7140   -0.7260 C   0  0  1  0  0  0  0  0  0  0  0  0
    5.0330   -3.5970    0.0360 C   0  0  1  0  0  0  0  0  0  0  0  0
    4.9300   -3.2350    1.3470 F   0  0  0  0  0  0  0  0  0  0  0  0
    3.8270   -3.6350   -0.6340 F   0  0  0  0  0  0  0  0  0  0  0  0
    5.5660   -4.8860   -0.0270 F   0  0  0  0  0  0  0  0  0  0  0  0
  2  1  1  1
  2  3  1  0
  2 16  1  0
  3  4  1  0
  4  5  2  0
  4  6  1  0
  6  7  1  0
  6 15  2  0
  7  8  1  0
  8  9  1  0
  9 10  1  0
 10 11  1  1
 10 12  1  0
 10 13  1  0
 13 14  1  0
 15 16  1  0
 16 17  2  3
 17 18  1  0
 18 19  1  0
 19 20  2  0
 19 21  1  0
 21 22  2  0
 21 23  1  0
 23 24  1  0
 24 25  1  0
 24 29  1  0
 25 26  2  0
 25 27  1  0
 27 28  1  0
 29 28  1  1
 29 30  1  0
 30 31  1  1
 30 32  1  0
 30 33  1  0
M  CHG  2   8   1  14  -1
M  END
