
     RDKit          3D

 31 33  0  0  0  0  0  0  0  0999 V2000
    4.8220   -1.9190    0.8710 C   0  0  0  0  0  0  0  0  0  0  0  0
    4.7950   -0.6460    0.6020 C   0  0  0  0  0  0  0  0  0  0  0  0
    3.9590    0.5520    1.6580 S   0  0  0  0  0  0  0  0  0  0  0  0
    4.2740    2.1810    0.9370 C   0  0  0  0  0  0  0  0  0  0  0  0
    3.8220    2.2960   -0.5000 C   0  0  2  0  0  0  0  0  0  0  0  0
    2.3520    2.3360   -0.5270 C   0  0  0  0  0  0  0  0  0  0  0  0
    1.7480    3.4890   -0.8630 N   0  0  0  0  0  0  0  0  0  0  0  0
    0.4210    3.6450   -0.9250 C   0  0  0  0  0  0  0  0  0  0  0  0
   -0.0550    4.7620   -1.2490 O   0  0  0  0  0  0  0  0  0  0  0  0
   -0.3430    2.5380   -0.6190 C   0  0  0  0  0  0  0  0  0  0  0  0
    0.2470    1.3420   -0.2710 C   0  0  0  0  0  0  0  0  0  0  0  0
   -0.6050    0.1910    0.0460 C   0  0  0  0  0  0  0  0  0  0  0  0
   -0.1300   -0.9230    0.3700 O   0  0  0  0  0  0  0  0  0  0  0  0
   -1.9810    0.3170   -0.0070 O   0  0  0  0  0  0  0  0  0  0  0  0
   -2.8370   -0.7780    0.2940 C   0  0  0  0  0  0  0  0  0  0  0  0
   -4.2710   -0.3720    0.1600 C   0  0  0  0  0  0  0  0  0  0  0  0
   -4.5150    0.7900   -0.1750 O   0  0  0  0  0  0  0  0  0  0  0  0
   -5.3010   -1.2990    0.4110 N   0  0  0  0  0  0  0  0  0  0  0  0
   -6.6840   -1.0460    0.3240 C   0  0  0  0  0  0  0  0  0  0  0  0
   -7.5410   -2.1380    0.5260 C   0  0  0  0  0  0  0  0  0  0  0  0
   -8.9100   -2.0200    0.4710 C   0  0  0  0  0  0  0  0  0  0  0  0
   -9.4940   -0.8030    0.2100 C   0  0  0  0  0  0  0  0  0  0  0  0
   -8.6820    0.2840    0.0070 C   0  0  0  0  0  0  0  0  0  0  0  0
   -9.3330    1.8760   -0.3310 Cl  0  0  0  0  0  0  0  0  0  0  0  0
   -7.2850    0.1510    0.0670 C   0  0  0  0  0  0  0  0  0  0  0  0
    1.5780    1.2740   -0.2340 N   0  0  0  0  0  0  0  0  0  0  0  0
    4.5320    1.0540   -1.5880 S   0  0  0  0  0  0  0  0  0  0  0  0
    5.4640   -0.1320   -0.5830 C   0  0  0  0  0  0  0  0  0  0  0  0
    6.6890   -0.4790   -0.9090 C   0  0  0  0  0  0  0  0  0  0  0  0
    7.5750   -1.4010   -0.1730 C   0  0  0  0  0  0  0  0  0  0  0  0
    7.8980   -2.5310   -1.0230 N   0  0  0  0  0  0  0  0  0  0  0  0
  1  2  2  0
  2  3  1  0
  2 28  1  0
  3  4  1  0
  4  5  1  0
  5  6  1  1
  5 27  1  0
  6  7  2  0
  6 26  1  0
  7  8  1  0
  8  9  2  0
  8 10  1  0
 10 11  2  0
 11 12  1  0
 11 26  1  0
 12 13  2  0
 12 14  1  0
 14 15  1  0
 15 16  1  0
 16 17  2  0
 16 18  1  0
 18 19  1  0
 19 20  2  0
 19 25  1  0
 20 21  1  0
 21 22  2  0
 22 23  1  0
 23 24  1  0
 23 25  2  0
 27 28  1  0
 28 29  2  3
 29 30  1  0
 30 31  1  0
M  END
