
     RDKit          3D

 32 34  0  0  0  0  0  0  0  0999 V2000
    6.8810    0.8000    1.7950 C   0  0  0  0  0  0  0  0  0  0  0  0
    6.3960   -0.4660    1.1930 C   0  0  0  0  0  0  0  0  0  0  0  0
    5.1970   -0.4740    0.6010 C   0  0  0  0  0  0  0  0  0  0  0  0
    4.4080    0.7320    0.5600 C   0  0  0  0  0  0  0  0  0  0  0  0
    3.2430    0.7510   -0.0070 C   0  0  0  0  0  0  0  0  0  0  0  0
    2.7070   -0.4920   -0.6280 C   0  0  0  0  0  0  0  0  0  0  0  0
    1.5470   -0.4270   -1.1790 N   0  0  0  0  0  0  0  0  0  0  0  0
    0.7800    0.7320   -1.2230 N   0  0  0  0  0  0  0  0  0  0  0  0
   -0.5660    0.7770   -0.7930 C   0  0  0  0  0  0  0  0  0  0  0  0
   -1.0850   -0.2610   -0.3570 O   0  0  0  0  0  0  0  0  0  0  0  0
   -1.3650    2.0530   -0.8560 C   0  0  0  0  0  0  0  0  0  0  0  0
   -0.7530    3.2060   -1.3510 C   0  0  0  0  0  0  0  0  0  0  0  0
   -2.0520    4.4430   -1.2410 S   0  0  0  0  0  0  0  0  0  0  0  0
   -3.2770    3.2640   -0.5370 C   0  0  0  0  0  0  0  0  0  0  0  0
   -4.4480    3.5820   -0.2340 N   0  0  0  0  0  0  0  0  0  0  0  0
   -2.5990    2.0940   -0.4610 N   0  0  0  0  0  0  0  0  0  0  0  0
   -3.3680    0.9680    0.0790 C   0  0  0  0  0  0  0  0  0  0  0  0
   -3.3190    0.6300    1.3840 C   0  0  0  0  0  0  0  0  0  0  0  0
   -4.0670   -0.4480    1.8540 C   0  0  0  0  0  0  0  0  0  0  0  0
   -4.8680   -1.1900    1.0070 C   0  0  0  0  0  0  0  0  0  0  0  0
   -5.8100   -2.5560    1.6280 S   0  0  2  0  0  0  0  0  0  0  0  0
   -5.0580   -3.1350    2.7850 O   0  0  0  0  0  0  0  0  0  0  0  0
   -5.9330   -3.6200    0.5650 O   0  0  0  0  0  0  0  0  0  0  0  0
   -7.3160   -2.0850    2.1320 O   0  0  0  0  0  0  0  0  0  0  0  0
   -4.9130   -0.8400   -0.3200 C   0  0  0  0  0  0  0  0  0  0  0  0
   -4.1610    0.2410   -0.7840 C   0  0  0  0  0  0  0  0  0  0  0  0
   -4.2640    0.6360   -2.4980 Cl  0  0  0  0  0  0  0  0  0  0  0  0
    3.4680   -1.7250   -0.6080 C   0  0  0  0  0  0  0  0  0  0  0  0
    3.0100   -2.9600   -1.1890 C   0  0  0  0  0  0  0  0  0  0  0  0
    1.9540   -3.3070   -1.8070 C   0  0  0  0  0  0  0  0  0  0  0  0
    0.8110   -2.6130   -2.1690 N   0  0  0  0  0  0  0  0  0  0  0  0
    4.6710   -1.6660   -0.0000 C   0  0  0  0  0  0  0  0  0  0  0  0
  1  2  1  0
  2  3  2  3
  3  4  1  0
  3 32  1  0
  4  5  2  0
  5  6  1  0
  6  7  2  3
  6 28  1  0
  7  8  1  0
  8  9  1  0
  9 10  2  0
  9 11  1  0
 11 12  2  0
 11 16  1  0
 12 13  1  0
 13 14  1  0
 14 15  2  0
 14 16  1  0
 16 17  1  0
 17 18  2  0
 17 26  1  0
 18 19  1  0
 19 20  2  0
 20 21  1  0
 20 25  1  0
 21 22  2  0
 21 23  2  0
 21 24  1  1
 25 26  2  0
 26 27  1  0
 28 29  1  0
 28 32  2  0
 29 30  2  3
 30 31  1  0
M  END
