
     RDKit          3D

 31 33  0  0  0  0  0  0  0  0999 V2000
   -0.8160    3.4900   -0.5640 C   0  0  0  0  0  0  0  0  0  0  0  0
   -1.2850    2.4240   -1.5910 C   0  0  0  0  0  0  0  0  0  0  0  0
   -2.4780    1.8060   -1.0240 N   0  0  0  0  0  0  0  0  0  0  0  0
   -3.6280    2.4540   -0.9850 N   0  0  0  0  0  0  0  0  0  0  0  0
   -4.5240    1.7680   -0.3000 C   0  0  0  0  0  0  0  0  0  0  0  0
   -5.9090    2.2280   -0.0310 C   0  0  0  0  0  0  0  0  0  0  0  0
   -3.8740    0.6250    0.0990 C   0  0  0  0  0  0  0  0  0  0  0  0
   -4.5170   -0.4390    0.8730 C   0  0  0  0  0  0  0  0  0  0  0  0
   -5.9150   -0.6310    0.8010 N   0  0  0  0  0  0  0  0  0  0  0  0
   -3.8240   -1.1990    1.6000 O   0  0  0  0  0  0  0  0  0  0  0  0
   -2.5700    0.6400   -0.3630 C   0  0  0  0  0  0  0  0  0  0  0  0
   -1.6750   -0.3280   -0.2350 N   0  0  0  0  0  0  0  0  0  0  0  0
   -0.7480   -1.0490   -0.1910 C   0  0  0  0  0  0  0  0  0  0  0  0
   -0.8540   -2.4220    0.2600 N   0  0  0  0  0  0  0  0  0  0  0  0
   -2.1960   -3.4200   -0.2060 S   0  0  2  0  0  0  0  0  0  0  0  0
   -1.6590   -4.8000   -1.2060 C   0  0  0  0  0  0  0  0  0  0  0  0
   -3.2320   -2.7150   -0.9850 O   0  0  0  0  0  0  0  0  0  0  0  0
   -2.7080   -4.0320    1.0990 O   0  0  0  0  0  0  0  0  0  0  0  0
    0.9070   -0.4860   -0.6520 S   0  0  0  0  0  0  0  0  0  0  0  0
    1.8470   -0.3440    0.9320 C   0  0  1  0  0  0  0  0  0  0  0  0
    1.9680   -1.7690    1.4750 C   0  0  0  0  0  0  0  0  0  0  0  0
    3.3470   -1.8060    2.0570 C   0  0  0  0  0  0  0  0  0  0  0  0
    4.1030   -0.9100    1.1430 C   0  0  0  0  0  0  0  0  0  0  0  0
    5.4460   -0.8320    0.8640 C   0  0  0  0  0  0  0  0  0  0  0  0
    5.9690    0.2040    0.0980 C   0  0  0  0  0  0  0  0  0  0  0  0
    7.6570    0.3470   -0.2420 Cl  0  0  0  0  0  0  0  0  0  0  0  0
    5.1330    1.1640   -0.3780 C   0  0  0  0  0  0  0  0  0  0  0  0
    5.7170    2.2570   -1.2570 C   0  0  0  0  0  0  0  0  0  0  0  0
    5.6460    3.4850   -0.5050 O   0  0  0  0  0  0  0  0  0  0  0  0
    3.7790    1.0890   -0.1060 C   0  0  0  0  0  0  0  0  0  0  0  0
    3.2630    0.0530    0.6530 C   0  0  0  0  0  0  0  0  0  0  0  0
  1  2  1  0
  2  3  1  0
  3  4  1  0
  3 11  1  0
  4  5  2  0
  5  6  1  0
  5  7  1  0
  7  8  1  0
  7 11  2  0
  8  9  1  0
  8 10  2  0
 11 12  1  0
 12 13  2  3
 13 14  1  0
 13 19  1  0
 14 15  1  0
 15 16  1  6
 15 17  2  0
 15 18  2  0
 20 19  1  6
 20 21  1  0
 20 31  1  0
 21 22  1  0
 22 23  1  0
 23 24  2  0
 23 31  1  0
 24 25  1  0
 25 26  1  0
 25 27  2  0
 27 28  1  0
 27 30  1  0
 28 29  1  0
 30 31  2  0
M  END
