
     RDKit          3D

 27 29  0  0  0  0  0  0  0  0999 V2000
    9.1020    0.7750   -0.7070 C   0  0  0  0  0  0  0  0  0  0  0  0
    7.7020    0.9250   -0.9500 O   0  0  0  0  0  0  0  0  0  0  0  0
    6.7610    0.3310   -0.1070 C   0  0  0  0  0  0  0  0  0  0  0  0
    7.1870   -0.3300    0.8590 O   0  0  0  0  0  0  0  0  0  0  0  0
    5.3490    0.4780   -0.3450 C   0  0  0  0  0  0  0  0  0  0  0  0
    4.4470   -0.0800    0.4460 C   0  0  0  0  0  0  0  0  0  0  0  0
    4.8150   -0.8840    1.6140 C   0  0  0  0  0  0  0  0  0  0  0  0
    3.7330   -1.4290    2.3310 O   0  0  0  0  0  0  0  0  0  0  0  0
    2.3980   -1.2320    2.0230 C   0  0  0  0  0  0  0  0  0  0  0  0
    1.4860   -1.7590    2.7430 O   0  0  0  0  0  0  0  0  0  0  0  0
    2.0240   -0.4310    0.8860 C   0  0  0  0  0  0  0  0  0  0  0  0
    3.0160    0.1200    0.1320 C   0  0  0  0  0  0  0  0  0  0  0  0
    2.4620    0.8220   -0.8690 N   0  0  0  0  0  0  0  0  0  0  0  0
    1.0940    0.7370   -0.7810 C   0  0  0  0  0  0  0  0  0  0  0  0
    0.1930    1.3950   -1.7290 C   0  0  0  0  0  0  0  0  0  0  0  0
    0.7970   -0.0330    0.2980 C   0  0  0  0  0  0  0  0  0  0  0  0
   -0.4710   -0.4540    0.8610 C   0  0  0  0  0  0  0  0  0  0  0  0
   -1.6770   -0.0450    0.2600 N   0  0  0  0  0  0  0  0  0  0  0  0
   -2.9380   -0.4810    0.8380 C   0  0  0  0  0  0  0  0  0  0  0  0
   -2.9100   -1.2010    1.8450 O   0  0  0  0  0  0  0  0  0  0  0  0
   -4.1620   -0.1080    0.2860 N   0  0  0  0  0  0  0  0  0  0  0  0
   -5.4540   -0.4900    0.7890 C   0  0  1  0  0  0  0  0  0  0  0  0
   -6.4280    0.6370    0.9080 C   0  0  0  0  0  0  0  0  0  0  0  0
   -6.6450    0.9900   -0.4030 O   0  0  0  0  0  0  0  0  0  0  0  0
   -7.0280   -0.2340   -0.9570 C   0  0  1  0  0  0  0  0  0  0  0  0
   -6.9670   -0.2130   -2.4020 N   0  0  0  0  0  0  0  0  0  0  0  0
   -6.1190   -1.2760   -0.3530 C   0  0  0  0  0  0  0  0  0  0  0  0
  1  2  1  0
  2  3  1  0
  3  4  2  0
  3  5  1  0
  5  6  2  3
  6  7  1  0
  6 12  1  0
  7  8  1  0
  8  9  1  0
  9 10  2  0
  9 11  1  0
 11 12  2  0
 11 16  1  0
 12 13  1  0
 13 14  1  0
 14 15  1  0
 14 16  2  0
 16 17  1  0
 17 18  1  0
 18 19  1  0
 19 20  2  0
 19 21  1  0
 22 21  1  6
 22 23  1  0
 22 27  1  0
 23 24  1  0
 24 25  1  0
 25 26  1  6
 25 27  1  0
M  END
