
     RDKit          3D

 27 28  0  0  0  0  0  0  0  0999 V2000
   -4.5500    1.6320   -0.9470 C   0  0  0  0  0  0  0  0  0  0  0  0
   -4.1590    1.2120    0.3420 O   0  0  0  0  0  0  0  0  0  0  0  0
   -2.7680    0.8350    0.5540 C   0  0  0  0  0  0  0  0  0  0  0  0
   -1.9190    1.8460    0.5290 C   0  0  0  0  0  0  0  0  0  0  0  0
   -0.4570    1.8580    0.7090 C   0  0  0  0  0  0  0  0  0  0  0  0
    0.3270    2.1430   -0.5270 C   0  0  1  0  0  0  0  0  0  0  0  0
    0.5650    3.6210   -0.6350 N   0  0  0  0  0  0  0  0  0  0  0  0
    1.6030    1.6130   -0.5740 O   0  0  0  0  0  0  0  0  0  0  0  0
    2.1380    0.4440   -0.0590 C   0  0  0  0  0  0  0  0  0  0  0  0
    3.2180    0.4570    0.6930 C   0  0  0  0  0  0  0  0  0  0  0  0
    3.8790    1.7490    0.9960 C   0  0  0  0  0  0  0  0  0  0  0  0
    3.3660    2.7860    0.5090 O   0  0  0  0  0  0  0  0  0  0  0  0
    3.8890   -0.7300    1.3070 C   0  0  0  0  0  0  0  0  0  0  0  0
    2.8410   -1.8020    1.4880 C   0  0  0  0  0  0  0  0  0  0  0  0
    2.3290   -2.0610    0.0660 C   0  0  0  0  0  0  0  0  0  0  0  0
    1.4850   -0.8810   -0.3590 C   0  0  2  0  0  0  0  0  0  0  0  0
    1.2320   -1.0140   -1.7820 N   0  0  0  0  0  0  0  0  0  0  0  0
    0.1770   -0.4870   -2.5300 C   0  0  0  0  0  0  0  0  0  0  0  0
    0.5730    0.2230   -3.5530 O   0  0  0  0  0  0  0  0  0  0  0  0
   -1.2530   -0.6290   -2.3150 C   0  0  0  0  0  0  0  0  0  0  0  0
   -1.9820    0.1780   -3.0230 O   0  0  0  0  0  0  0  0  0  0  0  0
   -1.9710   -1.4950   -1.4730 N   0  0  0  0  0  0  0  0  0  0  0  0
   -2.1730   -1.5500   -0.0730 C   0  0  0  0  0  0  0  0  0  0  0  0
   -1.9960   -2.8880    0.5450 C   0  0  0  0  0  0  0  0  0  0  0  0
   -2.1560   -3.0820    1.9300 N   0  0  0  0  0  0  0  0  0  0  0  0
   -1.7020   -3.8640   -0.1500 O   0  0  0  0  0  0  0  0  0  0  0  0
   -2.5080   -0.5730    0.7620 C   0  0  0  0  0  0  0  0  0  0  0  0
  1  2  1  0
  2  3  1  0
  3  4  2  0
  3 27  1  0
  4  5  1  0
  5  6  1  0
  6  7  1  1
  6  8  1  0
  8  9  1  0
  9 10  2  0
  9 16  1  0
 10 11  1  0
 10 13  1  0
 11 12  2  0
 13 14  1  0
 14 15  1  0
 16 15  1  6
 16 17  1  0
 17 18  1  0
 18 19  2  0
 18 20  1  0
 20 21  2  0
 20 22  1  0
 22 23  1  0
 23 24  1  0
 23 27  2  0
 24 25  1  0
 24 26  2  0
M  END
