
     RDKit          3D

 27 29  0  0  0  0  0  0  0  0999 V2000
    5.6440    1.7580    0.5390 C   0  0  0  0  0  0  0  0  0  0  0  0
    5.3290    0.5550    0.1070 C   0  0  0  0  0  0  0  0  0  0  0  0
    5.9370   -0.5840    0.7430 N   0  0  0  0  0  0  0  0  0  0  0  0
    5.6170   -1.8650    0.2720 C   0  0  0  0  0  0  0  0  0  0  0  0
    4.7880   -2.0250   -0.7210 C   0  0  0  0  0  0  0  0  0  0  0  0
    4.4470   -3.3000   -1.2170 O   0  0  0  0  0  0  0  0  0  0  0  0
    4.1710   -0.8970   -1.3670 C   0  0  0  0  0  0  0  0  0  0  0  0
    4.4100    0.3570   -0.9920 C   0  0  0  0  0  0  0  0  0  0  0  0
    3.7990    1.3540   -1.6410 O   0  0  0  0  0  0  0  0  0  0  0  0
    2.9070    2.3290   -1.4000 C   0  0  0  0  0  0  0  0  0  0  0  0
    1.5440    1.9630   -0.9470 C   0  0  0  0  0  0  0  0  0  0  0  0
    0.7170    2.9190   -0.6800 O   0  0  0  0  0  0  0  0  0  0  0  0
    1.0310    0.6770   -0.7680 N   0  0  0  0  0  0  0  0  0  0  0  0
   -0.3520    0.5190   -0.3070 C   0  0  0  0  0  0  0  0  0  0  0  0
   -1.1170   -0.1240   -1.1480 C   0  0  0  0  0  0  0  0  0  0  0  0
   -2.5170   -0.4510   -1.0100 C   0  0  0  0  0  0  0  0  0  0  0  0
   -3.2010   -1.1100   -1.9280 N   0  0  0  0  0  0  0  0  0  0  0  0
   -4.5450   -1.2770   -1.5060 C   0  0  0  0  0  0  0  0  0  0  0  0
   -5.3840   -2.0770   -1.9860 O   0  0  0  0  0  0  0  0  0  0  0  0
   -4.7260   -0.3020   -0.3840 C   0  0  1  0  0  0  0  0  0  0  0  0
   -5.5880   -0.9100    0.7010 C   0  0  2  0  0  0  0  0  0  0  0  0
   -6.9730   -1.2990    0.2170 C   0  0  0  0  0  0  0  0  0  0  0  0
   -6.7500   -0.1240    1.1500 C   0  0  0  0  0  0  0  0  0  0  0  0
   -3.3750   -0.1650    0.0340 O   0  0  0  0  0  0  0  0  0  0  0  0
   -0.6340    1.0780    0.9690 C   0  0  0  0  0  0  0  0  0  0  0  0
   -1.8500    1.0970    1.6840 N   0  0  0  0  0  0  0  0  0  0  0  0
    0.3440    1.6620    1.5910 O   0  0  0  0  0  0  0  0  0  0  0  0
  1  2  2  0
  2  3  1  0
  2  8  1  0
  3  4  1  0
  4  5  2  0
  5  6  1  0
  5  7  1  0
  7  8  2  0
  8  9  1  0
  9 10  1  0
 10 11  1  0
 11 12  2  0
 11 13  1  0
 13 14  1  0
 14 15  2  3
 14 25  1  0
 15 16  1  0
 16 17  2  0
 16 24  1  0
 17 18  1  0
 18 19  2  0
 18 20  1  0
 20 21  1  0
 20 24  1  1
 21 22  1  6
 21 23  1  0
 22 23  1  0
 25 26  1  0
 25 27  2  0
M  END
