
     RDKit          3D

 27 29  0  0  0  0  0  0  0  0999 V2000
    6.2930   -0.1480    0.2080 C   0  0  0  0  0  0  0  0  0  0  0  0
    4.8170   -0.0520    0.6270 C   0  0  0  0  0  0  0  0  0  0  0  0
    3.9580   -0.7520   -0.3770 C   0  0  0  0  0  0  0  0  0  0  0  0
    2.5000   -0.7460   -0.0990 C   0  0  2  0  0  0  0  0  0  0  0  0
    2.1360   -1.3930    1.2090 C   0  0  0  0  0  0  0  0  0  0  0  0
    1.8310   -1.4290   -1.2050 N   0  0  0  0  0  0  0  0  0  0  0  0
    0.5000   -0.8760   -1.1820 C   0  0  0  0  0  0  0  0  0  0  0  0
   -0.4310   -1.5400   -1.7330 O   0  0  0  0  0  0  0  0  0  0  0  0
    0.4640    0.3700   -0.5320 N   0  0  0  0  0  0  0  0  0  0  0  0
   -0.5910    1.2290   -0.0820 C   0  0  0  0  0  0  0  0  0  0  0  0
   -1.7770    0.8220    0.2840 C   0  0  0  0  0  0  0  0  0  0  0  0
   -1.9200   -0.6100    0.2040 N   0  0  0  0  0  0  0  0  0  0  0  0
   -3.0660   -1.3120   -0.2240 C   0  0  0  0  0  0  0  0  0  0  0  0
   -2.9670   -2.7620   -0.1100 C   0  0  0  0  0  0  0  0  0  0  0  0
   -1.9200   -3.2830    0.3410 O   0  0  0  0  0  0  0  0  0  0  0  0
   -4.0030   -3.5930   -0.4880 O   0  0  0  0  0  0  0  0  0  0  0  0
   -4.2340   -0.8660   -0.7190 C   0  0  0  0  0  0  0  0  0  0  0  0
   -4.4680    0.6160   -0.8870 C   0  0  0  0  0  0  0  0  0  0  0  0
   -4.2480    1.2590    0.4320 C   0  0  0  0  0  0  0  0  0  0  0  0
   -2.8760    1.7040    0.7780 C   0  0  2  0  0  0  0  0  0  0  0  0
   -2.6580    3.1270    0.5260 C   0  0  0  0  0  0  0  0  0  0  0  0
   -3.6170    3.9250    0.6520 O   0  0  0  0  0  0  0  0  0  0  0  0
   -1.4050    3.6110    0.1480 N   0  0  0  0  0  0  0  0  0  0  0  0
   -0.3660    2.6820   -0.1600 C   0  0  0  0  0  0  0  0  0  0  0  0
    0.7500    3.0970   -0.5050 O   0  0  0  0  0  0  0  0  0  0  0  0
    1.8620    0.6020   -0.1450 C   0  0  0  0  0  0  0  0  0  0  0  0
    2.4520    1.6330    0.1020 O   0  0  0  0  0  0  0  0  0  0  0  0
  1  2  1  0
  2  3  1  0
  3  4  1  0
  4  5  1  1
  4  6  1  0
  4 26  1  0
  6  7  1  0
  7  8  2  0
  7  9  1  0
  9 10  1  0
  9 26  1  0
 10 11  2  0
 10 24  1  0
 11 12  1  0
 11 20  1  0
 12 13  1  0
 13 14  1  0
 13 17  2  0
 14 15  2  0
 14 16  1  0
 17 18  1  0
 18 19  1  0
 20 19  1  6
 20 21  1  0
 21 22  2  0
 21 23  1  0
 23 24  1  0
 24 25  2  0
 26 27  2  0
M  END
