
     RDKit          3D

 27 28  0  0  0  0  0  0  0  0999 V2000
   -7.3050   -0.4970   -0.8050 C   0  0  0  0  0  0  0  0  0  0  0  0
   -6.2940    0.1190   -0.2020 C   0  0  0  0  0  0  0  0  0  0  0  0
   -6.3550    0.5140    1.1920 C   0  0  0  0  0  0  0  0  0  0  0  0
   -5.3750    1.1040    1.7480 N   0  0  0  0  0  0  0  0  0  0  0  0
   -5.0660    0.4100   -0.9720 C   0  0  1  0  0  0  0  0  0  0  0  0
   -4.8020    1.7930   -1.0270 O   0  0  0  0  0  0  0  0  0  0  0  0
   -3.8280   -0.2480   -0.4260 C   0  0  2  0  0  0  0  0  0  0  0  0
   -2.6980    0.1360   -1.3920 C   0  0  0  0  0  0  0  0  0  0  0  0
   -1.5130   -0.5510   -0.9190 N   0  0  0  0  0  0  0  0  0  0  0  0
   -0.3280    0.1480   -0.6590 C   0  0  0  0  0  0  0  0  0  0  0  0
   -0.2770    1.3920   -0.8350 O   0  0  0  0  0  0  0  0  0  0  0  0
    0.8490   -0.5300   -0.1900 C   0  0  0  0  0  0  0  0  0  0  0  0
    0.8030   -1.7870   -0.0110 O   0  0  0  0  0  0  0  0  0  0  0  0
    2.0570    0.1600    0.0790 N   0  0  0  0  0  0  0  0  0  0  0  0
    3.1940   -0.6150    0.5500 C   0  0  1  0  0  0  0  0  0  0  0  0
    4.2840   -0.4130   -0.4220 C   0  0  0  0  0  0  0  0  0  0  0  0
    5.4350    0.1750   -0.1520 C   0  0  0  0  0  0  0  0  0  0  0  0
    6.3860    0.2890   -1.2130 N   0  0  0  0  0  0  0  0  0  0  0  0
    5.7210    0.6880    1.1790 C   0  0  0  0  0  0  0  0  0  0  0  0
    6.9220    1.3000    1.4560 O   0  0  0  0  0  0  0  0  0  0  0  0
    8.1520    0.6380    1.6020 C   0  0  0  0  0  0  0  0  0  0  0  0
    4.8050    0.5540    2.1190 C   0  0  0  0  0  0  0  0  0  0  0  0
    3.5270   -0.0790    1.8910 C   0  0  0  0  0  0  0  0  0  0  0  0
    2.6580   -0.1930    2.8260 O   0  0  0  0  0  0  0  0  0  0  0  0
   -1.6280   -1.9880   -0.7340 C   0  0  0  0  0  0  0  0  0  0  0  0
   -3.0700   -2.3330   -1.1190 C   0  0  0  0  0  0  0  0  0  0  0  0
   -3.9560   -1.6230   -0.3170 O   0  0  0  0  0  0  0  0  0  0  0  0
  1  2  2  0
  2  3  1  0
  2  5  1  0
  3  4  2  0
  5  6  1  1
  5  7  1  0
  7  8  1  6
  7 27  1  0
  8  9  1  0
  9 10  1  0
  9 25  1  0
 10 11  2  0
 10 12  1  0
 12 13  2  0
 12 14  1  0
 15 14  1  6
 15 16  1  0
 15 23  1  0
 16 17  2  0
 17 18  1  0
 17 19  1  0
 19 20  1  0
 19 22  2  0
 20 21  1  0
 22 23  1  0
 23 24  2  0
 25 26  1  0
 26 27  1  0
M  END
