
     RDKit          3D

 16 17  0  0  0  0  0  0  0  0999 V2000
    4.9320   -0.3580   -0.1210 O   0  0  0  0  0  0  0  0  0  0  0  0
    3.8620   -0.3050    0.5320 C   0  0  0  0  0  0  0  0  0  0  0  0
    3.3010   -1.3950    1.1770 O   0  0  0  0  0  0  0  0  0  0  0  0
    3.1590    0.9980    0.6160 C   0  0  0  0  0  0  0  0  0  0  0  0
    2.5220    1.2650   -0.7190 C   0  0  0  0  0  0  0  0  0  0  0  0
    1.5290    0.1990   -1.1140 C   0  0  0  0  0  0  0  0  0  0  0  0
    0.4140    0.1050   -0.0940 C   0  0  0  0  0  0  0  0  0  0  0  0
   -0.5900   -0.9780   -0.5130 C   0  0  2  0  0  0  0  0  0  0  0  0
   -1.2140   -0.4170   -2.1500 S   0  0  0  0  0  0  0  0  0  0  0  0
   -2.7980    0.2670   -1.5040 C   0  0  0  0  0  0  0  0  0  0  0  0
   -3.0340   -0.7310   -0.4000 C   0  0  2  0  0  0  0  0  0  0  0  0
   -3.9100   -0.0960    0.5720 N   0  0  0  0  0  0  0  0  0  0  0  0
   -3.0150    0.5650    1.4930 C   0  0  0  0  0  0  0  0  0  0  0  0
   -3.3340    1.5620    2.2030 O   0  0  0  0  0  0  0  0  0  0  0  0
   -1.7510   -0.0840    1.4590 N   0  0  0  0  0  0  0  0  0  0  0  0
   -1.7940   -0.9850    0.3490 C   0  0  2  0  0  0  0  0  0  0  0  0
  1  2  2  0
  2  3  1  0
  2  4  1  0
  4  5  1  0
  5  6  1  0
  6  7  1  0
  8  7  1  1
  8  9  1  0
  8 16  1  0
  9 10  1  0
 11 10  1  6
 11 12  1  0
 11 16  1  0
 12 13  1  0
 13 14  2  0
 13 15  1  0
 16 15  1  1
M  END
