
     RDKit          3D

 27 29  0  0  0  0  0  0  0  0999 V2000
   -3.3270   -1.6950   -2.8170 C   0  0  0  0  0  0  0  0  0  0  0  0
   -2.6800   -1.9130   -1.5290 C   0  0  0  0  0  0  0  0  0  0  0  0
   -2.9010   -1.2750   -0.4180 C   0  0  0  0  0  0  0  0  0  0  0  0
   -2.1380   -1.6670    0.7360 O   0  0  0  0  0  0  0  0  0  0  0  0
   -1.8620   -0.6990    1.7480 C   0  0  1  0  0  0  0  0  0  0  0  0
   -1.0230    0.3810    1.0990 C   0  0  0  0  0  0  0  0  0  0  0  0
    0.2250   -0.1760    0.5780 N   0  0  0  0  0  0  0  0  0  0  0  0
    1.1920    0.6190   -0.0770 C   0  0  0  0  0  0  0  0  0  0  0  0
    1.0090    1.8380   -0.2340 O   0  0  0  0  0  0  0  0  0  0  0  0
    2.4740    0.0340   -0.6100 C   0  0  1  0  0  0  0  0  0  0  0  0
    2.1290   -1.0930   -1.5700 C   0  0  0  0  0  0  0  0  0  0  0  0
    3.2830    1.0360   -1.2270 N   0  0  0  0  0  0  0  0  0  0  0  0
    4.1630    1.8280   -0.4530 C   0  0  0  0  0  0  0  0  0  0  0  0
    4.3760    3.0350   -0.7790 O   0  0  0  0  0  0  0  0  0  0  0  0
    4.8240    1.2440    0.7230 C   0  0  2  0  0  0  0  0  0  0  0  0
    6.1020    0.5190    0.2790 C   0  0  0  0  0  0  0  0  0  0  0  0
    5.7560   -0.4820   -0.6070 O   0  0  0  0  0  0  0  0  0  0  0  0
    3.9950    0.2440    1.3510 N   0  0  0  0  0  0  0  0  0  0  0  0
    3.1600   -0.5540    0.5480 C   0  0  0  0  0  0  0  0  0  0  0  0
    3.0000   -1.7660    0.8210 O   0  0  0  0  0  0  0  0  0  0  0  0
   -3.1380   -0.0710    2.2270 C   0  0  0  0  0  0  0  0  0  0  0  0
   -3.9440    0.3950    1.1410 N   0  0  0  0  0  0  0  0  0  0  0  0
   -4.9360    1.4260    1.0740 C   0  0  0  0  0  0  0  0  0  0  0  0
   -5.2700    2.1330    2.0380 O   0  0  0  0  0  0  0  0  0  0  0  0
   -5.4460    1.4720   -0.2870 C   0  0  0  0  0  0  0  0  0  0  0  0
   -4.6810    0.4080   -0.9880 C   0  0  0  0  0  0  0  0  0  0  0  0
   -3.8320   -0.1920   -0.1540 C   0  0  0  0  0  0  0  0  0  0  0  0
  1  2  1  0
  2  3  2  3
  3  4  1  0
  3 27  1  0
  4  5  1  0
  5  6  1  6
  5 21  1  0
  6  7  1  0
  7  8  1  0
  8  9  2  0
  8 10  1  0
 10 11  1  6
 10 12  1  0
 10 19  1  0
 12 13  1  0
 13 14  2  0
 13 15  1  0
 15 16  1  6
 15 18  1  0
 16 17  1  0
 18 19  1  0
 19 20  2  0
 21 22  1  0
 22 23  1  0
 22 27  1  0
 23 24  2  0
 23 25  1  0
 25 26  1  0
 26 27  2  0
M  END
