
     RDKit          3D

 27 28  0  0  0  0  0  0  0  0999 V2000
    4.1540    2.0070   -2.1400 C   0  0  0  0  0  0  0  0  0  0  0  0
    3.5790    1.7630   -0.7500 C   0  0  0  0  0  0  0  0  0  0  0  0
    3.8080    0.4290   -0.2290 C   0  0  0  0  0  0  0  0  0  0  0  0
    3.0190   -0.5440    0.1050 C   0  0  0  0  0  0  0  0  0  0  0  0
    1.5700   -0.5620    0.0310 C   0  0  0  0  0  0  0  0  0  0  0  0
    0.9260   -1.6520    0.4880 C   0  0  0  0  0  0  0  0  0  0  0  0
    1.9130   -2.6520    1.0080 N   0  0  0  0  0  0  0  0  0  0  0  0
   -0.3980   -2.0040    0.6050 N   0  0  0  0  0  0  0  0  0  0  0  0
   -1.4340   -2.5580   -0.2510 C   0  0  0  0  0  0  0  0  0  0  0  0
   -2.1150   -3.7060    0.0570 C   0  0  0  0  0  0  0  0  0  0  0  0
   -3.0860   -4.0360   -0.9740 C   0  0  0  0  0  0  0  0  0  0  0  0
   -2.9030   -2.9460   -1.9260 C   0  0  0  0  0  0  0  0  0  0  0  0
   -1.9400   -2.0880   -1.4890 C   0  0  0  0  0  0  0  0  0  0  0  0
   -1.6080   -0.8560   -2.2400 C   0  0  0  0  0  0  0  0  0  0  0  0
   -1.0260   -1.0930   -3.3680 O   0  0  0  0  0  0  0  0  0  0  0  0
   -1.8700    0.4970   -1.8400 N   0  0  0  0  0  0  0  0  0  0  0  0
   -2.5580    0.9470   -0.7300 N   0  0  0  0  0  0  0  0  0  0  0  0
   -2.2180    0.8560    0.6450 C   0  0  0  0  0  0  0  0  0  0  0  0
   -2.9950    0.4490    1.5430 O   0  0  0  0  0  0  0  0  0  0  0  0
   -0.8450    1.2620    1.1150 C   0  0  2  0  0  0  0  0  0  0  0  0
   -0.8790    2.5410    1.8680 C   0  0  0  0  0  0  0  0  0  0  0  0
   -0.2200    3.5600    1.5230 O   0  0  0  0  0  0  0  0  0  0  0  0
   -1.6710    2.6390    3.0150 O   0  0  0  0  0  0  0  0  0  0  0  0
   -1.7520    3.8240    3.7830 C   0  0  0  0  0  0  0  0  0  0  0  0
    0.0170    1.4420    0.0250 O   0  0  0  0  0  0  0  0  0  0  0  0
    0.8730    0.5800   -0.5630 C   0  0  0  0  0  0  0  0  0  0  0  0
    1.1340    0.7560   -1.8200 O   0  0  0  0  0  0  0  0  0  0  0  0
  1  2  1  0
  2  3  1  0
  3  4  2  3
  4  5  1  0
  5  6  2  0
  5 26  1  0
  6  7  1  0
  6  8  1  0
  8  9  1  0
  9 10  2  0
  9 13  1  0
 10 11  1  0
 11 12  1  0
 12 13  2  0
 13 14  1  0
 14 15  2  0
 14 16  1  0
 16 17  1  0
 17 18  1  0
 18 19  2  0
 18 20  1  0
 20 21  1  6
 20 25  1  0
 21 22  2  0
 21 23  1  0
 23 24  1  0
 25 26  1  0
 26 27  2  0
M  END
