
     RDKit          3D

 27 29  0  0  0  0  0  0  0  0999 V2000
    5.6730   -2.2660   -0.5630 C   0  0  0  0  0  0  0  0  0  0  0  0
    4.5980   -2.0440    0.3870 N   0  0  0  0  0  0  0  0  0  0  0  0
    4.2320   -0.7560    0.8480 C   0  0  0  0  0  0  0  0  0  0  0  0
    4.8330    0.2660    0.4460 O   0  0  0  0  0  0  0  0  0  0  0  0
    3.1240   -0.5770    1.8220 C   0  0  2  0  0  0  0  0  0  0  0  0
    2.6060   -1.8030    2.1290 O   0  0  0  0  0  0  0  0  0  0  0  0
    1.2410   -1.8090    1.7750 C   0  0  0  0  0  0  0  0  0  0  0  0
    0.5830   -2.8420    1.9750 O   0  0  0  0  0  0  0  0  0  0  0  0
    0.8730   -0.5300    1.2170 C   0  0  0  0  0  0  0  0  0  0  0  0
   -0.3730   -0.0050    0.7030 C   0  0  0  0  0  0  0  0  0  0  0  0
   -1.5440   -0.5590    0.5970 C   0  0  0  0  0  0  0  0  0  0  0  0
   -2.0860   -1.8120    0.9080 N   0  0  0  0  0  0  0  0  0  0  0  0
   -3.4890   -1.8670    0.5620 C   0  0  0  0  0  0  0  0  0  0  0  0
   -4.2420   -2.8630    0.7240 O   0  0  0  0  0  0  0  0  0  0  0  0
   -3.8220   -0.5700    0.0070 C   0  0  0  0  0  0  0  0  0  0  0  0
   -4.8890    0.1660   -0.5370 C   0  0  0  0  0  0  0  0  0  0  0  0
   -6.2350   -0.3960   -0.6860 C   0  0  0  0  0  0  0  0  0  0  0  0
   -4.3990    1.3690   -0.8430 N   0  0  0  0  0  0  0  0  0  0  0  0
   -3.0990    1.4200   -0.5230 C   0  0  0  0  0  0  0  0  0  0  0  0
   -2.2000    2.5890   -0.7100 C   0  0  0  0  0  0  0  0  0  0  0  0
   -2.7070    0.2140    0.0150 C   0  0  0  0  0  0  0  0  0  0  0  0
    2.0120    0.2210    1.2440 C   0  0  0  0  0  0  0  0  0  0  0  0
    2.1480    1.4870    0.8230 O   0  0  0  0  0  0  0  0  0  0  0  0
    1.6710    2.4380    0.0300 C   0  0  0  0  0  0  0  0  0  0  0  0
    1.6450    2.0910   -1.4450 C   0  0  0  0  0  0  0  0  0  0  0  0
    2.1030    0.8430   -1.8850 N   0  0  0  0  0  0  0  0  0  0  0  0
    1.2120    2.9280   -2.2690 O   0  0  0  0  0  0  0  0  0  0  0  0
  1  2  1  0
  2  3  1  0
  3  4  2  0
  5  3  1  6
  5  6  1  0
  5 22  1  0
  6  7  1  0
  7  8  2  0
  7  9  1  0
  9 10  1  0
  9 22  2  0
 10 11  2  3
 11 12  1  0
 11 21  1  0
 12 13  1  0
 13 14  2  0
 13 15  1  0
 15 16  2  0
 15 21  1  0
 16 17  1  0
 16 18  1  0
 18 19  1  0
 19 20  1  0
 19 21  2  0
 22 23  1  0
 23 24  1  0
 24 25  1  0
 25 26  1  0
 25 27  2  0
M  END
