
     RDKit          3D

 27 29  0  0  0  0  0  0  0  0999 V2000
    7.7010   -0.5320   -0.3230 C   0  0  0  0  0  0  0  0  0  0  0  0
    6.2420   -0.7670   -0.4780 C   0  0  0  0  0  0  0  0  0  0  0  0
    5.6300   -0.3200   -1.4800 O   0  0  0  0  0  0  0  0  0  0  0  0
    5.5630   -1.5020    0.5250 N   0  0  0  0  0  0  0  0  0  0  0  0
    4.1490   -1.7350    0.3830 C   0  0  0  0  0  0  0  0  0  0  0  0
    3.4310   -0.4180    0.3280 C   0  0  0  0  0  0  0  0  0  0  0  0
    4.0410    0.6710    0.4010 O   0  0  0  0  0  0  0  0  0  0  0  0
    2.0800   -0.4260    0.1940 O   0  0  0  0  0  0  0  0  0  0  0  0
    1.2350    0.6940    0.1200 C   0  0  1  0  0  0  0  0  0  0  0  0
    1.4280    1.5110    1.4130 C   0  0  0  0  0  0  0  0  0  0  0  0
    1.6080    1.5480   -0.9940 C   0  0  0  0  0  0  0  0  0  0  0  0
   -0.1450    0.2040    0.2020 C   0  0  0  0  0  0  0  0  0  0  0  0
   -1.1760    0.3360   -0.5740 C   0  0  0  0  0  0  0  0  0  0  0  0
   -1.3290    1.0210   -1.8070 N   0  0  0  0  0  0  0  0  0  0  0  0
   -2.6650    1.4710   -2.1200 C   0  0  0  0  0  0  0  0  0  0  0  0
   -2.9630    1.6540   -3.3130 O   0  0  0  0  0  0  0  0  0  0  0  0
   -3.5590    1.6710   -0.9570 C   0  0  0  0  0  0  0  0  0  0  0  0
   -3.5720    0.5330    0.0210 C   0  0  1  0  0  0  0  0  0  0  0  0
   -4.8360   -0.2390   -0.0940 C   0  0  0  0  0  0  0  0  0  0  0  0
   -5.0030   -1.5300   -0.2550 C   0  0  0  0  0  0  0  0  0  0  0  0
   -6.4450   -1.7990   -0.3100 C   0  0  0  0  0  0  0  0  0  0  0  0
   -7.0900   -0.5750   -0.2810 O   0  0  0  0  0  0  0  0  0  0  0  0
   -6.1310    0.3490   -0.0420 N   0  0  0  0  0  0  0  0  0  0  0  0
   -2.3890   -0.3630   -0.0720 C   0  0  2  0  0  0  0  0  0  0  0  0
   -1.9450   -0.9280    1.1510 N   0  0  0  0  0  0  0  0  0  0  0  0
   -0.5750   -0.6100    1.3460 C   0  0  0  0  0  0  0  0  0  0  0  0
    0.0830   -0.9940    2.3460 O   0  0  0  0  0  0  0  0  0  0  0  0
  1  2  1  0
  2  3  2  0
  2  4  1  0
  4  5  1  0
  5  6  1  0
  6  7  2  0
  6  8  1  0
  8  9  1  0
  9 10  1  1
  9 11  1  0
  9 12  1  0
 12 13  2  0
 12 26  1  0
 13 14  1  0
 13 24  1  0
 14 15  1  0
 15 16  2  0
 15 17  1  0
 17 18  1  0
 18 19  1  6
 18 24  1  0
 19 20  2  0
 19 23  1  0
 20 21  1  0
 21 22  1  0
 22 23  1  0
 24 25  1  1
 25 26  1  0
 26 27  2  0
M  END
