
     RDKit          3D

 13 14  0  0  0  0  0  0  0  0999 V2000
    3.3650   -0.8680    0.1140 C   0  0  0  0  0  0  0  0  0  0  0  0
    1.9820   -0.3010    0.0730 C   0  0  0  0  0  0  0  0  0  0  0  0
    0.8880   -1.1470   -0.0630 C   0  0  0  0  0  0  0  0  0  0  0  0
   -0.3850   -0.6260   -0.1010 C   0  0  0  0  0  0  0  0  0  0  0  0
   -1.5120   -1.4270   -0.2350 C   0  0  0  0  0  0  0  0  0  0  0  0
   -2.7910   -0.9100   -0.2740 C   0  0  0  0  0  0  0  0  0  0  0  0
   -3.9140   -1.7310   -0.4090 O   0  0  0  0  0  0  0  0  0  0  0  0
   -2.9200    0.4260   -0.1760 N   0  0  0  0  0  0  0  0  0  0  0  0
   -1.8590    1.2320   -0.0460 C   0  0  0  0  0  0  0  0  0  0  0  0
   -0.5660    0.7380   -0.0040 C   0  0  0  0  0  0  0  0  0  0  0  0
    0.5300    1.5700    0.1300 C   0  0  0  0  0  0  0  0  0  0  0  0
    0.2900    2.9580    0.2250 N   0  0  0  0  0  0  0  0  0  0  0  0
    1.7530    1.0190    0.1630 N   0  0  0  0  0  0  0  0  0  0  0  0
  1  2  1  0
  2  3  2  0
  2 13  1  0
  3  4  1  0
  4  5  2  0
  4 10  1  0
  5  6  1  0
  6  7  1  0
  6  8  2  0
  8  9  1  0
  9 10  2  0
 10 11  1  0
 11 12  1  0
 11 13  2  0
M  END
