
     RDKit          3D

 14 14  0  0  0  0  0  0  0  0999 V2000
    2.3390   -0.0190    1.7250 O   0  0  0  0  0  0  0  0  0  0  0  0
    1.4940   -0.1580    0.8100 C   0  0  0  0  0  0  0  0  0  0  0  0
    0.0230   -0.0580    1.1430 C   0  0  0  0  0  0  0  0  0  0  0  0
   -0.6790   -0.2490   -0.0440 O   0  0  0  0  0  0  0  0  0  0  0  0
   -2.0710   -0.2030   -0.0010 C   0  0  0  0  0  0  0  0  0  0  0  0
   -2.7330    0.8140   -0.5100 C   0  0  0  0  0  0  0  0  0  0  0  0
   -4.2260    0.9160   -0.4920 C   0  0  0  0  0  0  0  0  0  0  0  0
   -4.8000   -0.1940    0.1270 O   0  0  0  0  0  0  0  0  0  0  0  0
   -4.1380   -1.2690    0.6680 C   0  0  0  0  0  0  0  0  0  0  0  0
   -2.8150   -1.2950    0.6170 C   0  0  0  0  0  0  0  0  0  0  0  0
    1.9160   -0.4020   -0.5020 N   0  0  0  0  0  0  0  0  0  0  0  0
    3.2950   -0.4960   -0.8620 C   0  0  0  0  0  0  0  0  0  0  0  0
    3.9830    0.8160   -0.5830 C   0  0  0  0  0  0  0  0  0  0  0  0
    5.3370    0.7690   -0.9250 O   0  0  0  0  0  0  0  0  0  0  0  0
  1  2  2  0
  2  3  1  0
  2 11  1  0
  3  4  1  0
  4  5  1  0
  5  6  2  0
  5 10  1  0
  6  7  1  0
  7  8  1  0
  8  9  1  0
  9 10  2  0
 11 12  1  0
 12 13  1  0
 13 14  1  0
M  END
