
     RDKit          3D

 14 14  0  0  0  0  0  0  0  0999 V2000
    4.6620    0.1950    0.2490 C   0  0  0  0  0  0  0  0  0  0  0  0
    3.2910    0.2250    0.1030 O   0  0  0  0  0  0  0  0  0  0  0  0
    2.7180   -0.5370    1.1300 C   0  0  0  0  0  0  0  0  0  0  0  0
    1.2190   -0.5320    1.0090 C   0  0  0  0  0  0  0  0  0  0  0  0
    0.5610   -1.1610    1.8410 O   0  0  0  0  0  0  0  0  0  0  0  0
    0.5830    0.1770   -0.0340 N   0  0  0  0  0  0  0  0  0  0  0  0
   -0.8000    0.2740   -0.2750 C   0  0  0  0  0  0  0  0  0  0  0  0
   -1.2170    1.0280   -1.3750 C   0  0  0  0  0  0  0  0  0  0  0  0
   -2.5190    1.2030   -1.7200 C   0  0  0  0  0  0  0  0  0  0  0  0
   -3.4980    0.6090   -0.9500 C   0  0  0  0  0  0  0  0  0  0  0  0
   -4.8280    0.7790   -1.2900 O   0  0  0  0  0  0  0  0  0  0  0  0
   -3.1370   -0.1450    0.1470 C   0  0  0  0  0  0  0  0  0  0  0  0
   -4.1310   -0.7360    0.9140 O   0  0  0  0  0  0  0  0  0  0  0  0
   -1.7780   -0.2980    0.4650 C   0  0  0  0  0  0  0  0  0  0  0  0
  1  2  1  0
  2  3  1  0
  3  4  1  0
  4  5  2  0
  4  6  1  0
  6  7  1  0
  7  8  2  0
  7 14  1  0
  8  9  1  0
  9 10  2  0
 10 11  1  0
 10 12  1  0
 12 13  1  0
 12 14  2  0
M  END
