
     RDKit          3D

 14 14  0  0  0  0  0  0  0  0999 V2000
   -3.2490   -0.7080    0.4440 C   0  0  0  0  0  0  0  0  0  0  0  0
   -2.5030   -1.0890   -0.8090 C   0  0  0  0  0  0  0  0  0  0  0  0
   -1.1160   -1.0670   -0.6620 O   0  0  0  0  0  0  0  0  0  0  0  0
   -0.3400    0.0300   -0.3370 C   0  0  0  0  0  0  0  0  0  0  0  0
   -0.9480    1.2490   -0.1340 C   0  0  0  0  0  0  0  0  0  0  0  0
   -0.2200    2.3700    0.1900 C   0  0  0  0  0  0  0  0  0  0  0  0
    1.1370    2.2380    0.3060 C   0  0  0  0  0  0  0  0  0  0  0  0
    1.9380    3.3360    0.6340 O   0  0  0  0  0  0  0  0  0  0  0  0
    1.7380    0.9940    0.0970 C   0  0  0  0  0  0  0  0  0  0  0  0
    1.0530   -0.1320   -0.2230 C   0  0  0  0  0  0  0  0  0  0  0  0
    1.5640   -1.4110   -0.4500 N   0  0  0  0  0  0  0  0  0  0  0  0
    2.9260   -1.7630   -0.3810 C   0  0  0  0  0  0  0  0  0  0  0  0
    3.8000   -0.9370   -0.1060 O   0  0  0  0  0  0  0  0  0  0  0  0
    3.3400   -3.0810   -0.6260 O   0  0  0  0  0  0  0  0  0  0  0  0
  1  2  1  0
  2  3  1  0
  3  4  1  0
  4  5  2  0
  4 10  1  0
  5  6  1  0
  6  7  2  0
  7  8  1  0
  7  9  1  0
  9 10  2  0
 10 11  1  0
 11 12  1  0
 12 13  2  0
 12 14  1  0
M  END
