
     RDKit          3D

 14 13  0  0  0  0  0  0  0  0999 V2000
    4.2350    1.4630   -2.2800 C   0  0  0  0  0  0  0  0  0  0  0  0
    2.8880    1.9420   -1.7240 C   0  0  0  0  0  0  0  0  0  0  0  0
    2.2230    0.7760   -1.2720 O   0  0  0  0  0  0  0  0  0  0  0  0
    0.9650    0.8790   -0.7080 C   0  0  0  0  0  0  0  0  0  0  0  0
    0.4620    2.0260   -0.6240 O   0  0  0  0  0  0  0  0  0  0  0  0
    0.2030   -0.2970   -0.2100 C   0  0  0  0  0  0  0  0  0  0  0  0
   -1.0400    0.1280    0.3060 O   0  0  0  0  0  0  0  0  0  0  0  0
   -1.9010   -0.8260    0.8210 C   0  0  0  0  0  0  0  0  0  0  0  0
   -1.9830   -1.0650    2.2560 C   0  0  0  0  0  0  0  0  0  0  0  0
   -1.2200   -0.3550    3.0650 C   0  0  0  0  0  0  0  0  0  0  0  0
   -0.3300    0.6270    2.5670 N   0  0  0  0  0  0  0  0  0  0  0  0
   -2.6500   -1.5190   -0.0070 C   0  0  0  0  0  0  0  0  0  0  0  0
   -2.5880   -1.2960   -1.4770 C   0  0  0  0  0  0  0  0  0  0  0  0
   -3.5190   -2.4770    0.4790 O   0  0  0  0  0  0  0  0  0  0  0  0
  1  2  1  0
  2  3  1  0
  3  4  1  0
  4  5  2  0
  4  6  1  0
  6  7  1  0
  7  8  1  0
  8  9  1  0
  8 12  2  3
  9 10  2  3
 10 11  1  0
 12 13  1  0
 12 14  1  0
M  END
