
     RDKit          3D

 14 14  0  0  0  0  0  0  0  0999 V2000
   -3.5790    0.4370   -1.4810 C   0  0  0  0  0  0  0  0  0  0  0  0
   -2.7550   -0.5580   -0.9170 O   0  0  0  0  0  0  0  0  0  0  0  0
   -2.5510   -0.2720    0.4470 C   0  0  0  0  0  0  0  0  0  0  0  0
   -1.6820   -1.2970    1.1000 C   0  0  0  0  0  0  0  0  0  0  0  0
   -0.4440   -1.3870    0.5360 O   0  0  0  0  0  0  0  0  0  0  0  0
    0.6130   -0.5650    0.3840 C   0  0  0  0  0  0  0  0  0  0  0  0
    0.7380    0.7180    0.8200 C   0  0  0  0  0  0  0  0  0  0  0  0
    1.8760    1.5120    0.6230 C   0  0  0  0  0  0  0  0  0  0  0  0
    1.8820    2.8030    1.1140 O   0  0  0  0  0  0  0  0  0  0  0  0
    2.9460    0.9810   -0.0500 C   0  0  0  0  0  0  0  0  0  0  0  0
    4.1000    1.7080   -0.2790 O   0  0  0  0  0  0  0  0  0  0  0  0
    2.8390   -0.3260   -0.5030 C   0  0  0  0  0  0  0  0  0  0  0  0
    1.7200   -1.0990   -0.3070 C   0  0  0  0  0  0  0  0  0  0  0  0
    1.6550   -2.4310   -0.7870 N   0  0  0  0  0  0  0  0  0  0  0  0
  1  2  1  0
  2  3  1  0
  3  4  1  0
  4  5  1  0
  5  6  1  0
  6  7  2  0
  6 13  1  0
  7  8  1  0
  8  9  1  0
  8 10  2  0
 10 11  1  0
 10 12  1  0
 12 13  2  0
 13 14  1  0
M  END
