
     RDKit          3D

 16 16  0  0  0  0  0  0  0  0999 V2000
   -4.3000   -0.7100   -0.1540 C   0  0  0  0  0  0  0  0  0  0  0  0
   -2.8690   -0.4420   -0.5670 C   0  0  2  0  0  0  0  0  0  0  0  0
   -2.0170   -1.2880    0.2380 N   0  0  0  0  0  0  0  0  0  0  0  0
   -0.8050   -1.5740   -0.4030 N   0  0  0  0  0  0  0  0  0  0  0  0
    0.5110   -1.0510   -0.5040 C   0  0  0  0  0  0  0  0  0  0  0  0
    1.3750   -1.9010   -0.8910 O   0  0  0  0  0  0  0  0  0  0  0  0
    1.1240    0.2500   -0.2680 C   0  0  1  0  0  0  0  0  0  0  0  0
    2.6100    0.5860   -1.1840 S   0  0  0  0  0  0  0  0  0  0  0  0
    4.0240   -0.3920   -0.8100 C   0  0  0  0  0  0  0  0  0  0  0  0
    4.5830   -0.1650    0.6020 C   0  0  0  0  0  0  0  0  0  0  0  0
    4.9530    1.1730    0.7290 O   0  0  0  0  0  0  0  0  0  0  0  0
    0.1440    1.3700   -0.5550 C   0  0  0  0  0  0  0  0  0  0  0  0
   -1.1500    1.1980    0.1320 C   0  0  0  0  0  0  0  0  0  0  0  0
   -1.0060    1.2070    1.3400 O   0  0  0  0  0  0  0  0  0  0  0  0
   -2.5730    1.0180   -0.2670 C   0  0  2  0  0  0  0  0  0  0  0  0
   -3.4600    1.5570    0.6570 O   0  0  0  0  0  0  0  0  0  0  0  0
  2  1  1  1
  2  3  1  0
  2 15  1  0
  3  4  1  0
  4  5  1  0
  5  6  2  0
  5  7  1  0
  7  8  1  6
  7 12  1  0
  8  9  1  0
  9 10  1  0
 10 11  1  0
 12 13  1  0
 13 14  2  0
 13 15  1  0
 15 16  1  1
M  END
