
     RDKit          3D

 16 16  0  0  0  0  0  0  0  0999 V2000
   -4.6100    0.3280    0.4010 C   0  0  0  0  0  0  0  0  0  0  0  0
   -4.2820   -0.8030   -0.5280 C   0  0  1  0  0  0  0  0  0  0  0  0
   -5.2560   -0.9450   -1.5050 O   0  0  0  0  0  0  0  0  0  0  0  0
   -2.9330   -0.5570   -1.1720 C   0  0  0  0  0  0  0  0  0  0  0  0
   -1.9190   -0.4070   -0.1980 O   0  0  0  0  0  0  0  0  0  0  0  0
   -0.6280   -0.1760   -0.6510 C   0  0  0  0  0  0  0  0  0  0  0  0
   -0.3830   -0.1040   -1.8860 O   0  0  0  0  0  0  0  0  0  0  0  0
    0.4630   -0.0120    0.2370 N   0  0  0  0  0  0  0  0  0  0  0  0
    1.8270    0.2320   -0.2100 C   0  0  1  0  0  0  0  0  0  0  0  0
    2.2020    1.6130    0.2440 C   0  0  0  0  0  0  0  0  0  0  0  0
    3.5240    2.0820   -0.3220 C   0  0  0  0  0  0  0  0  0  0  0  0
    4.8020    0.9710    0.3860 S   0  0  0  0  0  0  0  0  0  0  0  0
    3.8830   -0.4110    1.0410 C   0  0  0  0  0  0  0  0  0  0  0  0
    4.2590   -0.9690    2.1130 N   0  0  0  0  0  0  0  0  0  0  0  0
    2.7010   -0.8520    0.2910 C   0  0  1  0  0  0  0  0  0  0  0  0
    1.9800   -1.7550    1.0880 O   0  0  0  0  0  0  0  0  0  0  0  0
  2  1  1  1
  2  3  1  0
  2  4  1  0
  4  5  1  0
  5  6  1  0
  6  7  2  0
  6  8  1  0
  9  8  1  1
  9 10  1  0
  9 15  1  0
 10 11  1  0
 11 12  1  0
 12 13  1  0
 13 14  2  0
 13 15  1  0
 15 16  1  1
M  END
