
     RDKit          3D

 16 17  0  0  0  0  0  0  0  0999 V2000
   -1.0250   -1.0940    1.4460 C   0  0  0  0  0  0  0  0  0  0  0  0
   -0.9980    0.0870    0.4920 C   0  0  2  0  0  0  0  0  0  0  0  0
   -0.1630    1.0800    1.0540 O   0  0  0  0  0  0  0  0  0  0  0  0
   -2.3690    0.6480    0.4230 C   0  0  0  0  0  0  0  0  0  0  0  0
   -2.7300    1.3460   -0.8490 C   0  0  0  0  0  0  0  0  0  0  0  0
   -2.6950    0.0870   -2.1610 S   0  0  0  0  0  0  0  0  0  0  0  0
   -1.4210   -1.1020   -1.5820 C   0  0  0  0  0  0  0  0  0  0  0  0
   -0.4060   -0.2590   -0.8440 C   0  0  1  0  0  0  0  0  0  0  0  0
   -0.1960    0.9660   -1.5190 O   0  0  0  0  0  0  0  0  0  0  0  0
    0.9250   -0.9290   -0.7670 C   0  0  0  0  0  0  0  0  0  0  0  0
    1.9150   -0.1630   -0.0580 N   0  0  0  0  0  0  0  0  0  0  0  0
    2.1340   -0.2650    1.3320 N   0  0  0  0  0  0  0  0  0  0  0  0
    3.4600    0.2910    1.5350 C   0  0  0  0  0  0  0  0  0  0  0  0
    3.7310    1.0710    0.3870 O   0  0  0  0  0  0  0  0  0  0  0  0
    2.8100    0.7900   -0.6060 C   0  0  0  0  0  0  0  0  0  0  0  0
    2.7440    1.2710   -1.7880 O   0  0  0  0  0  0  0  0  0  0  0  0
  2  1  1  1
  2  3  1  0
  2  4  1  0
  2  8  1  0
  4  5  1  0
  5  6  1  0
  6  7  1  0
  7  8  1  0
  8  9  1  6
  8 10  1  0
 10 11  1  0
 11 12  1  0
 11 15  1  0
 12 13  1  0
 13 14  1  0
 14 15  1  0
 15 16  2  0
M  END
