
     RDKit          3D

 15 15  0  0  0  0  0  0  0  0999 V2000
   -2.3640    0.7500    1.6110 C   0  0  0  0  0  0  0  0  0  0  0  0
   -1.4230    0.8870    0.5960 O   0  0  0  0  0  0  0  0  0  0  0  0
   -1.4150   -0.2410   -0.2560 C   0  0  2  0  0  0  0  0  0  0  0  0
   -2.8340   -0.3400   -0.8560 C   0  0  0  0  0  0  0  0  0  0  0  0
   -1.2320   -1.4490    0.5670 C   0  0  0  0  0  0  0  0  0  0  0  0
   -0.5180    0.0080   -1.3890 C   0  0  1  0  0  0  0  0  0  0  0  0
   -1.0520    1.1900   -2.0970 N   0  0  0  0  0  0  0  0  0  0  0  0
    0.9140    0.3060   -1.1380 C   0  0  2  0  0  0  0  0  0  0  0  0
    1.7100   -0.7350   -0.4320 C   0  0  0  0  0  0  0  0  0  0  0  0
    2.3200   -0.0150    0.7840 C   0  0  1  0  0  0  0  0  0  0  0  0
    2.9240   -1.0030    1.7450 C   0  0  0  0  0  0  0  0  0  0  0  0
    3.3280    0.8700    0.2360 N   0  0  0  0  0  0  0  0  0  0  0  0
    2.8150    2.0750   -0.0740 O   0  0  0  0  0  0  0  0  0  0  0  0
    1.1440    1.9040   -0.3100 S   0  0  0  0  0  0  0  0  0  0  0  0
    0.6990    2.9780   -1.3070 O   0  0  0  0  0  0  0  0  0  0  0  0
  1  2  1  0
  2  3  1  0
  3  4  1  6
  3  5  1  0
  3  6  1  0
  6  7  1  1
  6  8  1  0
  8  9  1  1
  8 14  1  0
  9 10  1  0
 10 11  1  1
 10 12  1  0
 12 13  1  0
 14 13  1  6
 14 15  2  0
M  END
