
     RDKit          3D

 16 16  0  0  0  0  0  0  0  0999 V2000
    0.5490    0.6610   -1.3300 O   0  0  0  0  0  0  0  0  0  0  0  0
    0.5580   -0.0990   -0.3110 C   0  0  0  0  0  0  0  0  0  0  0  0
    1.8030   -0.3930    0.2990 N   0  0  0  0  0  0  0  0  0  0  0  0
    3.0110    0.1730   -0.2490 C   0  0  0  0  0  0  0  0  0  0  0  0
    4.2170   -0.2660    0.5490 C   0  0  0  0  0  0  0  0  0  0  0  0
    5.4750    0.3460   -0.0520 C   0  0  0  0  0  0  0  0  0  0  0  0
    5.6600   -0.0410   -1.3580 O   0  0  0  0  0  0  0  0  0  0  0  0
   -0.6790   -0.5900    0.1320 N   0  0  0  0  0  0  0  0  0  0  0  0
   -1.9560   -0.2670   -0.5230 C   0  0  1  0  0  0  0  0  0  0  0  0
   -2.5050   -1.5130   -1.0840 C   0  0  0  0  0  0  0  0  0  0  0  0
   -3.6060   -2.0510    0.2640 S   0  0  0  0  0  0  0  0  0  0  0  0
   -4.8050   -2.7870   -0.2570 O   0  0  0  0  0  0  0  0  0  0  0  0
   -4.0060   -0.3840    0.8180 C   0  0  0  0  0  0  0  0  0  0  0  0
   -2.8500    0.4130    0.3880 C   0  0  2  0  0  0  0  0  0  0  0  0
   -3.3390    1.7360   -0.2190 C   0  0  0  0  0  0  0  0  0  0  0  0
   -2.2490    2.5820   -0.4860 O   0  0  0  0  0  0  0  0  0  0  0  0
  1  2  2  0
  2  3  1  0
  2  8  1  0
  3  4  1  0
  4  5  1  0
  5  6  1  0
  6  7  1  0
  9  8  1  1
  9 10  1  0
  9 14  1  0
 11 10  1  6
 11 12  2  0
 11 13  1  0
 13 14  1  0
 14 15  1  6
 15 16  1  0
M  END
