
     RDKit          3D

 15 16  0  0  0  0  0  0  0  0999 V2000
    2.3430    1.6710    0.1400 C   0  0  0  0  0  0  0  0  0  0  0  0
    1.8890    0.2890    0.4410 C   0  0  1  0  0  0  0  0  0  0  0  0
    0.4790    0.1100    0.5540 N   0  0  0  0  0  0  0  0  0  0  0  0
   -0.4250    0.3900   -0.5070 C   0  0  0  0  0  0  0  0  0  0  0  0
    0.0920    0.8130   -1.5770 O   0  0  0  0  0  0  0  0  0  0  0  0
   -1.8690    0.2230   -0.4390 C   0  0  1  0  0  0  0  0  0  0  0  0
   -2.4650    0.6030   -1.7020 N   0  0  0  0  0  0  0  0  0  0  0  0
   -2.2910   -1.2030   -0.1400 C   0  0  0  0  0  0  0  0  0  0  0  0
   -3.6290   -0.9560    0.5680 C   0  0  0  0  0  0  0  0  0  0  0  0
   -3.2770    0.0880    1.4190 O   0  0  0  0  0  0  0  0  0  0  0  0
   -2.5240    0.9870    0.6810 C   0  0  0  0  0  0  0  0  0  0  0  0
    2.5280   -0.6980   -0.5490 C   0  0  0  0  0  0  0  0  0  0  0  0
    3.8890   -0.6580   -0.2500 O   0  0  0  0  0  0  0  0  0  0  0  0
    4.0350   -1.2760    1.0160 C   0  0  0  0  0  0  0  0  0  0  0  0
    2.7650   -0.3120    1.9420 S   0  0  0  0  0  0  0  0  0  0  0  0
  2  1  1  6
  2  3  1  0
  2 12  1  0
  2 15  1  0
  3  4  1  0
  4  5  2  0
  4  6  1  0
  6  7  1  6
  6  8  1  0
  6 11  1  0
  8  9  1  0
  9 10  1  0
 10 11  1  0
 12 13  1  0
 13 14  1  0
 14 15  1  0
M  END
