
     RDKit          3D

 27 31  0  0  0  0  0  0  0  0999 V2000
   -6.4700    1.5030   -2.5480 F   0  0  0  0  0  0  0  0  0  0  0  0
   -5.5810    1.1380   -1.6000 C   0  0  0  0  0  0  0  0  0  0  0  0
   -5.8130    1.4120   -0.2710 C   0  0  0  0  0  0  0  0  0  0  0  0
   -4.8720    1.0190    0.6720 C   0  0  0  0  0  0  0  0  0  0  0  0
   -3.7080    0.3640    0.3520 C   0  0  0  0  0  0  0  0  0  0  0  0
   -2.7120   -0.0550    1.3280 C   0  0  0  0  0  0  0  0  0  0  0  0
   -2.8520    0.1730    2.6700 C   0  0  0  0  0  0  0  0  0  0  0  0
   -1.9150   -0.2220    3.5830 N   0  0  0  0  0  0  0  0  0  0  0  0
   -0.8170   -0.8570    3.1380 C   0  0  0  0  0  0  0  0  0  0  0  0
    0.2810   -1.3700    3.7530 N   0  0  0  0  0  0  0  0  0  0  0  0
    1.0920   -1.9040    2.8580 N   0  0  0  0  0  0  0  0  0  0  0  0
    0.4940   -1.7210    1.6700 C   0  0  0  0  0  0  0  0  0  0  0  0
    1.0200   -2.1540    0.3240 C   0  0  0  0  0  0  0  0  0  0  0  0
    1.8420   -1.1010   -0.2770 C   0  0  0  0  0  0  0  0  0  0  0  0
    1.3060   -0.1370   -1.0870 C   0  0  0  0  0  0  0  0  0  0  0  0
    2.1380    0.8420   -1.6320 C   0  0  0  0  0  0  0  0  0  0  0  0
    3.4890    0.8490   -1.3660 C   0  0  0  0  0  0  0  0  0  0  0  0
    4.3160    1.7850   -1.8820 N   0  0  0  0  0  0  0  0  0  0  0  0
    5.6390    1.8060   -1.6320 C   0  0  0  0  0  0  0  0  0  0  0  0
    6.2110    0.8350   -0.8100 C   0  0  0  0  0  0  0  0  0  0  0  0
    5.4040   -0.1400   -0.2630 C   0  0  0  0  0  0  0  0  0  0  0  0
    4.0510   -0.1280   -0.5430 C   0  0  0  0  0  0  0  0  0  0  0  0
    3.1950   -1.0760   -0.0240 C   0  0  0  0  0  0  0  0  0  0  0  0
   -0.6790   -1.0790    1.8310 N   0  0  0  0  0  0  0  0  0  0  0  0
   -1.5880   -0.6980    0.9340 N   0  0  0  0  0  0  0  0  0  0  0  0
   -3.5040    0.1000   -1.0080 C   0  0  0  0  0  0  0  0  0  0  0  0
   -4.4250    0.4810   -1.9660 C   0  0  0  0  0  0  0  0  0  0  0  0
  1  2  1  0
  2  3  2  0
  2 27  1  0
  3  4  1  0
  4  5  2  0
  5  6  1  0
  5 26  1  0
  6  7  1  0
  6 25  2  0
  7  8  2  0
  8  9  1  0
  9 10  2  0
  9 24  1  0
 10 11  1  0
 11 12  2  0
 12 13  1  0
 12 24  1  0
 13 14  1  0
 14 15  2  0
 14 23  1  0
 15 16  1  0
 16 17  2  0
 17 18  1  0
 17 22  1  0
 18 19  2  0
 19 20  1  0
 20 21  2  0
 21 22  1  0
 22 23  2  0
 24 25  1  0
 26 27  2  0
M  END
