
     RDKit          3D

 16 16  0  0  0  0  0  0  0  0999 V2000
    5.0240   -0.5220    0.5040 N   0  0  0  0  0  0  0  0  0  0  0  0
    4.3200   -0.4540   -0.7430 C   0  0  0  0  0  0  0  0  0  0  0  0
    2.8010   -0.5070   -0.5270 C   0  0  0  0  0  0  0  0  0  0  0  0
    2.4510    0.6740    0.3300 C   0  0  0  0  0  0  0  0  0  0  0  0
    1.0870    0.7770    0.6260 O   0  0  0  0  0  0  0  0  0  0  0  0
    0.0860    0.9100   -0.3190 C   0  0  0  0  0  0  0  0  0  0  0  0
    0.4490    0.9380   -1.5180 O   0  0  0  0  0  0  0  0  0  0  0  0
   -1.3510    1.0190   -0.0150 C   0  0  1  0  0  0  0  0  0  0  0  0
   -2.1030    1.1410   -1.1570 O   0  0  0  0  0  0  0  0  0  0  0  0
   -3.4160    1.4280   -0.8400 C   0  0  0  0  0  0  0  0  0  0  0  0
   -3.9990    0.5580    0.2230 C   0  0  0  0  0  0  0  0  0  0  0  0
   -3.1490    0.3060    1.2830 O   0  0  0  0  0  0  0  0  0  0  0  0
   -1.8730   -0.1030    0.8370 C   0  0  1  0  0  0  0  0  0  0  0  0
   -2.0420   -1.3680    0.1350 C   0  0  0  0  0  0  0  0  0  0  0  0
   -2.5260   -2.5100    0.8100 N   0  0  0  0  0  0  0  0  0  0  0  0
   -1.6730   -1.4800   -1.4430 S   0  0  0  0  0  0  0  0  0  0  0  0
  1  2  1  0
  2  3  1  0
  3  4  1  0
  4  5  1  0
  5  6  1  0
  6  7  2  0
  8  6  1  6
  8  9  1  0
  8 13  1  0
  9 10  1  0
 10 11  1  0
 11 12  1  0
 12 13  1  0
 13 14  1  6
 14 15  1  0
 14 16  2  0
M  END
