
     RDKit          3D

 16 17  0  0  0  0  0  0  0  0999 V2000
   -0.7690   -1.3640    2.5650 O   0  0  0  0  0  0  0  0  0  0  0  0
   -0.1120   -1.2940    1.1700 S   0  0  2  0  0  0  0  0  0  0  0  0
    0.0660   -2.7520    0.7060 O   0  0  0  0  0  0  0  0  0  0  0  0
    1.3410   -0.4850    1.2210 N   0  0  0  0  0  0  0  0  0  0  0  0
    2.1720   -0.3690    0.0990 C   0  0  2  0  0  0  0  0  0  0  0  0
    3.6710   -0.5180    0.3710 C   0  0  0  0  0  0  0  0  0  0  0  0
    3.7440    0.9770    0.4930 C   0  0  0  0  0  0  0  0  0  0  0  0
    2.4620    1.0800   -0.3010 C   0  0  0  0  0  0  0  0  0  0  0  0
   -1.3200   -0.6050    0.1140 C   0  0  2  0  0  0  0  0  0  0  0  0
   -2.5640   -1.5040    0.1950 C   0  0  0  0  0  0  0  0  0  0  0  0
   -3.0220   -1.5390    1.5170 O   0  0  0  0  0  0  0  0  0  0  0  0
   -0.9530   -0.3760   -1.2880 C   0  0  0  0  0  0  0  0  0  0  0  0
   -1.9090    0.6910   -1.6750 N   0  0  0  0  0  0  0  0  0  0  0  0
   -1.7500    1.6180   -0.5900 C   0  0  1  0  0  0  0  0  0  0  0  0
   -2.8170    2.5080   -0.4890 O   0  0  0  0  0  0  0  0  0  0  0  0
   -1.6830    0.7830    0.6460 C   0  0  0  0  0  0  0  0  0  0  0  0
  1  2  2  0
  2  3  2  0
  2  4  1  1
  2  9  1  0
  5  4  1  1
  5  6  1  0
  5  8  1  0
  6  7  1  0
  7  8  1  0
  9 10  1  6
  9 12  1  0
  9 16  1  0
 10 11  1  0
 12 13  1  0
 13 14  1  0
 14 15  1  1
 14 16  1  0
M  END
