
     RDKit          3D

 16 16  0  0  0  0  0  0  0  0999 V2000
    3.6670    1.7790    0.1420 O   0  0  0  0  0  0  0  0  0  0  0  0
    3.8390    0.8550   -0.5550 C   0  0  0  0  0  0  0  0  0  0  0  0
    4.9810    0.2050   -1.1440 C   0  0  0  0  0  0  0  0  0  0  0  0
    4.6070   -1.1350   -2.2940 S   0  0  0  0  0  0  0  0  0  0  0  0
    2.3510    0.0610   -1.0000 N   0  0  0  0  0  0  0  0  0  0  0  0
    1.4910    0.9150   -0.2970 C   0  0  0  0  0  0  0  0  0  0  0  0
    1.5630    1.9060    0.3090 O   0  0  0  0  0  0  0  0  0  0  0  0
    0.0920    0.3040   -0.4550 N   0  0  0  0  0  0  0  0  0  0  0  0
   -1.0070    0.9400    0.0660 C   0  0  2  0  0  0  0  0  0  0  0  0
   -1.1780    0.6770    1.5580 C   0  0  0  0  0  0  0  0  0  0  0  0
   -1.3510   -0.7700    1.8150 C   0  0  0  0  0  0  0  0  0  0  0  0
   -2.2380   -1.4020    0.7460 C   0  0  0  0  0  0  0  0  0  0  0  0
   -3.1270   -0.4100    0.0600 C   0  0  1  0  0  0  0  0  0  0  0  0
   -4.0200    0.2390    0.8880 O   0  0  0  0  0  0  0  0  0  0  0  0
   -2.2820    0.5980   -0.6910 C   0  0  2  0  0  0  0  0  0  0  0  0
   -2.0250    0.0750   -1.9690 O   0  0  0  0  0  0  0  0  0  0  0  0
  1  2  2  0
  2  3  1  0
  2  5  1  0
  3  4  1  0
  5  6  1  0
  6  7  2  0
  6  8  1  0
  9  8  1  6
  9 10  1  0
  9 15  1  0
 10 11  1  0
 11 12  1  0
 12 13  1  0
 13 14  1  1
 13 15  1  0
 15 16  1  6
M  END
