
     RDKit          3D

 11 11  0  0  0  0  0  0  0  0999 V2000
   -1.7350   -0.0660    1.6620 N   0  0  0  0  0  0  0  0  0  0  0  0
   -1.1440   -0.1550    0.3210 C   0  0  1  0  0  0  0  0  0  0  0  0
   -2.0800   -0.6320   -0.5930 O   0  0  0  0  0  0  0  0  0  0  0  0
   -0.7660    1.1610   -0.1090 N   0  0  0  0  0  0  0  0  0  0  0  0
    0.4160    1.5670   -0.3700 C   0  0  0  0  0  0  0  0  0  0  0  0
    0.7200    3.2340   -0.8940 Cl  0  0  0  0  0  0  0  0  0  0  0  0
    1.5250    0.6390   -0.2310 C   0  0  0  0  0  0  0  0  0  0  0  0
    3.1510    1.1740   -0.5830 Cl  0  0  0  0  0  0  0  0  0  0  0  0
    1.3110   -0.5970    0.1560 C   0  0  0  0  0  0  0  0  0  0  0  0
    2.3550   -1.5000    0.2950 O   0  0  0  0  0  0  0  0  0  0  0  0
   -0.0110   -1.0180    0.4380 N   0  0  0  0  0  0  0  0  0  0  0  0
  2  1  1  1
  2  3  1  0
  2  4  1  0
  2 11  1  0
  4  5  2  0
  5  6  1  0
  5  7  1  0
  7  8  1  0
  7  9  2  0
  9 10  1  0
  9 11  1  0
M  END
