
     RDKit          3D

 12 12  0  0  0  0  0  0  0  0999 V2000
   -1.0780   -1.0370    1.1040 C   0  0  0  0  0  0  0  0  0  0  0  0
   -0.7760   -0.0860   -0.0130 C   0  0  1  0  0  0  0  0  0  0  0  0
   -1.9790    0.6250   -0.3820 N   0  0  0  0  0  0  0  0  0  0  0  0
    0.2660    0.9160    0.3480 C   0  0  0  0  0  0  0  0  0  0  0  0
   -0.1400    1.8810    1.2590 O   0  0  0  0  0  0  0  0  0  0  0  0
    1.5160    1.0060   -0.0800 C   0  0  0  0  0  0  0  0  0  0  0  0
    2.1100    0.1330   -0.9940 O   0  0  0  0  0  0  0  0  0  0  0  0
    1.9150   -1.2160   -1.0810 N   0  0  0  0  0  0  0  0  0  0  0  0
    3.0330   -1.9530    0.0630 Cl  0  0  0  0  0  0  0  0  0  0  0  0
    0.7010   -1.6280   -0.7510 O   0  0  0  0  0  0  0  0  0  0  0  0
   -0.3070   -0.8680   -1.1450 N   0  0  0  0  0  0  0  0  0  0  0  0
    0.0030    0.0860   -2.5380 Cl  0  0  0  0  0  0  0  0  0  0  0  0
  2  1  1  1
  2  3  1  0
  2  4  1  0
  2 11  1  0
  4  5  1  0
  4  6  2  0
  6  7  1  0
  7  8  1  0
  8  9  1  0
  8 10  1  0
 10 11  1  0
 11 12  1  0
M  END
