
     RDKit          3D

 12 12  0  0  0  0  0  0  0  0999 V2000
   -2.3660   -0.3890   -0.0600 C   0  0  0  0  0  0  0  0  0  0  0  0
   -1.3690    0.6260   -0.5530 C   0  0  2  0  0  0  0  0  0  0  0  0
   -2.2880    1.8800   -1.4580 Cl  0  0  0  0  0  0  0  0  0  0  0  0
   -0.4890    0.0170   -1.4860 N   0  0  0  0  0  0  0  0  0  0  0  0
    0.6100   -0.4480   -1.0890 C   0  0  0  0  0  0  0  0  0  0  0  0
    1.7390   -1.2050   -2.1600 Cl  0  0  0  0  0  0  0  0  0  0  0  0
    0.9270   -0.3330    0.3550 C   0  0  2  0  0  0  0  0  0  0  0  0
    2.3770   -0.3150    0.5520 N   0  0  0  0  0  0  0  0  0  0  0  0
    0.4770   -1.5090    0.9930 O   0  0  0  0  0  0  0  0  0  0  0  0
    0.3770    0.8390    0.9190 N   0  0  0  0  0  0  0  0  0  0  0  0
    1.2700    1.8550    0.8780 O   0  0  0  0  0  0  0  0  0  0  0  0
   -0.7830    1.2490    0.4960 O   0  0  0  0  0  0  0  0  0  0  0  0
  2  1  1  1
  2  3  1  0
  2  4  1  0
  2 12  1  0
  4  5  2  0
  5  6  1  0
  5  7  1  0
  7  8  1  6
  7  9  1  0
  7 10  1  0
 10 11  1  0
 10 12  1  0
M  END
