
     RDKit          3D

 11 11  0  0  0  0  0  0  0  0999 V2000
    2.6990   -0.8960    0.1130 N   0  0  0  0  0  0  0  0  0  0  0  0
    1.7600    0.0530    0.5570 C   0  0  0  0  0  0  0  0  0  0  0  0
    2.2980    1.2490    1.7180 Cl  0  0  0  0  0  0  0  0  0  0  0  0
    0.4940    0.0520    0.1120 C   0  0  0  0  0  0  0  0  0  0  0  0
    0.0470   -0.8820   -0.8060 O   0  0  0  0  0  0  0  0  0  0  0  0
   -1.3640   -1.0820   -0.9710 C   0  0  0  0  0  0  0  0  0  0  0  0
   -2.0520    0.2000   -1.0400 N   0  0  0  0  0  0  0  0  0  0  0  0
   -1.7700    0.9820    0.0750 O   0  0  0  0  0  0  0  0  0  0  0  0
   -0.4610    1.0440    0.5840 C   0  0  0  0  0  0  0  0  0  0  0  0
   -0.1120    1.9380    1.4350 N   0  0  0  0  0  0  0  0  0  0  0  0
   -1.2100    3.1290    2.0190 Cl  0  0  0  0  0  0  0  0  0  0  0  0
  1  2  1  0
  2  3  1  0
  2  4  2  3
  4  5  1  0
  4  9  1  0
  5  6  1  0
  6  7  1  0
  7  8  1  0
  8  9  1  0
  9 10  2  3
 10 11  1  0
M  END
