
     RDKit          3D

 12 12  0  0  0  0  0  0  0  0999 V2000
    0.0880   -0.8320   -1.9020 N   0  0  0  0  0  0  0  0  0  0  0  0
    0.1340   -0.5170   -0.5080 C   0  0  2  0  0  0  0  0  0  0  0  0
    1.4750   -0.1700   -0.0560 N   0  0  0  0  0  0  0  0  0  0  0  0
    1.5120    0.1220    1.2430 O   0  0  0  0  0  0  0  0  0  0  0  0
    2.7270    0.0230    1.7210 O   0  0  0  0  0  0  0  0  0  0  0  0
   -0.4490   -1.4940    0.3180 O   0  0  0  0  0  0  0  0  0  0  0  0
   -1.4920   -0.9740    1.0580 C   0  0  0  0  0  0  0  0  0  0  0  0
   -1.6910    0.3140    0.7410 C   0  0  0  0  0  0  0  0  0  0  0  0
   -2.8930    1.4030    1.4050 Cl  0  0  0  0  0  0  0  0  0  0  0  0
   -0.7160    0.6760   -0.2770 C   0  0  0  0  0  0  0  0  0  0  0  0
   -0.6390    1.8340   -0.8480 N   0  0  0  0  0  0  0  0  0  0  0  0
   -1.7380    3.1110   -0.4320 Cl  0  0  0  0  0  0  0  0  0  0  0  0
  2  1  1  6
  2  3  1  0
  2  6  1  0
  2 10  1  0
  3  4  1  0
  4  5  1  0
  6  7  1  0
  7  8  2  0
  8  9  1  0
  8 10  1  0
 10 11  2  3
 11 12  1  0
M  END
