
     RDKit          3D

 11 12  0  0  0  0  0  0  0  0999 V2000
   -1.2370   -1.9340    0.4060 N   0  0  0  0  0  0  0  0  0  0  0  0
   -0.8540   -0.5970    0.1200 C   0  0  0  0  0  0  0  0  0  0  0  0
    0.4270   -0.2200    0.1580 C   0  0  0  0  0  0  0  0  0  0  0  0
    0.7420    1.2000   -0.1550 N   0  0  0  0  0  0  0  0  0  0  0  0
   -0.2590    2.0890   -0.4730 N   0  0  0  0  0  0  0  0  0  0  0  0
   -1.4880    1.6960   -0.5010 C   0  0  0  0  0  0  0  0  0  0  0  0
   -2.7860    2.8360   -0.9090 Cl  0  0  0  0  0  0  0  0  0  0  0  0
   -1.7830    0.3760   -0.2100 O   0  0  0  0  0  0  0  0  0  0  0  0
    1.8380    0.2690    0.1810 C   0  0  2  0  0  0  0  0  0  0  0  0
    2.6090   -0.2120   -0.8650 O   0  0  0  0  0  0  0  0  0  0  0  0
    2.5740    0.4060    1.7820 Cl  0  0  0  0  0  0  0  0  0  0  0  0
  1  2  1  0
  2  3  2  0
  2  8  1  0
  3  4  1  0
  3  9  1  0
  4  5  1  0
  4  9  1  0
  5  6  2  0
  6  7  1  0
  6  8  1  0
  9 10  1  6
  9 11  1  0
M  END
