
     RDKit          3D

 11 11  0  0  0  0  0  0  0  0999 V2000
   -1.7030   -0.5060   -1.1930 N   0  0  0  0  0  0  0  0  0  0  0  0
   -1.1490   -0.1150    0.1190 C   0  0  2  0  0  0  0  0  0  0  0  0
   -2.1120   -0.5060    1.0620 O   0  0  0  0  0  0  0  0  0  0  0  0
   -2.3450   -2.1920    0.9570 Cl  0  0  0  0  0  0  0  0  0  0  0  0
   -0.9680    1.2920    0.0800 N   0  0  0  0  0  0  0  0  0  0  0  0
    0.1490    1.8720    0.1780 C   0  0  0  0  0  0  0  0  0  0  0  0
    0.2420    3.6370    0.1150 Cl  0  0  0  0  0  0  0  0  0  0  0  0
    1.4120    1.1600    0.3460 C   0  0  0  0  0  0  0  0  0  0  0  0
    1.3180   -0.1570    0.3910 C   0  0  0  0  0  0  0  0  0  0  0  0
    2.5070   -0.8740    0.5510 O   0  0  0  0  0  0  0  0  0  0  0  0
    0.0790   -0.8180    0.2820 N   0  0  0  0  0  0  0  0  0  0  0  0
  2  1  1  6
  2  3  1  0
  2  5  1  0
  2 11  1  0
  3  4  1  0
  5  6  2  0
  6  7  1  0
  6  8  1  0
  8  9  2  0
  9 10  1  0
  9 11  1  0
M  END
