
     RDKit          3D

 24 27  0  0  0  0  0  0  0  0999 V2000
    2.5870   -3.0380    1.3300 C   0  0  0  0  0  0  0  0  0  0  0  0
    2.5860   -1.6410    0.8230 C   0  0  0  0  0  0  0  0  0  0  0  0
    3.7730   -1.0830    0.4700 N   0  0  0  0  0  0  0  0  0  0  0  0
    3.8370    0.1780    0.0040 C   0  0  0  0  0  0  0  0  0  0  0  0
    5.1290    0.7660   -0.3740 C   0  0  0  0  0  0  0  0  0  0  0  0
    6.3740    0.1950   -0.3250 C   0  0  0  0  0  0  0  0  0  0  0  0
    7.2820    1.1330   -0.7800 C   0  0  0  0  0  0  0  0  0  0  0  0
    6.5860    2.2620   -1.1020 C   0  0  0  0  0  0  0  0  0  0  0  0
    5.2940    2.0140   -0.8480 N   0  0  0  0  0  0  0  0  0  0  0  0
    2.6880    0.8640   -0.0990 N   0  0  0  0  0  0  0  0  0  0  0  0
    1.4930    0.3190    0.2510 C   0  0  0  0  0  0  0  0  0  0  0  0
    0.2200    0.7540    0.2550 N   0  0  0  0  0  0  0  0  0  0  0  0
   -0.6070   -0.2270    0.7160 C   0  0  0  0  0  0  0  0  0  0  0  0
   -2.0790   -0.1680    0.8820 C   0  0  2  0  0  0  0  0  0  0  0  0
   -2.5810   -1.5610    1.1530 C   0  0  0  0  0  0  0  0  0  0  0  0
   -2.7130    0.4280   -0.2710 N   0  0  0  0  0  0  0  0  0  0  0  0
   -4.1150    0.6270   -0.2930 C   0  0  0  0  0  0  0  0  0  0  0  0
   -4.7150    1.1330   -1.4380 C   0  0  0  0  0  0  0  0  0  0  0  0
   -6.0750    1.3490   -1.5080 C   0  0  0  0  0  0  0  0  0  0  0  0
   -6.8930    1.0700   -0.4350 C   0  0  0  0  0  0  0  0  0  0  0  0
   -6.3060    0.5680    0.7050 C   0  0  0  0  0  0  0  0  0  0  0  0
   -4.9280    0.3500    0.7730 C   0  0  0  0  0  0  0  0  0  0  0  0
    0.1830   -1.2570    0.9900 N   0  0  0  0  0  0  0  0  0  0  0  0
    1.4440   -0.9430    0.7150 N   0  0  0  0  0  0  0  0  0  0  0  0
  1  2  1  0
  2  3  2  0
  2 24  1  0
  3  4  1  0
  4  5  1  0
  4 10  2  0
  5  6  2  0
  5  9  1  0
  6  7  1  0
  7  8  2  0
  8  9  1  0
 10 11  1  0
 11 12  2  0
 11 24  1  0
 12 13  1  0
 13 14  1  0
 13 23  2  0
 14 15  1  6
 14 16  1  0
 16 17  1  0
 17 18  2  0
 17 22  1  0
 18 19  1  0
 19 20  2  0
 20 21  1  0
 21 22  2  0
 23 24  1  0
M  END
