
     RDKit          3D

 24 27  0  0  0  0  0  0  0  0999 V2000
   -4.1360    1.1530    1.7850 C   0  0  0  0  0  0  0  0  0  0  0  0
   -4.3740    0.1900    0.6850 C   0  0  0  0  0  0  0  0  0  0  0  0
   -5.6120   -0.2740    0.4680 C   0  0  0  0  0  0  0  0  0  0  0  0
   -5.5530   -1.1970   -0.6650 C   0  0  0  0  0  0  0  0  0  0  0  0
   -4.1570   -1.2120   -1.0670 C   0  0  0  0  0  0  0  0  0  0  0  0
   -3.4460   -0.3850   -0.2650 C   0  0  0  0  0  0  0  0  0  0  0  0
   -2.0470   -0.2250   -0.4570 C   0  0  0  0  0  0  0  0  0  0  0  0
   -1.1480    0.4640    0.1190 C   0  0  0  0  0  0  0  0  0  0  0  0
   -1.3570    1.3330    1.2090 N   0  0  0  0  0  0  0  0  0  0  0  0
    0.2570    0.4100   -0.3200 N   0  0  0  0  0  0  0  0  0  0  0  0
    1.2450    1.1010    0.2130 N   0  0  0  0  0  0  0  0  0  0  0  0
    2.4170    0.8590   -0.3740 C   0  0  0  0  0  0  0  0  0  0  0  0
    3.7450    1.4780    0.0040 C   0  0  0  0  0  0  0  0  0  0  0  0
    4.5510    0.5680    0.7770 N   0  0  0  0  0  0  0  0  0  0  0  0
    4.5170    0.4830    2.1410 C   0  0  0  0  0  0  0  0  0  0  0  0
    5.4000   -0.4740    2.5460 C   0  0  0  0  0  0  0  0  0  0  0  0
    5.9800   -0.9840    1.4510 N   0  0  0  0  0  0  0  0  0  0  0  0
    5.4470   -0.3340    0.3840 C   0  0  0  0  0  0  0  0  0  0  0  0
    2.1740   -0.0570   -1.3590 C   0  0  0  0  0  0  0  0  0  0  0  0
    2.9830   -0.6750   -2.2830 C   0  0  0  0  0  0  0  0  0  0  0  0
    2.4300   -1.5470   -3.1390 N   0  0  0  0  0  0  0  0  0  0  0  0
    1.1000   -1.8290   -3.1110 C   0  0  0  0  0  0  0  0  0  0  0  0
    0.3520   -1.2020   -2.1950 N   0  0  0  0  0  0  0  0  0  0  0  0
    0.7960   -0.3180   -1.2970 C   0  0  0  0  0  0  0  0  0  0  0  0
  1  2  1  0
  2  3  2  0
  2  6  1  0
  3  4  1  0
  4  5  1  0
  5  6  2  0
  6  7  1  0
  7  8  2  3
  8  9  1  0
  8 10  1  0
 10 11  1  0
 10 24  1  0
 11 12  2  0
 12 13  1  0
 12 19  1  0
 13 14  1  0
 14 15  1  0
 14 18  1  0
 15 16  2  0
 16 17  1  0
 17 18  2  0
 19 20  2  0
 19 24  1  0
 20 21  1  0
 21 22  2  0
 22 23  1  0
 23 24  2  0
M  END
