
     RDKit          3D

 24 27  0  0  0  0  0  0  0  0999 V2000
   -5.5630    1.6440    1.1940 C   0  0  0  0  0  0  0  0  0  0  0  0
   -4.2470    1.2240    0.6790 C   0  0  0  0  0  0  0  0  0  0  0  0
   -3.3710    2.2340    0.5580 C   0  0  0  0  0  0  0  0  0  0  0  0
   -1.9920    2.1760    0.0840 C   0  0  0  0  0  0  0  0  0  0  0  0
   -1.3080    1.1160   -0.1800 N   0  0  0  0  0  0  0  0  0  0  0  0
   -1.5920   -0.2510   -0.1210 C   0  0  0  0  0  0  0  0  0  0  0  0
   -0.4870   -1.0170   -0.3380 C   0  0  0  0  0  0  0  0  0  0  0  0
    0.7560   -0.3980   -0.6150 N   0  0  0  0  0  0  0  0  0  0  0  0
    0.8970    0.3080   -1.8670 C   0  0  0  0  0  0  0  0  0  0  0  0
    1.8550   -0.4390    0.2980 C   0  0  0  0  0  0  0  0  0  0  0  0
    3.0490    0.1990   -0.1460 N   0  0  0  0  0  0  0  0  0  0  0  0
    3.8250   -0.2180   -1.2520 C   0  0  0  0  0  0  0  0  0  0  0  0
    5.1120    0.0180   -1.2950 C   0  0  0  0  0  0  0  0  0  0  0  0
    5.8370    0.7160   -0.2240 C   0  0  0  0  0  0  0  0  0  0  0  0
    4.9930    1.2000    0.8920 C   0  0  0  0  0  0  0  0  0  0  0  0
    3.5540    1.3870    0.5610 C   0  0  0  0  0  0  0  0  0  0  0  0
   -0.6430   -2.3520   -0.2900 N   0  0  0  0  0  0  0  0  0  0  0  0
   -1.8200   -2.9440   -0.0430 C   0  0  0  0  0  0  0  0  0  0  0  0
   -2.2400   -4.2240    0.0580 N   0  0  0  0  0  0  0  0  0  0  0  0
   -3.5320   -4.2560    0.3230 N   0  0  0  0  0  0  0  0  0  0  0  0
   -4.0160   -2.9950    0.4070 C   0  0  0  0  0  0  0  0  0  0  0  0
   -2.9320   -2.1770    0.1750 C   0  0  0  0  0  0  0  0  0  0  0  0
   -2.8490   -0.8180    0.1430 C   0  0  0  0  0  0  0  0  0  0  0  0
   -4.0760   -0.1470    0.3850 N   0  0  0  0  0  0  0  0  0  0  0  0
  1  2  1  0
  2  3  2  0
  2 24  1  0
  3  4  1  0
  4  5  2  0
  5  6  1  0
  6  7  2  0
  6 23  1  0
  7  8  1  0
  7 17  1  0
  8  9  1  0
  8 10  1  0
 10 11  1  0
 11 12  1  0
 11 16  1  0
 12 13  2  0
 13 14  1  0
 14 15  1  0
 15 16  1  0
 17 18  2  0
 18 19  1  0
 18 22  1  0
 19 20  1  0
 20 21  2  0
 21 22  1  0
 22 23  2  0
 23 24  1  0
M  END
