
     RDKit          3D

 24 26  0  0  0  0  0  0  0  0999 V2000
    4.8740    2.2850    1.8810 C   0  0  0  0  0  0  0  0  0  0  0  0
    3.8640    2.1170    1.0400 C   0  0  0  0  0  0  0  0  0  0  0  0
    3.8750    1.9060   -0.3980 C   0  0  0  0  0  0  0  0  0  0  0  0
    2.6750    1.8050   -0.8200 N   0  0  0  0  0  0  0  0  0  0  0  0
    1.7240    1.9220    0.1990 N   0  0  0  0  0  0  0  0  0  0  0  0
    0.3070    1.9100    0.1460 C   0  0  0  0  0  0  0  0  0  0  0  0
   -0.4890    3.0060    0.3740 N   0  0  0  0  0  0  0  0  0  0  0  0
   -1.7620    2.6440    0.1950 C   0  0  0  0  0  0  0  0  0  0  0  0
   -3.0210    3.1420    0.2060 N   0  0  0  0  0  0  0  0  0  0  0  0
   -3.8300    2.1710   -0.1110 N   0  0  0  0  0  0  0  0  0  0  0  0
   -3.1310    0.9970   -0.3380 C   0  0  0  0  0  0  0  0  0  0  0  0
   -3.7680   -0.2270   -0.7680 C   0  0  0  0  0  0  0  0  0  0  0  0
   -4.8060   -0.0010   -1.8860 C   0  0  0  0  0  0  0  0  0  0  0  0
   -3.6330   -1.4470   -0.4080 C   0  0  0  0  0  0  0  0  0  0  0  0
   -2.7430   -1.9740    0.6230 C   0  0  0  0  0  0  0  0  0  0  0  0
   -1.8530    1.3250   -0.1460 N   0  0  0  0  0  0  0  0  0  0  0  0
   -0.5640    0.8980   -0.1740 C   0  0  0  0  0  0  0  0  0  0  0  0
   -0.1610   -0.4510   -0.5260 C   0  0  0  0  0  0  0  0  0  0  0  0
    1.0110   -0.9530   -0.2610 C   0  0  0  0  0  0  0  0  0  0  0  0
    1.3960   -2.3230   -0.6320 C   0  0  0  0  0  0  0  0  0  0  0  0
    2.5620   -2.8480   -0.3810 C   0  0  0  0  0  0  0  0  0  0  0  0
    2.9190   -4.2410   -0.7690 C   0  0  0  0  0  0  0  0  0  0  0  0
    2.4450    2.1260    1.4230 C   0  0  0  0  0  0  0  0  0  0  0  0
    1.9750    2.2850    2.6140 N   0  0  0  0  0  0  0  0  0  0  0  0
  1  2  2  0
  2  3  1  0
  2 23  1  0
  3  4  2  0
  4  5  1  0
  5  6  1  0
  5 23  1  0
  6  7  1  0
  6 17  2  0
  7  8  2  0
  8  9  1  0
  8 16  1  0
  9 10  1  0
 10 11  2  0
 11 12  1  0
 11 16  1  0
 12 13  1  0
 12 14  2  3
 14 15  1  0
 16 17  1  0
 17 18  1  0
 18 19  2  3
 19 20  1  0
 20 21  2  3
 21 22  1  0
 23 24  2  0
M  END
