
     RDKit          3D

 24 27  0  0  0  0  0  0  0  0999 V2000
    4.7370    0.4170    1.6600 C   0  0  0  0  0  0  0  0  0  0  0  0
    3.4710    0.7550    2.2210 N   0  0  0  0  0  0  0  0  0  0  0  0
    2.4180   -0.1760    2.0290 C   0  0  0  0  0  0  0  0  0  0  0  0
    1.9890   -0.2610    0.5750 C   0  0  0  0  0  0  0  0  0  0  0  0
    2.0540   -1.3980   -0.1190 C   0  0  0  0  0  0  0  0  0  0  0  0
    1.7450   -1.7980   -1.4400 C   0  0  0  0  0  0  0  0  0  0  0  0
    0.7110   -2.2230   -2.1510 C   0  0  0  0  0  0  0  0  0  0  0  0
   -0.6610   -2.4960   -1.8910 C   0  0  0  0  0  0  0  0  0  0  0  0
   -1.7170   -1.9910   -1.3040 C   0  0  0  0  0  0  0  0  0  0  0  0
   -2.0430   -0.7800   -0.5530 C   0  0  0  0  0  0  0  0  0  0  0  0
   -1.8940    0.4990   -0.8380 C   0  0  0  0  0  0  0  0  0  0  0  0
   -1.2960    1.0160   -2.1450 C   0  0  0  0  0  0  0  0  0  0  0  0
   -0.0240    1.8550   -1.8390 C   0  0  0  0  0  0  0  0  0  0  0  0
    0.8200    0.8750   -1.1700 C   0  0  0  0  0  0  0  0  0  0  0  0
    1.5180    1.0070    0.0330 N   0  0  0  0  0  0  0  0  0  0  0  0
   -2.2620    1.6800   -0.0020 C   0  0  0  0  0  0  0  0  0  0  0  0
   -2.9460    1.2580    1.2420 C   0  0  0  0  0  0  0  0  0  0  0  0
   -3.5230    1.8390    2.3360 N   0  0  0  0  0  0  0  0  0  0  0  0
   -3.9640    0.8600    3.1660 N   0  0  0  0  0  0  0  0  0  0  0  0
   -3.6760   -0.3460    2.6120 C   0  0  0  0  0  0  0  0  0  0  0  0
   -3.6950   -1.7040    2.6210 N   0  0  0  0  0  0  0  0  0  0  0  0
   -3.1020   -2.1250    1.4800 N   0  0  0  0  0  0  0  0  0  0  0  0
   -2.7110   -1.0440    0.7550 C   0  0  0  0  0  0  0  0  0  0  0  0
   -3.0760   -0.0180    1.4800 N   0  0  0  0  0  0  0  0  0  0  0  0
  1  2  1  0
  2  3  1  0
  3  4  1  0
  4  5  2  0
  4 15  1  0
  5  6  1  0
  6  7  2  0
  7  8  1  0
  8  9  2  0
  9 10  1  0
 10 11  2  0
 10 23  1  0
 11 12  1  0
 11 16  1  0
 12 13  1  0
 13 14  1  0
 14 15  1  0
 16 17  1  0
 17 18  2  0
 17 24  1  0
 18 19  1  0
 19 20  1  0
 20 21  2  0
 20 24  1  0
 21 22  1  0
 22 23  2  0
 23 24  1  0
M  END
