
     RDKit          3D

 21 21  0  0  0  0  0  0  0  0999 V2000
    3.7400   -1.1420    0.0410 O   0  0  0  0  0  0  0  0  0  0  0  0
    2.9550   -0.1350    0.1480 C   0  0  0  0  0  0  0  0  0  0  0  0
    3.4870    1.2060    0.4890 C   0  0  0  0  0  0  0  0  0  0  0  0
    4.9250    1.1600    0.6520 N   0  0  0  0  0  0  0  0  0  0  0  0
    5.4730    1.4700    1.7140 O   0  0  0  0  0  0  0  0  0  0  0  0
    5.7180    0.7560   -0.4130 O   0  0  0  0  0  0  0  0  0  0  0  0
    1.5750   -0.3380   -0.0660 N   0  0  0  0  0  0  0  0  0  0  0  0
    1.0940   -1.6660   -0.3920 C   0  0  0  0  0  0  0  0  0  0  0  0
   -0.0290   -1.4930   -1.4020 C   0  0  0  0  0  0  0  0  0  0  0  0
   -1.3390   -1.3750   -0.6810 C   0  0  0  0  0  0  0  0  0  0  0  0
   -1.5700    0.1010   -0.3650 C   0  0  1  0  0  0  0  0  0  0  0  0
   -1.3180    0.7740   -1.5540 O   0  0  0  0  0  0  0  0  0  0  0  0
   -2.9780    0.3300    0.0580 C   0  0  0  0  0  0  0  0  0  0  0  0
   -3.7240    1.2010   -0.5890 C   0  0  0  0  0  0  0  0  0  0  0  0
   -3.1390    2.2310   -2.0650 Br  0  0  0  0  0  0  0  0  0  0  0  0
   -3.5740   -0.3950    1.2180 C   0  0  2  0  0  0  0  0  0  0  0  0
   -3.4980   -1.7470    0.9090 F   0  0  0  0  0  0  0  0  0  0  0  0
   -4.9000   -0.0440    1.3660 F   0  0  0  0  0  0  0  0  0  0  0  0
   -2.8700   -0.1180    2.3550 F   0  0  0  0  0  0  0  0  0  0  0  0
   -0.5910    0.5100    0.6890 C   0  0  0  0  0  0  0  0  0  0  0  0
    0.7420    0.8290    0.0570 C   0  0  0  0  0  0  0  0  0  0  0  0
  1  2  2  0
  2  3  1  0
  2  7  1  0
  3  4  1  0
  4  5  2  0
  4  6  1  0
  7  8  1  0
  7 21  1  0
  8  9  1  0
  9 10  1  0
 10 11  1  0
 11 12  1  6
 11 13  1  0
 11 20  1  0
 13 14  2  3
 13 16  1  0
 14 15  1  0
 16 17  1  6
 16 18  1  0
 16 19  1  0
 20 21  1  0
M  CHG  2   4   1   6  -1
M  END
