
     RDKit          3D

 13 13  0  0  0  0  0  0  0  0999 V2000
   -2.8530   -1.1530    0.2550 C   0  0  0  0  0  0  0  0  0  0  0  0
   -2.6010    0.2340    0.6410 C   0  0  0  0  0  0  0  0  0  0  0  0
   -1.4150    0.7610    0.5310 C   0  0  0  0  0  0  0  0  0  0  0  0
   -1.2020    2.1820    0.9370 C   0  0  0  0  0  0  0  0  0  0  0  0
   -0.2340    2.8060    0.0350 N   0  0  0  0  0  0  0  0  0  0  0  0
    0.8320    2.0210   -0.4730 C   0  0  0  0  0  0  0  0  0  0  0  0
    0.8560    0.7030   -0.5080 C   0  0  0  0  0  0  0  0  0  0  0  0
    1.9330   -0.0680   -1.0200 N   0  0  0  0  0  0  0  0  0  0  0  0
    2.6480   -0.9980   -0.2320 C   0  0  0  0  0  0  0  0  0  0  0  0
    3.7280   -1.7850   -0.7090 N   0  0  0  0  0  0  0  0  0  0  0  0
    2.2900   -1.1270    0.9750 O   0  0  0  0  0  0  0  0  0  0  0  0
   -0.3140   -0.0370    0.0140 C   0  0  0  0  0  0  0  0  0  0  0  0
   -0.3160   -1.2960   -0.0070 O   0  0  0  0  0  0  0  0  0  0  0  0
  1  2  1  0
  2  3  2  3
  3  4  1  0
  3 12  1  0
  4  5  1  0
  5  6  1  0
  6  7  2  0
  7  8  1  0
  7 12  1  0
  8  9  1  0
  9 10  1  0
  9 11  2  0
 12 13  2  0
M  END
