
     RDKit          3D

 21 21  0  0  0  0  0  0  0  0999 V2000
   -1.3750   -3.0990   -2.6670 O   0  0  0  0  0  0  0  0  0  0  0  0
   -1.2730   -2.1370   -1.8580 C   0  0  0  0  0  0  0  0  0  0  0  0
   -0.0510   -1.7210   -1.5020 N   0  0  0  0  0  0  0  0  0  0  0  0
    0.0930   -0.6780   -0.6240 C   0  0  0  0  0  0  0  0  0  0  0  0
    1.4740   -0.3300   -0.3140 C   0  0  0  0  0  0  0  0  0  0  0  0
    1.9020    0.8470    0.0180 C   0  0  0  0  0  0  0  0  0  0  0  0
    3.2520    1.3180    0.3560 C   0  0  0  0  0  0  0  0  0  0  0  0
    3.3420    2.0040    2.1760 Br  0  0  0  0  0  0  0  0  0  0  0  0
    2.5060   -1.4420   -0.3550 C   0  0  2  0  0  0  0  0  0  0  0  0
    1.8960   -2.6420    0.0150 F   0  0  0  0  0  0  0  0  0  0  0  0
    3.4790   -1.2760    0.6180 F   0  0  0  0  0  0  0  0  0  0  0  0
    2.9870   -1.6060   -1.6200 F   0  0  0  0  0  0  0  0  0  0  0  0
   -0.9730   -0.0390   -0.0830 C   0  0  0  0  0  0  0  0  0  0  0  0
   -0.8530    0.9220    0.9840 C   0  0  0  0  0  0  0  0  0  0  0  0
   -1.8820    1.6770    1.3190 C   0  0  0  0  0  0  0  0  0  0  0  0
   -1.7810    2.6450    2.3870 N   0  0  0  0  0  0  0  0  0  0  0  0
   -1.0000    3.5880    2.2880 O   0  0  0  0  0  0  0  0  0  0  0  0
   -2.5450    2.5280    3.5100 O   0  0  0  0  0  0  0  0  0  0  0  0
   -2.2410   -0.5040   -0.4830 C   0  0  0  0  0  0  0  0  0  0  0  0
   -2.4100   -1.5490   -1.3670 C   0  0  0  0  0  0  0  0  0  0  0  0
   -3.6870   -1.9650   -1.7270 O   0  0  0  0  0  0  0  0  0  0  0  0
  1  2  2  0
  2  3  1  0
  2 20  1  0
  3  4  1  0
  4  5  1  0
  4 13  2  0
  5  6  2  3
  5  9  1  0
  6  7  1  0
  7  8  1  0
  9 10  1  1
  9 11  1  0
  9 12  1  0
 13 14  1  0
 13 19  1  0
 14 15  2  3
 15 16  1  0
 16 17  2  0
 16 18  1  0
 19 20  2  0
 20 21  1  0
M  CHG  2  16   1  18  -1
M  END
