
     RDKit          3D

 21 21  0  0  0  0  0  0  0  0999 V2000
   -0.1010    2.6920   -0.9750 O   0  0  0  0  0  0  0  0  0  0  0  0
    0.4120    1.6250   -1.4180 N   0  0  0  0  0  0  0  0  0  0  0  0
    0.8670    1.5810   -2.6990 O   0  0  0  0  0  0  0  0  0  0  0  0
    0.4630    0.4910   -0.5860 C   0  0  0  0  0  0  0  0  0  0  0  0
    1.4300   -0.0990   -0.0090 C   0  0  0  0  0  0  0  0  0  0  0  0
    2.8530    0.1590    0.0220 C   0  0  0  0  0  0  0  0  0  0  0  0
    3.5860   -0.7010    0.7530 C   0  0  0  0  0  0  0  0  0  0  0  0
    5.0180   -0.7330    0.9880 C   0  0  0  0  0  0  0  0  0  0  0  0
    5.2840   -0.5100    2.9210 Br  0  0  0  0  0  0  0  0  0  0  0  0
    3.4700    1.2880   -0.6920 C   0  0  1  0  0  0  0  0  0  0  0  0
    2.7490    2.4820   -0.5360 F   0  0  0  0  0  0  0  0  0  0  0  0
    4.7190    1.6510   -0.1500 F   0  0  0  0  0  0  0  0  0  0  0  0
    3.6840    1.0650   -2.0320 F   0  0  0  0  0  0  0  0  0  0  0  0
   -0.8950   -0.0660   -0.3890 N   0  0  0  0  0  0  0  0  0  0  0  0
   -1.0590   -1.4320   -0.7440 C   0  0  0  0  0  0  0  0  0  0  0  0
   -2.5070   -1.8410   -0.8810 C   0  0  0  0  0  0  0  0  0  0  0  0
   -3.3700   -0.7580   -0.7390 O   0  0  0  0  0  0  0  0  0  0  0  0
   -3.1180   -0.0430    0.4280 C   0  0  2  0  0  0  0  0  0  0  0  0
   -4.2920    0.8360    0.8010 C   0  0  0  0  0  0  0  0  0  0  0  0
   -5.4300    0.0950    1.0100 O   0  0  0  0  0  0  0  0  0  0  0  0
   -1.8890    0.8270    0.1340 C   0  0  0  0  0  0  0  0  0  0  0  0
  1  2  2  0
  2  3  1  0
  2  4  1  0
  4  5  2  3
  4 14  1  0
  5  6  1  0
  6  7  2  3
  6 10  1  0
  7  8  1  0
  8  9  1  0
 10 11  1  6
 10 12  1  0
 10 13  1  0
 14 15  1  0
 14 21  1  0
 15 16  1  0
 16 17  1  0
 17 18  1  0
 18 19  1  6
 18 21  1  0
 19 20  1  0
M  CHG  2   2   1   3  -1
M  END
