
     RDKit          3D

 20 20  0  0  0  0  0  0  0  0999 V2000
    3.7630    1.4940    0.6280 O   0  0  0  0  0  0  0  0  0  0  0  0
    3.8180    0.3880    0.0150 C   0  0  0  0  0  0  0  0  0  0  0  0
    5.0280   -0.4480    0.1530 C   0  0  0  0  0  0  0  0  0  0  0  0
    4.9480   -1.6220   -0.5690 O   0  0  0  0  0  0  0  0  0  0  0  0
    6.1010   -2.2720   -0.3540 F   0  0  0  0  0  0  0  0  0  0  0  0
    2.6930    0.0410   -0.7650 N   0  0  0  0  0  0  0  0  0  0  0  0
    1.5620    0.8910   -0.8540 C   0  0  0  0  0  0  0  0  0  0  0  0
    1.7720    2.6450   -1.6060 Br  0  0  0  0  0  0  0  0  0  0  0  0
    0.3930    0.4770   -0.4280 C   0  0  0  0  0  0  0  0  0  0  0  0
    0.2250   -0.8340    0.1370 C   0  0  0  0  0  0  0  0  0  0  0  0
    1.3240   -1.6580    0.2520 F   0  0  0  0  0  0  0  0  0  0  0  0
   -0.8950   -1.3300    0.5710 C   0  0  0  0  0  0  0  0  0  0  0  0
   -2.1350   -0.5720    0.5170 C   0  0  0  0  0  0  0  0  0  0  0  0
   -2.5870    0.0290   -0.6430 C   0  0  0  0  0  0  0  0  0  0  0  0
   -3.7410    0.7710   -0.7030 C   0  0  0  0  0  0  0  0  0  0  0  0
   -4.1550    1.3570   -1.8890 O   0  0  0  0  0  0  0  0  0  0  0  0
   -4.4790    0.9200    0.4480 C   0  0  0  0  0  0  0  0  0  0  0  0
   -4.0090    0.3090    1.5950 C   0  0  0  0  0  0  0  0  0  0  0  0
   -2.8850   -0.4050    1.6240 N   0  0  0  0  0  0  0  0  0  0  0  0
   -2.4760   -0.9820    2.7870 O   0  0  0  0  0  0  0  0  0  0  0  0
  1  2  2  0
  2  3  1  0
  2  6  1  0
  3  4  1  0
  4  5  1  0
  6  7  1  0
  7  8  1  0
  7  9  2  3
  9 10  1  0
 10 11  1  0
 10 12  2  3
 12 13  1  0
 13 14  2  0
 13 19  1  0
 14 15  1  0
 15 16  1  0
 15 17  2  0
 17 18  1  0
 18 19  2  0
 19 20  1  0
M  CHG  2  19   1  20  -1
M  END
