
     RDKit          3D

 21 21  0  0  0  0  0  0  0  0999 V2000
    2.7340    1.7790   -0.1350 O   0  0  0  0  0  0  0  0  0  0  0  0
    2.4000    0.6230   -0.4980 C   0  0  0  0  0  0  0  0  0  0  0  0
    3.4100   -0.1520   -1.2900 C   0  0  0  0  0  0  0  0  0  0  0  0
    4.6140    0.5990   -1.4920 N   0  0  0  0  0  0  0  0  0  0  0  0
    4.9960    0.8640   -2.6280 O   0  0  0  0  0  0  0  0  0  0  0  0
    5.3750    1.0450   -0.4280 O   0  0  0  0  0  0  0  0  0  0  0  0
    1.1320    0.0770   -0.1760 N   0  0  0  0  0  0  0  0  0  0  0  0
    0.6710   -1.2290   -0.5490 C   0  0  0  0  0  0  0  0  0  0  0  0
   -0.7600   -1.3340   -0.1740 C   0  0  0  0  0  0  0  0  0  0  0  0
   -1.0310   -0.1990    0.7760 C   0  0  2  0  0  0  0  0  0  0  0  0
   -0.8890   -0.7560    2.2100 C   0  0  0  0  0  0  0  0  0  0  0  0
   -1.7230   -1.7890    2.4910 O   0  0  0  0  0  0  0  0  0  0  0  0
   -2.2900    0.4800    0.5500 C   0  0  0  0  0  0  0  0  0  0  0  0
   -2.6690    1.0990   -0.7000 C   0  0  0  0  0  0  0  0  0  0  0  0
   -2.1090    1.2160   -1.8490 C   0  0  0  0  0  0  0  0  0  0  0  0
   -0.9250    0.7770   -2.2770 F   0  0  0  0  0  0  0  0  0  0  0  0
   -2.8030    1.9100   -2.8660 F   0  0  0  0  0  0  0  0  0  0  0  0
   -3.2020    0.6020    1.5380 C   0  0  0  0  0  0  0  0  0  0  0  0
   -3.0510    0.1330    2.7760 F   0  0  0  0  0  0  0  0  0  0  0  0
   -4.8560    1.5290    1.1150 Br  0  0  0  0  0  0  0  0  0  0  0  0
    0.1170    0.7580    0.5770 C   0  0  0  0  0  0  0  0  0  0  0  0
  1  2  2  0
  2  3  1  0
  2  7  1  0
  3  4  1  0
  4  5  2  0
  4  6  1  0
  7  8  1  0
  7 21  1  0
  8  9  1  0
  9 10  1  0
 10 11  1  1
 10 13  1  0
 10 21  1  0
 11 12  1  0
 13 14  1  0
 13 18  2  3
 14 15  2  3
 15 16  1  0
 15 17  1  0
 18 19  1  0
 18 20  1  0
M  CHG  2   4   1   6  -1
M  END
