
     RDKit          3D

 21 21  0  0  0  0  0  0  0  0999 V2000
   -1.1570   -2.2630    0.6100 O   0  0  0  0  0  0  0  0  0  0  0  0
   -1.2460   -1.0670    0.9100 C   0  0  0  0  0  0  0  0  0  0  0  0
   -2.5770   -0.3760    1.0760 C   0  0  0  0  0  0  0  0  0  0  0  0
   -2.6210    0.9080    0.2980 C   0  0  2  0  0  0  0  0  0  0  0  0
   -3.0520    0.5880   -1.1180 C   0  0  2  0  0  0  0  0  0  0  0  0
   -4.2980    0.0000   -1.1460 F   0  0  0  0  0  0  0  0  0  0  0  0
   -2.1100   -0.2210   -1.6910 F   0  0  0  0  0  0  0  0  0  0  0  0
   -3.0920    1.7760   -1.8170 F   0  0  0  0  0  0  0  0  0  0  0  0
   -1.3290    1.6690    0.2680 C   0  0  0  0  0  0  0  0  0  0  0  0
   -0.2760    1.1000    1.0990 C   0  0  0  0  0  0  0  0  0  0  0  0
    0.4340    1.8800    1.8150 O   0  0  0  0  0  0  0  0  0  0  0  0
   -0.0500   -0.3060    1.1080 N   0  0  0  0  0  0  0  0  0  0  0  0
    1.2170   -0.8960    1.3640 C   0  0  0  0  0  0  0  0  0  0  0  0
    2.0340   -1.3380    0.2440 C   0  0  0  0  0  0  0  0  0  0  0  0
    2.5660   -0.5000   -0.7970 C   0  0  0  0  0  0  0  0  0  0  0  0
    2.4640    0.7850   -0.9930 C   0  0  0  0  0  0  0  0  0  0  0  0
    3.1340    1.3230   -2.1670 N   0  0  0  0  0  0  0  0  0  0  0  0
    2.5600    2.1930   -2.8330 O   0  0  0  0  0  0  0  0  0  0  0  0
    4.3690    0.8170   -2.4500 O   0  0  0  0  0  0  0  0  0  0  0  0
    2.3380   -2.6250    0.1700 C   0  0  0  0  0  0  0  0  0  0  0  0
    1.7130   -3.8100    1.4980 Br  0  0  0  0  0  0  0  0  0  0  0  0
  1  2  2  0
  2  3  1  0
  2 12  1  0
  4  3  1  1
  4  5  1  0
  4  9  1  0
  5  6  1  1
  5  7  1  0
  5  8  1  0
  9 10  1  0
 10 11  2  0
 10 12  1  0
 12 13  1  0
 13 14  1  0
 14 15  1  0
 14 20  2  3
 15 16  2  3
 16 17  1  0
 17 18  2  0
 17 19  1  0
 20 21  1  0
M  CHG  2  17   1  19  -1
M  END
