
     RDKit          3D

 13 14  0  0  0  0  0  0  0  0999 V2000
   -3.3540   -0.9360   -0.1340 N   0  0  0  0  0  0  0  0  0  0  0  0
   -2.0180   -1.2660    0.2250 C   0  0  0  0  0  0  0  0  0  0  0  0
   -1.8020   -2.1730    1.0770 O   0  0  0  0  0  0  0  0  0  0  0  0
   -0.8430   -0.5780   -0.3690 C   0  0  1  0  0  0  0  0  0  0  0  0
   -1.0630    0.8780   -0.2620 C   0  0  0  0  0  0  0  0  0  0  0  0
   -0.0120    1.7650   -0.7210 C   0  0  0  0  0  0  0  0  0  0  0  0
   -0.3970    2.7590   -1.3890 O   0  0  0  0  0  0  0  0  0  0  0  0
    1.4100    1.7580   -0.5760 N   0  0  0  0  0  0  0  0  0  0  0  0
    2.1140    0.7020    0.0980 C   0  0  0  0  0  0  0  0  0  0  0  0
    3.2780    0.4180    0.6310 C   0  0  0  0  0  0  0  0  0  0  0  0
    2.8070   -0.9230    0.9950 C   0  0  0  0  0  0  0  0  0  0  0  0
    1.6400   -0.6300    0.4570 C   0  0  0  0  0  0  0  0  0  0  0  0
    0.3370   -1.1200    0.1810 N   0  0  0  0  0  0  0  0  0  0  0  0
  1  2  1  0
  2  3  2  0
  4  2  1  1
  4  5  1  0
  4 13  1  0
  5  6  1  0
  6  7  2  0
  6  8  1  0
  8  9  1  0
  9 10  2  0
  9 12  1  0
 10 11  1  0
 11 12  2  0
 12 13  1  0
M  END
