
     RDKit          3D

 28 30  0  0  0  0  0  0  0  0999 V2000
   -6.4630   -2.9890   -0.4270 C   0  0  0  0  0  0  0  0  0  0  0  0
   -6.1500   -2.7870    1.0150 C   0  0  0  0  0  0  0  0  0  0  0  0
   -5.0630   -1.7820    1.1290 C   0  0  0  0  0  0  0  0  0  0  0  0
   -4.2520   -1.0420    1.2330 C   0  0  0  0  0  0  0  0  0  0  0  0
   -3.1670   -0.0210    1.3790 C   0  0  0  0  0  0  0  0  0  0  0  0
   -1.8430   -0.3670    1.0160 C   0  0  0  0  0  0  0  0  0  0  0  0
   -0.9860    0.8160    1.0430 C   0  0  0  0  0  0  0  0  0  0  0  0
    0.4090    0.3310    0.8070 C   0  0  0  0  0  0  0  0  0  0  0  0
    0.9650   -0.0720    1.9670 O   0  0  0  0  0  0  0  0  0  0  0  0
    1.1200    0.2250   -0.3410 N   0  0  0  0  0  0  0  0  0  0  0  0
    2.4430   -0.4590   -0.3310 C   0  0  0  0  0  0  0  0  0  0  0  0
    2.6320   -1.5060    0.4990 C   0  0  0  0  0  0  0  0  0  0  0  0
    3.8200   -2.2580    0.5330 C   0  0  0  0  0  0  0  0  0  0  0  0
    4.7640   -1.8060   -0.3880 C   0  0  0  0  0  0  0  0  0  0  0  0
    4.5870   -0.7320   -1.2640 C   0  0  0  0  0  0  0  0  0  0  0  0
    5.5970   -0.4820   -2.2610 C   0  0  0  0  0  0  0  0  0  0  0  0
    5.6570    0.5590   -3.1110 C   0  0  0  0  0  0  0  0  0  0  0  0
    6.8830    0.3520   -3.9480 C   0  0  0  0  0  0  0  0  0  0  0  0
    7.4760   -0.8510   -3.3990 C   0  0  0  0  0  0  0  0  0  0  0  0
    6.7390   -1.3640   -2.4370 C   0  0  0  0  0  0  0  0  0  0  0  0
    3.3520   -0.0210   -1.2100 C   0  0  0  0  0  0  0  0  0  0  0  0
   -1.3530    2.0320    1.3390 C   0  0  0  0  0  0  0  0  0  0  0  0
   -2.6520    2.3680    1.6930 C   0  0  0  0  0  0  0  0  0  0  0  0
   -3.0980    3.7350    2.0130 C   0  0  0  0  0  0  0  0  0  0  0  0
   -2.4120    4.7190    1.7200 O   0  0  0  0  0  0  0  0  0  0  0  0
   -4.2440    3.9600    2.6230 O   0  0  0  0  0  0  0  0  0  0  0  0
   -5.3570    4.1890    3.2160 C   0  0  0  0  0  0  0  0  0  0  0  0
   -3.4700    1.2460    1.6760 C   0  0  0  0  0  0  0  0  0  0  0  0
  1  2  1  0
  2  3  1  0
  3  4  3  0
  4  5  1  0
  5  6  2  0
  5 28  1  0
  6  7  1  0
  7  8  1  0
  7 22  2  0
  8  9  2  0
  8 10  1  0
 10 11  1  0
 11 12  2  0
 11 21  1  0
 12 13  1  0
 13 14  2  0
 14 15  1  0
 15 16  1  0
 15 21  2  0
 16 17  2  0
 16 20  1  0
 17 18  1  0
 18 19  1  0
 19 20  2  0
 22 23  1  0
 23 24  1  0
 23 28  2  0
 24 25  2  0
 24 26  1  0
 26 27  1  0
M  END
