
     RDKit          3D

 28 30  0  0  0  0  0  0  0  0999 V2000
   -6.9170   -0.2110   -2.2630 C   0  0  0  0  0  0  0  0  0  0  0  0
   -6.9570   -0.0250   -0.9600 C   0  0  0  0  0  0  0  0  0  0  0  0
   -5.7150    0.1410   -0.1670 C   0  0  0  0  0  0  0  0  0  0  0  0
   -6.0160    0.3150    1.1440 C   0  0  0  0  0  0  0  0  0  0  0  0
   -5.1850    0.5280    2.2970 C   0  0  0  0  0  0  0  0  0  0  0  0
   -4.4620    0.3230   -0.7490 C   0  0  0  0  0  0  0  0  0  0  0  0
   -4.4830    0.6810   -2.0360 O   0  0  0  0  0  0  0  0  0  0  0  0
   -3.1760    0.2050   -0.2860 N   0  0  0  0  0  0  0  0  0  0  0  0
   -2.6190   -0.5000    0.8420 C   0  0  0  0  0  0  0  0  0  0  0  0
   -1.6070   -1.4040    0.0330 C   0  0  0  0  0  0  0  0  0  0  0  0
   -1.1140   -0.3720   -0.9500 C   0  0  2  0  0  0  0  0  0  0  0  0
    0.2820   -0.4230   -1.2710 C   0  0  0  0  0  0  0  0  0  0  0  0
    0.7490   -0.9270   -2.4710 C   0  0  0  0  0  0  0  0  0  0  0  0
    2.0680   -0.9190   -2.8580 C   0  0  0  0  0  0  0  0  0  0  0  0
    2.5340   -1.4370   -4.1750 C   0  0  0  0  0  0  0  0  0  0  0  0
    3.0240   -0.3790   -2.0120 C   0  0  0  0  0  0  0  0  0  0  0  0
    2.6130    0.1370   -0.7920 C   0  0  0  0  0  0  0  0  0  0  0  0
    3.6360    0.5470    0.1820 C   0  0  0  0  0  0  0  0  0  0  0  0
    3.9720   -0.4480    1.1080 C   0  0  0  0  0  0  0  0  0  0  0  0
    4.9370   -0.2240    2.1000 C   0  0  0  0  0  0  0  0  0  0  0  0
    5.5550    1.0050    2.1480 C   0  0  0  0  0  0  0  0  0  0  0  0
    6.5160    1.3000    3.1010 O   0  0  0  0  0  0  0  0  0  0  0  0
    7.0080    0.4620    4.0980 C   0  0  0  0  0  0  0  0  0  0  0  0
    5.2260    2.0000    1.2330 C   0  0  0  0  0  0  0  0  0  0  0  0
    4.2570    1.7560    0.2470 C   0  0  0  0  0  0  0  0  0  0  0  0
    1.2860    0.1110   -0.4550 C   0  0  0  0  0  0  0  0  0  0  0  0
    0.8900    0.6350    0.7580 O   0  0  0  0  0  0  0  0  0  0  0  0
   -1.8950    0.8610   -0.8100 C   0  0  0  0  0  0  0  0  0  0  0  0
  1  2  2  0
  2  3  1  0
  3  4  2  3
  3  6  1  0
  4  5  1  0
  6  7  2  0
  6  8  1  0
  8  9  1  0
  8 28  1  0
  9 10  1  0
 10 11  1  0
 11 12  1  1
 11 28  1  0
 12 13  2  0
 12 26  1  0
 13 14  1  0
 14 15  1  0
 14 16  2  0
 16 17  1  0
 17 18  1  0
 17 26  2  0
 18 19  2  0
 18 25  1  0
 19 20  1  0
 20 21  2  0
 21 22  1  0
 21 24  1  0
 22 23  1  0
 24 25  2  0
 26 27  1  0
M  END
