
     RDKit          3D

 14 14  0  0  0  0  0  0  0  0999 V2000
   -2.0600    1.5190    0.9700 C   0  0  0  0  0  0  0  0  0  0  0  0
   -2.0090    0.0900    0.4700 C   0  0  2  0  0  0  0  0  0  0  0  0
   -0.7590   -0.1200   -0.3470 C   0  0  0  0  0  0  0  0  0  0  0  0
    0.4230    0.1740    0.5820 C   0  0  0  0  0  0  0  0  0  0  0  0
    1.6080   -0.0150   -0.1570 O   0  0  0  0  0  0  0  0  0  0  0  0
    2.8520    0.1780    0.4160 C   0  0  0  0  0  0  0  0  0  0  0  0
    3.0590    0.5500    1.6880 N   0  0  0  0  0  0  0  0  0  0  0  0
    4.4060    0.6390    1.8980 C   0  0  0  0  0  0  0  0  0  0  0  0
    4.9820    0.3080    0.7100 C   0  0  0  0  0  0  0  0  0  0  0  0
    4.0240    0.0260   -0.1940 N   0  0  0  0  0  0  0  0  0  0  0  0
    4.2460   -0.3670   -1.5680 C   0  0  0  0  0  0  0  0  0  0  0  0
   -3.2090   -0.1800   -0.2560 N   0  0  1  0  0  0  0  0  0  0  0  0
   -2.9730   -0.8390   -1.5210 C   0  0  0  0  0  0  0  0  0  0  0  0
   -4.0790   -1.0120    0.5520 C   0  0  0  0  0  0  0  0  0  0  0  0
  2  1  1  6
  2  3  1  0
  2 12  1  0
  3  4  1  0
  4  5  1  0
  5  6  1  0
  6  7  2  0
  6 10  1  0
  7  8  1  0
  8  9  2  0
  9 10  1  0
 10 11  1  0
 12 13  1  6
 12 14  1  0
M  CHG  1  12   1
M  END
