
     RDKit          3D

 28 30  0  0  0  0  0  0  0  0999 V2000
   -4.3110    1.8210    1.6970 C   0  0  0  0  0  0  0  0  0  0  0  0
   -4.7000    1.4080    0.5140 C   0  0  0  0  0  0  0  0  0  0  0  0
   -5.1810    2.3860   -0.3830 O   0  0  0  0  0  0  0  0  0  0  0  0
   -5.0740    2.4240   -1.7960 C   0  0  0  0  0  0  0  0  0  0  0  0
   -5.2970    0.9700   -2.2350 C   0  0  0  0  0  0  0  0  0  0  0  0
   -4.1400    0.1770   -2.1290 N   0  0  0  0  0  0  0  0  0  0  0  0
   -3.9730   -0.6300   -0.9900 C   0  0  1  0  0  0  0  0  0  0  0  0
   -2.6060   -1.0550   -0.6980 C   0  0  0  0  0  0  0  0  0  0  0  0
   -2.0980   -0.9790    0.5810 C   0  0  0  0  0  0  0  0  0  0  0  0
   -0.8100   -1.3750    0.8900 C   0  0  0  0  0  0  0  0  0  0  0  0
    0.0140   -1.8610   -0.0820 C   0  0  0  0  0  0  0  0  0  0  0  0
    1.3000   -2.2520    0.2400 O   0  0  0  0  0  0  0  0  0  0  0  0
    1.7630   -2.1620    1.5180 C   0  0  0  0  0  0  0  0  0  0  0  0
    2.8720   -1.6470    1.8780 C   0  0  0  0  0  0  0  0  0  0  0  0
    3.8650   -1.0540    1.0120 C   0  0  0  0  0  0  0  0  0  0  0  0
    3.7630   -0.9540   -0.3450 C   0  0  0  0  0  0  0  0  0  0  0  0
    4.7540   -0.3710   -1.1240 C   0  0  0  0  0  0  0  0  0  0  0  0
    5.9190    0.1500   -0.5670 C   0  0  0  0  0  0  0  0  0  0  0  0
    6.8730    0.7150   -1.3760 O   0  0  0  0  0  0  0  0  0  0  0  0
    8.0470    1.2660   -0.8480 C   0  0  0  0  0  0  0  0  0  0  0  0
    7.7830    2.4340    0.0720 C   0  0  0  0  0  0  0  0  0  0  0  0
    6.0130    0.0450    0.7940 C   0  0  0  0  0  0  0  0  0  0  0  0
    5.0400   -0.5280    1.5730 C   0  0  0  0  0  0  0  0  0  0  0  0
   -0.4740   -1.9460   -1.3750 C   0  0  0  0  0  0  0  0  0  0  0  0
   -1.7480   -1.5540   -1.6760 C   0  0  0  0  0  0  0  0  0  0  0  0
   -4.6030   -0.0200    0.2310 C   0  0  0  0  0  0  0  0  0  0  0  0
   -5.1260   -0.8250    1.1120 C   0  0  0  0  0  0  0  0  0  0  0  0
   -5.7930   -0.4070    2.3360 C   0  0  0  0  0  0  0  0  0  0  0  0
  1  2  2  0
  2  3  1  0
  2 26  1  0
  3  4  1  0
  4  5  1  0
  5  6  1  0
  6  7  1  0
  7  8  1  1
  7 26  1  0
  8  9  2  0
  8 25  1  0
  9 10  1  0
 10 11  2  0
 11 12  1  0
 11 24  1  0
 12 13  1  0
 13 14  2  3
 14 15  1  0
 15 16  2  0
 15 23  1  0
 16 17  1  0
 17 18  2  0
 18 19  1  0
 18 22  1  0
 19 20  1  0
 20 21  1  0
 22 23  2  0
 24 25  2  0
 26 27  2  3
 27 28  1  0
M  END
