
     RDKit          3D

 28 29  0  0  0  0  0  0  0  0999 V2000
   -2.8350   -3.2320    0.1350 C   0  0  0  0  0  0  0  0  0  0  0  0
   -2.1070   -2.1830   -0.1900 C   0  0  0  0  0  0  0  0  0  0  0  0
   -1.7630   -1.9400   -1.6110 C   0  0  0  0  0  0  0  0  0  0  0  0
   -1.6190   -1.2470    0.8940 C   0  0  2  0  0  0  0  0  0  0  0  0
   -2.2220   -1.7210    2.2260 C   0  0  0  0  0  0  0  0  0  0  0  0
   -2.0980    0.1340    0.5740 C   0  0  0  0  0  0  0  0  0  0  0  0
   -3.3010    0.5680    1.1280 C   0  0  0  0  0  0  0  0  0  0  0  0
   -3.8810    1.7680    0.8050 C   0  0  0  0  0  0  0  0  0  0  0  0
   -5.1870    2.1670    1.4510 C   0  0  0  0  0  0  0  0  0  0  0  0
   -3.2770    2.6040   -0.1000 C   0  0  0  0  0  0  0  0  0  0  0  0
   -3.9080    3.9080   -0.4540 C   0  0  0  0  0  0  0  0  0  0  0  0
   -2.1010    2.1980   -0.6490 C   0  0  0  0  0  0  0  0  0  0  0  0
   -1.5070    0.9750   -0.3190 C   0  0  0  0  0  0  0  0  0  0  0  0
   -0.1560    0.7100   -0.8740 C   0  0  0  0  0  0  0  0  0  0  0  0
   -0.0320    0.8080   -2.1060 O   0  0  0  0  0  0  0  0  0  0  0  0
    0.9510    0.3700   -0.0690 N   0  0  0  0  0  0  0  0  0  0  0  0
    2.2710    0.0960   -0.5040 C   0  0  0  0  0  0  0  0  0  0  0  0
    2.6880    0.3710   -1.7960 C   0  0  0  0  0  0  0  0  0  0  0  0
    4.0020    0.1610   -2.2340 C   0  0  0  0  0  0  0  0  0  0  0  0
    4.3610    0.4860   -3.6330 C   0  0  0  0  0  0  0  0  0  0  0  0
    4.9510   -0.3350   -1.3830 C   0  0  0  0  0  0  0  0  0  0  0  0
    6.3670   -0.5740   -1.7970 C   0  0  0  0  0  0  0  0  0  0  0  0
    4.5540   -0.6100   -0.1070 C   0  0  0  0  0  0  0  0  0  0  0  0
    3.2270   -0.4050    0.3540 C   0  0  0  0  0  0  0  0  0  0  0  0
    2.9310   -0.7700    1.7120 C   0  0  0  0  0  0  0  0  0  0  0  0
    3.8930   -1.2220    2.4480 O   0  0  0  0  0  0  0  0  0  0  0  0
    1.7320   -0.7010    2.3380 O   0  0  0  0  0  0  0  0  0  0  0  0
    1.4390   -1.0560    3.6570 C   0  0  0  0  0  0  0  0  0  0  0  0
  1  2  2  0
  2  3  1  0
  2  4  1  0
  4  5  1  1
  4  6  1  0
  6  7  2  0
  6 13  1  0
  7  8  1  0
  8  9  1  0
  8 10  2  0
 10 11  1  0
 10 12  1  0
 12 13  2  0
 13 14  1  0
 14 15  2  0
 14 16  1  0
 16 17  1  0
 17 18  2  0
 17 24  1  0
 18 19  1  0
 19 20  1  0
 19 21  2  0
 21 22  1  0
 21 23  1  0
 23 24  2  0
 24 25  1  0
 25 26  2  0
 25 27  1  0
 27 28  1  0
M  END
