
     RDKit          3D

 27 29  0  0  0  0  0  0  0  0999 V2000
   -6.9430    1.2330    0.5200 C   0  0  0  0  0  0  0  0  0  0  0  0
   -6.4970    0.8670   -0.8550 C   0  0  0  0  0  0  0  0  0  0  0  0
   -5.4100   -0.1200   -0.9490 C   0  0  0  0  0  0  0  0  0  0  0  0
   -4.0650    0.1790   -0.4000 C   0  0  1  0  0  0  0  0  0  0  0  0
   -4.0330    0.4110    1.0560 C   0  0  0  0  0  0  0  0  0  0  0  0
   -2.6290    0.3580    1.6820 C   0  0  0  0  0  0  0  0  0  0  0  0
   -1.6720    0.5220    0.5440 C   0  0  1  0  0  0  0  0  0  0  0  0
   -0.2490    0.6040    0.8840 C   0  0  0  0  0  0  0  0  0  0  0  0
    0.3720    1.5960    1.8120 C   0  0  0  0  0  0  0  0  0  0  0  0
    0.3890   -0.3300    0.2110 C   0  0  0  0  0  0  0  0  0  0  0  0
    1.8100   -0.6800    0.1840 C   0  0  0  0  0  0  0  0  0  0  0  0
    2.1730   -1.6160   -0.6090 O   0  0  0  0  0  0  0  0  0  0  0  0
    2.8740   -0.0670    0.9720 C   0  0  1  0  0  0  0  0  0  0  0  0
    2.9750   -0.7470    2.3450 C   0  0  0  0  0  0  0  0  0  0  0  0
    4.1660   -0.4500    0.3430 N   0  0  0  0  0  0  0  0  0  0  0  0
    5.0290    0.5930   -0.0680 C   0  0  0  0  0  0  0  0  0  0  0  0
    4.6960    1.8140    0.0980 O   0  0  0  0  0  0  0  0  0  0  0  0
    6.3040    0.3060   -0.6830 C   0  0  0  0  0  0  0  0  0  0  0  0
    7.1840    1.2130   -1.1010 C   0  0  0  0  0  0  0  0  0  0  0  0
    8.3490    0.5660   -1.6670 C   0  0  0  0  0  0  0  0  0  0  0  0
    8.1680   -0.7510   -1.5880 C   0  0  0  0  0  0  0  0  0  0  0  0
    6.8700   -0.9950   -0.9650 C   0  0  0  0  0  0  0  0  0  0  0  0
    6.3930   -2.1270   -0.7430 O   0  0  0  0  0  0  0  0  0  0  0  0
   -0.5750   -1.1040   -0.5970 C   0  0  0  0  0  0  0  0  0  0  0  0
   -0.3190   -2.2600   -1.5110 C   0  0  0  0  0  0  0  0  0  0  0  0
   -1.7650   -0.5990   -0.3840 C   0  0  0  0  0  0  0  0  0  0  0  0
   -3.1450   -0.9540   -0.8460 C   0  0  0  0  0  0  0  0  0  0  0  0
  1  2  1  0
  2  3  1  0
  4  3  1  1
  4  5  1  0
  4 27  1  0
  5  6  1  0
  7  6  1  1
  7  8  1  0
  7 26  1  0
  8  9  1  0
  8 10  2  0
 10 11  1  0
 10 24  1  0
 11 12  2  0
 11 13  1  0
 13 14  1  1
 13 15  1  0
 15 16  1  0
 16 17  2  0
 16 18  1  0
 18 19  2  0
 18 22  1  0
 19 20  1  0
 20 21  2  0
 21 22  1  0
 22 23  2  0
 24 25  1  0
 24 26  2  0
 26 27  1  0
M  END
