
     RDKit          3D

 28 30  0  0  0  0  0  0  0  0999 V2000
   -2.8270    3.9290    1.7970 C   0  0  0  0  0  0  0  0  0  0  0  0
   -2.4910    3.0130    0.6820 C   0  0  0  0  0  0  0  0  0  0  0  0
   -1.3350    2.6830    0.5370 O   0  0  0  0  0  0  0  0  0  0  0  0
   -3.5170    2.4890   -0.2570 C   0  0  2  0  0  0  0  0  0  0  0  0
   -4.6010    1.7150    0.4030 C   0  0  0  0  0  0  0  0  0  0  0  0
   -4.3730    0.2480    0.5730 C   0  0  0  0  0  0  0  0  0  0  0  0
   -2.8880    0.0280    0.5430 C   0  0  0  0  0  0  0  0  0  0  0  0
   -2.2610   -0.5300    1.4920 O   0  0  0  0  0  0  0  0  0  0  0  0
   -2.2290    0.5080   -0.6580 C   0  0  0  0  0  0  0  0  0  0  0  0
   -1.1640   -0.0510   -1.1380 C   0  0  0  0  0  0  0  0  0  0  0  0
   -0.5100   -1.2170   -0.5540 C   0  0  0  0  0  0  0  0  0  0  0  0
   -1.2090   -2.3850   -0.3700 C   0  0  0  0  0  0  0  0  0  0  0  0
   -2.5410   -2.3900   -0.8270 O   0  0  0  0  0  0  0  0  0  0  0  0
   -0.6600   -3.4980    0.2200 C   0  0  0  0  0  0  0  0  0  0  0  0
    0.6670   -3.4200    0.6430 C   0  0  0  0  0  0  0  0  0  0  0  0
    1.2640   -4.6070    1.2740 C   0  0  0  0  0  0  0  0  0  0  0  0
    1.3910   -2.2750    0.4740 C   0  0  0  0  0  0  0  0  0  0  0  0
    2.6980   -2.1390    0.8760 C   0  0  0  0  0  0  0  0  0  0  0  0
    3.3850   -0.9570    0.6870 C   0  0  0  0  0  0  0  0  0  0  0  0
    2.8100    0.1530    0.0890 C   0  0  0  0  0  0  0  0  0  0  0  0
    3.5900    1.3840   -0.0800 C   0  0  0  0  0  0  0  0  0  0  0  0
    4.3010    1.3520   -1.4050 C   0  0  0  0  0  0  0  0  0  0  0  0
    5.2090    0.1700   -1.5480 C   0  0  0  0  0  0  0  0  0  0  0  0
    5.8580    0.3080   -2.8720 C   0  0  0  0  0  0  0  0  0  0  0  0
    6.3630    0.4000   -3.9280 N   0  0  0  0  0  0  0  0  0  0  0  0
    1.5120    0.0200   -0.3100 C   0  0  0  0  0  0  0  0  0  0  0  0
    0.7950   -1.1620   -0.1320 C   0  0  0  0  0  0  0  0  0  0  0  0
   -2.8400    1.6680   -1.3540 C   0  0  0  0  0  0  0  0  0  0  0  0
  1  2  1  0
  2  3  2  0
  4  2  1  1
  4  5  1  0
  4 28  1  0
  5  6  1  0
  6  7  1  0
  7  8  2  0
  7  9  1  0
  9 10  2  3
  9 28  1  0
 10 11  1  0
 11 12  2  0
 11 27  1  0
 12 13  1  0
 12 14  1  0
 14 15  2  0
 15 16  1  0
 15 17  1  0
 17 18  2  0
 17 27  1  0
 18 19  1  0
 19 20  2  0
 20 21  1  0
 20 26  1  0
 21 22  1  0
 22 23  1  0
 23 24  1  0
 24 25  3  0
 26 27  2  0
M  END
