
     RDKit          3D

 28 30  0  0  0  0  0  0  0  0999 V2000
   -6.8450    2.1770    1.0700 C   0  0  0  0  0  0  0  0  0  0  0  0
   -6.9560    0.6980    1.2770 C   0  0  0  0  0  0  0  0  0  0  0  0
   -6.4040   -0.1560    0.3930 C   0  0  0  0  0  0  0  0  0  0  0  0
   -6.5420   -1.6040    0.6430 C   0  0  0  0  0  0  0  0  0  0  0  0
   -5.6960    0.3980   -0.7890 C   0  0  0  0  0  0  0  0  0  0  0  0
   -4.2500   -0.0090   -0.8270 C   0  0  0  0  0  0  0  0  0  0  0  0
   -3.8710   -1.4400   -0.9240 C   0  0  0  0  0  0  0  0  0  0  0  0
   -3.2900    0.8970   -0.7980 C   0  0  0  0  0  0  0  0  0  0  0  0
   -1.8650    0.6250   -0.8270 C   0  0  0  0  0  0  0  0  0  0  0  0
   -1.0400    1.3980   -1.6540 C   0  0  0  0  0  0  0  0  0  0  0  0
    0.3210    1.2160   -1.7260 C   0  0  0  0  0  0  0  0  0  0  0  0
    0.9110    0.2210   -0.9450 C   0  0  0  0  0  0  0  0  0  0  0  0
    0.1360   -0.5590   -0.1210 C   0  0  0  0  0  0  0  0  0  0  0  0
   -1.2210   -0.3360   -0.0840 C   0  0  0  0  0  0  0  0  0  0  0  0
    0.3540   -1.6730    0.8260 C   0  0  0  0  0  0  0  0  0  0  0  0
    1.4750   -1.4890    1.7080 N   0  0  0  0  0  0  0  0  0  0  0  0
    2.8610   -1.2770    1.5430 C   0  0  0  0  0  0  0  0  0  0  0  0
    3.5780   -1.7380    2.4960 O   0  0  0  0  0  0  0  0  0  0  0  0
    3.7270   -0.6460    0.5350 C   0  0  0  0  0  0  0  0  0  0  0  0
    5.0220   -0.8190    0.9410 C   0  0  0  0  0  0  0  0  0  0  0  0
    6.0790   -0.3160    0.1700 C   0  0  0  0  0  0  0  0  0  0  0  0
    7.3630   -0.5250    0.6360 O   0  0  0  0  0  0  0  0  0  0  0  0
    8.5090   -0.0630   -0.0370 C   0  0  0  0  0  0  0  0  0  0  0  0
    8.4770    1.4590   -0.1380 C   0  0  0  0  0  0  0  0  0  0  0  0
    5.7720    0.3510   -0.9960 C   0  0  0  0  0  0  0  0  0  0  0  0
    4.4660    0.5440   -1.4370 C   0  0  0  0  0  0  0  0  0  0  0  0
    3.4490    0.0310   -0.6460 C   0  0  0  0  0  0  0  0  0  0  0  0
    2.2570    0.3470   -1.2880 O   0  0  0  0  0  0  0  0  0  0  0  0
  1  2  1  0
  2  3  2  3
  3  4  1  0
  3  5  1  0
  5  6  1  0
  6  7  1  0
  6  8  2  3
  8  9  1  0
  9 10  2  0
  9 14  1  0
 10 11  1  0
 11 12  2  0
 12 13  1  0
 12 28  1  0
 13 14  2  0
 13 15  1  0
 15 16  1  0
 16 17  1  0
 17 18  2  0
 17 19  1  0
 19 20  2  0
 19 27  1  0
 20 21  1  0
 21 22  1  0
 21 25  2  0
 22 23  1  0
 23 24  1  0
 25 26  1  0
 26 27  2  0
 27 28  1  0
M  END
