
     RDKit          3D

 24 25  0  0  0  0  0  0  0  0999 V2000
   -4.5090    3.3920   -0.2340 C   0  0  0  0  0  0  0  0  0  0  0  0
   -3.3340    2.0410   -0.5600 S   0  0  0  0  0  0  0  0  0  0  0  0
   -1.9250    2.6160   -0.3990 O   0  0  0  0  0  0  0  0  0  0  0  0
   -3.6560    0.7680    0.6360 C   0  0  1  0  0  0  0  0  0  0  0  0
   -5.0910    0.3050    0.4570 C   0  0  0  0  0  0  0  0  0  0  0  0
   -5.0960   -1.0060    1.1720 C   0  0  0  0  0  0  0  0  0  0  0  0
   -3.6630   -1.4860    1.2630 C   0  0  1  0  0  0  0  0  0  0  0  0
   -3.5260   -2.7840    0.8340 O   0  0  0  0  0  0  0  0  0  0  0  0
   -2.9170   -0.5090    0.3810 C   0  0  2  0  0  0  0  0  0  0  0  0
   -1.5610   -0.4820    0.5660 O   0  0  0  0  0  0  0  0  0  0  0  0
   -0.6470   -0.7970   -0.4590 C   0  0  0  0  0  0  0  0  0  0  0  0
   -1.1840   -1.0930   -1.5150 O   0  0  0  0  0  0  0  0  0  0  0  0
    0.8020   -0.7500   -0.2020 C   0  0  0  0  0  0  0  0  0  0  0  0
    1.6870   -1.0990   -1.3060 C   0  0  0  0  0  0  0  0  0  0  0  0
    1.3240   -1.4750   -2.5000 C   0  0  0  0  0  0  0  0  0  0  0  0
    2.4470   -1.7400   -3.3400 N   0  0  0  0  0  0  0  0  0  0  0  0
    3.6110   -1.5040   -2.5940 C   0  0  0  0  0  0  0  0  0  0  0  0
    4.8130   -1.6220   -2.9700 O   0  0  0  0  0  0  0  0  0  0  0  0
    3.1560   -1.0760   -1.2370 C   0  0  0  0  0  0  0  0  0  0  0  0
    4.0070   -0.7850   -0.3020 C   0  0  0  0  0  0  0  0  0  0  0  0
    3.7750   -0.3640    1.0560 C   0  0  0  0  0  0  0  0  0  0  0  0
    4.3020    1.0560    1.3140 C   0  0  0  0  0  0  0  0  0  0  0  0
    5.7860    1.0600    1.0500 C   0  0  0  0  0  0  0  0  0  0  0  0
    6.2480    2.3640    1.3020 O   0  0  0  0  0  0  0  0  0  0  0  0
  2  1  1  1
  2  3  2  0
  2  4  1  0
  4  5  1  6
  4  9  1  0
  5  6  1  0
  6  7  1  0
  7  8  1  6
  7  9  1  0
  9 10  1  1
 10 11  1  0
 11 12  2  0
 11 13  1  0
 13 14  1  0
 14 15  2  0
 14 19  1  0
 15 16  1  0
 16 17  1  0
 17 18  2  0
 17 19  1  0
 19 20  2  3
 20 21  1  0
 21 22  1  0
 22 23  1  0
 23 24  1  0
M  END
