
     RDKit          3D

 25 26  0  0  0  0  0  0  0  0999 V2000
    4.7060    1.3150    2.2900 C   0  0  0  0  0  0  0  0  0  0  0  0
    4.4820    0.0770    1.6620 O   0  0  0  0  0  0  0  0  0  0  0  0
    3.3440   -0.1720    0.9020 C   0  0  0  0  0  0  0  0  0  0  0  0
    3.1230   -1.3840    0.2850 C   0  0  0  0  0  0  0  0  0  0  0  0
    1.9880   -1.6540   -0.4810 C   0  0  0  0  0  0  0  0  0  0  0  0
    1.7900   -2.9710   -1.1350 C   0  0  1  0  0  0  0  0  0  0  0  0
    0.5160   -3.4630   -0.9810 O   0  0  0  0  0  0  0  0  0  0  0  0
    2.1090   -2.7870   -2.9290 S   0  0  0  0  0  0  0  0  0  0  0  0
    1.0720   -0.6560   -0.6090 C   0  0  0  0  0  0  0  0  0  0  0  0
    1.2940    0.5800    0.0170 C   0  0  0  0  0  0  0  0  0  0  0  0
    2.3980    0.8320    0.7580 C   0  0  0  0  0  0  0  0  0  0  0  0
    0.1850    1.5550   -0.2450 C   0  0  1  0  0  0  0  0  0  0  0  0
    0.4060    2.8610    0.4300 C   0  0  0  0  0  0  0  0  0  0  0  0
    0.2360    1.7980   -1.6360 O   0  0  0  0  0  0  0  0  0  0  0  0
   -1.0880    0.8480    0.1360 C   0  0  1  0  0  0  0  0  0  0  0  0
   -2.2300    1.7710    0.3690 C   0  0  0  0  0  0  0  0  0  0  0  0
   -1.9710    2.6820    1.4080 O   0  0  0  0  0  0  0  0  0  0  0  0
   -1.3790   -0.2950   -0.7830 C   0  0  2  0  0  0  0  0  0  0  0  0
   -2.1690    0.0400   -2.0000 C   0  0  0  0  0  0  0  0  0  0  0  0
   -1.9040   -1.5000   -0.0700 C   0  0  0  0  0  0  0  0  0  0  0  0
   -3.1290   -1.4480    0.6160 N   0  0  0  0  0  0  0  0  0  0  0  0
   -4.4230   -1.2570    0.1140 C   0  0  0  0  0  0  0  0  0  0  0  0
   -4.6680   -1.1090   -1.1000 O   0  0  0  0  0  0  0  0  0  0  0  0
   -5.4980   -1.2290    1.0100 O   0  0  0  0  0  0  0  0  0  0  0  0
   -0.0910   -0.7640   -1.3250 O   0  0  0  0  0  0  0  0  0  0  0  0
  1  2  1  0
  2  3  1  0
  3  4  2  0
  3 11  1  0
  4  5  1  0
  5  6  1  0
  5  9  2  0
  6  7  1  6
  6  8  1  0
  9 10  1  0
  9 25  1  0
 10 11  2  0
 10 12  1  0
 12 13  1  1
 12 14  1  0
 12 15  1  0
 15 16  1  6
 15 18  1  0
 16 17  1  0
 18 19  1  6
 18 20  1  0
 18 25  1  0
 20 21  1  0
 21 22  1  0
 22 23  2  0
 22 24  1  0
M  END
