
     RDKit          3D

 25 26  0  0  0  0  0  0  0  0999 V2000
    3.0580   -2.2170   -1.0660 C   0  0  0  0  0  0  0  0  0  0  0  0
    2.7270   -1.0810   -0.1380 C   0  0  2  0  0  0  0  0  0  0  0  0
    1.5820   -0.4300   -0.6470 O   0  0  0  0  0  0  0  0  0  0  0  0
    0.4310   -0.4380    0.1320 C   0  0  0  0  0  0  0  0  0  0  0  0
    0.4840   -1.0170    1.2250 O   0  0  0  0  0  0  0  0  0  0  0  0
   -0.8250    0.2200   -0.3090 C   0  0  2  0  0  0  0  0  0  0  0  0
   -0.5480    1.6720   -0.2600 C   0  0  0  0  0  0  0  0  0  0  0  0
   -1.9670   -0.3770    0.3730 C   0  0  2  0  0  0  0  0  0  0  0  0
   -1.9430   -1.7130   -0.0030 O   0  0  0  0  0  0  0  0  0  0  0  0
   -1.9320   -2.7810    0.8360 C   0  0  0  0  0  0  0  0  0  0  0  0
   -1.8850   -4.1460    0.4440 N   0  0  0  0  0  0  0  0  0  0  0  0
   -1.9680   -2.4390    2.0310 O   0  0  0  0  0  0  0  0  0  0  0  0
   -3.2880    0.3070    0.1770 C   0  0  2  0  0  0  0  0  0  0  0  0
   -3.7570    0.4220   -1.2110 C   0  0  0  0  0  0  0  0  0  0  0  0
   -4.8280    1.4430   -1.3190 C   0  0  0  0  0  0  0  0  0  0  0  0
   -4.3810    2.6510   -0.0910 S   0  0  1  0  0  0  0  0  0  0  0  0
   -3.5740    3.7680   -0.6320 O   0  0  0  0  0  0  0  0  0  0  0  0
   -5.5880    3.1530    0.6460 O   0  0  0  0  0  0  0  0  0  0  0  0
   -3.3690    1.5770    0.9310 C   0  0  0  0  0  0  0  0  0  0  0  0
    3.8650   -0.1350    0.0350 C   0  0  0  0  0  0  0  0  0  0  0  0
    4.9820   -0.3650   -0.5970 C   0  0  0  0  0  0  0  0  0  0  0  0
    6.1450    0.5260   -0.4720 C   0  0  0  0  0  0  0  0  0  0  0  0
    5.9510    1.6130    0.3640 O   0  0  0  0  0  0  0  0  0  0  0  0
    4.7690    1.8340    1.0170 C   0  0  0  0  0  0  0  0  0  0  0  0
    3.7270    1.0350    0.9040 C   0  0  0  0  0  0  0  0  0  0  0  0
  2  1  1  6
  2  3  1  0
  2 20  1  0
  3  4  1  0
  4  5  2  0
  4  6  1  0
  6  7  1  1
  6  8  1  0
  8  9  1  6
  8 13  1  0
  9 10  1  0
 10 11  1  0
 10 12  2  0
 13 14  1  6
 13 19  1  0
 14 15  1  0
 16 15  1  6
 16 17  2  0
 16 18  2  0
 16 19  1  0
 20 21  2  0
 20 25  1  0
 21 22  1  0
 22 23  1  0
 23 24  1  0
 24 25  2  0
M  END
