
     RDKit          3D

 25 26  0  0  0  0  0  0  0  0999 V2000
    1.7870   -0.3570   -2.4900 C   0  0  0  0  0  0  0  0  0  0  0  0
    2.4860    0.2610   -1.3570 C   0  0  0  0  0  0  0  0  0  0  0  0
    3.7470    0.8510   -1.5040 N   0  0  0  0  0  0  0  0  0  0  0  0
    4.4630    1.0200   -2.7050 C   0  0  0  0  0  0  0  0  0  0  0  0
    4.0300    0.6460   -3.8030 O   0  0  0  0  0  0  0  0  0  0  0  0
    5.7270    1.6300   -2.7320 O   0  0  0  0  0  0  0  0  0  0  0  0
    1.9080    0.1720   -0.1480 C   0  0  0  0  0  0  0  0  0  0  0  0
    0.6390   -0.5270    0.0120 C   0  0  0  0  0  0  0  0  0  0  0  0
    0.1510   -0.5470    1.1950 O   0  0  0  0  0  0  0  0  0  0  0  0
   -0.1000   -1.1660   -0.9330 O   0  0  0  0  0  0  0  0  0  0  0  0
   -1.3240   -1.8350   -0.7690 C   0  0  0  0  0  0  0  0  0  0  0  0
   -2.3580   -0.8660   -0.2800 C   0  0  1  0  0  0  0  0  0  0  0  0
   -2.5430    0.3090   -1.1800 C   0  0  0  0  0  0  0  0  0  0  0  0
   -3.4630    1.1950   -0.6050 O   0  0  0  0  0  0  0  0  0  0  0  0
   -4.5930    0.7490    0.1040 C   0  0  0  0  0  0  0  0  0  0  0  0
   -5.6500    1.3610    0.6130 C   0  0  0  0  0  0  0  0  0  0  0  0
   -6.5350    0.3620    1.2650 C   0  0  0  0  0  0  0  0  0  0  0  0
   -5.7840   -0.8980    1.0280 C   0  0  0  0  0  0  0  0  0  0  0  0
   -4.6660   -0.6840    0.3600 C   0  0  0  0  0  0  0  0  0  0  0  0
   -3.6310   -1.5100   -0.1040 O   0  0  0  0  0  0  0  0  0  0  0  0
    2.5770    0.7680    1.0200 C   0  0  2  0  0  0  0  0  0  0  0  0
    3.1200    2.0240    0.8450 O   0  0  0  0  0  0  0  0  0  0  0  0
    3.4290   -0.1410    1.8270 C   0  0  2  0  0  0  0  0  0  0  0  0
    2.7160   -1.3110    2.4230 C   0  0  0  0  0  0  0  0  0  0  0  0
    4.1410    0.7940    3.2370 S   0  0  0  0  0  0  0  0  0  0  0  0
  1  2  1  0
  2  3  1  0
  2  7  2  3
  3  4  1  0
  4  5  2  0
  4  6  1  0
  7  8  1  0
  7 21  1  0
  8  9  2  0
  8 10  1  0
 10 11  1  0
 12 11  1  6
 12 13  1  0
 12 20  1  0
 13 14  1  0
 14 15  1  0
 15 16  2  0
 15 19  1  0
 16 17  1  0
 17 18  1  0
 18 19  2  0
 19 20  1  0
 21 22  1  6
 21 23  1  0
 23 24  1  1
 23 25  1  0
M  END
