
     RDKit          3D

 24 25  0  0  0  0  0  0  0  0999 V2000
   -2.6460   -1.5610    1.2970 C   0  0  0  0  0  0  0  0  0  0  0  0
   -3.2920   -0.3840    0.6580 C   0  0  2  0  0  0  0  0  0  0  0  0
   -2.4930    0.2420   -0.4470 C   0  0  2  0  0  0  0  0  0  0  0  0
   -3.2690    1.3310   -0.9170 O   0  0  0  0  0  0  0  0  0  0  0  0
   -2.2870   -0.6660   -1.6140 C   0  0  0  0  0  0  0  0  0  0  0  0
   -0.8510   -1.0550   -1.6490 C   0  0  0  0  0  0  0  0  0  0  0  0
   -0.1400   -0.2340   -0.5780 C   0  0  1  0  0  0  0  0  0  0  0  0
    1.0360    0.2380   -1.1110 O   0  0  0  0  0  0  0  0  0  0  0  0
    2.3210   -0.1260   -0.7440 C   0  0  0  0  0  0  0  0  0  0  0  0
    2.3310   -0.9660    0.1620 O   0  0  0  0  0  0  0  0  0  0  0  0
    3.5100    0.4030   -1.3380 C   0  0  0  0  0  0  0  0  0  0  0  0
    3.3440    1.2290   -2.2940 O   0  0  0  0  0  0  0  0  0  0  0  0
    4.8570    0.0600   -0.9190 C   0  0  2  0  0  0  0  0  0  0  0  0
    5.1350   -1.4390   -0.8450 C   0  0  0  0  0  0  0  0  0  0  0  0
    6.4630   -1.5540   -0.4330 O   0  0  0  0  0  0  0  0  0  0  0  0
    5.4120    0.7260    0.2820 C   0  0  0  0  0  0  0  0  0  0  0  0
    4.6370    0.5080    1.5410 C   0  0  0  0  0  0  0  0  0  0  0  0
    5.2770    1.1630    2.6080 O   0  0  0  0  0  0  0  0  0  0  0  0
   -1.1170    0.6940   -0.0040 C   0  0  0  0  0  0  0  0  0  0  0  0
   -3.6990    0.6310    1.7050 C   0  0  0  0  0  0  0  0  0  0  0  0
   -4.4360    1.6720    1.1320 O   0  0  0  0  0  0  0  0  0  0  0  0
   -5.7670    1.3260    0.9500 C   0  0  0  0  0  0  0  0  0  0  0  0
   -5.9160    0.4950   -0.3010 C   0  0  0  0  0  0  0  0  0  0  0  0
   -4.8560   -0.9720   -0.1030 S   0  0  0  0  0  0  0  0  0  0  0  0
  2  1  1  1
  2  3  1  0
  2 20  1  0
  2 24  1  0
  3  4  1  6
  3  5  1  0
  3 19  1  0
  5  6  1  0
  6  7  1  0
  7  8  1  6
  7 19  1  0
  8  9  1  0
  9 10  2  0
  9 11  1  0
 11 12  2  0
 11 13  1  0
 13 14  1  1
 13 16  1  0
 14 15  1  0
 16 17  1  0
 17 18  1  0
 20 21  1  0
 21 22  1  0
 22 23  1  0
 23 24  1  0
M  END
