
     RDKit          3D

 25 26  0  0  0  0  0  0  0  0999 V2000
   -2.9200    3.0470   -0.5630 C   0  0  0  0  0  0  0  0  0  0  0  0
   -3.6310    2.1290    0.2150 O   0  0  0  0  0  0  0  0  0  0  0  0
   -3.1600    0.8330    0.0340 C   0  0  1  0  0  0  0  0  0  0  0  0
   -2.8180    0.3320    1.2740 O   0  0  0  0  0  0  0  0  0  0  0  0
   -2.1130   -0.8790    1.1880 C   0  0  2  0  0  0  0  0  0  0  0  0
   -0.6780   -0.5660    1.5530 C   0  0  0  0  0  0  0  0  0  0  0  0
    0.1710   -1.7010    1.5120 N   0  0  0  0  0  0  0  0  0  0  0  0
    1.8040   -1.4530    1.9030 S   0  0  1  0  0  0  0  0  0  0  0  0
    1.9140   -1.0760    3.3520 O   0  0  0  0  0  0  0  0  0  0  0  0
    2.4720   -2.8250    1.8120 O   0  0  0  0  0  0  0  0  0  0  0  0
    2.6430   -0.3560    0.8430 C   0  0  0  0  0  0  0  0  0  0  0  0
    2.7490    0.9780    1.1400 C   0  0  0  0  0  0  0  0  0  0  0  0
    2.1880    1.5780    2.3890 C   0  0  0  0  0  0  0  0  0  0  0  0
    3.4230    1.7970    0.2360 C   0  0  0  0  0  0  0  0  0  0  0  0
    3.9910    1.3630   -0.9340 C   0  0  0  0  0  0  0  0  0  0  0  0
    4.7030    2.2680   -1.8730 C   0  0  0  0  0  0  0  0  0  0  0  0
    3.8690    0.0090   -1.2080 C   0  0  0  0  0  0  0  0  0  0  0  0
    3.2110   -0.8390   -0.3430 C   0  0  0  0  0  0  0  0  0  0  0  0
    3.0820   -2.2900   -0.6420 C   0  0  0  0  0  0  0  0  0  0  0  0
   -2.2580   -1.4960   -0.1640 C   0  0  1  0  0  0  0  0  0  0  0  0
   -1.9190   -2.8640   -0.0780 O   0  0  0  0  0  0  0  0  0  0  0  0
   -3.7350   -1.4660   -0.5370 C   0  0  2  0  0  0  0  0  0  0  0  0
   -3.9490   -2.0540   -1.7820 O   0  0  0  0  0  0  0  0  0  0  0  0
   -4.2870   -0.0550   -0.5000 C   0  0  2  0  0  0  0  0  0  0  0  0
   -4.7330    0.3810   -1.7310 O   0  0  0  0  0  0  0  0  0  0  0  0
  1  2  1  0
  3  2  1  1
  3  4  1  0
  3 24  1  0
  4  5  1  0
  5  6  1  6
  5 20  1  0
  6  7  1  0
  8  7  1  6
  8  9  2  0
  8 10  2  0
  8 11  1  0
 11 12  2  0
 11 18  1  0
 12 13  1  0
 12 14  1  0
 14 15  2  0
 15 16  1  0
 15 17  1  0
 17 18  2  0
 18 19  1  0
 20 21  1  1
 20 22  1  0
 22 23  1  6
 22 24  1  0
 24 25  1  6
M  END
