
     RDKit          3D

 29 32  0  0  0  0  0  0  0  0999 V2000
    0.5090    2.8330   -3.2000 N   0  0  0  0  0  0  0  0  0  0  0  0
    0.0830    1.9480   -2.3640 C   0  0  0  0  0  0  0  0  0  0  0  0
   -1.2770    1.7200   -1.8610 C   0  0  0  0  0  0  0  0  0  0  0  0
   -1.2940    0.6970   -1.0040 C   0  0  0  0  0  0  0  0  0  0  0  0
   -2.5210    0.2380   -0.3400 C   0  0  0  0  0  0  0  0  0  0  0  0
   -2.4640   -0.7220    0.4480 O   0  0  0  0  0  0  0  0  0  0  0  0
   -3.7620    0.8800   -0.5900 N   0  0  0  0  0  0  0  0  0  0  0  0
   -4.9680    0.4990    0.0050 C   0  0  0  0  0  0  0  0  0  0  0  0
   -5.1930   -0.5070    0.8950 C   0  0  0  0  0  0  0  0  0  0  0  0
   -6.4690   -0.7850    1.4200 C   0  0  0  0  0  0  0  0  0  0  0  0
   -7.5270   -0.0600    1.0580 N   0  0  0  0  0  0  0  0  0  0  0  0
   -7.3560    0.9430    0.1820 C   0  0  0  0  0  0  0  0  0  0  0  0
   -6.1180    1.2350   -0.3450 C   0  0  0  0  0  0  0  0  0  0  0  0
   -5.9830    2.2460   -1.2200 F   0  0  0  0  0  0  0  0  0  0  0  0
    0.0360    0.1560   -0.8580 C   0  0  0  0  0  0  0  0  0  0  0  0
    0.2830   -0.8650   -0.0640 C   0  0  0  0  0  0  0  0  0  0  0  0
    1.4350   -1.6620    0.3370 C   0  0  0  0  0  0  0  0  0  0  0  0
    0.9420   -2.7420    0.9100 C   0  0  0  0  0  0  0  0  0  0  0  0
    1.8240   -3.8000    1.4520 C   0  0  0  0  0  0  0  0  0  0  0  0
    3.2290   -3.2740    1.7080 C   0  0  0  0  0  0  0  0  0  0  0  0
    3.7150   -2.5770    0.4650 C   0  0  0  0  0  0  0  0  0  0  0  0
    2.8340   -1.4570    0.2080 N   0  0  0  0  0  0  0  0  0  0  0  0
    3.7340   -0.3870   -0.1300 C   0  0  0  0  0  0  0  0  0  0  0  0
    3.0720    0.7840   -0.7050 C   0  0  0  0  0  0  0  0  0  0  0  0
    3.1250    1.9260   -0.0670 C   0  0  0  0  0  0  0  0  0  0  0  0
    3.7730    2.2490    1.2030 C   0  0  0  0  0  0  0  0  0  0  0  0
    4.7700    3.2960    0.9160 N   0  0  0  0  0  0  0  0  0  0  0  0
    2.2900    0.8930   -1.9900 C   0  0  0  0  0  0  0  0  0  0  0  0
    0.8710    0.9590   -1.7200 N   0  0  0  0  0  0  0  0  0  0  0  0
  1  2  2  0
  2  3  1  0
  2 29  1  0
  3  4  2  0
  4  5  1  0
  4 15  1  0
  5  6  2  0
  5  7  1  0
  7  8  1  0
  8  9  2  0
  8 13  1  0
  9 10  1  0
 10 11  2  0
 11 12  1  0
 12 13  2  0
 13 14  1  0
 15 16  2  0
 15 29  1  0
 16 17  1  0
 17 18  2  0
 17 22  1  0
 18 19  1  0
 19 20  1  0
 20 21  1  0
 21 22  1  0
 22 23  1  0
 23 24  1  0
 24 25  2  3
 24 28  1  0
 25 26  1  0
 26 27  1  0
 28 29  1  0
M  CHG  1  11   1
M  END
