
     RDKit          3D

 31 34  0  0  0  0  0  0  0  0999 V2000
    6.7960   -2.0910    1.2310 C   0  0  0  0  0  0  0  0  0  0  0  0
    5.7860   -1.3510    0.4340 C   0  0  0  0  0  0  0  0  0  0  0  0
    6.1160   -0.2700   -0.2440 C   0  0  0  0  0  0  0  0  0  0  0  0
    7.5140    0.1740   -0.1840 C   0  0  0  0  0  0  0  0  0  0  0  0
    7.8580    1.2260   -0.8380 N   0  0  0  0  0  0  0  0  0  0  0  0
    5.1600    0.3900   -0.9700 O   0  0  0  0  0  0  0  0  0  0  0  0
    3.8390   -0.0470   -1.2120 C   0  0  2  0  0  0  0  0  0  0  0  0
    2.9220    0.7840   -0.3630 C   0  0  0  0  0  0  0  0  0  0  0  0
    1.5340    0.4310   -0.5290 N   0  0  0  0  0  0  0  0  0  0  0  0
    0.5000    1.1120    0.2040 C   0  0  0  0  0  0  0  0  0  0  0  0
    0.8570    1.9810    0.9540 O   0  0  0  0  0  0  0  0  0  0  0  0
   -0.8730    0.7670    0.0450 N   0  0  0  0  0  0  0  0  0  0  0  0
   -1.9870    1.3370    0.6900 C   0  0  0  0  0  0  0  0  0  0  0  0
   -3.2330    0.9440    0.4710 C   0  0  0  0  0  0  0  0  0  0  0  0
   -4.3630    1.5680    1.1670 C   0  0  0  0  0  0  0  0  0  0  0  0
   -5.6230    1.2030    0.9750 C   0  0  0  0  0  0  0  0  0  0  0  0
   -6.6790    1.8570    1.6900 N   0  0  0  0  0  0  0  0  0  0  0  0
   -6.0120    0.1490    0.0590 C   0  0  0  0  0  0  0  0  0  0  0  0
   -4.8930   -0.4710   -0.6340 C   0  0  0  0  0  0  0  0  0  0  0  0
   -4.9450   -1.4640   -1.5360 N   0  0  0  0  0  0  0  0  0  0  0  0
   -3.7320   -1.7700   -1.9520 C   0  0  0  0  0  0  0  0  0  0  0  0
   -3.3540   -2.8040   -2.9390 C   0  0  0  0  0  0  0  0  0  0  0  0
   -2.8350   -0.9330   -1.2890 C   0  0  0  0  0  0  0  0  0  0  0  0
   -3.5380   -0.1220   -0.4680 C   0  0  0  0  0  0  0  0  0  0  0  0
   -4.1780    2.6500    2.1330 C   0  0  0  0  0  0  0  0  0  0  0  0
   -5.1680    3.1920    2.7400 O   0  0  0  0  0  0  0  0  0  0  0  0
   -2.8650    3.0640    2.3640 N   0  0  0  0  0  0  0  0  0  0  0  0
   -1.8050    2.4100    1.6480 C   0  0  0  0  0  0  0  0  0  0  0  0
   -0.6860    2.8920    1.9620 O   0  0  0  0  0  0  0  0  0  0  0  0
    3.6520   -1.4890   -0.7830 C   0  0  0  0  0  0  0  0  0  0  0  0
    4.4390   -1.7940    0.3800 N   0  0  0  0  0  0  0  0  0  0  0  0
  1  2  1  0
  2  3  2  0
  2 31  1  0
  3  4  1  0
  3  6  1  0
  4  5  2  0
  6  7  1  0
  7  8  1  1
  7 30  1  0
  8  9  1  0
  9 10  1  0
 10 11  2  0
 10 12  1  0
 12 13  1  0
 13 14  2  0
 13 28  1  0
 14 15  1  0
 14 24  1  0
 15 16  2  0
 15 25  1  0
 16 17  1  0
 16 18  1  0
 18 19  1  0
 19 20  1  0
 19 24  2  0
 20 21  1  0
 21 22  1  0
 21 23  2  0
 23 24  1  0
 25 26  2  0
 25 27  1  0
 27 28  1  0
 28 29  2  0
 30 31  1  0
M  END
