
     RDKit          3D

 31 34  0  0  0  0  0  0  0  0999 V2000
   -6.0990   -0.9930    1.8850 N   0  0  0  0  0  0  0  0  0  0  0  0
   -4.8430   -0.7790    1.7680 C   0  0  0  0  0  0  0  0  0  0  0  0
   -3.8090   -1.4770    2.3620 O   0  0  0  0  0  0  0  0  0  0  0  0
   -2.5520   -0.8380    2.0750 C   0  0  0  0  0  0  0  0  0  0  0  0
   -3.0560    0.5860    1.8050 C   0  0  1  0  0  0  0  0  0  0  0  0
   -2.0290    1.5480    1.4600 C   0  0  0  0  0  0  0  0  0  0  0  0
   -1.2210    1.3530    0.3060 N   0  0  0  0  0  0  0  0  0  0  0  0
   -0.0870    0.6490    0.3770 C   0  0  0  0  0  0  0  0  0  0  0  0
    0.2060    0.1680    1.5360 O   0  0  0  0  0  0  0  0  0  0  0  0
    0.7490    0.4260   -0.7010 C   0  0  0  0  0  0  0  0  0  0  0  0
    1.9170   -0.3440   -0.4600 N   0  0  0  0  0  0  0  0  0  0  0  0
    2.8970   -0.7000   -1.3670 C   0  0  0  0  0  0  0  0  0  0  0  0
    2.7310   -0.2700   -2.5760 O   0  0  0  0  0  0  0  0  0  0  0  0
    4.0750   -1.4950   -1.0870 C   0  0  0  0  0  0  0  0  0  0  0  0
    5.1170   -1.5680   -1.9940 N   0  0  0  0  0  0  0  0  0  0  0  0
    6.0690   -2.3720   -1.5400 C   0  0  0  0  0  0  0  0  0  0  0  0
    5.6510   -2.8370   -0.3200 C   0  0  0  0  0  0  0  0  0  0  0  0
    4.4120   -2.2730   -0.0730 N   0  0  0  0  0  0  0  0  0  0  0  0
    3.6840   -2.5810    1.1460 C   0  0  0  0  0  0  0  0  0  0  0  0
    4.0360   -1.6350    2.2230 C   0  0  0  0  0  0  0  0  0  0  0  0
    4.9820   -0.5770    2.0140 N   0  0  0  0  0  0  0  0  0  0  0  0
    3.5160   -1.7320    3.3520 O   0  0  0  0  0  0  0  0  0  0  0  0
    0.4060    0.9500   -1.9050 C   0  0  0  0  0  0  0  0  0  0  0  0
   -0.7720    1.6900   -2.0080 C   0  0  0  0  0  0  0  0  0  0  0  0
   -1.0830    2.2100   -3.2520 C   0  0  0  0  0  0  0  0  0  0  0  0
   -2.2360    2.9480   -3.3810 C   0  0  0  0  0  0  0  0  0  0  0  0
   -3.0610    3.1640   -2.3010 C   0  0  0  0  0  0  0  0  0  0  0  0
   -2.7070    2.6210   -1.0700 C   0  0  0  0  0  0  0  0  0  0  0  0
   -1.5560    1.8680   -0.8820 C   0  0  0  0  0  0  0  0  0  0  0  0
   -4.2080    0.2950    0.9460 C   0  0  1  0  0  0  0  0  0  0  0  0
   -3.9440   -0.3200   -0.3230 N   0  0  0  0  0  0  0  0  0  0  0  0
  1  2  2  0
  2  3  1  0
  2 30  1  0
  3  4  1  0
  4  5  1  0
  5  6  1  6
  5 30  1  0
  6  7  1  0
  7  8  1  0
  7 29  1  0
  8  9  2  0
  8 10  1  0
 10 11  1  0
 10 23  2  0
 11 12  1  0
 12 13  2  0
 12 14  1  0
 14 15  2  0
 14 18  1  0
 15 16  1  0
 16 17  2  0
 17 18  1  0
 18 19  1  0
 19 20  1  0
 20 21  1  0
 20 22  2  0
 23 24  1  0
 24 25  2  0
 24 29  1  0
 25 26  1  0
 26 27  2  0
 27 28  1  0
 28 29  2  0
 30 31  1  6
M  END
