
     RDKit          3D

 31 35  0  0  0  0  0  0  0  0999 V2000
   -1.9050   -3.7180   -0.4670 C   0  0  0  0  0  0  0  0  0  0  0  0
   -2.2440   -2.2750   -0.4320 C   0  0  0  0  0  0  0  0  0  0  0  0
   -3.4820   -1.9130   -0.3960 N   0  0  0  0  0  0  0  0  0  0  0  0
   -3.8180   -0.5530   -0.3630 N   0  0  0  0  0  0  0  0  0  0  0  0
   -2.9590    0.3740   -0.3640 C   0  0  0  0  0  0  0  0  0  0  0  0
   -3.4510    1.7240   -0.3290 N   0  0  0  0  0  0  0  0  0  0  0  0
   -4.6640    2.0950    0.3120 C   0  0  2  0  0  0  0  0  0  0  0  0
   -4.7470    1.8050    1.7940 C   0  0  0  0  0  0  0  0  0  0  0  0
   -5.4510    0.6290    1.4460 O   0  0  0  0  0  0  0  0  0  0  0  0
   -5.8300    1.1780    0.2300 C   0  0  0  0  0  0  0  0  0  0  0  0
   -1.4960    0.1310   -0.3900 C   0  0  1  0  0  0  0  0  0  0  0  0
   -1.1480   -1.3070   -0.4490 C   0  0  0  0  0  0  0  0  0  0  0  0
   -1.0110    0.7760   -1.5930 N   0  0  0  0  0  0  0  0  0  0  0  0
    0.0940    1.3560   -1.7730 C   0  0  0  0  0  0  0  0  0  0  0  0
    1.0250    1.4220   -0.7030 N   0  0  0  0  0  0  0  0  0  0  0  0
    0.6520    0.8230    0.5300 C   0  0  0  0  0  0  0  0  0  0  0  0
    1.5150    0.3140    1.3650 C   0  0  0  0  0  0  0  0  0  0  0  0
    2.9500    0.2500    1.2230 C   0  0  0  0  0  0  0  0  0  0  0  0
    3.7880    0.8670    2.1490 C   0  0  0  0  0  0  0  0  0  0  0  0
    5.1500    0.8110    2.0450 C   0  0  0  0  0  0  0  0  0  0  0  0
    5.7300    0.1320    1.0080 C   0  0  0  0  0  0  0  0  0  0  0  0
    4.9440   -0.5100    0.0470 C   0  0  0  0  0  0  0  0  0  0  0  0
    5.5500   -1.2080   -0.9820 C   0  0  0  0  0  0  0  0  0  0  0  0
    6.8070   -1.2250   -1.0320 O   0  0  0  0  0  0  0  0  0  0  0  0
    4.7700   -1.8290   -1.8690 N   0  0  0  0  0  0  0  0  0  0  0  0
    3.4350   -1.7650   -1.7480 C   0  0  0  0  0  0  0  0  0  0  0  0
    2.7600   -2.3800   -2.6270 O   0  0  0  0  0  0  0  0  0  0  0  0
    2.8530   -1.0850   -0.7460 N   0  0  0  0  0  0  0  0  0  0  0  0
    3.5620   -0.4300    0.1880 C   0  0  0  0  0  0  0  0  0  0  0  0
   -0.8250    0.8220    0.8000 C   0  0  1  0  0  0  0  0  0  0  0  0
   -1.2390    2.1380    0.8300 O   0  0  0  0  0  0  0  0  0  0  0  0
  1  2  1  0
  2  3  2  0
  2 12  1  0
  3  4  1  0
  4  5  2  0
  5  6  1  0
  5 11  1  0
  7  6  1  6
  7  8  1  0
  7 10  1  0
  8  9  1  0
  9 10  1  0
 11 12  1  6
 11 13  1  0
 11 30  1  0
 13 14  2  0
 14 15  1  0
 15 16  1  0
 16 17  2  3
 16 30  1  0
 17 18  1  0
 18 19  2  0
 18 29  1  0
 19 20  1  0
 20 21  2  0
 21 22  1  0
 22 23  1  0
 22 29  2  0
 23 24  2  0
 23 25  1  0
 25 26  1  0
 26 27  2  0
 26 28  1  0
 28 29  1  0
 30 31  1  6
M  END
