
     RDKit          3D

 31 34  0  0  0  0  0  0  0  0999 V2000
    7.0460    1.3970   -1.7180 C   0  0  0  0  0  0  0  0  0  0  0  0
    5.9340    0.3780   -1.5970 C   0  0  0  0  0  0  0  0  0  0  0  0
    6.4750   -0.7760   -0.7480 C   0  0  0  0  0  0  0  0  0  0  0  0
    5.4240   -1.8520   -0.5730 C   0  0  1  0  0  0  0  0  0  0  0  0
    6.0470   -2.9420    0.2730 C   0  0  0  0  0  0  0  0  0  0  0  0
    4.2650   -1.2420    0.1430 C   0  0  0  0  0  0  0  0  0  0  0  0
    3.0010   -1.1830   -0.3220 N   0  0  0  0  0  0  0  0  0  0  0  0
    2.2180   -0.5710    0.5740 C   0  0  0  0  0  0  0  0  0  0  0  0
    0.8480   -0.2660    0.5640 C   0  0  0  0  0  0  0  0  0  0  0  0
    0.2930    0.3790    1.6350 C   0  0  0  0  0  0  0  0  0  0  0  0
   -1.0630    0.7210    1.7090 N   0  0  0  0  0  0  0  0  0  0  0  0
   -2.0890    0.4980    0.7710 C   0  0  0  0  0  0  0  0  0  0  0  0
   -1.7790   -0.0850   -0.2850 O   0  0  0  0  0  0  0  0  0  0  0  0
   -3.4140    0.9320    1.0490 N   0  0  0  0  0  0  0  0  0  0  0  0
   -4.4660    0.7320    0.1320 C   0  0  0  0  0  0  0  0  0  0  0  0
   -4.3620    0.4050   -1.1760 C   0  0  0  0  0  0  0  0  0  0  0  0
   -5.4780    0.2100   -1.9910 C   0  0  0  0  0  0  0  0  0  0  0  0
   -6.7380    0.3500   -1.4690 C   0  0  0  0  0  0  0  0  0  0  0  0
   -7.8510    0.1670   -2.2340 N   0  0  0  0  0  0  0  0  0  0  0  0
   -9.0760    0.3060   -1.7150 C   0  0  0  0  0  0  0  0  0  0  0  0
  -10.1070    0.1360   -2.4260 O   0  0  0  0  0  0  0  0  0  0  0  0
   -9.1880    0.6310   -0.4150 N   0  0  0  0  0  0  0  0  0  0  0  0
   -8.1320    0.8200    0.3730 C   0  0  0  0  0  0  0  0  0  0  0  0
   -8.2770    1.1200    1.5710 O   0  0  0  0  0  0  0  0  0  0  0  0
   -6.8440    0.6800   -0.1490 C   0  0  0  0  0  0  0  0  0  0  0  0
   -5.7530    0.8710    0.6490 C   0  0  0  0  0  0  0  0  0  0  0  0
    1.1480    0.7010    2.6960 C   0  0  0  0  0  0  0  0  0  0  0  0
    0.6220    1.3010    3.6880 O   0  0  0  0  0  0  0  0  0  0  0  0
    2.4500    0.4180    2.7180 N   0  0  0  0  0  0  0  0  0  0  0  0
    3.0030   -0.2260    1.6490 C   0  0  0  0  0  0  0  0  0  0  0  0
    4.2420   -0.6530    1.3460 N   0  0  0  0  0  0  0  0  0  0  0  0
  1  2  1  0
  2  3  1  0
  3  4  1  0
  4  5  1  1
  4  6  1  0
  6  7  2  0
  6 31  1  0
  7  8  1  0
  8  9  1  0
  8 30  2  0
  9 10  2  0
 10 11  1  0
 10 27  1  0
 11 12  1  0
 12 13  2  0
 12 14  1  0
 14 15  1  0
 15 16  2  0
 15 26  1  0
 16 17  1  0
 17 18  2  0
 18 19  1  0
 18 25  1  0
 19 20  1  0
 20 21  2  0
 20 22  1  0
 22 23  1  0
 23 24  2  0
 23 25  1  0
 25 26  2  0
 27 28  2  0
 27 29  1  0
 29 30  1  0
 30 31  1  0
M  END
