
     RDKit          3D

 31 33  0  0  0  0  0  0  0  0999 V2000
   -7.9110   -1.0010    0.7740 C   0  0  0  0  0  0  0  0  0  0  0  0
   -7.6160   -0.0140   -0.3040 C   0  0  1  0  0  0  0  0  0  0  0  0
   -8.8860    0.5480   -0.7520 N   0  0  0  0  0  0  0  0  0  0  0  0
   -6.7460    1.1460    0.1610 C   0  0  1  0  0  0  0  0  0  0  0  0
   -7.4450    1.8780    1.2700 C   0  0  0  0  0  0  0  0  0  0  0  0
   -5.3780    0.6990    0.5190 C   0  0  0  0  0  0  0  0  0  0  0  0
   -5.0720   -0.0950    1.5850 C   0  0  0  0  0  0  0  0  0  0  0  0
   -3.7090   -0.2940    1.5860 C   0  0  0  0  0  0  0  0  0  0  0  0
   -3.1950    0.3890    0.5080 C   0  0  0  0  0  0  0  0  0  0  0  0
   -1.8000    0.4880    0.0790 C   0  0  0  0  0  0  0  0  0  0  0  0
   -1.5380    1.1570   -0.9330 O   0  0  0  0  0  0  0  0  0  0  0  0
   -0.8110   -0.1700    0.8160 N   0  0  0  0  0  0  0  0  0  0  0  0
    0.5680   -0.1690    0.5370 C   0  0  0  0  0  0  0  0  0  0  0  0
    1.1910    0.5990   -0.4050 C   0  0  0  0  0  0  0  0  0  0  0  0
    2.5690    0.5490   -0.6490 C   0  0  0  0  0  0  0  0  0  0  0  0
    3.3760   -0.2720    0.0400 C   0  0  0  0  0  0  0  0  0  0  0  0
    4.7870   -0.4120   -0.1140 N   0  0  0  0  0  0  0  0  0  0  0  0
    5.6050    0.3080   -1.0070 C   0  0  0  0  0  0  0  0  0  0  0  0
    5.1020    1.1620   -1.7580 O   0  0  0  0  0  0  0  0  0  0  0  0
    7.0430    0.0800   -1.0790 C   0  0  0  0  0  0  0  0  0  0  0  0
    7.6580   -0.8280   -0.3050 N   0  0  0  0  0  0  0  0  0  0  0  0
    8.9530   -1.0590   -0.3440 N   0  0  0  0  0  0  0  0  0  0  0  0
    9.5940   -2.0550    0.5130 C   0  0  0  0  0  0  0  0  0  0  0  0
    9.7050   -0.3350   -1.2180 C   0  0  0  0  0  0  0  0  0  0  0  0
   10.9530   -0.5920   -1.2210 O   0  0  0  0  0  0  0  0  0  0  0  0
    9.1620    0.5920   -2.0260 N   0  0  0  0  0  0  0  0  0  0  0  0
    7.8360    0.7940   -1.9520 C   0  0  0  0  0  0  0  0  0  0  0  0
    7.2950    1.6690   -2.7090 O   0  0  0  0  0  0  0  0  0  0  0  0
    2.7670   -1.0740    1.0150 C   0  0  0  0  0  0  0  0  0  0  0  0
    1.4210   -1.0270    1.2550 C   0  0  0  0  0  0  0  0  0  0  0  0
   -4.2140    0.9840   -0.1270 N   0  0  0  0  0  0  0  0  0  0  0  0
  2  1  1  1
  2  3  1  0
  2  4  1  0
  4  5  1  1
  4  6  1  0
  6  7  2  0
  6 31  1  0
  7  8  1  0
  8  9  2  0
  9 10  1  0
  9 31  1  0
 10 11  2  0
 10 12  1  0
 12 13  1  0
 13 14  2  0
 13 30  1  0
 14 15  1  0
 15 16  2  0
 16 17  1  0
 16 29  1  0
 17 18  1  0
 18 19  2  0
 18 20  1  0
 20 21  2  0
 20 27  1  0
 21 22  1  0
 22 23  1  0
 22 24  1  0
 24 25  2  0
 24 26  1  0
 26 27  1  0
 27 28  2  0
 29 30  2  0
M  END
