
     RDKit          3D

 31 34  0  0  0  0  0  0  0  0999 V2000
   -6.5400    1.3760   -1.1920 C   0  0  0  0  0  0  0  0  0  0  0  0
   -6.3850   -0.0980   -1.3990 C   0  0  0  0  0  0  0  0  0  0  0  0
   -5.1270   -0.6920   -0.8080 C   0  0  2  0  0  0  0  0  0  0  0  0
   -5.0800   -2.1850   -1.1310 C   0  0  0  0  0  0  0  0  0  0  0  0
   -5.2510   -2.8540    0.1390 N   0  0  0  0  0  0  0  0  0  0  0  0
   -4.9770   -1.9690    1.2080 C   0  0  0  0  0  0  0  0  0  0  0  0
   -4.7360   -2.3000    2.3790 O   0  0  0  0  0  0  0  0  0  0  0  0
   -5.0280   -0.6050    0.6820 C   0  0  1  0  0  0  0  0  0  0  0  0
   -3.7430    0.0510    1.0220 N   0  0  0  0  0  0  0  0  0  0  0  0
   -3.7620    1.3530    1.5850 C   0  0  0  0  0  0  0  0  0  0  0  0
   -4.9390    1.8280    1.7320 O   0  0  0  0  0  0  0  0  0  0  0  0
   -2.6780    2.1930    1.9910 C   0  0  0  0  0  0  0  0  0  0  0  0
   -1.3570    1.8280    1.9410 N   0  0  0  0  0  0  0  0  0  0  0  0
   -0.5980    1.3650    0.7460 C   0  0  0  0  0  0  0  0  0  0  0  0
   -1.2040    1.2450   -0.2930 O   0  0  0  0  0  0  0  0  0  0  0  0
    0.7460    1.1520    1.1340 N   0  0  0  0  0  0  0  0  0  0  0  0
    1.3600    0.5440   -0.3920 C   0  0  0  0  0  0  0  0  0  0  0  0
    0.4970    0.3380   -1.1410 O   0  0  0  0  0  0  0  0  0  0  0  0
    2.7850    0.4470   -0.3420 C   0  0  0  0  0  0  0  0  0  0  0  0
    3.5420    1.4060    0.2790 N   0  0  0  0  0  0  0  0  0  0  0  0
    4.8190    1.1110    0.2540 C   0  0  0  0  0  0  0  0  0  0  0  0
    6.0090    1.6050    0.6630 N   0  0  0  0  0  0  0  0  0  0  0  0
    6.9700    0.7400    0.2840 C   0  0  0  0  0  0  0  0  0  0  0  0
    8.3430    0.7350    0.4480 C   0  0  0  0  0  0  0  0  0  0  0  0
    9.0800   -0.3030   -0.0360 C   0  0  0  0  0  0  0  0  0  0  0  0
    8.3980   -1.3450   -0.6990 C   0  0  0  0  0  0  0  0  0  0  0  0
    7.0410   -1.3340   -0.8560 C   0  0  0  0  0  0  0  0  0  0  0  0
    6.2950   -0.2950   -0.3710 C   0  0  0  0  0  0  0  0  0  0  0  0
    4.9650   -0.0520   -0.3830 N   0  0  0  0  0  0  0  0  0  0  0  0
    3.7160   -0.4670   -0.7530 C   0  0  0  0  0  0  0  0  0  0  0  0
    3.4160   -1.7110   -1.4670 C   0  0  0  0  0  0  0  0  0  0  0  0
  1  2  1  0
  3  2  1  1
  3  4  1  0
  3  8  1  0
  4  5  1  0
  5  6  1  0
  6  7  2  0
  6  8  1  0
  8  9  1  6
  9 10  1  0
 10 11  2  0
 10 12  1  0
 12 13  1  0
 13 14  1  0
 14 15  2  0
 14 16  1  0
 16 17  1  0
 17 18  2  0
 17 19  1  0
 19 20  1  0
 19 30  2  0
 20 21  2  0
 21 22  1  0
 21 29  1  0
 22 23  1  0
 23 24  2  0
 23 28  1  0
 24 25  1  0
 25 26  2  0
 26 27  1  0
 27 28  2  0
 28 29  1  0
 29 30  1  0
 30 31  1  0
M  END
