
     RDKit          3D

 25 26  0  0  0  0  0  0  0  0999 V2000
    2.4360   -1.2310   -1.8550 O   0  0  0  0  0  0  0  0  0  0  0  0
    2.3830   -0.2410   -1.0430 C   0  0  0  0  0  0  0  0  0  0  0  0
    3.6160    0.1180   -0.3760 C   0  0  0  0  0  0  0  0  0  0  0  0
    4.7700   -0.6200   -0.6490 C   0  0  0  0  0  0  0  0  0  0  0  0
    5.9840   -0.3690   -0.0780 C   0  0  0  0  0  0  0  0  0  0  0  0
    6.1260    0.6580    0.8230 C   0  0  0  0  0  0  0  0  0  0  0  0
    5.0120    1.4030    1.1150 C   0  0  0  0  0  0  0  0  0  0  0  0
    3.7710    1.1390    0.5240 C   0  0  0  0  0  0  0  0  0  0  0  0
    1.1450    0.3760   -0.8950 N   0  0  0  0  0  0  0  0  0  0  0  0
    0.9610    1.4160   -0.0800 O   0  0  0  0  0  0  0  0  0  0  0  0
   -0.0200   -0.0790   -1.6280 C   0  0  0  0  0  0  0  0  0  0  0  0
   -0.8280   -1.1180   -0.9590 C   0  0  0  0  0  0  0  0  0  0  0  0
   -1.4300   -0.7340    0.3710 C   0  0  1  0  0  0  0  0  0  0  0  0
   -2.3400    0.4360    0.1550 C   0  0  0  0  0  0  0  0  0  0  0  0
   -2.1550    1.6710    0.7320 C   0  0  0  0  0  0  0  0  0  0  0  0
   -3.0290    2.7190    0.4930 C   0  0  0  0  0  0  0  0  0  0  0  0
   -4.1070    2.5260   -0.3400 C   0  0  0  0  0  0  0  0  0  0  0  0
   -5.1990    3.8850   -0.6210 Cl  0  0  0  0  0  0  0  0  0  0  0  0
   -4.3210    1.3150   -0.9290 C   0  0  0  0  0  0  0  0  0  0  0  0
   -5.6810    1.0420   -1.9890 Cl  0  0  0  0  0  0  0  0  0  0  0  0
   -3.4470    0.2840   -0.6830 C   0  0  0  0  0  0  0  0  0  0  0  0
   -2.3440   -1.9390    1.2230 P   0  0  0  0  0  0  0  0  0  0  0  0
   -2.4160   -3.0040    0.1390 O   0  0  0  0  0  0  0  0  0  0  0  0
   -4.0030   -1.8440    1.2510 O   0  0  0  0  0  0  0  0  0  0  0  0
   -1.5520   -3.0330    2.2200 O   0  0  0  0  0  0  0  0  0  0  0  0
  1  2  2  0
  2  3  1  0
  2  9  1  0
  3  4  2  0
  3  8  1  0
  4  5  1  0
  5  6  2  0
  6  7  1  0
  7  8  2  0
  9 10  1  0
  9 11  1  0
 11 12  1  0
 13 12  1  6
 13 14  1  0
 13 22  1  0
 14 15  2  0
 14 21  1  0
 15 16  1  0
 16 17  2  0
 17 18  1  0
 17 19  1  0
 19 20  1  0
 19 21  2  0
 22 23  1  0
 22 24  1  0
 22 25  1  0
M  END
