
     RDKit          3D

 25 26  0  0  0  0  0  0  0  0999 V2000
    3.4840   -2.7370   -0.0060 C   0  0  0  0  0  0  0  0  0  0  0  0
    3.0720   -2.5860    1.3150 O   0  0  0  0  0  0  0  0  0  0  0  0
    3.4000   -1.3330    1.7620 C   0  0  0  0  0  0  0  0  0  0  0  0
    2.7840   -0.2230    0.9940 C   0  0  0  0  0  0  0  0  0  0  0  0
    3.4120    0.3820   -0.0980 C   0  0  0  0  0  0  0  0  0  0  0  0
    2.8330    1.4000   -0.7930 C   0  0  0  0  0  0  0  0  0  0  0  0
    1.5830    1.8360   -0.3920 C   0  0  0  0  0  0  0  0  0  0  0  0
    0.9260    1.2480    0.7030 C   0  0  0  0  0  0  0  0  0  0  0  0
   -0.3350    1.7460    1.1000 N   0  0  0  0  0  0  0  0  0  0  0  0
   -1.1460    1.2320    2.1680 C   0  0  0  0  0  0  0  0  0  0  0  0
   -1.8990    0.0150    1.7240 C   0  0  1  0  0  0  0  0  0  0  0  0
   -2.7650    0.4600    0.5450 C   0  0  0  0  0  0  0  0  0  0  0  0
   -3.5130   -0.6080    0.0530 O   0  0  0  0  0  0  0  0  0  0  0  0
   -4.3030   -0.2360   -1.0110 C   0  0  0  0  0  0  0  0  0  0  0  0
   -5.0840   -1.4500   -1.4890 C   0  0  0  0  0  0  0  0  0  0  0  0
   -4.2260   -2.4700   -1.8960 O   0  0  0  0  0  0  0  0  0  0  0  0
   -0.7860   -1.3640    1.3330 P   0  0  0  0  0  0  0  0  0  0  0  0
   -0.4680   -2.4000    2.6830 O   0  0  0  0  0  0  0  0  0  0  0  0
   -1.2880   -2.2680   -0.0620 O   0  0  0  0  0  0  0  0  0  0  0  0
    1.5810    0.2530    1.3200 N   0  0  0  0  0  0  0  0  0  0  0  0
    0.9530    2.8730   -1.0710 O   0  0  0  0  0  0  0  0  0  0  0  0
    1.2780    3.0520   -2.4520 C   0  0  0  0  0  0  0  0  0  0  0  0
    2.7600    3.0760   -2.5500 C   0  0  0  0  0  0  0  0  0  0  0  0
    3.3860    3.9940   -3.1830 O   0  0  0  0  0  0  0  0  0  0  0  0
    3.4640    2.0220   -1.9050 N   0  0  0  0  0  0  0  0  0  0  0  0
  1  2  1  0
  2  3  1  0
  3  4  1  0
  4  5  2  0
  4 20  1  0
  5  6  1  0
  6  7  2  0
  6 25  1  0
  7  8  1  0
  7 21  1  0
  8  9  1  0
  8 20  2  0
  9 10  1  0
 11 10  1  6
 11 12  1  0
 11 17  1  0
 12 13  1  0
 13 14  1  0
 14 15  1  0
 15 16  1  0
 17 18  1  0
 17 19  1  0
 21 22  1  0
 22 23  1  0
 23 24  2  0
 23 25  1  0
M  END
