
     RDKit          3D

 24 24  0  0  0  0  0  0  0  0999 V2000
    5.8790    2.7460    0.0690 N   0  0  0  0  0  0  0  0  0  0  0  0
    4.9460    2.4860    1.1100 C   0  0  0  0  0  0  0  0  0  0  0  0
    4.9420    3.2580    2.1040 O   0  0  0  0  0  0  0  0  0  0  0  0
    4.0130    1.3170    0.9880 C   0  0  0  0  0  0  0  0  0  0  0  0
    4.2730    0.6640   -0.2440 N   0  0  0  0  0  0  0  0  0  0  0  0
    3.5050   -0.4990   -0.5460 C   0  0  1  0  0  0  0  0  0  0  0  0
    3.8030   -0.7910   -2.0320 C   0  0  0  0  0  0  0  0  0  0  0  0
    3.1110   -1.9060   -2.4570 O   0  0  0  0  0  0  0  0  0  0  0  0
    4.0470   -1.7060    0.1880 C   0  0  0  0  0  0  0  0  0  0  0  0
    4.0520   -1.5990    1.5510 O   0  0  0  0  0  0  0  0  0  0  0  0
    2.0550   -0.3620   -0.4300 C   0  0  0  0  0  0  0  0  0  0  0  0
    1.2940   -1.1290    0.4620 C   0  0  0  0  0  0  0  0  0  0  0  0
   -0.0680   -0.9920    0.5590 C   0  0  0  0  0  0  0  0  0  0  0  0
   -0.7370   -0.0760   -0.2360 C   0  0  0  0  0  0  0  0  0  0  0  0
   -2.1270    0.0720   -0.1440 O   0  0  0  0  0  0  0  0  0  0  0  0
   -2.8260   -0.7370    0.7830 C   0  0  0  0  0  0  0  0  0  0  0  0
   -4.3120   -0.4860    0.7920 C   0  0  0  0  0  0  0  0  0  0  0  0
   -4.9160   -0.7540   -0.5490 C   0  0  0  0  0  0  0  0  0  0  0  0
   -6.4150   -0.5170   -0.5600 C   0  0  0  0  0  0  0  0  0  0  0  0
   -6.8390    1.2190   -0.1250 P   0  0  0  0  0  0  0  0  0  0  0  0
   -8.2020    1.8150   -1.0280 O   0  0  0  0  0  0  0  0  0  0  0  0
   -7.0360    1.4520    1.5780 O   0  0  0  0  0  0  0  0  0  0  0  0
    0.0220    0.6600   -1.0970 C   0  0  0  0  0  0  0  0  0  0  0  0
    1.3560    0.5110   -1.1770 N   0  0  0  0  0  0  0  0  0  0  0  0
  1  2  1  0
  2  3  2  0
  2  4  1  0
  4  5  1  0
  5  6  1  0
  6  7  1  6
  6  9  1  0
  6 11  1  0
  7  8  1  0
  9 10  1  0
 11 12  2  0
 11 24  1  0
 12 13  1  0
 13 14  2  0
 14 15  1  0
 14 23  1  0
 15 16  1  0
 16 17  1  0
 17 18  1  0
 18 19  1  0
 19 20  1  0
 20 21  1  0
 20 22  1  0
 23 24  2  0
M  END
