
     RDKit          3D

 14 13  0  0  0  0  0  0  0  0999 V2000
    0.7380   -4.4620   -0.4550 O   0  0  0  0  0  0  0  0  0  0  0  0
    0.2240   -3.1760    0.2470 P   0  0  0  0  0  0  0  0  0  0  0  0
    0.4100   -1.1780   -0.4230 P   0  0  0  0  0  0  0  0  0  0  0  0
   -0.7170   -0.5610   -1.6790 C   0  0  0  0  0  0  0  0  0  0  0  0
   -1.6500    0.5230   -1.1230 C   0  0  0  0  0  0  0  0  0  0  0  0
   -2.3800   -0.0550   -0.0850 O   0  0  0  0  0  0  0  0  0  0  0  0
   -3.3280    0.6150    0.6620 C   0  0  0  0  0  0  0  0  0  0  0  0
   -3.5450    1.8210    0.3870 O   0  0  0  0  0  0  0  0  0  0  0  0
   -4.0500    0.0230    1.6970 O   0  0  0  0  0  0  0  0  0  0  0  0
    2.0070   -0.3550   -0.2490 C   0  0  0  0  0  0  0  0  0  0  0  0
    2.0890    0.3530    0.9780 O   0  0  0  0  0  0  0  0  0  0  0  0
    3.2410    1.0530    1.2970 C   0  0  0  0  0  0  0  0  0  0  0  0
    4.2000    1.0360    0.4680 O   0  0  0  0  0  0  0  0  0  0  0  0
    3.3860    1.7580    2.4660 O   0  0  0  0  0  0  0  0  0  0  0  0
  1  2  2  0
  2  3  1  0
  3  4  1  0
  3 10  1  0
  4  5  1  0
  5  6  1  0
  6  7  1  0
  7  8  2  0
  7  9  1  0
 10 11  1  0
 11 12  1  0
 12 13  2  0
 12 14  1  0
M  END
