
     RDKit          3D

 13 12  0  0  0  0  0  0  0  0999 V2000
    0.4060   -4.1940    1.1530 O   0  0  0  0  0  0  0  0  0  0  0  0
   -0.2090   -3.4010   -0.0370 P   0  0  0  0  0  0  0  0  0  0  0  0
   -0.6760   -1.2910    0.1900 P   0  0  0  0  0  0  0  0  0  0  0  0
   -2.2990   -0.9210   -0.5520 C   0  0  0  0  0  0  0  0  0  0  0  0
   -2.6810    0.5350   -0.4810 C   0  0  0  0  0  0  0  0  0  0  0  0
   -2.7330    0.9340    0.8740 O   0  0  0  0  0  0  0  0  0  0  0  0
   -3.0600    2.1870    0.9830 O   0  0  0  0  0  0  0  0  0  0  0  0
    0.6780   -0.1700   -0.3160 C   0  0  0  0  0  0  0  0  0  0  0  0
    1.5810    0.0770    0.8750 C   0  0  0  0  0  0  0  0  0  0  0  0
    2.6470    0.9240    0.5820 O   0  0  0  0  0  0  0  0  0  0  0  0
    3.6220    0.6970   -0.3640 C   0  0  0  0  0  0  0  0  0  0  0  0
    3.5740   -0.3480   -1.0290 O   0  0  0  0  0  0  0  0  0  0  0  0
    4.6070    1.6670   -0.5090 O   0  0  0  0  0  0  0  0  0  0  0  0
  1  2  2  0
  2  3  1  0
  3  4  1  0
  3  8  1  0
  4  5  1  0
  5  6  1  0
  6  7  1  0
  8  9  1  0
  9 10  1  0
 10 11  1  0
 11 12  2  0
 11 13  1  0
M  END
