
     RDKit          3D

 14 13  0  0  0  0  0  0  0  0999 V2000
   -0.5520    0.0600    4.5420 O   0  0  0  0  0  0  0  0  0  0  0  0
   -1.7180    0.3270    3.5470 P   0  0  0  0  0  0  0  0  0  0  0  0
   -1.6710   -0.5470    1.5040 P   0  0  0  0  0  0  0  0  0  0  0  0
   -0.2450    0.1450    0.6770 C   0  0  0  0  0  0  0  0  0  0  0  0
    0.0030   -0.4400   -0.7350 C   0  0  0  0  0  0  0  0  0  0  0  0
    1.3240    0.3040   -1.1210 C   0  0  0  0  0  0  0  0  0  0  0  0
    1.8820   -0.3500   -2.2720 O   0  0  0  0  0  0  0  0  0  0  0  0
    3.0930   -0.6830   -1.7620 O   0  0  0  0  0  0  0  0  0  0  0  0
    3.9380    0.0020   -0.9700 C   0  0  0  0  0  0  0  0  0  0  0  0
    3.7340    1.1880   -0.5610 O   0  0  0  0  0  0  0  0  0  0  0  0
    5.1700   -0.5430   -0.4750 O   0  0  0  0  0  0  0  0  0  0  0  0
   -3.2540    0.0360    0.6840 C   0  0  0  0  0  0  0  0  0  0  0  0
   -3.4890   -0.7670   -0.4400 O   0  0  0  0  0  0  0  0  0  0  0  0
   -4.6240   -0.3360   -1.0300 O   0  0  0  0  0  0  0  0  0  0  0  0
  1  2  2  0
  2  3  1  0
  3  4  1  0
  3 12  1  0
  4  5  1  0
  5  6  1  0
  6  7  1  0
  7  8  1  0
  8  9  1  0
  9 10  2  0
  9 11  1  0
 12 13  1  0
 13 14  1  0
M  END
