
     RDKit          3D

 14 13  0  0  0  0  0  0  0  0999 V2000
    4.6420   -0.2840   -0.5710 O   0  0  0  0  0  0  0  0  0  0  0  0
    4.3030    0.4610    0.3650 C   0  0  0  0  0  0  0  0  0  0  0  0
    5.3170    1.1180    1.0580 O   0  0  0  0  0  0  0  0  0  0  0  0
    2.9690    0.6040    0.6720 O   0  0  0  0  0  0  0  0  0  0  0  0
    1.9280   -0.0740   -0.0430 C   0  0  0  0  0  0  0  0  0  0  0  0
    0.6330    0.3320    0.5770 C   0  0  0  0  0  0  0  0  0  0  0  0
   -0.8500   -0.4070   -0.1670 P   0  0  0  0  0  0  0  0  0  0  0  0
   -2.2940    0.7420   -0.1420 C   0  0  0  0  0  0  0  0  0  0  0  0
   -2.9160    0.6780    1.2350 C   0  0  0  0  0  0  0  0  0  0  0  0
   -3.3120   -0.6500    1.4340 O   0  0  0  0  0  0  0  0  0  0  0  0
   -3.8620   -0.7540    2.6250 O   0  0  0  0  0  0  0  0  0  0  0  0
   -0.5990   -1.3510   -2.0700 P   0  0  0  0  0  0  0  0  0  0  0  0
    0.9780   -1.5010   -2.6610 O   0  0  0  0  0  0  0  0  0  0  0  0
   -1.7670   -0.8580   -3.2210 O   0  0  0  0  0  0  0  0  0  0  0  0
  1  2  2  0
  2  3  1  0
  2  4  1  0
  4  5  1  0
  5  6  1  0
  6  7  1  0
  7  8  1  0
  7 12  1  0
  8  9  1  0
  9 10  1  0
 10 11  1  0
 12 13  1  0
 12 14  1  0
M  END
