
     RDKit          3D

 14 13  0  0  0  0  0  0  0  0999 V2000
    1.0710   -4.0940    0.6380 O   0  0  0  0  0  0  0  0  0  0  0  0
    0.7100   -2.7340    1.3110 P   0  0  0  0  0  0  0  0  0  0  0  0
    1.0110   -1.1100    0.4310 C   0  0  1  0  0  0  0  0  0  0  0  0
    2.4400   -1.0630   -0.0570 C   0  0  0  0  0  0  0  0  0  0  0  0
    2.7020    0.1360   -0.7220 O   0  0  0  0  0  0  0  0  0  0  0  0
    2.5890    1.3620   -0.0870 C   0  0  0  0  0  0  0  0  0  0  0  0
    2.2490    1.4870    1.1150 O   0  0  0  0  0  0  0  0  0  0  0  0
    2.8520    2.5700   -0.7580 O   0  0  0  0  0  0  0  0  0  0  0  0
   -0.1070   -0.9370   -1.0370 P   0  0  0  0  0  0  0  0  0  0  0  0
   -1.2630   -2.2320   -0.9870 O   0  0  0  0  0  0  0  0  0  0  0  0
   -0.9940    0.5470   -0.8600 O   0  0  0  0  0  0  0  0  0  0  0  0
   -2.0500    0.2660    0.0000 C   0  0  0  0  0  0  0  0  0  0  0  0
   -2.9210    1.4710    0.2530 C   0  0  0  0  0  0  0  0  0  0  0  0
   -3.4900    1.9780   -0.8870 O   0  0  0  0  0  0  0  0  0  0  0  0
  1  2  2  0
  2  3  1  0
  3  4  1  6
  3  9  1  0
  4  5  1  0
  5  6  1  0
  6  7  2  0
  6  8  1  0
  9 10  1  0
  9 11  1  0
 11 12  1  0
 12 13  1  0
 13 14  1  0
M  END
