
     RDKit          3D

 31 32  0  0  0  0  0  0  0  0999 V2000
   -6.4870    1.0080    0.3370 C   0  0  0  0  0  0  0  0  0  0  0  0
   -5.5280    0.9110   -0.5940 C   0  0  0  0  0  0  0  0  0  0  0  0
   -5.8970    1.4160   -1.8640 O   0  0  0  0  0  0  0  0  0  0  0  0
   -4.2470    0.3520   -0.3380 C   0  0  0  0  0  0  0  0  0  0  0  0
   -3.5680    0.2820    0.9160 C   0  0  0  0  0  0  0  0  0  0  0  0
   -3.4700   -0.3660   -1.6530 S   0  0  2  0  0  0  0  0  0  0  0  0
   -4.1550   -1.9120   -1.3170 C   0  0  0  0  0  0  0  0  0  0  0  0
   -3.3630   -2.4330   -0.3100 N   0  0  0  0  0  0  0  0  0  0  0  0
   -3.8070   -3.4700    0.5470 C   0  0  0  0  0  0  0  0  0  0  0  0
   -3.0570   -3.9060    1.4400 O   0  0  0  0  0  0  0  0  0  0  0  0
   -5.3940   -4.1930    0.4140 Cl  0  0  0  0  0  0  0  0  0  0  0  0
   -2.0520   -1.8310   -0.2120 C   0  0  0  0  0  0  0  0  0  0  0  0
   -1.2060   -2.1840    0.6460 N   0  0  0  0  0  0  0  0  0  0  0  0
    0.0640   -1.7580    0.9120 C   0  0  0  0  0  0  0  0  0  0  0  0
    0.8070   -2.3610    1.9530 C   0  0  0  0  0  0  0  0  0  0  0  0
    2.0700   -1.9280    2.2070 C   0  0  0  0  0  0  0  0  0  0  0  0
    2.6860   -0.8950    1.4780 C   0  0  0  0  0  0  0  0  0  0  0  0
    3.9400   -0.5660    1.8380 O   0  0  0  0  0  0  0  0  0  0  0  0
    4.8510    0.3580    1.3510 C   0  0  0  0  0  0  0  0  0  0  0  0
    5.2550    0.0510   -0.0490 C   0  0  0  0  0  0  0  0  0  0  0  0
    6.2430    1.0600   -0.6050 C   0  0  0  0  0  0  0  0  0  0  0  0
    5.5410    2.7610   -0.6210 P   0  0  0  0  0  0  0  0  0  0  0  0
    6.5100    3.7340   -1.7090 O   0  0  0  0  0  0  0  0  0  0  0  0
    5.6660    3.5170    0.9510 O   0  0  0  0  0  0  0  0  0  0  0  0
    1.9150   -0.3450    0.4770 C   0  0  0  0  0  0  0  0  0  0  0  0
    0.6840   -0.7870    0.2490 N   0  0  0  0  0  0  0  0  0  0  0  0
   -1.8950   -0.8240   -1.2070 N   0  0  0  0  0  0  0  0  0  0  0  0
   -0.7540   -0.2790   -1.7810 N   0  0  0  0  0  0  0  0  0  0  0  0
   -0.6230    0.9410   -2.0700 N   0  0  0  0  0  0  0  0  0  0  0  0
   -1.5750    1.9230   -1.8690 N   0  0  0  0  0  0  0  0  0  0  0  0
   -1.3440    3.0830   -0.5920 Cl  0  0  0  0  0  0  0  0  0  0  0  0
  1  2  2  0
  2  3  1  0
  2  4  1  0
  4  5  1  0
  4  6  2  0
  6  7  2  0
  6 27  1  1
  7  8  1  0
  8  9  1  0
  8 12  1  0
  9 10  2  0
  9 11  1  0
 12 13  2  3
 12 27  1  0
 13 14  1  0
 14 15  2  0
 14 26  1  0
 15 16  1  0
 16 17  2  0
 17 18  1  0
 17 25  1  0
 18 19  1  0
 19 20  1  0
 20 21  1  0
 21 22  1  0
 22 23  1  0
 22 24  1  0
 25 26  2  0
 27 28  1  0
 28 29  2  3
 29 30  1  0
 30 31  1  0
M  END
