
     RDKit          3D

 31 33  0  0  0  0  0  0  0  0999 V2000
    5.3390    0.0030   -1.1870 C   0  0  0  0  0  0  0  0  0  0  0  0
    4.5320    0.8950   -1.7160 C   0  0  0  0  0  0  0  0  0  0  0  0
    3.2310    1.1020   -1.2200 N   0  0  0  0  0  0  0  0  0  0  0  0
    2.4050    0.1120   -1.0430 C   0  0  0  0  0  0  0  0  0  0  0  0
    2.8710   -1.1650   -1.3680 N   0  0  0  0  0  0  0  0  0  0  0  0
    2.5080   -1.7090   -2.4120 O   0  0  0  0  0  0  0  0  0  0  0  0
    1.0420    0.3750   -0.6410 C   0  0  0  0  0  0  0  0  0  0  0  0
    0.6230    1.6540   -0.5390 C   0  0  0  0  0  0  0  0  0  0  0  0
    1.7590    2.9440   -0.8750 Cl  0  0  0  0  0  0  0  0  0  0  0  0
   -0.7770    1.9640   -0.3490 C   0  0  0  0  0  0  0  0  0  0  0  0
   -1.1370    3.2320   -0.2450 C   0  0  0  0  0  0  0  0  0  0  0  0
   -0.2180    4.3080   -0.3110 N   0  0  0  0  0  0  0  0  0  0  0  0
   -0.0210    5.2670   -1.7520 Cl  0  0  0  0  0  0  0  0  0  0  0  0
   -2.9110    3.6040   -0.0050 P   0  0  0  0  0  0  0  0  0  0  0  0
   -3.4410    4.9310   -0.9520 O   0  0  0  0  0  0  0  0  0  0  0  0
   -3.2530    3.8620    1.6960 O   0  0  0  0  0  0  0  0  0  0  0  0
   -1.6790    0.9180   -0.2840 O   0  0  0  0  0  0  0  0  0  0  0  0
   -1.3300   -0.4150   -0.0860 C   0  0  1  0  0  0  0  0  0  0  0  0
   -1.7590   -0.8170    1.3110 C   0  0  0  0  0  0  0  0  0  0  0  0
   -2.6960   -1.6660    1.4520 N   0  0  0  0  0  0  0  0  0  0  0  0
   -1.1680   -0.2920    2.4460 O   0  0  0  0  0  0  0  0  0  0  0  0
   -1.4990   -0.7980    3.7500 C   0  0  0  0  0  0  0  0  0  0  0  0
   -1.8340   -1.4040   -1.0670 C   0  0  0  0  0  0  0  0  0  0  0  0
   -2.5720   -1.0750   -2.0640 C   0  0  0  0  0  0  0  0  0  0  0  0
   -1.4360   -2.7450   -0.8070 N   0  0  0  0  0  0  0  0  0  0  0  0
   -0.2000   -2.9900   -0.2040 N   0  0  0  0  0  0  0  0  0  0  0  0
    0.4860   -4.0570    0.2200 C   0  0  0  0  0  0  0  0  0  0  0  0
    1.6950   -3.6750    0.7930 C   0  0  0  0  0  0  0  0  0  0  0  0
    1.7490   -2.3010    0.7140 C   0  0  0  0  0  0  0  0  0  0  0  0
    0.5830   -1.9120    0.0990 C   0  0  0  0  0  0  0  0  0  0  0  0
    0.1260   -0.5960   -0.2200 N   0  0  0  0  0  0  0  0  0  0  0  0
  1  2  2  0
  2  3  1  0
  3  4  2  3
  4  5  1  0
  4  7  1  0
  5  6  2  0
  7  8  2  0
  7 31  1  0
  8  9  1  0
  8 10  1  0
 10 11  2  3
 10 17  1  0
 11 12  1  0
 11 14  1  0
 12 13  1  0
 14 15  1  0
 14 16  1  0
 17 18  1  0
 18 19  1  1
 18 23  1  0
 18 31  1  0
 19 20  2  0
 19 21  1  0
 21 22  1  0
 23 24  2  0
 23 25  1  0
 25 26  1  0
 26 27  1  0
 26 30  1  0
 27 28  2  0
 28 29  1  0
 29 30  2  0
 30 31  1  0
M  END
