
     RDKit          3D

 31 32  0  0  0  0  0  0  0  0999 V2000
    1.1060   -5.2340    2.1870 C   0  0  0  0  0  0  0  0  0  0  0  0
    2.0170   -4.1210    2.1320 N   0  0  0  0  0  0  0  0  0  0  0  0
    1.6700   -3.0690    1.5280 N   0  0  0  0  0  0  0  0  0  0  0  0
    0.4360   -2.9740    0.9230 N   0  0  0  0  0  0  0  0  0  0  0  0
   -0.2270   -1.7670    0.8950 C   0  0  0  0  0  0  0  0  0  0  0  0
    0.5020   -0.7490    1.5270 C   0  0  0  0  0  0  0  0  0  0  0  0
    0.3510    0.4850    1.8830 C   0  0  0  0  0  0  0  0  0  0  0  0
   -0.7050    1.3300    1.7590 O   0  0  0  0  0  0  0  0  0  0  0  0
   -0.5780    2.7160    1.8690 C   0  0  0  0  0  0  0  0  0  0  0  0
    1.8480    1.2820    2.7310 P   0  0  0  0  0  0  0  0  0  0  0  0
    3.2410    1.1820    1.9050 N   0  0  0  0  0  0  0  0  0  0  0  0
    3.3620    0.5830    0.7010 O   0  0  0  0  0  0  0  0  0  0  0  0
    4.4730    0.6950   -0.1180 C   0  0  0  0  0  0  0  0  0  0  0  0
    4.5730   -0.1120   -1.1510 C   0  0  0  0  0  0  0  0  0  0  0  0
    5.6530   -0.0540   -2.0060 O   0  0  0  0  0  0  0  0  0  0  0  0
    5.9170    1.1780   -2.6800 C   0  0  0  0  0  0  0  0  0  0  0  0
    4.5050    1.5990   -3.6780 Cl  0  0  0  0  0  0  0  0  0  0  0  0
   -1.4930   -1.8700    0.2910 C   0  0  0  0  0  0  0  0  0  0  0  0
   -1.8400   -3.2990   -0.0710 N   0  0  0  0  0  0  0  0  0  0  0  0
   -1.7430   -3.7600   -1.7000 Cl  0  0  0  0  0  0  0  0  0  0  0  0
   -2.3750   -1.0840   -0.2400 C   0  0  0  0  0  0  0  0  0  0  0  0
   -3.6820   -1.6150   -0.7810 C   0  0  0  0  0  0  0  0  0  0  0  0
   -4.7470   -0.5760   -0.6810 C   0  0  0  0  0  0  0  0  0  0  0  0
   -3.9470    0.8500   -0.0200 S   0  0  2  0  0  0  0  0  0  0  0  0
   -4.1790    2.3450   -0.7140 O   0  0  0  0  0  0  0  0  0  0  0  0
   -3.0470    3.0510   -1.1180 N   0  0  0  0  0  0  0  0  0  0  0  0
   -1.8850    2.5420   -1.2520 C   0  0  0  0  0  0  0  0  0  0  0  0
   -0.8680    3.4020   -1.6770 O   0  0  0  0  0  0  0  0  0  0  0  0
   -1.1140    4.5030   -2.5260 C   0  0  0  0  0  0  0  0  0  0  0  0
   -1.5290    1.1880   -0.9980 N   0  0  0  0  0  0  0  0  0  0  0  0
   -2.2910    0.2980   -0.5890 C   0  0  0  0  0  0  0  0  0  0  0  0
  1  2  1  0
  2  3  2  3
  3  4  1  0
  4  5  2  3
  5  6  1  0
  5 18  1  0
  6  7  2  3
  7  8  1  0
  7 10  1  0
  8  9  1  0
 10 11  2  3
 11 12  1  0
 12 13  1  0
 13 14  2  3
 14 15  1  0
 15 16  1  0
 16 17  1  0
 18 19  1  0
 18 21  2  3
 19 20  1  0
 21 22  1  0
 21 31  1  0
 22 23  1  0
 24 23  1  6
 24 25  1  0
 24 31  1  0
 25 26  1  0
 26 27  2  0
 27 28  1  0
 27 30  1  0
 28 29  1  0
 30 31  2  0
M  END
