
     RDKit          3D

 31 33  0  0  0  0  0  0  0  0999 V2000
   -3.4490   -2.4210   -1.1160 C   0  0  0  0  0  0  0  0  0  0  0  0
   -2.8370   -2.0980    0.2260 C   0  0  0  0  0  0  0  0  0  0  0  0
   -3.2490   -0.8100    0.7270 N   0  0  0  0  0  0  0  0  0  0  0  0
   -4.6380   -0.8160    1.0630 C   0  0  0  0  0  0  0  0  0  0  0  0
   -2.8470    0.2760   -0.1330 C   0  0  1  0  0  0  0  0  0  0  0  0
   -1.2070    0.5230   -0.3990 S   0  0  0  0  0  0  0  0  0  0  0  0
   -1.2090    0.5190   -2.0130 C   0  0  0  0  0  0  0  0  0  0  0  0
   -0.2210    0.6460   -2.7820 O   0  0  0  0  0  0  0  0  0  0  0  0
   -0.7730    2.2360   -0.5340 N   0  0  0  0  0  0  0  0  0  0  0  0
   -1.7400    2.9100   -1.0790 O   0  0  0  0  0  0  0  0  0  0  0  0
   -1.3340    4.0400   -1.7530 C   0  0  0  0  0  0  0  0  0  0  0  0
   -1.0240    0.8660    1.0510 N   0  0  0  0  0  0  0  0  0  0  0  0
    0.3700    0.8750    1.4840 C   0  0  0  0  0  0  0  0  0  0  0  0
    0.8100   -0.3910    0.7310 C   0  0  2  0  0  0  0  0  0  0  0  0
    0.6280   -1.7120    1.9390 Cl  0  0  0  0  0  0  0  0  0  0  0  0
    2.1770   -0.3560    0.3290 N   0  0  0  0  0  0  0  0  0  0  0  0
    2.8030    0.6210   -0.5480 C   0  0  0  0  0  0  0  0  0  0  0  0
    4.2510    0.4750   -0.3130 C   0  0  0  0  0  0  0  0  0  0  0  0
    5.1650    1.3580   -0.6460 C   0  0  0  0  0  0  0  0  0  0  0  0
    6.6130    1.1400   -0.3760 C   0  0  0  0  0  0  0  0  0  0  0  0
    7.2830    2.3970    0.6730 Cl  0  0  0  0  0  0  0  0  0  0  0  0
    4.4010   -0.8180    0.3420 C   0  0  0  0  0  0  0  0  0  0  0  0
    3.2270   -1.2700    0.6960 C   0  0  0  0  0  0  0  0  0  0  0  0
    3.0080   -2.5000    1.3560 N   0  0  0  0  0  0  0  0  0  0  0  0
    3.2780   -3.6200    0.7960 C   0  0  0  0  0  0  0  0  0  0  0  0
    3.0270   -4.8120    1.5300 N   0  0  0  0  0  0  0  0  0  0  0  0
   -0.0950   -0.5500   -0.2820 O   0  0  0  0  0  0  0  0  0  0  0  0
   -3.7880    0.4560   -1.1220 O   0  0  0  0  0  0  0  0  0  0  0  0
   -4.5180    1.5680   -0.9970 O   0  0  0  0  0  0  0  0  0  0  0  0
   -3.6570    1.8700    0.4630 P   0  0  0  0  0  0  0  0  0  0  0  0
   -4.5790    1.6960    1.9650 N   0  0  0  0  0  0  0  0  0  0  0  0
  1  2  1  0
  2  3  1  0
  3  4  1  0
  5  3  1  1
  5  6  1  0
  5 28  1  0
  5 30  1  0
  6  7  1  0
  6  9  1  0
  6 12  2  0
  6 27  1  0
  7  8  2  0
  9 10  1  0
 10 11  1  0
 12 13  1  0
 13 14  1  0
 14 15  1  1
 14 16  1  0
 14 27  1  0
 16 17  1  0
 16 23  1  0
 17 18  1  0
 18 19  2  3
 18 22  1  0
 19 20  1  0
 20 21  1  0
 22 23  2  0
 23 24  1  0
 24 25  2  3
 25 26  1  0
 28 29  1  0
 29 30  1  0
 30 31  1  0
M  END
