
     RDKit          3D

 31 32  0  0  0  0  0  0  0  0999 V2000
   -6.0300    2.9060   -0.0460 C   0  0  0  0  0  0  0  0  0  0  0  0
   -5.2120    1.7030    0.3260 C   0  0  0  0  0  0  0  0  0  0  0  0
   -3.8990    1.7860    0.4630 C   0  0  0  0  0  0  0  0  0  0  0  0
   -3.2110    3.0630    0.2530 C   0  0  0  0  0  0  0  0  0  0  0  0
   -1.9040    3.0940    0.0850 C   0  0  0  0  0  0  0  0  0  0  0  0
   -1.1660    1.8480    0.1130 C   0  0  0  0  0  0  0  0  0  0  0  0
    0.1380    2.0190   -0.0690 C   0  0  0  0  0  0  0  0  0  0  0  0
    1.2030    1.0790   -0.1120 N   0  0  0  0  0  0  0  0  0  0  0  0
    1.1320   -0.2220   -0.1340 C   0  0  0  0  0  0  0  0  0  0  0  0
    2.3900   -0.8680   -0.1770 N   0  0  0  0  0  0  0  0  0  0  0  0
    3.5860   -0.2100   -0.6050 C   0  0  0  0  0  0  0  0  0  0  0  0
    3.6060    1.0830   -0.5620 N   0  0  0  0  0  0  0  0  0  0  0  0
    4.7760    1.7620   -0.9790 N   0  0  0  0  0  0  0  0  0  0  0  0
    5.8180    1.0350   -2.1510 Cl  0  0  0  0  0  0  0  0  0  0  0  0
    5.0530    3.0380   -0.4090 C   0  0  0  0  0  0  0  0  0  0  0  0
    6.2980    3.7480   -0.8610 C   0  0  0  0  0  0  0  0  0  0  0  0
    4.2890    3.5500    0.4370 O   0  0  0  0  0  0  0  0  0  0  0  0
   -0.0120   -1.1210   -0.1230 C   0  0  0  0  0  0  0  0  0  0  0  0
    0.2240   -2.8090   -0.3770 S   0  0  2  0  0  0  0  0  0  0  0  0
    1.2710   -3.1130   -1.4420 O   0  0  0  0  0  0  0  0  0  0  0  0
   -1.0960   -3.3830   -1.0340 N   0  0  0  0  0  0  0  0  0  0  0  0
   -0.9660   -5.0660   -1.6000 P   0  0  0  0  0  0  0  0  0  0  0  0
   -1.7440   -6.1680   -0.5210 O   0  0  0  0  0  0  0  0  0  0  0  0
   -1.6490   -5.2790   -3.5820 Cl  0  0  0  0  0  0  0  0  0  0  0  0
    0.4830   -3.7290    1.0750 C   0  0  0  0  0  0  0  0  0  0  0  0
   -0.5470   -4.1980    1.6750 O   0  0  0  0  0  0  0  0  0  0  0  0
    1.6940   -4.0010    1.6440 O   0  0  0  0  0  0  0  0  0  0  0  0
    1.7500   -4.7430    2.7970 N   0  0  0  0  0  0  0  0  0  0  0  0
   -1.2780   -0.7150    0.0780 C   0  0  0  0  0  0  0  0  0  0  0  0
   -1.7900    0.5870    0.3130 N   0  0  0  0  0  0  0  0  0  0  0  0
   -3.1360    0.5770    0.8300 C   0  0  0  0  0  0  0  0  0  0  0  0
  1  2  1  0
  2  3  2  3
  3  4  1  0
  3 31  1  0
  4  5  2  0
  5  6  1  0
  6  7  2  0
  6 30  1  0
  7  8  1  0
  8  9  2  0
  9 10  1  0
  9 18  1  0
 10 11  1  0
 11 12  2  3
 12 13  1  0
 13 14  1  0
 13 15  1  0
 15 16  1  0
 15 17  2  0
 18 19  1  0
 18 29  2  0
 19 20  2  0
 19 21  2  0
 19 25  1  1
 21 22  1  0
 22 23  1  0
 22 24  1  0
 25 26  2  0
 25 27  1  0
 27 28  1  0
 29 30  1  0
 30 31  1  0
M  END
