
     RDKit          3D

 31 32  0  0  0  0  0  0  0  0999 V2000
    4.0720    2.0700   -1.6030 C   0  0  0  0  0  0  0  0  0  0  0  0
    3.2160    1.0960   -1.4310 C   0  0  0  0  0  0  0  0  0  0  0  0
    2.0210    1.0360   -0.6530 C   0  0  0  0  0  0  0  0  0  0  0  0
    1.5870    2.0330    0.0580 C   0  0  0  0  0  0  0  0  0  0  0  0
    1.2090    3.0290    0.8020 C   0  0  0  0  0  0  0  0  0  0  0  0
    0.3980    3.9060    0.1610 O   0  0  0  0  0  0  0  0  0  0  0  0
    1.7020    3.0420    2.1560 C   0  0  0  0  0  0  0  0  0  0  0  0
    2.6460    4.5600    2.3750 Cl  0  0  0  0  0  0  0  0  0  0  0  0
    1.3650   -0.1740   -0.7120 N   0  0  0  0  0  0  0  0  0  0  0  0
    2.2050   -1.0480   -1.5140 C   0  0  1  0  0  0  0  0  0  0  0  0
    2.7510   -2.0770   -0.7590 O   0  0  0  0  0  0  0  0  0  0  0  0
    1.4460   -1.6580   -2.6260 C   0  0  0  0  0  0  0  0  0  0  0  0
    0.2540   -2.0520   -2.4220 N   0  0  0  0  0  0  0  0  0  0  0  0
   -0.4990   -1.9970   -1.2360 C   0  0  0  0  0  0  0  0  0  0  0  0
   -1.6330   -2.8690   -0.9760 C   0  0  0  0  0  0  0  0  0  0  0  0
   -2.3210   -2.7870    0.1370 C   0  0  0  0  0  0  0  0  0  0  0  0
   -3.4980   -3.7050    0.3890 C   0  0  0  0  0  0  0  0  0  0  0  0
   -3.2090   -4.4390    1.5500 O   0  0  0  0  0  0  0  0  0  0  0  0
   -0.0930   -0.9360   -0.1390 S   0  0  2  0  0  0  0  0  0  0  0  0
   -1.2590    0.1030   -0.0400 N   0  0  0  0  0  0  0  0  0  0  0  0
   -2.3340   -0.0360   -0.9130 N   0  0  0  0  0  0  0  0  0  0  0  0
   -2.6860    0.9100   -1.6570 N   0  0  0  0  0  0  0  0  0  0  0  0
   -2.0380    2.1880   -1.6820 C   0  0  0  0  0  0  0  0  0  0  0  0
   -2.7530    3.2190   -0.8570 C   0  0  0  0  0  0  0  0  0  0  0  0
    0.1800   -1.6770    1.4200 C   0  0  0  0  0  0  0  0  0  0  0  0
    0.5690   -2.8650    1.5720 N   0  0  0  0  0  0  0  0  0  0  0  0
   -0.1240   -0.6450    2.9040 P   0  0  0  0  0  0  0  0  0  0  0  0
   -1.7880   -0.2980    3.1230 O   0  0  0  0  0  0  0  0  0  0  0  0
    0.5330   -1.3380    4.3320 O   0  0  0  0  0  0  0  0  0  0  0  0
    3.2960   -0.2200   -2.0290 N   0  0  0  0  0  0  0  0  0  0  0  0
    4.4670   -0.7950   -3.1770 Cl  0  0  0  0  0  0  0  0  0  0  0  0
  1  2  2  0
  2  3  1  0
  2 30  1  0
  3  4  2  0
  3  9  1  0
  4  5  2  0
  5  6  1  0
  5  7  1  0
  7  8  1  0
  9 10  1  0
  9 19  1  0
 10 11  1  1
 10 12  1  0
 10 30  1  0
 12 13  2  0
 13 14  1  0
 14 15  1  0
 14 19  2  0
 15 16  2  3
 16 17  1  0
 17 18  1  0
 19 20  2  0
 19 25  1  1
 20 21  1  0
 21 22  2  3
 22 23  1  0
 23 24  1  0
 25 26  2  0
 25 27  1  0
 27 28  1  0
 27 29  1  0
 30 31  1  0
M  END
