
     RDKit          3D

 31 33  0  0  0  0  0  0  0  0999 V2000
    2.3760    1.0760   -2.3710 O   0  0  0  0  0  0  0  0  0  0  0  0
    1.5560    0.8620   -1.3610 C   0  0  0  0  0  0  0  0  0  0  0  0
    1.3220   -0.5220   -1.0150 C   0  0  0  0  0  0  0  0  0  0  0  0
    0.4480   -1.2990   -1.7950 C   0  0  0  0  0  0  0  0  0  0  0  0
    0.2850   -2.6450   -1.5060 C   0  0  0  0  0  0  0  0  0  0  0  0
    0.9590   -3.2510   -0.4670 C   0  0  0  0  0  0  0  0  0  0  0  0
    1.8100   -2.4930    0.2940 C   0  0  0  0  0  0  0  0  0  0  0  0
    1.9810   -1.1230    0.0040 C   0  0  0  0  0  0  0  0  0  0  0  0
    2.9240   -0.4070    0.8730 C   0  0  0  0  0  0  0  0  0  0  0  0
    4.2150   -0.2840    0.2590 N   0  0  0  0  0  0  0  0  0  0  0  0
    5.2430   -1.1810    0.3380 C   0  0  0  0  0  0  0  0  0  0  0  0
    6.3050   -0.7510   -0.3240 N   0  0  0  0  0  0  0  0  0  0  0  0
    5.9660    0.4410   -0.8400 C   0  0  0  0  0  0  0  0  0  0  0  0
    4.7040    0.6880   -0.4690 N   0  0  0  0  0  0  0  0  0  0  0  0
    1.0480    1.9880   -0.7810 N   0  0  0  0  0  0  0  0  0  0  0  0
    1.4710    3.2060   -1.3410 O   0  0  0  0  0  0  0  0  0  0  0  0
    0.1550    2.1490    0.2950 C   0  0  0  0  0  0  0  0  0  0  0  0
   -1.2880    2.2620    0.0640 C   0  0  0  0  0  0  0  0  0  0  0  0
   -2.0990    1.1320   -0.4420 C   0  0  1  0  0  0  0  0  0  0  0  0
   -2.0480    0.0300    0.5760 C   0  0  0  0  0  0  0  0  0  0  0  0
   -2.2430   -1.2650    0.1140 C   0  0  0  0  0  0  0  0  0  0  0  0
   -2.2270   -2.3550    0.9580 C   0  0  0  0  0  0  0  0  0  0  0  0
   -2.0110   -2.1700    2.3040 C   0  0  0  0  0  0  0  0  0  0  0  0
   -1.9830   -3.5400    3.4130 Cl  0  0  0  0  0  0  0  0  0  0  0  0
   -1.8210   -0.8840    2.7360 C   0  0  0  0  0  0  0  0  0  0  0  0
   -1.5460   -0.6250    4.4400 Cl  0  0  0  0  0  0  0  0  0  0  0  0
   -1.8330    0.2270    1.9100 C   0  0  0  0  0  0  0  0  0  0  0  0
   -3.7040    1.5170   -1.0260 P   0  0  0  0  0  0  0  0  0  0  0  0
   -4.7310    2.4200   -0.0770 O   0  0  0  0  0  0  0  0  0  0  0  0
   -4.0660    1.2200   -2.6250 O   0  0  0  0  0  0  0  0  0  0  0  0
   -4.4320    0.2500   -0.6080 O   0  0  0  0  0  0  0  0  0  0  0  0
  1  2  2  0
  2  3  1  0
  2 15  1  0
  3  4  2  0
  3  8  1  0
  4  5  1  0
  5  6  2  0
  6  7  1  0
  7  8  2  0
  8  9  1  0
  9 10  1  0
 10 11  1  0
 10 14  1  0
 11 12  2  0
 12 13  1  0
 13 14  2  0
 15 16  1  0
 15 17  1  0
 17 18  1  0
 19 18  1  1
 19 20  1  0
 19 28  1  0
 20 21  2  0
 20 27  1  0
 21 22  1  0
 22 23  2  0
 23 24  1  0
 23 25  1  0
 25 26  1  0
 25 27  2  0
 28 29  1  0
 28 30  1  0
 28 31  1  0
M  END
