
     RDKit          3D

 30 32  0  0  0  0  0  0  0  0999 V2000
    8.0490    2.0940   -1.2500 O   0  0  0  0  0  0  0  0  0  0  0  0
    7.5790    0.9300   -1.3070 C   0  0  0  0  0  0  0  0  0  0  0  0
    7.1700   -0.2900   -1.1790 C   0  0  0  0  0  0  0  0  0  0  0  0
    5.9050   -0.6020   -0.5320 C   0  0  0  0  0  0  0  0  0  0  0  0
    5.8250   -1.4370    0.5180 N   0  0  0  0  0  0  0  0  0  0  0  0
    4.6670   -1.7370    1.1280 C   0  0  0  0  0  0  0  0  0  0  0  0
    3.5120   -1.1820    0.6820 N   0  0  0  0  0  0  0  0  0  0  0  0
    2.2490   -1.2720    1.0540 N   0  0  0  0  0  0  0  0  0  0  0  0
    1.4610   -0.4910    0.2520 C   0  0  0  0  0  0  0  0  0  0  0  0
    0.0220   -0.3420    0.3420 C   0  0  0  0  0  0  0  0  0  0  0  0
   -0.7170   -1.4870    0.6110 O   0  0  0  0  0  0  0  0  0  0  0  0
    0.0140   -3.0700    0.7950 P   0  0  0  0  0  0  0  0  0  0  0  0
   -0.9990   -4.3440    0.2580 O   0  0  0  0  0  0  0  0  0  0  0  0
    0.5840   -3.3690    2.3840 O   0  0  0  0  0  0  0  0  0  0  0  0
   -0.6170    0.7930    0.1860 C   0  0  0  0  0  0  0  0  0  0  0  0
    0.0920    2.0450   -0.0990 C   0  0  0  0  0  0  0  0  0  0  0  0
   -0.5730    3.1830   -0.2550 C   0  0  0  0  0  0  0  0  0  0  0  0
    0.3190    4.6420   -0.5920 Cl  0  0  0  0  0  0  0  0  0  0  0  0
   -2.0410    0.8270    0.2930 N   0  0  0  0  0  0  0  0  0  0  0  0
   -2.6650    1.3660    1.4760 C   0  0  0  0  0  0  0  0  0  0  0  0
   -3.9350    2.0190    1.0730 C   0  0  0  0  0  0  0  0  0  0  0  0
   -4.2530    3.1240    1.5360 O   0  0  0  0  0  0  0  0  0  0  0  0
   -4.8410    1.3490    0.1040 C   0  0  0  0  0  0  0  0  0  0  0  0
   -4.2340    0.0980   -0.2740 N   0  0  0  0  0  0  0  0  0  0  0  0
   -5.0190   -0.6760   -1.1890 C   0  0  0  0  0  0  0  0  0  0  0  0
   -4.1170   -2.1830   -1.5400 Cl  0  0  0  0  0  0  0  0  0  0  0  0
   -2.8750    0.3230   -0.7700 C   0  0  0  0  0  0  0  0  0  0  0  0
    2.3270    0.0640   -0.6140 N   0  0  0  0  0  0  0  0  0  0  0  0
    3.5730   -0.3470   -0.3630 C   0  0  0  0  0  0  0  0  0  0  0  0
    4.7310   -0.0580   -0.9610 N   0  0  0  0  0  0  0  0  0  0  0  0
  1  2  2  0
  2  3  2  0
  3  4  1  0
  4  5  1  0
  4 30  2  0
  5  6  2  0
  6  7  1  0
  7  8  1  0
  7 29  1  0
  8  9  2  0
  9 10  1  0
  9 28  1  0
 10 11  1  0
 10 15  2  3
 11 12  1  0
 12 13  1  0
 12 14  1  0
 15 16  1  0
 15 19  1  0
 16 17  2  3
 17 18  1  0
 19 20  1  0
 19 27  1  0
 20 21  1  0
 21 22  2  0
 21 23  1  0
 23 24  1  0
 24 25  1  0
 24 27  1  0
 25 26  1  0
 28 29  2  0
 29 30  1  0
M  END
