
     RDKit          3D

 25 25  0  0  0  0  0  0  0  0999 V2000
    7.1270   -2.2720    0.2330 C   0  0  0  0  0  0  0  0  0  0  0  0
    7.1470   -1.1150   -0.7430 C   0  0  0  0  0  0  0  0  0  0  0  0
    5.8850   -0.6300   -1.1000 N   0  0  0  0  0  0  0  0  0  0  0  0
    4.9790   -0.0640   -0.0220 C   0  0  0  0  0  0  0  0  0  0  0  0
    5.4800   -0.0720    1.0670 O   0  0  0  0  0  0  0  0  0  0  0  0
    3.7980    0.3060   -0.6220 N   0  0  0  0  0  0  0  0  0  0  0  0
    2.9630    0.7460    0.8130 C   0  0  0  0  0  0  0  0  0  0  0  0
    3.5800    0.5610    1.7880 O   0  0  0  0  0  0  0  0  0  0  0  0
    1.6590    1.2560    0.5560 C   0  0  0  0  0  0  0  0  0  0  0  0
    1.1820    1.5280   -0.5700 O   0  0  0  0  0  0  0  0  0  0  0  0
    0.7470    1.5050    1.6380 N   0  0  0  0  0  0  0  0  0  0  0  0
   -0.5680    1.9830    1.5910 C   0  0  0  0  0  0  0  0  0  0  0  0
   -1.6210    1.2270    0.8930 C   0  0  2  0  0  0  0  0  0  0  0  0
   -1.8560   -0.1630    1.3940 C   0  0  0  0  0  0  0  0  0  0  0  0
   -3.2500   -0.5770    0.9990 C   0  0  2  0  0  0  0  0  0  0  0  0
   -3.5400   -1.9830    1.3890 C   0  0  0  0  0  0  0  0  0  0  0  0
   -2.7110   -2.6590    1.9930 O   0  0  0  0  0  0  0  0  0  0  0  0
   -4.7820   -2.4970    1.0360 O   0  0  0  0  0  0  0  0  0  0  0  0
   -5.1380   -3.7460    1.3270 O   0  0  0  0  0  0  0  0  0  0  0  0
   -3.3950   -0.4520   -0.5010 C   0  0  1  0  0  0  0  0  0  0  0  0
   -4.5530   -0.9820   -1.0040 O   0  0  0  0  0  0  0  0  0  0  0  0
   -3.1310    0.9430   -0.9960 C   0  0  1  0  0  0  0  0  0  0  0  0
   -3.1490    0.9350   -2.5060 C   0  0  0  0  0  0  0  0  0  0  0  0
   -4.0980    1.9620   -0.5230 C   0  0  0  0  0  0  0  0  0  0  0  0
   -1.6690    1.2700   -0.5920 C   0  0  0  0  0  0  0  0  0  0  0  0
  1  2  1  0
  2  3  1  0
  3  4  1  0
  4  5  2  0
  4  6  1  0
  6  7  1  0
  7  8  2  0
  7  9  1  0
  9 10  2  0
  9 11  1  0
 11 12  1  0
 13 12  1  6
 13 14  1  0
 13 25  1  0
 14 15  1  0
 15 16  1  6
 15 20  1  0
 16 17  2  0
 16 18  1  0
 18 19  1  0
 20 21  1  1
 20 22  1  0
 22 23  1  6
 22 24  1  0
 22 25  1  0
M  END
