
     RDKit          3D

 25 26  0  0  0  0  0  0  0  0999 V2000
    5.4500    1.2410    1.3960 C   0  0  0  0  0  0  0  0  0  0  0  0
    4.3420    0.4900    1.8340 O   0  0  0  0  0  0  0  0  0  0  0  0
    3.4960   -0.1920    0.9670 C   0  0  0  0  0  0  0  0  0  0  0  0
    2.4730    0.2780    0.1960 C   0  0  0  0  0  0  0  0  0  0  0  0
    2.0520    1.6120    0.1270 N   0  0  0  0  0  0  0  0  0  0  0  0
    0.8090    2.2450    0.3340 C   0  0  0  0  0  0  0  0  0  0  0  0
    0.5760    3.3110   -0.3770 O   0  0  0  0  0  0  0  0  0  0  0  0
   -0.2440    1.9040    1.2050 N   0  0  0  0  0  0  0  0  0  0  0  0
   -0.8310    0.6140    1.4590 C   0  0  0  0  0  0  0  0  0  0  0  0
   -2.2210    0.4570    0.8370 C   0  0  2  0  0  0  0  0  0  0  0  0
   -3.0230    1.4450    1.4040 O   0  0  0  0  0  0  0  0  0  0  0  0
   -2.8070   -0.8750    1.1320 C   0  0  0  0  0  0  0  0  0  0  0  0
   -4.1590   -0.9770    0.5410 C   0  0  0  0  0  0  0  0  0  0  0  0
   -4.9100   -2.2050    0.6120 N   0  0  0  0  0  0  0  0  0  0  0  0
   -4.7590   -0.0460   -0.0550 O   0  0  0  0  0  0  0  0  0  0  0  0
   -2.1470    0.6930   -0.6540 C   0  0  0  0  0  0  0  0  0  0  0  0
   -1.8190   -0.5510   -1.4480 C   0  0  0  0  0  0  0  0  0  0  0  0
   -1.5250   -0.2280   -2.8030 O   0  0  0  0  0  0  0  0  0  0  0  0
   -0.2850   -0.3620   -3.3920 C   0  0  0  0  0  0  0  0  0  0  0  0
   -0.1610   -0.8260   -4.5790 O   0  0  0  0  0  0  0  0  0  0  0  0
    0.9560    0.0470   -2.6290 C   0  0  0  0  0  0  0  0  0  0  0  0
    1.3560   -0.9950   -1.6660 C   0  0  0  0  0  0  0  0  0  0  0  0
    1.9710   -0.8790   -0.5250 C   0  0  0  0  0  0  0  0  0  0  0  0
    2.3560   -2.0600    0.3710 C   0  0  0  0  0  0  0  0  0  0  0  0
    3.6180   -1.5550    0.7860 O   0  0  0  0  0  0  0  0  0  0  0  0
  1  2  1  0
  2  3  1  0
  3  4  2  0
  3 25  1  0
  4  5  1  0
  4 23  1  0
  5  6  1  0
  6  7  2  0
  6  8  1  0
  8  9  1  0
  9 10  1  0
 10 11  1  1
 10 12  1  0
 10 16  1  0
 12 13  1  0
 13 14  1  0
 13 15  2  0
 16 17  1  0
 17 18  1  0
 18 19  1  0
 19 20  2  0
 19 21  1  0
 21 22  1  0
 22 23  2  0
 23 24  1  0
 24 25  1  0
M  END
