
     RDKit          3D

 25 26  0  0  0  0  0  0  0  0999 V2000
    7.1680    0.8240   -1.6910 N   0  0  0  0  0  0  0  0  0  0  0  0
    6.2730    1.2620   -0.9380 C   0  0  0  0  0  0  0  0  0  0  0  0
    6.6970    2.5270   -0.2580 C   0  0  0  0  0  0  0  0  0  0  0  0
    6.0970    3.2040    0.5330 O   0  0  0  0  0  0  0  0  0  0  0  0
    5.0770    0.6790   -1.2080 N   0  0  0  0  0  0  0  0  0  0  0  0
    4.0480    0.3960   -0.1750 C   0  0  0  0  0  0  0  0  0  0  0  0
    4.5160    0.6450    0.9160 O   0  0  0  0  0  0  0  0  0  0  0  0
    2.9340   -0.0570   -0.7250 N   0  0  0  0  0  0  0  0  0  0  0  0
    2.2790   -0.7710    0.7450 C   0  0  0  0  0  0  0  0  0  0  0  0
    3.0170   -0.6330    1.6250 O   0  0  0  0  0  0  0  0  0  0  0  0
    1.0150   -1.3270    0.4480 C   0  0  1  0  0  0  0  0  0  0  0  0
    0.5880   -2.1960    1.6440 C   0  0  0  0  0  0  0  0  0  0  0  0
   -0.7050   -2.8540    1.1130 C   0  0  0  0  0  0  0  0  0  0  0  0
   -1.6680   -1.8880    1.1300 O   0  0  0  0  0  0  0  0  0  0  0  0
   -1.4590   -0.7840    0.3160 C   0  0  1  0  0  0  0  0  0  0  0  0
   -1.7010   -1.2210   -1.1130 C   0  0  0  0  0  0  0  0  0  0  0  0
   -2.1670   -0.0220   -1.9390 C   0  0  0  0  0  0  0  0  0  0  0  0
   -3.4270    0.2580   -1.4440 O   0  0  0  0  0  0  0  0  0  0  0  0
   -3.4280    0.7610   -0.1760 C   0  0  1  0  0  0  0  0  0  0  0  0
   -3.3720    2.2960   -0.3170 C   0  0  0  0  0  0  0  0  0  0  0  0
   -4.4730    2.7200   -1.0190 O   0  0  0  0  0  0  0  0  0  0  0  0
   -4.8480    0.5140    0.3690 C   0  0  0  0  0  0  0  0  0  0  0  0
   -5.0170   -0.8730    0.3230 O   0  0  0  0  0  0  0  0  0  0  0  0
   -2.4300    0.2680    0.7840 C   0  0  0  0  0  0  0  0  0  0  0  0
   -0.0420   -0.2540    0.3500 C   0  0  0  0  0  0  0  0  0  0  0  0
  1  2  2  0
  2  3  1  0
  2  5  1  0
  3  4  2  0
  5  6  1  0
  6  7  2  0
  6  8  1  0
  8  9  1  0
  9 10  2  0
 11  9  1  1
 11 12  1  0
 11 25  1  0
 12 13  1  0
 13 14  1  0
 14 15  1  0
 15 16  1  6
 15 24  1  0
 15 25  1  0
 16 17  1  0
 17 18  1  0
 18 19  1  0
 19 20  1  6
 19 22  1  0
 19 24  1  0
 20 21  1  0
 22 23  1  0
M  END
