
     RDKit          3D

 25 26  0  0  0  0  0  0  0  0999 V2000
    5.5900   -0.2440   -1.0050 C   0  0  0  0  0  0  0  0  0  0  0  0
    4.8980   -1.5350   -1.4640 C   0  0  2  0  0  0  0  0  0  0  0  0
    5.9450   -2.6150   -1.5510 C   0  0  0  0  0  0  0  0  0  0  0  0
    5.3560   -3.8060   -1.8690 O   0  0  0  0  0  0  0  0  0  0  0  0
    4.2740   -1.2910   -2.7930 C   0  0  0  0  0  0  0  0  0  0  0  0
    2.7920   -1.1790   -2.7910 C   0  0  0  0  0  0  0  0  0  0  0  0
    2.1480   -0.9120   -1.6200 C   0  0  0  0  0  0  0  0  0  0  0  0
    0.7280   -0.8250   -1.8020 C   0  0  0  0  0  0  0  0  0  0  0  0
   -0.0390   -0.9630   -2.6690 O   0  0  0  0  0  0  0  0  0  0  0  0
   -0.0210   -0.3330   -0.3040 N   0  0  0  0  0  0  0  0  0  0  0  0
   -1.2310    0.1210   -0.8920 C   0  0  0  0  0  0  0  0  0  0  0  0
   -1.6690    0.2960   -2.0030 O   0  0  0  0  0  0  0  0  0  0  0  0
   -2.1600    0.4580    0.2380 N   0  0  0  0  0  0  0  0  0  0  0  0
   -3.4390    0.9600   -0.0480 C   0  0  0  0  0  0  0  0  0  0  0  0
   -4.2200    1.2660    1.1780 C   0  0  2  0  0  0  0  0  0  0  0  0
   -5.5620    1.7890    0.6380 C   0  0  0  0  0  0  0  0  0  0  0  0
   -5.4180    2.9740   -0.0720 O   0  0  0  0  0  0  0  0  0  0  0  0
   -3.6950    2.4250    2.0270 C   0  0  0  0  0  0  0  0  0  0  0  0
   -3.5190    2.0140    3.4290 N   0  0  0  0  0  0  0  0  0  0  0  0
   -2.9050    0.7440    3.6720 C   0  0  0  0  0  0  0  0  0  0  0  0
   -2.0060    0.5980    4.5000 O   0  0  0  0  0  0  0  0  0  0  0  0
   -3.4330   -0.3130    2.8740 O   0  0  0  0  0  0  0  0  0  0  0  0
   -4.5520    0.1270    2.0830 C   0  0  0  0  0  0  0  0  0  0  0  0
    2.9840   -0.8030   -0.4690 C   0  0  0  0  0  0  0  0  0  0  0  0
    3.9480   -1.8730   -0.4920 O   0  0  0  0  0  0  0  0  0  0  0  0
  2  1  1  1
  2  3  1  0
  2  5  1  0
  2 25  1  0
  3  4  1  0
  5  6  1  0
  6  7  2  0
  7  8  1  0
  7 24  1  0
  8  9  2  0
  8 10  1  0
 10 11  1  0
 11 12  2  0
 11 13  1  0
 13 14  1  0
 15 14  1  6
 15 16  1  0
 15 18  1  0
 15 23  1  0
 16 17  1  0
 18 19  1  0
 19 20  1  0
 20 21  2  0
 20 22  1  0
 22 23  1  0
 24 25  1  0
M  END
