
     RDKit          3D

 25 26  0  0  0  0  0  0  0  0999 V2000
    8.0690    1.1280   -0.7350 C   0  0  0  0  0  0  0  0  0  0  0  0
    7.0040    0.1690   -0.8080 O   0  0  0  0  0  0  0  0  0  0  0  0
    5.9010    0.3790   -0.0180 C   0  0  0  0  0  0  0  0  0  0  0  0
    5.8140    1.3800    0.7520 O   0  0  0  0  0  0  0  0  0  0  0  0
    4.7950   -0.5420   -0.0390 N   0  0  0  0  0  0  0  0  0  0  0  0
    3.6490   -0.2800    0.8120 C   0  0  0  0  0  0  0  0  0  0  0  0
    2.6550   -1.3990    0.5830 C   0  0  2  0  0  0  0  0  0  0  0  0
    2.2420   -1.3470   -0.8640 C   0  0  0  0  0  0  0  0  0  0  0  0
    0.7750   -1.6920   -0.7970 C   0  0  0  0  0  0  0  0  0  0  0  0
    0.4200   -1.4950    0.6440 C   0  0  2  0  0  0  0  0  0  0  0  0
   -0.5380   -0.3270    0.7570 C   0  0  1  0  0  0  0  0  0  0  0  0
    0.0350    0.8310    0.2590 O   0  0  0  0  0  0  0  0  0  0  0  0
   -1.8590   -0.6490    0.0880 C   0  0  0  0  0  0  0  0  0  0  0  0
   -2.7530    0.5270    0.2290 C   0  0  0  0  0  0  0  0  0  0  0  0
   -2.3330    1.5640    0.8170 O   0  0  0  0  0  0  0  0  0  0  0  0
   -4.1020    0.4610   -0.3130 C   0  0  0  0  0  0  0  0  0  0  0  0
   -4.9080    1.5220   -0.1880 C   0  0  0  0  0  0  0  0  0  0  0  0
   -4.3520    2.6660    0.4910 N   0  0  0  0  0  0  0  0  0  0  0  0
   -6.2930    1.5730   -0.6970 C   0  0  0  0  0  0  0  0  0  0  0  0
   -6.7090    0.3330   -1.3560 C   0  0  0  0  0  0  0  0  0  0  0  0
   -7.8770    0.2770   -1.8210 O   0  0  0  0  0  0  0  0  0  0  0  0
   -5.8820   -0.8040   -1.5040 N   0  0  0  0  0  0  0  0  0  0  0  0
   -4.5580   -0.7440   -0.9760 C   0  0  0  0  0  0  0  0  0  0  0  0
   -3.8330   -1.7550   -1.1100 O   0  0  0  0  0  0  0  0  0  0  0  0
    1.5460   -1.2190    1.3540 O   0  0  0  0  0  0  0  0  0  0  0  0
  1  2  1  0
  2  3  1  0
  3  4  2  0
  3  5  1  0
  5  6  1  0
  7  6  1  6
  7  8  1  0
  7 25  1  0
  8  9  1  0
 10  9  1  6
 10 11  1  0
 10 25  1  0
 11 12  1  6
 11 13  1  0
 13 14  1  0
 14 15  2  0
 14 16  1  0
 16 17  2  0
 16 23  1  0
 17 18  1  0
 17 19  1  0
 19 20  1  0
 20 21  2  0
 20 22  1  0
 22 23  1  0
 23 24  2  0
M  END
