
     RDKit          3D

 25 26  0  0  0  0  0  0  0  0999 V2000
   -1.1840   -2.8300   -0.7210 C   0  0  0  0  0  0  0  0  0  0  0  0
   -0.6590   -1.4140   -0.9650 C   0  0  2  0  0  0  0  0  0  0  0  0
    0.5420   -1.1730   -0.1930 N   0  0  0  0  0  0  0  0  0  0  0  0
    1.7730   -0.8280   -0.8200 C   0  0  0  0  0  0  0  0  0  0  0  0
    1.7250   -0.7520   -2.0960 O   0  0  0  0  0  0  0  0  0  0  0  0
    2.9630   -0.5850   -0.1090 N   0  0  0  0  0  0  0  0  0  0  0  0
    2.9620   -0.6840    1.3230 C   0  0  0  0  0  0  0  0  0  0  0  0
    4.4360   -0.8480    1.7200 C   0  0  0  0  0  0  0  0  0  0  0  0
    5.1740    0.2500    1.3590 O   0  0  0  0  0  0  0  0  0  0  0  0
    5.1280    0.5710    0.0230 C   0  0  2  0  0  0  0  0  0  0  0  0
    4.8710    2.0670   -0.1140 C   0  0  0  0  0  0  0  0  0  0  0  0
    4.8150    2.4400   -1.4600 O   0  0  0  0  0  0  0  0  0  0  0  0
    4.1750   -0.2420   -0.7830 C   0  0  0  0  0  0  0  0  0  0  0  0
   -1.7210   -0.4100   -0.6390 C   0  0  0  0  0  0  0  0  0  0  0  0
   -1.4390    0.4620    0.2170 O   0  0  0  0  0  0  0  0  0  0  0  0
   -2.9850   -0.4210   -1.2510 N   0  0  0  0  0  0  0  0  0  0  0  0
   -3.9870    0.5200   -0.9270 C   0  0  0  0  0  0  0  0  0  0  0  0
   -4.2970    1.4470   -1.8490 C   0  0  0  0  0  0  0  0  0  0  0  0
   -5.3280    2.4370   -1.5530 C   0  0  0  0  0  0  0  0  0  0  0  0
   -5.9730    2.4510   -0.4010 C   0  0  0  0  0  0  0  0  0  0  0  0
   -5.6620    1.5020    0.5440 O   0  0  0  0  0  0  0  0  0  0  0  0
   -4.6820    0.5060    0.3490 C   0  0  0  0  0  0  0  0  0  0  0  0
   -4.4550   -0.3750    1.3100 C   0  0  0  0  0  0  0  0  0  0  0  0
   -5.1700   -0.3000    2.4950 O   0  0  0  0  0  0  0  0  0  0  0  0
   -3.5380   -1.3720    1.1850 O   0  0  0  0  0  0  0  0  0  0  0  0
  2  1  1  1
  2  3  1  0
  2 14  1  0
  3  4  1  0
  4  5  2  0
  4  6  1  0
  6  7  1  0
  6 13  1  0
  7  8  1  0
  8  9  1  0
  9 10  1  0
 10 11  1  1
 10 13  1  0
 11 12  1  0
 14 15  2  0
 14 16  1  0
 16 17  1  0
 17 18  2  0
 17 22  1  0
 18 19  1  0
 19 20  2  0
 20 21  1  0
 21 22  1  0
 22 23  2  3
 23 24  1  0
 23 25  1  0
M  END
