
     RDKit          3D

 25 26  0  0  0  0  0  0  0  0999 V2000
   -2.2070    3.5210   -0.6530 N   0  0  0  0  0  0  0  0  0  0  0  0
   -1.8080    2.2720   -1.1690 C   0  0  0  0  0  0  0  0  0  0  0  0
   -1.2140    2.2040   -2.2610 O   0  0  0  0  0  0  0  0  0  0  0  0
   -2.0870    1.0200   -0.4210 C   0  0  1  0  0  0  0  0  0  0  0  0
   -3.5090    0.9300   -0.0070 C   0  0  0  0  0  0  0  0  0  0  0  0
   -4.3280   -0.0590    0.0600 C   0  0  0  0  0  0  0  0  0  0  0  0
   -5.6490    0.2390    0.5120 O   0  0  0  0  0  0  0  0  0  0  0  0
   -4.1620   -1.4720   -0.2490 C   0  0  0  0  0  0  0  0  0  0  0  0
   -5.0120   -2.0570   -1.0450 O   0  0  0  0  0  0  0  0  0  0  0  0
   -3.1710   -2.3210    0.2130 O   0  0  0  0  0  0  0  0  0  0  0  0
   -2.8370   -2.5210    1.5260 C   0  0  0  0  0  0  0  0  0  0  0  0
   -1.3640   -2.5720    1.8480 C   0  0  0  0  0  0  0  0  0  0  0  0
   -0.9070   -1.2390    1.6860 O   0  0  0  0  0  0  0  0  0  0  0  0
    0.3080   -0.8570    1.2390 N   0  0  0  0  0  0  0  0  0  0  0  0
    0.6560   -0.5560    0.0380 C   0  0  0  0  0  0  0  0  0  0  0  0
    2.0390   -0.1620   -0.2430 C   0  0  0  0  0  0  0  0  0  0  0  0
    2.5870    0.1800   -1.3940 C   0  0  0  0  0  0  0  0  0  0  0  0
    4.0200    0.5040   -1.2160 C   0  0  0  0  0  0  0  0  0  0  0  0
    4.0660    0.9100    0.2530 C   0  0  2  0  0  0  0  0  0  0  0  0
    5.4410    0.7610    0.8270 C   0  0  0  0  0  0  0  0  0  0  0  0
    5.8910   -0.5370    0.7550 O   0  0  0  0  0  0  0  0  0  0  0  0
    3.0910   -0.0940    0.8350 C   0  0  0  0  0  0  0  0  0  0  0  0
   -0.2390   -0.5810   -1.0990 C   0  0  0  0  0  0  0  0  0  0  0  0
    0.2190   -1.0650   -2.1820 O   0  0  0  0  0  0  0  0  0  0  0  0
   -1.5980   -0.1130   -1.1280 N   0  0  0  0  0  0  0  0  0  0  0  0
  1  2  1  0
  2  3  2  0
  4  2  1  6
  4  5  1  0
  4 25  1  0
  5  6  2  0
  6  7  1  0
  6  8  1  0
  8  9  2  0
  8 10  1  0
 10 11  1  0
 11 12  1  0
 12 13  1  0
 13 14  1  0
 14 15  2  0
 15 16  1  0
 15 23  1  0
 16 17  2  0
 16 22  1  0
 17 18  1  0
 18 19  1  0
 19 20  1  1
 19 22  1  0
 20 21  1  0
 23 24  2  0
 23 25  1  0
M  END
