
     RDKit          3D

 25 26  0  0  0  0  0  0  0  0999 V2000
    4.6860   -2.5690    0.6880 C   0  0  0  0  0  0  0  0  0  0  0  0
    4.0670   -1.7540   -0.4040 C   0  0  0  0  0  0  0  0  0  0  0  0
    3.9510   -0.3110    0.0270 C   0  0  1  0  0  0  0  0  0  0  0  0
    3.1370   -0.1530    1.2040 N   0  0  0  0  0  0  0  0  0  0  0  0
    1.7750   -0.5580    1.2270 C   0  0  0  0  0  0  0  0  0  0  0  0
    1.2280   -1.0760    0.1960 O   0  0  0  0  0  0  0  0  0  0  0  0
    0.9420   -0.4210    2.3640 N   0  0  0  0  0  0  0  0  0  0  0  0
   -0.4390   -0.8490    2.3330 C   0  0  0  0  0  0  0  0  0  0  0  0
   -1.1690   -0.0840    1.2700 C   0  0  0  0  0  0  0  0  0  0  0  0
   -0.6030    0.7790    0.5610 O   0  0  0  0  0  0  0  0  0  0  0  0
   -2.5110   -0.2890    1.0160 O   0  0  0  0  0  0  0  0  0  0  0  0
   -3.2610    0.3980    0.0290 C   0  0  2  0  0  0  0  0  0  0  0  0
   -4.3550    1.2310    0.5710 C   0  0  0  0  0  0  0  0  0  0  0  0
   -5.6320    1.2370   -0.1810 C   0  0  0  0  0  0  0  0  0  0  0  0
   -5.8630    0.1450   -0.9740 O   0  0  0  0  0  0  0  0  0  0  0  0
   -4.8470   -0.1430   -1.8490 C   0  0  1  0  0  0  0  0  0  0  0  0
   -4.5480    0.9960   -2.7980 C   0  0  0  0  0  0  0  0  0  0  0  0
   -3.5120    0.6640   -3.6680 O   0  0  0  0  0  0  0  0  0  0  0  0
   -3.6530   -0.5600   -1.0560 C   0  0  0  0  0  0  0  0  0  0  0  0
    5.3380    0.1990    0.2930 C   0  0  0  0  0  0  0  0  0  0  0  0
    5.3500    1.5930   -0.2570 C   0  0  0  0  0  0  0  0  0  0  0  0
    6.0570    2.5560    0.1120 O   0  0  0  0  0  0  0  0  0  0  0  0
    4.3750    1.6090   -1.3110 N   0  0  0  0  0  0  0  0  0  0  0  0
    3.4730    0.5340   -1.1000 C   0  0  0  0  0  0  0  0  0  0  0  0
    2.4390    0.3200   -1.7510 O   0  0  0  0  0  0  0  0  0  0  0  0
  1  2  1  0
  3  2  1  6
  3  4  1  0
  3 20  1  0
  3 24  1  0
  4  5  1  0
  5  6  2  0
  5  7  1  0
  7  8  1  0
  8  9  1  0
  9 10  2  0
  9 11  1  0
 12 11  1  1
 12 13  1  0
 12 19  1  0
 13 14  1  0
 14 15  1  0
 15 16  1  0
 16 17  1  1
 16 19  1  0
 17 18  1  0
 20 21  1  0
 21 22  2  0
 21 23  1  0
 23 24  1  0
 24 25  2  0
M  END
