
     RDKit          3D

 16 17  0  0  0  0  0  0  0  0999 V2000
   -3.5250   -0.3700   -2.0420 C   0  0  0  0  0  0  0  0  0  0  0  0
   -3.2410   -0.0090   -0.6220 C   0  0  0  0  0  0  0  0  0  0  0  0
   -2.0070    0.0330   -0.1490 C   0  0  0  0  0  0  0  0  0  0  0  0
   -0.8200   -0.2740   -0.9910 C   0  0  0  0  0  0  0  0  0  0  0  0
    0.3920    0.1130   -0.3470 N   0  0  0  0  0  0  0  0  0  0  0  0
    1.5000   -0.3290   -1.1740 C   0  0  0  0  0  0  0  0  0  0  0  0
    2.7770    0.0630   -0.5220 C   0  0  0  0  0  0  0  0  0  0  0  0
    3.4810    1.2480   -0.6880 C   0  0  0  0  0  0  0  0  0  0  0  0
    4.5590    1.1580    0.0890 N   0  0  0  0  0  0  0  0  0  0  0  0
    4.6110    0.0220    0.7380 N   0  0  0  0  0  0  0  0  0  0  0  0
    3.5220   -0.6780    0.3810 C   0  0  0  0  0  0  0  0  0  0  0  0
    0.5760   -0.3450    0.9810 C   0  0  0  0  0  0  0  0  0  0  0  0
   -0.5690   -0.1860    1.9050 C   0  0  0  0  0  0  0  0  0  0  0  0
   -1.7910    0.3890    1.2410 C   0  0  0  0  0  0  0  0  0  0  0  0
   -2.6300    1.1710    1.8590 C   0  0  0  0  0  0  0  0  0  0  0  0
   -2.4070    1.6320    3.5540 Cl  0  0  0  0  0  0  0  0  0  0  0  0
  1  2  1  0
  2  3  2  3
  3  4  1  0
  3 14  1  0
  4  5  1  0
  5  6  1  0
  5 12  1  0
  6  7  1  0
  7  8  1  0
  7 11  2  0
  8  9  2  0
  9 10  1  0
 10 11  1  0
 12 13  1  0
 13 14  1  0
 14 15  2  3
 15 16  1  0
M  END
