
     RDKit          3D

 17 16  0  0  0  0  0  0  0  0999 V2000
   -3.1540    1.0720    0.4940 C   0  0  0  0  0  0  0  0  0  0  0  0
   -2.0870    0.0230    0.1870 C   0  0  1  0  0  0  0  0  0  0  0  0
   -2.2160   -0.3500   -1.2630 C   0  0  0  0  0  0  0  0  0  0  0  0
   -2.0280    0.7740   -2.1470 N   0  0  0  0  0  0  0  0  0  0  0  0
   -0.7700    0.6250    0.5450 C   0  0  0  0  0  0  0  0  0  0  0  0
    0.3590   -0.2140    0.3260 N   0  0  0  0  0  0  0  0  0  0  0  0
    1.3400    0.4410   -0.5200 C   0  0  0  0  0  0  0  0  0  0  0  0
    2.7420    0.3430    0.0550 C   0  0  2  0  0  0  0  0  0  0  0  0
    3.5990    1.0120   -0.8510 O   0  0  0  0  0  0  0  0  0  0  0  0
    4.3240    2.1060   -0.4520 C   0  0  0  0  0  0  0  0  0  0  0  0
    4.2310    2.5200    0.7190 O   0  0  0  0  0  0  0  0  0  0  0  0
    3.1860   -1.0800    0.1460 C   0  0  0  0  0  0  0  0  0  0  0  0
    2.5440   -2.0350    0.9670 N   0  0  0  0  0  0  0  0  0  0  0  0
    4.1840   -1.5000   -0.5290 O   0  0  0  0  0  0  0  0  0  0  0  0
   -2.3610   -1.1400    1.0610 C   0  0  0  0  0  0  0  0  0  0  0  0
   -1.5520   -2.3190    1.0410 N   0  0  0  0  0  0  0  0  0  0  0  0
   -3.3340   -1.1660    1.8860 O   0  0  0  0  0  0  0  0  0  0  0  0
  2  1  1  1
  2  3  1  0
  2  5  1  0
  2 15  1  0
  3  4  1  0
  5  6  1  0
  6  7  1  0
  8  7  1  6
  8  9  1  0
  8 12  1  0
  9 10  1  0
 10 11  2  0
 12 13  1  0
 12 14  2  0
 15 16  1  0
 15 17  2  0
M  CHG  2   4   1   6   1
M  END
