
     RDKit          3D

 16 17  0  0  0  0  0  0  0  0999 V2000
    2.4320   -1.5310    1.2910 C   0  0  0  0  0  0  0  0  0  0  0  0
    1.2330   -2.2730    0.7690 C   0  0  0  0  0  0  0  0  0  0  0  0
    0.8350   -1.8220   -0.6180 C   0  0  0  0  0  0  0  0  0  0  0  0
    0.5180   -0.4180   -0.5560 N   0  0  0  0  0  0  0  0  0  0  0  0
    1.4480    0.5020   -0.8230 N   0  0  0  0  0  0  0  0  0  0  0  0
    0.9480    1.7390   -0.7390 C   0  0  0  0  0  0  0  0  0  0  0  0
    1.6810    3.0250   -0.9690 C   0  0  0  0  0  0  0  0  0  0  0  0
    2.2410    3.4180    0.4010 C   0  0  0  0  0  0  0  0  0  0  0  0
   -0.3330    1.5460   -0.4060 N   0  0  0  0  0  0  0  0  0  0  0  0
   -0.6050    0.2250   -0.2920 C   0  0  0  0  0  0  0  0  0  0  0  0
   -1.9010   -0.3290    0.0910 C   0  0  0  0  0  0  0  0  0  0  0  0
   -2.2400   -1.5700    0.3200 C   0  0  0  0  0  0  0  0  0  0  0  0
   -3.6680   -1.6050    0.6710 C   0  0  0  0  0  0  0  0  0  0  0  0
   -4.1080   -0.2130    0.6140 C   0  0  0  0  0  0  0  0  0  0  0  0
   -3.0820    0.5220    0.2770 C   0  0  0  0  0  0  0  0  0  0  0  0
   -3.2030    2.2780    0.0980 Cl  0  0  0  0  0  0  0  0  0  0  0  0
  1  2  1  0
  2  3  1  0
  3  4  1  0
  4  5  1  0
  4 10  1  0
  5  6  2  0
  6  7  1  0
  6  9  1  0
  7  8  1  0
  9 10  2  0
 10 11  1  0
 11 12  2  0
 11 15  1  0
 12 13  1  0
 13 14  1  0
 14 15  2  0
 15 16  1  0
M  END
