
     RDKit          3D

 17 16  0  0  0  0  0  0  0  0999 V2000
   -3.6220    1.4100   -0.8960 C   0  0  0  0  0  0  0  0  0  0  0  0
   -2.2540    0.8460   -0.8530 C   0  0  0  0  0  0  0  0  0  0  0  0
   -1.5150    0.9680   -2.0130 O   0  0  0  0  0  0  0  0  0  0  0  0
   -1.7460    0.2630    0.2030 C   0  0  0  0  0  0  0  0  0  0  0  0
   -0.4030   -0.3270    0.3460 C   0  0  0  0  0  0  0  0  0  0  0  0
    0.4740   -0.2880   -0.7450 N   0  0  1  0  0  0  0  0  0  0  0  0
    1.0780    1.0010   -0.8590 C   0  0  0  0  0  0  0  0  0  0  0  0
    2.4270    1.1290   -0.1980 C   0  0  0  0  0  0  0  0  0  0  0  0
    2.3840    0.8770    1.1720 O   0  0  0  0  0  0  0  0  0  0  0  0
    3.6460    1.0230    1.6390 N   0  0  0  0  0  0  0  0  0  0  0  0
    1.5540   -1.2750   -0.6340 C   0  0  0  0  0  0  0  0  0  0  0  0
    1.0700   -2.6430   -0.9150 C   0  0  0  0  0  0  0  0  0  0  0  0
   -0.2530   -2.9870   -1.2500 N   0  0  0  0  0  0  0  0  0  0  0  0
    1.9320   -3.5590   -0.8420 O   0  0  0  0  0  0  0  0  0  0  0  0
   -2.6480    0.1950    1.3950 C   0  0  0  0  0  0  0  0  0  0  0  0
   -2.1640   -0.4220    2.5720 N   0  0  0  0  0  0  0  0  0  0  0  0
   -3.7970    0.6560    1.3950 O   0  0  0  0  0  0  0  0  0  0  0  0
  1  2  1  0
  2  3  1  0
  2  4  2  3
  4  5  1  0
  4 15  1  0
  6  5  1  1
  6  7  1  0
  6 11  1  0
  7  8  1  0
  8  9  1  0
  9 10  1  0
 11 12  1  0
 12 13  1  0
 12 14  2  0
 15 16  1  0
 15 17  2  0
M  CHG  2   6   1  10   1
M  END
