
     RDKit          3D

 16 17  0  0  0  0  0  0  0  0999 V2000
   -4.4030    1.6150   -0.4860 C   0  0  0  0  0  0  0  0  0  0  0  0
   -3.3360    0.6560   -0.1290 C   0  0  0  0  0  0  0  0  0  0  0  0
   -3.6890   -0.7700    0.0400 C   0  0  0  0  0  0  0  0  0  0  0  0
   -2.1080    1.1050    0.0250 C   0  0  0  0  0  0  0  0  0  0  0  0
   -1.0230    0.2260    0.3730 N   0  0  0  0  0  0  0  0  0  0  0  0
   -0.2720   -0.4870   -0.6640 C   0  0  0  0  0  0  0  0  0  0  0  0
    0.6880   -1.3780    0.1290 C   0  0  0  0  0  0  0  0  0  0  0  0
    0.9240   -0.5110    1.3430 C   0  0  1  0  0  0  0  0  0  0  0  0
    1.7710    0.6740    0.9890 C   0  0  0  0  0  0  0  0  0  0  0  0
    3.0600    0.2500    0.4790 N   0  0  0  0  0  0  0  0  0  0  0  0
    3.3670    0.0110   -0.7910 C   0  0  0  0  0  0  0  0  0  0  0  0
    4.6900   -0.3700   -0.8600 C   0  0  0  0  0  0  0  0  0  0  0  0
    5.6140   -0.8030   -2.2900 Cl  0  0  0  0  0  0  0  0  0  0  0  0
    5.1640   -0.3510    0.4200 C   0  0  0  0  0  0  0  0  0  0  0  0
    4.1640    0.0250    1.2020 N   0  0  0  0  0  0  0  0  0  0  0  0
   -0.5020   -0.1020    1.6800 C   0  0  0  0  0  0  0  0  0  0  0  0
  1  2  1  0
  2  3  1  0
  2  4  2  3
  4  5  1  0
  5  6  1  0
  5 16  1  0
  6  7  1  0
  7  8  1  0
  8  9  1  6
  8 16  1  0
  9 10  1  0
 10 11  1  0
 10 15  1  0
 11 12  2  0
 12 13  1  0
 12 14  1  0
 14 15  2  0
M  END
