
     RDKit          3D

 16 16  0  0  0  0  0  0  0  0999 V2000
   -2.4860    3.4210   -0.1960 C   0  0  0  0  0  0  0  0  0  0  0  0
   -3.1720    2.2910   -0.1620 C   0  0  0  0  0  0  0  0  0  0  0  0
   -2.4250    1.0400   -0.1080 C   0  0  0  0  0  0  0  0  0  0  0  0
   -3.1250   -0.0980   -0.0720 C   0  0  0  0  0  0  0  0  0  0  0  0
   -2.4700   -1.3910   -0.0160 C   0  0  0  0  0  0  0  0  0  0  0  0
   -3.1950   -2.4530    0.0170 N   0  0  0  0  0  0  0  0  0  0  0  0
   -2.4390   -4.0280    0.0860 Cl  0  0  0  0  0  0  0  0  0  0  0  0
   -1.0520   -1.4280   -0.0010 N   0  0  0  0  0  0  0  0  0  0  0  0
   -0.3870   -1.1690    1.2330 C   0  0  0  0  0  0  0  0  0  0  0  0
    0.8570   -0.3200    1.1220 C   0  0  0  0  0  0  0  0  0  0  0  0
    1.4460   -0.3680   -0.1920 N   0  0  0  0  0  0  0  0  0  0  0  0
    2.8800   -0.2020   -0.1750 C   0  0  0  0  0  0  0  0  0  0  0  0
    3.3080    1.1470    0.2210 C   0  0  0  0  0  0  0  0  0  0  0  0
    4.0260    1.8840   -0.6110 C   0  0  0  0  0  0  0  0  0  0  0  0
    1.1950   -1.6880   -0.7830 C   0  0  0  0  0  0  0  0  0  0  0  0
   -0.2640   -1.7230   -1.1790 C   0  0  0  0  0  0  0  0  0  0  0  0
  1  2  2  0
  2  3  1  0
  3  4  2  3
  4  5  1  0
  5  6  2  3
  5  8  1  0
  6  7  1  0
  8  9  1  0
  8 16  1  0
  9 10  1  0
 10 11  1  0
 11 12  1  0
 11 15  1  0
 12 13  1  0
 13 14  2  0
 15 16  1  0
M  END
