
     RDKit          3D

 41 45  0  0  0  0  0  0  0  0999 V2000
    6.3450    2.1150    0.8000 C   0  0  0  0  0  0  0  0  0  0  0  0
    5.9890    1.2250   -0.3210 C   0  0  0  0  0  0  0  0  0  0  0  0
    6.8820    1.0090   -1.2230 N   0  0  0  0  0  0  0  0  0  0  0  0
    8.1400    1.5600   -1.1940 N   0  0  0  0  0  0  0  0  0  0  0  0
    9.2760    0.7210   -0.9920 C   0  0  0  0  0  0  0  0  0  0  0  0
   10.4580    0.7310   -0.9000 N   0  0  0  0  0  0  0  0  0  0  0  0
   11.2970   -0.2420   -0.7020 C   0  0  0  0  0  0  0  0  0  0  0  0
   12.7030   -0.1760   -0.6000 C   0  0  0  0  0  0  0  0  0  0  0  0
   13.4150   -1.3300   -0.3880 C   0  0  0  0  0  0  0  0  0  0  0  0
   12.8600   -2.5740   -0.2650 C   0  0  0  0  0  0  0  0  0  0  0  0
   11.4750   -2.6660   -0.3620 C   0  0  0  0  0  0  0  0  0  0  0  0
   10.7540   -1.4930   -0.5770 C   0  0  0  0  0  0  0  0  0  0  0  0
    8.9940   -1.1370   -0.7640 S   0  0  0  0  0  0  0  0  0  0  0  0
    4.6900    0.5860   -0.4550 C   0  0  0  0  0  0  0  0  0  0  0  0
    4.2850   -0.2550   -1.4670 C   0  0  0  0  0  0  0  0  0  0  0  0
    2.9670   -0.5970   -1.1390 C   0  0  0  0  0  0  0  0  0  0  0  0
    2.6640    0.0520    0.0360 C   0  0  0  0  0  0  0  0  0  0  0  0
    1.3970   -0.0100    0.7540 C   0  0  0  0  0  0  0  0  0  0  0  0
    1.1910    0.6800    1.9310 C   0  0  0  0  0  0  0  0  0  0  0  0
   -0.0190    0.5930    2.5710 C   0  0  0  0  0  0  0  0  0  0  0  0
   -1.0310   -0.1850    2.0400 C   0  0  0  0  0  0  0  0  0  0  0  0
   -0.8730   -0.8930    0.8670 C   0  0  0  0  0  0  0  0  0  0  0  0
   -2.1900   -1.8550    0.2440 S   0  0  1  0  0  0  0  0  0  0  0  0
   -1.6450   -3.0950   -0.4080 O   0  0  0  0  0  0  0  0  0  0  0  0
   -3.1040   -2.2760    1.3830 O   0  0  0  0  0  0  0  0  0  0  0  0
   -3.1770   -0.9790   -0.8690 N   0  0  0  0  0  0  0  0  0  0  0  0
   -3.8820    0.2030   -0.5180 C   0  0  0  0  0  0  0  0  0  0  0  0
   -3.7550    0.5960    0.6720 O   0  0  0  0  0  0  0  0  0  0  0  0
   -4.7250    0.9250   -1.5250 C   0  0  0  0  0  0  0  0  0  0  0  0
   -5.3980    2.1260   -0.9580 C   0  0  0  0  0  0  0  0  0  0  0  0
   -6.3330    1.8730    0.1760 C   0  0  0  0  0  0  0  0  0  0  0  0
   -7.4660    0.9460   -0.2060 C   0  0  0  0  0  0  0  0  0  0  0  0
   -8.3280    0.7880    1.0490 C   0  0  0  0  0  0  0  0  0  0  0  0
   -9.4510   -0.1180    0.7050 C   0  0  0  0  0  0  0  0  0  0  0  0
   -9.3870   -1.4850    0.8510 C   0  0  0  0  0  0  0  0  0  0  0  0
  -10.4290   -2.3320    0.5330 C   0  0  0  0  0  0  0  0  0  0  0  0
  -11.5830   -1.7260    0.0430 C   0  0  0  0  0  0  0  0  0  0  0  0
  -11.6750   -0.3710   -0.1120 C   0  0  0  0  0  0  0  0  0  0  0  0
  -10.6190    0.4270    0.2160 C   0  0  0  0  0  0  0  0  0  0  0  0
    0.3520   -0.7850    0.2480 C   0  0  0  0  0  0  0  0  0  0  0  0
    3.6960    0.7350    0.4070 O   0  0  0  0  0  0  0  0  0  0  0  0
  1  2  1  0
  2  3  2  3
  2 14  1  0
  3  4  1  0
  4  5  1  0
  5  6  2  0
  5 13  1  0
  6  7  1  0
  7  8  2  0
  7 12  1  0
  8  9  1  0
  9 10  2  0
 10 11  1  0
 11 12  2  0
 12 13  1  0
 14 15  2  0
 14 41  1  0
 15 16  1  0
 16 17  2  0
 17 18  1  0
 17 41  1  0
 18 19  2  0
 18 40  1  0
 19 20  1  0
 20 21  2  0
 21 22  1  0
 22 23  1  0
 22 40  2  0
 23 24  2  0
 23 25  2  0
 23 26  1  6
 26 27  1  0
 27 28  2  0
 27 29  1  0
 29 30  1  0
 30 31  1  0
 31 32  1  0
 32 33  1  0
 33 34  1  0
 34 35  2  0
 34 39  1  0
 35 36  1  0
 36 37  2  0
 37 38  1  0
 38 39  2  0
M  END
