
     RDKit          3D

 41 45  0  0  0  0  0  0  0  0999 V2000
   10.2190    5.3800   -0.0540 C   0  0  0  0  0  0  0  0  0  0  0  0
    9.1240    4.4800   -0.1630 N   0  0  0  0  0  0  0  0  0  0  0  0
    9.0120    3.1960    0.4690 C   0  0  0  0  0  0  0  0  0  0  0  0
    9.9690    2.8230    1.2120 O   0  0  0  0  0  0  0  0  0  0  0  0
    7.8150    2.4410    0.1970 C   0  0  0  0  0  0  0  0  0  0  0  0
    6.7700    2.3040    1.1000 C   0  0  0  0  0  0  0  0  0  0  0  0
    5.6150    1.5740    0.8120 C   0  0  0  0  0  0  0  0  0  0  0  0
    5.4390    0.9410   -0.3950 C   0  0  0  0  0  0  0  0  0  0  0  0
    4.3180    0.1560   -0.7920 C   0  0  0  0  0  0  0  0  0  0  0  0
    4.2660   -0.2060   -2.0740 O   0  0  0  0  0  0  0  0  0  0  0  0
    3.2440   -0.3070    0.0120 N   0  0  0  0  0  0  0  0  0  0  0  0
    2.2860   -1.1280   -0.7010 C   0  0  0  0  0  0  0  0  0  0  0  0
    1.0770   -1.5670   -0.0650 C   0  0  0  0  0  0  0  0  0  0  0  0
   -0.0870   -0.8590   -0.2080 C   0  0  0  0  0  0  0  0  0  0  0  0
   -1.3500   -1.3920    0.0910 C   0  0  0  0  0  0  0  0  0  0  0  0
   -1.4500   -2.6670    0.5600 C   0  0  0  0  0  0  0  0  0  0  0  0
   -0.2850   -3.4010    0.7220 C   0  0  0  0  0  0  0  0  0  0  0  0
   -0.3230   -4.6870    1.2040 O   0  0  0  0  0  0  0  0  0  0  0  0
   -0.3940   -5.8890    0.5400 C   0  0  0  0  0  0  0  0  0  0  0  0
    0.9450   -2.8840    0.4200 C   0  0  0  0  0  0  0  0  0  0  0  0
    2.1440   -3.5700    0.5580 O   0  0  0  0  0  0  0  0  0  0  0  0
    2.8440   -4.3000   -0.3530 C   0  0  0  0  0  0  0  0  0  0  0  0
   -2.7520   -3.2310    0.9660 C   0  0  0  0  0  0  0  0  0  0  0  0
   -3.8110   -2.4740    0.8740 C   0  0  0  0  0  0  0  0  0  0  0  0
   -5.1260   -3.0130    1.2520 C   0  0  0  0  0  0  0  0  0  0  0  0
   -3.7600   -1.0350    0.5050 C   0  0  2  0  0  0  0  0  0  0  0  0
   -5.0470   -0.6340   -0.0120 N   0  0  0  0  0  0  0  0  0  0  0  0
   -4.9820    0.1080   -1.2160 C   0  0  0  0  0  0  0  0  0  0  0  0
   -6.3220    0.4670   -1.6850 N   0  0  0  0  0  0  0  0  0  0  0  0
   -7.2660    1.1460   -0.8590 C   0  0  0  0  0  0  0  0  0  0  0  0
   -7.3090    2.3980   -0.4750 C   0  0  0  0  0  0  0  0  0  0  0  0
   -6.4440    3.5860   -0.7190 C   0  0  0  0  0  0  0  0  0  0  0  0
   -7.0250    4.5640    0.0160 C   0  0  0  0  0  0  0  0  0  0  0  0
   -8.1680    4.0870    0.6870 N   0  0  0  0  0  0  0  0  0  0  0  0
   -8.3230    2.8340    0.3990 C   0  0  0  0  0  0  0  0  0  0  0  0
   -9.2920    1.7890    0.7640 C   0  0  0  0  0  0  0  0  0  0  0  0
  -10.6040    1.8740    1.7230 S   0  0  0  0  0  0  0  0  0  0  0  0
   -8.6850    0.3770   -0.1300 S   0  0  0  0  0  0  0  0  0  0  0  0
   -2.5950   -0.6560   -0.3050 C   0  0  0  0  0  0  0  0  0  0  0  0
    6.5110    1.0780   -1.3160 C   0  0  0  0  0  0  0  0  0  0  0  0
    7.6390    1.7910   -1.0290 C   0  0  0  0  0  0  0  0  0  0  0  0
  1  2  1  0
  2  3  1  0
  3  4  2  0
  3  5  1  0
  5  6  2  0
  5 41  1  0
  6  7  1  0
  7  8  2  0
  8  9  1  0
  8 40  1  0
  9 10  2  0
  9 11  1  0
 11 12  1  0
 12 13  1  0
 13 14  2  0
 13 20  1  0
 14 15  1  0
 15 16  2  0
 15 39  1  0
 16 17  1  0
 16 23  1  0
 17 18  1  0
 17 20  2  0
 18 19  1  0
 20 21  1  0
 21 22  1  0
 23 24  2  0
 24 25  1  0
 24 26  1  0
 26 27  1  6
 26 39  1  0
 27 28  1  0
 28 29  1  0
 29 30  1  0
 30 31  2  0
 30 38  1  0
 31 32  1  0
 31 35  1  0
 32 33  2  0
 33 34  1  0
 34 35  2  0
 35 36  1  0
 36 37  2  0
 36 38  1  0
 40 41  2  0
M  CHG  1  34   1
M  END
