
     RDKit          3D

 41 44  0  0  0  0  0  0  0  0999 V2000
   -3.2010    5.8040    2.6170 C   0  0  0  0  0  0  0  0  0  0  0  0
   -3.8660    4.8400    1.7210 N   0  0  0  0  0  0  0  0  0  0  0  0
   -3.6390    3.4780    1.8950 C   0  0  0  0  0  0  0  0  0  0  0  0
   -2.8180    3.1700    2.8550 O   0  0  0  0  0  0  0  0  0  0  0  0
   -4.1950    2.3860    1.1410 C   0  0  0  0  0  0  0  0  0  0  0  0
   -3.3710    1.2540    0.9810 C   0  0  0  0  0  0  0  0  0  0  0  0
   -3.7310    0.1210    0.2870 C   0  0  0  0  0  0  0  0  0  0  0  0
   -2.7110   -0.9420    0.0950 C   0  0  0  0  0  0  0  0  0  0  0  0
   -2.9550   -2.1960    0.0750 C   0  0  0  0  0  0  0  0  0  0  0  0
   -4.1670   -3.0140    0.2280 C   0  0  0  0  0  0  0  0  0  0  0  0
   -4.5400   -3.7940   -0.9030 N   0  0  0  0  0  0  0  0  0  0  0  0
   -3.7600   -5.0010   -1.1000 C   0  0  1  0  0  0  0  0  0  0  0  0
   -2.6200   -4.7750   -2.0640 C   0  0  0  0  0  0  0  0  0  0  0  0
   -3.3000   -5.6520    0.1690 C   0  0  0  0  0  0  0  0  0  0  0  0
   -4.6900   -6.0120   -1.7860 C   0  0  0  0  0  0  0  0  0  0  0  0
   -1.3810   -0.4130   -0.1100 N   0  0  0  0  0  0  0  0  0  0  0  0
   -0.2360   -1.1270   -0.3580 C   0  0  0  0  0  0  0  0  0  0  0  0
   -0.2060   -2.3580   -0.4390 O   0  0  0  0  0  0  0  0  0  0  0  0
    1.0800   -0.4720   -0.5530 C   0  0  0  0  0  0  0  0  0  0  0  0
    1.3810    0.8340   -0.5330 C   0  0  0  0  0  0  0  0  0  0  0  0
    2.6780    1.1920   -0.7390 C   0  0  0  0  0  0  0  0  0  0  0  0
    3.5740    0.2320   -0.9470 C   0  0  0  0  0  0  0  0  0  0  0  0
    5.0630    0.2730   -1.1940 C   0  0  0  0  0  0  0  0  0  0  0  0
    5.8200    0.2220    0.4250 S   0  0  0  0  0  0  0  0  0  0  0  0
    7.5950    0.1240    0.4410 C   0  0  2  0  0  0  0  0  0  0  0  0
    8.0270    0.0830    1.9190 C   0  0  0  0  0  0  0  0  0  0  0  0
    9.5080   -0.1790    2.0650 C   0  0  0  0  0  0  0  0  0  0  0  0
   10.3030    0.1380    0.8160 C   0  0  0  0  0  0  0  0  0  0  0  0
    9.6980    1.2740    0.0630 C   0  0  0  0  0  0  0  0  0  0  0  0
   10.1920    2.3770   -0.5170 N   0  0  0  0  0  0  0  0  0  0  0  0
    9.2110    3.0960   -1.0790 C   0  0  0  0  0  0  0  0  0  0  0  0
    8.0340    2.4050   -0.8390 C   0  0  0  0  0  0  0  0  0  0  0  0
    8.3120    1.2740   -0.1330 C   0  0  0  0  0  0  0  0  0  0  0  0
    2.6030   -1.2400   -0.8600 S   0  0  0  0  0  0  0  0  0  0  0  0
   -4.9720    0.1200   -0.2730 C   0  0  0  0  0  0  0  0  0  0  0  0
   -5.4260   -0.8520   -0.9510 O   0  0  0  0  0  0  0  0  0  0  0  0
   -5.7740    1.2160   -0.1150 N   0  0  0  0  0  0  0  0  0  0  0  0
   -5.4190    2.3190    0.5610 C   0  0  0  0  0  0  0  0  0  0  0  0
   -6.4390    3.3950    0.7160 C   0  0  0  0  0  0  0  0  0  0  0  0
   -7.6060    3.0980   -0.0370 O   0  0  0  0  0  0  0  0  0  0  0  0
   -7.3320    3.3370   -1.3970 C   0  0  0  0  0  0  0  0  0  0  0  0
  1  2  1  0
  2  3  1  0
  3  4  2  0
  3  5  1  0
  5  6  1  0
  5 38  2  0
  6  7  2  0
  7  8  1  0
  7 35  1  0
  8  9  2  3
  8 16  1  0
  9 10  1  0
 10 11  1  0
 11 12  1  0
 12 13  1  6
 12 14  1  0
 12 15  1  0
 16 17  1  0
 17 18  2  0
 17 19  1  0
 19 20  2  0
 19 34  1  0
 20 21  1  0
 21 22  2  0
 22 23  1  0
 22 34  1  0
 23 24  1  0
 25 24  1  1
 25 26  1  0
 25 33  1  0
 26 27  1  0
 27 28  1  0
 28 29  1  0
 29 30  1  0
 29 33  2  0
 30 31  1  0
 31 32  2  0
 32 33  1  0
 35 36  2  0
 35 37  1  0
 37 38  1  0
 38 39  1  0
 39 40  1  0
 40 41  1  0
M  CHG  1  11   1
M  END
