
     RDKit          3D

 41 45  0  0  0  0  0  0  0  0999 V2000
   -2.4250   -2.3370    1.8470 C   0  0  0  0  0  0  0  0  0  0  0  0
   -3.6820   -2.3830    1.0270 C   0  0  0  0  0  0  0  0  0  0  0  0
   -4.7130   -3.1560    1.4540 C   0  0  0  0  0  0  0  0  0  0  0  0
   -5.8650   -3.2420    0.7280 C   0  0  0  0  0  0  0  0  0  0  0  0
   -5.9580   -2.5380   -0.4540 C   0  0  0  0  0  0  0  0  0  0  0  0
   -7.0870   -2.7000   -1.2210 C   0  0  0  0  0  0  0  0  0  0  0  0
   -7.2250   -2.1040   -2.4650 C   0  0  0  0  0  0  0  0  0  0  0  0
   -6.1650   -1.3400   -2.8990 C   0  0  0  0  0  0  0  0  0  0  0  0
   -5.0380   -1.1850   -2.1160 C   0  0  0  0  0  0  0  0  0  0  0  0
   -4.8730   -1.7530   -0.8670 C   0  0  0  0  0  0  0  0  0  0  0  0
   -3.7140   -1.6260   -0.1660 C   0  0  0  0  0  0  0  0  0  0  0  0
   -2.5560   -0.8260   -0.5430 C   0  0  0  0  0  0  0  0  0  0  0  0
   -2.6840    0.6240   -0.5420 N   0  0  0  0  0  0  0  0  0  0  0  0
   -1.4980    1.4180   -0.2290 C   0  0  0  0  0  0  0  0  0  0  0  0
   -0.1750    0.7740   -0.1850 C   0  0  0  0  0  0  0  0  0  0  0  0
    0.0470   -0.3910   -0.5310 O   0  0  0  0  0  0  0  0  0  0  0  0
    0.9590    1.4850    0.2900 N   0  0  0  0  0  0  0  0  0  0  0  0
    2.2440    1.1970    0.4830 N   0  0  0  0  0  0  0  0  0  0  0  0
    3.0070   -0.0120    0.5580 C   0  0  0  0  0  0  0  0  0  0  0  0
    2.3990   -1.0560    0.3720 O   0  0  0  0  0  0  0  0  0  0  0  0
    4.4730    0.1510    0.8770 C   0  0  0  0  0  0  0  0  0  0  0  0
    5.2840   -1.0370    1.0670 C   0  0  2  0  0  0  0  0  0  0  0  0
    6.6710   -0.6430    1.4290 N   0  0  0  0  0  0  0  0  0  0  0  0
    7.2390    0.1270    0.3670 C   0  0  0  0  0  0  0  0  0  0  0  0
    7.8110    1.4590    0.8280 C   0  0  0  0  0  0  0  0  0  0  0  0
    6.8170    2.2660    1.4720 N   0  0  0  0  0  0  0  0  0  0  0  0
    5.3590   -1.9430   -0.0500 C   0  0  0  0  0  0  0  0  0  0  0  0
    5.7590   -3.2220   -0.1810 C   0  0  0  0  0  0  0  0  0  0  0  0
    5.7680   -3.8110   -1.3790 C   0  0  0  0  0  0  0  0  0  0  0  0
    5.3700   -3.1160   -2.4890 C   0  0  0  0  0  0  0  0  0  0  0  0
    4.9420   -1.4990   -1.8120 S   0  0  0  0  0  0  0  0  0  0  0  0
   -1.5840    2.6920    0.1180 C   0  0  0  0  0  0  0  0  0  0  0  0
   -2.7440    3.4990    0.2440 C   0  0  0  0  0  0  0  0  0  0  0  0
   -2.6180    4.7960    0.7440 C   0  0  0  0  0  0  0  0  0  0  0  0
   -3.7290    5.5900    0.9830 C   0  0  0  0  0  0  0  0  0  0  0  0
   -4.9880    5.0950    0.7260 C   0  0  0  0  0  0  0  0  0  0  0  0
   -5.0860    3.8000    0.2290 C   0  0  0  0  0  0  0  0  0  0  0  0
   -3.9790    3.0660    0.0070 C   0  0  0  0  0  0  0  0  0  0  0  0
   -4.1420    1.4800   -0.7580 S   0  0  1  0  0  0  0  0  0  0  0  0
   -4.4800    1.8080   -2.1950 O   0  0  0  0  0  0  0  0  0  0  0  0
   -5.3190    0.8210   -0.0440 O   0  0  0  0  0  0  0  0  0  0  0  0
  1  2  1  0
  2  3  2  0
  2 11  1  0
  3  4  1  0
  4  5  2  0
  5  6  1  0
  5 10  1  0
  6  7  2  0
  7  8  1  0
  8  9  2  0
  9 10  1  0
 10 11  2  0
 11 12  1  0
 12 13  1  0
 13 14  1  0
 39 13  1  6
 14 15  1  0
 14 32  2  0
 15 16  2  0
 15 17  1  0
 17 18  1  0
 18 19  1  0
 19 20  2  0
 19 21  1  0
 22 21  1  6
 22 23  1  0
 22 27  1  0
 23 24  1  0
 24 25  1  0
 25 26  1  0
 27 28  2  0
 27 31  1  0
 28 29  1  0
 29 30  2  0
 30 31  1  0
 32 33  1  0
 33 34  2  0
 33 38  1  0
 34 35  1  0
 35 36  2  0
 36 37  1  0
 37 38  2  0
 38 39  1  0
 39 40  2  0
 39 41  2  0
M  CHG  1  23   1
M  END
