
     RDKit          3D

 40 44  0  0  0  0  0  0  0  0999 V2000
   -0.1800    4.3010   -2.6940 C   0  0  0  0  0  0  0  0  0  0  0  0
    0.2020    3.6700   -1.4630 O   0  0  0  0  0  0  0  0  0  0  0  0
    0.4770    2.3330   -1.3750 C   0  0  0  0  0  0  0  0  0  0  0  0
    0.3920    1.6360   -2.4060 O   0  0  0  0  0  0  0  0  0  0  0  0
    0.8760    1.6480   -0.1130 C   0  0  2  0  0  0  0  0  0  0  0  0
    0.7840    2.4170    1.1110 C   0  0  0  0  0  0  0  0  0  0  0  0
    1.6470    3.6590    1.1230 C   0  0  0  0  0  0  0  0  0  0  0  0
    1.4240    4.3190    2.3770 O   0  0  0  0  0  0  0  0  0  0  0  0
    2.4180    1.6010   -0.4320 C   0  0  0  0  0  0  0  0  0  0  0  0
    3.1610    0.8940    0.6070 C   0  0  0  0  0  0  0  0  0  0  0  0
    2.7440   -0.5430    0.5310 C   0  0  0  0  0  0  0  0  0  0  0  0
    3.6340   -1.5340    0.8340 C   0  0  0  0  0  0  0  0  0  0  0  0
    5.0330   -1.1620    1.1570 C   0  0  0  0  0  0  0  0  0  0  0  0
    5.7410   -0.8630   -0.1020 C   0  0  0  0  0  0  0  0  0  0  0  0
    5.1970   -0.9500   -1.2080 O   0  0  0  0  0  0  0  0  0  0  0  0
    7.0650   -0.4690   -0.0520 O   0  0  0  0  0  0  0  0  0  0  0  0
    7.7110   -0.1970   -1.2060 O   0  0  0  0  0  0  0  0  0  0  0  0
    3.2590   -2.8410    0.8280 C   0  0  0  0  0  0  0  0  0  0  0  0
    4.1220   -3.9190    1.1290 N   0  0  0  0  0  0  0  0  0  0  0  0
    1.9370   -3.1620    0.5020 C   0  0  0  0  0  0  0  0  0  0  0  0
    1.5670   -4.4960    0.5060 O   0  0  0  0  0  0  0  0  0  0  0  0
    1.0750   -2.1680    0.2030 C   0  0  0  0  0  0  0  0  0  0  0  0
   -0.2710   -2.4640   -0.0720 C   0  0  0  0  0  0  0  0  0  0  0  0
   -0.6180   -3.8900   -0.1480 C   0  0  0  0  0  0  0  0  0  0  0  0
   -1.2160   -1.5430   -0.3250 C   0  0  0  0  0  0  0  0  0  0  0  0
   -0.8000   -0.1810   -0.3180 C   0  0  0  0  0  0  0  0  0  0  0  0
    0.4950    0.2060   -0.0660 C   0  0  0  0  0  0  0  0  0  0  0  0
    1.4290   -0.7990    0.2000 C   0  0  0  0  0  0  0  0  0  0  0  0
   -1.8050    0.8910   -0.5230 C   0  0  1  0  0  0  0  0  0  0  0  0
   -2.3250    1.0300   -1.7760 O   0  0  0  0  0  0  0  0  0  0  0  0
   -3.0400    0.6330    0.3670 C   0  0  2  0  0  0  0  0  0  0  0  0
   -4.2960    1.2040   -0.2480 C   0  0  0  0  0  0  0  0  0  0  0  0
   -4.7690    2.2310    0.7890 C   0  0  0  0  0  0  0  0  0  0  0  0
   -3.4360    2.5400    1.4610 C   0  0  0  0  0  0  0  0  0  0  0  0
   -2.9110    1.2680    1.6140 O   0  0  0  0  0  0  0  0  0  0  0  0
   -3.1760   -0.8360    0.6800 C   0  0  0  0  0  0  0  0  0  0  0  0
   -2.6400   -1.6620   -0.5250 C   0  0  2  0  0  0  0  0  0  0  0  0
   -3.4310   -2.8160   -0.7410 C   0  0  0  0  0  0  0  0  0  0  0  0
   -4.9180   -2.3980   -0.9260 C   0  0  0  0  0  0  0  0  0  0  0  0
   -5.6500   -3.6030   -1.1860 O   0  0  0  0  0  0  0  0  0  0  0  0
  1  2  1  0
  2  3  1  0
  3  4  2  0
  3  5  1  0
  5  6  1  1
  5  9  1  0
  5 27  1  0
  6  7  1  0
  7  8  1  0
  9 10  1  0
 10 11  1  0
 11 12  1  0
 11 28  2  0
 12 13  1  0
 12 18  2  0
 13 14  1  0
 14 15  2  0
 14 16  1  0
 16 17  1  0
 18 19  1  0
 18 20  1  0
 20 21  1  0
 20 22  2  0
 22 23  1  0
 22 28  1  0
 23 24  1  0
 23 25  2  0
 25 26  1  0
 25 37  1  0
 26 27  2  0
 26 29  1  0
 27 28  1  0
 29 30  1  6
 29 31  1  0
 31 32  1  6
 31 35  1  0
 31 36  1  0
 32 33  1  0
 33 34  1  0
 34 35  1  0
 36 37  1  0
 37 38  1  1
 38 39  1  0
 39 40  1  0
M  END
