
     RDKit          3D

 41 45  0  0  0  0  0  0  0  0999 V2000
   -5.9000    3.9390   -0.4640 C   0  0  0  0  0  0  0  0  0  0  0  0
   -5.8990    2.9200    0.6630 C   0  0  1  0  0  0  0  0  0  0  0  0
   -7.2100    2.9690    1.4080 C   0  0  0  0  0  0  0  0  0  0  0  0
   -7.2650    2.1430    2.6400 C   0  0  0  0  0  0  0  0  0  0  0  0
   -5.9360    1.7770    3.2330 C   0  0  2  0  0  0  0  0  0  0  0  0
   -5.2690    2.8780    3.7600 O   0  0  0  0  0  0  0  0  0  0  0  0
   -5.0230    1.0200    2.3370 C   0  0  0  0  0  0  0  0  0  0  0  0
   -5.6500    0.5740    1.0360 C   0  0  2  0  0  0  0  0  0  0  0  0
   -4.9390   -0.6480    0.5490 C   0  0  0  0  0  0  0  0  0  0  0  0
   -3.5310   -0.4090    0.3210 N   0  0  0  0  0  0  0  0  0  0  0  0
   -2.6950   -1.4560   -0.1460 C   0  0  0  0  0  0  0  0  0  0  0  0
   -3.2510   -2.5830   -0.3470 O   0  0  0  0  0  0  0  0  0  0  0  0
   -1.3100   -1.2840   -0.3840 N   0  0  0  0  0  0  0  0  0  0  0  0
   -0.5280   -2.3910   -0.8580 C   0  0  0  0  0  0  0  0  0  0  0  0
    0.9040   -2.0040   -1.0340 C   0  0  0  0  0  0  0  0  0  0  0  0
    1.5730   -0.3950   -0.7000 S   0  0  0  0  0  0  0  0  0  0  0  0
    3.2570   -0.8150   -1.1570 C   0  0  0  0  0  0  0  0  0  0  0  0
    4.3480    0.1000   -1.1130 N   0  0  0  0  0  0  0  0  0  0  0  0
    4.0460    1.7090   -0.5780 S   0  0  1  0  0  0  0  0  0  0  0  0
    5.3250    2.4660   -0.5940 O   0  0  0  0  0  0  0  0  0  0  0  0
    3.0110    2.3070   -1.4780 O   0  0  0  0  0  0  0  0  0  0  0  0
    3.4560    1.6450    1.1050 C   0  0  0  0  0  0  0  0  0  0  0  0
    3.1750    2.9990    1.6320 C   0  0  0  0  0  0  0  0  0  0  0  0
    1.9110    3.5210    1.4620 C   0  0  0  0  0  0  0  0  0  0  0  0
    1.6340    4.7820    1.9490 C   0  0  0  0  0  0  0  0  0  0  0  0
    2.6080    5.5090    2.5970 C   0  0  0  0  0  0  0  0  0  0  0  0
    3.8660    4.9710    2.7570 C   0  0  0  0  0  0  0  0  0  0  0  0
    4.1690    3.7070    2.2770 C   0  0  0  0  0  0  0  0  0  0  0  0
    3.1690   -2.1430   -1.5250 C   0  0  0  0  0  0  0  0  0  0  0  0
    1.9690   -2.7340   -1.4580 C   0  0  0  0  0  0  0  0  0  0  0  0
    2.1080   -4.1910   -1.9180 C   0  0  0  0  0  0  0  0  0  0  0  0
    3.3780   -4.1240   -2.7520 C   0  0  0  0  0  0  0  0  0  0  0  0
    4.1900   -3.1260   -2.0050 C   0  0  0  0  0  0  0  0  0  0  0  0
    5.4730   -3.1470   -1.8070 C   0  0  0  0  0  0  0  0  0  0  0  0
    6.3280   -4.1910   -2.3580 C   0  0  0  0  0  0  0  0  0  0  0  0
    6.1440   -4.6610   -3.6310 C   0  0  0  0  0  0  0  0  0  0  0  0
    6.9870   -5.6670   -4.1000 C   0  0  0  0  0  0  0  0  0  0  0  0
    7.9850   -6.1780   -3.2990 C   0  0  0  0  0  0  0  0  0  0  0  0
    8.1280   -5.6740   -2.0360 C   0  0  0  0  0  0  0  0  0  0  0  0
    7.3160   -4.7180   -1.6090 N   0  0  0  0  0  0  0  0  0  0  0  0
   -5.6650    1.6290    0.0530 N   0  0  0  0  0  0  0  0  0  0  0  0
  2  1  1  6
  2  3  1  0
  2 41  1  0
  3  4  1  0
  4  5  1  0
  5  6  1  6
  5  7  1  0
  7  8  1  0
  8  9  1  6
  8 41  1  0
  9 10  1  0
 10 11  1  0
 11 12  2  0
 11 13  1  0
 13 14  1  0
 14 15  1  0
 15 16  1  0
 15 30  2  0
 16 17  1  0
 17 18  1  0
 17 29  2  0
 18 19  1  0
 19 20  2  0
 19 21  2  0
 19 22  1  1
 22 23  1  0
 23 24  2  0
 23 28  1  0
 24 25  1  0
 25 26  2  0
 26 27  1  0
 27 28  2  0
 29 30  1  0
 29 33  1  0
 30 31  1  0
 31 32  1  0
 32 33  1  0
 33 34  2  3
 34 35  1  0
 35 36  2  0
 35 40  1  0
 36 37  1  0
 37 38  2  0
 38 39  1  0
 39 40  2  0
M  CHG  1  41   1
M  END
