
     RDKit          3D

 17 18  0  0  0  0  0  0  0  0999 V2000
   -3.7580   -1.0080    0.7420 N   0  0  0  0  0  0  0  0  0  0  0  0
   -2.8130   -0.4230   -0.1460 C   0  0  0  0  0  0  0  0  0  0  0  0
   -1.6730    0.2060    0.3740 C   0  0  0  0  0  0  0  0  0  0  0  0
   -1.4910    0.2470    1.7540 O   0  0  0  0  0  0  0  0  0  0  0  0
   -0.7520    0.7720   -0.4260 N   0  0  0  0  0  0  0  0  0  0  0  0
    0.4130    1.4110    0.1320 C   0  0  0  0  0  0  0  0  0  0  0  0
    1.5860    0.5590    0.3160 C   0  0  0  0  0  0  0  0  0  0  0  0
    2.5150    0.4300   -0.6890 C   0  0  0  0  0  0  0  0  0  0  0  0
    3.6130   -0.3730   -0.5000 C   0  0  0  0  0  0  0  0  0  0  0  0
    3.7930   -1.0470    0.6790 C   0  0  0  0  0  0  0  0  0  0  0  0
    2.8940   -0.9540    1.7180 C   0  0  0  0  0  0  0  0  0  0  0  0
    1.7960   -0.1320    1.4880 C   0  0  0  0  0  0  0  0  0  0  0  0
   -0.9840    0.7020   -1.7380 C   0  0  0  0  0  0  0  0  0  0  0  0
   -0.1450    1.2230   -2.5270 O   0  0  0  0  0  0  0  0  0  0  0  0
   -2.0870    0.0950   -2.2760 N   0  0  0  0  0  0  0  0  0  0  0  0
   -3.0220   -0.4790   -1.5050 C   0  0  0  0  0  0  0  0  0  0  0  0
   -4.0340   -1.0360   -1.9970 O   0  0  0  0  0  0  0  0  0  0  0  0
  1  2  1  0
  2  3  2  0
  2 16  1  0
  3  4  1  0
  3  5  1  0
  5  6  1  0
  5 13  1  0
  6  7  1  0
  7  8  2  0
  7 12  1  0
  8  9  1  0
  9 10  2  0
 10 11  1  0
 11 12  2  0
 13 14  2  0
 13 15  1  0
 15 16  1  0
 16 17  2  0
M  END
