
     RDKit          3D

 12 11  0  0  0  0  0  0  0  0999 V2000
   -2.8370   -1.2780   -0.3040 C   0  0  0  0  0  0  0  0  0  0  0  0
   -2.2600   -0.2300    0.6250 C   0  0  2  0  0  0  0  0  0  0  0  0
   -3.3420    0.4450    1.2000 O   0  0  0  0  0  0  0  0  0  0  0  0
   -1.5640    0.6740   -0.1370 O   0  0  0  0  0  0  0  0  0  0  0  0
   -0.2140    0.7770    0.2080 C   0  0  2  0  0  0  0  0  0  0  0  0
   -0.0180    2.1380    0.8000 C   0  0  0  0  0  0  0  0  0  0  0  0
    1.2980    2.3710    1.1890 O   0  0  0  0  0  0  0  0  0  0  0  0
    0.5470    0.3830   -0.7990 O   0  0  0  0  0  0  0  0  0  0  0  0
    1.3340   -0.6870   -0.7980 C   0  0  1  0  0  0  0  0  0  0  0  0
    1.0810   -1.6690   -1.7310 O   0  0  0  0  0  0  0  0  0  0  0  0
    2.8080   -0.2910   -0.8960 C   0  0  0  0  0  0  0  0  0  0  0  0
    3.6140   -1.4440   -0.8930 O   0  0  0  0  0  0  0  0  0  0  0  0
  2  1  1  6
  2  3  1  0
  2  4  1  0
  4  5  1  0
  5  6  1  6
  5  8  1  0
  6  7  1  0
  8  9  1  0
  9 10  1  6
  9 11  1  0
 11 12  1  0
M  END
