
     RDKit          3D

 12 11  0  0  0  0  0  0  0  0999 V2000
   -0.6790    2.3000    0.5440 C   0  0  0  0  0  0  0  0  0  0  0  0
   -1.0300    1.0910   -0.0050 O   0  0  0  0  0  0  0  0  0  0  0  0
   -0.3300    0.0190    0.5600 C   0  0  2  0  0  0  0  0  0  0  0  0
   -0.6080   -0.0270    1.9500 O   0  0  0  0  0  0  0  0  0  0  0  0
    1.0060    0.2220    0.4510 O   0  0  0  0  0  0  0  0  0  0  0  0
    1.5430    0.3590   -0.7970 C   0  0  0  0  0  0  0  0  0  0  0  0
    3.0400    0.5990   -0.6060 C   0  0  0  0  0  0  0  0  0  0  0  0
    3.6490   -0.4480    0.0490 O   0  0  0  0  0  0  0  0  0  0  0  0
   -0.8500   -1.2340   -0.0820 C   0  0  2  0  0  0  0  0  0  0  0  0
   -0.7030   -1.2640   -1.4600 O   0  0  0  0  0  0  0  0  0  0  0  0
   -2.3080   -1.4860    0.2950 C   0  0  0  0  0  0  0  0  0  0  0  0
   -2.6550   -2.7510   -0.2030 O   0  0  0  0  0  0  0  0  0  0  0  0
  1  2  1  0
  2  3  1  0
  3  4  1  1
  3  5  1  0
  3  9  1  0
  5  6  1  0
  6  7  1  0
  7  8  1  0
  9 10  1  6
  9 11  1  0
 11 12  1  0
M  END
