
     RDKit          3D

 12 11  0  0  0  0  0  0  0  0999 V2000
    4.5740    0.1160    0.2710 C   0  0  0  0  0  0  0  0  0  0  0  0
    3.5490   -0.8270    0.3210 O   0  0  0  0  0  0  0  0  0  0  0  0
    2.3560   -0.1490    0.1590 C   0  0  0  0  0  0  0  0  0  0  0  0
    1.2490   -0.9890    0.1910 O   0  0  0  0  0  0  0  0  0  0  0  0
    0.1200   -0.1560    0.0140 C   0  0  0  0  0  0  0  0  0  0  0  0
   -1.1520   -0.9560    0.0300 C   0  0  1  0  0  0  0  0  0  0  0  0
   -1.2550   -1.6010    1.2540 O   0  0  0  0  0  0  0  0  0  0  0  0
   -2.3180   -0.0620   -0.2350 C   0  0  1  0  0  0  0  0  0  0  0  0
   -2.1770    0.5620   -1.4620 O   0  0  0  0  0  0  0  0  0  0  0  0
   -3.5230   -0.7640   -0.2740 O   0  0  0  0  0  0  0  0  0  0  0  0
   -2.4500    0.9770    0.8430 C   0  0  0  0  0  0  0  0  0  0  0  0
   -3.5810    1.7860    0.6060 O   0  0  0  0  0  0  0  0  0  0  0  0
  1  2  1  0
  2  3  1  0
  3  4  1  0
  4  5  1  0
  5  6  1  0
  6  7  1  1
  6  8  1  0
  8  9  1  6
  8 10  1  0
  8 11  1  0
 11 12  1  0
M  END
