
     RDKit          3D

 12 11  0  0  0  0  0  0  0  0999 V2000
   -3.7200    0.9660    1.1240 C   0  0  0  0  0  0  0  0  0  0  0  0
   -3.7680    0.4660   -0.1680 O   0  0  0  0  0  0  0  0  0  0  0  0
   -2.5210    0.2820   -0.7300 C   0  0  0  0  0  0  0  0  0  0  0  0
   -1.6600   -0.6950    0.0540 C   0  0  1  0  0  0  0  0  0  0  0  0
   -2.3000   -1.9300    0.1010 O   0  0  0  0  0  0  0  0  0  0  0  0
   -0.5000   -0.8740   -0.6970 O   0  0  0  0  0  0  0  0  0  0  0  0
    0.6390   -0.5100    0.0470 C   0  0  0  0  0  0  0  0  0  0  0  0
    1.7270   -0.7290   -0.7960 O   0  0  0  0  0  0  0  0  0  0  0  0
    2.9280   -0.4090   -0.1900 C   0  0  1  0  0  0  0  0  0  0  0  0
    3.7430   -1.5370   -0.2300 O   0  0  0  0  0  0  0  0  0  0  0  0
    3.5380    0.7410   -0.9700 C   0  0  0  0  0  0  0  0  0  0  0  0
    2.6300    1.8060   -0.9110 O   0  0  0  0  0  0  0  0  0  0  0  0
  1  2  1  0
  2  3  1  0
  3  4  1  0
  4  5  1  6
  4  6  1  0
  6  7  1  0
  7  8  1  0
  8  9  1  0
  9 10  1  6
  9 11  1  0
 11 12  1  0
M  END
