
     RDKit          3D

 12 11  0  0  0  0  0  0  0  0999 V2000
    3.7570   -0.4690   -0.4960 O   0  0  0  0  0  0  0  0  0  0  0  0
    2.6590   -0.6150    0.3490 C   0  0  0  0  0  0  0  0  0  0  0  0
    1.5220    0.3180   -0.0960 C   0  0  2  0  0  0  0  0  0  0  0  0
    2.0870    1.6150   -0.0080 O   0  0  0  0  0  0  0  0  0  0  0  0
    0.4700    0.2880    0.7570 O   0  0  0  0  0  0  0  0  0  0  0  0
   -0.7640    0.0590    0.2470 C   0  0  1  0  0  0  0  0  0  0  0  0
   -0.9090   -1.2620   -0.4730 C   0  0  0  0  0  0  0  0  0  0  0  0
   -2.2170   -1.3740   -0.9460 O   0  0  0  0  0  0  0  0  0  0  0  0
   -1.7100   -0.0270    1.4580 C   0  0  0  0  0  0  0  0  0  0  0  0
   -1.3080   -1.0660    2.2870 O   0  0  0  0  0  0  0  0  0  0  0  0
   -1.3170    1.1300   -0.6380 C   0  0  0  0  0  0  0  0  0  0  0  0
   -0.5650    1.3970   -1.7600 O   0  0  0  0  0  0  0  0  0  0  0  0
  1  2  1  0
  2  3  1  0
  3  4  1  1
  3  5  1  0
  5  6  1  0
  6  7  1  6
  6  9  1  0
  6 11  1  0
  7  8  1  0
  9 10  1  0
 11 12  1  0
M  END
