
     RDKit          3D

 12 11  0  0  0  0  0  0  0  0999 V2000
    3.1600    1.1060    0.3550 C   0  0  0  0  0  0  0  0  0  0  0  0
    2.5140    0.1970    1.1540 O   0  0  0  0  0  0  0  0  0  0  0  0
    1.5230   -0.4930    0.4620 C   0  0  1  0  0  0  0  0  0  0  0  0
    1.9470   -1.8590    0.4270 O   0  0  0  0  0  0  0  0  0  0  0  0
    0.3080   -0.5290    1.0960 O   0  0  0  0  0  0  0  0  0  0  0  0
   -0.7770   -0.1070    0.3450 C   0  0  2  0  0  0  0  0  0  0  0  0
   -0.6350    1.2880   -0.1090 C   0  0  0  0  0  0  0  0  0  0  0  0
   -1.7810    1.6530   -0.8600 O   0  0  0  0  0  0  0  0  0  0  0  0
   -1.9880   -0.1820    1.2870 C   0  0  0  0  0  0  0  0  0  0  0  0
   -2.1360   -1.5150    1.7170 O   0  0  0  0  0  0  0  0  0  0  0  0
   -1.0070   -1.1190   -0.7350 C   0  0  0  0  0  0  0  0  0  0  0  0
   -2.0420   -0.8650   -1.5760 O   0  0  0  0  0  0  0  0  0  0  0  0
  1  2  1  0
  2  3  1  0
  3  4  1  1
  3  5  1  0
  5  6  1  0
  6  7  1  6
  6  9  1  0
  6 11  1  0
  7  8  1  0
  9 10  1  0
 11 12  1  0
M  END
