
     RDKit          3D

 30 33  0  0  0  0  0  0  0  0999 V2000
    2.3220   -1.6700    1.1830 O   0  0  0  0  0  0  0  0  0  0  0  0
    2.0500   -0.4990    0.8160 C   0  0  0  0  0  0  0  0  0  0  0  0
    3.1480    0.3550    0.3220 C   0  0  0  0  0  0  0  0  0  0  0  0
    4.7240   -0.5310    0.3580 S   0  0  0  0  0  0  0  0  0  0  0  0
    6.0170    0.5370   -0.2510 C   0  0  0  0  0  0  0  0  0  0  0  0
    5.6960    1.7570   -0.6230 C   0  0  0  0  0  0  0  0  0  0  0  0
    6.6750    2.6420   -1.1100 N   0  0  0  0  0  0  0  0  0  0  0  0
    8.0100    2.1950   -1.1920 C   0  0  0  0  0  0  0  0  0  0  0  0
    8.3910    0.9560   -0.8250 C   0  0  0  0  0  0  0  0  0  0  0  0
    9.6880    0.4760   -0.8890 O   0  0  0  0  0  0  0  0  0  0  0  0
    9.5510   -1.1530   -0.2900 S   0  0  0  0  0  0  0  0  0  0  0  0
    7.8160   -1.1140    0.0080 N   0  0  0  0  0  0  0  0  0  0  0  0
    7.4200    0.0520   -0.3320 C   0  0  0  0  0  0  0  0  0  0  0  0
    0.7120   -0.0510    0.8900 N   0  0  0  0  0  0  0  0  0  0  0  0
   -0.2660   -0.9370    1.3730 N   0  0  0  0  0  0  0  0  0  0  0  0
   -1.2870   -1.4450    0.5520 C   0  0  0  0  0  0  0  0  0  0  0  0
   -1.3220   -1.0960   -0.6410 O   0  0  0  0  0  0  0  0  0  0  0  0
   -2.3150   -2.3810    1.0750 C   0  0  0  0  0  0  0  0  0  0  0  0
   -3.2540   -2.7690    0.0700 N   0  0  2  0  0  0  0  0  0  0  0  0
   -2.6010   -3.1360   -1.0670 O   0  0  0  0  0  0  0  0  0  0  0  0
   -4.1850   -1.7410   -0.2430 C   0  0  0  0  0  0  0  0  0  0  0  0
   -5.1650   -1.9380   -1.1910 C   0  0  0  0  0  0  0  0  0  0  0  0
   -6.0820   -0.9660   -1.5220 C   0  0  0  0  0  0  0  0  0  0  0  0
   -6.0350    0.2810   -0.8820 C   0  0  0  0  0  0  0  0  0  0  0  0
   -5.0700    0.5070    0.0660 C   0  0  0  0  0  0  0  0  0  0  0  0
   -4.1510   -0.5160    0.3730 C   0  0  0  0  0  0  0  0  0  0  0  0
   -5.2350    1.8730    0.5780 C   0  0  0  0  0  0  0  0  0  0  0  0
   -6.3840    2.4250   -0.1550 C   0  0  0  0  0  0  0  0  0  0  0  0
   -6.8930    3.5960   -0.0350 O   0  0  0  0  0  0  0  0  0  0  0  0
   -6.8540    1.4280   -1.0420 N   0  0  0  0  0  0  0  0  0  0  0  0
  1  2  2  0
  2  3  1  0
  2 14  1  0
  3  4  1  0
  4  5  1  0
  5  6  2  0
  5 13  1  0
  6  7  1  0
  7  8  1  0
  8  9  2  0
  9 10  1  0
  9 13  1  0
 10 11  1  0
 11 12  1  0
 12 13  2  0
 14 15  1  0
 15 16  1  0
 16 17  2  0
 16 18  1  0
 18 19  1  0
 19 20  1  6
 19 21  1  0
 21 22  2  0
 21 26  1  0
 22 23  1  0
 23 24  2  0
 24 25  1  0
 24 30  1  0
 25 26  2  0
 25 27  1  0
 27 28  1  0
 28 29  2  0
 28 30  1  0
M  CHG  2  19   1  20  -1
M  END
