
     RDKit          3D

 30 33  0  0  0  0  0  0  0  0999 V2000
   -3.8720   -2.1480   -0.6890 O   0  0  0  0  0  0  0  0  0  0  0  0
   -3.4700   -0.9850   -0.8960 C   0  0  0  0  0  0  0  0  0  0  0  0
   -2.3040   -0.7940   -1.8550 C   0  0  0  0  0  0  0  0  0  0  0  0
   -1.8390    0.9470   -1.7820 S   0  0  0  0  0  0  0  0  0  0  0  0
   -1.0690    1.2920   -0.2000 C   0  0  0  0  0  0  0  0  0  0  0  0
    0.3080    0.6790   -0.1990 C   0  0  0  0  0  0  0  0  0  0  0  0
    0.7330    0.0840   -1.2990 C   0  0  0  0  0  0  0  0  0  0  0  0
    1.9940   -0.5710   -1.5500 N   0  0  0  0  0  0  0  0  0  0  0  0
    3.2550   -0.3580   -0.9170 C   0  0  0  0  0  0  0  0  0  0  0  0
    4.3330   -0.7960   -1.6540 C   0  0  0  0  0  0  0  0  0  0  0  0
    5.6320   -0.6740   -1.2070 C   0  0  0  0  0  0  0  0  0  0  0  0
    6.8550   -0.9880   -1.6700 N   0  0  0  0  0  0  0  0  0  0  0  0
    7.7430   -0.6170   -0.7810 O   0  0  0  0  0  0  0  0  0  0  0  0
    7.1750   -0.0760    0.2460 N   0  0  0  0  0  0  0  0  0  0  0  0
    7.6760    0.3940    1.2790 O   0  0  0  0  0  0  0  0  0  0  0  0
    5.8410   -0.0830    0.0340 C   0  0  0  0  0  0  0  0  0  0  0  0
    4.7430    0.3630    0.7840 C   0  0  0  0  0  0  0  0  0  0  0  0
    4.9810    1.1160    2.3670 S   0  0  0  0  0  0  0  0  0  0  0  0
    5.1700    2.8030    2.1370 O   0  0  0  0  0  0  0  0  0  0  0  0
    3.4650    0.2260    0.3110 C   0  0  0  0  0  0  0  0  0  0  0  0
    2.4730    0.7420    1.2110 N   0  0  0  0  0  0  0  0  0  0  0  0
    1.0600    0.8040    1.0440 C   0  0  0  0  0  0  0  0  0  0  0  0
    0.3580    0.9830    2.0600 O   0  0  0  0  0  0  0  0  0  0  0  0
   -4.0720    0.1160   -0.2700 N   0  0  0  0  0  0  0  0  0  0  0  0
   -5.1510    0.0350    0.6350 C   0  0  0  0  0  0  0  0  0  0  0  0
   -5.6750   -1.0870    1.2070 C   0  0  0  0  0  0  0  0  0  0  0  0
   -6.7590   -1.0800    2.0840 C   0  0  0  0  0  0  0  0  0  0  0  0
   -7.3360    0.0850    2.3980 N   0  0  0  0  0  0  0  0  0  0  0  0
   -6.8580    1.2220    1.8610 C   0  0  0  0  0  0  0  0  0  0  0  0
   -5.7910    1.2390    0.9950 C   0  0  0  0  0  0  0  0  0  0  0  0
  1  2  2  0
  2  3  1  0
  2 24  1  0
  3  4  1  0
  4  5  1  0
  5  6  1  0
  6  7  2  0
  6 22  1  0
  7  8  1  0
  8  9  1  0
  9 10  2  0
  9 20  1  0
 10 11  1  0
 11 12  1  0
 11 16  2  0
 12 13  1  0
 13 14  1  0
 14 15  2  0
 14 16  1  0
 16 17  1  0
 17 18  1  0
 17 20  2  0
 18 19  1  0
 20 21  1  0
 21 22  1  0
 22 23  2  0
 24 25  1  0
 25 26  2  0
 25 30  1  0
 26 27  1  0
 27 28  2  0
 28 29  1  0
 29 30  2  0
M  CHG  2  14   1  19  -1
M  END
