
     RDKit          3D

 30 33  0  0  0  0  0  0  0  0999 V2000
   -7.0940   -1.1340    0.6620 C   0  0  0  0  0  0  0  0  0  0  0  0
   -6.4620   -0.2580   -0.0960 C   0  0  0  0  0  0  0  0  0  0  0  0
   -7.0120    0.4410   -1.2570 C   0  0  0  0  0  0  0  0  0  0  0  0
   -8.2180    0.3090   -1.7310 N   0  0  0  0  0  0  0  0  0  0  0  0
   -5.9940    1.2490   -1.7250 O   0  0  0  0  0  0  0  0  0  0  0  0
   -4.8380    1.1200   -0.9520 C   0  0  0  0  0  0  0  0  0  0  0  0
   -3.5860    1.7030   -1.0160 C   0  0  0  0  0  0  0  0  0  0  0  0
   -2.5650    1.4190   -0.1220 C   0  0  0  0  0  0  0  0  0  0  0  0
   -1.3300    2.0290   -0.2260 O   0  0  0  0  0  0  0  0  0  0  0  0
   -0.2150    1.8690    0.5540 C   0  0  0  0  0  0  0  0  0  0  0  0
    0.3400    0.5010    0.5560 C   0  0  0  0  0  0  0  0  0  0  0  0
    0.6020   -0.3570    1.5510 N   0  0  0  0  0  0  0  0  0  0  0  0
    1.1100   -1.4750    1.0190 N   0  0  0  0  0  0  0  0  0  0  0  0
    1.1830   -1.3560   -0.3070 C   0  0  0  0  0  0  0  0  0  0  0  0
    1.7820   -2.5270   -1.5090 S   0  0  0  0  0  0  0  0  0  0  0  0
    3.5630   -2.2160   -1.7030 C   0  0  1  0  0  0  0  0  0  0  0  0
    3.7920   -0.9160   -2.2870 N   0  0  0  0  0  0  0  0  0  0  0  0
    4.8930   -0.2250   -1.7630 C   0  0  0  0  0  0  0  0  0  0  0  0
    5.6520    0.5250   -2.4650 O   0  0  0  0  0  0  0  0  0  0  0  0
    5.0930   -0.4390   -0.3500 C   0  0  0  0  0  0  0  0  0  0  0  0
    5.7600    0.2770    0.5040 C   0  0  0  0  0  0  0  0  0  0  0  0
    5.8860   -0.0640    1.9490 C   0  0  0  0  0  0  0  0  0  0  0  0
    7.2610   -0.2530    2.3340 N   0  0  0  0  0  0  0  0  0  0  0  0
    8.1700   -0.1170    1.4980 O   0  0  0  0  0  0  0  0  0  0  0  0
    7.5850   -0.5810    3.6210 O   0  0  0  0  0  0  0  0  0  0  0  0
    4.2000   -1.9400    0.0010 S   0  0  0  0  0  0  0  0  0  0  0  0
    0.7060   -0.1350   -0.5900 N   0  0  0  0  0  0  0  0  0  0  0  0
   -2.8370    0.5060    0.8730 C   0  0  0  0  0  0  0  0  0  0  0  0
   -4.1000   -0.0990    0.9570 C   0  0  0  0  0  0  0  0  0  0  0  0
   -5.0900    0.2070    0.0520 C   0  0  0  0  0  0  0  0  0  0  0  0
  1  2  2  0
  2  3  1  0
  2 30  1  0
  3  4  2  0
  3  5  1  0
  5  6  1  0
  6  7  2  0
  6 30  1  0
  7  8  1  0
  8  9  1  0
  8 28  2  0
  9 10  1  0
 10 11  1  0
 11 12  2  0
 11 27  1  0
 12 13  1  0
 13 14  2  0
 14 15  1  0
 14 27  1  0
 16 15  1  1
 16 17  1  0
 16 26  1  0
 17 18  1  0
 18 19  2  0
 18 20  1  0
 20 21  2  3
 20 26  1  0
 21 22  1  0
 22 23  1  0
 23 24  2  0
 23 25  1  0
 28 29  1  0
 29 30  2  0
M  CHG  2  23   1  25  -1
M  END
