
     RDKit          3D

 30 33  0  0  0  0  0  0  0  0999 V2000
   -5.5760    2.7700    2.9130 C   0  0  0  0  0  0  0  0  0  0  0  0
   -4.7870    1.9790    1.9240 C   0  0  0  0  0  0  0  0  0  0  0  0
   -3.2920    2.4140    1.1480 S   0  0  0  0  0  0  0  0  0  0  0  0
   -3.0990    0.9210    0.1650 C   0  0  0  0  0  0  0  0  0  0  0  0
   -1.9800    0.7300   -0.7090 C   0  0  0  0  0  0  0  0  0  0  0  0
   -1.1160    1.6980   -0.7300 O   0  0  0  0  0  0  0  0  0  0  0  0
   -1.6700   -0.3320   -1.5420 N   0  0  0  0  0  0  0  0  0  0  0  0
   -0.4430   -0.3570   -2.3780 C   0  0  0  0  0  0  0  0  0  0  0  0
    0.8100   -0.3140   -1.5690 C   0  0  0  0  0  0  0  0  0  0  0  0
    1.9950   -0.3590   -2.5330 C   0  0  0  0  0  0  0  0  0  0  0  0
    3.1780   -0.3130   -1.7170 N   0  0  0  0  0  0  0  0  0  0  0  0
    3.7610   -1.3880   -1.2520 N   0  0  0  0  0  0  0  0  0  0  0  0
    4.8450   -1.4250   -0.4970 C   0  0  0  0  0  0  0  0  0  0  0  0
    5.5200   -0.2330   -0.0940 C   0  0  0  0  0  0  0  0  0  0  0  0
    4.8740    0.8920   -0.6050 C   0  0  0  0  0  0  0  0  0  0  0  0
    5.9220    2.2180    0.0490 S   0  0  0  0  0  0  0  0  0  0  0  0
    7.1300    1.1600    0.9480 C   0  0  0  0  0  0  0  0  0  0  0  0
    8.1980    1.1400    1.6920 N   0  0  0  0  0  0  0  0  0  0  0  0
    8.4460   -0.1760    1.9380 C   0  0  0  0  0  0  0  0  0  0  0  0
    7.5130   -0.9140    1.3300 N   0  0  0  0  0  0  0  0  0  0  0  0
    6.6120   -0.0800    0.6570 C   0  0  0  0  0  0  0  0  0  0  0  0
    3.7600    0.8810   -1.3790 C   0  0  0  0  0  0  0  0  0  0  0  0
    3.2690    1.9470   -1.7800 O   0  0  0  0  0  0  0  0  0  0  0  0
   -4.2230    0.2340    0.5440 C   0  0  0  0  0  0  0  0  0  0  0  0
   -4.4820   -1.1450   -0.0660 C   0  0  2  0  0  0  0  0  0  0  0  0
   -4.8910   -0.9580   -1.3890 O   0  0  0  0  0  0  0  0  0  0  0  0
   -5.5960   -1.8990    0.6080 C   0  0  0  0  0  0  0  0  0  0  0  0
   -5.3560   -2.1850    1.9320 O   0  0  0  0  0  0  0  0  0  0  0  0
   -5.0490    0.7520    1.4040 N   0  0  0  0  0  0  0  0  0  0  0  0
   -6.2590    0.1260    1.8520 O   0  0  0  0  0  0  0  0  0  0  0  0
  1  2  1  0
  2  3  1  0
  2 29  2  0
  3  4  1  0
  4  5  1  0
  4 24  2  0
  5  6  2  0
  5  7  1  0
  7  8  1  0
  8  9  1  0
  9 10  1  0
 10 11  1  0
 11 12  1  0
 11 22  1  0
 12 13  2  0
 13 14  1  0
 14 15  2  0
 14 21  1  0
 15 16  1  0
 15 22  1  0
 16 17  1  0
 17 18  1  0
 17 21  2  0
 18 19  2  0
 19 20  1  0
 20 21  1  0
 22 23  2  0
 24 25  1  0
 24 29  1  0
 25 26  1  6
 25 27  1  0
 27 28  1  0
 29 30  1  0
M  CHG  2  29   1  30  -1
M  END
