
     RDKit          3D

 30 32  0  0  0  0  0  0  0  0999 V2000
    3.4490    1.2030   -1.8230 C   0  0  0  0  0  0  0  0  0  0  0  0
    4.1490    0.1790   -0.9550 C   0  0  0  0  0  0  0  0  0  0  0  0
    5.3020    0.3920   -0.4110 N   0  0  0  0  0  0  0  0  0  0  0  0
    5.9760   -0.3470    0.2710 C   0  0  0  0  0  0  0  0  0  0  0  0
    7.1880   -0.4020    0.9590 O   0  0  0  0  0  0  0  0  0  0  0  0
    7.1990   -0.1100    2.3530 C   0  0  0  0  0  0  0  0  0  0  0  0
    6.6860    1.3190    2.5000 C   0  0  0  0  0  0  0  0  0  0  0  0
    7.5010    2.2130    1.8140 O   0  0  0  0  0  0  0  0  0  0  0  0
    4.8660   -1.8680    0.3000 S   0  0  0  0  0  0  0  0  0  0  0  0
    3.5930   -1.0730   -0.7320 C   0  0  0  0  0  0  0  0  0  0  0  0
    2.3820   -1.7080   -1.0890 C   0  0  0  0  0  0  0  0  0  0  0  0
    1.1770   -1.2210   -0.8540 C   0  0  0  0  0  0  0  0  0  0  0  0
    0.0620   -2.0370   -1.3070 C   0  0  0  0  0  0  0  0  0  0  0  0
    0.3600   -3.2800   -1.9780 N   0  0  0  0  0  0  0  0  0  0  0  0
   -1.1720   -1.7260   -1.1480 C   0  0  0  0  0  0  0  0  0  0  0  0
   -1.7440   -0.2670   -0.3570 S   0  0  0  0  0  0  0  0  0  0  0  0
   -3.5470   -0.2410   -0.2350 C   0  0  0  0  0  0  0  0  0  0  0  0
   -4.0600    0.8020    0.3180 N   0  0  0  0  0  0  0  0  0  0  0  0
   -5.4470    1.1070    0.5530 C   0  0  0  0  0  0  0  0  0  0  0  0
   -5.6560    2.3110    1.0230 C   0  0  0  0  0  0  0  0  0  0  0  0
   -7.0070    2.8600    1.3470 C   0  0  0  0  0  0  0  0  0  0  0  0
   -8.0140    1.9330    1.0830 O   0  0  0  0  0  0  0  0  0  0  0  0
   -7.8130    0.6520    0.5850 C   0  0  0  0  0  0  0  0  0  0  0  0
   -6.5950    0.2390    0.3260 C   0  0  0  0  0  0  0  0  0  0  0  0
   -6.5620   -1.0880   -0.1790 N   0  0  0  0  0  0  0  0  0  0  0  0
   -5.4350   -1.7640   -0.7660 C   0  0  0  0  0  0  0  0  0  0  0  0
   -4.2020   -1.3880   -0.7720 N   0  0  0  0  0  0  0  0  0  0  0  0
    0.9760    0.0150   -0.1870 N   0  0  0  0  0  0  0  0  0  0  0  0
    0.5480    1.0590   -0.6870 O   0  0  0  0  0  0  0  0  0  0  0  0
    1.2910    0.0620    1.1520 O   0  0  0  0  0  0  0  0  0  0  0  0
  1  2  1  0
  2  3  1  0
  2 10  2  0
  3  4  2  0
  4  5  1  0
  4  9  1  0
  5  6  1  0
  6  7  1  0
  7  8  1  0
  9 10  1  0
 10 11  1  0
 11 12  2  3
 12 13  1  0
 12 28  1  0
 13 14  1  0
 13 15  2  3
 15 16  1  0
 16 17  1  0
 17 18  2  0
 17 27  1  0
 18 19  1  0
 19 20  2  0
 19 24  1  0
 20 21  1  0
 21 22  1  0
 22 23  1  0
 23 24  2  0
 24 25  1  0
 25 26  1  0
 26 27  2  0
 28 29  2  0
 28 30  1  0
M  CHG  2  28   1  30  -1
M  END
