
     RDKit          3D

 30 33  0  0  0  0  0  0  0  0999 V2000
   -3.5660    3.6060    0.5640 C   0  0  0  0  0  0  0  0  0  0  0  0
   -2.2500    3.6490    1.1500 N   0  0  0  0  0  0  0  0  0  0  0  0
   -1.8810    2.1510    1.8650 S   0  0  2  0  0  0  0  0  0  0  0  0
   -2.9550    1.9080    2.9400 O   0  0  0  0  0  0  0  0  0  0  0  0
   -0.5900    2.2590    2.6100 O   0  0  0  0  0  0  0  0  0  0  0  0
   -1.8490    0.8070    0.7650 C   0  0  0  0  0  0  0  0  0  0  0  0
   -0.7530    0.5340   -0.0660 C   0  0  0  0  0  0  0  0  0  0  0  0
    0.3190    1.4600   -0.0630 N   0  0  0  0  0  0  0  0  0  0  0  0
    1.5470    1.3290   -0.8040 C   0  0  0  0  0  0  0  0  0  0  0  0
    2.5900    0.5320   -0.0950 C   0  0  1  0  0  0  0  0  0  0  0  0
    2.1670   -0.8740    0.2000 C   0  0  0  0  0  0  0  0  0  0  0  0
    3.7760    0.4380   -0.9400 N   0  0  0  0  0  0  0  0  0  0  0  0
    4.9860   -0.0940   -0.4540 C   0  0  0  0  0  0  0  0  0  0  0  0
    5.9900   -0.4210   -1.3720 C   0  0  0  0  0  0  0  0  0  0  0  0
    7.2080   -0.9280   -1.0010 C   0  0  0  0  0  0  0  0  0  0  0  0
    7.4450   -1.1200    0.3160 N   0  0  0  0  0  0  0  0  0  0  0  0
    6.5280   -0.8290    1.2560 C   0  0  0  0  0  0  0  0  0  0  0  0
    5.2910   -0.3120    0.8590 C   0  0  0  0  0  0  0  0  0  0  0  0
   -0.7410   -0.5380   -0.8750 N   0  0  0  0  0  0  0  0  0  0  0  0
   -1.7780   -1.3940   -0.9230 C   0  0  0  0  0  0  0  0  0  0  0  0
   -2.8520   -1.1200   -0.1030 C   0  0  0  0  0  0  0  0  0  0  0  0
   -2.9210   -0.0500    0.7360 C   0  0  0  0  0  0  0  0  0  0  0  0
   -4.4640   -0.1710    1.5430 S   0  0  2  0  0  0  0  0  0  0  0  0
   -5.2690    1.0580    1.4460 O   0  0  0  0  0  0  0  0  0  0  0  0
   -4.3350   -0.7000    2.9320 O   0  0  0  0  0  0  0  0  0  0  0  0
   -5.1240   -1.4170    0.4740 N   0  0  0  0  0  0  0  0  0  0  0  0
   -3.9770   -2.0240   -0.1140 C   0  0  1  0  0  0  0  0  0  0  0  0
   -4.1880   -2.4380   -1.5490 C   0  0  0  0  0  0  0  0  0  0  0  0
   -3.1010   -2.9770   -2.1480 O   0  0  0  0  0  0  0  0  0  0  0  0
   -1.8550   -2.5900   -1.7920 C   0  0  0  0  0  0  0  0  0  0  0  0
  1  2  1  0
  3  2  1  6
  3  4  2  0
  3  5  2  0
  3  6  1  0
  6  7  2  0
  6 22  1  0
  7  8  1  0
  7 19  1  0
  8  9  1  0
  9 10  1  0
 10 11  1  6
 10 12  1  0
 12 13  1  0
 13 14  2  0
 13 18  1  0
 14 15  1  0
 15 16  2  0
 16 17  1  0
 17 18  2  0
 19 20  2  0
 20 21  1  0
 20 30  1  0
 21 22  2  0
 21 27  1  0
 22 23  1  0
 23 24  2  0
 23 25  2  0
 23 26  1  6
 26 27  1  0
 27 28  1  6
 28 29  1  0
 29 30  1  0
M  END
