
     RDKit          3D

 29 31  0  0  0  0  0  0  0  0999 V2000
    0.2010    2.3290   -2.3240 N   0  0  0  0  0  0  0  0  0  0  0  0
   -1.0030    3.2540   -1.4930 S   0  0  2  0  0  0  0  0  0  0  0  0
   -1.7290    4.0200   -2.6270 O   0  0  0  0  0  0  0  0  0  0  0  0
   -0.2460    4.2900   -0.6860 O   0  0  0  0  0  0  0  0  0  0  0  0
   -2.0370    2.3120   -0.6530 N   0  0  0  0  0  0  0  0  0  0  0  0
   -2.2020    1.3660    0.1110 C   0  0  0  0  0  0  0  0  0  0  0  0
   -3.6320    1.0170    0.5190 C   0  0  0  0  0  0  0  0  0  0  0  0
   -3.5850    0.4760    1.8390 N   0  0  0  0  0  0  0  0  0  0  0  0
   -4.8280    0.4540    2.5210 C   0  0  0  0  0  0  0  0  0  0  0  0
   -5.2760   -0.9310    2.9290 C   0  0  0  0  0  0  0  0  0  0  0  0
   -5.0910   -1.9420    1.8470 C   0  0  0  0  0  0  0  0  0  0  0  0
   -3.7470   -1.8640    1.1630 C   0  0  0  0  0  0  0  0  0  0  0  0
   -2.9260   -0.8090    1.8910 C   0  0  1  0  0  0  0  0  0  0  0  0
   -1.5280   -0.7480    1.3630 C   0  0  0  0  0  0  0  0  0  0  0  0
   -1.2300    0.5240    0.6930 N   0  0  0  0  0  0  0  0  0  0  0  0
    0.1760    0.8920    0.6660 C   0  0  0  0  0  0  0  0  0  0  0  0
    0.8710   -0.1110   -0.2230 C   0  0  0  0  0  0  0  0  0  0  0  0
    2.3420    0.1940   -0.3260 C   0  0  0  0  0  0  0  0  0  0  0  0
    2.7740    1.1720    0.3100 O   0  0  0  0  0  0  0  0  0  0  0  0
    3.1650   -0.6290   -1.1270 N   0  0  0  0  0  0  0  0  0  0  0  0
    4.5560   -0.4510   -1.3010 C   0  0  0  0  0  0  0  0  0  0  0  0
    5.3250    0.4240   -0.5760 C   0  0  0  0  0  0  0  0  0  0  0  0
    6.7160    0.5250   -0.7540 C   0  0  0  0  0  0  0  0  0  0  0  0
    7.3680   -0.2540   -1.6690 C   0  0  0  0  0  0  0  0  0  0  0  0
    6.6230   -1.1340   -2.4050 C   0  0  0  0  0  0  0  0  0  0  0  0
    5.2280   -1.2330   -2.2260 C   0  0  0  0  0  0  0  0  0  0  0  0
    4.5620   -2.1590   -3.0370 N   0  0  0  0  0  0  0  0  0  0  0  0
    5.2360   -3.1880   -3.3960 O   0  0  0  0  0  0  0  0  0  0  0  0
    3.2950   -2.1380   -3.5030 O   0  0  0  0  0  0  0  0  0  0  0  0
  2  1  1  6
  2  3  2  0
  2  4  2  0
  2  5  1  0
  5  6  2  3
  6  7  1  0
  6 15  1  0
  7  8  1  0
  8  9  1  0
  8 13  1  0
  9 10  1  0
 10 11  1  0
 11 12  1  0
 13 12  1  6
 13 14  1  0
 14 15  1  0
 15 16  1  0
 16 17  1  0
 17 18  1  0
 18 19  2  0
 18 20  1  0
 20 21  1  0
 21 22  2  0
 21 26  1  0
 22 23  1  0
 23 24  2  0
 24 25  1  0
 25 26  2  0
 26 27  1  0
 27 28  2  0
 27 29  1  0
M  CHG  2  27   1  29  -1
M  END
