
     RDKit          3D

 31 34  0  0  0  0  0  0  0  0999 V2000
   -3.7150    3.7130   -3.3840 C   0  0  0  0  0  0  0  0  0  0  0  0
   -3.4580    2.4650   -2.5780 C   0  0  0  0  0  0  0  0  0  0  0  0
   -4.1980    1.9480   -1.5350 C   0  0  0  0  0  0  0  0  0  0  0  0
   -3.7560    0.8070   -0.9720 C   0  0  0  0  0  0  0  0  0  0  0  0
   -4.4960    0.1750    0.1650 C   0  0  0  0  0  0  0  0  0  0  0  0
   -4.1100   -0.8820    0.7070 O   0  0  0  0  0  0  0  0  0  0  0  0
   -5.6570    0.7260    0.6850 O   0  0  0  0  0  0  0  0  0  0  0  0
   -6.3450    0.1130    1.7620 C   0  0  0  0  0  0  0  0  0  0  0  0
   -7.5490    0.9900    2.0510 C   0  0  0  0  0  0  0  0  0  0  0  0
   -7.0030    2.6260    2.4930 Cl  0  0  0  0  0  0  0  0  0  0  0  0
   -2.6420    0.2400   -1.4400 C   0  0  0  0  0  0  0  0  0  0  0  0
   -1.9350   -0.9820   -1.0300 C   0  0  0  0  0  0  0  0  0  0  0  0
   -1.9400   -1.8950   -0.2780 N   0  0  0  0  0  0  0  0  0  0  0  0
   -1.1280   -2.8900   -0.1400 C   0  0  0  0  0  0  0  0  0  0  0  0
   -0.0500   -2.9050   -1.0280 C   0  0  0  0  0  0  0  0  0  0  0  0
    1.0570   -3.8830   -1.1890 C   0  0  0  0  0  0  0  0  0  0  0  0
    2.4640   -3.5830   -0.1050 S   0  0  0  0  0  0  0  0  0  0  0  0
    3.2850   -2.0530   -0.5380 C   0  0  1  0  0  0  0  0  0  0  0  0
    2.5150   -0.8120   -0.2770 C   0  0  0  0  0  0  0  0  0  0  0  0
    3.3760   -0.0010    0.6070 C   0  0  0  0  0  0  0  0  0  0  0  0
    3.1220    1.0950    1.1850 O   0  0  0  0  0  0  0  0  0  0  0  0
    4.6470   -0.6530    0.7510 N   0  0  0  0  0  0  0  0  0  0  0  0
    5.8630   -0.0990    1.2810 C   0  0  1  0  0  0  0  0  0  0  0  0
    6.2840    1.0490    0.3900 C   0  0  0  0  0  0  0  0  0  0  0  0
    6.9150    1.8820    1.3160 O   0  0  0  0  0  0  0  0  0  0  0  0
    6.2160    1.7710    2.4960 C   0  0  0  0  0  0  0  0  0  0  0  0
    5.7180    0.4360    2.6050 N   0  0  0  0  0  0  0  0  0  0  0  0
    4.5380   -1.9870    0.2760 C   0  0  0  0  0  0  0  0  0  0  0  0
    5.3030   -2.9570    0.4660 O   0  0  0  0  0  0  0  0  0  0  0  0
   -0.3560   -1.4210   -1.9880 S   0  0  0  0  0  0  0  0  0  0  0  0
   -2.1400    1.3330   -2.7530 S   0  0  0  0  0  0  0  0  0  0  0  0
  1  2  1  0
  2  3  2  0
  2 31  1  0
  3  4  1  0
  4  5  1  0
  4 11  2  0
  5  6  2  0
  5  7  1  0
  7  8  1  0
  8  9  1  0
  9 10  1  0
 11 12  1  0
 11 31  1  0
 12 13  2  0
 12 30  1  0
 13 14  1  0
 14 15  2  0
 15 16  1  0
 15 30  1  0
 16 17  1  0
 18 17  1  1
 18 19  1  0
 18 28  1  0
 19 20  1  0
 20 21  2  0
 20 22  1  0
 23 22  1  6
 22 28  1  0
 23 24  1  0
 23 27  1  0
 24 25  1  0
 25 26  1  0
 26 27  1  0
 28 29  2  0
M  END
