
     RDKit          3D

 31 34  0  0  0  0  0  0  0  0999 V2000
   -7.2200   -1.3260   -4.7650 C   0  0  0  0  0  0  0  0  0  0  0  0
   -6.3830   -1.9110   -4.0550 O   0  0  0  0  0  0  0  0  0  0  0  0
   -5.3970   -2.3670   -3.2600 C   0  0  0  0  0  0  0  0  0  0  0  0
   -4.5380   -1.2940   -2.7860 C   0  0  0  0  0  0  0  0  0  0  0  0
   -3.4970   -1.6430   -1.9610 C   0  0  0  0  0  0  0  0  0  0  0  0
   -2.8560   -0.5000   -1.1910 C   0  0  0  0  0  0  0  0  0  0  0  0
   -1.4310   -0.9540   -0.2730 S   0  0  0  0  0  0  0  0  0  0  0  0
    0.0760   -0.3980   -1.0630 C   0  0  0  0  0  0  0  0  0  0  0  0
    1.1900   -0.4330   -0.2920 N   0  0  0  0  0  0  0  0  0  0  0  0
    2.2770    0.0910   -1.1570 C   0  0  0  0  0  0  0  0  0  0  0  0
    3.2650    0.8020   -0.6830 C   0  0  0  0  0  0  0  0  0  0  0  0
    3.2730    1.0770    0.7820 C   0  0  0  0  0  0  0  0  0  0  0  0
    2.0890    0.3310    1.7980 Cl  0  0  0  0  0  0  0  0  0  0  0  0
    4.2490    1.9030    1.2310 C   0  0  0  0  0  0  0  0  0  0  0  0
    4.2860    2.1700    2.6050 C   0  0  0  0  0  0  0  0  0  0  0  0
    3.4770    1.5820    3.4350 O   0  0  0  0  0  0  0  0  0  0  0  0
    5.2000    3.1120    3.2750 N   0  0  0  0  0  0  0  0  0  0  0  0
    4.8930    3.0230    4.6870 C   0  0  0  0  0  0  0  0  0  0  0  0
    4.7140    2.9960    5.6790 N   0  0  0  0  0  0  0  0  0  0  0  0
    4.9120    3.3840    7.0060 C   0  0  0  0  0  0  0  0  0  0  0  0
    6.5130    3.4850    6.9160 C   0  0  0  0  0  0  0  0  0  0  0  0
    6.4330    4.4230    5.3270 S   0  0  0  0  0  0  0  0  0  0  0  0
    1.8930   -0.3410   -2.4820 C   0  0  0  0  0  0  0  0  0  0  0  0
    0.3750    0.1230   -2.3860 C   0  0  0  0  0  0  0  0  0  0  0  0
   -3.2540   -2.8950   -1.6070 C   0  0  0  0  0  0  0  0  0  0  0  0
   -4.0810   -3.9960   -2.0470 C   0  0  0  0  0  0  0  0  0  0  0  0
   -5.1120   -3.6440   -2.8540 C   0  0  0  0  0  0  0  0  0  0  0  0
   -5.9100   -4.7930   -3.2370 O   0  0  0  0  0  0  0  0  0  0  0  0
   -5.6480   -5.8380   -1.8220 S   0  0  0  0  0  0  0  0  0  0  0  0
   -6.2580   -5.0450   -0.6270 O   0  0  0  0  0  0  0  0  0  0  0  0
   -3.9340   -5.3120   -1.7510 O   0  0  0  0  0  0  0  0  0  0  0  0
  1  2  1  0
  2  3  1  0
  3  4  2  0
  3 27  1  0
  4  5  1  0
  5  6  1  0
  5 25  2  0
  6  7  1  0
  7  8  1  0
  8  9  2  0
  8 24  1  0
  9 10  1  0
 10 11  2  3
 10 23  1  0
 11 12  1  0
 12 13  1  0
 12 14  2  3
 14 15  1  0
 15 16  2  0
 15 17  1  0
 17 18  1  0
 18 19  2  0
 18 22  1  0
 19 20  1  0
 20 21  1  0
 21 22  1  0
 23 24  1  0
 25 26  1  0
 26 27  2  0
 26 31  1  0
 27 28  1  0
 29 28  1  6
 29 30  2  0
 29 31  1  0
M  END
