
     RDKit          3D

 41 44  0  0  0  0  0  0  0  0999 V2000
    6.2380    3.1610    1.3620 C   0  0  0  0  0  0  0  0  0  0  0  0
    5.5220    2.7890    2.6160 C   0  0  0  0  0  0  0  0  0  0  0  0
    3.9880    2.8630    2.3970 C   0  0  0  0  0  0  0  0  0  0  0  0
    3.7180    1.9800    1.2550 C   0  0  0  0  0  0  0  0  0  0  0  0
    4.1070    0.5160    1.4220 C   0  0  0  0  0  0  0  0  0  0  0  0
    3.4740   -0.3650    0.7240 C   0  0  0  0  0  0  0  0  0  0  0  0
    3.6870   -1.8070    0.7070 C   0  0  0  0  0  0  0  0  0  0  0  0
    4.8730   -2.3020    1.2250 C   0  0  0  0  0  0  0  0  0  0  0  0
    5.5190   -1.6700    2.1920 F   0  0  0  0  0  0  0  0  0  0  0  0
    5.2920   -3.5270    0.6900 C   0  0  0  0  0  0  0  0  0  0  0  0
    6.5630   -4.0610    1.2780 C   0  0  0  0  0  0  0  0  0  0  0  0
    4.6070   -4.2120   -0.2770 C   0  0  0  0  0  0  0  0  0  0  0  0
    3.4180   -3.7190   -0.7720 C   0  0  0  0  0  0  0  0  0  0  0  0
    2.6590   -4.4070   -1.6900 C   0  0  0  0  0  0  0  0  0  0  0  0
    3.1640   -5.5710   -2.2180 F   0  0  0  0  0  0  0  0  0  0  0  0
    1.4360   -3.9420   -2.1020 C   0  0  0  0  0  0  0  0  0  0  0  0
    0.5010   -4.8180   -3.2950 Cl  0  0  0  0  0  0  0  0  0  0  0  0
    0.9780   -2.7650   -1.5660 C   0  0  0  0  0  0  0  0  0  0  0  0
    1.7250   -2.0230   -0.6270 C   0  0  0  0  0  0  0  0  0  0  0  0
    0.9670   -1.0140    0.1590 C   0  0  0  0  0  0  0  0  0  0  0  0
   -0.2130   -0.6250   -0.3710 O   0  0  0  0  0  0  0  0  0  0  0  0
   -0.6800   -0.0940   -1.4670 C   0  0  0  0  0  0  0  0  0  0  0  0
    0.0370    0.2580   -2.5660 C   0  0  0  0  0  0  0  0  0  0  0  0
   -0.5420    0.8260   -3.6840 C   0  0  0  0  0  0  0  0  0  0  0  0
   -1.8560    1.0440   -3.7300 C   0  0  0  0  0  0  0  0  0  0  0  0
   -2.5560    1.5930   -4.7300 O   0  0  0  0  0  0  0  0  0  0  0  0
   -2.3840    2.1020   -5.9600 C   0  0  0  0  0  0  0  0  0  0  0  0
   -2.6380    0.6800   -2.5830 C   0  0  0  0  0  0  0  0  0  0  0  0
   -3.9780    0.8480   -2.7010 F   0  0  0  0  0  0  0  0  0  0  0  0
   -2.1000    0.1400   -1.4930 C   0  0  0  0  0  0  0  0  0  0  0  0
   -2.8000   -0.3410   -0.2620 C   0  0  0  0  0  0  0  0  0  0  0  0
   -3.5710    0.5940    0.4260 N   0  0  0  0  0  0  0  0  0  0  0  0
   -4.7980    1.1840    0.1390 C   0  0  2  0  0  0  0  0  0  0  0  0
   -4.5950    2.6660   -0.2400 C   0  0  0  0  0  0  0  0  0  0  0  0
   -5.6400    1.1910    1.4140 C   0  0  0  0  0  0  0  0  0  0  0  0
   -6.2180    0.1260    1.8960 C   0  0  0  0  0  0  0  0  0  0  0  0
   -6.2050   -1.2570    1.3630 C   0  0  0  0  0  0  0  0  0  0  0  0
   -6.9120    0.5430    3.1620 C   0  0  0  0  0  0  0  0  0  0  0  0
   -7.1080    2.0280    2.9110 C   0  0  0  0  0  0  0  0  0  0  0  0
   -5.8920    2.3030    2.1890 O   0  0  0  0  0  0  0  0  0  0  0  0
    2.9390   -2.4860   -0.2550 C   0  0  0  0  0  0  0  0  0  0  0  0
  1  2  1  0
  2  3  1  0
  3  4  1  0
  4  5  1  0
  5  6  2  3
  6  7  1  0
  7  8  2  0
  7 41  1  0
  8  9  1  0
  8 10  1  0
 10 11  1  0
 10 12  2  0
 12 13  1  0
 13 14  2  0
 13 41  1  0
 14 15  1  0
 14 16  1  0
 16 17  1  0
 16 18  2  0
 18 19  1  0
 19 20  1  0
 19 41  2  0
 20 21  1  0
 21 22  1  0
 22 23  2  0
 22 30  1  0
 23 24  1  0
 24 25  2  0
 25 26  1  0
 25 28  1  0
 26 27  1  0
 28 29  1  0
 28 30  2  0
 30 31  1  0
 31 32  1  0
 32 33  1  0
 33 34  1  1
 33 35  1  0
 35 36  2  0
 35 40  1  0
 36 37  1  0
 36 38  1  0
 38 39  1  0
 39 40  1  0
M  CHG  1  32   1
M  END
