
     RDKit          3D

 41 45  0  0  0  0  0  0  0  0999 V2000
   -3.4200    2.1260   -1.9720 C   0  0  0  0  0  0  0  0  0  0  0  0
   -2.8660    0.7640   -1.7620 C   0  0  0  0  0  0  0  0  0  0  0  0
   -2.8390    0.4950   -0.2220 C   0  0  0  0  0  0  0  0  0  0  0  0
   -2.2410   -0.9320   -0.0810 C   0  0  0  0  0  0  0  0  0  0  0  0
   -0.9240   -1.1150   -0.1260 C   0  0  0  0  0  0  0  0  0  0  0  0
    0.2120   -0.1750    0.2180 C   0  0  1  0  0  0  0  0  0  0  0  0
    1.2760   -0.1870   -0.8090 C   0  0  0  0  0  0  0  0  0  0  0  0
   -0.0340    0.9460    1.0190 N   0  0  0  0  0  0  0  0  0  0  0  0
    0.9450    1.1910    2.0990 C   0  0  0  0  0  0  0  0  0  0  0  0
    2.3320    1.3170    1.6700 C   0  0  0  0  0  0  0  0  0  0  0  0
    2.8410    2.4630    1.1040 C   0  0  0  0  0  0  0  0  0  0  0  0
    4.1480    2.5160    0.7080 C   0  0  0  0  0  0  0  0  0  0  0  0
    5.0150    1.4560    0.8470 C   0  0  0  0  0  0  0  0  0  0  0  0
    4.4940    0.3100    1.4170 C   0  0  0  0  0  0  0  0  0  0  0  0
    3.1900    0.2330    1.8230 C   0  0  0  0  0  0  0  0  0  0  0  0
    5.2360   -0.8970    1.6140 N   0  0  0  0  0  0  0  0  0  0  0  0
    6.5940   -1.1680    1.3210 C   0  0  0  0  0  0  0  0  0  0  0  0
    6.9640   -2.3460    1.6810 O   0  0  0  0  0  0  0  0  0  0  0  0
    7.7010   -0.4250    0.7030 C   0  0  1  0  0  0  0  0  0  0  0  0
    8.4740   -1.4210   -0.1410 C   0  0  0  0  0  0  0  0  0  0  0  0
    9.6570   -0.8050   -0.8340 C   0  0  0  0  0  0  0  0  0  0  0  0
   10.8440   -0.1020    0.2800 S   0  0  0  0  0  0  0  0  0  0  0  0
   11.8580    0.7280   -0.4870 O   0  0  0  0  0  0  0  0  0  0  0  0
    7.3410    0.7600   -0.0150 N   0  0  0  0  0  0  0  0  0  0  0  0
    6.3550    1.7200    0.3350 C   0  0  0  0  0  0  0  0  0  0  0  0
    6.6470    2.9430    0.1960 O   0  0  0  0  0  0  0  0  0  0  0  0
   -0.5410   -2.5340   -0.2740 C   0  0  0  0  0  0  0  0  0  0  0  0
   -2.0540   -3.4040   -0.3130 S   0  0  0  0  0  0  0  0  0  0  0  0
   -3.1200   -2.0000   -0.1550 C   0  0  0  0  0  0  0  0  0  0  0  0
   -4.5790   -2.0920   -0.2080 C   0  0  0  0  0  0  0  0  0  0  0  0
   -5.1670   -3.2810   -0.1650 N   0  0  0  0  0  0  0  0  0  0  0  0
   -6.5240   -3.1610   -0.2330 N   0  0  0  0  0  0  0  0  0  0  0  0
   -6.9010   -1.9500   -0.3290 C   0  0  0  0  0  0  0  0  0  0  0  0
   -8.2470   -1.3970   -0.4260 C   0  0  0  0  0  0  0  0  0  0  0  0
   -9.3240   -2.2920   -0.3660 C   0  0  0  0  0  0  0  0  0  0  0  0
  -10.6040   -1.8110   -0.4500 C   0  0  0  0  0  0  0  0  0  0  0  0
  -10.8800   -0.4580   -0.5890 C   0  0  0  0  0  0  0  0  0  0  0  0
   -9.8370    0.4270   -0.6470 C   0  0  0  0  0  0  0  0  0  0  0  0
   -8.5470   -0.0630   -0.5640 C   0  0  0  0  0  0  0  0  0  0  0  0
   -7.5050    0.8610   -0.6280 O   0  0  0  0  0  0  0  0  0  0  0  0
   -5.6440   -1.1250   -0.3380 C   0  0  0  0  0  0  0  0  0  0  0  0
  1  2  1  0
  2  3  1  0
  3  4  1  0
  4  5  1  0
  4 29  2  0
  5  6  1  0
  5 27  2  0
  6  7  1  6
  6  8  1  0
  8  9  1  0
  9 10  1  0
 10 11  2  0
 10 15  1  0
 11 12  1  0
 12 13  2  0
 13 14  1  0
 13 25  1  0
 14 15  2  0
 14 16  1  0
 16 17  1  0
 17 18  2  0
 17 19  1  0
 19 20  1  6
 19 24  1  0
 20 21  1  0
 21 22  1  0
 22 23  2  0
 24 25  1  0
 25 26  2  0
 27 28  1  0
 28 29  1  0
 29 30  1  0
 30 31  2  0
 30 41  1  0
 31 32  1  0
 32 33  2  0
 33 34  1  0
 33 41  1  0
 34 35  2  0
 34 39  1  0
 35 36  1  0
 36 37  2  0
 37 38  1  0
 38 39  2  0
 39 40  1  0
M  CHG  1   8   1
M  END
