
     RDKit          3D

 41 44  0  0  0  0  0  0  0  0999 V2000
   -8.9230    2.6110   -1.0510 C   0  0  0  0  0  0  0  0  0  0  0  0
   -7.4320    2.5280   -0.8000 C   0  0  0  0  0  0  0  0  0  0  0  0
   -7.1920    2.1060    0.5380 N   0  0  0  0  0  0  0  0  0  0  0  0
   -6.4600    0.8490    0.6530 C   0  0  0  0  0  0  0  0  0  0  0  0
   -5.1240    1.0070    1.3370 C   0  0  1  0  0  0  0  0  0  0  0  0
   -4.3880    2.0080    0.3870 C   0  0  0  0  0  0  0  0  0  0  0  0
   -5.1940    1.7800    2.6120 C   0  0  0  0  0  0  0  0  0  0  0  0
   -4.2720   -0.1790    1.3530 C   0  0  0  0  0  0  0  0  0  0  0  0
   -2.9930   -0.1880    0.7610 C   0  0  0  0  0  0  0  0  0  0  0  0
   -2.1710   -1.2980    0.7650 C   0  0  0  0  0  0  0  0  0  0  0  0
   -0.9140   -1.2150    0.1510 O   0  0  0  0  0  0  0  0  0  0  0  0
   -0.8180   -1.5580   -1.2010 C   0  0  0  0  0  0  0  0  0  0  0  0
   -1.9210   -1.9670   -1.8970 C   0  0  0  0  0  0  0  0  0  0  0  0
   -1.8100   -2.2980   -3.2110 C   0  0  0  0  0  0  0  0  0  0  0  0
   -2.9290   -2.6970   -3.8570 F   0  0  0  0  0  0  0  0  0  0  0  0
   -0.5830   -2.2100   -3.8080 C   0  0  0  0  0  0  0  0  0  0  0  0
    0.5490   -1.7840   -3.0810 C   0  0  0  0  0  0  0  0  0  0  0  0
    0.4780   -1.4460   -1.7580 C   0  0  0  0  0  0  0  0  0  0  0  0
    1.5520   -0.9090   -0.9650 C   0  0  0  0  0  0  0  0  0  0  0  0
    0.9650    0.1850    0.3760 Cl  0  0  0  0  0  0  0  0  0  0  0  0
    2.8120   -1.0210   -1.0120 C   0  0  0  0  0  0  0  0  0  0  0  0
    3.7490   -1.7190   -1.8350 C   0  0  0  0  0  0  0  0  0  0  0  0
    3.3940   -2.4820   -2.7600 O   0  0  0  0  0  0  0  0  0  0  0  0
    5.2170   -1.6060   -1.6680 C   0  0  0  0  0  0  0  0  0  0  0  0
    6.0320   -2.3440   -2.4890 C   0  0  0  0  0  0  0  0  0  0  0  0
    7.4090   -2.2540   -2.3640 C   0  0  0  0  0  0  0  0  0  0  0  0
    7.9810   -1.4310   -1.4240 C   0  0  0  0  0  0  0  0  0  0  0  0
    9.4660   -1.3550   -1.3120 C   0  0  0  0  0  0  0  0  0  0  0  0
    7.1680   -0.6930   -0.6040 C   0  0  0  0  0  0  0  0  0  0  0  0
    7.6760    0.1460    0.3500 O   0  0  0  0  0  0  0  0  0  0  0  0
    6.9330    0.9370    1.2320 C   0  0  0  0  0  0  0  0  0  0  0  0
    7.9310    1.7030    2.1050 C   0  0  1  0  0  0  0  0  0  0  0  0
    8.8920    2.6140    1.4350 C   0  0  0  0  0  0  0  0  0  0  0  0
    7.7520    3.1730    2.2120 C   0  0  1  0  0  0  0  0  0  0  0  0
    6.7080    3.7620    1.5470 F   0  0  0  0  0  0  0  0  0  0  0  0
    8.0930    3.8110    3.4070 F   0  0  0  0  0  0  0  0  0  0  0  0
    5.7870   -0.7950   -0.7430 C   0  0  0  0  0  0  0  0  0  0  0  0
   -2.5840   -2.4510    1.3570 C   0  0  0  0  0  0  0  0  0  0  0  0
   -3.8120   -2.4630    1.9340 C   0  0  0  0  0  0  0  0  0  0  0  0
   -4.6660   -1.3410    1.9420 C   0  0  0  0  0  0  0  0  0  0  0  0
   -5.9430   -1.5140    2.6010 C   0  0  0  0  0  0  0  0  0  0  0  0
  1  2  1  0
  2  3  1  0
  3  4  1  0
  4  5  1  0
  5  6  1  6
  5  7  1  0
  5  8  1  0
  8  9  2  0
  8 40  1  0
  9 10  1  0
 10 11  1  0
 10 38  2  0
 11 12  1  0
 12 13  2  0
 12 18  1  0
 13 14  1  0
 14 15  1  0
 14 16  2  0
 16 17  1  0
 17 18  2  0
 18 19  1  0
 19 20  1  0
 19 21  2  3
 21 22  1  0
 22 23  2  0
 22 24  1  0
 24 25  2  0
 24 37  1  0
 25 26  1  0
 26 27  2  0
 27 28  1  0
 27 29  1  0
 29 30  1  0
 29 37  2  0
 30 31  1  0
 32 31  1  6
 32 33  1  0
 32 34  1  0
 33 34  1  0
 34 35  1  6
 34 36  1  0
 38 39  1  0
 39 40  2  0
 40 41  1  0
M  CHG  1   3   1
M  END
