
     RDKit          3D

 41 45  0  0  0  0  0  0  0  0999 V2000
   -5.6120   -2.2720   -0.9930 C   0  0  0  0  0  0  0  0  0  0  0  0
   -4.8490   -2.5710    0.0300 C   0  0  0  0  0  0  0  0  0  0  0  0
   -3.4680   -2.1330    0.1690 C   0  0  0  0  0  0  0  0  0  0  0  0
   -2.7450   -1.3180   -0.7590 C   0  0  0  0  0  0  0  0  0  0  0  0
   -2.9840   -0.7440   -1.8690 C   0  0  0  0  0  0  0  0  0  0  0  0
   -1.7150    0.2270   -2.7310 S   0  0  0  0  0  0  0  0  0  0  0  0
   -0.3390    0.6540   -1.6740 C   0  0  0  0  0  0  0  0  0  0  0  0
   -0.3510    1.8210   -0.9540 C   0  0  0  0  0  0  0  0  0  0  0  0
   -1.5530    2.6280   -1.0290 N   0  0  0  0  0  0  0  0  0  0  0  0
   -1.6190    3.8680   -0.3450 C   0  0  0  0  0  0  0  0  0  0  0  0
   -2.7620    4.2010    0.4740 N   0  0  0  0  0  0  0  0  0  0  0  0
   -0.6600    4.6990   -0.5030 N   0  0  0  0  0  0  0  0  0  0  0  0
   -0.7030    5.9390    0.1760 C   0  0  0  0  0  0  0  0  0  0  0  0
   -0.6650    7.1570   -0.4340 C   0  0  0  0  0  0  0  0  0  0  0  0
   -0.7050    8.3070    0.3720 C   0  0  0  0  0  0  0  0  0  0  0  0
   -0.7760    8.2080    1.7390 C   0  0  0  0  0  0  0  0  0  0  0  0
   -0.8160    6.9710    2.3530 C   0  0  0  0  0  0  0  0  0  0  0  0
   -0.7780    5.8600    1.5670 C   0  0  0  0  0  0  0  0  0  0  0  0
    0.7330    2.1520   -0.1940 C   0  0  0  0  0  0  0  0  0  0  0  0
    1.8110    1.2940   -0.1840 C   0  0  0  0  0  0  0  0  0  0  0  0
    1.8500    0.0930   -0.9080 C   0  0  0  0  0  0  0  0  0  0  0  0
    3.0460   -0.7260   -0.7360 C   0  0  0  0  0  0  0  0  0  0  0  0
    3.9410   -0.6670   -1.6340 O   0  0  0  0  0  0  0  0  0  0  0  0
    3.2300   -1.5600    0.3750 N   0  0  0  0  0  0  0  0  0  0  0  0
    4.3250   -2.4140    0.6470 C   0  0  1  0  0  0  0  0  0  0  0  0
    5.6540   -1.6510    0.5720 C   0  0  0  0  0  0  0  0  0  0  0  0
    6.6990   -2.7390    0.8170 C   0  0  0  0  0  0  0  0  0  0  0  0
    5.9670   -3.4570    2.3140 S   0  0  1  0  0  0  0  0  0  0  0  0
    6.2640   -4.9040    2.3130 O   0  0  0  0  0  0  0  0  0  0  0  0
    6.4520   -2.7160    3.5330 O   0  0  0  0  0  0  0  0  0  0  0  0
    4.2380   -3.1000    1.9820 C   0  0  0  0  0  0  0  0  0  0  0  0
    0.7610   -0.2360   -1.6670 C   0  0  0  0  0  0  0  0  0  0  0  0
    0.6350   -1.4660   -2.4780 C   0  0  1  0  0  0  0  0  0  0  0  0
    1.5450   -2.6090   -2.5200 C   0  0  0  0  0  0  0  0  0  0  0  0
    0.2290   -2.7420   -1.8360 C   0  0  2  0  0  0  0  0  0  0  0  0
   -0.8060   -3.5930   -2.5710 C   0  0  0  0  0  0  0  0  0  0  0  0
   -2.8400   -2.5680    1.2940 C   0  0  0  0  0  0  0  0  0  0  0  0
   -3.4320   -3.4100    2.3260 C   0  0  0  0  0  0  0  0  0  0  0  0
   -4.7830   -3.7700    2.0840 N   0  0  0  0  0  0  0  0  0  0  0  0
   -5.4590   -3.4240    1.0780 C   0  0  0  0  0  0  0  0  0  0  0  0
   -6.7800   -3.8540    0.9680 O   0  0  0  0  0  0  0  0  0  0  0  0
  1  2  2  0
  2  3  1  0
  2 40  1  0
  3  4  1  0
  3 37  2  0
  4  5  2  3
  5  6  1  0
  6  7  1  0
  7  8  1  0
  7 32  2  0
  8  9  1  0
  8 19  2  0
  9 10  1  0
 10 11  1  0
 10 12  2  3
 12 13  1  0
 13 14  2  0
 13 18  1  0
 14 15  1  0
 15 16  2  0
 16 17  1  0
 17 18  2  0
 19 20  1  0
 20 21  2  0
 21 22  1  0
 21 32  1  0
 22 23  2  0
 22 24  1  0
 25 24  1  1
 25 26  1  0
 25 31  1  0
 26 27  1  0
 28 27  1  6
 28 29  2  0
 28 30  2  0
 28 31  1  0
 33 32  1  1
 33 34  1  0
 33 35  1  0
 34 35  1  0
 35 36  1  6
 37 38  1  0
 38 39  1  0
 39 40  2  0
 40 41  1  0
M  CHG  1  12   1
M  END
