
     RDKit          3D

 36 39  0  0  0  0  0  0  0  0999 V2000
    2.9300   -0.5190   -1.9160 C   0  0  0  0  0  0  0  0  0  0  0  0
    3.0630   -0.5850   -0.4720 O   0  0  0  0  0  0  0  0  0  0  0  0
    3.5880   -1.7000    0.1190 C   0  0  0  0  0  0  0  0  0  0  0  0
    2.9110   -2.9060    0.4960 C   0  0  0  0  0  0  0  0  0  0  0  0
    1.7400   -3.3580    0.4810 C   0  0  0  0  0  0  0  0  0  0  0  0
    0.4420   -2.9440    0.0980 C   0  0  0  0  0  0  0  0  0  0  0  0
   -0.5270   -3.8490    0.2370 O   0  0  0  0  0  0  0  0  0  0  0  0
   -0.0270   -1.7240   -0.4100 N   0  0  0  0  0  0  0  0  0  0  0  0
   -1.4190   -1.5990   -0.7140 C   0  0  0  0  0  0  0  0  0  0  0  0
   -2.4570   -2.1900   -0.7060 N   0  0  0  0  0  0  0  0  0  0  0  0
   -3.5960   -1.7120   -1.0830 N   0  0  0  0  0  0  0  0  0  0  0  0
   -3.7810   -0.6050   -1.4970 C   0  0  0  0  0  0  0  0  0  0  0  0
   -4.8720    0.2520   -2.0060 C   0  0  0  0  0  0  0  0  0  0  0  0
   -5.5890    1.0260   -0.9090 C   0  0  2  0  0  0  0  0  0  0  0  0
   -4.6910    1.9320   -0.1750 C   0  0  0  0  0  0  0  0  0  0  0  0
   -4.6820    1.8370    1.2880 C   0  0  0  0  0  0  0  0  0  0  0  0
   -3.9580    2.5360    2.1900 C   0  0  0  0  0  0  0  0  0  0  0  0
   -4.3280    2.0510    3.5280 C   0  0  0  0  0  0  0  0  0  0  0  0
   -5.3400    1.0030    3.2670 C   0  0  0  0  0  0  0  0  0  0  0  0
   -5.5440    0.8820    1.9540 C   0  0  0  0  0  0  0  0  0  0  0  0
   -6.4050    0.0270    1.1570 C   0  0  0  0  0  0  0  0  0  0  0  0
   -6.4140    0.1050   -0.1430 C   0  0  0  0  0  0  0  0  0  0  0  0
   -7.3260   -0.8070   -0.9130 C   0  0  1  0  0  0  0  0  0  0  0  0
   -8.1040   -1.4850    0.0300 F   0  0  0  0  0  0  0  0  0  0  0  0
   -8.1400   -0.1230   -1.7600 F   0  0  0  0  0  0  0  0  0  0  0  0
   -2.0100    0.0660   -1.3950 S   0  0  0  0  0  0  0  0  0  0  0  0
    4.9270   -1.6260    0.3620 C   0  0  0  0  0  0  0  0  0  0  0  0
    5.6990   -0.4630    0.0260 C   0  0  0  0  0  0  0  0  0  0  0  0
    5.2440    0.5830   -0.4960 O   0  0  0  0  0  0  0  0  0  0  0  0
    7.1210   -0.4620    0.2960 N   0  0  0  0  0  0  0  0  0  0  0  0
    7.8930    0.6850   -0.0340 C   0  0  0  0  0  0  0  0  0  0  0  0
    9.2420    0.6550    0.2340 C   0  0  0  0  0  0  0  0  0  0  0  0
   10.0510    1.7080   -0.0500 N   0  0  0  0  0  0  0  0  0  0  0  0
    9.5050    2.8080   -0.6120 C   0  0  0  0  0  0  0  0  0  0  0  0
    8.1560    2.8630   -0.8910 C   0  0  0  0  0  0  0  0  0  0  0  0
    7.3870    1.7950   -0.5930 N   0  0  0  0  0  0  0  0  0  0  0  0
  1  2  1  0
  2  3  1  0
  3  4  1  0
  3 27  2  3
  4  5  2  3
  5  6  1  0
  6  7  2  0
  6  8  1  0
  8  9  1  0
  9 10  2  0
  9 26  1  0
 10 11  1  0
 11 12  2  0
 12 13  1  0
 12 26  1  0
 14 13  1  6
 14 15  1  0
 14 22  1  0
 15 16  1  0
 16 17  2  0
 16 20  1  0
 17 18  1  0
 18 19  1  0
 19 20  2  0
 20 21  1  0
 21 22  2  0
 22 23  1  0
 23 24  1  1
 23 25  1  0
 27 28  1  0
 28 29  2  0
 28 30  1  0
 30 31  1  0
 31 32  2  0
 31 36  1  0
 32 33  1  0
 33 34  2  0
 34 35  1  0
 35 36  2  0
M  END
