
     RDKit          3D

 36 39  0  0  0  0  0  0  0  0999 V2000
   -5.7560   -2.1730    1.3650 C   0  0  0  0  0  0  0  0  0  0  0  0
   -4.9350   -1.3800    0.3720 C   0  0  0  0  0  0  0  0  0  0  0  0
   -3.5200   -1.5970    0.4680 N   0  0  0  0  0  0  0  0  0  0  0  0
   -2.6580   -0.5900    0.9750 C   0  0  0  0  0  0  0  0  0  0  0  0
   -1.4060   -1.0710    1.7270 C   0  0  0  0  0  0  0  0  0  0  0  0
   -0.2850   -0.8520    0.9150 N   0  0  0  0  0  0  0  0  0  0  0  0
    1.0750   -1.2000    1.4910 C   0  0  0  0  0  0  0  0  0  0  0  0
    1.0680   -1.6560    2.6060 O   0  0  0  0  0  0  0  0  0  0  0  0
    2.0370   -0.8880    0.5480 N   0  0  0  0  0  0  0  0  0  0  0  0
    3.4390   -1.3170    1.5000 C   0  0  0  0  0  0  0  0  0  0  0  0
    3.1490   -1.7490    2.5380 O   0  0  0  0  0  0  0  0  0  0  0  0
    4.6350   -1.0340    0.7860 C   0  0  0  0  0  0  0  0  0  0  0  0
    5.4700   -1.9360    0.1850 C   0  0  0  0  0  0  0  0  0  0  0  0
    6.4910   -1.2960   -0.3640 N   0  0  0  0  0  0  0  0  0  0  0  0
    6.3530   -0.0180   -0.1450 N   0  0  0  0  0  0  0  0  0  0  0  0
    7.2610    1.0050   -0.5670 C   0  0  0  0  0  0  0  0  0  0  0  0
    7.2650    2.2550   -0.0090 C   0  0  0  0  0  0  0  0  0  0  0  0
    8.1300    3.2550   -0.3820 C   0  0  0  0  0  0  0  0  0  0  0  0
    8.1680    4.4910    0.1400 F   0  0  0  0  0  0  0  0  0  0  0  0
    9.0460    2.9280   -1.3930 C   0  0  0  0  0  0  0  0  0  0  0  0
    9.0440    1.6870   -1.9500 C   0  0  0  0  0  0  0  0  0  0  0  0
    9.9180    1.3630   -2.9230 F   0  0  0  0  0  0  0  0  0  0  0  0
    8.1640    0.6890   -1.5650 C   0  0  0  0  0  0  0  0  0  0  0  0
    5.2380    0.2190    0.5530 C   0  0  0  0  0  0  0  0  0  0  0  0
   -2.7670    0.6470    0.9110 N   0  0  0  0  0  0  0  0  0  0  0  0
   -3.6450    1.5260    0.3970 C   0  0  0  0  0  0  0  0  0  0  0  0
   -4.8720    2.4870    1.3260 S   0  0  0  0  0  0  0  0  0  0  0  0
   -5.5250    3.3730    0.0110 C   0  0  0  0  0  0  0  0  0  0  0  0
   -6.6300    4.4120    0.0480 C   0  0  0  0  0  0  0  0  0  0  0  0
   -4.8100    2.9280   -1.0890 C   0  0  0  0  0  0  0  0  0  0  0  0
   -3.8780    2.0100   -0.8920 C   0  0  0  0  0  0  0  0  0  0  0  0
   -3.0220    1.4290   -1.9740 C   0  0  0  0  0  0  0  0  0  0  0  0
   -3.1900    1.8450   -3.1250 O   0  0  0  0  0  0  0  0  0  0  0  0
   -2.9810   -2.8750    0.0530 C   0  0  2  0  0  0  0  0  0  0  0  0
   -3.1050   -3.3910   -1.3160 C   0  0  0  0  0  0  0  0  0  0  0  0
   -3.9790   -3.9450   -0.2210 C   0  0  0  0  0  0  0  0  0  0  0  0
  1  2  1  0
  2  3  1  0
  3  4  1  0
 34  3  1  6
  4  5  1  0
  4 25  2  3
  5  6  1  0
  6  7  1  0
  7  8  2  0
  7  9  1  0
  9 10  1  0
 10 11  2  0
 10 12  1  0
 12 13  1  0
 12 24  2  0
 13 14  2  0
 14 15  1  0
 15 16  1  0
 15 24  1  0
 16 17  2  0
 16 23  1  0
 17 18  1  0
 18 19  1  0
 18 20  2  0
 20 21  1  0
 21 22  1  0
 21 23  2  0
 25 26  1  0
 26 27  1  0
 26 31  2  0
 27 28  1  0
 28 29  1  0
 28 30  2  0
 30 31  1  0
 31 32  1  0
 32 33  2  0
 34 35  1  0
 34 36  1  0
 35 36  1  0
M  END
