
     RDKit          3D

 36 39  0  0  0  0  0  0  0  0999 V2000
   -1.1580    2.3640   -0.1750 C   0  0  0  0  0  0  0  0  0  0  0  0
   -1.2650    0.9510   -0.1140 N   0  0  0  0  0  0  0  0  0  0  0  0
   -0.1950    0.0310   -0.2830 C   0  0  0  0  0  0  0  0  0  0  0  0
    1.1750    0.3370    0.0420 C   0  0  0  0  0  0  0  0  0  0  0  0
    2.1110    0.5580   -0.9720 C   0  0  0  0  0  0  0  0  0  0  0  0
    3.4550    0.4340   -0.7000 C   0  0  0  0  0  0  0  0  0  0  0  0
    4.3760    0.5200   -1.6380 C   0  0  0  0  0  0  0  0  0  0  0  0
    5.7930    0.3830   -1.3620 C   0  0  0  0  0  0  0  0  0  0  0  0
    6.4520   -0.8130   -1.1230 C   0  0  0  0  0  0  0  0  0  0  0  0
    7.7900   -0.6070   -0.8780 C   0  0  0  0  0  0  0  0  0  0  0  0
    7.9220    0.7860   -0.9830 C   0  0  0  0  0  0  0  0  0  0  0  0
    6.7290    1.3380   -1.2680 N   0  0  0  0  0  0  0  0  0  0  0  0
    3.8140    0.1030    0.6040 C   0  0  0  0  0  0  0  0  0  0  0  0
    5.0410   -0.0660    1.1330 N   0  0  0  0  0  0  0  0  0  0  0  0
    4.9010   -0.3760    2.4370 C   0  0  0  0  0  0  0  0  0  0  0  0
    3.5380   -0.4000    2.7270 C   0  0  0  0  0  0  0  0  0  0  0  0
    2.9020   -0.0980    1.5530 N   0  0  0  0  0  0  0  0  0  0  0  0
    1.6010    0.0070    1.3230 C   0  0  0  0  0  0  0  0  0  0  0  0
    0.7420   -0.1860    2.2540 O   0  0  0  0  0  0  0  0  0  0  0  0
   -2.5820    0.2990    0.1930 C   0  0  0  0  0  0  0  0  0  0  0  0
   -3.6580    0.6370   -0.1840 N   0  0  0  0  0  0  0  0  0  0  0  0
   -4.4780    1.4400   -0.8640 C   0  0  0  0  0  0  0  0  0  0  0  0
   -4.5360    1.2070   -2.4050 C   0  0  0  0  0  0  0  0  0  0  0  0
   -5.3620    2.0840   -3.0180 F   0  0  0  0  0  0  0  0  0  0  0  0
   -5.2410    2.4230   -0.4350 C   0  0  0  0  0  0  0  0  0  0  0  0
   -6.0120    3.0840   -1.3900 F   0  0  0  0  0  0  0  0  0  0  0  0
   -5.2800    2.9720    0.9000 C   0  0  0  0  0  0  0  0  0  0  0  0
   -6.1100    3.8990    1.1650 O   0  0  0  0  0  0  0  0  0  0  0  0
   -4.4530    2.5600    1.9290 O   0  0  0  0  0  0  0  0  0  0  0  0
   -2.4820   -0.8940    1.0170 N   0  0  0  0  0  0  0  0  0  0  0  0
   -3.1360   -2.1390    0.7250 C   0  0  0  0  0  0  0  0  0  0  0  0
   -4.4050   -2.3180    0.8570 C   0  0  0  0  0  0  0  0  0  0  0  0
   -5.2570   -3.4760    0.6320 C   0  0  0  0  0  0  0  0  0  0  0  0
   -4.3480   -4.8800   -0.0470 S   0  0  0  0  0  0  0  0  0  0  0  0
   -2.6650   -4.3890   -0.1140 C   0  0  0  0  0  0  0  0  0  0  0  0
   -2.2440   -3.2050    0.2320 C   0  0  0  0  0  0  0  0  0  0  0  0
  1  2  1  0
  2  3  1  0
  2 20  1  0
  3  4  1  0
  4  5  2  0
  4 18  1  0
  5  6  1  0
  6  7  2  3
  6 13  1  0
  7  8  1  0
  8  9  2  0
  8 12  1  0
  9 10  1  0
 10 11  2  0
 11 12  1  0
 13 14  2  0
 13 17  1  0
 14 15  1  0
 15 16  2  0
 16 17  1  0
 17 18  1  0
 18 19  2  0
 20 21  2  3
 20 30  1  0
 21 22  1  0
 22 23  1  0
 22 25  2  3
 23 24  1  0
 25 26  1  0
 25 27  1  0
 27 28  2  0
 27 29  1  0
 30 31  1  0
 31 32  2  0
 31 36  1  0
 32 33  1  0
 33 34  1  0
 34 35  1  0
 35 36  2  0
M  END
