
     RDKit          3D

 36 39  0  0  0  0  0  0  0  0999 V2000
   -4.5830    2.9960    0.0400 C   0  0  0  0  0  0  0  0  0  0  0  0
   -5.3320    2.6100    1.2210 C   0  0  0  0  0  0  0  0  0  0  0  0
   -5.0950    1.5470    2.0470 C   0  0  0  0  0  0  0  0  0  0  0  0
   -4.1020    0.6990    1.8720 C   0  0  0  0  0  0  0  0  0  0  0  0
   -2.9570    0.8630    1.0010 N   0  0  0  0  0  0  0  0  0  0  0  0
   -2.2120   -0.2290    0.5000 C   0  0  0  0  0  0  0  0  0  0  0  0
   -2.5460   -1.3910    0.8000 O   0  0  0  0  0  0  0  0  0  0  0  0
   -1.0200    0.0300   -0.3930 C   0  0  0  0  0  0  0  0  0  0  0  0
   -0.4650   -1.2700   -0.8570 C   0  0  1  0  0  0  0  0  0  0  0  0
   -1.3840   -2.1240   -1.6600 C   0  0  0  0  0  0  0  0  0  0  0  0
   -1.8620   -1.4540   -2.9290 C   0  0  0  0  0  0  0  0  0  0  0  0
   -2.7820   -2.4360   -3.6340 C   0  0  0  0  0  0  0  0  0  0  0  0
    0.8220   -1.1470   -1.4800 N   0  0  0  0  0  0  0  0  0  0  0  0
    1.1210   -1.6350   -2.6730 N   0  0  0  0  0  0  0  0  0  0  0  0
    2.3820   -1.3460   -2.9470 C   0  0  0  0  0  0  0  0  0  0  0  0
    3.1730   -1.6900   -4.1810 C   0  0  0  0  0  0  0  0  0  0  0  0
    2.9150   -0.6540   -1.9070 C   0  0  0  0  0  0  0  0  0  0  0  0
    4.1330   -0.0800   -1.5740 C   0  0  0  0  0  0  0  0  0  0  0  0
    4.2550    0.5460   -0.3890 N   0  0  0  0  0  0  0  0  0  0  0  0
    3.2540    0.6500    0.5030 C   0  0  0  0  0  0  0  0  0  0  0  0
    3.4250    1.2700    1.6440 N   0  0  0  0  0  0  0  0  0  0  0  0
    4.6610    1.8570    1.9930 C   0  0  0  0  0  0  0  0  0  0  0  0
    4.8280    3.0840    1.8360 O   0  0  0  0  0  0  0  0  0  0  0  0
    5.7580    1.0670    2.5350 C   0  0  0  0  0  0  0  0  0  0  0  0
    7.0140    1.5290    2.9130 C   0  0  0  0  0  0  0  0  0  0  0  0
    7.7480    0.4590    3.3720 C   0  0  0  0  0  0  0  0  0  0  0  0
    6.9100   -0.6300    3.2590 C   0  0  0  0  0  0  0  0  0  0  0  0
    5.7780   -0.2240    2.7720 O   0  0  0  0  0  0  0  0  0  0  0  0
    2.0740    0.0940    0.1800 N   0  0  0  0  0  0  0  0  0  0  0  0
    1.9070   -0.5330   -0.9760 C   0  0  0  0  0  0  0  0  0  0  0  0
   -4.0850   -0.4620    2.7680 C   0  0  0  0  0  0  0  0  0  0  0  0
   -5.4450   -0.2400    3.7510 S   0  0  0  0  0  0  0  0  0  0  0  0
   -6.0600    1.3580    3.0200 C   0  0  0  0  0  0  0  0  0  0  0  0
   -7.1150    1.9390    3.4700 C   0  0  0  0  0  0  0  0  0  0  0  0
   -7.8330    1.3710    4.5270 F   0  0  0  0  0  0  0  0  0  0  0  0
   -7.6370    3.0800    3.0310 F   0  0  0  0  0  0  0  0  0  0  0  0
  1  2  1  0
  2  3  2  3
  3  4  1  0
  3 33  1  0
  4  5  1  0
  4 31  2  0
  5  6  1  0
  6  7  2  0
  6  8  1  0
  9  8  1  6
  9 10  1  0
  9 13  1  0
 10 11  1  0
 11 12  1  0
 13 14  1  0
 13 30  1  0
 14 15  2  0
 15 16  1  0
 15 17  1  0
 17 18  2  0
 17 30  1  0
 18 19  1  0
 19 20  1  0
 20 21  2  3
 20 29  1  0
 21 22  1  0
 22 23  2  0
 22 24  1  0
 24 25  2  0
 24 28  1  0
 25 26  1  0
 26 27  2  0
 27 28  1  0
 29 30  2  0
 31 32  1  0
 32 33  1  0
 33 34  2  3
 34 35  1  0
 34 36  1  0
M  END
