
     RDKit          3D

 36 38  0  0  0  0  0  0  0  0999 V2000
    7.3480   -2.8720    0.5210 C   0  0  0  0  0  0  0  0  0  0  0  0
    6.2050   -3.3920    0.1860 N   0  0  0  0  0  0  0  0  0  0  0  0
    5.0190   -3.1280    0.8900 C   0  0  0  0  0  0  0  0  0  0  0  0
    4.2360   -4.0920    1.2970 C   0  0  0  0  0  0  0  0  0  0  0  0
    4.6710   -1.7630    1.1620 N   0  0  0  0  0  0  0  0  0  0  0  0
    3.3640   -1.4520    0.5570 C   0  0  0  0  0  0  0  0  0  0  0  0
    2.8340   -0.2150    1.2080 C   0  0  0  0  0  0  0  0  0  0  0  0
    1.5690    0.1830    0.6950 N   0  0  2  0  0  0  0  0  0  0  0  0
    0.9000   -0.7570   -0.1500 C   0  0  0  0  0  0  0  0  0  0  0  0
   -0.1900   -1.4990    0.5810 C   0  0  0  0  0  0  0  0  0  0  0  0
   -0.9050   -0.6520    1.4150 O   0  0  0  0  0  0  0  0  0  0  0  0
   -2.2080   -0.7500    1.8490 C   0  0  0  0  0  0  0  0  0  0  0  0
   -2.3470   -0.8290    3.1370 O   0  0  0  0  0  0  0  0  0  0  0  0
   -3.4360   -0.7770    1.0810 C   0  0  0  0  0  0  0  0  0  0  0  0
   -4.1400   -2.0420    1.1060 O   0  0  0  0  0  0  0  0  0  0  0  0
   -4.2550   -2.7990   -0.0150 C   0  0  0  0  0  0  0  0  0  0  0  0
   -4.9300   -3.9920    0.0500 C   0  0  0  0  0  0  0  0  0  0  0  0
   -5.0980   -4.8260   -1.0340 C   0  0  0  0  0  0  0  0  0  0  0  0
   -4.5530   -4.4340   -2.2600 C   0  0  0  0  0  0  0  0  0  0  0  0
   -3.8720   -3.2380   -2.3420 C   0  0  0  0  0  0  0  0  0  0  0  0
   -3.1960   -2.7610   -3.8840 Cl  0  0  0  0  0  0  0  0  0  0  0  0
   -3.7210   -2.4180   -1.2220 C   0  0  0  0  0  0  0  0  0  0  0  0
   -3.9900    0.1900    0.3770 C   0  0  0  0  0  0  0  0  0  0  0  0
   -3.5680    1.5590    0.1530 C   0  0  0  0  0  0  0  0  0  0  0  0
   -2.1830    1.8230   -0.3080 C   0  0  0  0  0  0  0  0  0  0  0  0
   -1.4590    2.6450    0.7520 C   0  0  0  0  0  0  0  0  0  0  0  0
   -0.1940    3.1420    0.3700 N   0  0  0  0  0  0  0  0  0  0  0  0
   -0.0730    4.2280   -0.5370 C   0  0  0  0  0  0  0  0  0  0  0  0
   -1.1530    4.9570   -0.9840 C   0  0  0  0  0  0  0  0  0  0  0  0
   -0.9970    6.0020   -1.8690 C   0  0  0  0  0  0  0  0  0  0  0  0
    0.2770    6.3370   -2.3280 C   0  0  0  0  0  0  0  0  0  0  0  0
    1.3450    5.6000   -1.8730 C   0  0  0  0  0  0  0  0  0  0  0  0
    2.9650    6.0010   -2.4330 Cl  0  0  0  0  0  0  0  0  0  0  0  0
    1.1490    4.6020   -1.0210 N   0  0  0  0  0  0  0  0  0  0  0  0
    1.0100    2.5520    0.9200 C   0  0  0  0  0  0  0  0  0  0  0  0
    1.6130    1.4830    0.0480 C   0  0  0  0  0  0  0  0  0  0  0  0
  1  2  2  0
  2  3  1  0
  3  4  2  0
  3  5  1  0
  5  6  1  0
  6  7  1  0
  8  7  1  6
  8  9  1  0
  8 36  1  0
  9 10  1  0
 10 11  1  0
 11 12  1  0
 12 13  2  0
 12 14  1  0
 14 15  1  0
 14 23  2  0
 15 16  1  0
 16 17  2  0
 16 22  1  0
 17 18  1  0
 18 19  2  0
 19 20  1  0
 20 21  1  0
 20 22  2  0
 23 24  1  0
 24 25  1  0
 25 26  1  0
 26 27  1  0
 27 28  1  0
 27 35  1  0
 28 29  2  0
 28 34  1  0
 29 30  1  0
 30 31  2  0
 31 32  1  0
 32 33  1  0
 32 34  2  0
 35 36  1  0
M  CHG  2   5   1   8   1
M  END
