
     RDKit          3D

 36 39  0  0  0  0  0  0  0  0999 V2000
    1.6930    4.5260   -1.3330 C   0  0  0  0  0  0  0  0  0  0  0  0
    1.8310    3.1200   -0.7570 C   0  0  0  0  0  0  0  0  0  0  0  0
    1.4840    3.0600    0.6800 C   0  0  0  0  0  0  0  0  0  0  0  0
    1.5940    1.7260    1.2150 N   0  0  0  0  0  0  0  0  0  0  0  0
    2.8040    1.2980    1.8110 C   0  0  0  0  0  0  0  0  0  0  0  0
    3.7350    0.4990    1.0210 C   0  0  0  0  0  0  0  0  0  0  0  0
    3.4300    0.1250   -0.1980 C   0  0  0  0  0  0  0  0  0  0  0  0
    4.3470   -0.6760   -1.0170 C   0  0  0  0  0  0  0  0  0  0  0  0
    4.0170   -1.0610   -2.2870 C   0  0  0  0  0  0  0  0  0  0  0  0
    4.9510   -1.8210   -2.9860 C   0  0  0  0  0  0  0  0  0  0  0  0
    6.1210   -2.1720   -2.4670 N   0  0  0  0  0  0  0  0  0  0  0  0
    6.4440   -1.8020   -1.2410 C   0  0  0  0  0  0  0  0  0  0  0  0
    5.5440   -1.0260   -0.4650 C   0  0  0  0  0  0  0  0  0  0  0  0
    5.9240   -0.6490    0.8340 N   0  0  0  0  0  0  0  0  0  0  0  0
    5.0400    0.1080    1.6100 C   0  0  0  0  0  0  0  0  0  0  0  0
    0.4520    0.8880    1.2000 C   0  0  0  0  0  0  0  0  0  0  0  0
    0.5000   -0.3040    1.6400 O   0  0  0  0  0  0  0  0  0  0  0  0
   -0.8460    1.3580    0.6760 C   0  0  0  0  0  0  0  0  0  0  0  0
   -1.8710    0.3390    0.7640 N   0  0  0  0  0  0  0  0  0  0  0  0
   -2.1660   -0.6160   -0.2340 C   0  0  0  0  0  0  0  0  0  0  0  0
   -1.7440   -0.6450   -1.4430 O   0  0  0  0  0  0  0  0  0  0  0  0
   -3.0400   -1.6080    0.2840 N   0  0  0  0  0  0  0  0  0  0  0  0
   -3.5510   -2.7530   -0.4480 C   0  0  0  0  0  0  0  0  0  0  0  0
   -4.8350   -2.4640   -1.1350 C   0  0  0  0  0  0  0  0  0  0  0  0
   -5.3810   -3.3310   -2.0600 C   0  0  0  0  0  0  0  0  0  0  0  0
   -6.5570   -3.0720   -2.6870 C   0  0  0  0  0  0  0  0  0  0  0  0
   -7.2020   -4.2120   -3.8560 Cl  0  0  0  0  0  0  0  0  0  0  0  0
   -7.2420   -1.9020   -2.3970 C   0  0  0  0  0  0  0  0  0  0  0  0
   -6.7340   -1.0110   -1.4810 C   0  0  0  0  0  0  0  0  0  0  0  0
   -7.6180    0.4640   -1.1270 Cl  0  0  0  0  0  0  0  0  0  0  0  0
   -5.5230   -1.3110   -0.8570 C   0  0  0  0  0  0  0  0  0  0  0  0
   -3.2840   -1.2440    1.6330 C   0  0  0  0  0  0  0  0  0  0  0  0
   -3.8610   -2.0080    2.4620 O   0  0  0  0  0  0  0  0  0  0  0  0
   -2.7650    0.1130    1.8650 C   0  0  1  0  0  0  0  0  0  0  0  0
   -2.0550    0.2250    3.2040 C   0  0  0  0  0  0  0  0  0  0  0  0
   -3.9340    1.0900    1.8520 C   0  0  0  0  0  0  0  0  0  0  0  0
  1  2  1  0
  2  3  1  0
  3  4  1  0
  4  5  1  0
  4 16  1  0
  5  6  1  0
  6  7  2  0
  6 15  1  0
  7  8  1  0
  8  9  2  0
  8 13  1  0
  9 10  1  0
 10 11  2  0
 11 12  1  0
 12 13  2  0
 13 14  1  0
 14 15  1  0
 16 17  2  0
 16 18  1  0
 18 19  1  0
 19 20  1  0
 19 34  1  0
 20 21  2  0
 20 22  1  0
 22 23  1  0
 22 32  1  0
 23 24  1  0
 24 25  2  0
 24 31  1  0
 25 26  1  0
 26 27  1  0
 26 28  2  0
 28 29  1  0
 29 30  1  0
 29 31  2  0
 32 33  2  0
 32 34  1  0
 34 35  1  1
 34 36  1  0
M  CHG  2  11   1  14   1
M  END
