
     RDKit          3D

 36 38  0  0  0  0  0  0  0  0999 V2000
   -6.1740    3.9470   -0.0170 C   0  0  0  0  0  0  0  0  0  0  0  0
   -6.9150    2.6490   -0.2750 C   0  0  0  0  0  0  0  0  0  0  0  0
   -6.3330    1.9360   -1.4050 N   0  0  0  0  0  0  0  0  0  0  0  0
   -7.0450    1.6860   -2.4450 C   0  0  0  0  0  0  0  0  0  0  0  0
   -8.7080    2.2120   -2.4780 Cl  0  0  0  0  0  0  0  0  0  0  0  0
   -4.9730    1.4910   -1.4080 C   0  0  0  0  0  0  0  0  0  0  0  0
   -4.0490    2.0070   -2.2870 C   0  0  0  0  0  0  0  0  0  0  0  0
   -2.7400    1.5750   -2.2730 C   0  0  0  0  0  0  0  0  0  0  0  0
   -2.3060    0.6090   -1.3800 C   0  0  0  0  0  0  0  0  0  0  0  0
   -0.9300    0.1540   -1.3750 C   0  0  0  0  0  0  0  0  0  0  0  0
   -0.5130   -1.0840   -1.7440 C   0  0  0  0  0  0  0  0  0  0  0  0
    0.8200   -1.4020   -1.6600 C   0  0  0  0  0  0  0  0  0  0  0  0
    1.7930   -0.5020   -1.2050 C   0  0  0  0  0  0  0  0  0  0  0  0
    3.1390   -0.9380   -1.1720 N   0  0  0  0  0  0  0  0  0  0  0  0
    4.2090   -0.3090   -0.5070 C   0  0  0  0  0  0  0  0  0  0  0  0
    4.0320    0.7370    0.1440 O   0  0  0  0  0  0  0  0  0  0  0  0
    5.6000   -0.8670   -0.5540 C   0  0  0  0  0  0  0  0  0  0  0  0
    6.4660   -0.0190    0.2090 N   0  0  2  0  0  0  0  0  0  0  0  0
    7.6920    0.2110   -0.5150 C   0  0  0  0  0  0  0  0  0  0  0  0
    8.5750   -1.0100   -0.5840 C   0  0  0  0  0  0  0  0  0  0  0  0
    8.6630   -1.6390    0.7420 C   0  0  0  0  0  0  0  0  0  0  0  0
    9.7370   -2.0690    1.1250 O   0  0  0  0  0  0  0  0  0  0  0  0
    7.4890   -1.7620    1.6170 C   0  0  0  0  0  0  0  0  0  0  0  0
    6.7000   -0.4870    1.5540 C   0  0  0  0  0  0  0  0  0  0  0  0
    1.3750    0.7490   -0.8320 C   0  0  0  0  0  0  0  0  0  0  0  0
    0.0420    1.0600   -0.9190 C   0  0  0  0  0  0  0  0  0  0  0  0
   -3.2160    0.0900   -0.5020 C   0  0  0  0  0  0  0  0  0  0  0  0
   -2.7700   -0.9010    0.4150 N   0  0  0  0  0  0  0  0  0  0  0  0
   -2.9330   -2.2840    0.0630 C   0  0  0  0  0  0  0  0  0  0  0  0
   -2.0980   -0.5110    1.6120 C   0  0  0  0  0  0  0  0  0  0  0  0
   -2.6770   -0.7960    2.9090 C   0  0  0  0  0  0  0  0  0  0  0  0
   -1.9780   -0.3840    3.9190 O   0  0  0  0  0  0  0  0  0  0  0  0
   -3.8670   -1.4420    3.2670 N   0  0  0  0  0  0  0  0  0  0  0  0
   -4.2670   -1.6230    4.6680 C   0  0  0  0  0  0  0  0  0  0  0  0
   -4.5270    0.5170   -0.5100 C   0  0  0  0  0  0  0  0  0  0  0  0
   -5.7510   -0.1280    0.5840 Cl  0  0  0  0  0  0  0  0  0  0  0  0
  1  2  1  0
  2  3  1  0
  3  4  2  3
  3  6  1  0
  4  5  1  0
  6  7  2  0
  6 35  1  0
  7  8  1  0
  8  9  2  0
  9 10  1  0
  9 27  1  0
 10 11  2  0
 10 26  1  0
 11 12  1  0
 12 13  2  0
 13 14  1  0
 13 25  1  0
 14 15  1  0
 15 16  2  0
 15 17  1  0
 18 17  1  6
 18 19  1  0
 18 24  1  0
 19 20  1  0
 20 21  1  0
 21 22  2  0
 21 23  1  0
 23 24  1  0
 25 26  2  0
 27 28  1  0
 27 35  2  0
 28 29  1  0
 28 30  1  0
 30 31  1  0
 31 32  2  0
 31 33  1  0
 33 34  1  0
 35 36  1  0
M  CHG  2   3   1  18   1
M  END
