
     RDKit          3D

 36 39  0  0  0  0  0  0  0  0999 V2000
   -3.3630   -4.7910    0.1800 C   0  0  0  0  0  0  0  0  0  0  0  0
   -3.7360   -3.3490    0.3620 C   0  0  0  0  0  0  0  0  0  0  0  0
   -5.0420   -2.9370    0.3320 C   0  0  0  0  0  0  0  0  0  0  0  0
   -5.3270   -1.5900    0.5050 C   0  0  0  0  0  0  0  0  0  0  0  0
   -6.7590   -1.1720    0.4670 C   0  0  0  0  0  0  0  0  0  0  0  0
   -4.3130   -0.6820    0.7040 C   0  0  0  0  0  0  0  0  0  0  0  0
   -4.5920    0.7020    0.8820 N   0  0  0  0  0  0  0  0  0  0  0  0
   -4.6470    1.5590   -0.2590 C   0  0  0  0  0  0  0  0  0  0  0  0
   -4.4420    1.0430   -1.3810 O   0  0  0  0  0  0  0  0  0  0  0  0
   -4.9400    3.0230   -0.0990 C   0  0  0  0  0  0  0  0  0  0  0  0
   -4.9310    3.6050   -1.3780 O   0  0  0  0  0  0  0  0  0  0  0  0
   -5.1690    4.9490   -1.5560 C   0  0  0  0  0  0  0  0  0  0  0  0
   -5.4040    5.6800   -0.5400 O   0  0  0  0  0  0  0  0  0  0  0  0
   -5.1520    5.6440   -3.1520 Cl  0  0  0  0  0  0  0  0  0  0  0  0
   -2.9720   -1.0800    0.7380 C   0  0  0  0  0  0  0  0  0  0  0  0
   -1.9240   -0.0640    0.9550 C   0  0  0  0  0  0  0  0  0  0  0  0
   -0.5920   -0.6140    0.9670 N   0  0  2  0  0  0  0  0  0  0  0  0
   -0.3830   -1.3520    2.1880 C   0  0  0  0  0  0  0  0  0  0  0  0
    0.3990    0.4390    0.7950 C   0  0  2  0  0  0  0  0  0  0  0  0
    0.7580    0.5270   -0.6860 C   0  0  0  0  0  0  0  0  0  0  0  0
    1.6730   -0.6070   -1.0160 C   0  0  0  0  0  0  0  0  0  0  0  0
    2.9940   -0.2820   -0.4620 N   0  0  1  0  0  0  0  0  0  0  0  0
    3.7660    0.2880   -1.5290 C   0  0  0  0  0  0  0  0  0  0  0  0
    5.2370    0.1600   -1.2970 C   0  0  0  0  0  0  0  0  0  0  0  0
    5.9210   -0.9740   -1.6650 C   0  0  0  0  0  0  0  0  0  0  0  0
    7.2760   -1.0300   -1.4270 C   0  0  0  0  0  0  0  0  0  0  0  0
    7.8960    0.0570   -0.8280 C   0  0  0  0  0  0  0  0  0  0  0  0
    7.1870    1.1840   -0.4680 C   0  0  0  0  0  0  0  0  0  0  0  0
    7.5820    2.3710    0.1310 C   0  0  0  0  0  0  0  0  0  0  0  0
    9.1800    2.8530    0.6520 Cl  0  0  0  0  0  0  0  0  0  0  0  0
    6.4270    3.1140    0.2340 C   0  0  0  0  0  0  0  0  0  0  0  0
    5.4160    2.3930   -0.2800 N   0  0  0  0  0  0  0  0  0  0  0  0
    5.8650    1.2080   -0.7140 N   0  0  0  0  0  0  0  0  0  0  0  0
    2.8710    0.5790    0.6900 C   0  0  0  0  0  0  0  0  0  0  0  0
    1.6690    0.1950    1.5420 C   0  0  0  0  0  0  0  0  0  0  0  0
   -2.7220   -2.4020    0.5660 C   0  0  0  0  0  0  0  0  0  0  0  0
  1  2  1  0
  2  3  2  0
  2 36  1  0
  3  4  1  0
  4  5  1  0
  4  6  2  0
  6  7  1  0
  6 15  1  0
  7  8  1  0
  8  9  2  0
  8 10  1  0
 10 11  1  0
 11 12  1  0
 12 13  2  0
 12 14  1  0
 15 16  1  0
 15 36  2  0
 16 17  1  0
 17 18  1  1
 17 19  1  0
 19 20  1  6
 19 35  1  0
 20 21  1  0
 21 22  1  0
 22 23  1  6
 22 34  1  0
 23 24  1  0
 24 25  2  0
 24 33  1  0
 25 26  1  0
 26 27  2  0
 27 28  1  0
 28 29  2  0
 28 33  1  0
 29 30  1  0
 29 31  1  0
 31 32  2  0
 32 33  1  0
 34 35  1  0
M  CHG  2  17   1  22   1
M  END
