
     RDKit          3D

 36 40  0  0  0  0  0  0  0  0999 V2000
    1.8150   -0.7630    1.5060 O   0  0  0  0  0  0  0  0  0  0  0  0
    1.9940    0.4340    1.1990 C   0  0  0  0  0  0  0  0  0  0  0  0
    0.9200    1.3360    1.3080 N   0  0  0  0  0  0  0  0  0  0  0  0
   -0.4140    1.1620    1.7160 C   0  0  0  0  0  0  0  0  0  0  0  0
   -1.4320    0.3430    1.0070 C   0  0  2  0  0  0  0  0  0  0  0  0
   -1.5560    0.8550   -0.4040 C   0  0  1  0  0  0  0  0  0  0  0  0
   -2.6980    0.3210   -1.1010 N   0  0  0  0  0  0  0  0  0  0  0  0
   -3.8680    1.0540   -1.0670 C   0  0  0  0  0  0  0  0  0  0  0  0
   -5.2200    0.4750   -1.3070 C   0  0  0  0  0  0  0  0  0  0  0  0
   -6.3640    1.2610   -1.2440 C   0  0  0  0  0  0  0  0  0  0  0  0
   -7.6120    0.7250   -1.4310 C   0  0  0  0  0  0  0  0  0  0  0  0
   -7.7640   -0.6340   -1.6890 C   0  0  0  0  0  0  0  0  0  0  0  0
   -6.6310   -1.3930   -1.7470 C   0  0  0  0  0  0  0  0  0  0  0  0
   -5.3980   -0.8620   -1.5630 C   0  0  0  0  0  0  0  0  0  0  0  0
   -3.7370    2.3310   -0.7840 C   0  0  0  0  0  0  0  0  0  0  0  0
   -1.9920    2.6310   -0.5180 S   0  0  0  0  0  0  0  0  0  0  0  0
   -2.7370    0.6260    1.8040 C   0  0  0  0  0  0  0  0  0  0  0  0
   -3.2690   -0.7520    2.1770 C   0  0  0  0  0  0  0  0  0  0  0  0
   -3.4840   -1.4320    1.0050 O   0  0  0  0  0  0  0  0  0  0  0  0
   -2.2810   -2.0020    0.6750 C   0  0  0  0  0  0  0  0  0  0  0  0
   -1.1070   -1.0830    0.9840 C   0  0  0  0  0  0  0  0  0  0  0  0
    3.3320    0.8610    0.7390 C   0  0  0  0  0  0  0  0  0  0  0  0
    3.7680    2.1740    0.6720 C   0  0  0  0  0  0  0  0  0  0  0  0
    5.0560    2.4900    0.2490 C   0  0  0  0  0  0  0  0  0  0  0  0
    5.9450    1.4840   -0.1120 C   0  0  0  0  0  0  0  0  0  0  0  0
    5.5310    0.1580   -0.0570 C   0  0  0  0  0  0  0  0  0  0  0  0
    6.4530   -0.9170   -0.3910 C   0  0  0  0  0  0  0  0  0  0  0  0
    6.2190   -2.2320   -0.4380 N   0  0  0  0  0  0  0  0  0  0  0  0
    7.3070   -2.8270   -0.7480 O   0  0  0  0  0  0  0  0  0  0  0  0
    8.3000   -1.9690   -0.9190 C   0  0  0  0  0  0  0  0  0  0  0  0
    9.6720   -2.3420   -1.2790 C   0  0  2  0  0  0  0  0  0  0  0  0
    9.8790   -3.7170   -1.1070 F   0  0  0  0  0  0  0  0  0  0  0  0
   10.5930   -1.6390   -0.4690 F   0  0  0  0  0  0  0  0  0  0  0  0
    9.9610   -1.9460   -2.5480 F   0  0  0  0  0  0  0  0  0  0  0  0
    7.7530   -0.7700   -0.6920 N   0  0  0  0  0  0  0  0  0  0  0  0
    4.2150   -0.1120    0.3790 C   0  0  0  0  0  0  0  0  0  0  0  0
  1  2  2  0
  2  3  1  0
  2 22  1  0
  3  4  1  0
  5  4  1  1
  5  6  1  0
  5 17  1  0
  5 21  1  0
  6  7  1  6
  6 16  1  0
  7  8  1  0
  8  9  1  0
  8 15  2  0
  9 10  2  0
  9 14  1  0
 10 11  1  0
 11 12  2  0
 12 13  1  0
 13 14  2  0
 15 16  1  0
 17 18  1  0
 18 19  1  0
 19 20  1  0
 20 21  1  0
 22 23  2  0
 22 36  1  0
 23 24  1  0
 24 25  2  0
 25 26  1  0
 26 27  1  0
 26 36  2  0
 27 28  2  0
 27 35  1  0
 28 29  1  0
 29 30  1  0
 30 31  1  0
 30 35  2  0
 31 32  1  6
 31 33  1  0
 31 34  1  0
M  END
