
     RDKit          3D

 37 41  0  0  0  0  0  0  0  0999 V2000
   -7.1000    2.9840    1.9210 C   0  0  0  0  0  0  0  0  0  0  0  0
   -6.9280    1.7030    2.7130 C   0  0  0  0  0  0  0  0  0  0  0  0
   -5.7800    0.9490    2.1380 C   0  0  0  0  0  0  0  0  0  0  0  0
   -4.4830    1.1110    2.5720 C   0  0  0  0  0  0  0  0  0  0  0  0
   -3.4460    0.3730    1.9910 C   0  0  0  0  0  0  0  0  0  0  0  0
   -3.6970   -0.5260    0.9780 C   0  0  0  0  0  0  0  0  0  0  0  0
   -4.9950   -0.6870    0.5450 C   0  0  0  0  0  0  0  0  0  0  0  0
   -6.0130    0.0420    1.1200 C   0  0  0  0  0  0  0  0  0  0  0  0
   -5.3980   -1.5510   -0.4610 O   0  0  0  0  0  0  0  0  0  0  0  0
   -4.8020   -2.7130   -0.9970 C   0  0  0  0  0  0  0  0  0  0  0  0
   -3.3920   -2.5770   -1.3630 C   0  0  0  0  0  0  0  0  0  0  0  0
   -3.0950   -3.2500   -2.5570 C   0  0  0  0  0  0  0  0  0  0  0  0
   -1.8070   -3.2320   -3.0580 C   0  0  0  0  0  0  0  0  0  0  0  0
   -1.4720   -3.8890   -4.2400 O   0  0  0  0  0  0  0  0  0  0  0  0
   -0.8050   -2.5530   -2.3890 C   0  0  0  0  0  0  0  0  0  0  0  0
    0.5450   -2.5820   -2.9520 C   0  0  0  0  0  0  0  0  0  0  0  0
    1.5320   -1.8240   -2.2250 N   0  0  0  0  0  0  0  0  0  0  0  0
    1.4420   -0.4250   -2.1230 C   0  0  0  0  0  0  0  0  0  0  0  0
    0.4290    0.0950   -2.7310 O   0  0  0  0  0  0  0  0  0  0  0  0
    2.3430    0.4760   -1.4240 C   0  0  0  0  0  0  0  0  0  0  0  0
    2.0780    1.8500   -1.4380 C   0  0  0  0  0  0  0  0  0  0  0  0
    2.9010    2.7340   -0.7920 C   0  0  0  0  0  0  0  0  0  0  0  0
    4.0240    2.3430   -0.0950 C   0  0  0  0  0  0  0  0  0  0  0  0
    4.8460    3.2650    0.5550 O   0  0  0  0  0  0  0  0  0  0  0  0
    5.9500    2.7670    1.2320 C   0  0  0  0  0  0  0  0  0  0  0  0
    5.8440    2.4070    2.5620 C   0  0  0  0  0  0  0  0  0  0  0  0
    6.9200    1.9090    3.2670 C   0  0  0  0  0  0  0  0  0  0  0  0
    8.0960    1.7760    2.6320 N   0  0  0  0  0  0  0  0  0  0  0  0
    8.2490    2.1070    1.3590 C   0  0  0  0  0  0  0  0  0  0  0  0
    7.1830    2.6060    0.6430 C   0  0  0  0  0  0  0  0  0  0  0  0
    4.2780    0.9940   -0.0850 C   0  0  0  0  0  0  0  0  0  0  0  0
    3.4500    0.0680   -0.7400 C   0  0  0  0  0  0  0  0  0  0  0  0
    3.7810   -1.2620   -0.6770 O   0  0  0  0  0  0  0  0  0  0  0  0
    4.9270   -1.6760    0.0320 C   0  0  0  0  0  0  0  0  0  0  0  0
   -1.1180   -1.8940   -1.2100 C   0  0  0  0  0  0  0  0  0  0  0  0
   -2.4000   -1.9000   -0.6930 C   0  0  0  0  0  0  0  0  0  0  0  0
   -2.5510   -1.1900    0.4990 O   0  0  0  0  0  0  0  0  0  0  0  0
  1  2  1  0
  2  3  1  0
  3  4  2  0
  3  8  1  0
  4  5  1  0
  5  6  2  0
  6  7  1  0
  6 37  1  0
  7  8  2  0
  7  9  1  0
  9 10  1  0
 10 11  1  0
 11 12  2  0
 11 36  1  0
 12 13  1  0
 13 14  1  0
 13 15  2  0
 15 16  1  0
 15 35  1  0
 16 17  1  0
 17 18  1  0
 18 19  2  0
 18 20  1  0
 20 21  2  0
 20 32  1  0
 21 22  1  0
 22 23  2  0
 23 24  1  0
 23 31  1  0
 24 25  1  0
 25 26  2  0
 25 30  1  0
 26 27  1  0
 27 28  2  0
 28 29  1  0
 29 30  2  0
 31 32  2  0
 32 33  1  0
 33 34  1  0
 35 36  2  0
 36 37  1  0
M  END
