
     RDKit          3D

 36 39  0  0  0  0  0  0  0  0999 V2000
   -7.8090    0.5130    1.2490 C   0  0  0  0  0  0  0  0  0  0  0  0
   -6.6690    0.2060    0.6900 C   0  0  0  0  0  0  0  0  0  0  0  0
   -6.7410   -0.5500   -0.4780 C   0  0  0  0  0  0  0  0  0  0  0  0
   -7.9610   -1.0300   -1.1340 C   0  0  0  0  0  0  0  0  0  0  0  0
   -5.5370   -0.8990   -1.1030 C   0  0  0  0  0  0  0  0  0  0  0  0
   -5.5610   -1.6480   -2.2680 C   0  0  0  0  0  0  0  0  0  0  0  0
   -4.3660   -1.9780   -2.8700 C   0  0  0  0  0  0  0  0  0  0  0  0
   -3.1540   -1.5890   -2.3520 C   0  0  0  0  0  0  0  0  0  0  0  0
   -3.1520   -0.8480   -1.1980 C   0  0  0  0  0  0  0  0  0  0  0  0
   -1.8810   -0.4230   -0.6100 C   0  0  1  0  0  0  0  0  0  0  0  0
   -1.7560   -1.0610    0.6150 O   0  0  0  0  0  0  0  0  0  0  0  0
   -0.6930   -0.8170   -1.4640 C   0  0  0  0  0  0  0  0  0  0  0  0
    0.5740   -0.4320   -0.9380 N   0  0  0  0  0  0  0  0  0  0  0  0
    1.1800   -0.8520    0.2580 C   0  0  0  0  0  0  0  0  0  0  0  0
    0.6080   -1.6660    1.0010 O   0  0  0  0  0  0  0  0  0  0  0  0
    2.5300   -0.3430    0.6900 C   0  0  0  0  0  0  0  0  0  0  0  0
    3.1230    0.5670   -0.1840 N   0  0  0  0  0  0  0  0  0  0  0  0
    2.6360    1.8830   -0.2510 C   0  0  0  0  0  0  0  0  0  0  0  0
    3.5510    2.8660    0.4510 C   0  0  0  0  0  0  0  0  0  0  0  0
    2.9440    4.1330    0.3060 O   0  0  0  0  0  0  0  0  0  0  0  0
    4.1160    0.0020   -1.4170 S   0  0  2  0  0  0  0  0  0  0  0  0
    4.6670    1.1110   -2.2820 O   0  0  0  0  0  0  0  0  0  0  0  0
    3.4440   -0.9730   -2.3560 O   0  0  0  0  0  0  0  0  0  0  0  0
    5.4830   -0.8340   -0.6880 C   0  0  0  0  0  0  0  0  0  0  0  0
    5.8440   -2.1650   -0.8660 C   0  0  0  0  0  0  0  0  0  0  0  0
    6.9430   -2.4360   -0.1450 N   0  0  0  0  0  0  0  0  0  0  0  0
    7.3430   -1.3360    0.5170 C   0  0  0  0  0  0  0  0  0  0  0  0
    6.4300   -0.3330    0.1780 C   0  0  0  0  0  0  0  0  0  0  0  0
    6.8230    0.9050    0.8800 C   0  0  0  0  0  0  0  0  0  0  0  0
    8.2600    0.6790    1.0710 N   0  0  0  0  0  0  0  0  0  0  0  0
    8.3290   -0.7190    1.4510 C   0  0  0  0  0  0  0  0  0  0  0  0
   -4.3450   -0.4870   -0.5480 C   0  0  0  0  0  0  0  0  0  0  0  0
   -4.2980    0.2520    0.5920 C   0  0  0  0  0  0  0  0  0  0  0  0
   -5.4910    0.6300    1.2630 C   0  0  0  0  0  0  0  0  0  0  0  0
   -5.3140    1.3370    2.3400 C   0  0  0  0  0  0  0  0  0  0  0  0
   -6.2390    1.9110    3.2860 C   0  0  0  0  0  0  0  0  0  0  0  0
  1  2  2  0
  2  3  1  0
  2 34  1  0
  3  4  1  0
  3  5  2  0
  5  6  1  0
  5 32  1  0
  6  7  2  0
  7  8  1  0
  8  9  2  0
  9 10  1  0
  9 32  1  0
 10 11  1  1
 10 12  1  0
 12 13  1  0
 13 14  1  0
 14 15  2  0
 14 16  1  0
 16 17  1  0
 17 18  1  0
 21 17  1  1
 18 19  1  0
 19 20  1  0
 21 22  2  0
 21 23  2  0
 21 24  1  0
 24 25  2  0
 24 28  1  0
 25 26  1  0
 26 27  1  0
 27 28  2  0
 27 31  1  0
 28 29  1  0
 29 30  1  0
 30 31  1  0
 32 33  2  0
 33 34  1  0
 34 35  2  3
 35 36  1  0
M  CHG  1  30   1
M  END
