
     RDKit          3D

 37 41  0  0  0  0  0  0  0  0999 V2000
    3.4090   -0.4660    2.0050 O   0  0  0  0  0  0  0  0  0  0  0  0
    4.0320   -0.1410    0.9830 C   0  0  0  0  0  0  0  0  0  0  0  0
    5.5330   -0.2530    0.9910 C   0  0  0  0  0  0  0  0  0  0  0  0
    6.0660    0.1590   -0.2420 O   0  0  0  0  0  0  0  0  0  0  0  0
    7.4130    0.1690   -0.5300 C   0  0  0  0  0  0  0  0  0  0  0  0
    7.8400    0.5930   -1.7740 C   0  0  0  0  0  0  0  0  0  0  0  0
    9.1980    0.5980   -2.0520 C   0  0  0  0  0  0  0  0  0  0  0  0
   10.1440    0.1880   -1.1100 C   0  0  0  0  0  0  0  0  0  0  0  0
    9.7250   -0.2320    0.1220 C   0  0  0  0  0  0  0  0  0  0  0  0
    8.3520   -0.2300    0.3820 C   0  0  0  0  0  0  0  0  0  0  0  0
   10.6670   -0.6730    1.1510 C   0  0  0  0  0  0  0  0  0  0  0  0
   12.0690   -0.6130    0.7170 C   0  0  0  0  0  0  0  0  0  0  0  0
   12.4200   -0.2020   -0.4790 C   0  0  0  0  0  0  0  0  0  0  0  0
   11.5050    0.2060   -1.4240 O   0  0  0  0  0  0  0  0  0  0  0  0
    3.4090    0.3310   -0.1950 N   0  0  0  0  0  0  0  0  0  0  0  0
    2.0190    0.4920   -0.3440 C   0  0  0  0  0  0  0  0  0  0  0  0
    1.1100    0.4440    0.6660 C   0  0  0  0  0  0  0  0  0  0  0  0
   -0.2500    0.6030    0.4050 C   0  0  0  0  0  0  0  0  0  0  0  0
   -0.7650    0.8100   -0.8390 C   0  0  0  0  0  0  0  0  0  0  0  0
   -2.1510    0.9410   -1.1960 C   0  0  0  0  0  0  0  0  0  0  0  0
   -2.4430    1.6830   -2.1880 O   0  0  0  0  0  0  0  0  0  0  0  0
   -3.2280    0.2820   -0.4980 C   0  0  0  0  0  0  0  0  0  0  0  0
   -3.0710   -0.7620    0.3680 C   0  0  0  0  0  0  0  0  0  0  0  0
   -4.1690   -1.3640    0.9610 C   0  0  0  0  0  0  0  0  0  0  0  0
   -5.3940   -0.9300    0.6910 N   0  0  0  0  0  0  0  0  0  0  0  0
   -5.6430    0.0900   -0.1490 C   0  0  0  0  0  0  0  0  0  0  0  0
   -6.8930    0.5780   -0.4640 O   0  0  0  0  0  0  0  0  0  0  0  0
   -8.0200   -0.0150    0.1400 C   0  0  2  0  0  0  0  0  0  0  0  0
   -8.9390   -0.6350   -0.9170 C   0  0  0  0  0  0  0  0  0  0  0  0
   -9.7900   -1.6580   -0.1460 C   0  0  0  0  0  0  0  0  0  0  0  0
  -10.4500   -0.9800    1.0410 C   0  0  0  0  0  0  0  0  0  0  0  0
  -10.2490    0.5180    0.9990 C   0  0  0  0  0  0  0  0  0  0  0  0
   -8.8300    0.9520    0.9350 C   0  0  0  0  0  0  0  0  0  0  0  0
   -4.5530    0.6820   -0.7330 C   0  0  0  0  0  0  0  0  0  0  0  0
   -4.7430    1.7440   -1.6130 O   0  0  0  0  0  0  0  0  0  0  0  0
    0.1720    0.8620   -1.8890 C   0  0  0  0  0  0  0  0  0  0  0  0
    1.5060    0.7050   -1.6210 C   0  0  0  0  0  0  0  0  0  0  0  0
  1  2  2  0
  2  3  1  0
  2 15  1  0
  3  4  1  0
  4  5  1  0
  5  6  2  0
  5 10  1  0
  6  7  1  0
  7  8  2  0
  8  9  1  0
  8 14  1  0
  9 10  2  0
  9 11  1  0
 11 12  1  0
 12 13  2  0
 13 14  1  0
 15 16  1  0
 16 17  2  0
 16 37  1  0
 17 18  1  0
 18 19  2  0
 19 20  1  0
 19 36  1  0
 20 21  2  0
 20 22  1  0
 22 23  2  0
 22 34  1  0
 23 24  1  0
 24 25  2  0
 25 26  1  0
 26 27  1  0
 26 34  2  0
 28 27  1  6
 28 29  1  0
 28 33  1  0
 29 30  1  0
 30 31  1  0
 31 32  1  0
 32 33  1  0
 34 35  1  0
 36 37  2  0
M  END
