
     RDKit          3D

 37 41  0  0  0  0  0  0  0  0999 V2000
    7.7230   -3.3180    0.7360 C   0  0  0  0  0  0  0  0  0  0  0  0
    7.2830   -2.2720    1.6190 O   0  0  0  0  0  0  0  0  0  0  0  0
    7.2320   -0.9570    1.1210 C   0  0  0  0  0  0  0  0  0  0  0  0
    7.5790   -0.7900   -0.0680 O   0  0  0  0  0  0  0  0  0  0  0  0
    6.7830    0.1030    2.0190 C   0  0  0  0  0  0  0  0  0  0  0  0
    5.3000    0.2100    2.0100 C   0  0  0  0  0  0  0  0  0  0  0  0
    4.7320    0.5370    0.6520 C   0  0  0  0  0  0  0  0  0  0  0  0
    5.5250    0.7520   -0.2900 O   0  0  0  0  0  0  0  0  0  0  0  0
    3.3530    0.6000    0.4300 N   0  0  0  0  0  0  0  0  0  0  0  0
    2.6990    0.8940   -0.7840 C   0  0  0  0  0  0  0  0  0  0  0  0
    3.2700    1.3910   -1.9220 C   0  0  0  0  0  0  0  0  0  0  0  0
    2.5300    1.6240   -3.0680 C   0  0  0  0  0  0  0  0  0  0  0  0
    1.1970    1.3670   -3.1170 C   0  0  0  0  0  0  0  0  0  0  0  0
    0.4740    1.6070   -4.2780 O   0  0  0  0  0  0  0  0  0  0  0  0
    0.5620    0.8550   -1.9760 C   0  0  0  0  0  0  0  0  0  0  0  0
   -0.8650    0.6100   -2.0460 C   0  0  0  0  0  0  0  0  0  0  0  0
   -1.4850    0.9760   -3.0900 O   0  0  0  0  0  0  0  0  0  0  0  0
   -1.6710   -0.0250   -1.0180 C   0  0  0  0  0  0  0  0  0  0  0  0
   -1.2450   -1.1500   -0.3520 C   0  0  0  0  0  0  0  0  0  0  0  0
   -2.0210   -1.7840    0.6240 C   0  0  0  0  0  0  0  0  0  0  0  0
   -1.5900   -2.9090    1.2890 C   0  0  0  0  0  0  0  0  0  0  0  0
   -2.3610   -3.5360    2.2580 C   0  0  0  0  0  0  0  0  0  0  0  0
   -3.5930   -2.9800    2.5320 C   0  0  0  0  0  0  0  0  0  0  0  0
   -4.0160   -1.8530    1.8590 C   0  0  0  0  0  0  0  0  0  0  0  0
   -5.2540   -1.3020    2.1410 C   0  0  0  0  0  0  0  0  0  0  0  0
   -5.7030   -0.1760    1.4850 C   0  0  0  0  0  0  0  0  0  0  0  0
   -7.0370    0.4290    1.7790 C   0  0  0  0  0  0  0  0  0  0  0  0
   -4.9340    0.4440    0.5240 C   0  0  0  0  0  0  0  0  0  0  0  0
   -5.3380    1.5650   -0.1530 C   0  0  0  0  0  0  0  0  0  0  0  0
   -4.5350    2.1720   -1.1220 C   0  0  0  0  0  0  0  0  0  0  0  0
   -4.9690    3.3020   -1.7900 O   0  0  0  0  0  0  0  0  0  0  0  0
   -4.1550    3.9120   -2.7680 C   0  0  0  0  0  0  0  0  0  0  0  0
   -3.3320    1.6450   -1.4020 N   0  0  0  0  0  0  0  0  0  0  0  0
   -2.9220    0.5430   -0.7450 C   0  0  0  0  0  0  0  0  0  0  0  0
   -3.6840   -0.0820    0.2150 C   0  0  0  0  0  0  0  0  0  0  0  0
   -3.2500   -1.2240    0.8920 C   0  0  0  0  0  0  0  0  0  0  0  0
    1.3210    0.6360   -0.8570 C   0  0  0  0  0  0  0  0  0  0  0  0
  1  2  1  0
  2  3  1  0
  3  4  2  0
  3  5  1  0
  5  6  1  0
  6  7  1  0
  7  8  2  0
  7  9  1  0
  9 10  1  0
 10 11  2  0
 10 37  1  0
 11 12  1  0
 12 13  2  0
 13 14  1  0
 13 15  1  0
 15 16  1  0
 15 37  2  0
 16 17  2  0
 16 18  1  0
 18 19  2  0
 18 34  1  0
 19 20  1  0
 20 21  2  0
 20 36  1  0
 21 22  1  0
 22 23  2  0
 23 24  1  0
 24 25  2  0
 24 36  1  0
 25 26  1  0
 26 27  1  0
 26 28  2  0
 28 29  1  0
 28 35  1  0
 29 30  2  0
 30 31  1  0
 30 33  1  0
 31 32  1  0
 33 34  2  0
 34 35  1  0
 35 36  2  0
M  END
