
     RDKit          3D

 37 41  0  0  0  0  0  0  0  0999 V2000
   -4.2070   -3.7320   -3.0780 C   0  0  0  0  0  0  0  0  0  0  0  0
   -4.9630   -2.7120   -2.3130 C   0  0  0  0  0  0  0  0  0  0  0  0
   -6.2770   -2.6630   -2.1180 N   0  0  0  0  0  0  0  0  0  0  0  0
   -6.5400   -1.5800   -1.3730 C   0  0  0  0  0  0  0  0  0  0  0  0
   -5.3460   -0.9070   -1.0780 C   0  0  0  0  0  0  0  0  0  0  0  0
   -5.0480    0.1560   -0.4150 O   0  0  0  0  0  0  0  0  0  0  0  0
   -3.7690    0.5810   -0.2930 C   0  0  0  0  0  0  0  0  0  0  0  0
   -3.5530    1.8000    0.4700 C   0  0  0  0  0  0  0  0  0  0  0  0
   -4.3920    2.0460    1.5760 C   0  0  0  0  0  0  0  0  0  0  0  0
   -4.3550    3.2080    2.2970 C   0  0  0  0  0  0  0  0  0  0  0  0
   -3.4710    4.1980    1.9490 C   0  0  0  0  0  0  0  0  0  0  0  0
   -2.6390    4.0080    0.8840 C   0  0  0  0  0  0  0  0  0  0  0  0
   -2.7000    2.8230    0.1750 C   0  0  0  0  0  0  0  0  0  0  0  0
   -2.7420   -0.1000   -0.8570 C   0  0  0  0  0  0  0  0  0  0  0  0
   -1.3450    0.1220   -0.6150 C   0  0  0  0  0  0  0  0  0  0  0  0
   -0.4800   -0.5410   -1.2960 O   0  0  0  0  0  0  0  0  0  0  0  0
   -0.7900    0.9740    0.2920 O   0  0  0  0  0  0  0  0  0  0  0  0
    0.5570    1.2000    0.5540 C   0  0  0  0  0  0  0  0  0  0  0  0
    1.2800   -0.0370    1.0030 C   0  0  0  0  0  0  0  0  0  0  0  0
    0.6040   -1.0740    1.0780 O   0  0  0  0  0  0  0  0  0  0  0  0
    2.6500    0.0600    1.3040 N   0  0  0  0  0  0  0  0  0  0  0  0
    3.4550   -1.0150    1.7390 C   0  0  0  0  0  0  0  0  0  0  0  0
    2.9760   -2.2610    2.0830 C   0  0  0  0  0  0  0  0  0  0  0  0
    3.7870   -3.2960    2.5650 C   0  0  0  0  0  0  0  0  0  0  0  0
    5.1300   -3.0260    2.6910 C   0  0  0  0  0  0  0  0  0  0  0  0
    5.6170   -1.7880    2.3490 C   0  0  0  0  0  0  0  0  0  0  0  0
    4.8210   -0.7710    1.8750 C   0  0  0  0  0  0  0  0  0  0  0  0
    5.3440    0.4630    1.5400 O   0  0  0  0  0  0  0  0  0  0  0  0
    5.2960    0.9080    0.2310 C   0  0  0  0  0  0  0  0  0  0  0  0
    5.7050    2.2050   -0.1050 C   0  0  0  0  0  0  0  0  0  0  0  0
    5.6590    2.6440   -1.3980 C   0  0  0  0  0  0  0  0  0  0  0  0
    5.2020    1.7810   -2.3620 C   0  0  0  0  0  0  0  0  0  0  0  0
    4.7920    0.4980   -2.0630 C   0  0  0  0  0  0  0  0  0  0  0  0
    4.8390    0.0610   -0.7670 C   0  0  0  0  0  0  0  0  0  0  0  0
   -3.0320   -1.2720   -1.5970 C   0  0  0  0  0  0  0  0  0  0  0  0
   -2.1330   -1.9400   -2.1460 O   0  0  0  0  0  0  0  0  0  0  0  0
   -4.3570   -1.6410   -1.6830 C   0  0  0  0  0  0  0  0  0  0  0  0
  1  2  1  0
  2  3  1  0
  2 37  2  0
  3  4  1  0
  4  5  2  0
  5  6  1  0
  5 37  1  0
  6  7  1  0
  7  8  1  0
  7 14  2  0
  8  9  2  0
  8 13  1  0
  9 10  1  0
 10 11  2  0
 11 12  1  0
 12 13  2  0
 14 15  1  0
 14 35  1  0
 15 16  2  0
 15 17  1  0
 17 18  1  0
 18 19  1  0
 19 20  2  0
 19 21  1  0
 21 22  1  0
 22 23  2  0
 22 27  1  0
 23 24  1  0
 24 25  2  0
 25 26  1  0
 26 27  2  0
 27 28  1  0
 28 29  1  0
 29 30  2  0
 29 34  1  0
 30 31  1  0
 31 32  2  0
 32 33  1  0
 33 34  2  0
 35 36  2  0
 35 37  1  0
M  END
