
     RDKit          3D

 36 39  0  0  0  0  0  0  0  0999 V2000
   -8.8030    0.7850   -0.5010 C   0  0  0  0  0  0  0  0  0  0  0  0
   -8.1290    0.7080    0.8390 C   0  0  0  0  0  0  0  0  0  0  0  0
   -6.6870    0.3960    0.7820 C   0  0  0  0  0  0  0  0  0  0  0  0
   -5.8480    1.5020    0.8450 C   0  0  0  0  0  0  0  0  0  0  0  0
   -4.4890    1.3330    0.7920 C   0  0  0  0  0  0  0  0  0  0  0  0
   -3.9390    0.0980    0.6760 C   0  0  0  0  0  0  0  0  0  0  0  0
   -2.5480   -0.0250    0.6220 C   0  0  0  0  0  0  0  0  0  0  0  0
   -1.7090    1.1210    0.6560 N   0  0  0  0  0  0  0  0  0  0  0  0
   -0.3050    1.1180    0.8050 C   0  0  0  0  0  0  0  0  0  0  0  0
    0.3190    0.0520    0.9320 O   0  0  0  0  0  0  0  0  0  0  0  0
    0.4970    2.3870    0.8230 C   0  0  0  0  0  0  0  0  0  0  0  0
    1.2070    2.6370   -0.8090 S   0  0  0  0  0  0  0  0  0  0  0  0
    2.5510    1.4580   -1.1160 C   0  0  0  0  0  0  0  0  0  0  0  0
    3.1390    0.7180   -0.2500 N   0  0  0  0  0  0  0  0  0  0  0  0
    4.1410   -0.0750   -0.8800 C   0  0  2  0  0  0  0  0  0  0  0  0
    3.6270   -1.5320   -0.9090 C   0  0  0  0  0  0  0  0  0  0  0  0
    5.4410   -0.0240   -0.1780 C   0  0  0  0  0  0  0  0  0  0  0  0
    5.5950    0.4960    1.0860 C   0  0  0  0  0  0  0  0  0  0  0  0
    6.8400    0.5160    1.7160 C   0  0  0  0  0  0  0  0  0  0  0  0
    7.9540    0.0110    1.0850 C   0  0  0  0  0  0  0  0  0  0  0  0
    9.1930    0.0380    1.7320 O   0  0  0  0  0  0  0  0  0  0  0  0
    7.8080   -0.5110   -0.1800 C   0  0  0  0  0  0  0  0  0  0  0  0
    8.9440   -1.0080   -0.7820 O   0  0  0  0  0  0  0  0  0  0  0  0
    9.0110   -1.5810   -2.0550 C   0  0  0  0  0  0  0  0  0  0  0  0
    6.5530   -0.5260   -0.8060 C   0  0  0  0  0  0  0  0  0  0  0  0
    4.1760    0.3910   -2.2730 C   0  0  0  0  0  0  0  0  0  0  0  0
    4.9590    0.0680   -3.2110 O   0  0  0  0  0  0  0  0  0  0  0  0
    3.1210    1.3280   -2.4130 N   0  0  0  0  0  0  0  0  0  0  0  0
   -2.0490   -1.2990    0.5000 C   0  0  0  0  0  0  0  0  0  0  0  0
   -2.8880   -2.4060    0.4340 C   0  0  0  0  0  0  0  0  0  0  0  0
   -4.2630   -2.2540    0.4900 C   0  0  0  0  0  0  0  0  0  0  0  0
   -4.7910   -1.0090    0.6120 C   0  0  0  0  0  0  0  0  0  0  0  0
   -6.1890   -0.8770    0.6650 C   0  0  0  0  0  0  0  0  0  0  0  0
   -7.0850   -2.0020    0.5940 C   0  0  0  0  0  0  0  0  0  0  0  0
   -8.3620   -1.9500   -0.0070 N   0  0  0  0  0  0  0  0  0  0  0  0
   -6.8060   -3.1710    1.0660 O   0  0  0  0  0  0  0  0  0  0  0  0
  1  2  1  0
  2  3  1  0
  3  4  2  0
  3 33  1  0
  4  5  1  0
  5  6  2  0
  6  7  1  0
  6 32  1  0
  7  8  1  0
  7 29  2  0
  8  9  1  0
  9 10  2  0
  9 11  1  0
 11 12  1  0
 12 13  1  0
 13 14  2  0
 13 28  1  0
 14 15  1  0
 15 16  1  6
 15 17  1  0
 15 26  1  0
 17 18  2  0
 17 25  1  0
 18 19  1  0
 19 20  2  0
 20 21  1  0
 20 22  1  0
 22 23  1  0
 22 25  2  0
 23 24  1  0
 26 27  2  0
 26 28  1  0
 29 30  1  0
 30 31  2  0
 31 32  1  0
 32 33  2  0
 33 34  1  0
 34 35  1  0
 34 36  2  0
M  CHG  1  14   1
M  END
