
     RDKit          3D

 36 39  0  0  0  0  0  0  0  0999 V2000
    5.1270    2.3960    2.7220 C   0  0  0  0  0  0  0  0  0  0  0  0
    5.9130    2.8520    1.4920 C   0  0  0  0  0  0  0  0  0  0  0  0
    4.9410    3.1620    0.3870 C   0  0  0  0  0  0  0  0  0  0  0  0
    4.1190    2.0400   -0.0180 C   0  0  0  0  0  0  0  0  0  0  0  0
    2.3990    1.7260    0.3770 S   0  0  0  0  0  0  0  0  0  0  0  0
    2.2340    0.2220   -0.4830 C   0  0  0  0  0  0  0  0  0  0  0  0
    1.0280   -0.5720   -0.5510 N   0  0  0  0  0  0  0  0  0  0  0  0
    0.8870   -1.7660   -1.2450 C   0  0  0  0  0  0  0  0  0  0  0  0
    1.9130   -2.2150   -1.8720 O   0  0  0  0  0  0  0  0  0  0  0  0
   -0.3430   -2.6080   -1.3450 C   0  0  2  0  0  0  0  0  0  0  0  0
   -1.4500   -2.2740   -0.4380 C   0  0  0  0  0  0  0  0  0  0  0  0
   -2.0360   -0.9160   -0.6610 C   0  0  0  0  0  0  0  0  0  0  0  0
   -1.7440   -0.2880   -1.6880 O   0  0  0  0  0  0  0  0  0  0  0  0
   -2.9190   -0.3380    0.2860 N   0  0  0  0  0  0  0  0  0  0  0  0
   -3.5390    0.9300    0.1970 C   0  0  0  0  0  0  0  0  0  0  0  0
   -3.4080    1.8250   -0.8240 C   0  0  0  0  0  0  0  0  0  0  0  0
   -4.0600    3.0640   -0.8350 C   0  0  0  0  0  0  0  0  0  0  0  0
   -3.8750    3.9910   -1.9770 C   0  0  0  0  0  0  0  0  0  0  0  0
   -4.8540    3.3570    0.2370 C   0  0  0  0  0  0  0  0  0  0  0  0
   -5.5530    4.6480    0.2560 C   0  0  0  0  0  0  0  0  0  0  0  0
   -5.0130    2.4740    1.2940 C   0  0  0  0  0  0  0  0  0  0  0  0
   -5.7400    2.5190    2.4750 C   0  0  0  0  0  0  0  0  0  0  0  0
   -5.4980    1.3330    3.1290 C   0  0  0  0  0  0  0  0  0  0  0  0
   -4.6920    0.6350    2.3990 O   0  0  0  0  0  0  0  0  0  0  0  0
   -4.3660    1.2790    1.2740 C   0  0  0  0  0  0  0  0  0  0  0  0
    0.0100   -3.9700   -1.5170 N   0  0  0  0  0  0  0  0  0  0  0  0
    0.0760   -4.7440   -0.3130 C   0  0  2  0  0  0  0  0  0  0  0  0
    1.4720   -4.8790    0.2450 C   0  0  0  0  0  0  0  0  0  0  0  0
    1.3330   -6.1380    1.0560 C   0  0  0  0  0  0  0  0  0  0  0  0
    1.8870   -6.4760    2.1090 O   0  0  0  0  0  0  0  0  0  0  0  0
    0.3760   -6.9470    0.3540 N   0  0  0  0  0  0  0  0  0  0  0  0
   -0.2490   -6.1550   -0.6460 C   0  0  0  0  0  0  0  0  0  0  0  0
   -0.9270   -6.5920   -1.5960 O   0  0  0  0  0  0  0  0  0  0  0  0
    3.4670    0.0330   -1.0180 C   0  0  0  0  0  0  0  0  0  0  0  0
    4.4220    0.9560   -0.7810 C   0  0  0  0  0  0  0  0  0  0  0  0
    5.8430    0.8190   -1.3470 C   0  0  0  0  0  0  0  0  0  0  0  0
  1  2  1  0
  2  3  1  0
  3  4  1  0
  4  5  1  0
  4 35  2  0
  5  6  1  0
  6  7  1  0
  6 34  2  0
  7  8  1  0
  8  9  2  0
  8 10  1  0
 10 11  1  1
 10 26  1  0
 11 12  1  0
 12 13  2  0
 12 14  1  0
 14 15  1  0
 15 16  2  0
 15 25  1  0
 16 17  1  0
 17 18  1  0
 17 19  2  0
 19 20  1  0
 19 21  1  0
 21 22  1  0
 21 25  2  0
 22 23  2  0
 23 24  1  0
 24 25  1  0
 27 26  1  6
 27 28  1  0
 27 32  1  0
 28 29  1  0
 29 30  2  0
 29 31  1  0
 31 32  1  0
 32 33  2  0
 34 35  1  0
 35 36  1  0
M  CHG  1  26   1
M  END
