
     RDKit          3D

 37 41  0  0  0  0  0  0  0  0999 V2000
    0.5070    2.8120    1.4000 C   0  0  0  0  0  0  0  0  0  0  0  0
    0.6380    2.1000    0.1600 O   0  0  0  0  0  0  0  0  0  0  0  0
    0.0800    0.8500    0.1040 C   0  0  0  0  0  0  0  0  0  0  0  0
    0.9000   -0.2200    0.0960 C   0  0  0  0  0  0  0  0  0  0  0  0
    2.3240    0.0430    0.1460 C   0  0  0  0  0  0  0  0  0  0  0  0
    3.2440   -0.8740    0.1450 C   0  0  0  0  0  0  0  0  0  0  0  0
    2.9200   -2.2790    0.0930 C   0  0  0  0  0  0  0  0  0  0  0  0
    1.7650   -2.7030    0.0450 O   0  0  0  0  0  0  0  0  0  0  0  0
    4.6600   -0.4500    0.2010 C   0  0  0  0  0  0  0  0  0  0  0  0
    5.6600   -1.3880    0.2010 C   0  0  0  0  0  0  0  0  0  0  0  0
    7.0130   -1.0190    0.2540 C   0  0  0  0  0  0  0  0  0  0  0  0
    7.9960   -1.9900    0.2530 C   0  0  0  0  0  0  0  0  0  0  0  0
    9.3360   -1.6300    0.3040 C   0  0  0  0  0  0  0  0  0  0  0  0
    9.6240   -0.3010    0.3550 C   0  0  0  0  0  0  0  0  0  0  0  0
    8.6580    0.6760    0.3570 C   0  0  0  0  0  0  0  0  0  0  0  0
    7.3110    0.3120    0.3050 C   0  0  0  0  0  0  0  0  0  0  0  0
    6.3120    1.2520    0.3050 C   0  0  0  0  0  0  0  0  0  0  0  0
    6.5690    2.4800    0.3520 O   0  0  0  0  0  0  0  0  0  0  0  0
    4.9950    0.8350    0.2520 N   0  0  0  0  0  0  0  0  0  0  0  0
   -1.3540    0.6700    0.0560 C   0  0  0  0  0  0  0  0  0  0  0  0
   -1.9920   -0.5330   -0.0010 C   0  0  0  0  0  0  0  0  0  0  0  0
   -3.3680   -0.3170   -0.0350 C   0  0  0  0  0  0  0  0  0  0  0  0
   -4.3980   -1.3440   -0.0960 C   0  0  0  0  0  0  0  0  0  0  0  0
   -4.4870   -2.1580   -1.1960 C   0  0  0  0  0  0  0  0  0  0  0  0
   -5.4470   -3.1540   -1.3120 C   0  0  0  0  0  0  0  0  0  0  0  0
   -6.3440   -3.3300   -0.2820 C   0  0  0  0  0  0  0  0  0  0  0  0
   -6.2630   -2.5160    0.8290 C   0  0  0  0  0  0  0  0  0  0  0  0
   -5.3010   -1.5310    0.9260 C   0  0  0  0  0  0  0  0  0  0  0  0
   -5.2720   -0.7370    2.0830 O   0  0  0  0  0  0  0  0  0  0  0  0
   -3.4970    1.0510    0.0050 C   0  0  0  0  0  0  0  0  0  0  0  0
   -4.7680    1.7800   -0.0100 C   0  0  0  0  0  0  0  0  0  0  0  0
   -5.2060    2.6060    1.0030 C   0  0  0  0  0  0  0  0  0  0  0  0
   -6.4040    3.0950    0.6390 N   0  0  0  0  0  0  0  0  0  0  0  0
   -6.6950    2.5820   -0.5690 C   0  0  0  0  0  0  0  0  0  0  0  0
   -7.9600    2.8890   -1.3250 C   0  0  0  0  0  0  0  0  0  0  0  0
   -5.7130    1.8170   -0.9160 O   0  0  0  0  0  0  0  0  0  0  0  0
   -2.3000    1.5800    0.0570 O   0  0  0  0  0  0  0  0  0  0  0  0
  1  2  1  0
  2  3  1  0
  3  4  2  3
  3 20  1  0
  4  5  1  0
  5  6  2  3
  6  7  1  0
  6  9  1  0
  7  8  2  0
  9 10  2  0
  9 19  1  0
 10 11  1  0
 11 12  2  0
 11 16  1  0
 12 13  1  0
 13 14  2  0
 14 15  1  0
 15 16  2  0
 16 17  1  0
 17 18  2  0
 17 19  1  0
 20 21  2  0
 20 37  1  0
 21 22  1  0
 22 23  1  0
 22 30  2  0
 23 24  2  0
 23 28  1  0
 24 25  1  0
 25 26  2  0
 26 27  1  0
 27 28  2  0
 28 29  1  0
 30 31  1  0
 30 37  1  0
 31 32  2  0
 31 36  1  0
 32 33  1  0
 33 34  2  0
 34 35  1  0
 34 36  1  0
M  END
