
     RDKit          3D

 37 41  0  0  0  0  0  0  0  0999 V2000
    5.3560   -2.1190   -2.4460 C   0  0  0  0  0  0  0  0  0  0  0  0
    4.6220   -1.3280   -1.5660 O   0  0  0  0  0  0  0  0  0  0  0  0
    5.2640   -0.5920   -0.5970 C   0  0  0  0  0  0  0  0  0  0  0  0
    6.6460   -0.6060   -0.4790 C   0  0  0  0  0  0  0  0  0  0  0  0
    7.3410    0.1230    0.4980 C   0  0  0  0  0  0  0  0  0  0  0  0
    8.7300    0.0850    0.5770 C   0  0  0  0  0  0  0  0  0  0  0  0
    9.3860    0.8010    1.5410 C   0  0  0  0  0  0  0  0  0  0  0  0
    8.7050    1.5720    2.4380 C   0  0  0  0  0  0  0  0  0  0  0  0
    7.3190    1.5950    2.3350 C   0  0  0  0  0  0  0  0  0  0  0  0
    6.6220    0.8960    1.3940 C   0  0  0  0  0  0  0  0  0  0  0  0
    5.2140    0.9130    1.2740 C   0  0  0  0  0  0  0  0  0  0  0  0
    4.5700    0.1790    0.2970 C   0  0  0  0  0  0  0  0  0  0  0  0
    3.1090    0.2330    0.2620 C   0  0  0  0  0  0  0  0  0  0  0  0
    2.4800    0.9180    1.0560 O   0  0  0  0  0  0  0  0  0  0  0  0
    2.3410   -0.5730   -0.7620 C   0  0  0  0  0  0  0  0  0  0  0  0
    1.0980   -0.4580   -0.6610 O   0  0  0  0  0  0  0  0  0  0  0  0
   -0.0870   -0.3570   -0.5760 N   0  0  0  0  0  0  0  0  0  0  0  0
   -1.0340   -0.0540   -1.7140 C   0  0  0  0  0  0  0  0  0  0  0  0
   -0.5500    0.0420   -2.7760 O   0  0  0  0  0  0  0  0  0  0  0  0
   -2.4520    0.0860   -1.3090 C   0  0  0  0  0  0  0  0  0  0  0  0
   -3.4400   -0.6180   -1.9570 C   0  0  0  0  0  0  0  0  0  0  0  0
   -4.7050   -0.5900   -1.4960 C   0  0  0  0  0  0  0  0  0  0  0  0
   -5.8320   -1.2740   -2.0680 O   0  0  0  0  0  0  0  0  0  0  0  0
   -6.9750   -0.9960   -1.2530 C   0  0  0  0  0  0  0  0  0  0  0  0
   -7.4000   -1.8520   -0.2700 C   0  0  0  0  0  0  0  0  0  0  0  0
   -8.4970   -1.5350    0.5360 C   0  0  0  0  0  0  0  0  0  0  0  0
   -9.1680   -0.3630    0.3510 C   0  0  0  0  0  0  0  0  0  0  0  0
  -10.2710   -0.0280    1.1580 O   0  0  0  0  0  0  0  0  0  0  0  0
   -8.7480    0.5090   -0.6510 C   0  0  0  0  0  0  0  0  0  0  0  0
   -7.6400    0.1800   -1.4550 C   0  0  0  0  0  0  0  0  0  0  0  0
   -4.9920    0.1510   -0.3790 N   0  0  0  0  0  0  0  0  0  0  0  0
   -4.0620    0.8590    0.2930 C   0  0  0  0  0  0  0  0  0  0  0  0
   -4.4830    1.5720    1.3950 C   0  0  0  0  0  0  0  0  0  0  0  0
   -3.5430    2.3200    2.0840 C   0  0  0  0  0  0  0  0  0  0  0  0
   -2.2480    2.3180    1.6360 C   0  0  0  0  0  0  0  0  0  0  0  0
   -1.8660    1.5640    0.4970 C   0  0  0  0  0  0  0  0  0  0  0  0
   -2.7850    0.8220   -0.1850 C   0  0  0  0  0  0  0  0  0  0  0  0
  1  2  1  0
  2  3  1  0
  3  4  2  0
  3 12  1  0
  4  5  1  0
  5  6  2  0
  5 10  1  0
  6  7  1  0
  7  8  2  0
  8  9  1  0
  9 10  2  0
 10 11  1  0
 11 12  2  0
 12 13  1  0
 13 14  2  0
 13 15  1  0
 15 16  1  0
 16 17  1  0
 17 18  1  0
 18 19  2  0
 18 20  1  0
 20 21  2  0
 20 37  1  0
 21 22  1  0
 22 23  1  0
 22 31  2  0
 23 24  1  0
 24 25  2  0
 24 30  1  0
 25 26  1  0
 26 27  2  0
 27 28  1  0
 27 29  1  0
 29 30  2  0
 31 32  1  0
 32 33  2  0
 32 37  1  0
 33 34  1  0
 34 35  2  0
 35 36  1  0
 36 37  2  0
M  END
