
     RDKit          3D

 37 41  0  0  0  0  0  0  0  0999 V2000
    9.7470   -1.3550    2.1970 C   0  0  0  0  0  0  0  0  0  0  0  0
    8.4050   -1.0460    2.4400 O   0  0  0  0  0  0  0  0  0  0  0  0
    7.4670   -0.7730    1.4540 C   0  0  0  0  0  0  0  0  0  0  0  0
    7.7500   -0.7730    0.1200 C   0  0  0  0  0  0  0  0  0  0  0  0
    6.7550   -0.4900   -0.7920 C   0  0  0  0  0  0  0  0  0  0  0  0
    5.4450   -0.1950   -0.4200 C   0  0  0  0  0  0  0  0  0  0  0  0
    4.4540    0.1130   -1.4290 C   0  0  0  0  0  0  0  0  0  0  0  0
    4.9010    0.6680   -2.4920 O   0  0  0  0  0  0  0  0  0  0  0  0
    3.0400   -0.1760   -1.2730 C   0  0  0  0  0  0  0  0  0  0  0  0
    2.5740   -1.1530   -0.4320 C   0  0  0  0  0  0  0  0  0  0  0  0
    1.1850   -1.3730   -0.3130 C   0  0  0  0  0  0  0  0  0  0  0  0
    0.2590   -0.6550   -1.0030 C   0  0  0  0  0  0  0  0  0  0  0  0
   -1.1270   -0.8520   -0.9690 N   0  0  0  0  0  0  0  0  0  0  0  0
   -1.7860   -1.7350   -0.1040 C   0  0  0  0  0  0  0  0  0  0  0  0
   -1.1970   -2.4390    0.7360 O   0  0  0  0  0  0  0  0  0  0  0  0
   -3.2240   -1.8880   -0.1320 N   0  0  0  0  0  0  0  0  0  0  0  0
   -3.8750   -2.8140    0.7810 C   0  0  0  0  0  0  0  0  0  0  0  0
   -5.3530   -2.8080    0.5760 C   0  0  0  0  0  0  0  0  0  0  0  0
   -6.1280   -3.8260    0.2300 C   0  0  0  0  0  0  0  0  0  0  0  0
   -7.5300   -3.3540    0.1450 C   0  0  0  0  0  0  0  0  0  0  0  0
   -7.4320   -1.9260    0.4940 C   0  0  0  0  0  0  0  0  0  0  0  0
   -6.1680   -1.6130    0.7440 C   0  0  0  0  0  0  0  0  0  0  0  0
    0.7310    0.3470   -1.8650 C   0  0  0  0  0  0  0  0  0  0  0  0
   -0.1550    1.1300   -2.6080 O   0  0  0  0  0  0  0  0  0  0  0  0
   -1.0820    1.9940   -2.0450 C   0  0  0  0  0  0  0  0  0  0  0  0
   -2.0010    2.6530   -2.8350 C   0  0  0  0  0  0  0  0  0  0  0  0
   -2.9350    3.5240   -2.2940 C   0  0  0  0  0  0  0  0  0  0  0  0
   -2.9670    3.7540   -0.9330 C   0  0  0  0  0  0  0  0  0  0  0  0
   -2.0560    3.1060   -0.1150 C   0  0  0  0  0  0  0  0  0  0  0  0
   -1.1560    2.2600   -0.6860 C   0  0  0  0  0  0  0  0  0  0  0  0
   -2.1010    3.3500    1.2660 O   0  0  0  0  0  0  0  0  0  0  0  0
   -3.3540    3.7370    1.8050 C   0  0  0  0  0  0  0  0  0  0  0  0
   -3.7720    4.9880    1.0280 C   0  0  0  0  0  0  0  0  0  0  0  0
   -3.8810    4.6160   -0.3390 O   0  0  0  0  0  0  0  0  0  0  0  0
    2.0930    0.5510   -1.9710 C   0  0  0  0  0  0  0  0  0  0  0  0
    5.1830   -0.2000    0.9290 C   0  0  0  0  0  0  0  0  0  0  0  0
    6.1820   -0.4860    1.8620 C   0  0  0  0  0  0  0  0  0  0  0  0
  1  2  1  0
  2  3  1  0
  3  4  2  0
  3 37  1  0
  4  5  1  0
  5  6  2  0
  6  7  1  0
  6 36  1  0
  7  8  2  0
  7  9  1  0
  9 10  2  0
  9 35  1  0
 10 11  1  0
 11 12  2  0
 12 13  1  0
 12 23  1  0
 13 14  1  0
 14 15  2  0
 14 16  1  0
 16 17  1  0
 17 18  1  0
 18 19  2  0
 18 22  1  0
 19 20  1  0
 20 21  1  0
 21 22  2  0
 23 24  1  0
 23 35  2  0
 24 25  1  0
 25 26  2  0
 25 30  1  0
 26 27  1  0
 27 28  2  0
 28 29  1  0
 28 34  1  0
 29 30  2  0
 29 31  1  0
 31 32  1  0
 32 33  1  0
 33 34  1  0
 36 37  2  0
M  END
