
     RDKit          3D

 37 39  0  0  0  0  0  0  0  0999 V2000
    7.0720    2.3660    1.6830 C   0  0  0  0  0  0  0  0  0  0  0  0
    7.9270    1.8090    0.5840 C   0  0  0  0  0  0  0  0  0  0  0  0
    8.2690    0.3680    0.7660 C   0  0  2  0  0  0  0  0  0  0  0  0
    9.0650   -0.0340   -0.3140 O   0  0  0  0  0  0  0  0  0  0  0  0
    7.0660   -0.5180    0.7980 C   0  0  0  0  0  0  0  0  0  0  0  0
    6.1010   -0.2850   -0.0590 C   0  0  0  0  0  0  0  0  0  0  0  0
    4.8600   -1.0370   -0.1800 C   0  0  0  0  0  0  0  0  0  0  0  0
    3.9110   -0.7890   -1.0460 C   0  0  0  0  0  0  0  0  0  0  0  0
    3.9420    0.4710   -2.2240 S   0  0  0  0  0  0  0  0  0  0  0  0
    5.3780    1.2490   -2.8010 C   0  0  0  0  0  0  0  0  0  0  0  0
    2.6130   -1.6100   -0.9750 C   0  0  2  0  0  0  0  0  0  0  0  0
    1.7730   -1.1800    0.0950 N   0  0  0  0  0  0  0  0  0  0  0  0
    0.5670   -0.4570   -0.1310 C   0  0  0  0  0  0  0  0  0  0  0  0
    0.2380   -0.1760   -1.3180 O   0  0  0  0  0  0  0  0  0  0  0  0
   -0.3040   -0.0210    0.8950 N   0  0  0  0  0  0  0  0  0  0  0  0
   -1.5220    0.7410    0.5860 C   0  0  2  0  0  0  0  0  0  0  0  0
   -1.3590    2.0620    1.3420 C   0  0  0  0  0  0  0  0  0  0  0  0
   -2.7230    0.0010    1.0050 C   0  0  0  0  0  0  0  0  0  0  0  0
   -2.6590   -0.5760    2.1180 O   0  0  0  0  0  0  0  0  0  0  0  0
   -3.8980   -0.1030    0.2570 N   0  0  0  0  0  0  0  0  0  0  0  0
   -4.2030    0.4800   -1.0180 C   0  0  0  0  0  0  0  0  0  0  0  0
   -4.9450    1.7550   -0.8810 C   0  0  1  0  0  0  0  0  0  0  0  0
   -4.1580    2.8550   -0.2670 C   0  0  0  0  0  0  0  0  0  0  0  0
   -4.9960    4.0870   -0.6690 C   0  0  0  0  0  0  0  0  0  0  0  0
   -5.5580    3.6270   -1.9700 C   0  0  0  0  0  0  0  0  0  0  0  0
   -5.2610    2.3020   -2.1350 O   0  0  0  0  0  0  0  0  0  0  0  0
   -4.9410   -0.9210    0.8620 C   0  0  0  0  0  0  0  0  0  0  0  0
   -5.4080   -0.5720    2.0320 C   0  0  0  0  0  0  0  0  0  0  0  0
   -6.4870   -1.3760    2.7090 C   0  0  0  0  0  0  0  0  0  0  0  0
   -7.4700   -1.8090    1.6250 C   0  0  0  0  0  0  0  0  0  0  0  0
   -6.7900   -2.6920    0.6270 C   0  0  0  0  0  0  0  0  0  0  0  0
   -5.4810   -2.0970    0.2170 C   0  0  0  0  0  0  0  0  0  0  0  0
   -4.8130   -2.6790   -0.7580 C   0  0  0  0  0  0  0  0  0  0  0  0
   -5.2910   -3.8100   -1.4070 O   0  0  0  0  0  0  0  0  0  0  0  0
    3.0360   -3.0430   -0.9310 C   0  0  0  0  0  0  0  0  0  0  0  0
    3.9520   -3.3520    0.2020 C   0  0  0  0  0  0  0  0  0  0  0  0
    4.6960   -2.1840    0.7630 C   0  0  0  0  0  0  0  0  0  0  0  0
  1  2  1  0
  2  3  1  0
  3  4  1  6
  3  5  1  0
  5  6  2  3
  6  7  1  0
  7  8  2  0
  7 37  1  0
  8  9  1  0
  8 11  1  0
  9 10  1  0
 11 12  1  1
 11 35  1  0
 12 13  1  0
 13 14  2  0
 13 15  1  0
 15 16  1  0
 16 17  1  1
 16 18  1  0
 18 19  2  0
 18 20  1  0
 20 21  1  0
 20 27  1  0
 22 21  1  6
 22 23  1  0
 22 26  1  0
 23 24  1  0
 24 25  1  0
 25 26  1  0
 27 28  2  0
 27 32  1  0
 28 29  1  0
 29 30  1  0
 30 31  1  0
 31 32  1  0
 32 33  2  3
 33 34  1  0
 35 36  1  0
 36 37  1  0
M  END
