
     RDKit          3D

 37 39  0  0  0  0  0  0  0  0999 V2000
   -5.3090    3.9820    0.1400 C   0  0  0  0  0  0  0  0  0  0  0  0
   -5.3270    2.5070   -0.1470 C   0  0  0  0  0  0  0  0  0  0  0  0
   -6.1930    1.7980    0.8750 C   0  0  1  0  0  0  0  0  0  0  0  0
   -7.4790    2.2940    0.8080 O   0  0  0  0  0  0  0  0  0  0  0  0
   -6.1960    0.3180    0.6230 C   0  0  0  0  0  0  0  0  0  0  0  0
   -7.2990   -0.2020    0.4040 O   0  0  0  0  0  0  0  0  0  0  0  0
   -4.9770   -0.3920    0.6450 N   0  0  0  0  0  0  0  0  0  0  0  0
   -4.8780   -1.7840    0.4270 C   0  0  0  0  0  0  0  0  0  0  0  0
   -5.9630   -2.6220    0.4460 C   0  0  0  0  0  0  0  0  0  0  0  0
   -5.8520   -4.0060    0.3050 C   0  0  0  0  0  0  0  0  0  0  0  0
   -4.6030   -4.5190    0.1420 C   0  0  0  0  0  0  0  0  0  0  0  0
   -3.4740   -3.7030    0.1150 C   0  0  0  0  0  0  0  0  0  0  0  0
   -3.5810   -2.3250    0.2550 C   0  0  0  0  0  0  0  0  0  0  0  0
   -2.5090   -1.4400    0.1600 N   0  0  0  0  0  0  0  0  0  0  0  0
   -1.1430   -1.8130    0.2640 C   0  0  0  0  0  0  0  0  0  0  0  0
   -0.8960   -2.9980    0.4610 O   0  0  0  0  0  0  0  0  0  0  0  0
   -0.0890   -0.8160    0.1380 C   0  0  0  0  0  0  0  0  0  0  0  0
    1.3170   -1.1730    0.0390 C   0  0  2  0  0  0  0  0  0  0  0  0
    2.1890   -0.0050   -0.0330 N   0  0  0  0  0  0  0  0  0  0  0  0
    2.0880    0.9860   -1.0480 C   0  0  0  0  0  0  0  0  0  0  0  0
    2.0790    2.3790   -0.3890 C   0  0  0  0  0  0  0  0  0  0  0  0
    3.4540    2.8820   -0.1360 C   0  0  0  0  0  0  0  0  0  0  0  0
    4.4120    2.2200    0.4940 C   0  0  0  0  0  0  0  0  0  0  0  0
    5.6490    3.0320    0.5620 C   0  0  0  0  0  0  0  0  0  0  0  0
    5.3270    4.3470   -0.0640 C   0  0  0  0  0  0  0  0  0  0  0  0
    3.9330    4.2200   -0.5700 C   0  0  0  0  0  0  0  0  0  0  0  0
    4.3970    0.8370    1.0890 C   0  0  0  0  0  0  0  0  0  0  0  0
    5.4710    0.4080    1.6260 C   0  0  0  0  0  0  0  0  0  0  0  0
    5.7910   -0.8140    2.2550 C   0  0  0  0  0  0  0  0  0  0  0  0
    7.0070   -0.9110    2.7210 O   0  0  0  0  0  0  0  0  0  0  0  0
    4.8240   -2.2650    2.5240 S   0  0  0  0  0  0  0  0  0  0  0  0
    3.1550    0.0650    1.0480 C   0  0  0  0  0  0  0  0  0  0  0  0
    2.9260   -0.6050    2.0860 O   0  0  0  0  0  0  0  0  0  0  0  0
    1.7860   -2.0960   -1.0530 C   0  0  1  0  0  0  0  0  0  0  0  0
    1.4850   -1.6220   -2.4510 C   0  0  0  0  0  0  0  0  0  0  0  0
    3.3580   -2.0690   -1.0230 C   0  0  0  0  0  0  0  0  0  0  0  0
    1.5460   -3.5620   -0.8420 C   0  0  0  0  0  0  0  0  0  0  0  0
  1  2  1  0
  2  3  1  0
  3  4  1  6
  3  5  1  0
  5  6  2  0
  5  7  1  0
  7  8  1  0
  8  9  2  0
  8 13  1  0
  9 10  1  0
 10 11  2  0
 11 12  1  0
 12 13  2  0
 13 14  1  0
 14 15  1  0
 15 16  2  0
 15 17  1  0
 18 17  1  6
 18 19  1  0
 18 34  1  0
 19 20  1  0
 19 32  1  0
 20 21  1  0
 21 22  1  0
 22 23  2  0
 22 26  1  0
 23 24  1  0
 23 27  1  0
 24 25  1  0
 25 26  1  0
 27 28  2  3
 27 32  1  0
 28 29  1  0
 29 30  2  0
 29 31  1  0
 32 33  2  0
 34 35  1  6
 34 36  1  0
 34 37  1  0
M  END
