
     RDKit          3D

 37 39  0  0  0  0  0  0  0  0999 V2000
   10.6630    2.8030   -4.1720 C   0  0  0  0  0  0  0  0  0  0  0  0
   10.4400    2.1360   -5.4660 C   0  0  0  0  0  0  0  0  0  0  0  0
   10.0010    0.7090   -5.4780 C   0  0  0  0  0  0  0  0  0  0  0  0
    8.8110    0.5400   -4.7840 O   0  0  0  0  0  0  0  0  0  0  0  0
    8.5980    0.5450   -3.4310 C   0  0  0  0  0  0  0  0  0  0  0  0
    9.5250    0.6720   -2.6230 O   0  0  0  0  0  0  0  0  0  0  0  0
    7.2290    0.4020   -2.8820 C   0  0  0  0  0  0  0  0  0  0  0  0
    6.1390    0.3440   -3.7050 C   0  0  0  0  0  0  0  0  0  0  0  0
    4.8750    0.2330   -3.2040 C   0  0  0  0  0  0  0  0  0  0  0  0
    4.6390    0.1740   -1.8500 C   0  0  0  0  0  0  0  0  0  0  0  0
    3.4830    0.0720   -1.2800 O   0  0  0  0  0  0  0  0  0  0  0  0
    2.3220   -0.3520   -0.9380 C   0  0  0  0  0  0  0  0  0  0  0  0
    1.9940   -1.4460   -1.5950 O   0  0  0  0  0  0  0  0  0  0  0  0
    1.3730    0.1840    0.0230 C   0  0  0  0  0  0  0  0  0  0  0  0
    0.1980   -0.3160    0.2370 C   0  0  0  0  0  0  0  0  0  0  0  0
   -0.8170    0.1760    1.2050 C   0  0  0  0  0  0  0  0  0  0  0  0
   -2.0110   -0.2570    1.1930 C   0  0  0  0  0  0  0  0  0  0  0  0
   -3.3140   -0.6500    1.2730 C   0  0  0  0  0  0  0  0  0  0  0  0
   -4.0380   -1.5070    0.5570 C   0  0  0  0  0  0  0  0  0  0  0  0
   -5.4350   -1.7000    0.8860 C   0  0  0  0  0  0  0  0  0  0  0  0
   -5.9840   -2.6880    0.2160 O   0  0  0  0  0  0  0  0  0  0  0  0
   -6.2910   -1.0590    1.7460 N   0  0  0  0  0  0  0  0  0  0  0  0
   -7.6320   -1.7800    1.8900 C   0  0  0  0  0  0  0  0  0  0  0  0
   -7.7390   -2.2340    3.3040 C   0  0  0  0  0  0  0  0  0  0  0  0
   -7.3440   -1.2650    4.3590 C   0  0  2  0  0  0  0  0  0  0  0  0
   -8.6120   -0.7100    5.0140 C   0  0  0  0  0  0  0  0  0  0  0  0
   -6.4490   -0.1470    4.0060 C   0  0  0  0  0  0  0  0  0  0  0  0
   -6.3130    0.1300    2.5050 C   0  0  2  0  0  0  0  0  0  0  0  0
   -7.5500    1.0060    2.1040 C   0  0  0  0  0  0  0  0  0  0  0  0
   -3.5440   -2.2610   -0.5810 C   0  0  0  0  0  0  0  0  0  0  0  0
   -2.2510   -2.2470   -1.0960 N   0  0  0  0  0  0  0  0  0  0  0  0
   -4.6190   -3.2100   -1.4170 S   0  0  0  0  0  0  0  0  0  0  0  0
   -0.3530    1.3290    1.9510 N   0  0  0  0  0  0  0  0  0  0  0  0
    0.9490    1.8620    1.7030 C   0  0  0  0  0  0  0  0  0  0  0  0
    1.7470    1.3630    0.8380 C   0  0  0  0  0  0  0  0  0  0  0  0
    5.7860    0.2320   -1.0010 C   0  0  0  0  0  0  0  0  0  0  0  0
    7.0120    0.3420   -1.5350 C   0  0  0  0  0  0  0  0  0  0  0  0
  1  2  1  0
  2  3  1  0
  3  4  1  0
  4  5  1  0
  5  6  2  0
  5  7  1  0
  7  8  2  0
  7 37  1  0
  8  9  1  0
  9 10  2  0
 10 11  1  0
 10 36  1  0
 11 12  1  0
 12 13  2  0
 12 14  1  0
 14 15  2  0
 14 35  1  0
 15 16  1  0
 16 17  2  3
 16 33  1  0
 17 18  1  0
 18 19  2  3
 19 20  1  0
 19 30  1  0
 20 21  2  0
 20 22  1  0
 22 23  1  0
 22 28  1  0
 23 24  1  0
 24 25  1  0
 25 26  1  6
 25 27  1  0
 27 28  1  0
 28 29  1  6
 30 31  1  0
 30 32  2  0
 33 34  1  0
 34 35  2  0
 36 37  2  0
M  END
