
     RDKit          3D

 37 39  0  0  0  0  0  0  0  0999 V2000
   -3.9590    3.2390   -1.4030 C   0  0  0  0  0  0  0  0  0  0  0  0
   -2.9260    2.2790   -0.8390 C   0  0  0  0  0  0  0  0  0  0  0  0
   -3.4500    0.9750   -0.4500 C   0  0  0  0  0  0  0  0  0  0  0  0
   -2.6080   -0.1740   -0.2310 C   0  0  0  0  0  0  0  0  0  0  0  0
   -1.2910   -0.2540   -0.2650 C   0  0  0  0  0  0  0  0  0  0  0  0
   -0.4520    0.8300   -0.5240 N   0  0  0  0  0  0  0  0  0  0  0  0
    0.6650    1.0850   -1.3160 C   0  0  0  0  0  0  0  0  0  0  0  0
    0.4510    1.7870   -2.4050 O   0  0  0  0  0  0  0  0  0  0  0  0
    2.0780    0.7020   -1.1450 C   0  0  0  0  0  0  0  0  0  0  0  0
    2.6870    0.3500   -2.2240 O   0  0  0  0  0  0  0  0  0  0  0  0
    2.8700    0.6600    0.0030 N   0  0  0  0  0  0  0  0  0  0  0  0
    4.2860    1.1020    0.0430 C   0  0  0  0  0  0  0  0  0  0  0  0
    5.2620    0.0530   -0.2700 C   0  0  0  0  0  0  0  0  0  0  0  0
    6.6860    0.4450   -0.2370 C   0  0  2  0  0  0  0  0  0  0  0  0
    7.1420    0.9640    1.1170 C   0  0  0  0  0  0  0  0  0  0  0  0
    6.8980   -0.3440    2.3450 S   0  0  0  0  0  0  0  0  0  0  0  0
    7.1760    1.3200   -1.3510 C   0  0  1  0  0  0  0  0  0  0  0  0
    6.6990    2.6600   -1.6570 C   0  0  0  0  0  0  0  0  0  0  0  0
    8.1670    2.3840   -1.2010 C   0  0  0  0  0  0  0  0  0  0  0  0
    2.3630    0.1820    1.3060 C   0  0  0  0  0  0  0  0  0  0  0  0
    2.6670   -1.2770    1.5450 C   0  0  0  0  0  0  0  0  0  0  0  0
    1.5800   -1.9690    2.1510 N   0  0  0  0  0  0  0  0  0  0  0  0
    1.3860   -3.3440    1.9330 C   0  0  0  0  0  0  0  0  0  0  0  0
    1.0240   -4.1180    2.8870 O   0  0  0  0  0  0  0  0  0  0  0  0
    1.5960   -3.9330    0.5960 C   0  0  0  0  0  0  0  0  0  0  0  0
    0.3750   -3.7670   -0.2840 C   0  0  0  0  0  0  0  0  0  0  0  0
    0.2500   -2.3300   -0.8170 C   0  0  0  0  0  0  0  0  0  0  0  0
   -0.7950   -1.6440   -0.0330 C   0  0  0  0  0  0  0  0  0  0  0  0
   -1.2940   -2.3480    0.9220 O   0  0  0  0  0  0  0  0  0  0  0  0
   -4.7830    0.8110   -0.3530 C   0  0  0  0  0  0  0  0  0  0  0  0
   -5.3010   -0.5330    0.0460 C   0  0  0  0  0  0  0  0  0  0  0  0
   -6.8160   -0.5270    0.1380 C   0  0  1  0  0  0  0  0  0  0  0  0
   -7.4560   -0.9920   -1.1430 C   0  0  0  0  0  0  0  0  0  0  0  0
   -7.2350   -1.5330    1.2180 C   0  0  0  0  0  0  0  0  0  0  0  0
   -7.3930    0.7900    0.5400 C   0  0  0  0  0  0  0  0  0  0  0  0
   -6.9990    1.9010   -0.4140 C   0  0  0  0  0  0  0  0  0  0  0  0
   -5.6200    1.8560   -0.6140 O   0  0  0  0  0  0  0  0  0  0  0  0
  1  2  1  0
  2  3  1  0
  3  4  1  0
  3 30  2  3
  4  5  2  3
  5  6  1  0
  5 28  1  0
  6  7  1  0
  7  8  2  0
  7  9  1  0
  9 10  2  0
  9 11  1  0
 11 12  1  0
 11 20  1  0
 12 13  1  0
 14 13  1  1
 14 15  1  0
 14 17  1  0
 15 16  1  0
 17 18  1  1
 17 19  1  0
 18 19  1  0
 20 21  1  0
 21 22  1  0
 22 23  1  0
 23 24  2  0
 23 25  1  0
 25 26  1  0
 26 27  1  0
 27 28  1  0
 28 29  2  0
 30 31  1  0
 30 37  1  0
 31 32  1  0
 32 33  1  6
 32 34  1  0
 32 35  1  0
 35 36  1  0
 36 37  1  0
M  END
