
     RDKit          3D

 37 40  0  0  0  0  0  0  0  0999 V2000
   -9.0870    1.6120    0.2730 C   0  0  0  0  0  0  0  0  0  0  0  0
   -7.8220    1.6980    0.5470 C   0  0  0  0  0  0  0  0  0  0  0  0
   -7.0250    2.9620    0.3470 C   0  0  0  0  0  0  0  0  0  0  0  0
   -5.6410    2.5350   -0.0150 C   0  0  0  0  0  0  0  0  0  0  0  0
   -4.9870    1.7240    0.9500 N   0  0  0  0  0  0  0  0  0  0  0  0
   -3.7610    1.1430    0.5310 C   0  0  0  0  0  0  0  0  0  0  0  0
   -2.6530    2.1470    0.3230 C   0  0  1  0  0  0  0  0  0  0  0  0
   -2.3380    2.8660    1.4690 O   0  0  0  0  0  0  0  0  0  0  0  0
   -1.4080    1.4910   -0.1700 C   0  0  1  0  0  0  0  0  0  0  0  0
   -0.8320    0.5870    0.8030 N   0  0  0  0  0  0  0  0  0  0  0  0
    0.3550   -0.2010    0.5010 C   0  0  0  0  0  0  0  0  0  0  0  0
    1.1270   -0.4280    1.5190 C   0  0  0  0  0  0  0  0  0  0  0  0
    2.3650   -1.1420    1.7410 C   0  0  0  0  0  0  0  0  0  0  0  0
    2.9920   -1.1900    2.9550 C   0  0  0  0  0  0  0  0  0  0  0  0
    4.2170   -1.9830    2.8720 C   0  0  0  0  0  0  0  0  0  0  0  0
    4.0850   -2.6960    1.5390 C   0  0  0  0  0  0  0  0  0  0  0  0
    3.1470   -1.8820    0.9070 O   0  0  0  0  0  0  0  0  0  0  0  0
    0.5570   -0.7140   -0.8160 C   0  0  0  0  0  0  0  0  0  0  0  0
    1.7470   -1.3920   -1.2550 N   0  0  0  0  0  0  0  0  0  0  0  0
    2.8750   -0.5610   -1.5510 C   0  0  0  0  0  0  0  0  0  0  0  0
    2.7490    0.6920   -1.3980 O   0  0  0  0  0  0  0  0  0  0  0  0
    4.1370   -1.1190   -2.0170 C   0  0  0  0  0  0  0  0  0  0  0  0
    4.2150   -2.4590   -2.2890 C   0  0  0  0  0  0  0  0  0  0  0  0
    5.4360   -2.9760   -2.7330 C   0  0  0  0  0  0  0  0  0  0  0  0
    6.5360   -2.1760   -2.8980 C   0  0  0  0  0  0  0  0  0  0  0  0
    6.4600   -0.8230   -2.6240 C   0  0  0  0  0  0  0  0  0  0  0  0
    7.6230    0.0380   -2.7950 C   0  0  0  0  0  0  0  0  0  0  0  0
    7.5170    1.2640   -2.5360 O   0  0  0  0  0  0  0  0  0  0  0  0
    8.8370   -0.4660   -3.2340 O   0  0  0  0  0  0  0  0  0  0  0  0
    9.9780    0.3790   -3.4020 C   0  0  0  0  0  0  0  0  0  0  0  0
    5.2560   -0.3340   -2.1890 C   0  0  0  0  0  0  0  0  0  0  0  0
   -0.3060   -0.5370   -1.8380 C   0  0  0  0  0  0  0  0  0  0  0  0
   -1.7910    0.3770   -1.5990 S   0  0  0  0  0  0  0  0  0  0  0  0
   -5.8120    0.9520    1.8110 C   0  0  2  0  0  0  0  0  0  0  0  0
   -5.1560   -0.3110    2.2910 C   0  0  0  0  0  0  0  0  0  0  0  0
   -7.0480    0.5750    1.0770 C   0  0  0  0  0  0  0  0  0  0  0  0
   -7.4620   -0.6600    0.8890 C   0  0  0  0  0  0  0  0  0  0  0  0
  1  2  2  0
  2  3  1  0
  2 36  1  0
  3  4  1  0
  4  5  1  0
  5  6  1  0
  5 34  1  0
  6  7  1  0
  7  8  1  1
  7  9  1  0
  9 10  1  1
  9 33  1  0
 10 11  1  0
 11 12  2  3
 11 18  1  0
 12 13  1  0
 13 14  2  0
 13 17  1  0
 14 15  1  0
 15 16  1  0
 16 17  1  0
 18 19  1  0
 18 32  2  0
 19 20  1  0
 20 21  2  0
 20 22  1  0
 22 23  2  0
 22 31  1  0
 23 24  1  0
 24 25  2  0
 25 26  1  0
 26 27  1  0
 26 31  2  0
 27 28  2  0
 27 29  1  0
 29 30  1  0
 32 33  1  0
 34 35  1  6
 34 36  1  0
 36 37  2  0
M  END
