
     RDKit          3D

 37 38  0  0  0  0  0  0  0  0999 V2000
   -7.8080   -0.9840    3.0280 C   0  0  0  0  0  0  0  0  0  0  0  0
   -6.5030   -0.9540    2.3730 C   0  0  0  0  0  0  0  0  0  0  0  0
   -6.2200   -0.1260    1.2860 C   0  0  0  0  0  0  0  0  0  0  0  0
   -7.3820    0.6770    0.9140 C   0  0  0  0  0  0  0  0  0  0  0  0
   -4.9190   -0.3350    0.7330 C   0  0  0  0  0  0  0  0  0  0  0  0
   -4.1920    0.1830   -0.1890 C   0  0  0  0  0  0  0  0  0  0  0  0
   -4.4760    1.3000   -1.0690 C   0  0  0  0  0  0  0  0  0  0  0  0
   -5.5030    2.3340   -0.6560 C   0  0  0  0  0  0  0  0  0  0  0  0
   -3.7670    1.6060   -2.1530 C   0  0  0  0  0  0  0  0  0  0  0  0
   -2.6120    0.7740   -2.5070 C   0  0  0  0  0  0  0  0  0  0  0  0
   -1.7940    1.2110   -3.8450 S   0  0  0  0  0  0  0  0  0  0  0  0
   -2.2560   -0.3630   -1.6740 C   0  0  0  0  0  0  0  0  0  0  0  0
   -1.3760   -1.3990   -2.2200 C   0  0  0  0  0  0  0  0  0  0  0  0
   -0.5460   -1.2770   -3.2300 C   0  0  0  0  0  0  0  0  0  0  0  0
    0.1600   -2.5690   -3.4620 C   0  0  0  0  0  0  0  0  0  0  0  0
   -0.2660   -3.3160   -2.4550 C   0  0  0  0  0  0  0  0  0  0  0  0
   -1.3430   -2.8430   -1.9080 C   0  0  0  0  0  0  0  0  0  0  0  0
   -2.9710   -0.6370   -0.5960 C   0  0  0  0  0  0  0  0  0  0  0  0
   -2.3130   -1.4250    0.4160 C   0  0  0  0  0  0  0  0  0  0  0  0
   -2.8950   -1.9490    1.3840 O   0  0  0  0  0  0  0  0  0  0  0  0
   -0.8820   -1.6860    0.4570 N   0  0  0  0  0  0  0  0  0  0  0  0
   -0.3180   -2.5100    1.5050 C   0  0  0  0  0  0  0  0  0  0  0  0
    1.1690   -2.6380    1.3730 C   0  0  0  0  0  0  0  0  0  0  0  0
    1.8640   -1.3370    1.4540 C   0  0  0  0  0  0  0  0  0  0  0  0
    1.1900   -0.2880    1.5190 O   0  0  0  0  0  0  0  0  0  0  0  0
    3.2770   -1.2340    1.4620 N   0  0  0  0  0  0  0  0  0  0  0  0
    3.9780    0.0180    1.5410 C   0  0  1  0  0  0  0  0  0  0  0  0
    4.5180    0.2410    2.9670 C   0  0  0  0  0  0  0  0  0  0  0  0
    5.0790    0.1310    0.5650 C   0  0  0  0  0  0  0  0  0  0  0  0
    5.2710   -0.8420   -0.2140 O   0  0  0  0  0  0  0  0  0  0  0  0
    5.8970    1.2180    0.4570 O   0  0  0  0  0  0  0  0  0  0  0  0
    6.9560    1.4030   -0.4330 C   0  0  2  0  0  0  0  0  0  0  0  0
    8.3010    1.3600    0.3230 C   0  0  0  0  0  0  0  0  0  0  0  0
    6.8750    2.6160   -1.2970 C   0  0  0  0  0  0  0  0  0  0  0  0
    5.6540    2.5590   -2.1280 C   0  0  0  0  0  0  0  0  0  0  0  0
    5.4240    3.6280   -3.0530 N   0  0  0  0  0  0  0  0  0  0  0  0
    4.8530    1.6020   -2.0190 O   0  0  0  0  0  0  0  0  0  0  0  0
  1  2  1  0
  2  3  2  3
  3  4  1  0
  3  5  1  0
  5  6  2  3
  6  7  1  0
  6 18  1  0
  7  8  1  0
  7  9  2  0
  9 10  1  0
 10 11  2  0
 10 12  1  0
 12 13  1  0
 12 18  2  0
 13 14  2  0
 13 17  1  0
 14 15  1  0
 15 16  2  0
 16 17  2  0
 18 19  1  0
 19 20  2  0
 19 21  1  0
 21 22  1  0
 22 23  1  0
 23 24  1  0
 24 25  2  0
 24 26  1  0
 26 27  1  0
 27 28  1  1
 27 29  1  0
 29 30  2  0
 29 31  1  0
 31 32  1  0
 32 33  1  1
 32 34  1  0
 34 35  1  0
 35 36  1  0
 35 37  2  0
M  END
