
     RDKit          3D

 37 40  0  0  0  0  0  0  0  0999 V2000
    7.2760   -2.2200    3.4070 C   0  0  0  0  0  0  0  0  0  0  0  0
    6.8160   -1.9070    1.9800 C   0  0  1  0  0  0  0  0  0  0  0  0
    7.1880   -3.0080    1.0440 C   0  0  0  0  0  0  0  0  0  0  0  0
    6.0530   -3.8760    0.6180 C   0  0  0  0  0  0  0  0  0  0  0  0
    5.0050   -3.0020    0.0100 C   0  0  0  0  0  0  0  0  0  0  0  0
    4.2930   -3.0250   -1.0910 O   0  0  0  0  0  0  0  0  0  0  0  0
    3.4930   -1.9980   -1.1510 C   0  0  0  0  0  0  0  0  0  0  0  0
    2.5350   -1.6270   -2.1860 C   0  0  0  0  0  0  0  0  0  0  0  0
    1.7730   -0.5490   -2.0960 C   0  0  0  0  0  0  0  0  0  0  0  0
    0.8370   -0.1920   -3.1130 C   0  0  0  0  0  0  0  0  0  0  0  0
    0.0690    0.8450   -3.0760 C   0  0  0  0  0  0  0  0  0  0  0  0
   -1.0920    1.2200   -4.4180 S   0  0  0  0  0  0  0  0  0  0  0  0
   -1.0820    3.0210   -4.6010 C   0  0  0  0  0  0  0  0  0  0  0  0
   -0.8450    3.7300   -3.3040 C   0  0  0  0  0  0  0  0  0  0  0  0
    0.3010    3.1820   -2.5190 C   0  0  0  0  0  0  0  0  0  0  0  0
    0.0580    1.7980   -1.9570 C   0  0  1  0  0  0  0  0  0  0  0  0
   -1.3170    1.7210   -1.4060 N   0  0  0  0  0  0  0  0  0  0  0  0
   -1.5320    1.4250   -0.0510 C   0  0  0  0  0  0  0  0  0  0  0  0
   -0.3820    1.2440    0.5920 O   0  0  0  0  0  0  0  0  0  0  0  0
   -2.7020    1.2920    0.7090 C   0  0  0  0  0  0  0  0  0  0  0  0
   -3.9430    1.3840    0.4950 C   0  0  0  0  0  0  0  0  0  0  0  0
   -4.8320    1.6620   -0.5970 C   0  0  0  0  0  0  0  0  0  0  0  0
   -4.4450    1.9110   -1.7420 O   0  0  0  0  0  0  0  0  0  0  0  0
   -6.2840    1.6640   -0.4070 C   0  0  0  0  0  0  0  0  0  0  0  0
   -7.2160    1.9180   -1.3750 C   0  0  0  0  0  0  0  0  0  0  0  0
   -8.4670    1.8350   -0.8380 N   0  0  0  0  0  0  0  0  0  0  0  0
   -8.3000    1.5310    0.4570 C   0  0  0  0  0  0  0  0  0  0  0  0
   -9.2070    1.3670    1.2980 O   0  0  0  0  0  0  0  0  0  0  0  0
   -6.9740    1.4290    0.7140 N   0  0  0  0  0  0  0  0  0  0  0  0
   -2.4050    0.9630    2.1090 O   0  0  0  0  0  0  0  0  0  0  0  0
   -2.4570   -0.3480    2.5540 C   0  0  2  0  0  0  0  0  0  0  0  0
   -2.0850   -0.3230    4.0340 C   0  0  0  0  0  0  0  0  0  0  0  0
   -1.4810   -1.2710    1.8620 C   0  0  0  0  0  0  0  0  0  0  0  0
   -3.8160   -1.0050    2.4660 C   0  0  0  0  0  0  0  0  0  0  0  0
    3.6930   -1.2370    0.0040 C   0  0  0  0  0  0  0  0  0  0  0  0
    4.6610   -1.8760    0.7510 C   0  0  0  0  0  0  0  0  0  0  0  0
    5.3420   -1.6270    2.0510 C   0  0  0  0  0  0  0  0  0  0  0  0
  2  1  1  1
  2  3  1  0
  2 37  1  0
  3  4  1  0
  4  5  1  0
  5  6  1  0
  5 36  2  0
  6  7  1  0
  7  8  1  0
  7 35  2  0
  8  9  2  3
  9 10  1  0
 10 11  2  3
 11 12  1  0
 11 16  1  0
 12 13  1  0
 13 14  1  0
 14 15  1  0
 15 16  1  0
 16 17  1  6
 17 18  1  0
 18 19  2  0
 18 20  1  0
 20 21  2  3
 20 30  1  0
 21 22  1  0
 22 23  2  0
 22 24  1  0
 24 25  2  0
 24 29  1  0
 25 26  1  0
 26 27  1  0
 27 28  2  0
 27 29  1  0
 30 31  1  0
 31 32  1  1
 31 33  1  0
 31 34  1  0
 35 36  1  0
 36 37  1  0
M  END
