
     RDKit          3D

 37 39  0  0  0  0  0  0  0  0999 V2000
   -0.9260    8.0770    0.2560 C   0  0  0  0  0  0  0  0  0  0  0  0
   -0.8810    6.6300    0.4330 N   0  0  0  0  0  0  0  0  0  0  0  0
   -1.5030    5.7310   -0.4500 C   0  0  0  0  0  0  0  0  0  0  0  0
   -2.1260    6.1950   -1.4350 O   0  0  0  0  0  0  0  0  0  0  0  0
   -1.4370    4.2830   -0.2420 C   0  0  0  0  0  0  0  0  0  0  0  0
   -0.7960    3.8400    0.7450 O   0  0  0  0  0  0  0  0  0  0  0  0
   -2.0570    3.3470   -1.0900 N   0  0  0  0  0  0  0  0  0  0  0  0
   -1.9900    1.9230   -0.8890 C   0  0  0  0  0  0  0  0  0  0  0  0
   -3.1040    1.2640   -0.6690 C   0  0  0  0  0  0  0  0  0  0  0  0
   -3.1180   -0.1000   -0.4690 O   0  0  0  0  0  0  0  0  0  0  0  0
   -1.9820   -0.8900   -0.4810 C   0  0  0  0  0  0  0  0  0  0  0  0
   -1.9760   -2.1760   -0.2950 C   0  0  0  0  0  0  0  0  0  0  0  0
   -3.1330   -3.0250   -0.0400 C   0  0  0  0  0  0  0  0  0  0  0  0
   -2.9720   -4.3310    0.1230 C   0  0  0  0  0  0  0  0  0  0  0  0
   -4.0060   -5.3270    0.3830 C   0  0  0  0  0  0  0  0  0  0  0  0
   -5.3970   -4.7230    0.3620 C   0  0  1  0  0  0  0  0  0  0  0  0
   -5.9130   -4.7920   -1.0530 C   0  0  0  0  0  0  0  0  0  0  0  0
   -6.3000   -5.5400    1.2510 C   0  0  0  0  0  0  0  0  0  0  0  0
   -5.3610   -3.3140    0.9010 C   0  0  0  0  0  0  0  0  0  0  0  0
   -4.4840   -2.4500    0.0450 C   0  0  0  0  0  0  0  0  0  0  0  0
   -0.7290   -0.1340   -0.7310 C   0  0  0  0  0  0  0  0  0  0  0  0
    0.5630   -0.8460   -0.8100 C   0  0  0  0  0  0  0  0  0  0  0  0
    0.9310   -1.6010    0.7780 S   0  0  0  0  0  0  0  0  0  0  0  0
    1.2850   -0.3100    1.9890 C   0  0  0  0  0  0  0  0  0  0  0  0
    2.5980    0.3310    1.6800 C   0  0  0  0  0  0  0  0  0  0  0  0
    2.8970    1.3320    2.3800 O   0  0  0  0  0  0  0  0  0  0  0  0
    3.4330   -0.1630    0.6720 N   0  0  0  0  0  0  0  0  0  0  0  0
    4.6830    0.3840    0.3280 C   0  0  0  0  0  0  0  0  0  0  0  0
    5.1940    0.0970   -0.9570 C   0  0  0  0  0  0  0  0  0  0  0  0
    6.4160    0.5890   -1.3150 C   0  0  0  0  0  0  0  0  0  0  0  0
    6.9920    0.3180   -2.6490 C   0  0  0  0  0  0  0  0  0  0  0  0
    7.1740    1.3680   -0.4460 C   0  0  0  0  0  0  0  0  0  0  0  0
    8.4070    1.8420   -0.8620 O   0  0  0  0  0  0  0  0  0  0  0  0
    6.6920    1.6570    0.8090 C   0  0  0  0  0  0  0  0  0  0  0  0
    7.4580    2.4740    1.7740 C   0  0  0  0  0  0  0  0  0  0  0  0
    5.4330    1.1470    1.1700 C   0  0  0  0  0  0  0  0  0  0  0  0
   -0.7550    1.1820   -0.9190 C   0  0  0  0  0  0  0  0  0  0  0  0
  1  2  1  0
  2  3  1  0
  3  4  2  0
  3  5  1  0
  5  6  2  0
  5  7  1  0
  7  8  1  0
  8  9  2  0
  8 37  1  0
  9 10  1  0
 10 11  1  0
 11 12  2  3
 11 21  1  0
 12 13  1  0
 13 14  2  0
 13 20  1  0
 14 15  1  0
 15 16  1  0
 16 17  1  6
 16 18  1  0
 16 19  1  0
 19 20  1  0
 21 22  1  0
 21 37  2  0
 22 23  1  0
 23 24  1  0
 24 25  1  0
 25 26  2  0
 25 27  1  0
 27 28  1  0
 28 29  2  0
 28 36  1  0
 29 30  1  0
 30 31  1  0
 30 32  2  0
 32 33  1  0
 32 34  1  0
 34 35  1  0
 34 36  2  0
M  END
