
     RDKit          3D

 21 21  0  0  0  0  0  0  0  0999 V2000
    0.6770   -1.4860    1.9160 C   0  0  0  0  0  0  0  0  0  0  0  0
    0.8140   -0.2290    1.0700 C   0  0  2  0  0  0  0  0  0  0  0  0
    2.2940    0.0040    0.9070 C   0  0  1  0  0  0  0  0  0  0  0  0
    2.8980   -1.1770    0.2930 N   0  0  0  0  0  0  0  0  0  0  0  0
    2.6470    1.1850    0.0820 C   0  0  0  0  0  0  0  0  0  0  0  0
    4.1690    1.2650    0.0240 C   0  0  0  0  0  0  0  0  0  0  0  0
    4.5860    2.3520   -0.7340 O   0  0  0  0  0  0  0  0  0  0  0  0
    0.2340    0.9050    1.8610 C   0  0  0  0  0  0  0  0  0  0  0  0
   -1.2860    0.9540    1.8170 C   0  0  0  0  0  0  0  0  0  0  0  0
   -1.6170    0.8590    0.3130 C   0  0  2  0  0  0  0  0  0  0  0  0
   -0.8600    1.7700   -0.3840 O   0  0  0  0  0  0  0  0  0  0  0  0
   -3.0690    1.1280    0.1890 C   0  0  0  0  0  0  0  0  0  0  0  0
   -3.6260    1.1070   -1.1590 C   0  0  0  0  0  0  0  0  0  0  0  0
   -4.8900    1.2720   -1.2480 O   0  0  0  0  0  0  0  0  0  0  0  0
   -2.9570    0.9320   -2.3470 O   0  0  0  0  0  0  0  0  0  0  0  0
   -1.1670   -0.5190   -0.0690 C   0  0  1  0  0  0  0  0  0  0  0  0
   -1.7350   -1.0480   -1.1900 O   0  0  0  0  0  0  0  0  0  0  0  0
   -2.4040   -2.2300   -1.0350 C   0  0  1  0  0  0  0  0  0  0  0  0
   -3.7580   -2.1310   -1.3910 O   0  0  0  0  0  0  0  0  0  0  0  0
   -1.8850   -3.2700   -1.8040 O   0  0  0  0  0  0  0  0  0  0  0  0
    0.2350   -0.4540   -0.1530 O   0  0  0  0  0  0  0  0  0  0  0  0
  2  1  1  1
  2  3  1  0
  2  8  1  0
  2 21  1  0
  3  4  1  6
  3  5  1  0
  5  6  1  0
  6  7  1  0
  8  9  1  0
  9 10  1  0
 10 11  1  6
 10 12  1  0
 10 16  1  0
 12 13  1  0
 13 14  2  0
 13 15  1  0
 16 17  1  6
 16 21  1  0
 17 18  1  0
 18 19  1  6
 18 20  1  0
M  CHG  1   4   1
M  END
