
     RDKit          3D

 26 28  0  0  0  0  0  0  0  0999 V2000
    2.5250   -1.3790    2.0760 C   0  0  0  0  0  0  0  0  0  0  0  0
    3.0080   -0.3930    1.3560 C   0  0  0  0  0  0  0  0  0  0  0  0
    2.4980    0.0230    0.1020 C   0  0  0  0  0  0  0  0  0  0  0  0
    3.1630    1.0510   -0.4990 C   0  0  0  0  0  0  0  0  0  0  0  0
    4.3310    1.7440    0.0290 C   0  0  1  0  0  0  0  0  0  0  0  0
    4.7950    2.6880   -0.9120 F   0  0  0  0  0  0  0  0  0  0  0  0
    4.0730    2.5550    1.5880 Cl  0  0  0  0  0  0  0  0  0  0  0  0
    5.6810    0.6010    0.2160 Cl  0  0  0  0  0  0  0  0  0  0  0  0
    1.3650   -0.5070   -0.6490 C   0  0  0  0  0  0  0  0  0  0  0  0
    0.0470   -0.3760   -0.1150 N   0  0  0  0  0  0  0  0  0  0  0  0
   -0.4480    0.9520   -0.4460 C   0  0  0  0  0  0  0  0  0  0  0  0
    0.0770    1.5430   -1.4370 O   0  0  0  0  0  0  0  0  0  0  0  0
   -1.4930    1.7050    0.2320 C   0  0  0  0  0  0  0  0  0  0  0  0
   -2.5640    1.2200    0.9630 C   0  0  0  0  0  0  0  0  0  0  0  0
   -3.2680    2.2490    1.4090 N   0  0  0  0  0  0  0  0  0  0  0  0
   -2.7000    3.3930    0.9990 N   0  0  0  0  0  0  0  0  0  0  0  0
   -1.6100    3.0950    0.2760 C   0  0  0  0  0  0  0  0  0  0  0  0
   -0.6290    3.9740   -0.4060 C   0  0  0  0  0  0  0  0  0  0  0  0
   -2.7970   -0.1760    1.1440 N   0  0  0  0  0  0  0  0  0  0  0  0
   -2.1950   -1.3080    0.5120 C   0  0  1  0  0  0  0  0  0  0  0  0
   -2.7400   -1.5720   -0.8320 C   0  0  0  0  0  0  0  0  0  0  0  0
   -3.4360   -0.7690   -1.3790 O   0  0  0  0  0  0  0  0  0  0  0  0
   -2.3950   -2.8560   -1.4690 C   0  0  0  0  0  0  0  0  0  0  0  0
   -0.9240   -3.0520   -1.3220 C   0  0  0  0  0  0  0  0  0  0  0  0
   -0.3840   -2.7840    0.0590 C   0  0  0  0  0  0  0  0  0  0  0  0
   -0.6870   -1.3760    0.5490 C   0  0  1  0  0  0  0  0  0  0  0  0
  1  2  2  0
  2  3  1  0
  3  4  2  3
  3  9  1  0
  4  5  1  0
  5  6  1  6
  5  7  1  0
  5  8  1  0
  9 10  1  0
 10 11  1  0
 10 26  1  0
 11 12  2  0
 11 13  1  0
 13 14  1  0
 13 17  2  0
 14 15  2  0
 14 19  1  0
 15 16  1  0
 16 17  1  0
 17 18  1  0
 20 19  1  6
 20 21  1  0
 20 26  1  0
 21 22  2  0
 21 23  1  0
 23 24  1  0
 24 25  1  0
 26 25  1  6
M  END
