
     RDKit          3D

 21 21  0  0  0  0  0  0  0  0999 V2000
    1.1720    3.2620    1.0440 N   0  0  0  0  0  0  0  0  0  0  0  0
    0.6460    2.0480    0.3910 C   0  0  2  0  0  0  0  0  0  0  0  0
   -0.8190    2.1350    0.5700 C   0  0  0  0  0  0  0  0  0  0  0  0
   -1.5710    1.0290    0.3480 O   0  0  0  0  0  0  0  0  0  0  0  0
   -1.3880    0.5590   -0.9350 C   0  0  2  0  0  0  0  0  0  0  0  0
   -2.1030    1.3740   -1.8040 O   0  0  0  0  0  0  0  0  0  0  0  0
   -1.7930   -0.8930   -0.9870 C   0  0  2  0  0  0  0  0  0  0  0  0
   -2.9300   -1.2410   -0.0810 C   0  0  0  0  0  0  0  0  0  0  0  0
   -4.2020   -0.4980   -0.3640 C   0  0  0  0  0  0  0  0  0  0  0  0
   -4.1330    0.8640   -0.2570 O   0  0  0  0  0  0  0  0  0  0  0  0
   -0.6550   -1.6400   -0.7090 O   0  0  0  0  0  0  0  0  0  0  0  0
   -0.5030   -1.8640    0.6600 C   0  0  0  0  0  0  0  0  0  0  0  0
    0.8450   -2.4290    0.9650 C   0  0  0  0  0  0  0  0  0  0  0  0
    0.7770   -3.4920    1.8690 O   0  0  0  0  0  0  0  0  0  0  0  0
    1.9770   -1.9890    0.4510 C   0  0  0  0  0  0  0  0  0  0  0  0
    2.1970   -0.9010   -0.4920 C   0  0  2  0  0  0  0  0  0  0  0  0
    3.4120   -1.1200   -1.1980 O   0  0  0  0  0  0  0  0  0  0  0  0
    2.2710    0.4830    0.0410 C   0  0  2  0  0  0  0  0  0  0  0  0
    3.6180    0.6970    0.7500 C   0  0  0  0  0  0  0  0  0  0  0  0
    4.6720    0.2670   -0.0570 O   0  0  0  0  0  0  0  0  0  0  0  0
    1.2580    0.9090    0.8480 O   0  0  0  0  0  0  0  0  0  0  0  0
  2  1  1  1
  2  3  1  0
  2 21  1  0
  3  4  1  0
  4  5  1  0
  5  6  1  6
  5  7  1  0
  7  8  1  1
  7 11  1  0
  8  9  1  0
  9 10  1  0
 11 12  1  0
 12 13  1  0
 13 14  1  0
 13 15  2  0
 15 16  1  0
 16 17  1  1
 16 18  1  0
 18 19  1  1
 18 21  1  0
 19 20  1  0
M  END
