
     RDKit          3D

 22 22  0  0  0  0  0  0  0  0999 V2000
    5.1250    0.7730   -0.3560 N   0  0  0  0  0  0  0  0  0  0  0  0
    3.8730    0.1990   -0.7420 C   0  0  0  0  0  0  0  0  0  0  0  0
    2.8200    0.3780    0.3200 C   0  0  2  0  0  0  0  0  0  0  0  0
    3.2010   -0.2800    1.6210 C   0  0  0  0  0  0  0  0  0  0  0  0
    3.3730   -1.6500    1.4930 O   0  0  0  0  0  0  0  0  0  0  0  0
    1.6230   -0.1940   -0.0990 O   0  0  0  0  0  0  0  0  0  0  0  0
    0.6420    0.7870   -0.1460 C   0  0  0  0  0  0  0  0  0  0  0  0
   -0.6710    0.1370   -0.6090 C   0  0  1  0  0  0  0  0  0  0  0  0
   -1.6610    1.2470   -0.6710 C   0  0  0  0  0  0  0  0  0  0  0  0
   -2.1330    1.5520   -1.7970 O   0  0  0  0  0  0  0  0  0  0  0  0
   -2.0930    1.9580    0.4120 O   0  0  0  0  0  0  0  0  0  0  0  0
   -3.0240    3.0070    0.3830 C   0  0  0  0  0  0  0  0  0  0  0  0
   -4.3650    2.6030   -0.1510 C   0  0  0  0  0  0  0  0  0  0  0  0
   -5.1840    3.7420   -0.1210 O   0  0  0  0  0  0  0  0  0  0  0  0
   -0.4300   -0.3900   -1.8530 O   0  0  0  0  0  0  0  0  0  0  0  0
   -0.4850   -1.7690   -1.8470 C   0  0  0  0  0  0  0  0  0  0  0  0
   -1.8010   -2.1340   -1.5580 O   0  0  0  0  0  0  0  0  0  0  0  0
   -1.9740   -1.9630   -0.1880 C   0  0  1  0  0  0  0  0  0  0  0  0
   -1.6580   -3.2990    0.4690 C   0  0  0  0  0  0  0  0  0  0  0  0
   -2.5200   -4.2860   -0.0110 O   0  0  0  0  0  0  0  0  0  0  0  0
   -1.1350   -0.8810    0.3970 C   0  0  1  0  0  0  0  0  0  0  0  0
   -0.0900   -1.4610    1.1010 O   0  0  0  0  0  0  0  0  0  0  0  0
  1  2  1  0
  3  2  1  6
  3  4  1  0
  3  6  1  0
  4  5  1  0
  6  7  1  0
  8  7  1  1
  8  9  1  0
  8 15  1  0
  8 21  1  0
  9 10  2  0
  9 11  1  0
 11 12  1  0
 12 13  1  0
 13 14  1  0
 15 16  1  0
 16 17  1  0
 17 18  1  0
 18 19  1  1
 18 21  1  0
 19 20  1  0
 21 22  1  6
M  CHG  1   1   1
M  END
