
     RDKit          3D

 21 21  0  0  0  0  0  0  0  0999 V2000
   -0.2230    1.5830   -0.0650 C   0  0  0  0  0  0  0  0  0  0  0  0
   -0.9650    0.2770   -0.3080 C   0  0  2  0  0  0  0  0  0  0  0  0
   -1.3810    0.3870   -1.6590 O   0  0  0  0  0  0  0  0  0  0  0  0
   -2.1770    0.3110    0.5380 C   0  0  1  0  0  0  0  0  0  0  0  0
   -1.9820    1.2450    1.7490 C   0  0  0  0  0  0  0  0  0  0  0  0
   -3.1720    1.2400    2.5250 O   0  0  0  0  0  0  0  0  0  0  0  0
   -3.2730    1.0400   -0.2720 C   0  0  0  0  0  0  0  0  0  0  0  0
   -4.4480    1.1100    0.4750 O   0  0  0  0  0  0  0  0  0  0  0  0
   -2.7820   -0.9660    0.9750 C   0  0  0  0  0  0  0  0  0  0  0  0
   -2.0480   -2.1550    0.7050 N   0  0  0  0  0  0  0  0  0  0  0  0
   -1.1130   -2.0980   -0.3470 C   0  0  0  0  0  0  0  0  0  0  0  0
   -0.1080   -0.9240   -0.2390 C   0  0  2  0  0  0  0  0  0  0  0  0
    0.5390   -1.1820    1.1120 C   0  0  0  0  0  0  0  0  0  0  0  0
    0.8890   -2.5580    1.0820 O   0  0  0  0  0  0  0  0  0  0  0  0
    0.7070   -1.1960   -1.2400 O   0  0  0  0  0  0  0  0  0  0  0  0
    1.6890   -0.5600   -1.7900 C   0  0  0  0  0  0  0  0  0  0  0  0
    2.9150   -0.1630   -1.0080 C   0  0  0  0  0  0  0  0  0  0  0  0
    3.8210    0.5160   -1.8670 O   0  0  0  0  0  0  0  0  0  0  0  0
    4.9150    0.8420   -1.0650 C   0  0  1  0  0  0  0  0  0  0  0  0
    6.1130    0.3340   -1.6150 O   0  0  0  0  0  0  0  0  0  0  0  0
    5.0000    2.2510   -1.0840 O   0  0  0  0  0  0  0  0  0  0  0  0
  2  1  1  1
  2  3  1  0
  2  4  1  0
  2 12  1  0
  4  5  1  1
  4  7  1  0
  4  9  1  0
  5  6  1  0
  7  8  1  0
  9 10  1  0
 10 11  1  0
 11 12  1  0
 12 13  1  1
 12 15  1  0
 13 14  1  0
 15 16  1  0
 16 17  1  0
 17 18  1  0
 18 19  1  0
 19 20  1  6
 19 21  1  0
M  CHG  1  10   1
M  END
