
     RDKit          3D

 21 21  0  0  0  0  0  0  0  0999 V2000
    2.1480   -1.0510   -1.5080 C   0  0  0  0  0  0  0  0  0  0  0  0
    2.1980   -0.0590   -0.3660 C   0  0  1  0  0  0  0  0  0  0  0  0
    0.8270    0.2620    0.0200 C   0  0  0  0  0  0  0  0  0  0  0  0
    0.3640    1.4240    0.0140 O   0  0  0  0  0  0  0  0  0  0  0  0
   -0.0090   -0.7650    0.4150 O   0  0  0  0  0  0  0  0  0  0  0  0
   -1.3370   -0.6270    0.8110 C   0  0  0  0  0  0  0  0  0  0  0  0
   -2.1430   -0.0370   -0.3020 C   0  0  1  0  0  0  0  0  0  0  0  0
   -2.0350   -0.9260   -1.3930 O   0  0  0  0  0  0  0  0  0  0  0  0
   -3.6230    0.0510   -0.0040 C   0  0  2  0  0  0  0  0  0  0  0  0
   -4.0620   -1.2320    0.3120 O   0  0  0  0  0  0  0  0  0  0  0  0
   -4.2860    0.5430   -1.2720 C   0  0  0  0  0  0  0  0  0  0  0  0
   -5.7150    0.6020   -1.1750 N   0  0  0  0  0  0  0  0  0  0  0  0
   -3.8290    0.9900    1.1500 C   0  0  0  0  0  0  0  0  0  0  0  0
   -5.1710    1.0930    1.5130 O   0  0  0  0  0  0  0  0  0  0  0  0
    2.8650   -0.7230    0.8450 C   0  0  0  0  0  0  0  0  0  0  0  0
    4.0040   -1.3400    0.3250 O   0  0  0  0  0  0  0  0  0  0  0  0
    4.8580   -0.4190   -0.2100 C   0  0  2  0  0  0  0  0  0  0  0  0
    6.0090   -0.2460    0.7900 C   0  0  0  0  0  0  0  0  0  0  0  0
    5.4950    0.2040    2.0150 O   0  0  0  0  0  0  0  0  0  0  0  0
    4.3010    0.9140   -0.4930 C   0  0  0  0  0  0  0  0  0  0  0  0
    2.9680    0.9960   -0.7430 O   0  0  0  0  0  0  0  0  0  0  0  0
  2  1  1  6
  2  3  1  0
  2 15  1  0
  2 21  1  0
  3  4  2  0
  3  5  1  0
  5  6  1  0
  6  7  1  0
  7  8  1  6
  7  9  1  0
  9 10  1  1
  9 11  1  0
  9 13  1  0
 11 12  1  0
 13 14  1  0
 15 16  1  0
 16 17  1  0
 17 18  1  1
 17 20  1  0
 18 19  1  0
 20 21  1  0
M  CHG  1  12   1
M  END
