
     RDKit          3D

 21 21  0  0  0  0  0  0  0  0999 V2000
   -1.4710    2.3510    2.7090 C   0  0  0  0  0  0  0  0  0  0  0  0
   -1.2370    1.7660    1.4240 O   0  0  0  0  0  0  0  0  0  0  0  0
   -2.1940    0.9800    0.8000 C   0  0  0  0  0  0  0  0  0  0  0  0
   -3.2730    0.8080    1.4140 O   0  0  0  0  0  0  0  0  0  0  0  0
   -2.0120    0.3550   -0.5130 C   0  0  1  0  0  0  0  0  0  0  0  0
   -0.7730    0.6350   -1.0770 O   0  0  0  0  0  0  0  0  0  0  0  0
   -0.0880   -0.5420   -1.2550 C   0  0  1  0  0  0  0  0  0  0  0  0
   -0.3430   -1.2370   -2.5650 C   0  0  0  0  0  0  0  0  0  0  0  0
    1.4030   -0.3550   -1.1000 C   0  0  1  0  0  0  0  0  0  0  0  0
    2.0090   -1.5850   -1.3260 O   0  0  0  0  0  0  0  0  0  0  0  0
    1.8390    0.6350   -2.1480 C   0  0  0  0  0  0  0  0  0  0  0  0
    1.2550    1.8860   -1.9630 O   0  0  0  0  0  0  0  0  0  0  0  0
    1.7790    0.0800    0.2910 C   0  0  0  0  0  0  0  0  0  0  0  0
    3.2640    0.2680    0.4580 C   0  0  2  0  0  0  0  0  0  0  0  0
    3.9840   -0.8830    0.2120 O   0  0  0  0  0  0  0  0  0  0  0  0
    3.6200    0.7260    1.8560 C   0  0  0  0  0  0  0  0  0  0  0  0
    2.9460    1.8820    2.2010 O   0  0  0  0  0  0  0  0  0  0  0  0
   -0.6150   -1.3660   -0.2570 O   0  0  0  0  0  0  0  0  0  0  0  0
   -1.9940   -1.1530   -0.5000 C   0  0  1  0  0  0  0  0  0  0  0  0
   -2.8740   -1.7930    0.5060 C   0  0  0  0  0  0  0  0  0  0  0  0
   -4.2550   -1.5210    0.1350 N   0  0  0  0  0  0  0  0  0  0  0  0
  1  2  1  0
  2  3  1  0
  3  4  2  0
  5  3  1  1
  5  6  1  0
  5 19  1  0
  6  7  1  0
  7  8  1  6
  7  9  1  0
  7 18  1  0
  9 10  1  6
  9 11  1  0
  9 13  1  0
 11 12  1  0
 13 14  1  0
 14 15  1  1
 14 16  1  0
 16 17  1  0
 18 19  1  0
 19 20  1  1
 20 21  1  0
M  CHG  1  21   1
M  END
