
     RDKit          3D

 21 21  0  0  0  0  0  0  0  0999 V2000
    0.5130   -2.6430   -0.5300 O   0  0  0  0  0  0  0  0  0  0  0  0
    1.7220   -2.1230   -0.1060 C   0  0  0  0  0  0  0  0  0  0  0  0
    1.7350   -0.6100   -0.1440 C   0  0  1  0  0  0  0  0  0  0  0  0
    0.6980   -0.0570    0.7190 N   0  0  0  0  0  0  0  0  0  0  0  0
   -0.6330   -0.4220    0.2670 C   0  0  0  0  0  0  0  0  0  0  0  0
   -1.5430    0.7440    0.5410 C   0  0  2  0  0  0  0  0  0  0  0  0
   -1.5410    1.0060    1.9230 O   0  0  0  0  0  0  0  0  0  0  0  0
   -2.9640    0.5050    0.1390 C   0  0  2  0  0  0  0  0  0  0  0  0
   -3.5720   -0.6760    0.8900 C   0  0  0  0  0  0  0  0  0  0  0  0
   -3.5490   -0.4630    2.2650 O   0  0  0  0  0  0  0  0  0  0  0  0
   -3.0860    0.2400   -1.3380 C   0  0  0  0  0  0  0  0  0  0  0  0
   -4.3590    0.9590   -1.7020 C   0  0  1  0  0  0  0  0  0  0  0  0
   -5.3980    0.0360   -1.8940 O   0  0  0  0  0  0  0  0  0  0  0  0
   -4.6850    1.7830   -0.5050 C   0  0  0  0  0  0  0  0  0  0  0  0
   -3.6900    1.6300    0.4290 O   0  0  0  0  0  0  0  0  0  0  0  0
    2.9540   -0.2050    0.3980 O   0  0  0  0  0  0  0  0  0  0  0  0
    3.6590    0.5550   -0.5120 C   0  0  0  0  0  0  0  0  0  0  0  0
    4.9660    0.9620    0.1350 C   0  0  2  0  0  0  0  0  0  0  0  0
    5.6720    1.7290   -0.7890 O   0  0  0  0  0  0  0  0  0  0  0  0
    5.7710   -0.2760    0.4460 C   0  0  0  0  0  0  0  0  0  0  0  0
    5.9580   -0.9830   -0.7170 O   0  0  0  0  0  0  0  0  0  0  0  0
  1  2  1  0
  3  2  1  1
  3  4  1  0
  3 16  1  0
  4  5  1  0
  5  6  1  0
  6  7  1  1
  6  8  1  0
  8  9  1  1
  8 11  1  0
  8 15  1  0
  9 10  1  0
 11 12  1  0
 12 13  1  1
 12 14  1  0
 14 15  1  0
 16 17  1  0
 17 18  1  0
 18 19  1  6
 18 20  1  0
 20 21  1  0
M  CHG  1   4   1
M  END
