
     RDKit          3D

 28 31  0  0  0  0  0  0  0  0999 V2000
    2.8880   -0.6440   -2.9660 C   0  0  0  0  0  0  0  0  0  0  0  0
    3.0590   -0.3980   -1.5430 C   0  0  1  0  0  0  0  0  0  0  0  0
    2.7810    0.9330   -1.1120 O   0  0  0  0  0  0  0  0  0  0  0  0
    2.7270    0.6960    0.2050 C   0  0  1  0  0  0  0  0  0  0  0  0
    2.6350    1.5790    1.3010 C   0  0  2  0  0  0  0  0  0  0  0  0
    4.0480    1.9480    1.8170 C   0  0  0  0  0  0  0  0  0  0  0  0
    3.9290    2.8130    2.8880 O   0  0  0  0  0  0  0  0  0  0  0  0
    2.1210    0.5990    2.3810 C   0  0  0  0  0  0  0  0  0  0  0  0
    1.3020   -0.4300    1.6010 C   0  0  0  0  0  0  0  0  0  0  0  0
    1.5090   -0.2750    0.1790 C   0  0  1  0  0  0  0  0  0  0  0  0
    0.4190    0.2800   -0.6750 C   0  0  2  0  0  0  0  0  0  0  0  0
   -0.0080    1.7090   -0.2740 C   0  0  0  0  0  0  0  0  0  0  0  0
   -1.0990    2.0060   -1.2840 C   0  0  0  0  0  0  0  0  0  0  0  0
   -2.3810    1.3720   -0.6380 C   0  0  2  0  0  0  0  0  0  0  0  0
   -3.3080    1.5730   -1.7330 O   0  0  0  0  0  0  0  0  0  0  0  0
   -2.7810    2.3600    0.3620 C   0  0  0  0  0  0  0  0  0  0  0  0
   -3.9940    2.1300    1.2130 C   0  0  0  0  0  0  0  0  0  0  0  0
   -4.0900    3.3460    1.9920 O   0  0  0  0  0  0  0  0  0  0  0  0
   -2.1260   -0.0380   -0.3970 C   0  0  2  0  0  0  0  0  0  0  0  0
   -3.1280   -0.8020   -1.3490 C   0  0  0  0  0  0  0  0  0  0  0  0
   -2.8180   -2.2580   -1.3960 C   0  0  0  0  0  0  0  0  0  0  0  0
   -3.0760   -2.8530   -0.0390 C   0  0  0  0  0  0  0  0  0  0  0  0
   -2.3260   -2.1110    1.0040 C   0  0  0  0  0  0  0  0  0  0  0  0
   -2.5420   -0.6090    0.9340 C   0  0  0  0  0  0  0  0  0  0  0  0
   -0.7790   -0.5500   -0.8690 C   0  0  0  0  0  0  0  0  0  0  0  0
    2.2890   -1.3170   -0.5800 C   0  0  2  0  0  0  0  0  0  0  0  0
    3.2900   -2.0370    0.3090 C   0  0  0  0  0  0  0  0  0  0  0  0
    1.5440   -2.3820   -1.2780 C   0  0  0  0  0  0  0  0  0  0  0  0
  2  1  1  6
  2  3  1  0
  2 26  1  0
  4  3  1  6
  4  5  1  0
  4 10  1  0
  5  6  1  1
  5  8  1  0
  6  7  1  0
  8  9  1  0
 10  9  1  1
 10 11  1  0
 10 26  1  0
 11 12  1  1
 11 25  1  0
 12 13  1  0
 13 14  1  0
 14 15  1  6
 14 16  1  0
 14 19  1  0
 16 17  1  0
 17 18  1  0
 19 20  1  6
 19 24  1  0
 19 25  1  0
 20 21  1  0
 21 22  1  0
 22 23  1  0
 23 24  1  0
 26 27  1  1
 26 28  1  0
M  END
