
     RDKit          3D

 28 31  0  0  0  0  0  0  0  0999 V2000
   -5.4010    3.2320   -1.6670 C   0  0  0  0  0  0  0  0  0  0  0  0
   -4.2570    2.2270   -1.8430 C   0  0  0  0  0  0  0  0  0  0  0  0
   -3.7480    1.8420   -0.4550 C   0  0  0  0  0  0  0  0  0  0  0  0
   -2.6180    0.8470   -0.6810 C   0  0  2  0  0  0  0  0  0  0  0  0
   -3.0720   -0.2620   -1.3530 O   0  0  0  0  0  0  0  0  0  0  0  0
   -1.9410    0.6030    0.6150 C   0  0  1  0  0  0  0  0  0  0  0  0
   -2.8370    0.0430    1.6740 C   0  0  0  0  0  0  0  0  0  0  0  0
   -3.7490   -1.0430    1.2610 C   0  0  0  0  0  0  0  0  0  0  0  0
   -2.9690   -2.2710    0.9630 C   0  0  0  0  0  0  0  0  0  0  0  0
   -3.4650   -3.4560    1.3380 C   0  0  0  0  0  0  0  0  0  0  0  0
   -2.5020   -4.4690    0.9210 C   0  0  0  0  0  0  0  0  0  0  0  0
   -1.4190   -3.7390    0.2760 C   0  0  0  0  0  0  0  0  0  0  0  0
   -1.6910   -2.4180    0.2960 C   0  0  0  0  0  0  0  0  0  0  0  0
   -0.7600   -1.4020   -0.2960 C   0  0  0  0  0  0  0  0  0  0  0  0
   -0.6210   -0.1650    0.5140 C   0  0  2  0  0  0  0  0  0  0  0  0
   -0.2850   -0.5520    1.8120 O   0  0  0  0  0  0  0  0  0  0  0  0
    0.3810    0.7600   -0.0200 C   0  0  0  0  0  0  0  0  0  0  0  0
    1.7790    0.4130   -0.2420 C   0  0  2  0  0  0  0  0  0  0  0  0
    2.1630   -0.6800   -1.1670 C   0  0  0  0  0  0  0  0  0  0  0  0
    3.4150   -0.2830   -1.7350 O   0  0  0  0  0  0  0  0  0  0  0  0
    4.3830   -0.0930   -0.7850 C   0  0  2  0  0  0  0  0  0  0  0  0
    4.9900    1.2790   -1.0110 C   0  0  0  0  0  0  0  0  0  0  0  0
    6.4040    0.9940   -1.4410 C   0  0  0  0  0  0  0  0  0  0  0  0
    6.3610   -0.2970   -2.0030 O   0  0  0  0  0  0  0  0  0  0  0  0
    5.5850   -0.9870   -1.0760 C   0  0  0  0  0  0  0  0  0  0  0  0
    3.9890   -0.3250    0.6310 C   0  0  0  0  0  0  0  0  0  0  0  0
    2.6480    0.2980    1.0100 C   0  0  1  0  0  0  0  0  0  0  0  0
    2.9470    1.6470    1.6220 C   0  0  0  0  0  0  0  0  0  0  0  0
  1  2  1  0
  2  3  1  0
  3  4  1  0
  4  5  1  1
  4  6  1  0
  6  7  1  1
  6 15  1  0
  7  8  1  0
  8  9  1  0
  9 10  2  0
  9 13  1  0
 10 11  1  0
 11 12  1  0
 12 13  2  0
 13 14  1  0
 14 15  1  0
 15 16  1  1
 15 17  1  0
 18 17  1  1
 18 19  1  0
 18 27  1  0
 19 20  1  0
 20 21  1  0
 21 22  1  1
 21 25  1  0
 21 26  1  0
 22 23  1  0
 23 24  1  0
 24 25  1  0
 26 27  1  0
 27 28  1  6
M  END
