
     RDKit          3D

 21 24  0  0  0  0  0  0  0  0999 V2000
    1.1790    3.4500    0.6420 O   0  0  0  0  0  0  0  0  0  0  0  0
    0.4840    2.4280    0.4440 C   0  0  0  0  0  0  0  0  0  0  0  0
   -0.8340    2.5360    0.4180 N   0  0  0  0  0  0  0  0  0  0  0  0
   -1.6850    1.5440    0.2190 C   0  0  0  0  0  0  0  0  0  0  0  0
   -2.9560    1.7000    0.2030 N   0  0  0  0  0  0  0  0  0  0  0  0
   -3.8210    0.6130   -0.0130 C   0  0  0  0  0  0  0  0  0  0  0  0
   -4.0530   -0.3760    0.8250 C   0  0  0  0  0  0  0  0  0  0  0  0
   -5.0160   -1.3240    0.2500 C   0  0  0  0  0  0  0  0  0  0  0  0
   -5.3150   -0.7310   -1.0710 C   0  0  0  0  0  0  0  0  0  0  0  0
   -4.6270    0.3700   -1.2030 C   0  0  0  0  0  0  0  0  0  0  0  0
   -1.1810    0.3060    0.0240 N   0  0  0  0  0  0  0  0  0  0  0  0
    0.1810    0.1430    0.0420 C   0  0  0  0  0  0  0  0  0  0  0  0
    1.2420   -1.2890   -0.1680 S   0  0  0  0  0  0  0  0  0  0  0  0
    2.7570   -0.4460    0.0280 C   0  0  0  0  0  0  0  0  0  0  0  0
    4.1020   -1.0230   -0.0260 C   0  0  0  0  0  0  0  0  0  0  0  0
    4.3630   -2.3190   -0.2390 N   0  0  0  0  0  0  0  0  0  0  0  0
    5.7130   -2.4500   -0.2160 C   0  0  0  0  0  0  0  0  0  0  0  0
    6.2910   -1.2190    0.0150 C   0  0  0  0  0  0  0  0  0  0  0  0
    5.2520   -0.3590    0.1270 N   0  0  0  0  0  0  0  0  0  0  0  0
    2.3870    0.8590    0.2390 C   0  0  0  0  0  0  0  0  0  0  0  0
    1.0740    1.1490    0.2440 C   0  0  0  0  0  0  0  0  0  0  0  0
  1  2  2  0
  2  3  1  0
  2 21  1  0
  3  4  1  0
  4  5  2  3
  4 11  1  0
  5  6  1  0
  6  7  2  0
  6 10  1  0
  7  8  1  0
  8  9  1  0
  9 10  2  0
 11 12  1  0
 12 13  1  0
 12 21  2  0
 13 14  1  0
 14 15  1  0
 14 20  2  0
 15 16  2  0
 15 19  1  0
 16 17  1  0
 17 18  2  0
 18 19  1  0
 20 21  1  0
M  END
