
     RDKit          3D

 28 31  0  0  0  0  0  0  0  0999 V2000
    3.9490    0.5990   -1.9730 C   0  0  0  0  0  0  0  0  0  0  0  0
    3.7850    0.6270   -0.4770 C   0  0  2  0  0  0  0  0  0  0  0  0
    4.9990   -0.1300    0.0830 C   0  0  0  0  0  0  0  0  0  0  0  0
    6.2860    0.5710   -0.3490 C   0  0  0  0  0  0  0  0  0  0  0  0
    7.4750   -0.1130    0.1610 C   0  0  0  0  0  0  0  0  0  0  0  0
    8.6250    0.3190   -0.0930 O   0  0  0  0  0  0  0  0  0  0  0  0
    7.3710   -1.2570    0.9370 O   0  0  0  0  0  0  0  0  0  0  0  0
    2.5810   -0.0820    0.0240 C   0  0  1  0  0  0  0  0  0  0  0  0
    2.5870    0.0570    1.5470 C   0  0  0  0  0  0  0  0  0  0  0  0
    1.2530    0.7610    1.8380 C   0  0  0  0  0  0  0  0  0  0  0  0
    0.4220    0.1240    0.8080 C   0  0  1  0  0  0  0  0  0  0  0  0
   -0.9880    0.4950    0.7000 C   0  0  2  0  0  0  0  0  0  0  0  0
   -1.6380    0.1780    2.0480 C   0  0  0  0  0  0  0  0  0  0  0  0
   -3.1070    0.4100    1.9470 C   0  0  0  0  0  0  0  0  0  0  0  0
   -3.5910    0.6670    0.5570 C   0  0  2  0  0  0  0  0  0  0  0  0
   -5.0710    0.8040    0.5540 C   0  0  0  0  0  0  0  0  0  0  0  0
   -5.8330   -0.3920    0.1270 C   0  0  2  0  0  0  0  0  0  0  0  0
   -6.9950   -0.4630    0.9380 O   0  0  0  0  0  0  0  0  0  0  0  0
   -5.1390   -1.6880    0.2330 C   0  0  0  0  0  0  0  0  0  0  0  0
   -3.6830   -1.7060    0.0570 C   0  0  0  0  0  0  0  0  0  0  0  0
   -3.0740   -0.3820   -0.4210 C   0  0  1  0  0  0  0  0  0  0  0  0
   -3.5980   -0.1320   -1.7890 C   0  0  0  0  0  0  0  0  0  0  0  0
   -1.6080   -0.4990   -0.2930 C   0  0  1  0  0  0  0  0  0  0  0  0
   -0.8610   -0.3340   -1.5950 C   0  0  0  0  0  0  0  0  0  0  0  0
    0.6090   -0.5870   -1.4550 C   0  0  2  0  0  0  0  0  0  0  0  0
    0.7540   -1.9120   -1.0010 O   0  0  0  0  0  0  0  0  0  0  0  0
    1.2560    0.3730   -0.4580 C   0  0  2  0  0  0  0  0  0  0  0  0
    1.1840    1.7650   -0.9460 C   0  0  0  0  0  0  0  0  0  0  0  0
  2  1  1  6
  2  3  1  0
  2  8  1  0
  3  4  1  0
  4  5  1  0
  5  6  2  0
  5  7  1  0
  8  9  1  1
  8 27  1  0
  9 10  1  0
 11 10  1  1
 11 12  1  0
 11 27  1  0
 12 13  1  1
 12 23  1  0
 13 14  1  0
 15 14  1  1
 15 16  1  0
 15 21  1  0
 16 17  1  0
 17 18  1  1
 17 19  1  0
 19 20  1  0
 20 21  1  0
 21 22  1  6
 21 23  1  0
 23 24  1  6
 24 25  1  0
 25 26  1  1
 25 27  1  0
 27 28  1  6
M  END
