
     RDKit          3D

 28 30  0  0  0  0  0  0  0  0999 V2000
   -3.1060    4.6080    1.6080 C   0  0  0  0  0  0  0  0  0  0  0  0
   -2.4650    3.7360    0.5050 C   0  0  0  0  0  0  0  0  0  0  0  0
   -2.4110    2.3230    0.9370 C   0  0  0  0  0  0  0  0  0  0  0  0
   -1.8190    1.2920    0.1000 C   0  0  2  0  0  0  0  0  0  0  0  0
   -2.5930    1.2970   -1.2300 C   0  0  0  0  0  0  0  0  0  0  0  0
   -2.0640   -0.0440    0.8170 C   0  0  2  0  0  0  0  0  0  0  0  0
   -0.7530   -0.1710    1.6140 C   0  0  0  0  0  0  0  0  0  0  0  0
    0.1370   -0.0940    0.4550 C   0  0  1  0  0  0  0  0  0  0  0  0
    1.6070   -0.2760    0.6570 C   0  0  1  0  0  0  0  0  0  0  0  0
    2.1110    0.7510    1.6730 C   0  0  0  0  0  0  0  0  0  0  0  0
    1.9800   -1.4990    1.2050 O   0  0  0  0  0  0  0  0  0  0  0  0
    2.3890   -0.1730   -0.6000 C   0  0  0  0  0  0  0  0  0  0  0  0
    3.7760   -0.3020   -0.8220 C   0  0  2  0  0  0  0  0  0  0  0  0
    4.6800    0.6880   -0.1220 C   0  0  0  0  0  0  0  0  0  0  0  0
    4.0510   -0.0250   -2.3310 C   0  0  0  0  0  0  0  0  0  0  0  0
    4.5050   -1.6010   -0.6100 C   0  0  0  0  0  0  0  0  0  0  0  0
   -0.4770   -1.2900   -0.3230 C   0  0  1  0  0  0  0  0  0  0  0  0
    0.0350   -2.5860    0.1820 C   0  0  0  0  0  0  0  0  0  0  0  0
   -0.8010   -3.8100   -0.1080 C   0  0  0  0  0  0  0  0  0  0  0  0
   -1.5150   -3.7860   -1.3980 C   0  0  0  0  0  0  0  0  0  0  0  0
   -2.8240   -3.1130   -1.2720 C   0  0  0  0  0  0  0  0  0  0  0  0
   -2.8290   -2.2670   -0.0410 C   0  0  2  0  0  0  0  0  0  0  0  0
   -4.1690   -1.7720    0.0170 O   0  0  0  0  0  0  0  0  0  0  0  0
   -1.9340   -1.0820   -0.2640 C   0  0  1  0  0  0  0  0  0  0  0  0
   -0.3380    1.2070   -0.1150 C   0  0  2  0  0  0  0  0  0  0  0  0
    0.2250    2.4310    0.4000 C   0  0  0  0  0  0  0  0  0  0  0  0
    0.9230    3.2430   -0.3210 O   0  0  0  0  0  0  0  0  0  0  0  0
    0.1110    2.9260    1.7160 O   0  0  0  0  0  0  0  0  0  0  0  0
  1  2  1  0
  2  3  1  0
  3  4  1  0
  4  5  1  6
  4  6  1  0
  4 25  1  0
  6  7  1  1
  6 24  1  0
  8  7  1  1
  8  9  1  0
  8 17  1  0
  8 25  1  0
  9 10  1  1
  9 11  1  0
  9 12  1  0
 12 13  1  0
 13 14  1  1
 13 15  1  0
 13 16  1  0
 17 18  1  1
 17 24  1  0
 18 19  1  0
 19 20  1  0
 20 21  1  0
 21 22  1  0
 22 23  1  6
 24 22  1  1
 25 26  1  1
 26 27  2  0
 26 28  1  0
M  END
