
     RDKit          3D

 44 49  0  0  0  0  0  0  0  0999 V2000
   -3.4250    0.8900    2.0490 O   0  0  0  0  0  0  0  0  0  0  0  0
   -3.4650   -0.3560    1.9140 C   0  0  0  0  0  0  0  0  0  0  0  0
   -4.6220   -1.0300    2.3350 N   0  0  0  0  0  0  0  0  0  0  0  0
   -5.7880   -0.4060    2.9170 C   0  0  0  0  0  0  0  0  0  0  0  0
   -6.6160    0.2860    1.8940 C   0  0  0  0  0  0  0  0  0  0  0  0
   -6.5310    1.6540    1.7520 C   0  0  0  0  0  0  0  0  0  0  0  0
   -7.2720    2.3540    0.8180 C   0  0  0  0  0  0  0  0  0  0  0  0
   -8.1200    1.6640    0.0040 C   0  0  0  0  0  0  0  0  0  0  0  0
   -8.8720    2.3200   -0.9360 F   0  0  0  0  0  0  0  0  0  0  0  0
   -8.2020    0.2920    0.1500 C   0  0  0  0  0  0  0  0  0  0  0  0
   -9.1320   -0.4390   -0.7490 C   0  0  2  0  0  0  0  0  0  0  0  0
   -9.1410   -1.9470   -0.5570 C   0  0  0  0  0  0  0  0  0  0  0  0
   -8.5720   -1.3060   -1.8230 C   0  0  0  0  0  0  0  0  0  0  0  0
   -7.4630   -0.3630    1.0740 N   0  0  0  0  0  0  0  0  0  0  0  0
   -2.3150   -1.0660    1.3270 C   0  0  0  0  0  0  0  0  0  0  0  0
   -2.3390   -2.3150    1.1930 O   0  0  0  0  0  0  0  0  0  0  0  0
   -1.1450   -0.3940    0.8910 N   0  0  0  0  0  0  0  0  0  0  0  0
   -0.0210   -1.1420    0.3100 C   0  0  0  0  0  0  0  0  0  0  0  0
    1.1060   -0.2620   -0.0850 C   0  0  1  0  0  0  0  0  0  0  0  0
    0.7460    0.7650   -1.0920 C   0  0  0  0  0  0  0  0  0  0  0  0
    0.7870    2.1600   -0.8940 C   0  0  0  0  0  0  0  0  0  0  0  0
    0.3590    2.7510   -2.0140 N   0  0  0  0  0  0  0  0  0  0  0  0
    0.0420    1.8090   -2.9320 C   0  0  0  0  0  0  0  0  0  0  0  0
   -0.4340    1.8950   -4.2280 C   0  0  0  0  0  0  0  0  0  0  0  0
   -0.6620    0.7380   -4.9360 C   0  0  0  0  0  0  0  0  0  0  0  0
   -0.4290   -0.4960   -4.3880 C   0  0  0  0  0  0  0  0  0  0  0  0
    0.0510   -0.6170   -3.0810 C   0  0  0  0  0  0  0  0  0  0  0  0
    0.2750    0.5460   -2.3800 C   0  0  0  0  0  0  0  0  0  0  0  0
    1.5850    0.4780    1.1650 C   0  0  0  0  0  0  0  0  0  0  0  0
    2.8780    1.1990    0.9650 C   0  0  0  0  0  0  0  0  0  0  0  0
    4.0500    0.4070    1.5140 C   0  0  0  0  0  0  0  0  0  0  0  0
    4.2800   -0.7160    0.6860 N   0  0  0  0  0  0  0  0  0  0  0  0
    5.2930   -0.6290   -0.2930 C   0  0  0  0  0  0  0  0  0  0  0  0
    6.6340   -0.3870    0.3170 C   0  0  0  0  0  0  0  0  0  0  0  0
    7.7130   -0.2150   -0.5620 C   0  0  0  0  0  0  0  0  0  0  0  0
    8.9750    0.0080   -0.0670 C   0  0  0  0  0  0  0  0  0  0  0  0
    9.1450    0.0580    1.2940 C   0  0  0  0  0  0  0  0  0  0  0  0
   10.4780    0.2940    1.9120 C   0  0  0  0  0  0  0  0  0  0  0  0
   11.4320    0.4450    0.9280 F   0  0  0  0  0  0  0  0  0  0  0  0
    8.0730   -0.1140    2.1460 C   0  0  0  0  0  0  0  0  0  0  0  0
    8.2250   -0.0670    3.4840 F   0  0  0  0  0  0  0  0  0  0  0  0
    6.8650   -0.3280    1.6230 N   0  0  0  0  0  0  0  0  0  0  0  0
    3.1910   -1.5850    0.4500 C   0  0  0  0  0  0  0  0  0  0  0  0
    2.2100   -1.1820   -0.5930 C   0  0  0  0  0  0  0  0  0  0  0  0
  1  2  2  0
  2  3  1  0
  2 15  1  0
  3  4  1  0
  4  5  1  0
  5  6  2  0
  5 14  1  0
  6  7  1  0
  7  8  2  0
  8  9  1  0
  8 10  1  0
 11 10  1  1
 10 14  2  0
 11 12  1  0
 11 13  1  0
 12 13  1  0
 15 16  2  0
 15 17  1  0
 17 18  1  0
 19 18  1  1
 19 20  1  0
 19 29  1  0
 19 44  1  0
 20 21  2  0
 20 28  1  0
 21 22  1  0
 22 23  1  0
 23 24  2  0
 23 28  1  0
 24 25  1  0
 25 26  2  0
 26 27  1  0
 27 28  2  0
 29 30  1  0
 30 31  1  0
 31 32  1  0
 32 33  1  0
 32 43  1  0
 33 34  1  0
 34 35  2  0
 34 42  1  0
 35 36  1  0
 36 37  2  0
 37 38  1  0
 37 40  1  0
 38 39  1  0
 40 41  1  0
 40 42  2  0
 43 44  1  0
M  END
