
     RDKit          3D

 44 49  0  0  0  0  0  0  0  0999 V2000
   -6.9120    2.3530    2.2780 C   0  0  0  0  0  0  0  0  0  0  0  0
   -6.3260    1.2020    1.5940 C   0  0  0  0  0  0  0  0  0  0  0  0
   -5.0760    0.8080    1.8790 C   0  0  0  0  0  0  0  0  0  0  0  0
   -4.0940    1.3540    2.8210 C   0  0  0  0  0  0  0  0  0  0  0  0
   -4.2230    1.8660    4.0010 C   0  0  0  0  0  0  0  0  0  0  0  0
   -5.3390    2.1070    4.8870 C   0  0  2  0  0  0  0  0  0  0  0  0
   -4.8430    2.2740    6.2260 F   0  0  0  0  0  0  0  0  0  0  0  0
   -6.1860    0.9900    5.0040 F   0  0  0  0  0  0  0  0  0  0  0  0
   -2.7840    0.9920    2.1620 C   0  0  0  0  0  0  0  0  0  0  0  0
   -1.5110    1.4730    2.4410 C   0  0  0  0  0  0  0  0  0  0  0  0
   -0.5050    1.2160    1.5020 C   0  0  0  0  0  0  0  0  0  0  0  0
   -0.7010    0.5250    0.3410 C   0  0  0  0  0  0  0  0  0  0  0  0
    0.2740    0.2220   -0.6300 N   0  0  0  0  0  0  0  0  0  0  0  0
    1.6580    0.2630   -0.3860 C   0  0  0  0  0  0  0  0  0  0  0  0
    2.1200    0.5740    0.7350 O   0  0  0  0  0  0  0  0  0  0  0  0
    2.6450   -0.0660   -1.4710 C   0  0  1  0  0  0  0  0  0  0  0  0
    2.5230    0.9720   -2.5420 C   0  0  0  0  0  0  0  0  0  0  0  0
    3.8500    1.6520   -2.6210 C   0  0  0  0  0  0  0  0  0  0  0  0
    4.7760    0.6720   -2.0390 N   0  0  0  0  0  0  0  0  0  0  0  0
    6.0870    0.4830   -2.5010 C   0  0  0  0  0  0  0  0  0  0  0  0
    6.4470    1.1790   -3.5300 O   0  0  0  0  0  0  0  0  0  0  0  0
    7.1190   -0.4170   -1.9590 C   0  0  0  0  0  0  0  0  0  0  0  0
    6.7720   -1.1550   -0.7920 N   0  0  0  0  0  0  0  0  0  0  0  0
    7.8360   -2.0060   -0.4350 N   0  0  0  0  0  0  0  0  0  0  0  0
    8.9170   -1.5370    0.3510 C   0  0  0  0  0  0  0  0  0  0  0  0
    8.9790   -0.2500    0.8260 C   0  0  0  0  0  0  0  0  0  0  0  0
   10.0650    0.1260    1.5760 C   0  0  0  0  0  0  0  0  0  0  0  0
   11.0960   -0.7090    1.8790 C   0  0  0  0  0  0  0  0  0  0  0  0
   12.1810   -0.3480    2.6210 F   0  0  0  0  0  0  0  0  0  0  0  0
   11.0100   -2.0060    1.3870 C   0  0  0  0  0  0  0  0  0  0  0  0
    9.9450   -2.4230    0.6360 C   0  0  0  0  0  0  0  0  0  0  0  0
    4.0680    0.0030   -1.0010 C   0  0  0  0  0  0  0  0  0  0  0  0
   -2.0280    0.0610    0.1280 C   0  0  0  0  0  0  0  0  0  0  0  0
   -3.0310    0.2870    1.0180 C   0  0  0  0  0  0  0  0  0  0  0  0
   -4.4150   -0.2850    1.2070 C   0  0  2  0  0  0  0  0  0  0  0  0
   -5.0600   -0.8430    0.0440 C   0  0  0  0  0  0  0  0  0  0  0  0
   -6.4310   -0.3870   -0.1960 C   0  0  0  0  0  0  0  0  0  0  0  0
   -7.1960   -1.0020   -1.2710 N   0  0  0  0  0  0  0  0  0  0  0  0
   -8.5600   -0.6840   -1.4730 C   0  0  0  0  0  0  0  0  0  0  0  0
   -9.2730   -1.2450   -2.4570 C   0  0  0  0  0  0  0  0  0  0  0  0
   -8.6900   -2.2190   -3.3870 C   0  0  0  0  0  0  0  0  0  0  0  0
   -7.2660   -2.5090   -3.1270 C   0  0  0  0  0  0  0  0  0  0  0  0
   -6.6070   -1.9420   -2.1570 C   0  0  0  0  0  0  0  0  0  0  0  0
   -6.9460    0.5260    0.5160 N   0  0  0  0  0  0  0  0  0  0  0  0
  1  2  1  0
  2  3  2  0
  2 44  1  0
  3  4  1  0
  3 35  1  0
  4  5  2  3
  4  9  1  0
  5  6  1  0
  6  7  1  1
  6  8  1  0
  9 10  2  0
  9 34  1  0
 10 11  1  0
 11 12  2  0
 12 13  1  0
 12 33  1  0
 13 14  1  0
 14 15  2  0
 16 14  1  1
 16 17  1  0
 16 32  1  0
 17 18  1  0
 18 19  1  0
 19 20  1  0
 19 32  1  0
 20 21  2  0
 20 22  1  0
 22 23  1  0
 23 24  1  0
 24 25  1  0
 25 26  2  0
 25 31  1  0
 26 27  1  0
 27 28  2  0
 28 29  1  0
 28 30  1  0
 30 31  2  0
 33 34  2  0
 34 35  1  0
 35 36  1  6
 36 37  1  0
 37 38  1  0
 37 44  2  0
 38 39  1  0
 38 43  1  0
 39 40  2  0
 40 41  1  0
 41 42  1  0
 42 43  2  0
M  END
