
     RDKit          3D

 44 48  0  0  0  0  0  0  0  0999 V2000
    1.6930   -3.9510    2.1560 C   0  0  0  0  0  0  0  0  0  0  0  0
    2.6810   -3.1360    1.7480 C   0  0  0  0  0  0  0  0  0  0  0  0
    2.9290   -1.8950    2.5030 C   0  0  0  0  0  0  0  0  0  0  0  0
    2.7630   -0.6870    1.6710 N   0  0  2  0  0  0  0  0  0  0  0  0
    1.3380   -0.3190    1.7840 C   0  0  0  0  0  0  0  0  0  0  0  0
    0.9770    0.2130    3.0970 C   0  0  0  0  0  0  0  0  0  0  0  0
    1.9500    0.5140    4.0450 C   0  0  0  0  0  0  0  0  0  0  0  0
    1.6240    1.0700    5.2760 C   0  0  0  0  0  0  0  0  0  0  0  0
    0.3210    1.3440    5.6030 C   0  0  0  0  0  0  0  0  0  0  0  0
   -0.6410    1.0540    4.6860 C   0  0  0  0  0  0  0  0  0  0  0  0
   -0.3370    0.4870    3.4260 C   0  0  0  0  0  0  0  0  0  0  0  0
   -1.4690    0.2180    2.5750 C   0  0  0  0  0  0  0  0  0  0  0  0
   -2.5870   -0.0420    3.2000 O   0  0  0  0  0  0  0  0  0  0  0  0
   -1.6090    0.1820    1.1900 N   0  0  0  0  0  0  0  0  0  0  0  0
   -2.8610   -0.1360    0.5140 C   0  0  1  0  0  0  0  0  0  0  0  0
   -3.3940    1.1320   -0.0560 C   0  0  0  0  0  0  0  0  0  0  0  0
   -3.8870    1.1730   -1.3330 C   0  0  0  0  0  0  0  0  0  0  0  0
   -4.3850    2.3420   -1.8330 C   0  0  0  0  0  0  0  0  0  0  0  0
   -4.3900    3.4830   -1.0480 C   0  0  0  0  0  0  0  0  0  0  0  0
   -4.8930    4.6770   -1.5370 O   0  0  0  0  0  0  0  0  0  0  0  0
   -4.9740    5.8960   -0.8920 C   0  0  0  0  0  0  0  0  0  0  0  0
   -3.8990    3.4620    0.2370 C   0  0  0  0  0  0  0  0  0  0  0  0
   -3.3960    2.2590    0.7260 C   0  0  0  0  0  0  0  0  0  0  0  0
   -2.7090   -1.1190   -0.5760 C   0  0  0  0  0  0  0  0  0  0  0  0
   -3.5850   -2.1810   -0.6930 C   0  0  0  0  0  0  0  0  0  0  0  0
   -3.4830   -3.1230   -1.6990 C   0  0  0  0  0  0  0  0  0  0  0  0
   -2.4830   -3.0360   -2.6450 C   0  0  0  0  0  0  0  0  0  0  0  0
   -2.3420   -3.9630   -3.6780 O   0  0  0  0  0  0  0  0  0  0  0  0
   -3.2820   -5.0190   -3.7200 C   0  0  0  0  0  0  0  0  0  0  0  0
   -1.6080   -1.9760   -2.5300 C   0  0  0  0  0  0  0  0  0  0  0  0
   -1.7060   -1.0350   -1.5270 C   0  0  0  0  0  0  0  0  0  0  0  0
    3.0790   -0.9990    0.3020 C   0  0  0  0  0  0  0  0  0  0  0  0
    3.5090    0.1530   -0.5170 C   0  0  0  0  0  0  0  0  0  0  0  0
    3.6300    1.4340   -0.0480 C   0  0  0  0  0  0  0  0  0  0  0  0
    4.0580    2.4710   -0.8890 C   0  0  0  0  0  0  0  0  0  0  0  0
    4.3700    2.2390   -2.2070 C   0  0  0  0  0  0  0  0  0  0  0  0
    4.2530    0.9580   -2.6950 C   0  0  0  0  0  0  0  0  0  0  0  0
    3.8290   -0.0700   -1.8630 C   0  0  0  0  0  0  0  0  0  0  0  0
    3.6960   -1.4330   -2.3520 C   0  0  0  0  0  0  0  0  0  0  0  0
    2.6260   -1.8540   -2.8440 O   0  0  0  0  0  0  0  0  0  0  0  0
    4.7760   -2.2880   -2.2730 O   0  0  0  0  0  0  0  0  0  0  0  0
    4.6160    0.9540   -4.0430 O   0  0  0  0  0  0  0  0  0  0  0  0
    5.3610    2.1420   -4.2580 C   0  0  0  0  0  0  0  0  0  0  0  0
    4.8110    3.0110   -3.2790 O   0  0  0  0  0  0  0  0  0  0  0  0
  1  2  2  0
  2  3  1  0
  4  3  1  1
  4  5  1  0
  4 32  1  0
  5  6  1  0
  6  7  2  0
  6 11  1  0
  7  8  1  0
  8  9  2  0
  9 10  1  0
 10 11  2  0
 11 12  1  0
 12 13  2  0
 12 14  1  0
 15 14  1  6
 15 16  1  0
 15 24  1  0
 16 17  2  0
 16 23  1  0
 17 18  1  0
 18 19  2  0
 19 20  1  0
 19 22  1  0
 20 21  1  0
 22 23  2  0
 24 25  2  0
 24 31  1  0
 25 26  1  0
 26 27  2  0
 27 28  1  0
 27 30  1  0
 28 29  1  0
 30 31  2  0
 32 33  1  0
 33 34  2  0
 33 38  1  0
 34 35  1  0
 35 36  2  0
 36 37  1  0
 36 44  1  0
 37 38  2  0
 37 42  1  0
 38 39  1  0
 39 40  2  0
 39 41  1  0
 42 43  1  0
 43 44  1  0
M  CHG  1   4   1
M  END
