
     RDKit          3D

 44 49  0  0  0  0  0  0  0  0999 V2000
   -8.9810   -3.0340   -0.0500 C   0  0  0  0  0  0  0  0  0  0  0  0
   -7.8360   -2.3160   -0.5080 N   0  0  0  0  0  0  0  0  0  0  0  0
   -6.6190   -2.6420   -0.1940 C   0  0  0  0  0  0  0  0  0  0  0  0
   -6.4080   -3.7270    0.6160 C   0  0  0  0  0  0  0  0  0  0  0  0
   -5.1170   -4.0620    0.9450 C   0  0  0  0  0  0  0  0  0  0  0  0
   -4.0970   -3.2610    0.4220 C   0  0  0  0  0  0  0  0  0  0  0  0
   -4.3390   -2.1750   -0.3900 C   0  0  0  0  0  0  0  0  0  0  0  0
   -3.1540   -1.3430   -0.8570 C   0  0  0  0  0  0  0  0  0  0  0  0
   -3.4360   -0.4870   -1.7780 C   0  0  0  0  0  0  0  0  0  0  0  0
   -2.6300    0.4950   -2.5130 C   0  0  1  0  0  0  0  0  0  0  0  0
   -1.3080    0.2730   -2.3450 F   0  0  0  0  0  0  0  0  0  0  0  0
   -2.9090    0.2770   -3.8950 F   0  0  0  0  0  0  0  0  0  0  0  0
   -2.9810    1.7660   -2.1940 F   0  0  0  0  0  0  0  0  0  0  0  0
   -1.9420   -1.5990   -0.0990 C   0  0  0  0  0  0  0  0  0  0  0  0
   -0.7970   -0.8350   -0.0600 N   0  0  0  0  0  0  0  0  0  0  0  0
   -0.7260    0.2930    0.7540 C   0  0  0  0  0  0  0  0  0  0  0  0
   -1.5130    1.5200    0.5110 C   0  0  0  0  0  0  0  0  0  0  0  0
   -1.2190    2.5070    1.6220 C   0  0  0  0  0  0  0  0  0  0  0  0
   -0.1880    3.4160    1.5390 C   0  0  0  0  0  0  0  0  0  0  0  0
    0.0790    4.3150    2.5550 C   0  0  0  0  0  0  0  0  0  0  0  0
   -0.6830    4.3370    3.7020 C   0  0  0  0  0  0  0  0  0  0  0  0
   -0.4120    5.2670    4.7630 N   0  0  0  0  0  0  0  0  0  0  0  0
   -1.7210    3.4310    3.7990 C   0  0  0  0  0  0  0  0  0  0  0  0
   -1.9720    2.5430    2.7770 C   0  0  0  0  0  0  0  0  0  0  0  0
    0.4190   -1.5020   -0.3940 C   0  0  2  0  0  0  0  0  0  0  0  0
    0.7260   -2.6330    0.5860 C   0  0  0  0  0  0  0  0  0  0  0  0
    1.4340   -3.6720   -0.2570 C   0  0  0  0  0  0  0  0  0  0  0  0
    2.6560   -2.9750   -0.8030 C   0  0  0  0  0  0  0  0  0  0  0  0
    3.8220   -3.4800   -1.2820 N   0  0  0  0  0  0  0  0  0  0  0  0
    4.6080   -2.4990   -1.6540 N   0  0  0  0  0  0  0  0  0  0  0  0
    3.9940   -1.3080   -1.4370 C   0  0  0  0  0  0  0  0  0  0  0  0
    4.5900   -0.0110   -1.7150 C   0  0  0  0  0  0  0  0  0  0  0  0
    4.0170    1.0060   -2.4050 C   0  0  0  0  0  0  0  0  0  0  0  0
    4.6920    2.2070   -2.5820 C   0  0  0  0  0  0  0  0  0  0  0  0
    5.9650    2.4180   -2.0680 C   0  0  0  0  0  0  0  0  0  0  0  0
    6.5290    1.3620   -1.3670 C   0  0  0  0  0  0  0  0  0  0  0  0
    5.8730    0.1710   -1.1850 C   0  0  0  0  0  0  0  0  0  0  0  0
    7.8270    1.5300   -0.8240 O   0  0  0  0  0  0  0  0  0  0  0  0
    8.1440    2.8620   -0.4430 C   0  0  0  0  0  0  0  0  0  0  0  0
    7.7880    3.8840   -1.4830 C   0  0  0  0  0  0  0  0  0  0  0  0
    6.6470    3.6020   -2.2360 O   0  0  0  0  0  0  0  0  0  0  0  0
    2.7660   -1.6050   -0.9010 C   0  0  0  0  0  0  0  0  0  0  0  0
    1.6550   -0.6850   -0.4340 C   0  0  0  0  0  0  0  0  0  0  0  0
   -5.5840   -1.8820   -0.6850 N   0  0  0  0  0  0  0  0  0  0  0  0
  1  2  1  0
  2  3  2  3
  3  4  1  0
  3 44  1  0
  4  5  2  0
  5  6  1  0
  6  7  2  0
  7  8  1  0
  7 44  1  0
  8  9  2  3
  8 14  1  0
  9 10  1  0
 10 11  1  6
 10 12  1  0
 10 13  1  0
 14 15  1  0
 15 16  1  0
 25 15  1  1
 16 17  1  0
 17 18  1  0
 18 19  2  0
 18 24  1  0
 19 20  1  0
 20 21  2  0
 21 22  1  0
 21 23  1  0
 23 24  2  0
 25 26  1  0
 25 43  1  0
 26 27  1  0
 27 28  1  0
 28 29  1  0
 28 42  2  0
 29 30  1  0
 30 31  2  0
 31 32  1  0
 31 42  1  0
 32 33  2  0
 32 37  1  0
 33 34  1  0
 34 35  2  0
 35 36  1  0
 35 41  1  0
 36 37  2  0
 36 38  1  0
 38 39  1  0
 39 40  1  0
 40 41  1  0
 42 43  1  0
M  END
