
     RDKit          3D

 44 48  0  0  0  0  0  0  0  0999 V2000
   -0.5580    1.1330    3.2020 C   0  0  0  0  0  0  0  0  0  0  0  0
   -1.9150    0.6830    2.8240 C   0  0  0  0  0  0  0  0  0  0  0  0
   -2.9840    1.0090    3.6130 C   0  0  0  0  0  0  0  0  0  0  0  0
   -4.2620    0.6020    3.2810 C   0  0  0  0  0  0  0  0  0  0  0  0
   -4.4260   -0.1330    2.1470 C   0  0  0  0  0  0  0  0  0  0  0  0
   -5.7450   -0.6290    1.7120 C   0  0  0  0  0  0  0  0  0  0  0  0
   -6.5260    0.3880    0.9050 C   0  0  1  0  0  0  0  0  0  0  0  0
   -5.8160    0.7870   -0.2940 N   0  0  0  0  0  0  0  0  0  0  0  0
   -5.6170   -0.1970   -1.2860 C   0  0  0  0  0  0  0  0  0  0  0  0
   -6.0930    0.4010   -2.6180 C   0  0  0  0  0  0  0  0  0  0  0  0
   -7.5790    0.2660   -2.7530 C   0  0  0  0  0  0  0  0  0  0  0  0
   -8.2250   -0.5730   -1.8210 N   0  0  0  0  0  0  0  0  0  0  0  0
   -8.3900   -0.7850   -0.5800 C   0  0  0  0  0  0  0  0  0  0  0  0
   -7.8700   -0.1100    0.6320 C   0  0  0  0  0  0  0  0  0  0  0  0
   -8.7680    0.0500    1.5540 C   0  0  0  0  0  0  0  0  0  0  0  0
   -8.7550    0.6490    2.8780 C   0  0  0  0  0  0  0  0  0  0  0  0
   -7.6260    1.2030    3.3470 F   0  0  0  0  0  0  0  0  0  0  0  0
   -3.3210   -0.4620    1.3450 C   0  0  0  0  0  0  0  0  0  0  0  0
   -2.0610   -0.0730    1.6520 C   0  0  0  0  0  0  0  0  0  0  0  0
   -0.9170   -0.3700    0.8920 N   0  0  0  0  0  0  0  0  0  0  0  0
   -0.8730   -1.1070   -0.3110 C   0  0  0  0  0  0  0  0  0  0  0  0
   -1.9250   -1.5660   -0.8000 O   0  0  0  0  0  0  0  0  0  0  0  0
    0.4260   -1.3340   -0.9930 C   0  0  0  0  0  0  0  0  0  0  0  0
    0.6630   -2.0130   -2.1650 C   0  0  0  0  0  0  0  0  0  0  0  0
    2.0330   -1.9520   -2.3840 C   0  0  0  0  0  0  0  0  0  0  0  0
    2.8080   -2.5270   -3.5100 C   0  0  0  0  0  0  0  0  0  0  0  0
    2.5770   -1.2590   -1.3730 N   0  0  0  0  0  0  0  0  0  0  0  0
    3.9480   -0.9510   -1.1820 C   0  0  0  0  0  0  0  0  0  0  0  0
    4.8810   -1.9690   -1.0760 C   0  0  0  0  0  0  0  0  0  0  0  0
    6.2260   -1.6770   -0.8860 C   0  0  0  0  0  0  0  0  0  0  0  0
    6.6740   -0.3800   -0.7980 C   0  0  0  0  0  0  0  0  0  0  0  0
    8.0880   -0.1350   -0.6000 C   0  0  0  0  0  0  0  0  0  0  0  0
    8.8700   -1.1170   -0.5490 O   0  0  0  0  0  0  0  0  0  0  0  0
    8.6690    1.1470   -0.4560 N   0  0  0  0  0  0  0  0  0  0  0  0
   10.0670    1.3460   -0.2610 C   0  0  0  0  0  0  0  0  0  0  0  0
   10.5950    1.9420    0.8030 C   0  0  0  0  0  0  0  0  0  0  0  0
   12.0760    1.9920    0.7050 C   0  0  0  0  0  0  0  0  0  0  0  0
   12.3270    1.3270   -0.5950 C   0  0  0  0  0  0  0  0  0  0  0  0
   11.1740    0.9720   -1.1190 C   0  0  0  0  0  0  0  0  0  0  0  0
   10.9720    0.3310   -2.3140 F   0  0  0  0  0  0  0  0  0  0  0  0
    5.7460    0.6270   -0.9040 C   0  0  0  0  0  0  0  0  0  0  0  0
    4.3920    0.3520   -1.0950 C   0  0  0  0  0  0  0  0  0  0  0  0
    3.4750    1.3680   -1.2000 F   0  0  0  0  0  0  0  0  0  0  0  0
    1.6010   -0.9040   -0.5620 N   0  0  0  0  0  0  0  0  0  0  0  0
  1  2  1  0
  2  3  2  0
  2 19  1  0
  3  4  1  0
  4  5  2  0
  5  6  1  0
  5 18  1  0
  7  6  1  6
  7  8  1  0
  7 14  1  0
  8  9  1  0
  9 10  1  0
 10 11  1  0
 11 12  1  0
 12 13  2  0
 13 14  1  0
 14 15  2  3
 15 16  1  0
 16 17  1  0
 18 19  2  0
 19 20  1  0
 20 21  1  0
 21 22  2  0
 21 23  1  0
 23 24  1  0
 23 44  2  0
 24 25  2  0
 25 26  1  0
 25 27  1  0
 27 28  1  0
 27 44  1  0
 28 29  2  0
 28 42  1  0
 29 30  1  0
 30 31  2  0
 31 32  1  0
 31 41  1  0
 32 33  2  0
 32 34  1  0
 34 35  1  0
 35 36  2  0
 35 39  1  0
 36 37  1  0
 37 38  1  0
 38 39  2  0
 39 40  1  0
 41 42  2  0
 42 43  1  0
M  END
