
     RDKit          3D

 44 49  0  0  0  0  0  0  0  0999 V2000
   -5.1990   -0.0090   -1.5020 C   0  0  0  0  0  0  0  0  0  0  0  0
   -4.9200    1.3120   -2.0460 C   0  0  0  0  0  0  0  0  0  0  0  0
   -3.5760    1.9210   -2.0430 C   0  0  0  0  0  0  0  0  0  0  0  0
   -2.9440    2.0610   -0.6890 C   0  0  0  0  0  0  0  0  0  0  0  0
   -3.2480    3.1640    0.0800 C   0  0  0  0  0  0  0  0  0  0  0  0
   -2.7640    3.3070    1.3770 C   0  0  0  0  0  0  0  0  0  0  0  0
   -1.9610    2.3510    1.9460 C   0  0  0  0  0  0  0  0  0  0  0  0
   -1.6580    1.2530    1.1730 C   0  0  0  0  0  0  0  0  0  0  0  0
   -2.1300    1.0870   -0.1260 C   0  0  0  0  0  0  0  0  0  0  0  0
   -1.6360    0.0120   -0.9640 C   0  0  0  0  0  0  0  0  0  0  0  0
   -0.9550   -1.1030   -0.4020 N   0  0  0  0  0  0  0  0  0  0  0  0
    0.4270   -1.1780   -0.1160 C   0  0  0  0  0  0  0  0  0  0  0  0
    0.9070   -2.3370    0.0970 O   0  0  0  0  0  0  0  0  0  0  0  0
    1.3180   -0.0750   -0.0470 N   0  0  0  0  0  0  0  0  0  0  0  0
    2.6680   -0.1410    0.2190 N   0  0  0  0  0  0  0  0  0  0  0  0
    3.3270   -1.2580    0.7990 C   0  0  0  0  0  0  0  0  0  0  0  0
    2.7900   -1.9770    1.6380 O   0  0  0  0  0  0  0  0  0  0  0  0
    4.7460   -1.5610    0.3640 C   0  0  0  0  0  0  0  0  0  0  0  0
    5.5650   -0.3220    0.6760 C   0  0  2  0  0  0  0  0  0  0  0  0
    5.7230   -0.2090    2.1850 C   0  0  0  0  0  0  0  0  0  0  0  0
    4.8820    0.8560    0.1290 N   0  0  0  0  0  0  0  0  0  0  0  0
    3.5660    0.9390   -0.1050 C   0  0  0  0  0  0  0  0  0  0  0  0
    3.3310    2.1600   -0.6180 N   0  0  0  0  0  0  0  0  0  0  0  0
    4.4710    2.8550   -0.7130 C   0  0  0  0  0  0  0  0  0  0  0  0
    4.7890    4.1380   -1.1610 C   0  0  0  0  0  0  0  0  0  0  0  0
    6.0960    4.5630   -1.1230 C   0  0  0  0  0  0  0  0  0  0  0  0
    7.0970    3.7360   -0.6450 C   0  0  0  0  0  0  0  0  0  0  0  0
    6.7820    2.4700   -0.2030 C   0  0  0  0  0  0  0  0  0  0  0  0
    5.4660    2.0340   -0.2400 C   0  0  0  0  0  0  0  0  0  0  0  0
   -1.6670   -2.3540   -0.2740 C   0  0  0  0  0  0  0  0  0  0  0  0
   -1.5390   -3.2510   -1.3700 C   0  0  0  0  0  0  0  0  0  0  0  0
   -2.1350   -4.4720   -1.4010 C   0  0  0  0  0  0  0  0  0  0  0  0
   -2.0190   -5.3930   -2.4710 N   0  0  0  0  0  0  0  0  0  0  0  0
   -2.6150   -6.7080   -2.4070 C   0  0  2  0  0  0  0  0  0  0  0  0
   -2.1110   -7.4170   -1.3090 F   0  0  0  0  0  0  0  0  0  0  0  0
   -2.1820   -7.4250   -3.5200 F   0  0  0  0  0  0  0  0  0  0  0  0
   -2.9060   -4.8320   -0.2820 C   0  0  0  0  0  0  0  0  0  0  0  0
   -3.0270   -3.9660    0.7690 C   0  0  0  0  0  0  0  0  0  0  0  0
   -2.4040   -2.7020    0.7930 C   0  0  0  0  0  0  0  0  0  0  0  0
   -2.5610   -1.8440    1.9880 C   0  0  0  0  0  0  0  0  0  0  0  0
   -1.6290    2.7080    3.1870 C   0  0  0  0  0  0  0  0  0  0  0  0
   -0.8520    1.9800    3.9980 F   0  0  0  0  0  0  0  0  0  0  0  0
   -2.2480    4.0140    3.4940 C   0  0  0  0  0  0  0  0  0  0  0  0
   -2.9680    4.3020    2.2330 C   0  0  0  0  0  0  0  0  0  0  0  0
  1  2  1  0
  2  3  1  0
  3  4  1  0
  4  5  2  0
  4  9  1  0
  5  6  1  0
  6  7  1  0
  6 44  2  0
  7  8  1  0
  7 41  2  0
  8  9  2  0
  9 10  1  0
 10 11  1  0
 11 12  1  0
 11 30  1  0
 12 13  2  0
 12 14  1  0
 14 15  1  0
 15 16  1  0
 15 22  1  0
 16 17  2  0
 16 18  1  0
 18 19  1  0
 19 20  1  1
 19 21  1  0
 21 22  1  0
 21 29  1  0
 22 23  2  0
 23 24  1  0
 24 25  2  0
 24 29  1  0
 25 26  1  0
 26 27  2  0
 27 28  1  0
 28 29  2  0
 30 31  2  0
 30 39  1  0
 31 32  1  0
 32 33  1  0
 32 37  2  0
 33 34  1  0
 34 35  1  1
 34 36  1  0
 37 38  1  0
 38 39  2  0
 39 40  1  0
 41 42  1  0
 41 43  1  0
 43 44  1  0
M  END
