
     RDKit          3D

 44 49  0  0  0  0  0  0  0  0999 V2000
   -1.2860   -1.9020   -2.0100 O   0  0  0  0  0  0  0  0  0  0  0  0
   -0.4610   -1.0160   -2.2920 C   0  0  0  0  0  0  0  0  0  0  0  0
   -0.9690    0.1610   -2.9630 N   0  0  0  0  0  0  0  0  0  0  0  0
   -2.3740    0.2830   -3.2850 C   0  0  0  0  0  0  0  0  0  0  0  0
   -3.2720    0.1950   -2.1320 C   0  0  0  0  0  0  0  0  0  0  0  0
   -3.3420    1.0540   -1.1220 N   0  0  0  0  0  0  0  0  0  0  0  0
   -4.3050    0.6510   -0.2260 C   0  0  0  0  0  0  0  0  0  0  0  0
   -4.5270    1.3230    0.8580 C   0  0  0  0  0  0  0  0  0  0  0  0
   -3.6780    2.5600    1.1170 C   0  0  0  0  0  0  0  0  0  0  0  0
   -3.1190    2.3580    2.4970 C   0  0  0  0  0  0  0  0  0  0  0  0
   -4.2000    2.3220    3.5220 C   0  0  0  0  0  0  0  0  0  0  0  0
   -5.1980    1.1820    3.3150 C   0  0  0  0  0  0  0  0  0  0  0  0
   -5.5440    1.1130    1.8600 C   0  0  0  0  0  0  0  0  0  0  0  0
   -6.7170    0.8780    1.5280 O   0  0  0  0  0  0  0  0  0  0  0  0
   -4.8150   -0.5260   -0.7660 C   0  0  0  0  0  0  0  0  0  0  0  0
   -4.1800   -0.7850   -1.9200 N   0  0  0  0  0  0  0  0  0  0  0  0
   -4.4840   -1.9140   -2.7210 C   0  0  0  0  0  0  0  0  0  0  0  0
   -5.9080   -2.4200   -2.4690 C   0  0  1  0  0  0  0  0  0  0  0  0
   -6.7640   -1.5020   -3.0070 F   0  0  0  0  0  0  0  0  0  0  0  0
   -6.0220   -3.6690   -3.0420 F   0  0  0  0  0  0  0  0  0  0  0  0
   -6.1230   -2.5740   -0.9820 C   0  0  0  0  0  0  0  0  0  0  0  0
   -5.6920   -1.3630   -0.2430 C   0  0  0  0  0  0  0  0  0  0  0  0
    0.8870   -1.1730   -1.9690 N   0  0  0  0  0  0  0  0  0  0  0  0
    1.5110   -2.2600   -1.3140 C   0  0  0  0  0  0  0  0  0  0  0  0
    0.8420   -3.3840   -0.9110 C   0  0  0  0  0  0  0  0  0  0  0  0
    1.4580   -4.4760   -0.2770 C   0  0  0  0  0  0  0  0  0  0  0  0
    2.7980   -4.4410   -0.0380 C   0  0  0  0  0  0  0  0  0  0  0  0
    3.4140   -5.4810    0.5710 F   0  0  0  0  0  0  0  0  0  0  0  0
    3.4960   -3.3250   -0.4320 C   0  0  0  0  0  0  0  0  0  0  0  0
    2.8820   -2.2500   -1.0570 C   0  0  0  0  0  0  0  0  0  0  0  0
    3.7120   -1.1070   -1.4150 C   0  0  0  0  0  0  0  0  0  0  0  0
    3.6170    0.0630   -0.4200 C   0  0  2  0  0  0  0  0  0  0  0  0
    4.4730    1.0710   -0.9210 N   0  0  0  0  0  0  0  0  0  0  0  0
    4.5500    2.3120   -0.2720 C   0  0  2  0  0  0  0  0  0  0  0  0
    5.0750    2.3270    1.1300 C   0  0  0  0  0  0  0  0  0  0  0  0
    4.9040    3.8120    1.5070 C   0  0  0  0  0  0  0  0  0  0  0  0
    3.6740    4.2520    0.7280 C   0  0  0  0  0  0  0  0  0  0  0  0
    3.2420    3.0580   -0.1020 C   0  0  0  0  0  0  0  0  0  0  0  0
    4.1390   -0.5220    0.8680 C   0  0  0  0  0  0  0  0  0  0  0  0
    5.4770   -0.7970    1.0110 C   0  0  0  0  0  0  0  0  0  0  0  0
    5.9100   -1.3420    2.2000 C   0  0  0  0  0  0  0  0  0  0  0  0
    5.0300   -1.5820    3.1640 N   0  0  0  0  0  0  0  0  0  0  0  0
    3.7060   -1.3170    3.0430 C   0  0  0  0  0  0  0  0  0  0  0  0
    3.2210   -0.7700    1.8690 C   0  0  0  0  0  0  0  0  0  0  0  0
  1  2  2  0
  2  3  1  0
  2 23  1  0
  3  4  1  0
  4  5  1  0
  5  6  2  0
  5 16  1  0
  6  7  1  0
  7  8  2  3
  7 15  1  0
  8  9  1  0
  8 13  1  0
  9 10  1  0
 10 11  1  0
 11 12  1  0
 12 13  1  0
 13 14  2  0
 15 16  1  0
 15 22  2  0
 16 17  1  0
 17 18  1  0
 18 19  1  6
 18 20  1  0
 18 21  1  0
 21 22  1  0
 23 24  1  0
 24 25  2  0
 24 30  1  0
 25 26  1  0
 26 27  2  0
 27 28  1  0
 27 29  1  0
 29 30  2  0
 30 31  1  0
 32 31  1  6
 32 33  1  0
 32 39  1  0
 34 33  1  1
 34 35  1  0
 34 38  1  0
 35 36  1  0
 36 37  1  0
 37 38  1  0
 39 40  2  0
 39 44  1  0
 40 41  1  0
 41 42  2  0
 42 43  1  0
 43 44  2  0
M  END
