
     RDKit          3D

 39 41  0  0  0  0  0  0  0  0999 V2000
    6.2490   -2.5070    0.1820 C   0  0  0  0  0  0  0  0  0  0  0  0
    5.9270   -1.0300    0.2820 C   0  0  2  0  0  0  0  0  0  0  0  0
    6.8970   -0.3050    1.2100 C   0  0  0  0  0  0  0  0  0  0  0  0
    4.6530   -0.7050    0.5760 O   0  0  0  0  0  0  0  0  0  0  0  0
    3.6610   -0.8200    1.4530 C   0  0  0  0  0  0  0  0  0  0  0  0
    2.5050   -0.1970    1.0890 C   0  0  0  0  0  0  0  0  0  0  0  0
    2.3810    0.5170   -0.1320 C   0  0  0  0  0  0  0  0  0  0  0  0
    3.3750    0.5710   -0.9000 O   0  0  0  0  0  0  0  0  0  0  0  0
    1.1530    1.2080   -0.5700 C   0  0  0  0  0  0  0  0  0  0  0  0
    1.1110    1.8540   -1.7230 C   0  0  0  0  0  0  0  0  0  0  0  0
    0.0760    2.5750   -2.3330 N   0  0  0  0  0  0  0  0  0  0  0  0
   -0.8190    3.5500   -1.9130 C   0  0  0  0  0  0  0  0  0  0  0  0
   -0.6270    4.7260   -2.5560 O   0  0  0  0  0  0  0  0  0  0  0  0
   -1.9140    3.6490   -0.9600 C   0  0  0  0  0  0  0  0  0  0  0  0
   -1.6460    4.3960    0.6680 S   0  0  0  0  0  0  0  0  0  0  0  0
   -3.3360    4.3430    1.1760 C   0  0  0  0  0  0  0  0  0  0  0  0
   -3.9880    3.7780    0.1110 C   0  0  0  0  0  0  0  0  0  0  0  0
   -5.5220    3.8810    0.2410 C   0  0  0  0  0  0  0  0  0  0  0  0
   -6.0360    5.2540    0.0860 C   0  0  0  0  0  0  0  0  0  0  0  0
   -5.6870    6.1700   -1.5390 Br  0  0  0  0  0  0  0  0  0  0  0  0
   -3.2590    3.4060   -1.0000 C   0  0  0  0  0  0  0  0  0  0  0  0
   -3.9190    2.6810   -2.1490 C   0  0  0  0  0  0  0  0  0  0  0  0
   -4.5360    3.6330   -3.0360 F   0  0  0  0  0  0  0  0  0  0  0  0
   -4.1860    1.4370   -2.4250 C   0  0  0  0  0  0  0  0  0  0  0  0
   -4.0330    0.1430   -1.8300 C   0  0  0  0  0  0  0  0  0  0  0  0
   -3.0110   -0.5130   -1.3460 C   0  0  0  0  0  0  0  0  0  0  0  0
   -3.1640   -1.8350   -0.7940 C   0  0  0  0  0  0  0  0  0  0  0  0
   -2.1470   -2.5010   -0.2980 C   0  0  0  0  0  0  0  0  0  0  0  0
   -2.3660   -3.8820    0.2650 C   0  0  0  0  0  0  0  0  0  0  0  0
   -1.5490   -4.8990   -0.4680 C   0  0  0  0  0  0  0  0  0  0  0  0
   -0.0660   -4.6190   -0.3790 C   0  0  0  0  0  0  0  0  0  0  0  0
    0.6180   -5.6000   -1.0740 F   0  0  0  0  0  0  0  0  0  0  0  0
   -1.6200    0.0360   -1.3420 C   0  0  0  0  0  0  0  0  0  0  0  0
   -1.3160    0.7130   -0.1310 N   0  0  0  0  0  0  0  0  0  0  0  0
   -0.0260    1.1220    0.3090 C   0  0  0  0  0  0  0  0  0  0  0  0
    0.1590    1.4440    1.5420 O   0  0  0  0  0  0  0  0  0  0  0  0
    3.5910   -1.5090    2.7570 C   0  0  2  0  0  0  0  0  0  0  0  0
    4.7150   -2.0550    3.5010 C   0  0  0  0  0  0  0  0  0  0  0  0
    3.8230   -3.0160    2.8000 C   0  0  0  0  0  0  0  0  0  0  0  0
  2  1  1  1
  2  3  1  0
  2  4  1  0
  4  5  1  0
  5  6  2  3
 37  5  1  6
  6  7  1  0
  7  8  2  0
  7  9  1  0
  9 10  2  0
  9 35  1  0
 10 11  1  0
 11 12  1  0
 12 13  2  0
 12 14  1  0
 14 15  1  0
 14 21  2  0
 15 16  1  0
 16 17  2  0
 17 18  1  0
 17 21  1  0
 18 19  1  0
 19 20  1  0
 21 22  1  0
 22 23  1  0
 22 24  2  0
 24 25  1  0
 25 26  2  0
 26 27  1  0
 26 33  1  0
 27 28  2  3
 28 29  1  0
 29 30  1  0
 30 31  1  0
 31 32  1  0
 33 34  1  0
 34 35  1  0
 35 36  2  0
 37 38  1  0
 37 39  1  0
 38 39  1  0
M  END
