
     RDKit          3D

 39 41  0  0  0  0  0  0  0  0999 V2000
   -7.6910    2.7250    0.7700 C   0  0  0  0  0  0  0  0  0  0  0  0
   -8.7880    2.5990   -0.2330 C   0  0  0  0  0  0  0  0  0  0  0  0
   -9.2370    1.1700   -0.4840 C   0  0  0  0  0  0  0  0  0  0  0  0
   -8.1020    0.1820   -1.0730 S   0  0  0  0  0  0  0  0  0  0  0  0
   -8.6450   -1.1680   -0.2780 C   0  0  0  0  0  0  0  0  0  0  0  0
   -8.6640   -0.7780   -2.5560 O   0  0  0  0  0  0  0  0  0  0  0  0
   -6.6160   -0.0550   -0.6730 N   0  0  0  0  0  0  0  0  0  0  0  0
   -5.5270    0.7790   -1.1460 C   0  0  0  0  0  0  0  0  0  0  0  0
   -4.2300    0.3750   -0.5940 C   0  0  0  0  0  0  0  0  0  0  0  0
   -4.1390   -0.6790    0.2840 C   0  0  0  0  0  0  0  0  0  0  0  0
   -2.9000   -1.0580    0.8140 C   0  0  0  0  0  0  0  0  0  0  0  0
   -1.7420   -0.3970    0.4780 C   0  0  0  0  0  0  0  0  0  0  0  0
   -0.4540   -0.8100    1.0410 C   0  0  0  0  0  0  0  0  0  0  0  0
    0.6170   -0.2260    0.7590 O   0  0  0  0  0  0  0  0  0  0  0  0
   -0.4100   -1.8820    1.9140 O   0  0  0  0  0  0  0  0  0  0  0  0
    0.7930   -2.3200    2.4800 C   0  0  0  0  0  0  0  0  0  0  0  0
    1.8090   -2.7490    1.4870 C   0  0  0  0  0  0  0  0  0  0  0  0
    1.6950   -3.9200    0.7730 C   0  0  0  0  0  0  0  0  0  0  0  0
    2.6590   -4.2930   -0.1410 C   0  0  0  0  0  0  0  0  0  0  0  0
    3.7570   -3.5200   -0.3720 C   0  0  0  0  0  0  0  0  0  0  0  0
    4.8080   -3.9370   -1.3760 C   0  0  0  0  0  0  0  0  0  0  0  0
    3.9030   -2.3120    0.3450 C   0  0  0  0  0  0  0  0  0  0  0  0
    5.0610   -1.5570    0.0610 N   0  0  0  0  0  0  0  0  0  0  0  0
    5.3890   -0.3440    0.6660 C   0  0  0  0  0  0  0  0  0  0  0  0
    4.6070    0.1870    1.5470 O   0  0  0  0  0  0  0  0  0  0  0  0
    6.5790    0.4610    0.4130 C   0  0  0  0  0  0  0  0  0  0  0  0
    7.7440   -0.0550   -0.0520 C   0  0  0  0  0  0  0  0  0  0  0  0
    8.0420   -1.9280   -0.2810 Br  0  0  0  0  0  0  0  0  0  0  0  0
    8.8240    0.7930   -0.3380 C   0  0  0  0  0  0  0  0  0  0  0  0
    8.7390    2.1520   -0.1580 C   0  0  0  0  0  0  0  0  0  0  0  0
    9.8580    3.0630   -0.4510 C   0  0  0  0  0  0  0  0  0  0  0  0
    7.5380    2.6470    0.3200 C   0  0  0  0  0  0  0  0  0  0  0  0
    7.4000    4.1240    0.5330 C   0  0  0  0  0  0  0  0  0  0  0  0
    6.4730    1.8280    0.6030 C   0  0  0  0  0  0  0  0  0  0  0  0
    5.3320    2.4010    1.0690 F   0  0  0  0  0  0  0  0  0  0  0  0
    2.9360   -1.9500    1.2540 C   0  0  0  0  0  0  0  0  0  0  0  0
   -1.8540    0.6540   -0.4010 C   0  0  0  0  0  0  0  0  0  0  0  0
   -3.0610    1.0410   -0.9310 C   0  0  0  0  0  0  0  0  0  0  0  0
   -3.1640    2.0750   -1.7960 F   0  0  0  0  0  0  0  0  0  0  0  0
  1  2  1  0
  2  3  1  0
  3  4  1  0
  4  5  1  0
  4  6  2  0
  4  7  1  0
  7  8  1  0
  8  9  1  0
  9 10  2  0
  9 38  1  0
 10 11  1  0
 11 12  2  0
 12 13  1  0
 12 37  1  0
 13 14  2  0
 13 15  1  0
 15 16  1  0
 16 17  1  0
 17 18  2  0
 17 36  1  0
 18 19  1  0
 19 20  2  0
 20 21  1  0
 20 22  1  0
 22 23  1  0
 22 36  2  0
 23 24  1  0
 24 25  2  0
 24 26  1  0
 26 27  2  0
 26 34  1  0
 27 28  1  0
 27 29  1  0
 29 30  2  0
 30 31  1  0
 30 32  1  0
 32 33  1  0
 32 34  2  0
 34 35  1  0
 37 38  2  0
 38 39  1  0
M  END
