
     RDKit          3D

 39 41  0  0  0  0  0  0  0  0999 V2000
   -2.6130   -2.2070   -3.0630 C   0  0  0  0  0  0  0  0  0  0  0  0
   -1.6790   -1.4150   -3.5560 C   0  0  0  0  0  0  0  0  0  0  0  0
   -0.9640   -0.4240   -2.7060 C   0  0  0  0  0  0  0  0  0  0  0  0
   -1.5230   -0.4970   -1.3460 C   0  0  0  0  0  0  0  0  0  0  0  0
   -0.7920   -1.1540   -0.3940 C   0  0  0  0  0  0  0  0  0  0  0  0
   -1.1740   -1.3190    0.9020 C   0  0  0  0  0  0  0  0  0  0  0  0
   -0.4060   -1.9120    1.9480 C   0  0  0  0  0  0  0  0  0  0  0  0
    0.7990   -2.1060    2.2290 C   0  0  0  0  0  0  0  0  0  0  0  0
    2.0950   -1.8520    1.7060 C   0  0  0  0  0  0  0  0  0  0  0  0
    3.1170   -2.3810    2.3700 O   0  0  0  0  0  0  0  0  0  0  0  0
    2.5040   -1.1200    0.5990 N   0  0  0  0  0  0  0  0  0  0  0  0
    3.9190   -0.9920    0.2370 C   0  0  0  0  0  0  0  0  0  0  0  0
    4.6670   -0.2910    1.3170 C   0  0  0  0  0  0  0  0  0  0  0  0
    6.0480   -0.1560    0.9790 O   0  0  0  0  0  0  0  0  0  0  0  0
    6.5010    0.5470   -0.1210 C   0  0  0  0  0  0  0  0  0  0  0  0
    5.6870    1.1060   -0.8790 O   0  0  0  0  0  0  0  0  0  0  0  0
    7.9410    0.6450   -0.4140 C   0  0  0  0  0  0  0  0  0  0  0  0
    8.8680    0.0460    0.3940 C   0  0  0  0  0  0  0  0  0  0  0  0
   10.1990    0.1430    0.1140 C   0  0  0  0  0  0  0  0  0  0  0  0
   10.6270    0.8470   -0.9890 C   0  0  0  0  0  0  0  0  0  0  0  0
    9.7030    1.4510   -1.8050 C   0  0  0  0  0  0  0  0  0  0  0  0
    8.3770    1.3420   -1.5080 C   0  0  0  0  0  0  0  0  0  0  0  0
   -2.4190   -0.7520    1.2090 C   0  0  0  0  0  0  0  0  0  0  0  0
   -3.2260   -0.0680    0.2930 C   0  0  0  0  0  0  0  0  0  0  0  0
   -4.5190    0.3970    0.7600 C   0  0  0  0  0  0  0  0  0  0  0  0
   -4.6680    0.6470    2.0200 O   0  0  0  0  0  0  0  0  0  0  0  0
   -5.6430    0.5980   -0.0190 N   0  0  0  0  0  0  0  0  0  0  0  0
   -6.9060    1.0720    0.5290 C   0  0  0  0  0  0  0  0  0  0  0  0
   -7.9560    0.2430    0.4500 C   0  0  0  0  0  0  0  0  0  0  0  0
   -9.2760    0.5220    0.9360 C   0  0  0  0  0  0  0  0  0  0  0  0
  -10.6750   -0.7960    0.7200 Br  0  0  0  0  0  0  0  0  0  0  0  0
   -9.6490    1.6240    1.5350 C   0  0  0  0  0  0  0  0  0  0  0  0
   -8.4960    2.9380    1.8200 S   0  0  0  0  0  0  0  0  0  0  0  0
   -6.9570    2.4070    1.0490 C   0  0  0  0  0  0  0  0  0  0  0  0
   -6.0080    3.2950    0.9910 C   0  0  0  0  0  0  0  0  0  0  0  0
   -4.8140    3.1130    0.4310 F   0  0  0  0  0  0  0  0  0  0  0  0
   -6.1960    4.5510    1.5410 F   0  0  0  0  0  0  0  0  0  0  0  0
   -2.7500    0.0450   -0.9750 C   0  0  0  0  0  0  0  0  0  0  0  0
   -3.4740    0.7930   -2.0110 C   0  0  0  0  0  0  0  0  0  0  0  0
  1  2  2  0
  2  3  1  0
  3  4  1  0
  4  5  2  0
  4 38  1  0
  5  6  1  0
  6  7  1  0
  6 23  2  0
  7  8  2  3
  8  9  1  0
  9 10  2  0
  9 11  1  0
 11 12  1  0
 12 13  1  0
 13 14  1  0
 14 15  1  0
 15 16  2  0
 15 17  1  0
 17 18  2  0
 17 22  1  0
 18 19  1  0
 19 20  2  0
 20 21  1  0
 21 22  2  0
 23 24  1  0
 24 25  1  0
 24 38  2  0
 25 26  2  0
 25 27  1  0
 27 28  1  0
 28 29  2  0
 28 34  1  0
 29 30  1  0
 30 31  1  0
 30 32  2  0
 32 33  1  0
 33 34  1  0
 34 35  2  3
 35 36  1  0
 35 37  1  0
 38 39  1  0
M  END
