
     RDKit          3D

 38 40  0  0  0  0  0  0  0  0999 V2000
    4.4430   -1.7090    2.7990 C   0  0  0  0  0  0  0  0  0  0  0  0
    4.7270   -1.4660    1.4490 O   0  0  0  0  0  0  0  0  0  0  0  0
    3.6540   -1.5130    0.5350 C   0  0  0  0  0  0  0  0  0  0  0  0
    2.4980   -1.7670    0.9640 O   0  0  0  0  0  0  0  0  0  0  0  0
    3.8510   -1.2790   -0.8830 C   0  0  0  0  0  0  0  0  0  0  0  0
    2.9010   -1.3340   -1.7800 C   0  0  0  0  0  0  0  0  0  0  0  0
    1.5040   -1.6280   -1.5720 C   0  0  0  0  0  0  0  0  0  0  0  0
    0.6450   -1.6470   -2.6010 C   0  0  0  0  0  0  0  0  0  0  0  0
    1.1510   -1.3730   -3.8810 O   0  0  0  0  0  0  0  0  0  0  0  0
   -0.7630   -1.9320   -2.4710 C   0  0  0  0  0  0  0  0  0  0  0  0
   -1.4810   -1.9230   -3.5070 O   0  0  0  0  0  0  0  0  0  0  0  0
   -1.4380   -2.2300   -1.2590 N   0  0  0  0  0  0  0  0  0  0  0  0
   -2.7870   -2.4980   -1.1750 N   0  0  0  0  0  0  0  0  0  0  0  0
   -3.6810   -1.6630   -0.7850 C   0  0  0  0  0  0  0  0  0  0  0  0
   -5.1120   -1.9090   -0.6830 C   0  0  0  0  0  0  0  0  0  0  0  0
   -5.8330   -3.0430   -0.9720 C   0  0  0  0  0  0  0  0  0  0  0  0
   -7.1910   -3.0720   -0.8270 C   0  0  0  0  0  0  0  0  0  0  0  0
   -7.8520   -1.9500   -0.3910 C   0  0  0  0  0  0  0  0  0  0  0  0
   -7.1530   -0.7690   -0.0870 C   0  0  0  0  0  0  0  0  0  0  0  0
   -7.9960    0.4210    0.1570 C   0  0  0  0  0  0  0  0  0  0  0  0
   -5.7880   -0.7740   -0.2280 C   0  0  0  0  0  0  0  0  0  0  0  0
   -4.7690    0.2650   -0.0060 C   0  0  0  0  0  0  0  0  0  0  0  0
   -4.8360    1.5440    0.4630 C   0  0  0  0  0  0  0  0  0  0  0  0
   -5.9960    2.1930    1.0790 C   0  0  0  0  0  0  0  0  0  0  0  0
   -3.6500    2.2900    0.5680 C   0  0  0  0  0  0  0  0  0  0  0  0
   -2.4190    1.7820    0.2250 C   0  0  0  0  0  0  0  0  0  0  0  0
   -1.1790    2.5900    0.3360 C   0  0  0  0  0  0  0  0  0  0  0  0
   -2.3980    0.4990   -0.2250 C   0  0  0  0  0  0  0  0  0  0  0  0
   -3.5180   -0.2880   -0.3530 C   0  0  0  0  0  0  0  0  0  0  0  0
    5.4900   -0.8390   -1.4810 S   0  0  0  0  0  0  0  0  0  0  0  0
    6.6330   -0.3400   -0.2110 C   0  0  0  0  0  0  0  0  0  0  0  0
    6.2890    1.0290    0.3940 C   0  0  2  0  0  0  0  0  0  0  0  0
    6.3410    2.0480   -0.7360 C   0  0  0  0  0  0  0  0  0  0  0  0
    7.4080    1.3470    1.3570 C   0  0  0  0  0  0  0  0  0  0  0  0
    7.1820    2.6970    2.0310 C   0  0  1  0  0  0  0  0  0  0  0  0
    7.1270    3.6890    1.0870 F   0  0  0  0  0  0  0  0  0  0  0  0
    6.0330    2.6650    2.7780 F   0  0  0  0  0  0  0  0  0  0  0  0
    8.6520    3.0320    3.2470 Br  0  0  0  0  0  0  0  0  0  0  0  0
  1  2  1  0
  2  3  1  0
  3  4  2  0
  3  5  1  0
  5  6  2  3
  5 30  1  0
  6  7  1  0
  7  8  2  3
  8  9  1  0
  8 10  1  0
 10 11  2  0
 10 12  1  0
 12 13  1  0
 13 14  2  3
 14 15  1  0
 14 29  1  0
 15 16  2  0
 15 21  1  0
 16 17  1  0
 17 18  2  0
 18 19  1  0
 19 20  1  0
 19 21  2  0
 21 22  1  0
 22 23  2  0
 22 29  1  0
 23 24  1  0
 23 25  1  0
 25 26  2  0
 26 27  1  0
 26 28  1  0
 28 29  2  0
 30 31  1  0
 31 32  1  0
 32 33  1  6
 32 34  1  0
 34 35  1  0
 35 36  1  6
 35 37  1  0
 35 38  1  0
M  END
