
     RDKit          3D

 39 41  0  0  0  0  0  0  0  0999 V2000
    9.8570    1.7910    1.0960 C   0  0  0  0  0  0  0  0  0  0  0  0
    9.3790    0.5670    1.2500 C   0  0  0  0  0  0  0  0  0  0  0  0
    7.9940    0.2230    0.9940 C   0  0  0  0  0  0  0  0  0  0  0  0
    7.0780    1.2790    0.5400 C   0  0  0  0  0  0  0  0  0  0  0  0
    5.7060    0.8040    0.3090 C   0  0  0  0  0  0  0  0  0  0  0  0
    5.3840    0.3310   -0.9620 C   0  0  0  0  0  0  0  0  0  0  0  0
    4.0840   -0.1200   -1.1860 C   0  0  0  0  0  0  0  0  0  0  0  0
    3.1170   -0.1160   -0.2200 C   0  0  0  0  0  0  0  0  0  0  0  0
    1.7690   -0.5920   -0.4930 C   0  0  0  0  0  0  0  0  0  0  0  0
    1.0880   -0.3780   -1.6220 C   0  0  0  0  0  0  0  0  0  0  0  0
    1.7110    0.5430   -3.0250 S   0  0  0  0  0  0  0  0  0  0  0  0
    0.4330    0.5490   -4.3080 C   0  0  0  0  0  0  0  0  0  0  0  0
   -0.2330   -1.0190   -1.5130 C   0  0  0  0  0  0  0  0  0  0  0  0
   -1.0760   -0.9750   -2.4400 O   0  0  0  0  0  0  0  0  0  0  0  0
   -0.3500   -1.6490   -0.2500 N   0  0  0  0  0  0  0  0  0  0  0  0
   -1.4610   -2.3580    0.2730 C   0  0  0  0  0  0  0  0  0  0  0  0
   -1.3290   -3.8400    0.5030 C   0  0  0  0  0  0  0  0  0  0  0  0
   -2.5830   -1.7510    0.5520 C   0  0  0  0  0  0  0  0  0  0  0  0
   -2.9020   -0.3530    0.4100 C   0  0  0  0  0  0  0  0  0  0  0  0
   -2.0260    0.4420   -0.0160 O   0  0  0  0  0  0  0  0  0  0  0  0
   -4.2460    0.1240    0.7630 C   0  0  0  0  0  0  0  0  0  0  0  0
   -4.4450    0.5340    2.0630 C   0  0  0  0  0  0  0  0  0  0  0  0
   -3.3490    0.5030    3.0660 C   0  0  0  0  0  0  0  0  0  0  0  0
   -5.6830    0.9810    2.4300 N   0  0  0  0  0  0  0  0  0  0  0  0
   -6.6760    1.0070    1.5110 C   0  0  0  0  0  0  0  0  0  0  0  0
   -7.8280    1.4220    1.8500 O   0  0  0  0  0  0  0  0  0  0  0  0
   -6.4780    0.5990    0.2200 C   0  0  0  0  0  0  0  0  0  0  0  0
   -7.6060    0.6480   -0.7490 C   0  0  0  0  0  0  0  0  0  0  0  0
   -7.8480    2.0700   -1.1950 C   0  0  0  0  0  0  0  0  0  0  0  0
   -9.3250    2.0750   -2.4560 Br  0  0  0  0  0  0  0  0  0  0  0  0
   -5.2340    0.1390   -0.1910 C   0  0  0  0  0  0  0  0  0  0  0  0
   -4.9580   -0.3110   -1.5550 C   0  0  0  0  0  0  0  0  0  0  0  0
    0.9050   -1.3860    0.3970 C   0  0  0  0  0  0  0  0  0  0  0  0
    1.2130   -1.7740    1.5420 O   0  0  0  0  0  0  0  0  0  0  0  0
    3.4590    0.3620    1.0470 C   0  0  0  0  0  0  0  0  0  0  0  0
    4.7480    0.8190    1.3040 C   0  0  0  0  0  0  0  0  0  0  0  0
    7.6160   -1.0280    1.1780 C   0  0  0  0  0  0  0  0  0  0  0  0
    6.3150   -1.3640    0.9400 F   0  0  0  0  0  0  0  0  0  0  0  0
    8.5110   -1.9770    1.6000 F   0  0  0  0  0  0  0  0  0  0  0  0
  1  2  2  0
  2  3  1  0
  3  4  1  0
  3 37  2  3
  4  5  1  0
  5  6  2  0
  5 36  1  0
  6  7  1  0
  7  8  2  0
  8  9  1  0
  8 35  1  0
  9 10  2  0
  9 33  1  0
 10 11  1  0
 10 13  1  0
 11 12  1  0
 13 14  2  0
 13 15  1  0
 15 16  1  0
 15 33  1  0
 16 17  1  0
 16 18  2  3
 18 19  1  0
 19 20  2  0
 19 21  1  0
 21 22  2  0
 21 31  1  0
 22 23  1  0
 22 24  1  0
 24 25  1  0
 25 26  2  0
 25 27  1  0
 27 28  1  0
 27 31  2  0
 28 29  1  0
 29 30  1  0
 31 32  1  0
 33 34  2  0
 35 36  2  0
 37 38  1  0
 37 39  1  0
M  END
