
     RDKit          3D

 39 41  0  0  0  0  0  0  0  0999 V2000
    4.9730    2.0040    2.6300 C   0  0  0  0  0  0  0  0  0  0  0  0
    5.3670    1.4550    1.2850 C   0  0  0  0  0  0  0  0  0  0  0  0
    5.0650   -0.0120    1.1780 C   0  0  1  0  0  0  0  0  0  0  0  0
    3.6200   -0.2470    1.3660 N   0  0  0  0  0  0  0  0  0  0  0  0
    3.1540   -1.1690    2.3160 C   0  0  0  0  0  0  0  0  0  0  0  0
    4.1170   -1.7640    2.9610 O   0  0  0  0  0  0  0  0  0  0  0  0
    1.7980   -1.5010    2.6340 C   0  0  0  0  0  0  0  0  0  0  0  0
    1.6850   -2.5230    3.6040 F   0  0  0  0  0  0  0  0  0  0  0  0
    0.6610   -1.0620    2.2200 C   0  0  0  0  0  0  0  0  0  0  0  0
    0.3230   -0.0300    1.2560 C   0  0  0  0  0  0  0  0  0  0  0  0
   -0.4730   -0.3140    0.1350 C   0  0  0  0  0  0  0  0  0  0  0  0
   -0.8560    0.6870   -0.7230 C   0  0  0  0  0  0  0  0  0  0  0  0
   -1.6840    0.5100   -1.9340 C   0  0  0  0  0  0  0  0  0  0  0  0
   -2.2050   -1.1590   -2.2630 S   0  0  0  0  0  0  0  0  0  0  0  0
   -3.3410   -1.8360   -1.0910 C   0  0  0  0  0  0  0  0  0  0  0  0
   -3.7470   -1.1890   -0.0180 C   0  0  0  0  0  0  0  0  0  0  0  0
   -4.6820   -1.7670    0.9310 C   0  0  0  0  0  0  0  0  0  0  0  0
   -5.0920   -1.0860    2.0070 C   0  0  0  0  0  0  0  0  0  0  0  0
   -4.4210    0.6690    2.2770 Br  0  0  0  0  0  0  0  0  0  0  0  0
   -5.2140   -3.1270    0.7340 C   0  0  0  0  0  0  0  0  0  0  0  0
   -4.6960   -3.7490   -0.4910 C   0  0  0  0  0  0  0  0  0  0  0  0
   -3.8480   -3.1790   -1.3280 C   0  0  0  0  0  0  0  0  0  0  0  0
   -3.4120   -3.9210   -2.5300 C   0  0  0  0  0  0  0  0  0  0  0  0
   -3.9300   -5.2790   -2.7850 C   0  0  0  0  0  0  0  0  0  0  0  0
   -2.6040   -3.3820   -3.3240 O   0  0  0  0  0  0  0  0  0  0  0  0
   -0.4170    1.9730   -0.4220 C   0  0  0  0  0  0  0  0  0  0  0  0
   -0.7970    3.0580   -1.2920 C   0  0  0  0  0  0  0  0  0  0  0  0
   -0.1460    3.2850   -2.4790 C   0  0  0  0  0  0  0  0  0  0  0  0
   -0.5540    4.3340   -3.2650 C   0  0  0  0  0  0  0  0  0  0  0  0
   -1.5950    5.1430   -2.8730 C   0  0  0  0  0  0  0  0  0  0  0  0
   -2.0090    6.1950   -3.6560 F   0  0  0  0  0  0  0  0  0  0  0  0
   -2.2370    4.8970   -1.6740 C   0  0  0  0  0  0  0  0  0  0  0  0
   -1.8570    3.8680   -0.8740 C   0  0  0  0  0  0  0  0  0  0  0  0
    0.3630    2.2170    0.6850 C   0  0  0  0  0  0  0  0  0  0  0  0
    0.7780    3.3890    0.9820 O   0  0  0  0  0  0  0  0  0  0  0  0
    0.7270    1.2280    1.5120 N   0  0  0  0  0  0  0  0  0  0  0  0
    5.3980   -0.5190   -0.1910 C   0  0  0  0  0  0  0  0  0  0  0  0
    6.8030   -0.4260   -0.6450 C   0  0  0  0  0  0  0  0  0  0  0  0
    4.5780   -0.9930   -0.9270 O   0  0  0  0  0  0  0  0  0  0  0  0
  1  2  1  0
  3  2  1  6
  3  4  1  0
  3 37  1  0
  4  5  1  0
  5  6  2  0
  5  7  1  0
  7  8  1  0
  7  9  2  3
  9 10  1  0
 10 11  2  0
 10 36  1  0
 11 12  1  0
 12 13  1  0
 12 26  2  0
 13 14  1  0
 14 15  1  0
 15 16  2  0
 15 22  1  0
 16 17  1  0
 17 18  2  3
 17 20  1  0
 18 19  1  0
 20 21  1  0
 21 22  2  0
 22 23  1  0
 23 24  1  0
 23 25  2  0
 26 27  1  0
 26 34  1  0
 27 28  2  0
 27 33  1  0
 28 29  1  0
 29 30  2  0
 30 31  1  0
 30 32  1  0
 32 33  2  0
 34 35  2  0
 34 36  1  0
 37 38  1  0
 37 39  2  0
M  END
