
     RDKit          3D

 33 38  0  0  0  0  0  0  0  0999 V2000
   12.8860    1.0570    1.8950 Cl  0  0  0  0  0  0  0  0  0  0  0  0
   11.2860    0.7740    1.2250 C   0  0  0  0  0  0  0  0  0  0  0  0
   10.1810    0.7190    2.0380 C   0  0  0  0  0  0  0  0  0  0  0  0
    8.9140    0.4930    1.4980 C   0  0  0  0  0  0  0  0  0  0  0  0
    8.7490    0.3220    0.1470 C   0  0  0  0  0  0  0  0  0  0  0  0
    7.4710    0.0830   -0.5050 C   0  0  0  0  0  0  0  0  0  0  0  0
    7.3850   -0.0800   -1.8710 C   0  0  0  0  0  0  0  0  0  0  0  0
    6.1830   -0.3070   -2.4970 C   0  0  0  0  0  0  0  0  0  0  0  0
    5.0160   -0.3770   -1.7520 C   0  0  0  0  0  0  0  0  0  0  0  0
    3.7310   -0.5810   -2.0740 N   0  0  0  0  0  0  0  0  0  0  0  0
    2.9930   -0.5540   -0.9570 C   0  0  0  0  0  0  0  0  0  0  0  0
    1.5250   -0.7330   -0.8360 C   0  0  2  0  0  0  0  0  0  0  0  0
    0.9600    0.5250   -0.2440 C   0  0  0  0  0  0  0  0  0  0  0  0
   -0.3700    0.3280    0.4270 C   0  0  0  0  0  0  0  0  0  0  0  0
   -0.9130   -0.9510    0.0460 N   0  0  2  0  0  0  0  0  0  0  0  0
   -2.2360   -1.1890    0.5080 C   0  0  0  0  0  0  0  0  0  0  0  0
   -3.1410   -0.0000    0.4990 C   0  0  1  0  0  0  0  0  0  0  0  0
   -3.3560    0.6200   -0.8280 C   0  0  0  0  0  0  0  0  0  0  0  0
   -4.8370    0.5020   -1.1260 C   0  0  0  0  0  0  0  0  0  0  0  0
   -5.4430    0.3950    0.2030 N   0  0  1  0  0  0  0  0  0  0  0  0
   -6.7630   -0.2030    0.1160 C   0  0  1  0  0  0  0  0  0  0  0  0
   -7.4960    0.0650    1.4100 C   0  0  0  0  0  0  0  0  0  0  0  0
   -8.2150    1.3880    1.2160 C   0  0  0  0  0  0  0  0  0  0  0  0
   -7.8550    1.8610   -0.1670 C   0  0  0  0  0  0  0  0  0  0  0  0
   -7.6130    0.5400   -0.8930 C   0  0  0  0  0  0  0  0  0  0  0  0
   -4.5410   -0.5100    0.8660 C   0  0  0  0  0  0  0  0  0  0  0  0
   -0.0600   -1.9570    0.6740 C   0  0  0  0  0  0  0  0  0  0  0  0
    1.2830   -1.9540    0.0030 C   0  0  0  0  0  0  0  0  0  0  0  0
    3.8220   -0.3310    0.0770 N   0  0  0  0  0  0  0  0  0  0  0  0
    5.0780   -0.2170   -0.3850 C   0  0  0  0  0  0  0  0  0  0  0  0
    6.3170    0.0130    0.2340 C   0  0  0  0  0  0  0  0  0  0  0  0
    9.8850    0.3870   -0.6080 N   0  0  0  0  0  0  0  0  0  0  0  0
   11.0790    0.6010   -0.0920 N   0  0  0  0  0  0  0  0  0  0  0  0
  1  2  1  0
  2  3  2  0
  2 33  1  0
  3  4  1  0
  4  5  2  0
  5  6  1  0
  5 32  1  0
  6  7  2  0
  6 31  1  0
  7  8  1  0
  8  9  2  0
  9 10  1  0
  9 30  1  0
 10 11  2  0
 12 11  1  1
 11 29  1  0
 12 13  1  0
 12 28  1  0
 13 14  1  0
 14 15  1  0
 15 16  1  1
 15 27  1  0
 17 16  1  6
 17 18  1  0
 17 26  1  0
 18 19  1  0
 20 19  1  6
 20 21  1  0
 20 26  1  0
 21 22  1  1
 21 25  1  0
 22 23  1  0
 23 24  1  0
 24 25  1  0
 27 28  1  0
 29 30  1  0
 30 31  2  0
 32 33  2  0
M  CHG  2  15   1  20   1
M  END
