
     RDKit          3D

 33 37  0  0  0  0  0  0  0  0999 V2000
    6.4170    1.6820    2.6530 C   0  0  0  0  0  0  0  0  0  0  0  0
    6.3230    1.1460    1.2610 C   0  0  0  0  0  0  0  0  0  0  0  0
    5.2980    0.3610    0.8920 C   0  0  0  0  0  0  0  0  0  0  0  0
    5.1850   -0.1590   -0.4470 C   0  0  0  0  0  0  0  0  0  0  0  0
    4.0690   -0.7730   -0.8550 C   0  0  0  0  0  0  0  0  0  0  0  0
    2.8880   -0.9730   -0.0170 C   0  0  0  0  0  0  0  0  0  0  0  0
    1.7190   -0.2950   -0.5930 N   0  0  2  0  0  0  0  0  0  0  0  0
    1.5790    1.0340   -0.0280 C   0  0  0  0  0  0  0  0  0  0  0  0
    0.6790    1.1100    1.1570 C   0  0  0  0  0  0  0  0  0  0  0  0
   -0.6820    0.5160    0.9110 C   0  0  0  0  0  0  0  0  0  0  0  0
   -0.6570   -0.1210   -0.4770 C   0  0  2  0  0  0  0  0  0  0  0  0
   -1.9090   -0.5990   -0.8940 N   0  0  0  0  0  0  0  0  0  0  0  0
   -1.8850   -1.8270   -1.5790 C   0  0  0  0  0  0  0  0  0  0  0  0
   -3.1920   -2.0830   -2.3550 C   0  0  0  0  0  0  0  0  0  0  0  0
   -4.2880   -2.0730   -1.3260 C   0  0  0  0  0  0  0  0  0  0  0  0
   -5.3890   -2.8870   -1.4730 C   0  0  0  0  0  0  0  0  0  0  0  0
   -6.3660   -2.8570   -0.5080 C   0  0  0  0  0  0  0  0  0  0  0  0
   -6.2390   -2.0270    0.5810 C   0  0  0  0  0  0  0  0  0  0  0  0
   -7.5420   -2.0470    1.7750 Cl  0  0  0  0  0  0  0  0  0  0  0  0
   -5.1400   -1.2040    0.7430 C   0  0  0  0  0  0  0  0  0  0  0  0
   -5.0110   -0.3680    1.8800 N   0  0  0  0  0  0  0  0  0  0  0  0
   -5.5440    0.9370    1.8510 C   0  0  0  0  0  0  0  0  0  0  0  0
   -6.1960    1.6100    0.9090 N   0  0  0  0  0  0  0  0  0  0  0  0
   -6.5140    2.8440    1.3250 C   0  0  0  0  0  0  0  0  0  0  0  0
   -6.0380    2.9610    2.6020 C   0  0  0  0  0  0  0  0  0  0  0  0
   -5.4590    1.8060    2.9020 N   0  0  0  0  0  0  0  0  0  0  0  0
   -4.1450   -1.2400   -0.2490 C   0  0  0  0  0  0  0  0  0  0  0  0
   -3.0050   -0.3300   -0.0330 C   0  0  0  0  0  0  0  0  0  0  0  0
    0.5000   -1.0620   -0.4690 C   0  0  0  0  0  0  0  0  0  0  0  0
    6.3040    0.0060   -1.4140 C   0  0  0  0  0  0  0  0  0  0  0  0
    7.3470    0.8940   -0.8880 C   0  0  0  0  0  0  0  0  0  0  0  0
    8.5040    1.2710   -1.8050 C   0  0  0  0  0  0  0  0  0  0  0  0
    7.3110    1.3690    0.3050 N   0  0  0  0  0  0  0  0  0  0  0  0
  1  2  1  0
  2  3  2  0
  2 33  1  0
  3  4  1  0
  4  5  2  3
  4 30  1  0
  5  6  1  0
  7  6  1  1
  7  8  1  0
  7 29  1  0
  8  9  1  0
  9 10  1  0
 10 11  1  0
 11 12  1  1
 11 29  1  0
 12 13  1  0
 12 28  1  0
 13 14  1  0
 14 15  1  0
 15 16  2  0
 15 27  1  0
 16 17  1  0
 17 18  2  0
 18 19  1  0
 18 20  1  0
 20 21  1  0
 20 27  2  0
 21 22  1  0
 22 23  1  0
 22 26  2  0
 23 24  1  0
 24 25  2  0
 25 26  1  0
 27 28  1  0
 30 31  1  0
 31 32  1  0
 31 33  2  0
M  CHG  2   7   1  26   1
M  END
