
     RDKit          3D

 35 38  0  0  0  0  0  0  0  0999 V2000
   -5.2130    1.6260   -1.1920 C   0  0  0  0  0  0  0  0  0  0  0  0
   -4.2950    0.8940   -0.2940 C   0  0  0  0  0  0  0  0  0  0  0  0
   -4.7100   -0.0950    0.6280 C   0  0  0  0  0  0  0  0  0  0  0  0
   -5.8000   -0.6160    1.0940 C   0  0  0  0  0  0  0  0  0  0  0  0
   -5.7260   -1.7040    2.1360 C   0  0  0  0  0  0  0  0  0  0  0  0
   -6.9370   -2.0650    2.4700 C   0  0  0  0  0  0  0  0  0  0  0  0
   -7.8720   -1.2950    1.7230 C   0  0  0  0  0  0  0  0  0  0  0  0
   -7.2090   -0.4440    0.9100 C   0  0  0  0  0  0  0  0  0  0  0  0
   -7.9470    0.4080    0.0860 N   0  0  0  0  0  0  0  0  0  0  0  0
   -8.0670    0.1710   -1.3090 C   0  0  0  0  0  0  0  0  0  0  0  0
   -7.5060   -0.8320   -1.8650 O   0  0  0  0  0  0  0  0  0  0  0  0
   -2.9920    1.1590   -0.4910 C   0  0  0  0  0  0  0  0  0  0  0  0
   -2.3680    2.0790   -1.5080 C   0  0  0  0  0  0  0  0  0  0  0  0
   -1.1490    1.2280   -1.9320 C   0  0  0  0  0  0  0  0  0  0  0  0
   -0.7190    0.7080   -0.5830 C   0  0  0  0  0  0  0  0  0  0  0  0
    0.5620    0.3170   -0.1520 C   0  0  0  0  0  0  0  0  0  0  0  0
    1.5900    0.3330   -1.0760 N   0  0  0  0  0  0  0  0  0  0  0  0
    2.9470   -0.0060   -0.8930 C   0  0  0  0  0  0  0  0  0  0  0  0
    3.2960   -0.3720    0.2380 O   0  0  0  0  0  0  0  0  0  0  0  0
    3.9390    0.0690   -2.0200 C   0  0  0  0  0  0  0  0  0  0  0  0
    5.2320   -0.3400   -1.5080 N   0  0  0  0  0  0  0  0  0  0  0  0
    5.5700   -1.6410   -1.5650 C   0  0  0  0  0  0  0  0  0  0  0  0
    4.5160   -2.7170   -2.2090 S   0  0  0  0  0  0  0  0  0  0  0  0
    6.7590   -2.0750   -1.1040 N   0  0  0  0  0  0  0  0  0  0  0  0
    7.6540   -1.2180   -0.5670 C   0  0  0  0  0  0  0  0  0  0  0  0
    8.9680   -1.6190   -0.0440 C   0  0  0  0  0  0  0  0  0  0  0  0
    7.3060    0.1180   -0.5080 C   0  0  0  0  0  0  0  0  0  0  0  0
    8.2640    1.0880    0.0750 C   0  0  0  0  0  0  0  0  0  0  0  0
    6.0870    0.5540   -0.9830 C   0  0  0  0  0  0  0  0  0  0  0  0
    5.7620    1.7810   -0.9310 O   0  0  0  0  0  0  0  0  0  0  0  0
    0.6470   -0.0420    1.1570 C   0  0  0  0  0  0  0  0  0  0  0  0
   -0.4290   -0.0410    2.0530 C   0  0  0  0  0  0  0  0  0  0  0  0
   -0.2130   -0.4350    3.3900 N   0  0  0  0  0  0  0  0  0  0  0  0
   -1.6610    0.3460    1.5930 C   0  0  0  0  0  0  0  0  0  0  0  0
   -1.8160    0.7200    0.2740 C   0  0  0  0  0  0  0  0  0  0  0  0
  1  2  1  0
  2  3  1  0
  2 12  2  3
  3  4  2  3
  4  5  1  0
  4  8  1  0
  5  6  2  0
  6  7  1  0
  7  8  2  0
  8  9  1  0
  9 10  1  0
 10 11  2  0
 12 13  1  0
 12 35  1  0
 13 14  1  0
 14 15  1  0
 15 16  2  0
 15 35  1  0
 16 17  1  0
 16 31  1  0
 17 18  1  0
 18 19  2  0
 18 20  1  0
 20 21  1  0
 21 22  1  0
 21 29  1  0
 22 23  2  0
 22 24  1  0
 24 25  1  0
 25 26  1  0
 25 27  2  0
 27 28  1  0
 27 29  1  0
 29 30  2  0
 31 32  2  0
 32 33  1  0
 32 34  1  0
 34 35  2  0
M  END
