
     RDKit          3D

 34 38  0  0  0  0  0  0  0  0999 V2000
   -5.6820   -3.7610   -0.6840 C   0  0  0  0  0  0  0  0  0  0  0  0
   -4.8230   -2.5900   -0.3400 C   0  0  0  0  0  0  0  0  0  0  0  0
   -5.3610   -1.3290   -0.4600 C   0  0  0  0  0  0  0  0  0  0  0  0
   -4.5730   -0.2190   -0.1410 C   0  0  0  0  0  0  0  0  0  0  0  0
   -3.2820   -0.4500    0.2830 C   0  0  0  0  0  0  0  0  0  0  0  0
   -2.4630    0.7120    0.6470 C   0  0  0  0  0  0  0  0  0  0  0  0
   -2.8200    1.8800    0.5710 N   0  0  0  0  0  0  0  0  0  0  0  0
   -3.8020    2.7440    0.2460 C   0  0  0  0  0  0  0  0  0  0  0  0
   -3.8900    3.2340   -1.0650 C   0  0  0  0  0  0  0  0  0  0  0  0
   -4.8670    4.1190   -1.4270 C   0  0  0  0  0  0  0  0  0  0  0  0
   -5.7930    4.5610   -0.5310 C   0  0  0  0  0  0  0  0  0  0  0  0
   -5.7550    4.1170    0.7560 C   0  0  0  0  0  0  0  0  0  0  0  0
   -6.9650    4.7030    1.8970 Cl  0  0  0  0  0  0  0  0  0  0  0  0
   -4.7790    3.2290    1.1310 C   0  0  0  0  0  0  0  0  0  0  0  0
   -4.7080    2.7660    2.4010 F   0  0  0  0  0  0  0  0  0  0  0  0
   -2.7990   -1.7330    0.3840 C   0  0  0  0  0  0  0  0  0  0  0  0
   -1.3990   -1.9670    0.8120 C   0  0  0  0  0  0  0  0  0  0  0  0
   -0.3890   -1.7520   -0.2950 C   0  0  0  0  0  0  0  0  0  0  0  0
    0.9600   -1.9970    0.1310 N   0  0  0  0  0  0  0  0  0  0  0  0
    1.8560   -0.8780    0.2780 C   0  0  0  0  0  0  0  0  0  0  0  0
    2.9030   -0.8220   -0.4750 N   0  0  0  0  0  0  0  0  0  0  0  0
    3.8070    0.2460   -0.3720 C   0  0  0  0  0  0  0  0  0  0  0  0
    3.6430    1.2330    0.4790 C   0  0  0  0  0  0  0  0  0  0  0  0
    2.4980    1.2880    1.3860 C   0  0  0  0  0  0  0  0  0  0  0  0
    1.6400    0.1570    1.2250 N   0  0  0  0  0  0  0  0  0  0  0  0
    4.7090    2.2950    0.4550 C   0  0  0  0  0  0  0  0  0  0  0  0
    5.9770    1.6490    0.6120 N   0  0  2  0  0  0  0  0  0  0  0  0
    7.0170    2.6710    0.4480 C   0  0  0  0  0  0  0  0  0  0  0  0
    6.2310    0.6190   -0.3620 C   0  0  0  0  0  0  0  0  0  0  0  0
    5.0330    0.3260   -1.2350 C   0  0  0  0  0  0  0  0  0  0  0  0
    1.4940   -3.3030    0.4210 C   0  0  2  0  0  0  0  0  0  0  0  0
    1.7940   -4.2810   -0.6560 C   0  0  0  0  0  0  0  0  0  0  0  0
    0.6560   -4.5340    0.2930 C   0  0  0  0  0  0  0  0  0  0  0  0
   -3.5680   -2.7890    0.0740 N   0  0  0  0  0  0  0  0  0  0  0  0
  1  2  1  0
  2  3  2  0
  2 34  1  0
  3  4  1  0
  4  5  2  0
  5  6  1  0
  5 16  1  0
  6  7  2  3
  7  8  1  0
  8  9  2  0
  8 14  1  0
  9 10  1  0
 10 11  2  0
 11 12  1  0
 12 13  1  0
 12 14  2  0
 14 15  1  0
 16 17  1  0
 16 34  2  0
 17 18  1  0
 18 19  1  0
 19 20  1  0
 31 19  1  6
 20 21  2  0
 20 25  1  0
 21 22  1  0
 22 23  2  0
 22 30  1  0
 23 24  1  0
 23 26  1  0
 24 25  1  0
 26 27  1  0
 27 28  1  6
 27 29  1  0
 29 30  1  0
 31 32  1  0
 31 33  1  0
 32 33  1  0
M  CHG  2  21   1  27   1
M  END
