
     RDKit          3D

 35 39  0  0  0  0  0  0  0  0999 V2000
    9.1350   -2.5110    1.2860 C   0  0  0  0  0  0  0  0  0  0  0  0
    8.4510   -1.2120    1.4950 C   0  0  0  0  0  0  0  0  0  0  0  0
    9.1930   -0.1670    2.0430 C   0  0  0  0  0  0  0  0  0  0  0  0
    8.5960    1.0600    2.2530 C   0  0  0  0  0  0  0  0  0  0  0  0
    7.2740    1.2150    1.9110 C   0  0  0  0  0  0  0  0  0  0  0  0
    6.5400    0.1770    1.3680 C   0  0  0  0  0  0  0  0  0  0  0  0
    5.1690    0.3550    1.0080 N   0  0  0  0  0  0  0  0  0  0  0  0
    4.4330   -0.7560    0.4600 C   0  0  0  0  0  0  0  0  0  0  0  0
    3.0500   -0.3710    0.0800 C   0  0  0  0  0  0  0  0  0  0  0  0
    2.7290   -0.1200   -1.2320 C   0  0  0  0  0  0  0  0  0  0  0  0
    1.4500    0.2480   -1.6130 C   0  0  0  0  0  0  0  0  0  0  0  0
    0.4420    0.3730   -0.6650 C   0  0  0  0  0  0  0  0  0  0  0  0
   -0.8890    0.7120   -0.7120 C   0  0  0  0  0  0  0  0  0  0  0  0
   -1.7450    1.1150   -2.1570 S   0  0  1  0  0  0  0  0  0  0  0  0
   -1.0720    2.2190   -2.8780 O   0  0  0  0  0  0  0  0  0  0  0  0
   -1.7000   -0.1030   -3.0600 O   0  0  0  0  0  0  0  0  0  0  0  0
   -3.4070    1.5010   -1.8750 N   0  0  0  0  0  0  0  0  0  0  0  0
   -4.3080    0.5670   -1.3290 C   0  0  0  0  0  0  0  0  0  0  0  0
   -3.8570   -0.7430   -1.0530 C   0  0  0  0  0  0  0  0  0  0  0  0
   -4.6910   -1.7030   -0.5280 C   0  0  0  0  0  0  0  0  0  0  0  0
   -4.2680   -3.0800   -0.2220 C   0  0  0  0  0  0  0  0  0  0  0  0
   -5.9970   -1.3460   -0.2740 C   0  0  0  0  0  0  0  0  0  0  0  0
   -6.9280   -2.3370    0.2830 C   0  0  0  0  0  0  0  0  0  0  0  0
   -6.4460   -0.0800   -0.5370 C   0  0  0  0  0  0  0  0  0  0  0  0
   -5.6090    0.9130   -1.0730 C   0  0  0  0  0  0  0  0  0  0  0  0
   -6.1730    2.2370   -1.3170 C   0  0  0  0  0  0  0  0  0  0  0  0
   -7.4720    2.5940   -1.0660 N   0  0  0  0  0  0  0  0  0  0  0  0
   -7.6740    3.8730   -1.3970 C   0  0  0  0  0  0  0  0  0  0  0  0
   -6.4550    4.3210   -1.8680 C   0  0  0  0  0  0  0  0  0  0  0  0
   -5.6390    3.3030   -1.7860 O   0  0  0  0  0  0  0  0  0  0  0  0
   -1.3620    0.6620    0.5740 C   0  0  0  0  0  0  0  0  0  0  0  0
   -0.3360    0.3020    1.3630 N   0  0  0  0  0  0  0  0  0  0  0  0
    0.7710    0.1200    0.6430 C   0  0  0  0  0  0  0  0  0  0  0  0
    2.0640   -0.2520    1.0330 C   0  0  0  0  0  0  0  0  0  0  0  0
    7.1700   -0.9910    1.1870 N   0  0  0  0  0  0  0  0  0  0  0  0
  1  2  1  0
  2  3  2  0
  2 35  1  0
  3  4  1  0
  4  5  2  0
  5  6  1  0
  6  7  1  0
  6 35  2  0
  7  8  1  0
  8  9  1  0
  9 10  2  0
  9 34  1  0
 10 11  1  0
 11 12  2  0
 12 13  1  0
 12 33  1  0
 13 14  1  0
 13 31  2  0
 14 15  2  0
 14 16  2  0
 14 17  1  1
 17 18  1  0
 18 19  2  0
 18 25  1  0
 19 20  1  0
 20 21  1  0
 20 22  2  0
 22 23  1  0
 22 24  1  0
 24 25  2  0
 25 26  1  0
 26 27  2  0
 26 30  1  0
 27 28  1  0
 28 29  2  0
 29 30  1  0
 31 32  1  0
 32 33  1  0
 33 34  2  0
M  END
