
     RDKit          3D

 34 38  0  0  0  0  0  0  0  0999 V2000
    1.0200   -4.8360   -0.5130 C   0  0  0  0  0  0  0  0  0  0  0  0
    0.6180   -3.4390   -0.3240 C   0  0  0  0  0  0  0  0  0  0  0  0
    1.5060   -2.4110   -0.1010 C   0  0  0  0  0  0  0  0  0  0  0  0
    0.7600   -1.2700    0.0170 C   0  0  0  0  0  0  0  0  0  0  0  0
   -0.6000   -1.6300   -0.1450 C   0  0  0  0  0  0  0  0  0  0  0  0
   -1.6730   -0.6400   -0.1700 C   0  0  0  0  0  0  0  0  0  0  0  0
   -2.0530    0.0230    1.0980 C   0  0  0  0  0  0  0  0  0  0  0  0
   -3.1310    0.9810    0.9300 N   0  0  0  0  0  0  0  0  0  0  0  0
   -4.4750    0.6420    0.6250 C   0  0  0  0  0  0  0  0  0  0  0  0
   -4.9830   -0.5850    0.4900 N   0  0  0  0  0  0  0  0  0  0  0  0
   -6.2860   -0.5010    0.1890 C   0  0  0  0  0  0  0  0  0  0  0  0
   -6.6050    0.8360    0.1340 C   0  0  0  0  0  0  0  0  0  0  0  0
   -5.5000    1.5200    0.4000 N   0  0  0  0  0  0  0  0  0  0  0  0
   -5.4400    2.9710    0.4360 C   0  0  0  0  0  0  0  0  0  0  0  0
   -6.6420    3.6030   -0.1790 C   0  0  0  0  0  0  0  0  0  0  0  0
   -7.8700    2.8890    0.3660 C   0  0  0  0  0  0  0  0  0  0  0  0
   -7.9300    1.4770   -0.1650 C   0  0  0  0  0  0  0  0  0  0  0  0
   -0.6580   -2.9490   -0.3490 N   0  0  0  0  0  0  0  0  0  0  0  0
   -1.8230   -3.7640   -0.5520 C   0  0  0  0  0  0  0  0  0  0  0  0
   -2.3550   -4.4810    0.6500 C   0  0  1  0  0  0  0  0  0  0  0  0
   -1.3170   -5.3230    1.1000 F   0  0  0  0  0  0  0  0  0  0  0  0
   -2.8350   -3.5050    2.0050 Cl  0  0  0  0  0  0  0  0  0  0  0  0
    1.3920    0.0120    0.3280 C   0  0  0  0  0  0  0  0  0  0  0  0
    2.8120    0.0070    0.1700 N   0  0  0  0  0  0  0  0  0  0  0  0
    3.4290    1.3400    0.1310 C   0  0  0  0  0  0  0  0  0  0  0  0
    4.8670    1.3240   -0.1390 C   0  0  0  0  0  0  0  0  0  0  0  0
    5.7040    1.8130    0.7710 C   0  0  0  0  0  0  0  0  0  0  0  0
    7.1640    1.8750    0.6640 C   0  0  0  0  0  0  0  0  0  0  0  0
    7.5550    1.5690   -0.7760 C   0  0  2  0  0  0  0  0  0  0  0  0
    7.3020    2.7410   -1.6640 C   0  0  0  0  0  0  0  0  0  0  0  0
    6.7950    0.3870   -1.1600 N   0  0  0  0  0  0  0  0  0  0  0  0
    5.4430    0.8100   -1.4130 C   0  0  0  0  0  0  0  0  0  0  0  0
    3.5620   -1.1650    0.0730 C   0  0  0  0  0  0  0  0  0  0  0  0
    2.9760   -2.3380   -0.0620 C   0  0  0  0  0  0  0  0  0  0  0  0
  1  2  1  0
  2  3  2  0
  2 18  1  0
  3  4  1  0
  3 34  1  0
  4  5  2  0
  4 23  1  0
  5  6  1  0
  5 18  1  0
  6  7  1  0
  7  8  1  0
  8  9  1  0
  9 10  2  0
  9 13  1  0
 10 11  1  0
 11 12  2  0
 12 13  1  0
 12 17  1  0
 13 14  1  0
 14 15  1  0
 15 16  1  0
 16 17  1  0
 18 19  1  0
 19 20  1  0
 20 21  1  1
 20 22  1  0
 23 24  1  0
 24 25  1  0
 24 33  1  0
 25 26  1  0
 26 27  2  0
 26 32  1  0
 27 28  1  0
 28 29  1  0
 29 30  1  6
 29 31  1  0
 31 32  1  0
 33 34  2  0
M  CHG  2  10   1  31   1
M  END
