
     RDKit          3D

 34 38  0  0  0  0  0  0  0  0999 V2000
   -6.3790   -2.1860   -1.4090 C   0  0  0  0  0  0  0  0  0  0  0  0
   -5.6940   -1.1020   -0.6900 C   0  0  0  0  0  0  0  0  0  0  0  0
   -4.5530   -1.3890   -0.0210 N   0  0  0  0  0  0  0  0  0  0  0  0
   -3.9390   -0.4370    0.7360 C   0  0  0  0  0  0  0  0  0  0  0  0
   -2.6720   -0.8850    1.3850 C   0  0  0  0  0  0  0  0  0  0  0  0
   -1.8150   -1.1370    0.1780 N   0  0  1  0  0  0  0  0  0  0  0  0
   -1.3330    0.2260   -0.0440 C   0  0  0  0  0  0  0  0  0  0  0  0
   -0.2100    0.3950   -1.0030 C   0  0  0  0  0  0  0  0  0  0  0  0
    0.8480   -0.6490   -0.5610 C   0  0  1  0  0  0  0  0  0  0  0  0
    1.1250   -0.2570    0.8280 N   0  0  0  0  0  0  0  0  0  0  0  0
    2.2110    0.7100    0.8940 C   0  0  0  0  0  0  0  0  0  0  0  0
    2.0730    2.0060    1.2130 C   0  0  0  0  0  0  0  0  0  0  0  0
    3.2390    2.8200    1.1440 C   0  0  0  0  0  0  0  0  0  0  0  0
    4.4600    2.3330    0.7870 C   0  0  0  0  0  0  0  0  0  0  0  0
    5.5000    3.2040    0.7270 F   0  0  0  0  0  0  0  0  0  0  0  0
    4.5790    1.0130    0.4800 C   0  0  0  0  0  0  0  0  0  0  0  0
    5.8270    0.3830    0.0540 C   0  0  0  0  0  0  0  0  0  0  0  0
    5.8650   -0.9000    0.0280 N   0  0  0  0  0  0  0  0  0  0  0  0
    6.9060   -1.7140   -0.3240 N   0  0  0  0  0  0  0  0  0  0  0  0
    6.7910   -3.1410   -0.5410 C   0  0  0  0  0  0  0  0  0  0  0  0
    8.2250   -1.1160   -0.4560 C   0  0  0  0  0  0  0  0  0  0  0  0
    8.2790    0.3570   -0.3980 C   0  0  0  0  0  0  0  0  0  0  0  0
    7.0000    1.1170   -0.4390 C   0  0  0  0  0  0  0  0  0  0  0  0
    3.4190    0.1850    0.5290 C   0  0  0  0  0  0  0  0  0  0  0  0
    0.2670   -1.9860   -0.6930 C   0  0  0  0  0  0  0  0  0  0  0  0
   -0.8920   -2.1470    0.3180 C   0  0  0  0  0  0  0  0  0  0  0  0
   -4.4350    0.7730    0.8350 C   0  0  0  0  0  0  0  0  0  0  0  0
   -3.9000    1.8030    1.7480 C   0  0  0  0  0  0  0  0  0  0  0  0
   -4.9040    1.6690    3.2570 Cl  0  0  0  0  0  0  0  0  0  0  0  0
   -5.6130    1.1560    0.1670 C   0  0  0  0  0  0  0  0  0  0  0  0
   -6.1920    0.1680   -0.5830 C   0  0  0  0  0  0  0  0  0  0  0  0
   -7.3910    0.7340   -1.2720 C   0  0  0  0  0  0  0  0  0  0  0  0
   -7.5200    2.0490   -0.7520 N   0  0  0  0  0  0  0  0  0  0  0  0
   -6.3470    2.4160    0.0010 C   0  0  0  0  0  0  0  0  0  0  0  0
  1  2  1  0
  2  3  2  0
  2 31  1  0
  3  4  1  0
  4  5  1  0
  4 27  2  0
  6  5  1  1
  6  7  1  0
  6 26  1  0
  7  8  1  0
  8  9  1  0
  9 10  1  1
  9 25  1  0
 10 11  1  0
 11 12  2  0
 11 24  1  0
 12 13  1  0
 13 14  2  0
 14 15  1  0
 14 16  1  0
 16 17  1  0
 16 24  2  0
 17 18  2  0
 17 23  1  0
 18 19  1  0
 19 20  1  0
 19 21  1  0
 21 22  1  0
 22 23  1  0
 25 26  1  0
 27 28  1  0
 27 30  1  0
 28 29  1  0
 30 31  2  0
 30 34  1  0
 31 32  1  0
 32 33  1  0
 33 34  1  0
M  CHG  2   6   1  33   1
M  END
