
     RDKit          3D

 32 35  0  0  0  0  0  0  0  0999 V2000
    1.7090    0.0950    2.2580 C   0  0  0  0  0  0  0  0  0  0  0  0
    1.9080    0.2100    0.7970 N   0  0  2  0  0  0  0  0  0  0  0  0
    0.6770   -0.1550    0.1760 C   0  0  0  0  0  0  0  0  0  0  0  0
    0.2330   -1.5300    0.1380 C   0  0  0  0  0  0  0  0  0  0  0  0
    1.0160   -2.6030    0.5380 C   0  0  0  0  0  0  0  0  0  0  0  0
    0.5440   -3.9040    0.3610 C   0  0  0  0  0  0  0  0  0  0  0  0
   -0.6790   -4.1680   -0.2010 C   0  0  0  0  0  0  0  0  0  0  0  0
   -1.4410   -3.0760   -0.5900 C   0  0  0  0  0  0  0  0  0  0  0  0
   -1.0150   -1.7760   -0.4320 C   0  0  0  0  0  0  0  0  0  0  0  0
   -1.9690   -0.7340   -0.7670 C   0  0  0  0  0  0  0  0  0  0  0  0
   -2.4080   -0.5980   -1.9610 O   0  0  0  0  0  0  0  0  0  0  0  0
   -2.4840    0.1870    0.1860 N   0  0  0  0  0  0  0  0  0  0  0  0
   -3.4170    1.2290   -0.1010 C   0  0  0  0  0  0  0  0  0  0  0  0
   -4.7460    0.7300   -0.6310 C   0  0  2  0  0  0  0  0  0  0  0  0
   -5.7070    1.8580   -0.9110 C   0  0  0  0  0  0  0  0  0  0  0  0
   -7.1020    1.3500   -0.5950 C   0  0  0  0  0  0  0  0  0  0  0  0
   -7.1530    1.1150    0.8990 C   0  0  0  0  0  0  0  0  0  0  0  0
   -6.1990    0.0420    1.3150 C   0  0  0  0  0  0  0  0  0  0  0  0
   -5.3220   -0.3840    0.1820 C   0  0  0  0  0  0  0  0  0  0  0  0
    3.1140   -0.3130    0.3450 C   0  0  0  0  0  0  0  0  0  0  0  0
    4.1930    0.6560    0.0340 C   0  0  0  0  0  0  0  0  0  0  0  0
    4.1130    2.0060    0.1810 C   0  0  0  0  0  0  0  0  0  0  0  0
    5.1950    2.8540   -0.1110 C   0  0  0  0  0  0  0  0  0  0  0  0
    6.3490    2.2790   -0.5530 C   0  0  0  0  0  0  0  0  0  0  0  0
    6.4750    0.9050   -0.7180 C   0  0  0  0  0  0  0  0  0  0  0  0
    5.4150    0.1110   -0.4290 C   0  0  0  0  0  0  0  0  0  0  0  0
    5.4960   -1.3450   -0.5840 C   0  0  0  0  0  0  0  0  0  0  0  0
    5.8860   -2.0610    0.3880 O   0  0  0  0  0  0  0  0  0  0  0  0
    5.1660   -2.0140   -1.7540 O   0  0  0  0  0  0  0  0  0  0  0  0
    7.7520    0.6030   -1.1800 O   0  0  0  0  0  0  0  0  0  0  0  0
    8.5380    1.7710   -1.0220 C   0  0  0  0  0  0  0  0  0  0  0  0
    7.5720    2.8210   -0.9170 O   0  0  0  0  0  0  0  0  0  0  0  0
  2  1  1  1
  2  3  1  0
  2 20  1  0
  3  4  1  0
  4  5  2  0
  4  9  1  0
  5  6  1  0
  6  7  2  0
  7  8  1  0
  8  9  2  0
  9 10  1  0
 10 11  2  0
 10 12  1  0
 12 13  1  0
 14 13  1  1
 14 15  1  0
 14 19  1  0
 15 16  1  0
 16 17  1  0
 17 18  1  0
 18 19  1  0
 20 21  1  0
 21 22  2  0
 21 26  1  0
 22 23  1  0
 23 24  2  0
 24 25  1  0
 24 32  1  0
 25 26  2  0
 25 30  1  0
 26 27  1  0
 27 28  2  0
 27 29  1  0
 30 31  1  0
 31 32  1  0
M  CHG  1   2   1
M  END
