
     RDKit          3D

 32 33  0  0  0  0  0  0  0  0999 V2000
    9.9730   -0.2840    1.3370 N   0  0  0  0  0  0  0  0  0  0  0  0
    9.3110    0.7620    0.5510 C   0  0  0  0  0  0  0  0  0  0  0  0
    8.4470    1.5370    1.4860 C   0  0  0  0  0  0  0  0  0  0  0  0
    7.4740    0.6600    2.0870 N   0  0  0  0  0  0  0  0  0  0  0  0
    6.5060   -0.0650    1.3660 C   0  0  0  0  0  0  0  0  0  0  0  0
    6.4550    0.0410    0.1120 O   0  0  0  0  0  0  0  0  0  0  0  0
    5.5610   -0.9260    1.9720 N   0  0  0  0  0  0  0  0  0  0  0  0
    4.5480   -1.6850    1.2860 C   0  0  0  0  0  0  0  0  0  0  0  0
    3.6330   -0.7500    0.5680 C   0  0  0  0  0  0  0  0  0  0  0  0
    2.5310   -1.4730   -0.1790 C   0  0  0  0  0  0  0  0  0  0  0  0
    1.7160   -0.4750   -0.8290 N   0  0  0  0  0  0  0  0  0  0  0  0
    1.8570    0.0940   -2.1490 C   0  0  0  0  0  0  0  0  0  0  0  0
    0.4290    0.3600   -2.5100 C   0  0  0  0  0  0  0  0  0  0  0  0
   -0.1070    0.3270   -3.6410 O   0  0  0  0  0  0  0  0  0  0  0  0
   -0.2410    0.6700   -1.2900 N   0  0  0  0  0  0  0  0  0  0  0  0
   -1.4890    1.3700   -1.0900 C   0  0  0  0  0  0  0  0  0  0  0  0
   -2.6110    0.4110   -1.0900 C   0  0  0  0  0  0  0  0  0  0  0  0
   -2.3730   -0.8140   -1.2510 O   0  0  0  0  0  0  0  0  0  0  0  0
   -3.9620    0.7950   -0.9170 N   0  0  0  0  0  0  0  0  0  0  0  0
   -4.9910   -0.1830   -0.9280 C   0  0  2  0  0  0  0  0  0  0  0  0
   -5.9970    0.0290   -2.0330 C   0  0  0  0  0  0  0  0  0  0  0  0
   -7.1190   -0.9750   -1.9260 C   0  0  2  0  0  0  0  0  0  0  0  0
   -8.3990   -0.3280   -1.7030 N   0  0  0  0  0  0  0  0  0  0  0  0
   -6.9120   -1.9720   -0.8070 C   0  0  0  0  0  0  0  0  0  0  0  0
   -6.7680   -1.2080    0.3960 O   0  0  0  0  0  0  0  0  0  0  0  0
   -5.7670   -0.2330    0.3510 C   0  0  0  0  0  0  0  0  0  0  0  0
   -5.5220    0.5780    1.3500 C   0  0  0  0  0  0  0  0  0  0  0  0
   -6.3180    0.4740    2.5670 C   0  0  0  0  0  0  0  0  0  0  0  0
   -6.0840    1.2800    3.5770 C   0  0  0  0  0  0  0  0  0  0  0  0
   -5.0760    2.2490    3.5110 O   0  0  0  0  0  0  0  0  0  0  0  0
    0.5810    0.1380   -0.2390 C   0  0  0  0  0  0  0  0  0  0  0  0
    0.2840    0.2350    0.9850 O   0  0  0  0  0  0  0  0  0  0  0  0
  1  2  1  0
  2  3  1  0
  3  4  1  0
  4  5  1  0
  5  6  2  0
  5  7  1  0
  7  8  1  0
  8  9  1  0
  9 10  1  0
 10 11  1  0
 11 12  1  0
 11 31  1  0
 12 13  1  0
 13 14  2  0
 13 15  1  0
 15 16  1  0
 15 31  1  0
 16 17  1  0
 17 18  2  0
 17 19  1  0
 20 19  1  1
 20 21  1  0
 20 26  1  0
 21 22  1  0
 22 23  1  1
 22 24  1  0
 24 25  1  0
 25 26  1  0
 26 27  2  3
 27 28  1  0
 28 29  2  3
 29 30  1  0
 31 32  2  0
M  CHG  2   1   1  23   1
M  END
