
     RDKit          3D

 32 34  0  0  0  0  0  0  0  0999 V2000
   -4.9760   -1.6880   -0.1770 C   0  0  0  0  0  0  0  0  0  0  0  0
   -4.9940   -0.2530   -0.5970 C   0  0  1  0  0  0  0  0  0  0  0  0
   -6.2210    0.4550   -0.2060 C   0  0  0  0  0  0  0  0  0  0  0  0
   -7.5170   -0.0070   -0.7450 C   0  0  0  0  0  0  0  0  0  0  0  0
   -7.8750   -1.3400   -0.3610 N   0  0  0  0  0  0  0  0  0  0  0  0
   -3.7930    0.3990    0.1020 C   0  0  0  0  0  0  0  0  0  0  0  0
   -2.9640    1.0130   -0.8960 N   0  0  0  0  0  0  0  0  0  0  0  0
   -1.5670    0.8620   -1.0350 C   0  0  0  0  0  0  0  0  0  0  0  0
   -0.9900    1.4750   -1.9710 O   0  0  0  0  0  0  0  0  0  0  0  0
   -0.7480    0.0590   -0.1880 N   0  0  0  0  0  0  0  0  0  0  0  0
    0.6610   -0.0530   -0.3930 C   0  0  0  0  0  0  0  0  0  0  0  0
    1.2390    0.5510   -1.3240 O   0  0  0  0  0  0  0  0  0  0  0  0
    1.4600   -0.9000    0.5140 C   0  0  1  0  0  0  0  0  0  0  0  0
    2.8100   -0.8630    0.1050 O   0  0  0  0  0  0  0  0  0  0  0  0
    3.5700   -1.9850   -0.1930 C   0  0  0  0  0  0  0  0  0  0  0  0
    3.0150   -3.1070   -0.0900 O   0  0  0  0  0  0  0  0  0  0  0  0
    5.0040   -1.8620   -0.6230 C   0  0  0  0  0  0  0  0  0  0  0  0
    5.4030   -0.5140   -0.6620 O   0  0  0  0  0  0  0  0  0  0  0  0
    6.6980   -0.1980   -1.0420 C   0  0  0  0  0  0  0  0  0  0  0  0
    7.7470   -1.0010   -1.4150 C   0  0  0  0  0  0  0  0  0  0  0  0
    8.8080   -0.2200   -1.6940 N   0  0  0  0  0  0  0  0  0  0  0  0
    8.4860    1.0740   -1.5140 C   0  0  0  0  0  0  0  0  0  0  0  0
    7.1670    1.1040   -1.1060 C   0  0  0  0  0  0  0  0  0  0  0  0
    6.4240    2.2820   -0.8040 N   0  0  0  0  0  0  0  0  0  0  0  0
    1.3800   -0.2310    1.8930 C   0  0  1  0  0  0  0  0  0  0  0  0
    2.3700   -0.8120    2.8530 C   0  0  0  0  0  0  0  0  0  0  0  0
    2.5730    0.2850    3.7820 N   0  0  0  0  0  0  0  0  0  0  0  0
    2.2390    1.4920    3.0670 C   0  0  0  0  0  0  0  0  0  0  0  0
    1.8520    1.1210    1.7290 N   0  0  0  0  0  0  0  0  0  0  0  0
   -3.6680    1.8780   -1.8560 C   0  0  0  0  0  0  0  0  0  0  0  0
   -4.7540    1.0420   -2.4970 C   0  0  0  0  0  0  0  0  0  0  0  0
   -4.7780   -0.2520   -1.9850 O   0  0  0  0  0  0  0  0  0  0  0  0
  2  1  1  1
  2  3  1  0
  2  6  1  0
  2 32  1  0
  3  4  1  0
  4  5  1  0
  6  7  1  0
  7  8  1  0
  7 30  1  0
  8  9  2  0
  8 10  1  0
 10 11  1  0
 11 12  2  0
 11 13  1  0
 13 14  1  6
 13 25  1  0
 14 15  1  0
 15 16  2  0
 15 17  1  0
 17 18  1  0
 18 19  1  0
 19 20  2  0
 19 23  1  0
 20 21  1  0
 21 22  1  0
 22 23  2  0
 23 24  1  0
 25 26  1  1
 25 29  1  0
 26 27  1  0
 27 28  1  0
 28 29  1  0
 30 31  1  0
 31 32  1  0
M  CHG  2   5   1  27   1
M  END
