
     RDKit          3D

 33 36  0  0  0  0  0  0  0  0999 V2000
   -7.3710   -0.1900    2.8920 O   0  0  0  0  0  0  0  0  0  0  0  0
   -6.2480   -0.6350    3.2040 C   0  0  0  0  0  0  0  0  0  0  0  0
   -5.1810   -0.7760    2.2200 C   0  0  0  0  0  0  0  0  0  0  0  0
   -5.4250   -0.4080    0.9220 C   0  0  0  0  0  0  0  0  0  0  0  0
   -4.4640   -0.5160   -0.0520 C   0  0  0  0  0  0  0  0  0  0  0  0
   -3.2160   -1.0130    0.3020 C   0  0  0  0  0  0  0  0  0  0  0  0
   -2.9750   -1.3800    1.6040 C   0  0  0  0  0  0  0  0  0  0  0  0
   -1.7400   -1.8780    1.9830 O   0  0  0  0  0  0  0  0  0  0  0  0
   -1.4650   -2.2570    3.2880 C   0  0  0  0  0  0  0  0  0  0  0  0
   -0.0960   -2.7730    3.5280 C   0  0  0  0  0  0  0  0  0  0  0  0
    1.0050   -1.9370    3.2670 N   0  0  0  0  0  0  0  0  0  0  0  0
    1.3290   -1.4310    1.9740 C   0  0  0  0  0  0  0  0  0  0  0  0
    0.5770   -1.7770    1.0440 O   0  0  0  0  0  0  0  0  0  0  0  0
    2.4260   -0.5920    1.7400 N   0  0  0  0  0  0  0  0  0  0  0  0
    2.7960   -0.0540    0.4930 C   0  0  0  0  0  0  0  0  0  0  0  0
    2.0590   -0.1560   -0.6450 C   0  0  0  0  0  0  0  0  0  0  0  0
    2.4800    0.3920   -1.8670 C   0  0  0  0  0  0  0  0  0  0  0  0
    3.6620    1.0580   -1.9670 C   0  0  0  0  0  0  0  0  0  0  0  0
    4.4310    1.1750   -0.8220 C   0  0  0  0  0  0  0  0  0  0  0  0
    4.0080    0.6340    0.3730 C   0  0  0  0  0  0  0  0  0  0  0  0
    5.7430    1.8660   -0.7260 C   0  0  0  0  0  0  0  0  0  0  0  0
    6.7360    1.4370   -1.7570 C   0  0  0  0  0  0  0  0  0  0  0  0
    6.4460    1.9160   -3.0730 N   0  0  0  0  0  0  0  0  0  0  0  0
    5.2150    2.0150   -3.8040 C   0  0  0  0  0  0  0  0  0  0  0  0
    5.2180    2.6630   -5.2870 S   0  0  0  0  0  0  0  0  0  0  0  0
    3.9560    1.5550   -3.2700 N   0  0  0  0  0  0  0  0  0  0  0  0
   -3.9510   -1.2650    2.5650 C   0  0  0  0  0  0  0  0  0  0  0  0
   -2.3630   -1.0340   -0.8990 C   0  0  0  0  0  0  0  0  0  0  0  0
   -2.9900   -0.0520   -1.7590 N   0  0  2  0  0  0  0  0  0  0  0  0
   -2.5940    1.2940   -1.4830 C   0  0  0  0  0  0  0  0  0  0  0  0
   -2.8560    2.1540   -2.7060 C   0  0  0  0  0  0  0  0  0  0  0  0
   -2.3790    3.8320   -2.4110 Cl  0  0  0  0  0  0  0  0  0  0  0  0
   -4.3870   -0.2230   -1.5050 C   0  0  0  0  0  0  0  0  0  0  0  0
  1  2  2  0
  2  3  1  0
  3  4  2  0
  3 27  1  0
  4  5  1  0
  5  6  2  0
  5 33  1  0
  6  7  1  0
  6 28  1  0
  7  8  1  0
  7 27  2  0
  8  9  1  0
  9 10  1  0
 10 11  1  0
 11 12  1  0
 12 13  2  0
 12 14  1  0
 14 15  1  0
 15 16  2  0
 15 20  1  0
 16 17  1  0
 17 18  2  0
 18 19  1  0
 18 26  1  0
 19 20  2  0
 19 21  1  0
 21 22  1  0
 22 23  1  0
 23 24  1  0
 24 25  2  0
 24 26  1  0
 28 29  1  0
 29 30  1  1
 29 33  1  0
 30 31  1  0
 31 32  1  0
M  CHG  1  29   1
M  END
