
     RDKit          3D

 33 35  0  0  0  0  0  0  0  0999 V2000
   -1.6280    0.6510    1.5280 C   0  0  0  0  0  0  0  0  0  0  0  0
   -1.7860    0.7090    0.1320 N   0  0  0  0  0  0  0  0  0  0  0  0
   -2.5770    1.7440   -0.4190 C   0  0  0  0  0  0  0  0  0  0  0  0
   -3.9550    1.6900    0.1900 C   0  0  0  0  0  0  0  0  0  0  0  0
   -5.0440    1.8010   -0.8560 C   0  0  0  0  0  0  0  0  0  0  0  0
   -5.2580    0.5460   -1.5510 N   0  0  0  0  0  0  0  0  0  0  0  0
   -5.9340   -0.4510   -0.7730 C   0  0  0  0  0  0  0  0  0  0  0  0
   -5.4090   -1.8440   -1.0210 C   0  0  0  0  0  0  0  0  0  0  0  0
   -5.1160   -2.5930    0.2460 C   0  0  0  0  0  0  0  0  0  0  0  0
   -3.6190   -2.2230    1.0490 S   0  0  0  0  0  0  0  0  0  0  0  0
   -3.6700   -1.8730    2.4820 O   0  0  0  0  0  0  0  0  0  0  0  0
   -2.2370   -3.1100    0.5250 N   0  0  0  0  0  0  0  0  0  0  0  0
   -0.8950   -2.6330    0.3960 C   0  0  0  0  0  0  0  0  0  0  0  0
    0.1180   -3.4730    0.8340 C   0  0  0  0  0  0  0  0  0  0  0  0
    1.4430   -3.1390    0.7790 C   0  0  0  0  0  0  0  0  0  0  0  0
    1.7600   -1.8830    0.2490 C   0  0  0  0  0  0  0  0  0  0  0  0
    0.7780   -1.0400   -0.1890 C   0  0  0  0  0  0  0  0  0  0  0  0
    1.0690    0.2470   -0.7230 N   0  0  0  0  0  0  0  0  0  0  0  0
    2.3430    0.8390   -0.9190 C   0  0  0  0  0  0  0  0  0  0  0  0
    3.3400    0.1950   -0.6040 O   0  0  0  0  0  0  0  0  0  0  0  0
    2.5100    2.1290   -1.4600 N   0  0  0  0  0  0  0  0  0  0  0  0
    3.7230    2.8330   -1.6960 C   0  0  0  0  0  0  0  0  0  0  0  0
    4.5700    3.1720   -0.5230 C   0  0  0  0  0  0  0  0  0  0  0  0
    5.1260    2.2270    0.2780 O   0  0  0  0  0  0  0  0  0  0  0  0
    6.0600    1.2610    0.1150 C   0  0  0  0  0  0  0  0  0  0  0  0
    6.7170    1.0320   -1.0510 C   0  0  0  0  0  0  0  0  0  0  0  0
    7.6560    0.0260   -1.1290 C   0  0  0  0  0  0  0  0  0  0  0  0
    7.9400   -0.7560   -0.0390 C   0  0  0  0  0  0  0  0  0  0  0  0
    7.2870   -0.5440    1.1570 C   0  0  0  0  0  0  0  0  0  0  0  0
    6.3650    0.4520    1.2160 C   0  0  0  0  0  0  0  0  0  0  0  0
    5.5320    0.7250    2.7350 Cl  0  0  0  0  0  0  0  0  0  0  0  0
   -0.5850   -1.4050   -0.1230 C   0  0  0  0  0  0  0  0  0  0  0  0
   -1.6090   -0.4490   -0.6380 C   0  0  0  0  0  0  0  0  0  0  0  0
  1  2  1  0
  2  3  1  0
  2 33  1  0
  3  4  1  0
  4  5  1  0
  5  6  1  0
  6  7  1  0
  7  8  1  0
  8  9  1  0
 10  9  1  1
 10 11  2  0
 10 12  1  0
 12 13  1  0
 13 14  2  0
 13 32  1  0
 14 15  1  0
 15 16  2  0
 16 17  1  0
 17 18  1  0
 17 32  2  0
 18 19  1  0
 19 20  2  0
 19 21  1  0
 21 22  1  0
 22 23  1  0
 23 24  1  0
 24 25  1  0
 25 26  2  0
 25 30  1  0
 26 27  1  0
 27 28  2  0
 28 29  1  0
 29 30  2  0
 30 31  1  0
 32 33  1  0
M  CHG  1   6   1
M  END
