
     RDKit          3D

 31 32  0  0  0  0  0  0  0  0999 V2000
   -2.8870   -2.0020    1.0950 C   0  0  0  0  0  0  0  0  0  0  0  0
   -2.3880   -0.9430    0.1220 C   0  0  2  0  0  0  0  0  0  0  0  0
   -0.9670   -0.7730    0.4620 N   0  0  0  0  0  0  0  0  0  0  0  0
   -0.1320   -1.6230   -0.0110 C   0  0  0  0  0  0  0  0  0  0  0  0
   -0.6510   -2.6730   -0.8350 N   0  0  0  0  0  0  0  0  0  0  0  0
    1.2420   -1.5140    0.2790 N   0  0  0  0  0  0  0  0  0  0  0  0
    2.0850   -2.5500    0.7990 C   0  0  0  0  0  0  0  0  0  0  0  0
    3.3880   -2.2620    0.0500 C   0  0  0  0  0  0  0  0  0  0  0  0
    3.4400   -0.8110    0.0620 N   0  0  2  0  0  0  0  0  0  0  0  0
    4.1800   -0.4280    1.2520 C   0  0  0  0  0  0  0  0  0  0  0  0
    5.4860    0.1840    0.8500 C   0  0  0  0  0  0  0  0  0  0  0  0
    6.6520   -0.3220    1.2190 C   0  0  0  0  0  0  0  0  0  0  0  0
    7.8850    0.2930    0.8130 N   0  0  0  0  0  0  0  0  0  0  0  0
    7.8770    1.4680   -0.0010 C   0  0  0  0  0  0  0  0  0  0  0  0
    8.9900    2.0510   -0.3870 C   0  0  0  0  0  0  0  0  0  0  0  0
    8.9200    3.1830   -1.1720 O   0  0  0  0  0  0  0  0  0  0  0  0
    6.5740    1.9950   -0.3870 C   0  0  0  0  0  0  0  0  0  0  0  0
    5.4690    1.3730    0.0260 C   0  0  0  0  0  0  0  0  0  0  0  0
    2.0650   -0.3560    0.1150 C   0  0  0  0  0  0  0  0  0  0  0  0
   -3.1050    0.3360    0.2370 C   0  0  0  0  0  0  0  0  0  0  0  0
   -2.4920    1.3820    0.6510 O   0  0  0  0  0  0  0  0  0  0  0  0
   -4.4690    0.4720   -0.0960 N   0  0  0  0  0  0  0  0  0  0  0  0
   -5.2780   -0.6150   -0.6010 C   0  0  0  0  0  0  0  0  0  0  0  0
   -5.2390   -0.7920   -2.0810 C   0  0  0  0  0  0  0  0  0  0  0  0
   -6.0870   -1.8910   -2.3660 O   0  0  0  0  0  0  0  0  0  0  0  0
   -5.0880    1.7550    0.1000 C   0  0  1  0  0  0  0  0  0  0  0  0
   -5.7520    2.3190   -1.1140 C   0  0  0  0  0  0  0  0  0  0  0  0
   -6.2770    3.5940   -0.7610 O   0  0  0  0  0  0  0  0  0  0  0  0
   -6.1270    1.6650    1.2010 C   0  0  0  0  0  0  0  0  0  0  0  0
   -6.9010    2.7900    1.5560 N   0  0  0  0  0  0  0  0  0  0  0  0
   -6.2690    0.5630    1.7750 O   0  0  0  0  0  0  0  0  0  0  0  0
  2  1  1  1
  2  3  1  0
  2 20  1  0
  3  4  2  3
  4  5  1  0
  4  6  1  0
  6  7  1  0
  6 19  1  0
  7  8  1  0
  8  9  1  0
  9 10  1  1
  9 19  1  0
 10 11  1  0
 11 12  2  0
 11 18  1  0
 12 13  1  0
 13 14  1  0
 14 15  2  3
 14 17  1  0
 15 16  1  0
 17 18  2  0
 20 21  2  0
 20 22  1  0
 22 23  1  0
 22 26  1  0
 23 24  1  0
 24 25  1  0
 26 27  1  6
 26 29  1  0
 27 28  1  0
 29 30  1  0
 29 31  2  0
M  CHG  2   3   1   9   1
M  END
