
     RDKit          3D

 32 34  0  0  0  0  0  0  0  0999 V2000
    8.7360    1.2720   -1.8730 C   0  0  0  0  0  0  0  0  0  0  0  0
    9.1310    1.7310   -0.5060 C   0  0  0  0  0  0  0  0  0  0  0  0
    8.7050    0.6780    0.5130 C   0  0  2  0  0  0  0  0  0  0  0  0
    9.3350   -0.5820    0.2310 N   0  0  0  0  0  0  0  0  0  0  0  0
    7.2230    0.5820    0.5050 C   0  0  0  0  0  0  0  0  0  0  0  0
    6.5880    1.6050    0.8430 O   0  0  0  0  0  0  0  0  0  0  0  0
    6.5680   -0.6050    0.1320 N   0  0  0  0  0  0  0  0  0  0  0  0
    5.1660   -0.8080    0.0950 C   0  0  0  0  0  0  0  0  0  0  0  0
    4.6510   -1.9030   -0.6240 C   0  0  0  0  0  0  0  0  0  0  0  0
    3.3080   -2.1510   -0.6870 C   0  0  0  0  0  0  0  0  0  0  0  0
    2.3680   -1.3410   -0.0480 C   0  0  0  0  0  0  0  0  0  0  0  0
    2.8660   -0.2680    0.6580 C   0  0  0  0  0  0  0  0  0  0  0  0
    4.2260   -0.0240    0.7170 C   0  0  0  0  0  0  0  0  0  0  0  0
    1.8860    0.5400    1.2950 N   0  0  0  0  0  0  0  0  0  0  0  0
    0.4810    0.2570    1.2080 C   0  0  0  0  0  0  0  0  0  0  0  0
   -0.3630    1.1320    1.5780 O   0  0  0  0  0  0  0  0  0  0  0  0
    0.0710   -1.0590    0.6840 C   0  0  1  0  0  0  0  0  0  0  0  0
   -1.2210   -0.8740   -0.0840 C   0  0  0  0  0  0  0  0  0  0  0  0
   -2.3610   -0.4100    0.6790 C   0  0  0  0  0  0  0  0  0  0  0  0
   -2.3210   -0.4040    1.9550 O   0  0  0  0  0  0  0  0  0  0  0  0
   -3.5770    0.0620    0.1120 N   0  0  0  0  0  0  0  0  0  0  0  0
   -4.6640    0.5000    0.8640 N   0  0  0  0  0  0  0  0  0  0  0  0
   -5.9910   -0.0580    0.6730 C   0  0  0  0  0  0  0  0  0  0  0  0
   -6.0610   -0.9280   -0.2040 O   0  0  0  0  0  0  0  0  0  0  0  0
   -7.0800    0.3760    1.4350 N   0  0  0  0  0  0  0  0  0  0  0  0
   -8.4260   -0.0640    1.3590 C   0  0  0  0  0  0  0  0  0  0  0  0
   -9.1940    0.1740    0.1240 C   0  0  2  0  0  0  0  0  0  0  0  0
   -8.9510   -0.6310   -1.0670 C   0  0  0  0  0  0  0  0  0  0  0  0
   -8.4960    0.4040   -2.0190 N   0  0  0  0  0  0  0  0  0  0  0  0
   -9.3210    1.5360   -1.5920 C   0  0  0  0  0  0  0  0  0  0  0  0
   -9.2000    1.5390   -0.2160 O   0  0  0  0  0  0  0  0  0  0  0  0
    1.0300   -1.6320   -0.1450 O   0  0  0  0  0  0  0  0  0  0  0  0
  1  2  1  0
  2  3  1  0
  3  4  1  6
  3  5  1  0
  5  6  2  0
  5  7  1  0
  7  8  1  0
  8  9  2  0
  8 13  1  0
  9 10  1  0
 10 11  2  0
 11 12  1  0
 11 32  1  0
 12 13  2  0
 12 14  1  0
 14 15  1  0
 15 16  2  0
 15 17  1  0
 17 18  1  6
 17 32  1  0
 18 19  1  0
 19 20  2  0
 19 21  1  0
 21 22  1  0
 22 23  1  0
 23 24  2  0
 23 25  1  0
 25 26  1  0
 27 26  1  1
 27 28  1  0
 27 31  1  0
 28 29  1  0
 29 30  1  0
 30 31  1  0
M  CHG  2   4   1  29   1
M  END
