
     RDKit          3D

 32 34  0  0  0  0  0  0  0  0999 V2000
    4.2420   -1.8590    2.5340 C   0  0  0  0  0  0  0  0  0  0  0  0
    3.3780   -2.3400    1.4530 C   0  0  2  0  0  0  0  0  0  0  0  0
    4.0520   -2.8980    0.3610 O   0  0  0  0  0  0  0  0  0  0  0  0
    2.3470   -1.3990    0.9660 C   0  0  0  0  0  0  0  0  0  0  0  0
    2.7580   -0.3350    0.1150 N   0  0  0  0  0  0  0  0  0  0  0  0
    3.5990    0.7130    0.4320 C   0  0  0  0  0  0  0  0  0  0  0  0
    4.1150    0.8230    1.6000 O   0  0  0  0  0  0  0  0  0  0  0  0
    3.9990    1.7890   -0.4900 C   0  0  1  0  0  0  0  0  0  0  0  0
    5.3790    2.1740   -0.4060 N   0  0  0  0  0  0  0  0  0  0  0  0
    3.5860    1.5800   -1.9010 C   0  0  0  0  0  0  0  0  0  0  0  0
    2.1410    1.5560   -1.9880 N   0  0  0  0  0  0  0  0  0  0  0  0
    1.5540    1.3400   -3.2590 C   0  0  0  0  0  0  0  0  0  0  0  0
    2.2490    1.1730   -4.3010 O   0  0  0  0  0  0  0  0  0  0  0  0
    0.0680    1.3140   -3.3530 C   0  0  0  0  0  0  0  0  0  0  0  0
   -0.5330    1.5180   -2.0550 N   0  0  0  0  0  0  0  0  0  0  0  0
   -0.9020    2.7480   -1.4430 C   0  0  0  0  0  0  0  0  0  0  0  0
   -1.0200    3.8510   -2.0240 O   0  0  0  0  0  0  0  0  0  0  0  0
   -1.1080    2.4270   -0.0090 C   0  0  0  0  0  0  0  0  0  0  0  0
   -1.7240    1.0320   -0.1210 C   0  0  2  0  0  0  0  0  0  0  0  0
   -3.1510    1.1790   -0.6270 C   0  0  0  0  0  0  0  0  0  0  0  0
   -4.1450    0.7100    0.4240 C   0  0  0  0  0  0  0  0  0  0  0  0
   -3.8220   -0.6510    0.8410 N   0  0  0  0  0  0  0  0  0  0  0  0
   -4.8620   -1.5680    1.0750 C   0  0  0  0  0  0  0  0  0  0  0  0
   -6.2270   -1.2950    1.0000 C   0  0  0  0  0  0  0  0  0  0  0  0
   -6.8750   -2.4360    1.2990 N   0  0  0  0  0  0  0  0  0  0  0  0
   -6.0290   -3.3870    1.5520 O   0  0  0  0  0  0  0  0  0  0  0  0
   -4.7990   -2.8950    1.4260 C   0  0  0  0  0  0  0  0  0  0  0  0
   -3.5760   -3.6090    1.6170 N   0  0  0  0  0  0  0  0  0  0  0  0
   -2.4310   -1.0160    1.0040 C   0  0  0  0  0  0  0  0  0  0  0  0
   -1.6430    0.2830    1.1640 C   0  0  0  0  0  0  0  0  0  0  0  0
   -0.8510    0.4340   -1.1640 C   0  0  0  0  0  0  0  0  0  0  0  0
   -0.4540   -0.7500   -1.2810 O   0  0  0  0  0  0  0  0  0  0  0  0
  2  1  1  1
  2  3  1  0
  2  4  1  0
  4  5  1  0
  5  6  1  0
  6  7  2  0
  6  8  1  0
  8  9  1  6
  8 10  1  0
 10 11  1  0
 11 12  1  0
 12 13  2  0
 12 14  1  0
 14 15  1  0
 15 16  1  0
 15 31  1  0
 16 17  2  0
 16 18  1  0
 19 18  1  1
 19 20  1  0
 19 30  1  0
 19 31  1  0
 20 21  1  0
 21 22  1  0
 22 23  1  0
 22 29  1  0
 23 24  1  0
 23 27  2  0
 24 25  2  0
 25 26  1  0
 26 27  1  0
 27 28  1  0
 29 30  1  0
 31 32  2  0
M  CHG  2   9   1  25   1
M  END
