
     RDKit          3D

 32 33  0  0  0  0  0  0  0  0999 V2000
   -3.1600   -4.9360   -1.1130 C   0  0  0  0  0  0  0  0  0  0  0  0
   -3.5220   -3.6580   -1.5640 C   0  0  0  0  0  0  0  0  0  0  0  0
   -3.8180   -2.7810   -2.2380 O   0  0  0  0  0  0  0  0  0  0  0  0
   -3.7930   -1.3350   -2.4020 C   0  0  0  0  0  0  0  0  0  0  0  0
   -3.1850   -0.8150   -1.1630 C   0  0  1  0  0  0  0  0  0  0  0  0
   -3.2910    0.5910   -0.7350 C   0  0  2  0  0  0  0  0  0  0  0  0
   -2.3080    0.7400    0.4600 C   0  0  0  0  0  0  0  0  0  0  0  0
   -0.9830    0.5700   -0.1230 N   0  0  0  0  0  0  0  0  0  0  0  0
    0.1880    0.4610    0.6690 C   0  0  0  0  0  0  0  0  0  0  0  0
    0.0010    0.4290    1.8970 O   0  0  0  0  0  0  0  0  0  0  0  0
    1.4440    0.4070    0.0450 C   0  0  0  0  0  0  0  0  0  0  0  0
    1.8330    0.6530   -1.0320 O   0  0  0  0  0  0  0  0  0  0  0  0
    2.7260   -0.1430    1.0880 N   0  0  0  0  0  0  0  0  0  0  0  0
    3.7880    0.2170    0.3070 C   0  0  0  0  0  0  0  0  0  0  0  0
    3.9200    0.8170   -0.7180 O   0  0  0  0  0  0  0  0  0  0  0  0
    5.0640   -0.3240    0.9650 N   0  0  0  0  0  0  0  0  0  0  0  0
    6.2810   -0.0930    0.2860 C   0  0  2  0  0  0  0  0  0  0  0  0
    6.9880   -1.4080    0.0060 C   0  0  0  0  0  0  0  0  0  0  0  0
    8.3720   -1.4870    0.4920 C   0  0  0  0  0  0  0  0  0  0  0  0
    9.0780   -0.1290    0.4340 C   0  0  0  0  0  0  0  0  0  0  0  0
    8.3820    0.6970    1.3900 N   0  0  0  0  0  0  0  0  0  0  0  0
    7.0630    0.9670    0.9450 C   0  0  0  0  0  0  0  0  0  0  0  0
   -4.5310    1.1560   -0.4040 N   0  0  0  0  0  0  0  0  0  0  0  0
   -4.9800    2.3880   -0.9570 C   0  0  0  0  0  0  0  0  0  0  0  0
   -4.2120    2.9700   -1.7770 O   0  0  0  0  0  0  0  0  0  0  0  0
   -6.2360    2.9820   -0.6290 C   0  0  0  0  0  0  0  0  0  0  0  0
   -6.6270    4.2340   -1.2360 N   0  0  0  0  0  0  0  0  0  0  0  0
   -7.1020    2.4540    0.2220 C   0  0  0  0  0  0  0  0  0  0  0  0
   -8.3250    3.1690    0.4440 N   0  0  0  0  0  0  0  0  0  0  0  0
   -3.7710   -1.6260   -0.1040 O   0  0  0  0  0  0  0  0  0  0  0  0
   -3.4680   -2.9380   -0.0240 C   0  0  0  0  0  0  0  0  0  0  0  0
   -3.1750   -3.6300    0.9770 C   0  0  0  0  0  0  0  0  0  0  0  0
  1  2  2  0
  2  3  1  0
  2 31  1  0
  3  4  1  0
  5  4  1  6
  5  6  1  0
  5 30  1  0
  6  7  1  1
  6 23  1  0
  7  8  1  0
  8  9  1  0
  9 10  2  0
  9 11  1  0
 11 12  2  0
 11 13  1  0
 13 14  1  0
 14 15  2  0
 14 16  1  0
 17 16  1  1
 17 18  1  0
 17 22  1  0
 18 19  1  0
 19 20  1  0
 20 21  1  0
 21 22  1  0
 23 24  1  0
 24 25  2  0
 24 26  1  0
 26 27  1  0
 26 28  2  3
 28 29  1  0
 30 31  1  0
 31 32  2  0
M  CHG  2  21   1  29   1
M  END
