
     RDKit          3D

 11 12  0  0  0  0  0  0  0  0999 V2000
    2.3510    0.8380    0.5380 N   0  0  0  0  0  0  0  0  0  0  0  0
    2.0740    0.2470   -0.7270 C   0  0  0  0  0  0  0  0  0  0  0  0
    0.8260   -0.5750   -0.7760 C   0  0  1  0  0  0  0  0  0  0  0  0
    0.7950   -1.7260    0.1590 C   0  0  0  0  0  0  0  0  0  0  0  0
   -0.5700   -1.8470    0.4520 O   0  0  0  0  0  0  0  0  0  0  0  0
   -0.8910   -0.5350    0.8330 C   0  0  2  0  0  0  0  0  0  0  0  0
   -2.3760   -0.3220    0.9120 C   0  0  0  0  0  0  0  0  0  0  0  0
   -2.7860    0.8900    0.3920 O   0  0  0  0  0  0  0  0  0  0  0  0
   -2.3220    1.1550   -0.8720 C   0  0  0  0  0  0  0  0  0  0  0  0
   -1.3610    0.2460   -1.3170 O   0  0  0  0  0  0  0  0  0  0  0  0
   -0.3480    0.2620   -0.3310 C   0  0  2  0  0  0  0  0  0  0  0  0
  1  2  1  0
  3  2  1  1
  3  4  1  0
  3 11  1  0
  4  5  1  0
  5  6  1  0
  6  7  1  6
  6 11  1  0
  7  8  1  0
  8  9  1  0
  9 10  1  0
 11 10  1  6
M  CHG  1   1   1
M  END
