
     RDKit          3D

 11 11  0  0  0  0  0  0  0  0999 V2000
   -1.2450   -1.7080   -0.1580 N   0  0  0  0  0  0  0  0  0  0  0  0
   -0.9720   -0.2740   -0.0080 C   0  0  2  0  0  0  0  0  0  0  0  0
   -2.2920    0.4350    0.3330 C   0  0  0  0  0  0  0  0  0  0  0  0
   -1.9450    1.8000    0.4600 O   0  0  0  0  0  0  0  0  0  0  0  0
   -0.5180    0.2770   -1.3150 C   0  0  0  0  0  0  0  0  0  0  0  0
    0.9530    0.0750   -1.5850 C   0  0  0  0  0  0  0  0  0  0  0  0
    1.6760    0.7180   -0.3940 C   0  0  2  0  0  0  0  0  0  0  0  0
    3.0020    0.9280   -0.6350 O   0  0  0  0  0  0  0  0  0  0  0  0
    1.4080   -0.2360    0.7570 C   0  0  1  0  0  0  0  0  0  0  0  0
    2.2320   -0.0300    1.8260 O   0  0  0  0  0  0  0  0  0  0  0  0
   -0.0450   -0.0420    1.1320 C   0  0  0  0  0  0  0  0  0  0  0  0
  2  1  1  6
  2  3  1  0
  2  5  1  0
  2 11  1  0
  3  4  1  0
  5  6  1  0
  6  7  1  0
  7  8  1  6
  7  9  1  0
  9 10  1  1
  9 11  1  0
M  CHG  1   1   1
M  END
