
     RDKit          3D

 18 19  0  0  0  0  0  0  0  0999 V2000
   -4.2920    0.1580   -1.4000 C   0  0  0  0  0  0  0  0  0  0  0  0
   -3.8200   -0.7240   -0.2890 C   0  0  1  0  0  0  0  0  0  0  0  0
   -3.1420   -1.9650   -0.7860 C   0  0  0  0  0  0  0  0  0  0  0  0
   -3.6440   -3.0760   -1.0740 O   0  0  0  0  0  0  0  0  0  0  0  0
   -1.7620   -1.6320   -0.8750 N   0  0  0  0  0  0  0  0  0  0  0  0
   -1.5700   -0.4800   -0.0540 C   0  0  0  0  0  0  0  0  0  0  0  0
   -0.3650    0.1050    0.0880 C   0  0  0  0  0  0  0  0  0  0  0  0
    0.8820   -0.3330   -0.5490 C   0  0  0  0  0  0  0  0  0  0  0  0
    1.8920    0.4450   -0.2230 C   0  0  0  0  0  0  0  0  0  0  0  0
    3.2100    0.2870   -0.6700 O   0  0  0  0  0  0  0  0  0  0  0  0
    4.2670    0.0270    0.2350 C   0  0  0  0  0  0  0  0  0  0  0  0
    5.5440   -0.0870   -0.5650 C   0  0  0  0  0  0  0  0  0  0  0  0
    6.5770   -0.3430    0.3450 O   0  0  0  0  0  0  0  0  0  0  0  0
    1.3770    1.4690    0.6670 C   0  0  0  0  0  0  0  0  0  0  0  0
    2.0510    2.4140    1.2020 O   0  0  0  0  0  0  0  0  0  0  0  0
   -0.0190    1.2500    0.8530 N   0  0  0  0  0  0  0  0  0  0  0  0
   -2.7810   -0.1060    0.5270 N   0  0  0  0  0  0  0  0  0  0  0  0
   -3.0070    0.6960    1.6800 C   0  0  0  0  0  0  0  0  0  0  0  0
  2  1  1  6
  2  3  1  0
  2 17  1  0
  3  4  2  0
  3  5  1  0
  5  6  1  0
  6  7  2  3
  6 17  1  0
  7  8  1  0
  7 16  1  0
  8  9  2  0
  9 10  1  0
  9 14  1  0
 10 11  1  0
 11 12  1  0
 12 13  1  0
 14 15  2  0
 14 16  1  0
 17 18  1  0
M  END
