
     RDKit          3D

 23 26  0  0  0  0  0  0  0  0999 V2000
   -1.6300   -3.2220    2.0560 O   0  0  0  0  0  0  0  0  0  0  0  0
   -2.0040   -2.1700    1.4450 C   0  0  0  0  0  0  0  0  0  0  0  0
   -3.4090   -1.7090    1.4780 C   0  0  0  0  0  0  0  0  0  0  0  0
   -3.3840   -0.4530    0.7160 C   0  0  0  0  0  0  0  0  0  0  0  0
   -4.4140    0.4180    0.4720 C   0  0  0  0  0  0  0  0  0  0  0  0
   -4.2480    1.5670   -0.2650 C   0  0  0  0  0  0  0  0  0  0  0  0
   -3.0010    1.8280   -0.7610 C   0  0  0  0  0  0  0  0  0  0  0  0
   -1.9650    0.9650   -0.5240 C   0  0  0  0  0  0  0  0  0  0  0  0
   -2.1040   -0.2060    0.2180 C   0  0  0  0  0  0  0  0  0  0  0  0
   -1.1850   -1.2430    0.6300 C   0  0  0  0  0  0  0  0  0  0  0  0
    0.0820   -1.3960    0.4210 C   0  0  0  0  0  0  0  0  0  0  0  0
    1.0440   -0.6360   -0.3290 C   0  0  0  0  0  0  0  0  0  0  0  0
    0.9960   -0.3010   -1.6550 C   0  0  0  0  0  0  0  0  0  0  0  0
    2.0000    0.4480   -2.2680 C   0  0  0  0  0  0  0  0  0  0  0  0
    3.0860    0.8740   -1.5380 C   0  0  0  0  0  0  0  0  0  0  0  0
    3.1680    0.5540   -0.1990 C   0  0  0  0  0  0  0  0  0  0  0  0
    2.1610   -0.1870    0.3830 C   0  0  0  0  0  0  0  0  0  0  0  0
    2.2780   -0.5070    1.7940 C   0  0  0  0  0  0  0  0  0  0  0  0
    1.7990    0.2730    2.6310 O   0  0  0  0  0  0  0  0  0  0  0  0
    2.9080   -1.6600    2.2350 O   0  0  0  0  0  0  0  0  0  0  0  0
    4.3530    1.1140    0.2520 O   0  0  0  0  0  0  0  0  0  0  0  0
    5.0340    1.8030   -0.7760 C   0  0  0  0  0  0  0  0  0  0  0  0
    4.1970    1.6140   -1.8960 O   0  0  0  0  0  0  0  0  0  0  0  0
  1  2  2  0
  2  3  1  0
  2 10  1  0
  3  4  1  0
  4  5  2  0
  4  9  1  0
  5  6  1  0
  6  7  2  0
  7  8  1  0
  8  9  2  0
  9 10  1  0
 10 11  2  3
 11 12  1  0
 12 13  2  0
 12 17  1  0
 13 14  1  0
 14 15  2  0
 15 16  1  0
 15 23  1  0
 16 17  2  0
 16 21  1  0
 17 18  1  0
 18 19  2  0
 18 20  1  0
 21 22  1  0
 22 23  1  0
M  END
