
     RDKit          3D

 12 12  0  0  0  0  0  0  0  0999 V2000
   -0.9310   -1.9840   -0.0370 N   0  0  0  0  0  0  0  0  0  0  0  0
   -0.6180   -0.6820    0.5250 C   0  0  2  0  0  0  0  0  0  0  0  0
   -1.9770   -0.0000    0.7480 C   0  0  0  0  0  0  0  0  0  0  0  0
   -1.7820    1.2500    1.3530 O   0  0  0  0  0  0  0  0  0  0  0  0
   -1.9970    2.1610    0.4480 O   0  0  0  0  0  0  0  0  0  0  0  0
   -0.8210    2.4970   -0.1790 C   0  0  0  0  0  0  0  0  0  0  0  0
    0.3240    1.5500    0.1730 C   0  0  0  0  0  0  0  0  0  0  0  0
    0.1320    0.2040   -0.4360 C   0  0  2  0  0  0  0  0  0  0  0  0
   -0.7190    0.3750   -1.5540 O   0  0  0  0  0  0  0  0  0  0  0  0
    1.3970   -0.4100   -0.9590 C   0  0  0  0  0  0  0  0  0  0  0  0
    2.3990   -0.7540    0.0910 C   0  0  0  0  0  0  0  0  0  0  0  0
    1.9590   -1.6580    1.0340 O   0  0  0  0  0  0  0  0  0  0  0  0
  2  1  1  6
  2  3  1  0
  2  8  1  0
  3  4  1  0
  4  5  1  0
  5  6  1  0
  6  7  1  0
  7  8  1  0
  8  9  1  6
  8 10  1  0
 10 11  1  0
 11 12  1  0
M  CHG  1   1   1
M  END
