
     RDKit          3D

 19 20  0  0  0  0  0  0  0  0999 V2000
    5.4660    1.6390    0.4090 C   0  0  0  0  0  0  0  0  0  0  0  0
    4.5370    0.7010    0.9860 N   0  0  0  0  0  0  0  0  0  0  0  0
    3.4610    0.2090    0.2080 C   0  0  0  0  0  0  0  0  0  0  0  0
    3.3410    0.6110   -0.9900 O   0  0  0  0  0  0  0  0  0  0  0  0
    2.4990   -0.7230    0.7110 N   0  0  0  0  0  0  0  0  0  0  0  0
    1.4770   -1.1350   -0.1600 N   0  0  0  0  0  0  0  0  0  0  0  0
    0.0910   -0.9520    0.1250 C   0  0  0  0  0  0  0  0  0  0  0  0
   -0.2370   -0.4010    1.2030 O   0  0  0  0  0  0  0  0  0  0  0  0
   -0.9630   -1.3980   -0.8220 C   0  0  2  0  0  0  0  0  0  0  0  0
   -0.9830   -0.4990   -2.0610 C   0  0  0  0  0  0  0  0  0  0  0  0
   -1.5900    0.7190   -1.4640 C   0  0  0  0  0  0  0  0  0  0  0  0
   -1.3530    1.9280   -1.5720 O   0  0  0  0  0  0  0  0  0  0  0  0
   -2.6640    0.1600   -0.6090 C   0  0  0  0  0  0  0  0  0  0  0  0
   -3.8980    0.3850   -0.0350 C   0  0  0  0  0  0  0  0  0  0  0  0
   -4.6570    1.6180   -0.1770 C   0  0  0  0  0  0  0  0  0  0  0  0
   -4.1800    2.5850   -0.8530 O   0  0  0  0  0  0  0  0  0  0  0  0
   -4.2850   -0.7280    0.6870 C   0  0  0  0  0  0  0  0  0  0  0  0
   -3.2890   -1.6170    0.5470 N   0  0  0  0  0  0  0  0  0  0  0  0
   -2.2940   -1.1120   -0.2310 C   0  0  0  0  0  0  0  0  0  0  0  0
  1  2  1  0
  2  3  1  0
  3  4  2  0
  3  5  1  0
  5  6  1  0
  6  7  1  0
  7  8  2  0
  9  7  1  1
  9 10  1  0
  9 19  1  0
 10 11  1  0
 11 12  2  0
 11 13  1  0
 13 14  1  0
 13 19  2  0
 14 15  1  0
 14 17  2  0
 15 16  2  0
 17 18  1  0
 18 19  1  0
M  END
