
     RDKit          3D

 11 12  0  0  0  0  0  0  0  0999 V2000
    3.3440    0.2350   -0.7630 O   0  0  0  0  0  0  0  0  0  0  0  0
    2.4170   -0.4570    0.0340 C   0  0  2  0  0  0  0  0  0  0  0  0
    1.1490   -0.7380   -0.7240 C   0  0  0  0  0  0  0  0  0  0  0  0
    0.0760   -0.1400    0.1070 C   0  0  2  0  0  0  0  0  0  0  0  0
   -1.0630   -1.1150    0.4080 C   0  0  0  0  0  0  0  0  0  0  0  0
   -2.0880   -0.1380    0.8130 N   0  0  0  0  0  0  0  0  0  0  0  0
   -2.0980    0.6970   -0.3920 C   0  0  0  0  0  0  0  0  0  0  0  0
   -0.6210    1.0320   -0.5190 C   0  0  2  0  0  0  0  0  0  0  0  0
   -0.2380    1.2550   -1.8260 O   0  0  0  0  0  0  0  0  0  0  0  0
    0.7690    0.2080    1.3900 C   0  0  0  0  0  0  0  0  0  0  0  0
    2.1090    0.3520    1.1010 O   0  0  0  0  0  0  0  0  0  0  0  0
  2  1  1  6
  2  3  1  0
  2 11  1  0
  4  3  1  6
  4  5  1  0
  4  8  1  0
  4 10  1  0
  5  6  1  0
  6  7  1  0
  7  8  1  0
  8  9  1  6
 10 11  1  0
M  CHG  1   6   1
M  END
