
     RDKit          3D

 12 13  0  0  0  0  0  0  0  0999 V2000
    3.6160    0.3590   -0.3250 C   0  0  0  0  0  0  0  0  0  0  0  0
    2.9640    0.1210    0.8310 O   0  0  0  0  0  0  0  0  0  0  0  0
    1.6680    0.3730    0.9820 C   0  0  0  0  0  0  0  0  0  0  0  0
    0.6510   -0.2980    0.1170 C   0  0  2  0  0  0  0  0  0  0  0  0
    0.7880    0.0630   -1.2510 N   0  0  0  0  0  0  0  0  0  0  0  0
   -0.7390   -0.0440    0.6650 C   0  0  2  0  0  0  0  0  0  0  0  0
   -1.8630   -0.6600   -0.1120 C   0  0  1  0  0  0  0  0  0  0  0  0
   -3.1070   -1.1280    0.5720 C   0  0  0  0  0  0  0  0  0  0  0  0
   -3.2460   -0.5670    1.8170 O   0  0  0  0  0  0  0  0  0  0  0  0
   -2.7820    0.6360    1.9260 O   0  0  0  0  0  0  0  0  0  0  0  0
   -2.7530    1.3250    0.8320 O   0  0  0  0  0  0  0  0  0  0  0  0
   -1.7080    0.8430    0.0300 C   0  0  1  0  0  0  0  0  0  0  0  0
  1  2  1  0
  2  3  1  0
  3  4  1  0
  4  5  1  6
  6  4  1  6
  6  7  1  0
  6 12  1  0
  7  8  1  1
  7 12  1  0
  8  9  1  0
  9 10  1  0
 10 11  1  0
 12 11  1  1
M  CHG  1   5   1
M  END
