
     RDKit          3D

 10 10  0  0  0  0  0  0  0  0999 V2000
    4.8890   -0.0460    0.0030 O   0  0  0  0  0  0  0  0  0  0  0  0
    3.6620    0.3300   -0.5380 C   0  0  0  0  0  0  0  0  0  0  0  0
    2.5390   -0.2900    0.2750 C   0  0  0  0  0  0  0  0  0  0  0  0
    1.1870    0.0880   -0.2730 C   0  0  0  0  0  0  0  0  0  0  0  0
    0.2040   -0.5250    0.5350 O   0  0  0  0  0  0  0  0  0  0  0  0
   -1.1680   -0.3480    0.2600 C   0  0  0  0  0  0  0  0  0  0  0  0
   -2.0750   -1.2760    0.4620 C   0  0  0  0  0  0  0  0  0  0  0  0
   -3.4370   -0.7830    0.0730 C   0  0  0  0  0  0  0  0  0  0  0  0
   -3.2460    0.7280    0.2150 C   0  0  0  0  0  0  0  0  0  0  0  0
   -1.8280    0.8560   -0.2840 C   0  0  0  0  0  0  0  0  0  0  0  0
  1  2  1  0
  2  3  1  0
  3  4  1  0
  4  5  1  0
  5  6  1  0
  6  7  2  0
  6 10  1  0
  7  8  1  0
  8  9  1  0
  9 10  1  0
M  END
