
     RDKit          3D

 10  9  0  0  0  0  0  0  0  0999 V2000
   -2.2380   -0.3530   -1.5890 C   0  0  0  0  0  0  0  0  0  0  0  0
   -1.5880   -0.0970   -0.2200 C   0  0  1  0  0  0  0  0  0  0  0  0
   -2.5380    0.8310    0.5060 C   0  0  0  0  0  0  0  0  0  0  0  0
   -1.5310   -1.3850    0.5470 C   0  0  0  0  0  0  0  0  0  0  0  0
   -0.3680    0.4600   -0.4860 O   0  0  0  0  0  0  0  0  0  0  0  0
    0.3830    0.7680    0.6350 C   0  0  0  0  0  0  0  0  0  0  0  0
    1.6840    1.3680    0.1450 C   0  0  0  0  0  0  0  0  0  0  0  0
    2.4200    0.3800   -0.7300 C   0  0  0  0  0  0  0  0  0  0  0  0
    2.7700   -0.8990   -0.0310 C   0  0  0  0  0  0  0  0  0  0  0  0
    3.5920   -0.6120    1.0730 O   0  0  0  0  0  0  0  0  0  0  0  0
  2  1  1  6
  2  3  1  0
  2  4  1  0
  2  5  1  0
  5  6  1  0
  6  7  1  0
  7  8  1  0
  8  9  1  0
  9 10  1  0
M  END
