
     RDKit          3D

 10  9  0  0  0  0  0  0  0  0999 V2000
    3.5410   -1.3370    0.3840 C   0  0  0  0  0  0  0  0  0  0  0  0
    2.8090   -0.0480    0.6930 C   0  0  0  0  0  0  0  0  0  0  0  0
    2.5780    0.6240   -0.4840 O   0  0  0  0  0  0  0  0  0  0  0  0
    1.8200   -0.1520   -1.3310 C   0  0  0  0  0  0  0  0  0  0  0  0
    0.4700   -0.5370   -0.7950 C   0  0  0  0  0  0  0  0  0  0  0  0
   -0.2320    0.6270   -0.5470 O   0  0  0  0  0  0  0  0  0  0  0  0
   -1.4780    0.3370   -0.0530 C   0  0  2  0  0  0  0  0  0  0  0  0
   -2.5680    0.8500   -0.9950 C   0  0  0  0  0  0  0  0  0  0  0  0
   -1.7400    0.9090    1.3190 C   0  0  0  0  0  0  0  0  0  0  0  0
   -3.1570    0.4920    1.7040 C   0  0  0  0  0  0  0  0  0  0  0  0
  1  2  1  0
  2  3  1  0
  3  4  1  0
  4  5  1  0
  5  6  1  0
  6  7  1  0
  7  8  1  6
  7  9  1  0
  9 10  1  0
M  END
