
     RDKit          3D

 10  9  0  0  0  0  0  0  0  0999 V2000
    3.2620    0.0750    0.8040 C   0  0  0  0  0  0  0  0  0  0  0  0
    2.8130   -1.2820    0.3170 C   0  0  0  0  0  0  0  0  0  0  0  0
    1.4370   -1.3670    0.3310 O   0  0  0  0  0  0  0  0  0  0  0  0
    0.9210   -0.3820   -0.5050 C   0  0  0  0  0  0  0  0  0  0  0  0
   -0.6160   -0.4610   -0.5030 C   0  0  2  0  0  0  0  0  0  0  0  0
   -1.2010    0.5820   -1.3890 C   0  0  0  0  0  0  0  0  0  0  0  0
   -0.8640    1.9900   -0.9870 C   0  0  0  0  0  0  0  0  0  0  0  0
   -1.1170   -0.4850    0.9090 C   0  0  0  0  0  0  0  0  0  0  0  0
   -2.5990   -0.5620    1.0550 C   0  0  0  0  0  0  0  0  0  0  0  0
   -3.2800    0.4970    0.5190 O   0  0  0  0  0  0  0  0  0  0  0  0
  1  2  1  0
  2  3  1  0
  3  4  1  0
  5  4  1  1
  5  6  1  0
  5  8  1  0
  6  7  1  0
  8  9  1  0
  9 10  1  0
M  END
