
     RDKit          3D

 10  9  0  0  0  0  0  0  0  0999 V2000
    4.5910    1.5390    0.3430 C   0  0  0  0  0  0  0  0  0  0  0  0
    3.6240    0.4060    0.0810 C   0  0  0  0  0  0  0  0  0  0  0  0
    2.3200    0.8130    0.3370 O   0  0  0  0  0  0  0  0  0  0  0  0
    1.4940   -0.2770    0.0740 C   0  0  0  0  0  0  0  0  0  0  0  0
    0.0280    0.0670    0.3260 C   0  0  0  0  0  0  0  0  0  0  0  0
   -0.7960   -1.1560    0.0210 C   0  0  0  0  0  0  0  0  0  0  0  0
   -2.2500   -0.8860    0.2720 C   0  0  2  0  0  0  0  0  0  0  0  0
   -2.9660   -2.0500   -0.0210 O   0  0  0  0  0  0  0  0  0  0  0  0
   -2.7170    0.2550   -0.5860 C   0  0  0  0  0  0  0  0  0  0  0  0
   -4.2140    0.5180   -0.3330 C   0  0  0  0  0  0  0  0  0  0  0  0
  1  2  1  0
  2  3  1  0
  3  4  1  0
  4  5  1  0
  5  6  1  0
  6  7  1  0
  7  8  1  6
  7  9  1  0
  9 10  1  0
M  END
