
     RDKit          3D

 10  9  0  0  0  0  0  0  0  0999 V2000
   -2.0140    0.2920   -1.1260 C   0  0  0  0  0  0  0  0  0  0  0  0
   -1.4060    0.0280    0.2470 C   0  0  1  0  0  0  0  0  0  0  0  0
   -0.6610    1.1820    0.8100 C   0  0  0  0  0  0  0  0  0  0  0  0
   -2.6280   -0.2160    1.1440 C   0  0  0  0  0  0  0  0  0  0  0  0
   -0.6440   -1.2640    0.1650 C   0  0  0  0  0  0  0  0  0  0  0  0
    0.4490   -1.3300   -0.8200 C   0  0  0  0  0  0  0  0  0  0  0  0
    1.5940   -0.4000   -0.6810 C   0  0  0  0  0  0  0  0  0  0  0  0
    2.3020   -0.5230    0.5080 O   0  0  0  0  0  0  0  0  0  0  0  0
    3.3360    0.4150    0.4740 C   0  0  0  0  0  0  0  0  0  0  0  0
    2.8670    1.7220    0.3550 O   0  0  0  0  0  0  0  0  0  0  0  0
  2  1  1  6
  2  3  1  0
  2  4  1  0
  2  5  1  0
  5  6  1  0
  6  7  1  0
  7  8  1  0
  8  9  1  0
  9 10  1  0
M  END
