
     RDKit          3D

 10  9  0  0  0  0  0  0  0  0999 V2000
    3.7190    0.9660    0.1120 C   0  0  0  0  0  0  0  0  0  0  0  0
    3.0970   -0.0230   -0.8300 C   0  0  0  0  0  0  0  0  0  0  0  0
    1.7430   -0.5020   -0.3470 C   0  0  0  0  0  0  0  0  0  0  0  0
    0.7930    0.6320   -0.2100 C   0  0  0  0  0  0  0  0  0  0  0  0
   -0.5900    0.2420    0.2880 C   0  0  2  0  0  0  0  0  0  0  0  0
   -0.5220   -0.3590    1.5460 O   0  0  0  0  0  0  0  0  0  0  0  0
   -1.2510   -0.6620   -0.6940 C   0  0  0  0  0  0  0  0  0  0  0  0
   -2.6060   -1.1700   -0.3900 C   0  0  0  0  0  0  0  0  0  0  0  0
   -3.6350   -0.3550   -0.2820 O   0  0  0  0  0  0  0  0  0  0  0  0
   -3.8340    0.6350    0.5700 C   0  0  0  0  0  0  0  0  0  0  0  0
  1  2  1  0
  2  3  1  0
  3  4  1  0
  4  5  1  0
  5  6  1  1
  5  7  1  0
  7  8  1  0
  8  9  1  0
  9 10  1  0
M  END
