
     RDKit          3D

 10  9  0  0  0  0  0  0  0  0999 V2000
    3.2690   -0.3800    0.4390 C   0  0  0  0  0  0  0  0  0  0  0  0
    2.8640    0.9310    0.5700 O   0  0  0  0  0  0  0  0  0  0  0  0
    2.1420    1.3910   -0.5280 C   0  0  0  0  0  0  0  0  0  0  0  0
    0.8840    0.5630   -0.7440 C   0  0  0  0  0  0  0  0  0  0  0  0
    0.0480    0.6760    0.4790 C   0  0  0  0  0  0  0  0  0  0  0  0
   -1.2390   -0.0800    0.4450 C   0  0  1  0  0  0  0  0  0  0  0  0
   -1.9350    0.1730    1.7920 C   0  0  0  0  0  0  0  0  0  0  0  0
   -2.1900    0.3780   -0.6180 C   0  0  0  0  0  0  0  0  0  0  0  0
   -1.0630   -1.5670    0.3450 C   0  0  0  0  0  0  0  0  0  0  0  0
   -2.3380   -2.1450    0.3230 O   0  0  0  0  0  0  0  0  0  0  0  0
  1  2  1  0
  2  3  1  0
  3  4  1  0
  4  5  1  0
  5  6  1  0
  6  7  1  1
  6  8  1  0
  6  9  1  0
  9 10  1  0
M  END
