
     RDKit          3D

 23 26  0  0  0  0  0  0  0  0999 V2000
   -1.7740    0.1110   -2.6320 O   0  0  0  0  0  0  0  0  0  0  0  0
   -2.1260    0.7820   -1.6270 C   0  0  0  0  0  0  0  0  0  0  0  0
   -2.2750    2.1470   -1.7850 O   0  0  0  0  0  0  0  0  0  0  0  0
   -2.3460    0.0640   -0.3910 C   0  0  0  0  0  0  0  0  0  0  0  0
   -1.2550   -0.0920    0.4700 C   0  0  0  0  0  0  0  0  0  0  0  0
    0.0170    0.5030    0.1000 C   0  0  0  0  0  0  0  0  0  0  0  0
    1.1780   -0.0730    0.0090 C   0  0  0  0  0  0  0  0  0  0  0  0
    2.4150    0.6590   -0.3790 C   0  0  0  0  0  0  0  0  0  0  0  0
    2.5370    1.8150   -1.1380 C   0  0  0  0  0  0  0  0  0  0  0  0
    3.8230    2.3140   -1.3770 C   0  0  0  0  0  0  0  0  0  0  0  0
    4.8900    1.6180   -0.8380 C   0  0  0  0  0  0  0  0  0  0  0  0
    4.7740    0.4850   -0.0930 C   0  0  0  0  0  0  0  0  0  0  0  0
    3.4980   -0.0110    0.1450 C   0  0  0  0  0  0  0  0  0  0  0  0
    2.9880   -1.1740    0.8980 C   0  0  0  0  0  0  0  0  0  0  0  0
    1.6650   -1.4520    0.1670 C   0  0  1  0  0  0  0  0  0  0  0  0
    0.9040   -2.3150    0.8790 O   0  0  0  0  0  0  0  0  0  0  0  0
   -1.4970   -0.7760    1.6340 C   0  0  0  0  0  0  0  0  0  0  0  0
   -2.7690   -1.2860    1.9300 C   0  0  0  0  0  0  0  0  0  0  0  0
   -3.8210   -1.1180    1.0650 C   0  0  0  0  0  0  0  0  0  0  0  0
   -3.5980   -0.4330   -0.1080 C   0  0  0  0  0  0  0  0  0  0  0  0
   -4.8220   -0.4170   -0.7730 O   0  0  0  0  0  0  0  0  0  0  0  0
   -5.8820   -0.6430    0.1710 C   0  0  0  0  0  0  0  0  0  0  0  0
   -5.1750   -1.5000    1.0780 O   0  0  0  0  0  0  0  0  0  0  0  0
  1  2  2  0
  2  3  1  0
  2  4  1  0
  4  5  2  0
  4 20  1  0
  5  6  1  0
  5 17  1  0
  6  7  2  3
  7  8  1  0
  7 15  1  0
  8  9  2  0
  8 13  1  0
  9 10  1  0
 10 11  2  0
 11 12  1  0
 12 13  2  0
 13 14  1  0
 14 15  1  0
 15 16  1  1
 17 18  2  0
 18 19  1  0
 19 20  2  0
 19 23  1  0
 20 21  1  0
 21 22  1  0
 22 23  1  0
M  END
