
     RDKit          3D

 10  9  0  0  0  0  0  0  0  0999 V2000
   -2.9910   -0.6210   -0.6960 C   0  0  0  0  0  0  0  0  0  0  0  0
   -1.5170   -0.7460   -1.0000 C   0  0  0  0  0  0  0  0  0  0  0  0
   -0.6720   -0.5620    0.2450 C   0  0  2  0  0  0  0  0  0  0  0  0
   -1.0500   -1.5550    1.1470 O   0  0  0  0  0  0  0  0  0  0  0  0
   -0.9100    0.7640    0.9020 C   0  0  0  0  0  0  0  0  0  0  0  0
   -0.6000    1.9400    0.0210 C   0  0  0  0  0  0  0  0  0  0  0  0
    0.7740   -0.7140   -0.1960 C   0  0  0  0  0  0  0  0  0  0  0  0
    1.7440   -0.5610    0.9120 C   0  0  0  0  0  0  0  0  0  0  0  0
    3.0310   -0.7220    0.4560 O   0  0  0  0  0  0  0  0  0  0  0  0
    3.4330    0.1720   -0.5100 C   0  0  0  0  0  0  0  0  0  0  0  0
  1  2  1  0
  2  3  1  0
  3  4  1  1
  3  5  1  0
  3  7  1  0
  5  6  1  0
  7  8  1  0
  8  9  1  0
  9 10  1  0
M  END
