
     RDKit          3D

 24 27  0  0  0  0  0  0  0  0999 V2000
   -4.3350    1.2430   -2.2960 N   0  0  0  0  0  0  0  0  0  0  0  0
   -3.0810    0.9130   -1.7160 C   0  0  0  0  0  0  0  0  0  0  0  0
   -1.9270    1.1120   -2.4820 C   0  0  0  0  0  0  0  0  0  0  0  0
   -0.7220    0.7980   -1.9130 C   0  0  0  0  0  0  0  0  0  0  0  0
   -0.6300    0.3040   -0.6330 C   0  0  0  0  0  0  0  0  0  0  0  0
    0.5930   -0.0140   -0.0550 O   0  0  0  0  0  0  0  0  0  0  0  0
    1.7580    0.1830   -0.8200 C   0  0  0  0  0  0  0  0  0  0  0  0
    2.9430   -0.2310    0.0200 C   0  0  0  0  0  0  0  0  0  0  0  0
    2.7270   -0.6370    1.1310 O   0  0  0  0  0  0  0  0  0  0  0  0
    4.2270   -0.1380   -0.4960 N   0  0  0  0  0  0  0  0  0  0  0  0
    5.4890   -0.4500    0.0580 C   0  0  0  0  0  0  0  0  0  0  0  0
    5.7880   -0.9190    1.2270 C   0  0  0  0  0  0  0  0  0  0  0  0
    4.4500   -1.3160    2.5520 Br  0  0  0  0  0  0  0  0  0  0  0  0
    7.1800   -1.2100    1.6990 C   0  0  0  0  0  0  0  0  0  0  0  0
    8.1960   -0.9470    0.7930 O   0  0  0  0  0  0  0  0  0  0  0  0
    7.8820   -0.4470   -0.4530 C   0  0  0  0  0  0  0  0  0  0  0  0
    6.6750   -0.2050   -0.8330 C   0  0  0  0  0  0  0  0  0  0  0  0
   -1.8200    0.1260    0.0840 C   0  0  0  0  0  0  0  0  0  0  0  0
   -3.0590    0.4240   -0.4360 C   0  0  0  0  0  0  0  0  0  0  0  0
   -4.2800    0.2180    0.3390 C   0  0  0  0  0  0  0  0  0  0  0  0
   -4.2440   -0.2290    1.5900 C   0  0  0  0  0  0  0  0  0  0  0  0
   -5.5510   -0.3490    2.1380 N   0  0  0  0  0  0  0  0  0  0  0  0
   -6.4190   -0.4380    0.9900 C   0  0  0  0  0  0  0  0  0  0  0  0
   -5.6810    0.4190   -0.0150 C   0  0  0  0  0  0  0  0  0  0  0  0
  1  2  1  0
  2  3  2  0
  2 19  1  0
  3  4  1  0
  4  5  2  0
  5  6  1  0
  5 18  1  0
  6  7  1  0
  7  8  1  0
  8  9  2  0
  8 10  1  0
 10 11  1  0
 11 12  2  0
 11 17  1  0
 12 13  1  0
 12 14  1  0
 14 15  1  0
 15 16  1  0
 16 17  2  0
 18 19  2  0
 19 20  1  0
 20 21  2  0
 20 24  1  0
 21 22  1  0
 22 23  1  0
 23 24  1  0
 13  9  1  0
M  CHG  1  22   1
M  END
