
     RDKit          3D

 23 25  0  0  0  0  0  0  0  0999 V2000
   -0.5630    3.5630    1.4870 N   0  0  0  0  0  0  0  0  0  0  0  0
   -0.8690    2.2370    1.0470 C   0  0  0  0  0  0  0  0  0  0  0  0
   -2.0430    1.8670    1.1660 O   0  0  0  0  0  0  0  0  0  0  0  0
    0.1570    1.3970    0.4990 C   0  0  0  0  0  0  0  0  0  0  0  0
    1.3950    1.9340    0.4310 C   0  0  0  0  0  0  0  0  0  0  0  0
    2.5420    1.2310   -0.0920 C   0  0  0  0  0  0  0  0  0  0  0  0
    3.8190    1.8420   -0.1400 N   0  0  0  0  0  0  0  0  0  0  0  0
    2.3810   -0.0280   -0.5380 C   0  0  0  0  0  0  0  0  0  0  0  0
    3.5810   -0.7150   -1.0660 C   0  0  0  0  0  0  0  0  0  0  0  0
    3.4260   -2.2030   -0.9160 C   0  0  0  0  0  0  0  0  0  0  0  0
    2.1050   -2.6620   -1.4850 C   0  0  0  0  0  0  0  0  0  0  0  0
    0.9600   -1.9150   -0.9460 C   0  0  0  0  0  0  0  0  0  0  0  0
   -0.7730   -2.7850   -0.8960 Br  0  0  0  0  0  0  0  0  0  0  0  0
    1.1090   -0.6820   -0.5070 C   0  0  0  0  0  0  0  0  0  0  0  0
   -0.1120    0.0410    0.0400 C   0  0  0  0  0  0  0  0  0  0  0  0
   -1.1630   -0.5830    0.0320 N   0  0  0  0  0  0  0  0  0  0  0  0
   -2.4820   -0.6430    0.3000 C   0  0  0  0  0  0  0  0  0  0  0  0
   -3.0370   -1.0850    1.5110 C   0  0  0  0  0  0  0  0  0  0  0  0
   -4.3740   -1.1580    1.7630 C   0  0  0  0  0  0  0  0  0  0  0  0
   -5.2780   -0.7770    0.7780 C   0  0  0  0  0  0  0  0  0  0  0  0
   -4.7730   -0.3340   -0.4300 C   0  0  0  0  0  0  0  0  0  0  0  0
   -3.4290   -0.2640   -0.6750 C   0  0  0  0  0  0  0  0  0  0  0  0
   -2.9860    0.1870   -1.9060 O   0  0  0  0  0  0  0  0  0  0  0  0
  1  2  1  0
  2  3  2  0
  2  4  1  0
  4  5  2  0
  4 15  1  0
  5  6  1  0
  6  7  1  0
  6  8  2  0
  8  9  1  0
  8 14  1  0
  9 10  1  0
 10 11  1  0
 11 12  1  0
 12 13  1  0
 12 14  2  0
 14 15  1  0
 15 16  2  3
 16 17  1  0
 17 18  2  0
 17 22  1  0
 18 19  1  0
 19 20  2  0
 20 21  1  0
 21 22  2  0
 22 23  1  0
M  CHG  1   7   1
M  END
