
     RDKit          3D

 24 26  0  0  0  0  0  0  0  0999 V2000
    6.2240   -1.6130   -2.2560 N   0  0  0  0  0  0  0  0  0  0  0  0
    4.8600   -1.5500   -1.7130 C   0  0  0  0  0  0  0  0  0  0  0  0
    4.4350   -0.1500   -1.4410 C   0  0  0  0  0  0  0  0  0  0  0  0
    3.1640   -0.0640   -0.9310 O   0  0  0  0  0  0  0  0  0  0  0  0
    2.5300   -0.4620    0.1710 C   0  0  0  0  0  0  0  0  0  0  0  0
    3.1360   -1.1260    1.2010 C   0  0  0  0  0  0  0  0  0  0  0  0
    2.4260   -1.5250    2.3320 C   0  0  0  0  0  0  0  0  0  0  0  0
    3.3100   -2.4560    3.7570 Br  0  0  0  0  0  0  0  0  0  0  0  0
    1.0980   -1.2320    2.3870 C   0  0  0  0  0  0  0  0  0  0  0  0
    0.4100   -0.5560    1.3730 C   0  0  0  0  0  0  0  0  0  0  0  0
   -1.0270   -0.2940    1.5420 C   0  0  0  0  0  0  0  0  0  0  0  0
   -1.5650   -0.7110    2.6280 O   0  0  0  0  0  0  0  0  0  0  0  0
   -1.8800    0.3590    0.6560 N   0  0  0  0  0  0  0  0  0  0  0  0
   -3.2650    0.6250    0.7920 C   0  0  0  0  0  0  0  0  0  0  0  0
   -4.0550    0.2790    1.8570 C   0  0  0  0  0  0  0  0  0  0  0  0
   -5.4260    0.5920    1.8930 C   0  0  0  0  0  0  0  0  0  0  0  0
   -6.0350    1.2570    0.8650 C   0  0  0  0  0  0  0  0  0  0  0  0
   -5.2620    1.6150   -0.2180 C   0  0  0  0  0  0  0  0  0  0  0  0
   -5.6110    2.2830   -1.3780 C   0  0  0  0  0  0  0  0  0  0  0  0
   -4.4520    2.3710   -2.1070 C   0  0  0  0  0  0  0  0  0  0  0  0
   -3.4420    1.7750   -1.4080 N   0  0  0  0  0  0  0  0  0  0  0  0
   -3.9200    1.3040   -0.2440 C   0  0  0  0  0  0  0  0  0  0  0  0
    1.1530   -0.1910    0.2920 C   0  0  0  0  0  0  0  0  0  0  0  0
    0.5810    0.4740   -0.7540 O   0  0  0  0  0  0  0  0  0  0  0  0
  1  2  1  0
  2  3  1  0
  3  4  1  0
  4  5  1  0
  5  6  2  0
  5 23  1  0
  6  7  1  0
  7  8  1  0
  7  9  2  0
  9 10  1  0
 10 11  1  0
 10 23  2  0
 11 12  2  0
 11 13  1  0
 13 14  1  0
 14 15  2  0
 14 22  1  0
 15 16  1  0
 16 17  2  0
 17 18  1  0
 18 19  1  0
 18 22  2  0
 19 20  2  0
 20 21  1  0
 21 22  1  0
 23 24  1  0
M  CHG  1   1   1
M  END
