
     RDKit          3D

 24 26  0  0  0  0  0  0  0  0999 V2000
    5.6150    1.4090    0.8830 N   0  0  0  0  0  0  0  0  0  0  0  0
    5.0740    0.1950    1.4810 C   0  0  0  0  0  0  0  0  0  0  0  0
    3.7770   -0.0780    0.8270 C   0  0  0  0  0  0  0  0  0  0  0  0
    3.6890   -0.8510   -0.3000 C   0  0  0  0  0  0  0  0  0  0  0  0
    2.4790   -1.1290   -0.9460 C   0  0  0  0  0  0  0  0  0  0  0  0
    2.4680   -1.9250   -2.0630 C   0  0  0  0  0  0  0  0  0  0  0  0
    1.2790   -2.1890   -2.6600 C   0  0  0  0  0  0  0  0  0  0  0  0
    0.0940   -1.6630   -2.1490 C   0  0  0  0  0  0  0  0  0  0  0  0
    0.1050   -0.8580   -1.0190 C   0  0  0  0  0  0  0  0  0  0  0  0
   -1.0720   -0.2610   -0.5460 N   0  0  0  0  0  0  0  0  0  0  0  0
   -2.3910   -0.6610   -0.8720 C   0  0  0  0  0  0  0  0  0  0  0  0
   -2.6030   -1.6100   -1.6240 O   0  0  0  0  0  0  0  0  0  0  0  0
   -3.5870    0.0330   -0.3340 C   0  0  0  0  0  0  0  0  0  0  0  0
   -4.8260   -0.1730   -0.9340 C   0  0  0  0  0  0  0  0  0  0  0  0
   -5.9440    0.4560   -0.4450 C   0  0  0  0  0  0  0  0  0  0  0  0
   -5.9070    1.3030    0.6370 C   0  0  0  0  0  0  0  0  0  0  0  0
   -7.0120    1.9550    1.1590 O   0  0  0  0  0  0  0  0  0  0  0  0
   -4.6760    1.4960    1.2180 C   0  0  0  0  0  0  0  0  0  0  0  0
   -4.5270    2.6580    2.7290 Br  0  0  0  0  0  0  0  0  0  0  0  0
   -3.5180    0.8700    0.7440 C   0  0  0  0  0  0  0  0  0  0  0  0
    1.3180   -0.5880   -0.4060 C   0  0  0  0  0  0  0  0  0  0  0  0
    1.4400    0.1760    0.7160 C   0  0  0  0  0  0  0  0  0  0  0  0
    0.4490    0.6990    1.2730 O   0  0  0  0  0  0  0  0  0  0  0  0
    2.6490    0.4290    1.3250 N   0  0  0  0  0  0  0  0  0  0  0  0
  1  2  1  0
  2  3  1  0
  3  4  2  0
  3 24  1  0
  4  5  1  0
  5  6  2  0
  5 21  1  0
  6  7  1  0
  7  8  2  0
  8  9  1  0
  9 10  1  0
  9 21  2  0
 10 11  1  0
 11 12  2  0
 11 13  1  0
 13 14  2  0
 13 20  1  0
 14 15  1  0
 15 16  2  0
 16 17  1  0
 16 18  1  0
 18 19  1  0
 18 20  2  0
 21 22  1  0
 22 23  2  0
 22 24  1  0
M  CHG  1   1   1
M  END
