
     RDKit          3D

 26 29  0  0  0  0  0  0  0  0999 V2000
   -5.0030   -1.3490    1.4760 O   0  0  0  0  0  0  0  0  0  0  0  0
   -5.2770   -0.4370    0.4790 C   0  0  0  0  0  0  0  0  0  0  0  0
   -6.5100    0.1870    0.4260 C   0  0  0  0  0  0  0  0  0  0  0  0
   -6.7980    1.1030   -0.5680 C   0  0  0  0  0  0  0  0  0  0  0  0
   -5.8340    1.3810   -1.5010 C   0  0  0  0  0  0  0  0  0  0  0  0
   -4.6100    0.7520   -1.4370 C   0  0  0  0  0  0  0  0  0  0  0  0
   -4.3030   -0.1690   -0.4480 C   0  0  0  0  0  0  0  0  0  0  0  0
   -3.0560   -0.7320   -0.4800 O   0  0  0  0  0  0  0  0  0  0  0  0
   -2.5900   -1.6710    0.4350 C   0  0  0  0  0  0  0  0  0  0  0  0
   -1.3990   -1.4210    0.9820 C   0  0  0  0  0  0  0  0  0  0  0  0
   -0.9100   -2.3730    1.9200 N   0  0  0  0  0  0  0  0  0  0  0  0
    0.3320   -2.6300    2.1160 N   0  0  0  0  0  0  0  0  0  0  0  0
    1.4310   -2.0200    1.4400 C   0  0  0  0  0  0  0  0  0  0  0  0
    1.6500   -0.8460    0.8770 C   0  0  0  0  0  0  0  0  0  0  0  0
    3.0070   -0.7060    0.2910 C   0  0  1  0  0  0  0  0  0  0  0  0
    3.0980   -0.8530   -1.1880 C   0  0  0  0  0  0  0  0  0  0  0  0
    4.2420    0.0620   -1.6420 C   0  0  0  0  0  0  0  0  0  0  0  0
    5.4540   -0.2000   -0.8950 N   0  0  0  0  0  0  0  0  0  0  0  0
    5.3130   -0.0010    0.5300 C   0  0  0  0  0  0  0  0  0  0  0  0
    3.8500    0.3860    0.8560 C   0  0  0  0  0  0  0  0  0  0  0  0
    0.6660    0.2580    0.8490 C   0  0  1  0  0  0  0  0  0  0  0  0
    1.0860    1.4940    0.2150 C   0  0  0  0  0  0  0  0  0  0  0  0
    0.0350    2.2700   -0.4400 C   0  0  0  0  0  0  0  0  0  0  0  0
   -1.1900    1.8360   -0.5600 C   0  0  0  0  0  0  0  0  0  0  0  0
   -1.5610    0.5820   -0.0460 N   0  0  0  0  0  0  0  0  0  0  0  0
   -0.7000   -0.1890    0.5800 C   0  0  0  0  0  0  0  0  0  0  0  0
  1  2  1  0
  2  3  2  0
  2  7  1  0
  3  4  1  0
  4  5  2  0
  5  6  1  0
  6  7  2  0
  7  8  1  0
  8  9  1  0
  9 10  2  3
 10 11  1  0
 10 26  1  0
 11 12  2  0
 12 13  1  0
 13 14  2  0
 15 14  1  6
 14 21  1  0
 15 16  1  0
 15 20  1  0
 16 17  1  0
 17 18  1  0
 18 19  1  0
 19 20  1  0
 21 22  1  6
 21 26  1  0
 22 23  1  0
 23 24  2  0
 24 25  1  0
 25 26  2  0
M  CHG  1  18   1
M  END
