
     RDKit          3D

 27 30  0  0  0  0  0  0  0  0999 V2000
   -5.7260    1.3580   -1.9110 C   0  0  0  0  0  0  0  0  0  0  0  0
   -4.7300    0.7420   -0.9670 C   0  0  0  0  0  0  0  0  0  0  0  0
   -3.5660    0.1860   -1.4300 C   0  0  0  0  0  0  0  0  0  0  0  0
   -2.6480   -0.3860   -0.5180 C   0  0  0  0  0  0  0  0  0  0  0  0
   -1.4570   -0.9570   -1.1380 C   0  0  1  0  0  0  0  0  0  0  0  0
   -0.8800   -0.0430   -2.1140 N   0  0  0  0  0  0  0  0  0  0  0  0
    0.4450    0.4360   -2.0480 C   0  0  0  0  0  0  0  0  0  0  0  0
    0.8680    1.3680   -2.8130 O   0  0  0  0  0  0  0  0  0  0  0  0
    1.3560   -0.1630   -1.0670 C   0  0  0  0  0  0  0  0  0  0  0  0
    2.6490    0.2920   -0.9950 C   0  0  0  0  0  0  0  0  0  0  0  0
    3.5180   -0.2810   -0.0580 C   0  0  0  0  0  0  0  0  0  0  0  0
    4.8990    0.2160    0.0080 C   0  0  0  0  0  0  0  0  0  0  0  0
    5.8460   -0.2540    0.8730 C   0  0  0  0  0  0  0  0  0  0  0  0
    7.1470    0.2680    0.8810 C   0  0  0  0  0  0  0  0  0  0  0  0
    7.4520    1.2670   -0.0030 C   0  0  0  0  0  0  0  0  0  0  0  0
    6.4830    1.7280   -0.8680 C   0  0  0  0  0  0  0  0  0  0  0  0
    5.2570    1.2020   -0.8410 N   0  0  0  0  0  0  0  0  0  0  0  0
    2.9860   -1.2680    0.7200 C   0  0  0  0  0  0  0  0  0  0  0  0
    3.6990   -1.8350    1.5870 O   0  0  0  0  0  0  0  0  0  0  0  0
    1.6890   -1.6970    0.6200 N   0  0  0  0  0  0  0  0  0  0  0  0
    0.8550   -1.1530   -0.2730 C   0  0  0  0  0  0  0  0  0  0  0  0
   -0.5030   -1.6240   -0.3540 N   0  0  0  0  0  0  0  0  0  0  0  0
   -2.9210   -0.3830    0.8050 C   0  0  0  0  0  0  0  0  0  0  0  0
   -2.0170   -0.9600    1.7950 C   0  0  0  0  0  0  0  0  0  0  0  0
   -4.1260    0.1990    1.2300 C   0  0  0  0  0  0  0  0  0  0  0  0
   -4.4080    0.1920    2.6770 C   0  0  0  0  0  0  0  0  0  0  0  0
   -4.9840    0.7370    0.3500 N   0  0  0  0  0  0  0  0  0  0  0  0
  1  2  1  0
  2  3  2  0
  2 27  1  0
  3  4  1  0
  5  4  1  1
  4 23  2  0
  5  6  1  0
  5 22  1  0
  6  7  1  0
  7  8  2  0
  7  9  1  0
  9 10  1  0
  9 21  2  0
 10 11  2  0
 11 12  1  0
 11 18  1  0
 12 13  2  0
 12 17  1  0
 13 14  1  0
 14 15  2  0
 15 16  1  0
 16 17  2  0
 18 19  2  0
 18 20  1  0
 20 21  1  0
 21 22  1  0
 23 24  1  0
 23 25  1  0
 25 26  1  0
 25 27  2  0
M  CHG  1  27   1
M  END
