
     RDKit          3D

 24 25  0  0  0  0  0  0  0  0999 V2000
   -6.6180    1.4690    1.1610 C   0  0  0  0  0  0  0  0  0  0  0  0
   -5.1420    1.5690    1.1170 C   0  0  0  0  0  0  0  0  0  0  0  0
   -4.4660    0.9630    0.1610 C   0  0  0  0  0  0  0  0  0  0  0  0
   -5.2040    0.1940   -0.8520 C   0  0  0  0  0  0  0  0  0  0  0  0
   -4.6000   -0.4350   -1.8390 C   0  0  0  0  0  0  0  0  0  0  0  0
   -5.6610   -1.3990   -3.0890 Br  0  0  0  0  0  0  0  0  0  0  0  0
   -2.9740    1.0520    0.0960 C   0  0  0  0  0  0  0  0  0  0  0  0
   -2.3750   -0.2750    0.1970 C   0  0  0  0  0  0  0  0  0  0  0  0
   -1.0590   -0.4870    0.1810 C   0  0  0  0  0  0  0  0  0  0  0  0
   -0.1820    0.5580    0.0660 C   0  0  0  0  0  0  0  0  0  0  0  0
    1.1940    0.3630    0.0470 C   0  0  0  0  0  0  0  0  0  0  0  0
    2.0530    1.3970   -0.0660 N   0  0  0  0  0  0  0  0  0  0  0  0
    3.3930    1.2120   -0.0850 C   0  0  0  0  0  0  0  0  0  0  0  0
    4.1900    2.1800   -0.1910 O   0  0  0  0  0  0  0  0  0  0  0  0
    3.8800   -0.0750    0.0140 C   0  0  0  0  0  0  0  0  0  0  0  0
    5.2040   -0.3060   -0.0000 C   0  0  0  0  0  0  0  0  0  0  0  0
    6.1250    0.7600   -0.1180 N   0  0  0  0  0  0  0  0  0  0  0  0
    5.6760   -1.6040    0.1010 O   0  0  0  0  0  0  0  0  0  0  0  0
    6.8330   -1.9330   -0.6370 C   0  0  0  0  0  0  0  0  0  0  0  0
    3.0080   -1.1380    0.1310 C   0  0  0  0  0  0  0  0  0  0  0  0
    1.6340   -0.9400    0.1500 C   0  0  0  0  0  0  0  0  0  0  0  0
    0.7510   -1.9990    0.2660 C   0  0  0  0  0  0  0  0  0  0  0  0
    1.2280   -3.1570    0.3550 O   0  0  0  0  0  0  0  0  0  0  0  0
   -0.5670   -1.7290    0.2770 N   0  0  0  0  0  0  0  0  0  0  0  0
  1  2  1  0
  2  3  2  3
  3  4  1  0
  3  7  1  0
  4  5  2  3
  5  6  1  0
  7  8  1  0
  8  9  2  3
  9 10  1  0
  9 24  1  0
 10 11  2  0
 11 12  1  0
 11 21  1  0
 12 13  1  0
 13 14  2  0
 13 15  1  0
 15 16  2  3
 15 20  1  0
 16 17  1  0
 16 18  1  0
 18 19  1  0
 20 21  2  0
 21 22  1  0
 22 23  2  0
 22 24  1  0
M  END
