
     RDKit          3D

 15 15  0  0  0  0  0  0  0  0999 V2000
   -3.7230   -0.4520   -0.5420 C   0  0  0  0  0  0  0  0  0  0  0  0
   -2.8050   -0.5520    0.5980 C   0  0  0  0  0  0  0  0  0  0  0  0
   -3.3040   -0.9010    1.9480 C   0  0  0  0  0  0  0  0  0  0  0  0
   -1.5210   -0.3320    0.4360 C   0  0  0  0  0  0  0  0  0  0  0  0
   -1.0230    0.0150   -0.9010 C   0  0  0  0  0  0  0  0  0  0  0  0
    0.2630    0.2480   -1.1210 C   0  0  0  0  0  0  0  0  0  0  0  0
    1.2290    0.1720   -0.0680 N   0  0  0  0  0  0  0  0  0  0  0  0
    2.4850    0.3930   -0.2540 C   0  0  0  0  0  0  0  0  0  0  0  0
    3.4350    0.3050    0.8490 C   0  0  0  0  0  0  0  0  0  0  0  0
    4.6980    0.5120    0.7390 N   0  0  0  0  0  0  0  0  0  0  0  0
    2.9370   -0.0310    2.1350 N   0  0  0  0  0  0  0  0  0  0  0  0
    2.8960    0.7240   -1.5740 N   0  0  0  0  0  0  0  0  0  0  0  0
    1.9670    0.8140   -2.6730 C   0  0  0  0  0  0  0  0  0  0  0  0
    0.6790    0.5860   -2.4740 C   0  0  0  0  0  0  0  0  0  0  0  0
   -0.4660    0.6920   -3.8020 Cl  0  0  0  0  0  0  0  0  0  0  0  0
  1  2  1  0
  2  3  1  0
  2  4  2  3
  4  5  1  0
  5  6  2  3
  6  7  1  0
  6 14  1  0
  7  8  2  0
  8  9  1  0
  8 12  1  0
  9 10  2  0
  9 11  1  0
 12 13  1  0
 13 14  2  0
 14 15  1  0
M  END
