
     RDKit          3D

 16 17  0  0  0  0  0  0  0  0999 V2000
    0.3860    1.3500    0.4170 O   0  0  0  0  0  0  0  0  0  0  0  0
    0.4680    0.1680    0.0760 C   0  0  0  0  0  0  0  0  0  0  0  0
    1.7080   -0.4650   -0.0410 N   0  0  0  0  0  0  0  0  0  0  0  0
    2.9970    0.0680    0.1740 C   0  0  0  0  0  0  0  0  0  0  0  0
    4.1070   -0.7730    0.2190 C   0  0  0  0  0  0  0  0  0  0  0  0
    5.3400   -0.2090    0.4180 C   0  0  0  0  0  0  0  0  0  0  0  0
    5.5130    1.1490    0.5730 C   0  0  0  0  0  0  0  0  0  0  0  0
    7.1150    1.8280    0.8260 Cl  0  0  0  0  0  0  0  0  0  0  0  0
    4.4340    1.9330    0.5260 N   0  0  0  0  0  0  0  0  0  0  0  0
    3.1780    1.4170    0.3290 C   0  0  0  0  0  0  0  0  0  0  0  0
   -0.7770   -0.4950   -0.1840 N   0  0  0  0  0  0  0  0  0  0  0  0
   -2.0500    0.1350   -0.0690 C   0  0  2  0  0  0  0  0  0  0  0  0
   -2.9560   -0.6020    0.9150 C   0  0  0  0  0  0  0  0  0  0  0  0
   -4.2500   -0.8140    0.1900 C   0  0  0  0  0  0  0  0  0  0  0  0
   -4.2270    0.2470   -0.8010 N   0  0  0  0  0  0  0  0  0  0  0  0
   -2.8660    0.1150   -1.3170 C   0  0  0  0  0  0  0  0  0  0  0  0
  1  2  2  0
  2  3  1  0
  2 11  1  0
  3  4  1  0
  4  5  2  0
  4 10  1  0
  5  6  1  0
  6  7  2  0
  7  8  1  0
  7  9  1  0
  9 10  2  0
 12 11  1  6
 12 13  1  0
 12 16  1  0
 13 14  1  0
 14 15  1  0
 15 16  1  0
M  CHG  1  15   1
M  END
