
     RDKit          3D

 16 17  0  0  0  0  0  0  0  0999 V2000
   -2.9850    2.1690   -0.0420 N   0  0  0  0  0  0  0  0  0  0  0  0
   -2.6250    0.7920   -0.1730 C   0  0  0  0  0  0  0  0  0  0  0  0
   -3.6130   -0.1000   -0.3270 N   0  0  0  0  0  0  0  0  0  0  0  0
   -3.3000   -1.4020   -0.4530 C   0  0  0  0  0  0  0  0  0  0  0  0
   -4.2260   -2.2550   -0.6000 O   0  0  0  0  0  0  0  0  0  0  0  0
   -1.9740   -1.7660   -0.4180 C   0  0  0  0  0  0  0  0  0  0  0  0
   -1.5370   -3.4470   -0.5770 Cl  0  0  0  0  0  0  0  0  0  0  0  0
   -0.9310   -0.8460   -0.2570 C   0  0  0  0  0  0  0  0  0  0  0  0
    0.4150   -1.2780   -0.2630 N   0  0  0  0  0  0  0  0  0  0  0  0
    1.5700   -0.5150   -0.0670 C   0  0  0  0  0  0  0  0  0  0  0  0
    2.6880   -0.7770   -0.8600 C   0  0  0  0  0  0  0  0  0  0  0  0
    3.8810   -0.1010   -0.7090 C   0  0  0  0  0  0  0  0  0  0  0  0
    3.9850    0.8600    0.2440 C   0  0  0  0  0  0  0  0  0  0  0  0
    2.9070    1.1520    1.0500 C   0  0  0  0  0  0  0  0  0  0  0  0
    1.6970    0.4570    0.8880 C   0  0  0  0  0  0  0  0  0  0  0  0
   -1.3010    0.4320   -0.1380 N   0  0  0  0  0  0  0  0  0  0  0  0
  1  2  1  0
  2  3  1  0
  2 16  2  0
  3  4  1  0
  4  5  2  0
  4  6  1  0
  6  7  1  0
  6  8  2  0
  8  9  1  0
  8 16  1  0
  9 10  1  0
 10 11  2  0
 10 15  1  0
 11 12  1  0
 12 13  2  0
 13 14  1  0
 14 15  2  0
M  CHG  1  16   1
M  END
