
     RDKit          3D

 16 17  0  0  0  0  0  0  0  0999 V2000
   -5.1750   -2.1580    1.1950 O   0  0  0  0  0  0  0  0  0  0  0  0
   -4.6160   -1.2390    0.5350 C   0  0  0  0  0  0  0  0  0  0  0  0
   -5.2360   -0.2160   -0.0940 N   0  0  0  0  0  0  0  0  0  0  0  0
   -4.3140    0.5400   -0.6760 N   0  0  0  0  0  0  0  0  0  0  0  0
   -3.1000    0.0240   -0.4350 C   0  0  0  0  0  0  0  0  0  0  0  0
   -1.8650    0.5650   -0.9140 N   0  0  0  0  0  0  0  0  0  0  0  0
   -0.5730   -0.0040   -0.6080 C   0  0  1  0  0  0  0  0  0  0  0  0
    0.4710    0.7580   -1.3970 C   0  0  0  0  0  0  0  0  0  0  0  0
    1.8730    0.3790   -1.0060 C   0  0  0  0  0  0  0  0  0  0  0  0
    2.1400    0.4300    0.4600 C   0  0  2  0  0  0  0  0  0  0  0  0
    3.3960   -0.3550    0.7850 C   0  0  0  0  0  0  0  0  0  0  0  0
    4.6030    0.2040    0.0690 C   0  0  0  0  0  0  0  0  0  0  0  0
    5.9980   -0.8080    0.5410 Cl  0  0  0  0  0  0  0  0  0  0  0  0
    1.0300   -0.1510    1.3080 C   0  0  0  0  0  0  0  0  0  0  0  0
   -0.3240    0.3030    0.8750 C   0  0  0  0  0  0  0  0  0  0  0  0
   -3.2830   -1.0640    0.3050 N   0  0  0  0  0  0  0  0  0  0  0  0
  1  2  2  0
  2  3  1  0
  2 16  1  0
  3  4  1  0
  4  5  1  0
  5  6  1  0
  5 16  2  0
  7  6  1  6
  7  8  1  0
  7 15  1  0
  8  9  1  0
  9 10  1  0
 10 11  1  6
 10 14  1  0
 11 12  1  0
 12 13  1  0
 14 15  1  0
M  CHG  1  16   1
M  END
