
     RDKit          3D

 16 16  0  0  0  0  0  0  0  0999 V2000
   -4.4750   -0.4120   -1.1150 C   0  0  0  0  0  0  0  0  0  0  0  0
   -3.3210   -0.3210   -0.5220 C   0  0  0  0  0  0  0  0  0  0  0  0
   -2.6350   -1.4620    0.0320 N   0  0  0  0  0  0  0  0  0  0  0  0
   -1.4700   -1.3140    0.6170 C   0  0  0  0  0  0  0  0  0  0  0  0
   -0.8030   -2.4410    1.1610 N   0  0  0  0  0  0  0  0  0  0  0  0
   -0.8420   -0.0600    0.7220 N   0  0  0  0  0  0  0  0  0  0  0  0
    0.5370    0.1900    0.7470 C   0  0  0  0  0  0  0  0  0  0  0  0
    0.9820    1.3920    0.8810 O   0  0  0  0  0  0  0  0  0  0  0  0
    1.5440   -0.7950    0.6310 N   0  0  0  0  0  0  0  0  0  0  0  0
    2.9400   -0.4320    0.6660 C   0  0  0  0  0  0  0  0  0  0  0  0
    3.3720    0.4900   -0.4380 C   0  0  0  0  0  0  0  0  0  0  0  0
    4.8700    0.8080   -0.3100 C   0  0  0  0  0  0  0  0  0  0  0  0
   -1.7400    1.1060    0.7930 C   0  0  0  0  0  0  0  0  0  0  0  0
   -2.6580    0.9720   -0.3950 C   0  0  0  0  0  0  0  0  0  0  0  0
   -2.8500    1.9510   -1.2570 C   0  0  0  0  0  0  0  0  0  0  0  0
   -2.0610    3.4840   -1.1020 Cl  0  0  0  0  0  0  0  0  0  0  0  0
  1  2  2  0
  2  3  1  0
  2 14  1  0
  3  4  2  0
  4  5  1  0
  4  6  1  0
  6  7  1  0
  6 13  1  0
  7  8  2  0
  7  9  1  0
  9 10  1  0
 10 11  1  0
 11 12  1  0
 13 14  1  0
 14 15  2  3
 15 16  1  0
M  CHG  1   3   1
M  END
