
     RDKit          3D

 16 17  0  0  0  0  0  0  0  0999 V2000
   -2.6060   -1.8000   -1.2070 C   0  0  0  0  0  0  0  0  0  0  0  0
   -2.5500   -0.6390   -0.2830 C   0  0  0  0  0  0  0  0  0  0  0  0
   -3.6960   -0.1330    0.2330 N   0  0  0  0  0  0  0  0  0  0  0  0
   -3.6930    0.9120    1.0690 C   0  0  0  0  0  0  0  0  0  0  0  0
   -5.1560    1.5880    1.7520 Cl  0  0  0  0  0  0  0  0  0  0  0  0
   -2.4900    1.4740    1.4030 C   0  0  0  0  0  0  0  0  0  0  0  0
   -1.2920    0.9650    0.8780 C   0  0  0  0  0  0  0  0  0  0  0  0
   -1.3050   -0.1050    0.0250 C   0  0  0  0  0  0  0  0  0  0  0  0
   -0.1730   -0.6830   -0.5900 N   0  0  0  0  0  0  0  0  0  0  0  0
    1.1670   -0.3400   -0.2180 C   0  0  0  0  0  0  0  0  0  0  0  0
    1.3850   -0.3050    1.0730 N   0  0  0  0  0  0  0  0  0  0  0  0
    2.6430    0.0150    1.5860 N   0  0  0  0  0  0  0  0  0  0  0  0
    3.6680    0.3000    0.6440 C   0  0  0  0  0  0  0  0  0  0  0  0
    4.8610    0.0430    0.9470 O   0  0  0  0  0  0  0  0  0  0  0  0
    3.2440    0.8910   -0.6500 C   0  0  0  0  0  0  0  0  0  0  0  0
    2.2130   -0.0650   -1.2280 C   0  0  0  0  0  0  0  0  0  0  0  0
  1  2  1  0
  2  3  2  0
  2  8  1  0
  3  4  1  0
  4  5  1  0
  4  6  2  0
  6  7  1  0
  7  8  2  0
  8  9  1  0
  9 10  1  0
 10 11  2  0
 10 16  1  0
 11 12  1  0
 12 13  1  0
 13 14  2  0
 13 15  1  0
 15 16  1  0
M  CHG  1  11   1
M  END
