
     RDKit          3D

 23 25  0  0  0  0  0  0  0  0999 V2000
    0.2340   -0.4700   -2.8440 O   0  0  0  0  0  0  0  0  0  0  0  0
    0.6840   -0.4070   -1.6460 C   0  0  0  0  0  0  0  0  0  0  0  0
    2.0770   -0.7920   -1.3980 C   0  0  0  0  0  0  0  0  0  0  0  0
    2.5250   -0.7020   -0.0380 N   0  0  0  0  0  0  0  0  0  0  0  0
    3.8610   -1.0520    0.3180 C   0  0  0  0  0  0  0  0  0  0  0  0
    4.3810   -0.9990    1.5890 C   0  0  0  0  0  0  0  0  0  0  0  0
    5.7040   -1.4100    1.5510 C   0  0  0  0  0  0  0  0  0  0  0  0
    5.9860   -1.7100    0.2720 N   0  0  0  0  0  0  0  0  0  0  0  0
    4.8800   -1.4970   -0.4850 C   0  0  0  0  0  0  0  0  0  0  0  0
   -0.2610    0.0420   -0.6900 N   0  0  0  0  0  0  0  0  0  0  0  0
   -1.5940    0.3920   -1.0330 C   0  0  0  0  0  0  0  0  0  0  0  0
   -1.9150    0.2710   -2.3500 N   0  0  0  0  0  0  0  0  0  0  0  0
   -3.1350    0.5680   -2.8090 C   0  0  0  0  0  0  0  0  0  0  0  0
   -4.0850    0.9970   -1.9760 N   0  0  0  0  0  0  0  0  0  0  0  0
   -3.8110    1.1310   -0.6710 C   0  0  0  0  0  0  0  0  0  0  0  0
   -2.5550    0.8320   -0.1590 C   0  0  0  0  0  0  0  0  0  0  0  0
   -2.2750    0.9570    1.1060 C   0  0  0  0  0  0  0  0  0  0  0  0
   -3.2580    1.4210    2.0870 C   0  0  2  0  0  0  0  0  0  0  0  0
   -2.6730    2.5040    2.7580 F   0  0  0  0  0  0  0  0  0  0  0  0
   -3.3980    0.4410    3.0780 F   0  0  0  0  0  0  0  0  0  0  0  0
   -4.6080    1.7530    1.5910 C   0  0  0  0  0  0  0  0  0  0  0  0
   -4.7850    1.5640    0.1360 C   0  0  0  0  0  0  0  0  0  0  0  0
   -6.0210    1.8590   -0.3680 F   0  0  0  0  0  0  0  0  0  0  0  0
  1  2  2  0
  2  3  1  0
  2 10  1  0
  3  4  1  0
  4  5  1  0
  5  6  1  0
  5  9  2  0
  6  7  2  0
  7  8  1  0
  8  9  1  0
 10 11  1  0
 11 12  2  0
 11 16  1  0
 12 13  1  0
 13 14  2  0
 14 15  1  0
 15 16  1  0
 15 22  2  0
 16 17  2  0
 17 18  1  0
 18 19  1  1
 18 20  1  0
 18 21  1  0
 21 22  1  0
 22 23  1  0
M  END
