
     RDKit          3D

 23 25  0  0  0  0  0  0  0  0999 V2000
    5.7530    1.3050   -0.3480 N   0  0  0  0  0  0  0  0  0  0  0  0
    4.8020    0.3070   -0.0250 C   0  0  0  0  0  0  0  0  0  0  0  0
    5.1660   -0.8790    0.4840 N   0  0  0  0  0  0  0  0  0  0  0  0
    4.1820   -1.7750    0.7690 C   0  0  0  0  0  0  0  0  0  0  0  0
    2.8990   -1.4930    0.5540 N   0  0  0  0  0  0  0  0  0  0  0  0
    2.4910   -0.3040    0.0390 C   0  0  0  0  0  0  0  0  0  0  0  0
    3.4510    0.6160   -0.2580 C   0  0  0  0  0  0  0  0  0  0  0  0
    2.4200    1.5710   -0.7250 C   0  0  0  0  0  0  0  0  0  0  0  0
    1.4150    0.5680   -0.4040 C   0  0  0  0  0  0  0  0  0  0  0  0
    0.0770    0.4610   -0.4740 C   0  0  0  0  0  0  0  0  0  0  0  0
   -0.6490   -0.7230   -0.0570 C   0  0  0  0  0  0  0  0  0  0  0  0
   -0.2540   -2.0390   -0.2780 C   0  0  0  0  0  0  0  0  0  0  0  0
   -1.1990   -2.8360    0.2950 C   0  0  0  0  0  0  0  0  0  0  0  0
   -2.1170   -2.0170    0.8330 N   0  0  0  0  0  0  0  0  0  0  0  0
   -1.7990   -0.7390    0.6280 N   0  0  0  0  0  0  0  0  0  0  0  0
   -2.6390    0.3360    1.0860 C   0  0  0  0  0  0  0  0  0  0  0  0
   -3.7140    0.6340    0.1150 C   0  0  0  0  0  0  0  0  0  0  0  0
   -4.9940    0.5040    0.4970 C   0  0  0  0  0  0  0  0  0  0  0  0
   -5.2700    0.0920    1.8030 O   0  0  0  0  0  0  0  0  0  0  0  0
   -3.4560    1.0810   -1.2740 C   0  0  1  0  0  0  0  0  0  0  0  0
   -4.6760    1.1940   -1.9500 F   0  0  0  0  0  0  0  0  0  0  0  0
   -2.8500    2.3280   -1.2850 F   0  0  0  0  0  0  0  0  0  0  0  0
   -2.6920    0.1990   -2.0030 F   0  0  0  0  0  0  0  0  0  0  0  0
  1  2  1  0
  2  3  2  0
  2  7  1  0
  3  4  1  0
  4  5  2  0
  5  6  1  0
  6  7  2  0
  6  9  1  0
  7  8  1  0
  8  9  1  0
  9 10  2  3
 10 11  1  0
 11 12  2  0
 11 15  1  0
 12 13  1  0
 13 14  2  0
 14 15  1  0
 15 16  1  0
 16 17  1  0
 17 18  2  3
 17 20  1  0
 18 19  1  0
 20 21  1  6
 20 22  1  0
 20 23  1  0
M  END
