
     RDKit          3D

 10 11  0  0  0  0  0  0  0  0999 V2000
    2.7080    1.5940   -0.3170 O   0  0  0  0  0  0  0  0  0  0  0  0
    2.0820    0.5220   -0.2210 C   0  0  0  0  0  0  0  0  0  0  0  0
    2.6160   -0.7100   -0.2370 N   0  0  0  0  0  0  0  0  0  0  0  0
    1.6050   -1.5480   -0.1110 N   0  0  0  0  0  0  0  0  0  0  0  0
    0.4270   -0.8550   -0.0140 C   0  0  0  0  0  0  0  0  0  0  0  0
    0.7330    0.4380   -0.0840 N   0  0  0  0  0  0  0  0  0  0  0  0
   -0.3160    1.3870   -0.0090 C   0  0  0  0  0  0  0  0  0  0  0  0
   -1.5790    1.0110    0.1280 C   0  0  0  0  0  0  0  0  0  0  0  0
   -2.0440   -0.3760    0.2170 C   0  0  0  0  0  0  0  0  0  0  0  0
   -0.9220   -1.2690    0.1330 N   0  0  0  0  0  0  0  0  0  0  0  0
  1  2  2  0
  2  3  1  0
  2  6  1  0
  3  4  1  0
  4  5  2  0
  5  6  1  0
  5 10  1  0
  6  7  1  0
  7  8  2  0
  8  9  1  0
  9 10  1  0
M  END
