
     RDKit          3D

 28 32  0  0  0  0  0  0  0  0999 V2000
    7.0280   -0.7600    0.0700 O   0  0  0  0  0  0  0  0  0  0  0  0
    6.6980   -2.0930   -0.0610 C   0  0  0  0  0  0  0  0  0  0  0  0
    5.5360   -2.3410   -0.9700 C   0  0  0  0  0  0  0  0  0  0  0  0
    4.3420   -1.6840   -0.5080 N   0  0  0  0  0  0  0  0  0  0  0  0
    3.9170   -0.4340   -0.8140 C   0  0  0  0  0  0  0  0  0  0  0  0
    2.7340   -0.2120   -0.1570 C   0  0  0  0  0  0  0  0  0  0  0  0
    1.9580    1.0060   -0.2220 C   0  0  0  0  0  0  0  0  0  0  0  0
    2.3220    2.1020   -0.9630 C   0  0  0  0  0  0  0  0  0  0  0  0
    1.5550    3.2050   -0.9810 N   0  0  0  0  0  0  0  0  0  0  0  0
    0.4070    3.2550   -0.2670 C   0  0  0  0  0  0  0  0  0  0  0  0
   -0.5520    4.1660   -0.0730 N   0  0  0  0  0  0  0  0  0  0  0  0
   -1.4710    3.6870    0.7390 N   0  0  0  0  0  0  0  0  0  0  0  0
   -1.1390    2.4650    1.0900 N   0  0  0  0  0  0  0  0  0  0  0  0
   -1.8130    1.5270    1.9560 C   0  0  0  0  0  0  0  0  0  0  0  0
   -2.7660    0.6620    1.2260 C   0  0  0  0  0  0  0  0  0  0  0  0
   -2.2670   -0.5310    0.7230 C   0  0  0  0  0  0  0  0  0  0  0  0
   -3.1200   -1.3670    0.0350 C   0  0  0  0  0  0  0  0  0  0  0  0
   -4.4550   -1.0020   -0.1390 C   0  0  0  0  0  0  0  0  0  0  0  0
   -5.2760   -1.8050   -0.8000 N   0  0  0  0  0  0  0  0  0  0  0  0
   -6.5540   -1.4720   -0.9750 C   0  0  0  0  0  0  0  0  0  0  0  0
   -7.0890   -0.3030   -0.4950 C   0  0  0  0  0  0  0  0  0  0  0  0
   -6.2660    0.5540    0.1960 C   0  0  0  0  0  0  0  0  0  0  0  0
   -4.9400    0.1830    0.3640 C   0  0  0  0  0  0  0  0  0  0  0  0
   -4.0730    1.0020    1.0460 C   0  0  0  0  0  0  0  0  0  0  0  0
    0.0360    2.1610    0.4760 C   0  0  0  0  0  0  0  0  0  0  0  0
    0.8220    1.0690    0.4770 N   0  0  0  0  0  0  0  0  0  0  0  0
    2.4650   -1.3630    0.5480 C   0  0  0  0  0  0  0  0  0  0  0  0
    3.4620   -2.2550    0.3200 N   0  0  0  0  0  0  0  0  0  0  0  0
  1  2  1  0
  2  3  1  0
  3  4  1  0
  4  5  1  0
  4 28  1  0
  5  6  2  0
  6  7  1  0
  6 27  1  0
  7  8  2  0
  7 26  1  0
  8  9  1  0
  9 10  2  0
 10 11  1  0
 10 25  1  0
 11 12  2  0
 12 13  1  0
 13 14  1  0
 13 25  1  0
 14 15  1  0
 15 16  2  0
 15 24  1  0
 16 17  1  0
 17 18  2  0
 18 19  1  0
 18 23  1  0
 19 20  2  0
 20 21  1  0
 21 22  2  0
 22 23  1  0
 23 24  2  0
 25 26  2  0
 27 28  2  0
M  END
