
     RDKit          3D

 23 24  0  0  0  0  0  0  0  0999 V2000
   -4.0450   -2.1930   -0.4550 C   0  0  0  0  0  0  0  0  0  0  0  0
   -2.8570   -1.3030   -0.4570 C   0  0  0  0  0  0  0  0  0  0  0  0
   -3.0400   -0.0020   -0.2670 C   0  0  0  0  0  0  0  0  0  0  0  0
   -4.4160    0.4520   -0.0690 C   0  0  0  0  0  0  0  0  0  0  0  0
   -4.8610    1.6880    0.1430 C   0  0  0  0  0  0  0  0  0  0  0  0
   -4.1130    2.8800    0.2310 N   0  0  0  0  0  0  0  0  0  0  0  0
   -2.8450    3.1180    0.1350 C   0  0  0  0  0  0  0  0  0  0  0  0
   -1.7780    2.1420   -0.1070 C   0  0  0  0  0  0  0  0  0  0  0  0
   -1.8400    0.8320   -0.2780 C   0  0  0  0  0  0  0  0  0  0  0  0
   -0.5870    0.1590   -0.4990 N   0  0  0  0  0  0  0  0  0  0  0  0
    0.3750    0.2740    0.6140 C   0  0  0  0  0  0  0  0  0  0  0  0
    1.6290   -0.4270    0.3360 C   0  0  0  0  0  0  0  0  0  0  0  0
    2.7860    0.1450    0.2580 C   0  0  0  0  0  0  0  0  0  0  0  0
    2.9870    1.5810    0.4360 C   0  0  1  0  0  0  0  0  0  0  0  0
    1.9100    2.3970    0.2670 F   0  0  0  0  0  0  0  0  0  0  0  0
    3.6310    1.8180    1.6500 F   0  0  0  0  0  0  0  0  0  0  0  0
    3.9200    2.0280   -0.5220 F   0  0  0  0  0  0  0  0  0  0  0  0
    4.0050   -0.6030    0.0010 N   0  0  0  0  0  0  0  0  0  0  0  0
    5.2960    0.0420   -0.0850 C   0  0  0  0  0  0  0  0  0  0  0  0
    3.9210   -2.0030   -0.1710 C   0  0  0  0  0  0  0  0  0  0  0  0
    4.9600   -2.7110   -0.3980 O   0  0  0  0  0  0  0  0  0  0  0  0
    2.6540   -2.6310   -0.0870 N   0  0  0  0  0  0  0  0  0  0  0  0
    1.5230   -1.8670    0.1610 N   0  0  0  0  0  0  0  0  0  0  0  0
  1  2  1  0
  2  3  2  3
  3  4  1  0
  3  9  1  0
  4  5  2  0
  5  6  1  0
  6  7  2  0
  7  8  1  0
  8  9  2  0
  9 10  1  0
 10 11  1  0
 11 12  1  0
 12 13  2  0
 12 23  1  0
 13 14  1  0
 13 18  1  0
 14 15  1  1
 14 16  1  0
 14 17  1  0
 18 19  1  0
 18 20  1  0
 20 21  2  0
 20 22  1  0
 22 23  1  0
M  END
