
     RDKit          3D

 23 25  0  0  0  0  0  0  0  0999 V2000
    4.3310    2.7970   -0.8800 O   0  0  0  0  0  0  0  0  0  0  0  0
    4.4660    1.6890   -0.0860 C   0  0  0  0  0  0  0  0  0  0  0  0
    5.5480    1.2500    0.6150 C   0  0  0  0  0  0  0  0  0  0  0  0
    5.2790    0.1250    1.2700 N   0  0  0  0  0  0  0  0  0  0  0  0
    3.9910   -0.1640    0.9830 C   0  0  0  0  0  0  0  0  0  0  0  0
    3.4140    0.7600    0.1440 C   0  0  0  0  0  0  0  0  0  0  0  0
    2.1200    0.9220   -0.3640 N   0  0  0  0  0  0  0  0  0  0  0  0
    1.1270   -0.0450   -0.4900 C   0  0  0  0  0  0  0  0  0  0  0  0
    1.3780   -1.3750   -0.3110 C   0  0  0  0  0  0  0  0  0  0  0  0
    0.3160   -2.2800   -0.4010 C   0  0  0  0  0  0  0  0  0  0  0  0
   -0.8860   -1.8020   -0.6580 N   0  0  0  0  0  0  0  0  0  0  0  0
   -1.1700   -0.5020   -0.8410 C   0  0  0  0  0  0  0  0  0  0  0  0
   -2.5790   -0.1500   -1.1220 C   0  0  2  0  0  0  0  0  0  0  0  0
   -3.3660    0.1230    0.0810 C   0  0  0  0  0  0  0  0  0  0  0  0
   -4.0880   -0.7940    0.8190 C   0  0  0  0  0  0  0  0  0  0  0  0
   -4.6980   -0.1510    1.8890 C   0  0  0  0  0  0  0  0  0  0  0  0
   -4.3280    1.1640    1.7760 C   0  0  0  0  0  0  0  0  0  0  0  0
   -3.5350    1.3020    0.6920 N   0  0  0  0  0  0  0  0  0  0  0  0
   -3.1670   -1.2820   -1.9560 C   0  0  1  0  0  0  0  0  0  0  0  0
   -4.4830   -1.0530   -2.2740 F   0  0  0  0  0  0  0  0  0  0  0  0
   -2.3620   -1.3970   -3.0770 F   0  0  0  0  0  0  0  0  0  0  0  0
   -3.0170   -2.4580   -1.2230 F   0  0  0  0  0  0  0  0  0  0  0  0
   -0.1760    0.3580   -0.7570 N   0  0  0  0  0  0  0  0  0  0  0  0
  1  2  1  0
  2  3  2  0
  2  6  1  0
  3  4  1  0
  4  5  1  0
  5  6  2  0
  6  7  1  0
  7  8  1  0
  8  9  2  0
  8 23  1  0
  9 10  1  0
 10 11  2  0
 11 12  1  0
 13 12  1  1
 12 23  2  0
 13 14  1  0
 13 19  1  0
 14 15  2  0
 14 18  1  0
 15 16  1  0
 16 17  2  0
 17 18  1  0
 19 20  1  6
 19 21  1  0
 19 22  1  0
M  END
