
     RDKit          3D

 23 25  0  0  0  0  0  0  0  0999 V2000
   -2.0270   -2.0630    1.6530 N   0  0  0  0  0  0  0  0  0  0  0  0
   -2.5690   -1.3200    0.5780 C   0  0  0  0  0  0  0  0  0  0  0  0
   -3.8090   -1.6340    0.0310 C   0  0  0  0  0  0  0  0  0  0  0  0
   -4.3100   -0.9010   -1.0220 C   0  0  0  0  0  0  0  0  0  0  0  0
   -3.5340    0.1420   -1.4970 C   0  0  0  0  0  0  0  0  0  0  0  0
   -2.3120    0.4600   -0.9670 C   0  0  0  0  0  0  0  0  0  0  0  0
   -1.5150    1.4830   -1.4300 C   0  0  0  0  0  0  0  0  0  0  0  0
   -0.2910    1.7300   -0.8510 C   0  0  0  0  0  0  0  0  0  0  0  0
    0.2010    0.9690    0.2180 C   0  0  0  0  0  0  0  0  0  0  0  0
    1.4880    1.3040    0.7400 N   0  0  0  0  0  0  0  0  0  0  0  0
    2.6340    0.7020    0.4840 C   0  0  0  0  0  0  0  0  0  0  0  0
    2.9500   -0.4730   -0.3040 C   0  0  0  0  0  0  0  0  0  0  0  0
    2.2750   -1.7530   -0.1100 C   0  0  0  0  0  0  0  0  0  0  0  0
    2.7830   -2.7430   -0.9540 F   0  0  0  0  0  0  0  0  0  0  0  0
    3.9200   -0.3600   -1.2050 C   0  0  0  0  0  0  0  0  0  0  0  0
    4.5820    0.7770   -1.3820 F   0  0  0  0  0  0  0  0  0  0  0  0
    4.2680   -1.4170   -1.9910 F   0  0  0  0  0  0  0  0  0  0  0  0
    3.5970    1.3880    1.1700 N   0  0  0  0  0  0  0  0  0  0  0  0
    3.0670    2.3790    1.8300 N   0  0  0  0  0  0  0  0  0  0  0  0
    1.7540    2.3440    1.5770 C   0  0  0  0  0  0  0  0  0  0  0  0
    0.8850    3.1280    2.0220 O   0  0  0  0  0  0  0  0  0  0  0  0
   -0.5970   -0.0070    0.6380 N   0  0  0  0  0  0  0  0  0  0  0  0
   -1.7990   -0.2800    0.1000 C   0  0  0  0  0  0  0  0  0  0  0  0
  1  2  1  0
  2  3  2  0
  2 23  1  0
  3  4  1  0
  4  5  2  0
  5  6  1  0
  6  7  2  0
  6 23  1  0
  7  8  1  0
  8  9  2  0
  9 10  1  0
  9 22  1  0
 10 11  1  0
 10 20  1  0
 11 12  1  0
 11 18  2  0
 12 13  1  0
 12 15  2  3
 13 14  1  0
 15 16  1  0
 15 17  1  0
 18 19  1  0
 19 20  1  0
 20 21  2  0
 22 23  2  0
M  END
