
     RDKit          3D

 10 11  0  0  0  0  0  0  0  0999 V2000
    2.6570    1.5940    0.0930 O   0  0  0  0  0  0  0  0  0  0  0  0
    1.9860    0.5420   -0.0070 C   0  0  0  0  0  0  0  0  0  0  0  0
    2.5120   -0.6770   -0.1720 N   0  0  0  0  0  0  0  0  0  0  0  0
    1.4800   -1.4930   -0.2300 N   0  0  0  0  0  0  0  0  0  0  0  0
    0.3100   -0.7870   -0.1010 C   0  0  0  0  0  0  0  0  0  0  0  0
    0.6460    0.4980    0.0390 N   0  0  0  0  0  0  0  0  0  0  0  0
   -0.3780    1.4820    0.1960 C   0  0  0  0  0  0  0  0  0  0  0  0
   -1.6400    1.1350    0.2030 C   0  0  0  0  0  0  0  0  0  0  0  0
   -2.0190   -0.1980    0.0590 N   0  0  0  0  0  0  0  0  0  0  0  0
   -1.0730   -1.2620   -0.1050 C   0  0  0  0  0  0  0  0  0  0  0  0
  1  2  2  0
  2  3  1  0
  2  6  1  0
  3  4  1  0
  4  5  2  0
  5  6  1  0
  5 10  1  0
  6  7  1  0
  7  8  2  0
  8  9  1  0
  9 10  1  0
M  END
