
     RDKit          3D

 37 39  0  0  0  0  0  0  0  0999 V2000
    5.4960    4.5940   -0.5300 O   0  0  0  0  0  0  0  0  0  0  0  0
    4.8670    3.5140   -0.2620 C   0  0  0  0  0  0  0  0  0  0  0  0
    3.5430    3.5340    0.2490 N   0  0  0  0  0  0  0  0  0  0  0  0
    3.0120    2.5800    1.1960 C   0  0  0  0  0  0  0  0  0  0  0  0
    2.0310    3.2110    2.1020 C   0  0  0  0  0  0  0  0  0  0  0  0
    0.8630    2.5330    2.3100 O   0  0  0  0  0  0  0  0  0  0  0  0
   -0.0340    2.5680    1.2560 C   0  0  0  0  0  0  0  0  0  0  0  0
   -1.3270    1.9650    1.7030 C   0  0  0  0  0  0  0  0  0  0  0  0
   -1.5760    0.6880    1.2480 O   0  0  0  0  0  0  0  0  0  0  0  0
   -1.0420   -0.1080    0.2510 C   0  0  0  0  0  0  0  0  0  0  0  0
    0.2650   -0.4940    0.0360 C   0  0  0  0  0  0  0  0  0  0  0  0
    0.2480   -1.2820   -1.0890 C   0  0  0  0  0  0  0  0  0  0  0  0
   -1.0170   -1.3690   -1.5340 O   0  0  0  0  0  0  0  0  0  0  0  0
   -1.8010   -0.6840   -0.7600 C   0  0  0  0  0  0  0  0  0  0  0  0
   -3.2810   -0.6400   -1.0700 C   0  0  2  0  0  0  0  0  0  0  0  0
   -3.7090   -2.0170   -1.3760 N   0  0  0  0  0  0  0  0  0  0  0  0
   -3.4720   -2.9350   -0.3100 C   0  0  0  0  0  0  0  0  0  0  0  0
   -4.3700   -2.6340    0.8460 C   0  0  0  0  0  0  0  0  0  0  0  0
   -4.1010   -3.5680    1.8720 O   0  0  0  0  0  0  0  0  0  0  0  0
   -4.9010   -3.2860    2.8720 O   0  0  0  0  0  0  0  0  0  0  0  0
   -6.0010   -3.9880    2.7180 O   0  0  0  0  0  0  0  0  0  0  0  0
   -3.5310    0.1310   -2.1570 O   0  0  0  0  0  0  0  0  0  0  0  0
   -4.4580    1.1090   -1.9690 C   0  0  0  0  0  0  0  0  0  0  0  0
   -3.9980    2.1000   -0.9350 C   0  0  0  0  0  0  0  0  0  0  0  0
   -4.9700    3.0990   -0.7690 O   0  0  0  0  0  0  0  0  0  0  0  0
    1.2710   -1.9380   -1.7660 O   0  0  0  0  0  0  0  0  0  0  0  0
    2.0960   -2.9820   -1.4360 C   0  0  0  0  0  0  0  0  0  0  0  0
    2.5820   -2.9160    0.0110 C   0  0  0  0  0  0  0  0  0  0  0  0
    3.7520   -1.9450    0.0740 C   0  0  0  0  0  0  0  0  0  0  0  0
    4.2560   -1.7760   -1.2140 O   0  0  0  0  0  0  0  0  0  0  0  0
    5.4460   -1.1690   -1.5700 C   0  0  0  0  0  0  0  0  0  0  0  0
    6.2930   -1.7350   -2.3480 O   0  0  0  0  0  0  0  0  0  0  0  0
    5.8140    0.1710   -1.0770 C   0  0  0  0  0  0  0  0  0  0  0  0
    4.9170    1.1580   -0.9700 N   0  0  0  0  0  0  0  0  0  0  0  0
    5.5540    2.2360   -0.5000 C   0  0  0  0  0  0  0  0  0  0  0  0
    6.8420    1.8900   -0.3230 N   0  0  0  0  0  0  0  0  0  0  0  0
    6.9620    0.6480   -0.6780 O   0  0  0  0  0  0  0  0  0  0  0  0
  1  2  2  0
  2  3  1  0
  2 35  1  0
  3  4  1  0
  4  5  1  0
  5  6  1  0
  6  7  1  0
  7  8  1  0
  8  9  1  0
  9 10  1  0
 10 11  1  0
 10 14  2  0
 11 12  2  0
 12 13  1  0
 12 26  1  0
 13 14  1  0
 14 15  1  0
 15 16  1  6
 15 22  1  0
 16 17  1  0
 17 18  1  0
 18 19  1  0
 19 20  1  0
 20 21  1  0
 22 23  1  0
 23 24  1  0
 24 25  1  0
 26 27  1  0
 27 28  1  0
 28 29  1  0
 29 30  1  0
 30 31  1  0
 31 32  2  0
 31 33  1  0
 33 34  2  0
 33 37  1  0
 34 35  1  0
 35 36  2  0
 36 37  1  0
M  END
