
     RDKit          3D

 36 38  0  0  0  0  0  0  0  0999 V2000
   -3.8710   -0.3970    2.8820 O   0  0  0  0  0  0  0  0  0  0  0  0
   -4.8900   -0.7040    2.3190 C   0  0  0  0  0  0  0  0  0  0  0  0
   -6.3410   -0.3420    2.7240 C   0  0  0  0  0  0  0  0  0  0  0  0
   -6.5500    0.4420    1.4750 O   0  0  0  0  0  0  0  0  0  0  0  0
   -7.5500    0.0060    0.7620 O   0  0  0  0  0  0  0  0  0  0  0  0
   -7.4150    0.5830   -0.4310 O   0  0  0  0  0  0  0  0  0  0  0  0
   -4.8760   -1.4640    1.0810 N   0  0  0  0  0  0  0  0  0  0  0  0
   -3.6990   -1.7550    0.3150 C   0  0  1  0  0  0  0  0  0  0  0  0
   -3.4090   -0.3770   -0.3720 C   0  0  0  0  0  0  0  0  0  0  0  0
   -3.6180   -0.3680   -1.8270 C   0  0  0  0  0  0  0  0  0  0  0  0
   -3.4670    1.1130   -2.2450 C   0  0  0  0  0  0  0  0  0  0  0  0
   -2.1420    1.2950   -2.5300 O   0  0  0  0  0  0  0  0  0  0  0  0
   -1.3990    1.9220   -1.5220 C   0  0  0  0  0  0  0  0  0  0  0  0
   -0.3980    1.0740   -1.1030 O   0  0  0  0  0  0  0  0  0  0  0  0
   -0.2420    1.0050    0.2720 C   0  0  0  0  0  0  0  0  0  0  0  0
    0.2630   -0.4290    0.6710 C   0  0  2  0  0  0  0  0  0  0  0  0
    1.7240   -0.2770    0.2600 C   0  0  0  0  0  0  0  0  0  0  0  0
    2.2820    0.7260    0.8790 C   0  0  0  0  0  0  0  0  0  0  0  0
    3.6990    1.1450    0.6760 C   0  0  0  0  0  0  0  0  0  0  0  0
    4.4160    0.8350   -0.3520 C   0  0  0  0  0  0  0  0  0  0  0  0
    5.7980    1.3750   -0.3470 C   0  0  0  0  0  0  0  0  0  0  0  0
    6.2290    2.0640    0.6240 O   0  0  0  0  0  0  0  0  0  0  0  0
    6.6040    1.0970   -1.4570 O   0  0  0  0  0  0  0  0  0  0  0  0
    7.9100    1.6460   -1.4660 O   0  0  0  0  0  0  0  0  0  0  0  0
    8.7660    0.7440   -0.7450 C   0  0  0  0  0  0  0  0  0  0  0  0
    9.0760    0.9520    0.5440 N   0  0  0  0  0  0  0  0  0  0  0  0
    9.9790    0.0140    0.8740 C   0  0  0  0  0  0  0  0  0  0  0  0
   10.1200   -0.7560   -0.2210 C   0  0  0  0  0  0  0  0  0  0  0  0
    9.4060   -0.2900   -1.1490 O   0  0  0  0  0  0  0  0  0  0  0  0
    4.1620    0.0300   -1.4950 N   0  0  0  0  0  0  0  0  0  0  0  0
    3.2060   -0.8460   -1.6200 C   0  0  0  0  0  0  0  0  0  0  0  0
    2.2020   -1.1910   -0.6700 O   0  0  0  0  0  0  0  0  0  0  0  0
   -0.4380   -1.3020   -0.2660 C   0  0  0  0  0  0  0  0  0  0  0  0
   -0.1770   -1.1760   -1.5330 O   0  0  0  0  0  0  0  0  0  0  0  0
   -1.4050   -2.2560    0.0560 N   0  0  0  0  0  0  0  0  0  0  0  0
   -2.4600   -2.1090    1.0600 C   0  0  0  0  0  0  0  0  0  0  0  0
  1  2  2  0
  2  3  1  0
  2  7  1  0
  3  4  1  0
  4  5  1  0
  5  6  1  0
  8  7  1  1
  8  9  1  0
  8 36  1  0
  9 10  1  0
 10 11  1  0
 11 12  1  0
 12 13  1  0
 13 14  1  0
 14 15  1  0
 15 16  1  0
 16 17  1  6
 16 33  1  0
 17 18  2  0
 17 32  1  0
 18 19  1  0
 19 20  2  0
 20 21  1  0
 20 30  1  0
 21 22  2  0
 21 23  1  0
 23 24  1  0
 24 25  1  0
 25 26  2  0
 25 29  1  0
 26 27  1  0
 27 28  2  0
 28 29  1  0
 30 31  2  0
 31 32  1  0
 33 34  2  0
 33 35  1  0
 35 36  1  0
M  END
