
     RDKit          3D

 36 38  0  0  0  0  0  0  0  0999 V2000
   -7.7000   -0.1940   -0.2070 N   0  0  0  0  0  0  0  0  0  0  0  0
   -6.3010    0.2500   -0.3280 C   0  0  0  0  0  0  0  0  0  0  0  0
   -5.5410   -0.8870   -0.9260 C   0  0  0  0  0  0  0  0  0  0  0  0
   -4.1260   -0.6220   -1.1240 N   0  0  0  0  0  0  0  0  0  0  0  0
   -3.3140   -0.3190   -0.0180 C   0  0  0  0  0  0  0  0  0  0  0  0
   -3.8800   -0.2910    1.1360 O   0  0  0  0  0  0  0  0  0  0  0  0
   -1.9120   -0.0380   -0.0570 N   0  0  0  0  0  0  0  0  0  0  0  0
   -1.3300    0.2770    1.2700 C   0  0  0  0  0  0  0  0  0  0  0  0
   -0.7350   -0.8360    1.9810 C   0  0  0  0  0  0  0  0  0  0  0  0
   -1.0360   -1.9770    1.3920 O   0  0  0  0  0  0  0  0  0  0  0  0
    0.0620   -0.9320    3.1220 N   0  0  0  0  0  0  0  0  0  0  0  0
    1.0240   -0.2370    3.8350 C   0  0  0  0  0  0  0  0  0  0  0  0
    0.4630    0.1820    5.0130 O   0  0  0  0  0  0  0  0  0  0  0  0
    2.4090    0.1690    3.7170 C   0  0  0  0  0  0  0  0  0  0  0  0
    3.0400    0.6930    2.6230 C   0  0  0  0  0  0  0  0  0  0  0  0
    2.4000    0.9400    1.3200 C   0  0  0  0  0  0  0  0  0  0  0  0
    2.1020    2.2540    0.9390 C   0  0  0  0  0  0  0  0  0  0  0  0
    1.3150    2.2000   -0.0560 O   0  0  0  0  0  0  0  0  0  0  0  0
    1.0510    0.9230   -0.3900 C   0  0  0  0  0  0  0  0  0  0  0  0
    1.7390    0.0650    0.4410 C   0  0  0  0  0  0  0  0  0  0  0  0
    1.7940   -1.3790    0.4170 O   0  0  0  0  0  0  0  0  0  0  0  0
    2.3960   -2.3910   -0.1180 C   0  0  0  0  0  0  0  0  0  0  0  0
    3.8370   -2.7090   -0.0740 C   0  0  0  0  0  0  0  0  0  0  0  0
    4.7010   -1.7080   -0.7580 C   0  0  0  0  0  0  0  0  0  0  0  0
    4.6380   -0.4490   -0.2210 O   0  0  0  0  0  0  0  0  0  0  0  0
    5.3960    0.4050   -0.8310 O   0  0  0  0  0  0  0  0  0  0  0  0
    6.1930    1.0430   -0.0230 O   0  0  0  0  0  0  0  0  0  0  0  0
    0.0860    0.7610   -1.5080 C   0  0  0  0  0  0  0  0  0  0  0  0
    0.2820    1.3600   -2.6440 C   0  0  0  0  0  0  0  0  0  0  0  0
    1.3410    2.1990   -3.0200 O   0  0  0  0  0  0  0  0  0  0  0  0
    0.9130    2.9570   -4.1350 C   0  0  0  0  0  0  0  0  0  0  0  0
    0.0110    2.1010   -4.8380 O   0  0  0  0  0  0  0  0  0  0  0  0
   -0.5580    1.3090   -3.8180 C   0  0  0  0  0  0  0  0  0  0  0  0
   -1.6340    0.7010   -4.0160 O   0  0  0  0  0  0  0  0  0  0  0  0
   -1.1400   -0.0620   -1.2750 C   0  0  0  0  0  0  0  0  0  0  0  0
   -1.5350   -0.8260   -2.1650 O   0  0  0  0  0  0  0  0  0  0  0  0
  1  2  1  0
  2  3  1  0
  3  4  1  0
  4  5  1  0
  5  6  2  0
  5  7  1  0
  7  8  1  0
  7 35  1  0
  8  9  1  0
  9 10  2  0
  9 11  1  0
 11 12  1  0
 12 13  2  0
 12 14  1  0
 14 15  2  0
 15 16  1  0
 16 17  2  0
 16 20  1  0
 17 18  1  0
 18 19  1  0
 19 20  2  0
 19 28  1  0
 20 21  1  0
 21 22  1  0
 22 23  1  0
 23 24  1  0
 24 25  1  0
 25 26  1  0
 26 27  1  0
 28 29  2  3
 28 35  1  0
 29 30  1  0
 29 33  1  0
 30 31  1  0
 31 32  1  0
 32 33  1  0
 33 34  2  0
 35 36  2  0
M  END
