
     RDKit          3D

 36 38  0  0  0  0  0  0  0  0999 V2000
    4.8240   -2.3510    2.0480 C   0  0  0  0  0  0  0  0  0  0  0  0
    4.4750   -2.0720    0.5810 C   0  0  1  0  0  0  0  0  0  0  0  0
    4.9360   -3.1970   -0.2780 C   0  0  0  0  0  0  0  0  0  0  0  0
    4.0910   -3.7550   -1.0050 O   0  0  0  0  0  0  0  0  0  0  0  0
    6.2370   -3.6270   -0.2930 O   0  0  0  0  0  0  0  0  0  0  0  0
    3.1230   -1.8080    0.4160 O   0  0  0  0  0  0  0  0  0  0  0  0
    2.9790   -0.4380    0.1050 C   0  0  0  0  0  0  0  0  0  0  0  0
    1.7410    0.1750   -0.0420 N   0  0  0  0  0  0  0  0  0  0  0  0
    0.4760   -0.6250    0.1000 C   0  0  0  0  0  0  0  0  0  0  0  0
    0.6690   -1.8120    0.3220 O   0  0  0  0  0  0  0  0  0  0  0  0
   -0.6040    0.2050   -0.0630 N   0  0  0  0  0  0  0  0  0  0  0  0
   -1.8170   -0.9860    0.1560 C   0  0  0  0  0  0  0  0  0  0  0  0
   -1.3820   -2.0750    0.2780 O   0  0  0  0  0  0  0  0  0  0  0  0
   -3.1250   -0.5690    0.1740 N   0  0  0  0  0  0  0  0  0  0  0  0
   -3.6790    0.6840    0.0010 C   0  0  0  0  0  0  0  0  0  0  0  0
   -2.9750    1.7390    0.0640 O   0  0  0  0  0  0  0  0  0  0  0  0
   -5.1010    0.9630   -0.2680 C   0  0  0  0  0  0  0  0  0  0  0  0
   -5.6390    2.1680    0.1700 C   0  0  0  0  0  0  0  0  0  0  0  0
   -6.9480    2.5480   -0.1050 C   0  0  0  0  0  0  0  0  0  0  0  0
   -7.7800    1.7300   -0.8380 C   0  0  0  0  0  0  0  0  0  0  0  0
   -9.0910    2.0910   -1.1180 O   0  0  0  0  0  0  0  0  0  0  0  0
  -10.1280    1.2810   -0.8740 O   0  0  0  0  0  0  0  0  0  0  0  0
   -7.2430    0.5290   -1.2780 C   0  0  0  0  0  0  0  0  0  0  0  0
   -5.9400    0.1710   -0.9950 C   0  0  0  0  0  0  0  0  0  0  0  0
   -4.1020   -1.7060    0.3630 C   0  0  2  0  0  0  0  0  0  0  0  0
   -3.6660   -2.6420    1.4360 C   0  0  0  0  0  0  0  0  0  0  0  0
   -3.4950   -3.6660    0.5570 O   0  0  0  0  0  0  0  0  0  0  0  0
   -3.8070   -2.8650   -0.4990 C   0  0  0  0  0  0  0  0  0  0  0  0
    4.1630    0.1160   -0.0040 C   0  0  0  0  0  0  0  0  0  0  0  0
    4.4180    1.5410   -0.3300 C   0  0  0  0  0  0  0  0  0  0  0  0
    3.5010    2.3590   -0.5360 O   0  0  0  0  0  0  0  0  0  0  0  0
    5.7560    2.0030   -0.4130 N   0  0  0  0  0  0  0  0  0  0  0  0
    6.1580    3.3520   -0.7270 C   0  0  0  0  0  0  0  0  0  0  0  0
    7.6920    3.3840   -0.6920 C   0  0  0  0  0  0  0  0  0  0  0  0
    8.1910    3.0390    0.5430 O   0  0  0  0  0  0  0  0  0  0  0  0
    5.0880   -0.8600    0.2350 O   0  0  0  0  0  0  0  0  0  0  0  0
  2  1  1  1
  2  3  1  0
  2  6  1  0
  2 36  1  0
  3  4  2  0
  3  5  1  0
  6  7  1  0
  7  8  1  0
  7 29  2  0
  8  9  1  0
  9 10  2  0
  9 11  1  0
 11 12  1  0
 12 13  2  0
 12 14  1  0
 14 15  1  0
 25 14  1  6
 15 16  2  0
 15 17  1  0
 17 18  2  0
 17 24  1  0
 18 19  1  0
 19 20  2  0
 20 21  1  0
 20 23  1  0
 21 22  1  0
 23 24  2  0
 25 26  1  0
 25 28  1  0
 26 27  1  0
 27 28  1  0
 29 30  1  0
 29 36  1  0
 30 31  2  0
 30 32  1  0
 32 33  1  0
 33 34  1  0
 34 35  1  0
M  END
