
     RDKit          3D

 36 37  0  0  0  0  0  0  0  0999 V2000
    7.0320   -0.8150   -1.2120 C   0  0  0  0  0  0  0  0  0  0  0  0
    5.6260   -1.0010   -0.6130 C   0  0  1  0  0  0  0  0  0  0  0  0
    5.6750   -0.6690    0.7490 O   0  0  0  0  0  0  0  0  0  0  0  0
    4.7190   -0.0160   -1.3060 C   0  0  0  0  0  0  0  0  0  0  0  0
    3.4770   -0.0090   -0.7810 O   0  0  0  0  0  0  0  0  0  0  0  0
    2.4600   -0.9170   -0.6580 C   0  0  0  0  0  0  0  0  0  0  0  0
    2.7150   -2.1320   -1.1810 N   0  0  0  0  0  0  0  0  0  0  0  0
    1.7680   -3.0710   -1.0950 C   0  0  0  0  0  0  0  0  0  0  0  0
    0.6240   -2.7880   -0.5090 N   0  0  0  0  0  0  0  0  0  0  0  0
    0.2560   -1.6170    0.0470 C   0  0  0  0  0  0  0  0  0  0  0  0
    1.2390   -0.5960   -0.0280 C   0  0  0  0  0  0  0  0  0  0  0  0
    1.0200    0.6300    0.4820 O   0  0  0  0  0  0  0  0  0  0  0  0
    0.2800    1.7690    0.1730 C   0  0  2  0  0  0  0  0  0  0  0  0
    0.1190    2.5380    1.4610 C   0  0  0  0  0  0  0  0  0  0  0  0
   -0.6160    3.8170    1.3190 C   0  0  0  0  0  0  0  0  0  0  0  0
   -0.7170    4.4790    2.5850 O   0  0  0  0  0  0  0  0  0  0  0  0
   -1.3830    5.6920    2.6000 C   0  0  0  0  0  0  0  0  0  0  0  0
   -1.8640    6.1650    1.5440 O   0  0  0  0  0  0  0  0  0  0  0  0
   -1.5510    6.4360    3.7600 O   0  0  0  0  0  0  0  0  0  0  0  0
   -1.0200    1.5950   -0.4880 C   0  0  0  0  0  0  0  0  0  0  0  0
   -2.1440    1.6030    0.3320 O   0  0  0  0  0  0  0  0  0  0  0  0
   -3.3070    1.8160   -0.4430 C   0  0  0  0  0  0  0  0  0  0  0  0
   -4.4940    1.7280    0.4610 C   0  0  0  0  0  0  0  0  0  0  0  0
   -4.5650    0.5200    1.1150 O   0  0  0  0  0  0  0  0  0  0  0  0
   -5.0090   -0.4740    0.2420 C   0  0  0  0  0  0  0  0  0  0  0  0
   -4.5440   -1.8240    0.6700 C   0  0  0  0  0  0  0  0  0  0  0  0
   -3.1720   -2.1980    0.2360 C   0  0  1  0  0  0  0  0  0  0  0  0
   -2.9710   -2.1530   -1.2480 C   0  0  0  0  0  0  0  0  0  0  0  0
   -3.8960   -3.0820   -1.9150 N   0  0  0  0  0  0  0  0  0  0  0  0
   -2.0760   -1.4920    0.9900 C   0  0  0  0  0  0  0  0  0  0  0  0
   -2.5730   -0.8460    2.1610 O   0  0  0  0  0  0  0  0  0  0  0  0
   -0.9540   -1.4780    0.6520 N   0  0  0  0  0  0  0  0  0  0  0  0
    5.2330   -2.2920   -0.8910 O   0  0  0  0  0  0  0  0  0  0  0  0
    5.8690   -3.4470   -0.4920 C   0  0  0  0  0  0  0  0  0  0  0  0
    6.9060   -3.3440    0.1890 O   0  0  0  0  0  0  0  0  0  0  0  0
    5.3760   -4.6960   -0.8350 O   0  0  0  0  0  0  0  0  0  0  0  0
  2  1  1  6
  2  3  1  0
  2  4  1  0
  2 33  1  0
  4  5  1  0
  5  6  1  0
  6  7  2  0
  6 11  1  0
  7  8  1  0
  8  9  2  0
  9 10  1  0
 10 11  2  0
 10 32  1  0
 11 12  1  0
 12 13  1  0
 13 14  1  1
 13 20  1  0
 14 15  1  0
 15 16  1  0
 16 17  1  0
 17 18  2  0
 17 19  1  0
 20 21  1  0
 21 22  1  0
 22 23  1  0
 23 24  1  0
 24 25  1  0
 25 26  1  0
 26 27  1  0
 27 28  1  6
 27 30  1  0
 28 29  1  0
 30 31  1  0
 30 32  2  0
 33 34  1  0
 34 35  2  0
 34 36  1  0
M  END
