
     RDKit          3D

 36 36  0  0  0  0  0  0  0  0999 V2000
   -4.7380   -1.0740    0.0560 C   0  0  0  0  0  0  0  0  0  0  0  0
   -4.1790    0.1880   -0.5130 C   0  0  2  0  0  0  0  0  0  0  0  0
   -4.9590    0.7800   -1.6030 C   0  0  0  0  0  0  0  0  0  0  0  0
   -6.2870    1.1750   -1.2830 N   0  0  0  0  0  0  0  0  0  0  0  0
   -7.4030    0.3840   -0.9510 C   0  0  0  0  0  0  0  0  0  0  0  0
   -7.3530   -0.8400   -0.9200 O   0  0  0  0  0  0  0  0  0  0  0  0
   -8.6520    0.9480   -0.6340 O   0  0  0  0  0  0  0  0  0  0  0  0
   -9.7460    0.1200   -0.3050 C   0  0  2  0  0  0  0  0  0  0  0  0
  -10.9300    1.0210   -0.0160 C   0  0  0  0  0  0  0  0  0  0  0  0
   -9.3450   -0.7020    0.9070 C   0  0  0  0  0  0  0  0  0  0  0  0
  -10.1410   -0.8150   -1.4160 C   0  0  0  0  0  0  0  0  0  0  0  0
   -2.8010   -0.0890   -0.8740 N   0  0  0  0  0  0  0  0  0  0  0  0
   -1.7470    0.4680   -0.1430 C   0  0  0  0  0  0  0  0  0  0  0  0
   -2.0180    1.2110    0.8310 O   0  0  0  0  0  0  0  0  0  0  0  0
   -0.3130    0.2080   -0.4780 C   0  0  2  0  0  0  0  0  0  0  0  0
    0.0220   -1.2440   -0.3790 C   0  0  0  0  0  0  0  0  0  0  0  0
    1.1870   -1.2700    0.3610 O   0  0  0  0  0  0  0  0  0  0  0  0
    1.1410   -0.1380    1.1520 C   0  0  1  0  0  0  0  0  0  0  0  0
    2.5100    0.2560    1.6030 C   0  0  0  0  0  0  0  0  0  0  0  0
    2.6890    1.2690    2.3180 O   0  0  0  0  0  0  0  0  0  0  0  0
    3.6030   -0.5390    1.2070 N   0  0  0  0  0  0  0  0  0  0  0  0
    4.9900   -0.2740    1.5660 C   0  0  0  0  0  0  0  0  0  0  0  0
    5.4580    1.0500    1.0220 C   0  0  0  0  0  0  0  0  0  0  0  0
    5.4180    1.1880   -0.2920 O   0  0  0  0  0  0  0  0  0  0  0  0
    6.0730    0.5400   -1.2320 C   0  0  0  0  0  0  0  0  0  0  0  0
    7.5370    0.6420   -1.4010 C   0  0  0  0  0  0  0  0  0  0  0  0
    8.4120    0.1620   -0.3340 C   0  0  0  0  0  0  0  0  0  0  0  0
    8.0870   -0.4520    0.6990 O   0  0  0  0  0  0  0  0  0  0  0  0
    9.8030    0.4030   -0.4530 O   0  0  0  0  0  0  0  0  0  0  0  0
   10.6770   -0.0320    0.5290 C   0  0  0  0  0  0  0  0  0  0  0  0
   10.2690   -0.6500    1.5490 O   0  0  0  0  0  0  0  0  0  0  0  0
   12.0800    0.2090    0.4150 N   0  0  0  0  0  0  0  0  0  0  0  0
   12.9790   -0.2370    1.4250 C   0  0  0  0  0  0  0  0  0  0  0  0
   12.5360   -0.8480    2.4230 O   0  0  0  0  0  0  0  0  0  0  0  0
   14.3510   -0.0100    1.3320 O   0  0  0  0  0  0  0  0  0  0  0  0
    0.5430    0.8600    0.3910 O   0  0  0  0  0  0  0  0  0  0  0  0
  2  1  1  6
  2  3  1  0
  2 12  1  0
  3  4  1  0
  4  5  1  0
  5  6  2  0
  5  7  1  0
  7  8  1  0
  8  9  1  1
  8 10  1  0
  8 11  1  0
 12 13  1  0
 13 14  2  0
 15 13  1  1
 15 16  1  0
 15 36  1  0
 16 17  1  0
 17 18  1  0
 18 19  1  6
 18 36  1  0
 19 20  2  0
 19 21  1  0
 21 22  1  0
 22 23  1  0
 23 24  1  0
 24 25  1  0
 25 26  1  0
 26 27  1  0
 27 28  2  0
 27 29  1  0
 29 30  1  0
 30 31  2  0
 30 32  1  0
 32 33  1  0
 33 34  2  0
 33 35  1  0
M  END
