
     RDKit          3D

 20 21  0  0  0  0  0  0  0  0999 V2000
    2.8670   -1.1800    2.4880 C   0  0  0  0  0  0  0  0  0  0  0  0
    1.9140   -1.1300    1.4210 O   0  0  0  0  0  0  0  0  0  0  0  0
    2.2980   -1.0110    0.1150 C   0  0  0  0  0  0  0  0  0  0  0  0
    3.5230   -0.9440   -0.1600 O   0  0  0  0  0  0  0  0  0  0  0  0
    1.3260   -0.9590   -0.9910 C   0  0  1  0  0  0  0  0  0  0  0  0
    0.4710   -2.1570   -1.0890 C   0  0  0  0  0  0  0  0  0  0  0  0
    0.9520   -3.2810   -0.7440 O   0  0  0  0  0  0  0  0  0  0  0  0
   -0.8210   -2.0240   -1.5510 O   0  0  0  0  0  0  0  0  0  0  0  0
   -1.7650   -1.1270   -0.9530 C   0  0  1  0  0  0  0  0  0  0  0  0
   -2.5220   -1.8110    0.1130 C   0  0  0  0  0  0  0  0  0  0  0  0
   -2.8840   -2.9940   -0.0640 O   0  0  0  0  0  0  0  0  0  0  0  0
   -2.8430   -1.1780    1.3060 O   0  0  0  0  0  0  0  0  0  0  0  0
   -2.6580    0.2440    1.3970 C   0  0  0  0  0  0  0  0  0  0  0  0
   -1.3320    0.5490    0.8360 C   0  0  0  0  0  0  0  0  0  0  0  0
   -0.4670    1.4820    1.4030 O   0  0  0  0  0  0  0  0  0  0  0  0
   -0.9230   -0.0880   -0.2590 C   0  0  0  0  0  0  0  0  0  0  0  0
    0.3770    0.2180   -0.8300 C   0  0  0  0  0  0  0  0  0  0  0  0
    0.7330    1.4270   -1.1040 C   0  0  0  0  0  0  0  0  0  0  0  0
   -0.1010    2.6260   -1.0040 C   0  0  0  0  0  0  0  0  0  0  0  0
   -0.1750    3.2410   -2.3040 O   0  0  0  0  0  0  0  0  0  0  0  0
  1  2  1  0
  2  3  1  0
  3  4  2  0
  5  3  1  1
  5  6  1  0
  5 17  1  0
  6  7  2  0
  6  8  1  0
  9  8  1  1
  9 10  1  0
  9 16  1  0
 10 11  2  0
 10 12  1  0
 12 13  1  0
 13 14  1  0
 14 15  1  0
 14 16  2  0
 16 17  1  0
 17 18  2  3
 18 19  1  0
 19 20  1  0
M  END
