
     RDKit          3D

 21 22  0  0  0  0  0  0  0  0999 V2000
   -5.1030    0.4870   -1.2800 O   0  0  0  0  0  0  0  0  0  0  0  0
   -3.9030    0.7560   -1.4030 N   0  0  0  0  0  0  0  0  0  0  0  0
   -3.4070    0.9860   -2.6550 O   0  0  0  0  0  0  0  0  0  0  0  0
   -3.0100    0.8360   -0.2550 C   0  0  1  0  0  0  0  0  0  0  0  0
   -3.8340    0.5390    0.9630 C   0  0  0  0  0  0  0  0  0  0  0  0
   -4.8890    1.4740    1.0680 O   0  0  0  0  0  0  0  0  0  0  0  0
   -1.9710   -0.2090   -0.4640 C   0  0  2  0  0  0  0  0  0  0  0  0
   -2.5320   -1.4810   -0.5390 O   0  0  0  0  0  0  0  0  0  0  0  0
   -0.8780   -0.2580    0.5890 C   0  0  1  0  0  0  0  0  0  0  0  0
   -1.4040   -0.6550    1.8460 O   0  0  0  0  0  0  0  0  0  0  0  0
   -0.0070   -1.2440    0.2110 O   0  0  0  0  0  0  0  0  0  0  0  0
    1.3040   -1.3380   -0.0180 C   0  0  0  0  0  0  0  0  0  0  0  0
    1.8170   -2.5810   -0.4030 C   0  0  0  0  0  0  0  0  0  0  0  0
    3.1350   -2.8070   -0.6650 C   0  0  0  0  0  0  0  0  0  0  0  0
    4.0180   -1.7530   -0.5450 C   0  0  0  0  0  0  0  0  0  0  0  0
    3.5580   -0.5110   -0.1680 C   0  0  0  0  0  0  0  0  0  0  0  0
    2.1960   -0.3100    0.0950 C   0  0  0  0  0  0  0  0  0  0  0  0
    1.7840    0.9520    0.4690 O   0  0  0  0  0  0  0  0  0  0  0  0
    2.6460    2.0330    0.7270 C   0  0  0  0  0  0  0  0  0  0  0  0
    3.9140    1.9100   -0.1280 C   0  0  0  0  0  0  0  0  0  0  0  0
    4.4060    0.5850   -0.0320 O   0  0  0  0  0  0  0  0  0  0  0  0
  1  2  2  0
  2  3  1  0
  2  4  1  0
  4  5  1  1
  4  7  1  0
  5  6  1  0
  7  8  1  1
  7  9  1  0
  9 10  1  1
  9 11  1  0
 11 12  1  0
 12 13  2  0
 12 17  1  0
 13 14  1  0
 14 15  2  0
 15 16  1  0
 16 17  2  0
 16 21  1  0
 17 18  1  0
 18 19  1  0
 19 20  1  0
 20 21  1  0
M  CHG  2   2   1   3  -1
M  END
