
     RDKit          3D

 21 22  0  0  0  0  0  0  0  0999 V2000
   -4.7670    2.4760    0.5300 C   0  0  0  0  0  0  0  0  0  0  0  0
   -4.5950    1.1070    0.2210 O   0  0  0  0  0  0  0  0  0  0  0  0
   -3.3220    0.5580    0.1310 C   0  0  0  0  0  0  0  0  0  0  0  0
   -2.2130    1.3140    0.3360 C   0  0  0  0  0  0  0  0  0  0  0  0
   -0.9600    0.7600    0.2450 C   0  0  0  0  0  0  0  0  0  0  0  0
    0.2740    1.5970    0.4720 C   0  0  2  0  0  0  0  0  0  0  0  0
    0.0490    2.7760   -0.2420 O   0  0  0  0  0  0  0  0  0  0  0  0
    1.3640    0.8740   -0.0080 O   0  0  0  0  0  0  0  0  0  0  0  0
    2.4380    0.4670    0.7750 C   0  0  0  0  0  0  0  0  0  0  0  0
    2.4130    0.7730    1.9860 O   0  0  0  0  0  0  0  0  0  0  0  0
    3.5400   -0.2960    0.1510 C   0  0  1  0  0  0  0  0  0  0  0  0
    4.3170    0.5660   -0.8420 C   0  0  0  0  0  0  0  0  0  0  0  0
    5.6050    0.1030   -0.6830 O   0  0  0  0  0  0  0  0  0  0  0  0
    5.5800   -0.9790    0.1680 C   0  0  0  0  0  0  0  0  0  0  0  0
    4.5360   -0.6310    1.0540 O   0  0  0  0  0  0  0  0  0  0  0  0
   -0.8410   -0.5730   -0.0580 C   0  0  0  0  0  0  0  0  0  0  0  0
    0.4300   -1.1750   -0.1600 O   0  0  0  0  0  0  0  0  0  0  0  0
   -1.9610   -1.3470   -0.2670 C   0  0  0  0  0  0  0  0  0  0  0  0
   -1.7570   -2.7350   -0.5770 N   0  0  0  0  0  0  0  0  0  0  0  0
   -3.2210   -0.8060   -0.1790 C   0  0  0  0  0  0  0  0  0  0  0  0
   -4.3620   -1.5420   -0.3810 O   0  0  0  0  0  0  0  0  0  0  0  0
  1  2  1  0
  2  3  1  0
  3  4  2  0
  3 20  1  0
  4  5  1  0
  5  6  1  0
  5 16  2  0
  6  7  1  6
  6  8  1  0
  8  9  1  0
  9 10  2  0
 11  9  1  1
 11 12  1  0
 11 15  1  0
 12 13  1  0
 13 14  1  0
 14 15  1  0
 16 17  1  0
 16 18  1  0
 18 19  1  0
 18 20  2  0
 20 21  1  0
M  CHG  2   7  -1  19   1
M  END
