
     RDKit          3D

 20 20  0  0  0  0  0  0  0  0999 V2000
    4.1350    2.7880   -1.0580 C   0  0  0  0  0  0  0  0  0  0  0  0
    3.6920    1.7560   -0.2010 O   0  0  0  0  0  0  0  0  0  0  0  0
    2.5950    0.9430   -0.5680 C   0  0  0  0  0  0  0  0  0  0  0  0
    2.0800    1.2090   -1.6650 O   0  0  0  0  0  0  0  0  0  0  0  0
    2.1890   -0.1090    0.3670 C   0  0  0  0  0  0  0  0  0  0  0  0
    0.9610   -0.8930    0.0210 C   0  0  1  0  0  0  0  0  0  0  0  0
    1.1420   -1.5490   -1.3020 C   0  0  0  0  0  0  0  0  0  0  0  0
   -0.0010   -2.3080   -1.6510 O   0  0  0  0  0  0  0  0  0  0  0  0
    1.0740   -2.0920    1.0600 C   0  0  0  0  0  0  0  0  0  0  0  0
    1.0660   -1.5830    2.3450 O   0  0  0  0  0  0  0  0  0  0  0  0
   -0.2560   -0.1510    0.2970 C   0  0  2  0  0  0  0  0  0  0  0  0
   -0.3230    0.1900    1.6870 O   0  0  0  0  0  0  0  0  0  0  0  0
   -1.5520   -0.9470    0.1070 C   0  0  0  0  0  0  0  0  0  0  0  0
   -2.4980    0.1890    0.5500 C   0  0  2  0  0  0  0  0  0  0  0  0
   -2.7020    0.0400    2.0320 C   0  0  0  0  0  0  0  0  0  0  0  0
   -3.8440    0.0330   -0.1220 C   0  0  0  0  0  0  0  0  0  0  0  0
   -3.7890    0.0190   -1.4930 O   0  0  0  0  0  0  0  0  0  0  0  0
   -1.9020    1.3560    0.1820 O   0  0  0  0  0  0  0  0  0  0  0  0
   -0.6430    1.0630   -0.4240 C   0  0  2  0  0  0  0  0  0  0  0  0
   -0.9450    0.9290   -1.7690 O   0  0  0  0  0  0  0  0  0  0  0  0
  1  2  1  0
  2  3  1  0
  3  4  2  0
  3  5  1  0
  6  5  1  1
  6  7  1  0
  6  9  1  0
  6 11  1  0
  7  8  1  0
  9 10  1  0
 11 12  1  1
 11 13  1  0
 11 19  1  0
 13 14  1  0
 14 15  1  1
 14 16  1  0
 14 18  1  0
 16 17  1  0
 18 19  1  0
 19 20  1  6
M  END
