
     RDKit          3D

 21 22  0  0  0  0  0  0  0  0999 V2000
    0.3840    4.1840   -2.1530 O   0  0  0  0  0  0  0  0  0  0  0  0
    0.4390    3.2120   -1.3620 C   0  0  0  0  0  0  0  0  0  0  0  0
   -0.8010    2.3810   -1.2120 C   0  0  0  0  0  0  0  0  0  0  0  0
   -0.4840    1.1940   -0.5760 O   0  0  0  0  0  0  0  0  0  0  0  0
   -1.5460    0.5390   -0.0350 C   0  0  2  0  0  0  0  0  0  0  0  0
   -2.1500    1.2120    1.1960 C   0  0  0  0  0  0  0  0  0  0  0  0
   -3.2250    0.4760    1.6860 O   0  0  0  0  0  0  0  0  0  0  0  0
   -1.4840   -0.8330    0.0760 O   0  0  0  0  0  0  0  0  0  0  0  0
   -0.6570   -1.8430   -0.2640 C   0  0  0  0  0  0  0  0  0  0  0  0
   -1.0080   -2.6790   -1.2700 C   0  0  0  0  0  0  0  0  0  0  0  0
   -2.1990   -2.5680   -1.9970 O   0  0  0  0  0  0  0  0  0  0  0  0
   -0.2150   -3.7360   -1.6800 O   0  0  0  0  0  0  0  0  0  0  0  0
    1.0100   -4.0540   -1.1000 C   0  0  0  0  0  0  0  0  0  0  0  0
    1.3640   -3.1450   -0.0200 C   0  0  0  0  0  0  0  0  0  0  0  0
    0.6290   -2.1130    0.3990 C   0  0  0  0  0  0  0  0  0  0  0  0
    1.1740   -1.3970    1.4900 N   0  0  0  0  0  0  0  0  0  0  0  0
    1.4150   -0.0140    1.6490 C   0  0  0  0  0  0  0  0  0  0  0  0
    1.0640    0.5300    2.7280 O   0  0  0  0  0  0  0  0  0  0  0  0
    2.0630    0.8740    0.6340 C   0  0  0  0  0  0  0  0  0  0  0  0
    1.5770    2.2830    0.6820 C   0  0  0  0  0  0  0  0  0  0  0  0
    1.6220    2.9030   -0.6340 N   0  0  0  0  0  0  0  0  0  0  0  0
  1  2  2  0
  2  3  1  0
  2 21  1  0
  3  4  1  0
  4  5  1  0
  5  6  1  1
  5  8  1  0
  6  7  1  0
  8  9  1  0
  9 10  2  0
  9 15  1  0
 10 11  1  0
 10 12  1  0
 12 13  1  0
 13 14  1  0
 14 15  2  0
 15 16  1  0
 16 17  1  0
 17 18  2  0
 17 19  1  0
 19 20  1  0
 20 21  1  0
M  END
