
     RDKit          3D

 20 21  0  0  0  0  0  0  0  0999 V2000
    3.7730   -2.1980    0.2320 C   0  0  0  0  0  0  0  0  0  0  0  0
    3.4830   -0.7560   -0.1150 C   0  0  2  0  0  0  0  0  0  0  0  0
    2.0810   -0.6050   -0.6680 C   0  0  0  0  0  0  0  0  0  0  0  0
    1.0320   -1.0400    0.2900 C   0  0  0  0  0  0  0  0  0  0  0  0
   -0.2540   -0.8980   -0.2360 O   0  0  0  0  0  0  0  0  0  0  0  0
   -0.7630    0.3290   -0.5770 C   0  0  0  0  0  0  0  0  0  0  0  0
   -0.0690    1.3550   -0.4120 O   0  0  0  0  0  0  0  0  0  0  0  0
   -2.1350    0.4560   -1.1430 C   0  0  2  0  0  0  0  0  0  0  0  0
   -2.4020    1.8300   -1.4040 N   0  0  0  0  0  0  0  0  0  0  0  0
   -3.0770   -0.1830   -0.1690 C   0  0  1  0  0  0  0  0  0  0  0  0
   -2.7400   -1.5020    0.0160 O   0  0  0  0  0  0  0  0  0  0  0  0
   -3.1570    0.5120    1.1470 C   0  0  0  0  0  0  0  0  0  0  0  0
   -4.3830   -0.0130    1.6870 O   0  0  0  0  0  0  0  0  0  0  0  0
   -5.2240   -0.3660    0.6470 C   0  0  0  0  0  0  0  0  0  0  0  0
   -6.3790   -0.8130    0.7960 O   0  0  0  0  0  0  0  0  0  0  0  0
   -4.5230   -0.1220   -0.6350 C   0  0  0  0  0  0  0  0  0  0  0  0
    4.3730   -0.3640   -1.1030 O   0  0  0  0  0  0  0  0  0  0  0  0
    4.3660    1.0230   -0.9910 C   0  0  0  0  0  0  0  0  0  0  0  0
    4.2890    1.2280    0.5030 C   0  0  0  0  0  0  0  0  0  0  0  0
    3.6240    0.0910    0.9550 O   0  0  0  0  0  0  0  0  0  0  0  0
  2  1  1  1
  2  3  1  0
  2 17  1  0
  2 20  1  0
  3  4  1  0
  4  5  1  0
  5  6  1  0
  6  7  2  0
  6  8  1  0
  8  9  1  1
  8 10  1  0
 10 11  1  1
 10 12  1  0
 10 16  1  0
 12 13  1  0
 13 14  1  0
 14 15  2  0
 14 16  1  0
 17 18  1  0
 18 19  1  0
 19 20  1  0
M  CHG  1   9   1
M  END
