
     RDKit          3D

 30 33  0  0  0  0  0  0  0  0999 V2000
    8.9570   -0.7410   -0.9290 C   0  0  0  0  0  0  0  0  0  0  0  0
    7.8280   -0.5360   -0.2770 C   0  0  0  0  0  0  0  0  0  0  0  0
    7.1460   -1.6490    0.3690 C   0  0  0  0  0  0  0  0  0  0  0  0
    5.3670   -1.6710    0.1060 S   0  0  0  0  0  0  0  0  0  0  0  0
    4.8210    0.0190   -0.1880 C   0  0  1  0  0  0  0  0  0  0  0  0
    3.7170    0.2810    0.7160 N   0  0  0  0  0  0  0  0  0  0  0  0
    2.4010    0.6100    0.2810 C   0  0  0  0  0  0  0  0  0  0  0  0
    2.2090    0.6710   -0.9420 O   0  0  0  0  0  0  0  0  0  0  0  0
    1.3170    0.8660    1.2280 C   0  0  0  0  0  0  0  0  0  0  0  0
    1.3980    0.8450    2.5720 N   0  0  0  0  0  0  0  0  0  0  0  0
    0.2440    1.1230    3.0840 O   0  0  0  0  0  0  0  0  0  0  0  0
   -0.6400    1.3370    2.1610 C   0  0  0  0  0  0  0  0  0  0  0  0
   -0.0080    1.1850    0.9400 C   0  0  0  0  0  0  0  0  0  0  0  0
   -0.5920    1.3980   -0.6880 S   0  0  1  0  0  0  0  0  0  0  0  0
    0.1870    2.5110   -1.3610 O   0  0  0  0  0  0  0  0  0  0  0  0
   -0.2620    0.1390   -1.5100 O   0  0  0  0  0  0  0  0  0  0  0  0
   -2.2630    1.6240   -0.8460 N   0  0  0  0  0  0  0  0  0  0  0  0
   -3.2320    0.6720   -0.5190 C   0  0  0  0  0  0  0  0  0  0  0  0
   -3.0430   -0.3220    0.3870 C   0  0  0  0  0  0  0  0  0  0  0  0
   -4.0180   -1.3010    0.6650 C   0  0  0  0  0  0  0  0  0  0  0  0
   -5.2030   -1.2540   -0.0040 C   0  0  0  0  0  0  0  0  0  0  0  0
   -5.4190   -0.2520   -0.9330 C   0  0  0  0  0  0  0  0  0  0  0  0
   -4.4720    0.6940   -1.1970 C   0  0  0  0  0  0  0  0  0  0  0  0
   -6.7320   -0.2580   -1.6230 C   0  0  0  0  0  0  0  0  0  0  0  0
   -7.7950   -0.4710   -0.5960 C   0  0  0  0  0  0  0  0  0  0  0  0
   -7.5320   -1.4870    0.3700 N   0  0  0  0  0  0  0  0  0  0  0  0
   -6.3170   -2.2200    0.1860 C   0  0  0  0  0  0  0  0  0  0  0  0
    5.8510    0.9910    0.0050 N   0  0  0  0  0  0  0  0  0  0  0  0
    7.2360    0.8100   -0.1850 C   0  0  0  0  0  0  0  0  0  0  0  0
    8.0430    1.8540   -0.2880 C   0  0  0  0  0  0  0  0  0  0  0  0
  1  2  2  0
  2  3  1  0
  2 29  1  0
  3  4  1  0
  4  5  1  0
  5  6  1  1
  5 28  1  0
  6  7  1  0
  7  8  2  0
  7  9  1  0
  9 10  2  0
  9 13  1  0
 10 11  1  0
 11 12  1  0
 12 13  2  0
 13 14  1  0
 14 15  2  0
 14 16  2  0
 14 17  1  1
 17 18  1  0
 18 19  2  0
 18 23  1  0
 19 20  1  0
 20 21  2  0
 21 22  1  0
 21 27  1  0
 22 23  2  0
 22 24  1  0
 24 25  1  0
 25 26  1  0
 26 27  1  0
 28 29  1  0
 29 30  2  0
M  CHG  1  26   1
M  END
