
     RDKit          3D

 31 35  0  0  0  0  0  0  0  0999 V2000
    0.4820    1.1290    2.6050 C   0  0  0  0  0  0  0  0  0  0  0  0
    1.5970    0.9810    1.7810 O   0  0  0  0  0  0  0  0  0  0  0  0
    1.5190    0.2540    0.6110 C   0  0  0  0  0  0  0  0  0  0  0  0
    0.3070   -0.3380    0.2590 C   0  0  0  0  0  0  0  0  0  0  0  0
    0.2500   -1.0590   -0.9090 C   0  0  0  0  0  0  0  0  0  0  0  0
    1.3650   -1.2000   -1.7260 C   0  0  0  0  0  0  0  0  0  0  0  0
    2.5450   -0.6010   -1.3440 C   0  0  0  0  0  0  0  0  0  0  0  0
    2.6510    0.1260   -0.1900 C   0  0  0  0  0  0  0  0  0  0  0  0
    3.8880    0.7620    0.2240 C   0  0  0  0  0  0  0  0  0  0  0  0
    4.8710    0.2210    0.9990 C   0  0  0  0  0  0  0  0  0  0  0  0
    4.9370   -1.1420    1.6180 C   0  0  0  0  0  0  0  0  0  0  0  0
    5.8270    1.1650    1.1260 N   0  0  0  0  0  0  0  0  0  0  0  0
    5.4690    2.2230    0.4750 O   0  0  0  0  0  0  0  0  0  0  0  0
    4.2800    2.0350   -0.1030 C   0  0  0  0  0  0  0  0  0  0  0  0
    3.5920    3.0540   -0.9200 C   0  0  0  0  0  0  0  0  0  0  0  0
    1.3500   -1.8960   -2.8820 N   0  0  0  0  0  0  0  0  0  0  0  0
    0.1950   -2.4680   -3.2360 C   0  0  0  0  0  0  0  0  0  0  0  0
   -0.9490   -2.3660   -2.4680 C   0  0  0  0  0  0  0  0  0  0  0  0
   -2.1940   -2.8520   -2.6230 N   0  0  0  0  0  0  0  0  0  0  0  0
   -2.9120   -2.4520   -1.5720 C   0  0  0  0  0  0  0  0  0  0  0  0
   -4.1380   -2.7720   -1.4610 O   0  0  0  0  0  0  0  0  0  0  0  0
   -2.1500   -1.7020   -0.7180 N   0  0  0  0  0  0  0  0  0  0  0  0
   -2.6710   -1.1680    0.4780 C   0  0  2  0  0  0  0  0  0  0  0  0
   -3.9840   -1.9330    0.8700 C   0  0  0  0  0  0  0  0  0  0  0  0
   -3.1850    0.2360    0.3120 C   0  0  0  0  0  0  0  0  0  0  0  0
   -2.9490    1.1230    1.3320 C   0  0  0  0  0  0  0  0  0  0  0  0
   -3.3760    2.4400    1.2770 C   0  0  0  0  0  0  0  0  0  0  0  0
   -4.0590    2.8210    0.1320 C   0  0  0  0  0  0  0  0  0  0  0  0
   -4.2730    1.8890   -0.8710 C   0  0  0  0  0  0  0  0  0  0  0  0
   -3.8440    0.6200   -0.7830 N   0  0  0  0  0  0  0  0  0  0  0  0
   -0.9480   -1.6460   -1.2640 C   0  0  0  0  0  0  0  0  0  0  0  0
  1  2  1  0
  2  3  1  0
  3  4  2  0
  3  8  1  0
  4  5  1  0
  5  6  2  0
  5 31  1  0
  6  7  1  0
  6 16  1  0
  7  8  2  0
  8  9  1  0
  9 10  1  0
  9 14  2  0
 10 11  1  0
 10 12  2  0
 12 13  1  0
 13 14  1  0
 14 15  1  0
 16 17  2  0
 17 18  1  0
 18 19  1  0
 18 31  2  0
 19 20  1  0
 20 21  2  0
 20 22  1  0
 22 23  1  0
 22 31  1  0
 23 24  1  6
 23 25  1  0
 25 26  2  0
 25 30  1  0
 26 27  1  0
 27 28  2  0
 28 29  1  0
 29 30  2  0
M  END
