
     RDKit          3D

 30 32  0  0  0  0  0  0  0  0999 V2000
   -3.5020    1.8300   -3.7170 C   0  0  0  0  0  0  0  0  0  0  0  0
   -2.9520    0.9600   -2.8970 C   0  0  0  0  0  0  0  0  0  0  0  0
   -3.0400   -0.3890   -3.1350 N   0  0  0  0  0  0  0  0  0  0  0  0
   -2.4080   -1.0210   -2.1610 C   0  0  0  0  0  0  0  0  0  0  0  0
   -1.8830   -0.1090   -1.2480 C   0  0  0  0  0  0  0  0  0  0  0  0
   -1.1100   -0.4160   -0.0430 C   0  0  0  0  0  0  0  0  0  0  0  0
   -0.6710    0.4600    0.6640 N   0  0  0  0  0  0  0  0  0  0  0  0
    0.1460    1.0170    1.9560 S   0  0  2  0  0  0  0  0  0  0  0  0
   -0.5010    0.7760    3.3050 O   0  0  0  0  0  0  0  0  0  0  0  0
    0.3490    2.5500    1.9550 O   0  0  0  0  0  0  0  0  0  0  0  0
    1.7760    0.4180    2.0860 N   0  0  0  0  0  0  0  0  0  0  0  0
    2.8160    0.8760    1.2740 C   0  0  0  0  0  0  0  0  0  0  0  0
    2.5330    1.2000   -0.0630 C   0  0  0  0  0  0  0  0  0  0  0  0
    3.4950    1.6270   -0.9380 C   0  0  0  0  0  0  0  0  0  0  0  0
    3.1470    2.0000   -2.6220 S   0  0  2  0  0  0  0  0  0  0  0  0
    3.6520    3.3250   -3.0160 O   0  0  0  0  0  0  0  0  0  0  0  0
    1.6650    1.8260   -2.8380 O   0  0  0  0  0  0  0  0  0  0  0  0
    4.8100    1.7510   -0.5070 C   0  0  0  0  0  0  0  0  0  0  0  0
    5.1120    1.4430    0.7910 C   0  0  0  0  0  0  0  0  0  0  0  0
    4.1210    1.0060    1.6810 C   0  0  0  0  0  0  0  0  0  0  0  0
    4.4600    0.7090    3.0160 N   0  0  0  0  0  0  0  0  0  0  0  0
   -0.9430   -1.8900    0.2390 C   0  0  1  0  0  0  0  0  0  0  0  0
   -0.1190   -2.2060    1.4290 C   0  0  0  0  0  0  0  0  0  0  0  0
   -0.2680   -3.7310    1.6690 C   0  0  0  0  0  0  0  0  0  0  0  0
   -1.5530   -3.9640    2.3120 N   0  0  0  0  0  0  0  0  0  0  0  0
   -2.5220   -2.9600    1.8930 C   0  0  0  0  0  0  0  0  0  0  0  0
   -2.2850   -2.5740    0.4400 C   0  0  0  0  0  0  0  0  0  0  0  0
   -2.2410    1.1540   -1.7360 C   0  0  0  0  0  0  0  0  0  0  0  0
   -1.9340    2.2860   -1.1810 C   0  0  0  0  0  0  0  0  0  0  0  0
   -2.2610    3.6550   -1.6410 C   0  0  0  0  0  0  0  0  0  0  0  0
  1  2  2  0
  2  3  1  0
  2 28  1  0
  3  4  1  0
  4  5  2  0
  5  6  1  0
  5 28  1  0
  6  7  2  3
 22  6  1  1
  7  8  1  0
  8  9  2  0
  8 10  2  0
  8 11  1  1
 11 12  1  0
 12 13  2  0
 12 20  1  0
 13 14  1  0
 15 14  1  1
 14 18  2  0
 15 16  2  0
 15 17  2  0
 18 19  1  0
 19 20  2  0
 20 21  1  0
 22 23  1  0
 22 27  1  0
 23 24  1  0
 24 25  1  0
 25 26  1  0
 26 27  1  0
 28 29  2  3
 29 30  1  0
M  CHG  1  25   1
M  END
