
     RDKit          3D

 30 32  0  0  0  0  0  0  0  0999 V2000
   -7.9840   -0.1700   -0.8940 C   0  0  0  0  0  0  0  0  0  0  0  0
   -6.7280   -0.9300   -1.1440 C   0  0  0  0  0  0  0  0  0  0  0  0
   -5.5370   -0.3820   -0.4580 C   0  0  0  0  0  0  0  0  0  0  0  0
   -4.3000   -1.0340   -0.6110 C   0  0  0  0  0  0  0  0  0  0  0  0
   -3.1720   -0.5720   -0.0000 C   0  0  0  0  0  0  0  0  0  0  0  0
   -1.8980   -1.1730   -0.0890 N   0  0  0  0  0  0  0  0  0  0  0  0
   -1.5610   -2.3970   -0.6860 C   0  0  0  0  0  0  0  0  0  0  0  0
   -2.4770   -3.0780   -1.2130 O   0  0  0  0  0  0  0  0  0  0  0  0
   -0.2080   -2.9950   -0.7640 C   0  0  0  0  0  0  0  0  0  0  0  0
    0.8460   -2.2120   -0.2140 N   0  0  0  0  0  0  0  0  0  0  0  0
    1.2630   -0.9410   -0.6730 C   0  0  0  0  0  0  0  0  0  0  0  0
    0.6690   -0.4410   -1.6580 O   0  0  0  0  0  0  0  0  0  0  0  0
    2.3660   -0.2060   -0.0250 C   0  0  0  0  0  0  0  0  0  0  0  0
    2.9440   -0.7220    0.9650 O   0  0  0  0  0  0  0  0  0  0  0  0
    2.8110    1.0580   -0.4620 N   0  0  0  0  0  0  0  0  0  0  0  0
    3.8560    1.7620    0.1480 N   0  0  0  0  0  0  0  0  0  0  0  0
    5.1860    1.2790    0.0550 C   0  0  0  0  0  0  0  0  0  0  0  0
    5.4440    0.1390   -0.6450 C   0  0  0  0  0  0  0  0  0  0  0  0
    6.7380   -0.3450   -0.7340 C   0  0  0  0  0  0  0  0  0  0  0  0
    7.7830    0.2980   -0.1300 C   0  0  0  0  0  0  0  0  0  0  0  0
    9.5060   -0.0480   -0.0510 S   0  0  0  0  0  0  0  0  0  0  0  0
   10.2960    0.9470    0.7400 C   0  0  0  0  0  0  0  0  0  0  0  0
   11.5140    1.1650    1.0970 O   0  0  0  0  0  0  0  0  0  0  0  0
    8.9840    2.1120    1.2700 S   0  0  0  0  0  0  0  0  0  0  0  0
    7.5200    1.4690    0.5900 C   0  0  0  0  0  0  0  0  0  0  0  0
    6.2250    1.9360    0.6680 C   0  0  0  0  0  0  0  0  0  0  0  0
   -3.3340    0.5810    0.7760 C   0  0  0  0  0  0  0  0  0  0  0  0
   -4.5310    1.2280    0.9350 C   0  0  0  0  0  0  0  0  0  0  0  0
   -4.6800    2.4530    1.7670 C   0  0  0  0  0  0  0  0  0  0  0  0
   -5.6260    0.7140    0.2980 N   0  0  0  0  0  0  0  0  0  0  0  0
  1  2  1  0
  2  3  1  0
  3  4  2  0
  3 30  1  0
  4  5  1  0
  5  6  1  0
  5 27  2  0
  6  7  1  0
  7  8  2  0
  7  9  1  0
  9 10  1  0
 10 11  1  0
 11 12  2  0
 11 13  1  0
 13 14  2  0
 13 15  1  0
 15 16  1  0
 16 17  1  0
 17 18  2  0
 17 26  1  0
 18 19  1  0
 19 20  2  0
 20 21  1  0
 20 25  1  0
 21 22  1  0
 22 23  2  0
 22 24  1  0
 24 25  1  0
 25 26  2  0
 27 28  1  0
 28 29  1  0
 28 30  2  0
M  CHG  1  30   1
M  END
