
     RDKit          3D

 30 33  0  0  0  0  0  0  0  0999 V2000
    9.0900    4.1160   -1.1210 O   0  0  0  0  0  0  0  0  0  0  0  0
    8.8650    2.8820   -1.9670 S   0  0  0  0  0  0  0  0  0  0  0  0
    7.5100    2.0040   -1.2580 N   0  0  0  0  0  0  0  0  0  0  0  0
    7.7150    0.6700   -0.8770 C   0  0  0  0  0  0  0  0  0  0  0  0
    8.8770    0.1810   -1.0720 O   0  0  0  0  0  0  0  0  0  0  0  0
    6.7040   -0.1990   -0.2770 C   0  0  0  0  0  0  0  0  0  0  0  0
    5.4440    0.4420   -0.1020 N   0  0  0  0  0  0  0  0  0  0  0  0
    4.3590   -0.2770    0.4700 C   0  0  0  0  0  0  0  0  0  0  0  0
    4.5230   -1.5890    0.8570 C   0  0  0  0  0  0  0  0  0  0  0  0
    3.4910   -2.3250    1.4190 C   0  0  0  0  0  0  0  0  0  0  0  0
    2.2690   -1.7200    1.5930 C   0  0  0  0  0  0  0  0  0  0  0  0
    2.0560   -0.4020    1.2190 C   0  0  0  0  0  0  0  0  0  0  0  0
    3.1160    0.2890    0.6640 C   0  0  0  0  0  0  0  0  0  0  0  0
    0.7760    0.1740    1.4220 N   0  0  0  0  0  0  0  0  0  0  0  0
   -0.2400   -0.6330    2.0030 C   0  0  0  0  0  0  0  0  0  0  0  0
   -1.1960   -0.0920    2.6020 O   0  0  0  0  0  0  0  0  0  0  0  0
   -0.1120   -2.1060    1.8670 C   0  0  1  0  0  0  0  0  0  0  0  0
   -0.4550   -2.4440    0.4210 C   0  0  0  0  0  0  0  0  0  0  0  0
   -1.8090   -2.0550    0.1840 N   0  0  0  0  0  0  0  0  0  0  0  0
   -1.9580   -1.0460   -0.8200 C   0  0  0  0  0  0  0  0  0  0  0  0
   -3.3070   -0.4220   -0.7560 C   0  0  0  0  0  0  0  0  0  0  0  0
   -3.9950    0.4120   -1.2830 N   0  0  0  0  0  0  0  0  0  0  0  0
   -5.2120    0.7570   -0.9910 C   0  0  0  0  0  0  0  0  0  0  0  0
   -5.8120    0.0940    0.0550 C   0  0  0  0  0  0  0  0  0  0  0  0
   -4.5490   -1.0060    0.5540 S   0  0  0  0  0  0  0  0  0  0  0  0
   -7.1390    0.2680    0.5920 C   0  0  0  0  0  0  0  0  0  0  0  0
   -7.8510    1.4320   -0.0020 C   0  0  0  0  0  0  0  0  0  0  0  0
   -6.8510    2.4460   -0.4780 C   0  0  0  0  0  0  0  0  0  0  0  0
   -6.0920    1.8030   -1.6410 C   0  0  0  0  0  0  0  0  0  0  0  0
    1.2300   -2.4720    2.1630 O   0  0  0  0  0  0  0  0  0  0  0  0
  1  2  2  0
  2  3  1  0
  3  4  1  0
  4  5  2  0
  4  6  1  0
  6  7  1  0
  7  8  1  0
  8  9  2  0
  8 13  1  0
  9 10  1  0
 10 11  2  0
 11 12  1  0
 11 30  1  0
 12 13  2  0
 12 14  1  0
 14 15  1  0
 15 16  2  0
 15 17  1  0
 17 18  1  6
 17 30  1  0
 18 19  1  0
 19 20  1  0
 20 21  1  0
 21 22  2  0
 21 25  1  0
 22 23  1  0
 23 24  2  0
 23 29  1  0
 24 25  1  0
 24 26  1  0
 26 27  1  0
 27 28  1  0
 28 29  1  0
M  CHG  1  19   1
M  END
