
     RDKit          3D

 30 32  0  0  0  0  0  0  0  0999 V2000
   -2.0380    3.5030   -2.0080 C   0  0  0  0  0  0  0  0  0  0  0  0
   -1.4780    2.1580   -1.8050 N   0  0  0  0  0  0  0  0  0  0  0  0
   -2.3110    1.0430   -1.6100 C   0  0  0  0  0  0  0  0  0  0  0  0
   -2.6940    0.6130   -0.3610 C   0  0  0  0  0  0  0  0  0  0  0  0
   -2.2020    1.3490    0.7150 N   0  0  0  0  0  0  0  0  0  0  0  0
   -1.3260    1.1620    1.8180 C   0  0  0  0  0  0  0  0  0  0  0  0
   -1.6010    1.6650    2.9870 O   0  0  0  0  0  0  0  0  0  0  0  0
   -0.0810    0.4350    1.8000 N   0  0  0  0  0  0  0  0  0  0  0  0
    0.0040   -0.7940    1.0560 C   0  0  0  0  0  0  0  0  0  0  0  0
    0.9130   -0.9650   -0.0790 C   0  0  2  0  0  0  0  0  0  0  0  0
    2.0950   -0.0600   -0.1850 C   0  0  0  0  0  0  0  0  0  0  0  0
    2.9340   -0.0050    0.9600 N   0  0  0  0  0  0  0  0  0  0  0  0
    4.3070   -0.3590    0.7060 C   0  0  0  0  0  0  0  0  0  0  0  0
    5.0430    0.9620    0.4840 C   0  0  0  0  0  0  0  0  0  0  0  0
    5.3150    1.5030   -0.7060 C   0  0  0  0  0  0  0  0  0  0  0  0
    5.9800    2.6990   -0.8000 C   0  0  0  0  0  0  0  0  0  0  0  0
    6.2680    3.1370    0.9590 S   0  0  0  0  0  0  0  0  0  0  0  0
    5.4550    1.6490    1.6270 C   0  0  0  0  0  0  0  0  0  0  0  0
    0.1770   -0.9770   -1.2540 O   0  0  0  0  0  0  0  0  0  0  0  0
   -0.7210   -1.9650   -1.4890 C   0  0  0  0  0  0  0  0  0  0  0  0
   -0.9910   -2.9560   -0.4600 C   0  0  0  0  0  0  0  0  0  0  0  0
   -0.2000   -4.0020   -0.5970 O   0  0  0  0  0  0  0  0  0  0  0  0
   -1.9000   -3.0090    0.6160 N   0  0  0  0  0  0  0  0  0  0  0  0
   -3.1680   -2.5680    0.8790 C   0  0  0  0  0  0  0  0  0  0  0  0
   -4.2450   -3.5440    2.0940 S   0  0  0  0  0  0  0  0  0  0  0  0
   -5.6520   -2.5340    1.9710 C   0  0  0  0  0  0  0  0  0  0  0  0
   -5.2430   -1.5850    1.0770 C   0  0  0  0  0  0  0  0  0  0  0  0
   -3.9940   -1.6060    0.5340 C   0  0  0  0  0  0  0  0  0  0  0  0
   -3.6090   -0.5110   -0.4580 C   0  0  0  0  0  0  0  0  0  0  0  0
   -4.2550   -0.6570   -1.5870 O   0  0  0  0  0  0  0  0  0  0  0  0
  1  2  1  0
  2  3  1  0
  3  4  2  3
  4  5  1  0
  4 29  1  0
  5  6  1  0
  6  7  2  0
  6  8  1  0
  8  9  1  0
  9 10  1  0
 10 11  1  6
 10 19  1  0
 11 12  1  0
 12 13  1  0
 13 14  1  0
 14 15  1  0
 14 18  2  0
 15 16  2  0
 16 17  1  0
 17 18  1  0
 19 20  1  0
 20 21  1  0
 21 22  2  0
 21 23  1  0
 23 24  1  0
 24 25  1  0
 24 28  2  0
 25 26  1  0
 26 27  2  0
 27 28  1  0
 28 29  1  0
 29 30  2  0
M  CHG  1  12   1
M  END
