
     RDKit          3D

 29 31  0  0  0  0  0  0  0  0999 V2000
    7.2980    0.0330   -2.1770 C   0  0  0  0  0  0  0  0  0  0  0  0
    6.5660    0.4210   -0.9500 C   0  0  0  0  0  0  0  0  0  0  0  0
    7.2240    1.1170    0.0320 C   0  0  0  0  0  0  0  0  0  0  0  0
    6.5230    1.4600    1.1660 C   0  0  0  0  0  0  0  0  0  0  0  0
    5.1930    1.1160    1.3190 C   0  0  0  0  0  0  0  0  0  0  0  0
    4.5210    1.5270    2.5810 C   0  0  0  0  0  0  0  0  0  0  0  0
    4.5040    0.4060    0.3320 C   0  0  0  0  0  0  0  0  0  0  0  0
    3.1490    0.1000    0.5630 N   0  0  0  0  0  0  0  0  0  0  0  0
    2.3130   -0.7010   -0.2280 C   0  0  0  0  0  0  0  0  0  0  0  0
    2.7880   -1.2410   -1.2710 O   0  0  0  0  0  0  0  0  0  0  0  0
    0.8890   -0.9880    0.0510 C   0  0  0  0  0  0  0  0  0  0  0  0
    0.3150   -1.7030    1.0650 C   0  0  0  0  0  0  0  0  0  0  0  0
   -1.0370   -1.7020    0.8940 C   0  0  0  0  0  0  0  0  0  0  0  0
   -1.9570   -2.4080    1.8230 C   0  0  0  0  0  0  0  0  0  0  0  0
   -1.3490   -0.9910   -0.2220 N   0  0  0  0  0  0  0  0  0  0  0  0
   -2.6850   -0.8210   -0.6890 C   0  0  2  0  0  0  0  0  0  0  0  0
   -2.9160   -0.8370   -2.1540 C   0  0  0  0  0  0  0  0  0  0  0  0
   -3.9170    0.6350   -2.5870 S   0  0  0  0  0  0  0  0  0  0  0  0
   -3.3260    2.0840   -1.6800 C   0  0  0  0  0  0  0  0  0  0  0  0
   -2.8990    1.6690   -0.2880 C   0  0  0  0  0  0  0  0  0  0  0  0
   -3.4610    0.3140   -0.0010 C   0  0  1  0  0  0  0  0  0  0  0  0
   -4.7840    0.1860   -0.5060 O   0  0  0  0  0  0  0  0  0  0  0  0
   -5.8160   -0.1230    0.3350 C   0  0  0  0  0  0  0  0  0  0  0  0
   -5.5450   -0.2910    1.5700 O   0  0  0  0  0  0  0  0  0  0  0  0
   -7.2270   -0.2750   -0.1210 C   0  0  0  0  0  0  0  0  0  0  0  0
   -8.0120   -0.7410    1.0040 N   0  0  0  0  0  0  0  0  0  0  0  0
   -0.1780   -0.5480   -0.7490 C   0  0  0  0  0  0  0  0  0  0  0  0
    0.0260    0.2470   -1.9580 C   0  0  0  0  0  0  0  0  0  0  0  0
    5.2240    0.0830   -0.7750 C   0  0  0  0  0  0  0  0  0  0  0  0
  1  2  1  0
  2  3  2  0
  2 29  1  0
  3  4  1  0
  4  5  2  0
  5  6  1  0
  5  7  1  0
  7  8  1  0
  7 29  2  0
  8  9  1  0
  9 10  2  0
  9 11  1  0
 11 12  1  0
 11 27  2  0
 12 13  2  0
 13 14  1  0
 13 15  1  0
 16 15  1  6
 15 27  1  0
 16 17  1  0
 16 21  1  0
 17 18  1  0
 18 19  1  0
 19 20  1  0
 20 21  1  0
 21 22  1  6
 22 23  1  0
 23 24  2  0
 23 25  1  0
 25 26  1  0
 27 28  1  0
M  END
