
     RDKit          3D

 30 33  0  0  0  0  0  0  0  0999 V2000
    8.2330   -4.0760   -0.7780 O   0  0  0  0  0  0  0  0  0  0  0  0
    8.2090   -2.7810    0.0170 S   0  0  0  0  0  0  0  0  0  0  0  0
    7.7790   -1.4490   -0.9940 N   0  0  0  0  0  0  0  0  0  0  0  0
    6.4320   -1.0120   -0.8230 C   0  0  0  0  0  0  0  0  0  0  0  0
    5.4370   -1.3810   -1.7050 C   0  0  0  0  0  0  0  0  0  0  0  0
    4.1430   -0.9440   -1.5180 C   0  0  0  0  0  0  0  0  0  0  0  0
    3.7690   -0.1300   -0.4640 C   0  0  0  0  0  0  0  0  0  0  0  0
    4.7630    0.2390    0.4170 C   0  0  0  0  0  0  0  0  0  0  0  0
    6.0640   -0.1990    0.2310 C   0  0  0  0  0  0  0  0  0  0  0  0
    4.3980    1.0790    1.5130 N   0  0  0  0  0  0  0  0  0  0  0  0
    3.0600    1.5280    1.7020 C   0  0  0  0  0  0  0  0  0  0  0  0
    2.7190    2.2680    2.6610 O   0  0  0  0  0  0  0  0  0  0  0  0
    2.0420    1.1140    0.7470 C   0  0  0  0  0  0  0  0  0  0  0  0
    0.7510    1.4960    0.8570 C   0  0  0  0  0  0  0  0  0  0  0  0
   -0.2220    1.0620   -0.1130 C   0  0  0  0  0  0  0  0  0  0  0  0
   -1.5010    1.4490    0.0200 C   0  0  0  0  0  0  0  0  0  0  0  0
   -1.9360    2.3070    1.1390 C   0  0  0  0  0  0  0  0  0  0  0  0
   -3.4050    2.3010    1.2510 C   0  0  0  0  0  0  0  0  0  0  0  0
   -3.9460    2.7500    2.3290 O   0  0  0  0  0  0  0  0  0  0  0  0
   -4.2010    1.8120    0.1930 N   0  0  0  0  0  0  0  0  0  0  0  0
   -3.6670    1.1500   -0.9330 C   0  0  0  0  0  0  0  0  0  0  0  0
   -4.6940    0.5040   -2.2490 S   0  0  0  0  0  0  0  0  0  0  0  0
   -6.4080    0.4790   -1.7220 C   0  0  0  0  0  0  0  0  0  0  0  0
   -6.5890   -0.5980   -0.7110 C   0  0  0  0  0  0  0  0  0  0  0  0
   -6.8490   -1.9100   -1.1200 C   0  0  0  0  0  0  0  0  0  0  0  0
   -6.9800   -2.6740    0.0150 C   0  0  0  0  0  0  0  0  0  0  0  0
   -6.7980   -1.8150    1.0600 C   0  0  0  0  0  0  0  0  0  0  0  0
   -6.5610   -0.5550    0.6070 N   0  0  0  0  0  0  0  0  0  0  0  0
   -2.3950    1.0010   -0.9730 N   0  0  0  0  0  0  0  0  0  0  0  0
    2.4560    0.3000   -0.2940 O   0  0  0  0  0  0  0  0  0  0  0  0
  1  2  2  0
  2  3  1  0
  3  4  1  0
  4  5  2  0
  4  9  1  0
  5  6  1  0
  6  7  2  0
  7  8  1  0
  7 30  1  0
  8  9  2  0
  8 10  1  0
 10 11  1  0
 11 12  2  0
 11 13  1  0
 13 14  2  3
 13 30  1  0
 14 15  1  0
 15 16  2  3
 16 17  1  0
 16 29  1  0
 17 18  1  0
 18 19  2  0
 18 20  1  0
 20 21  1  0
 21 22  1  0
 21 29  2  0
 22 23  1  0
 23 24  1  0
 24 25  2  0
 24 28  1  0
 25 26  1  0
 26 27  2  0
 27 28  1  0
M  CHG  1   3   1
M  END
