
     RDKit          3D

 12 13  0  0  0  0  0  0  0  0999 V2000
    3.9850    0.4990   -0.1260 C   0  0  0  0  0  0  0  0  0  0  0  0
    3.1880   -0.5850    0.3570 N   0  0  0  0  0  0  0  0  0  0  0  0
    1.9470   -0.5950    0.5650 C   0  0  0  0  0  0  0  0  0  0  0  0
    1.1330    0.5250    0.3370 N   0  0  0  0  0  0  0  0  0  0  0  0
   -0.2970    0.3930    0.1060 C   0  0  0  0  0  0  0  0  0  0  0  0
   -0.9810    1.5390   -0.0610 C   0  0  0  0  0  0  0  0  0  0  0  0
   -2.3640    1.5670   -0.2920 N   0  0  0  0  0  0  0  0  0  0  0  0
   -3.1310    0.3540   -0.2810 C   0  0  0  0  0  0  0  0  0  0  0  0
   -2.3270   -0.8490   -0.0980 C   0  0  0  0  0  0  0  0  0  0  0  0
   -1.0110   -0.8480    0.0830 C   0  0  0  0  0  0  0  0  0  0  0  0
   -0.3730   -2.2000    0.2180 C   0  0  0  0  0  0  0  0  0  0  0  0
    1.1420   -2.0630    1.1730 S   0  0  0  0  0  0  0  0  0  0  0  0
  1  2  1  0
  2  3  2  3
  3  4  1  0
  3 12  1  0
  4  5  1  0
  5  6  2  0
  5 10  1  0
  6  7  1  0
  7  8  1  0
  8  9  1  0
  9 10  2  0
 10 11  1  0
 11 12  1  0
M  END
