
     RDKit          3D

 25 27  0  0  0  0  0  0  0  0999 V2000
   -5.1360    2.6770    0.5210 C   0  0  0  0  0  0  0  0  0  0  0  0
   -4.8200    1.3610   -0.0730 C   0  0  0  0  0  0  0  0  0  0  0  0
   -5.5540    0.7930   -1.0840 C   0  0  0  0  0  0  0  0  0  0  0  0
   -5.2340   -0.4410   -1.6190 C   0  0  0  0  0  0  0  0  0  0  0  0
   -4.1580   -1.1410   -1.1450 C   0  0  0  0  0  0  0  0  0  0  0  0
   -3.6970   -2.7070   -1.7800 Cl  0  0  0  0  0  0  0  0  0  0  0  0
   -3.4010   -0.5670   -0.1100 C   0  0  0  0  0  0  0  0  0  0  0  0
   -3.7130    0.6560    0.4250 C   0  0  0  0  0  0  0  0  0  0  0  0
   -2.7990    0.9910    1.4530 N   0  0  0  0  0  0  0  0  0  0  0  0
   -1.8680   -0.0640    1.5800 C   0  0  0  0  0  0  0  0  0  0  0  0
   -0.9170   -0.0890    2.4380 O   0  0  0  0  0  0  0  0  0  0  0  0
   -2.1990   -1.0770    0.5730 C   0  0  2  0  0  0  0  0  0  0  0  0
   -1.1340   -1.0620   -0.4100 N   0  0  0  0  0  0  0  0  0  0  0  0
    0.0840   -1.5270    0.0580 N   0  0  0  0  0  0  0  0  0  0  0  0
    1.2850   -0.7330   -0.0570 C   0  0  0  0  0  0  0  0  0  0  0  0
    1.2070    0.4010   -0.5830 O   0  0  0  0  0  0  0  0  0  0  0  0
    2.5310   -1.3170    0.4560 C   0  0  1  0  0  0  0  0  0  0  0  0
    2.8570   -2.6130   -0.3050 C   0  0  0  0  0  0  0  0  0  0  0  0
    3.6400   -0.3480    0.2580 C   0  0  0  0  0  0  0  0  0  0  0  0
    3.8650    0.3210   -0.9260 C   0  0  0  0  0  0  0  0  0  0  0  0
    4.9080    1.2230   -1.1000 C   0  0  0  0  0  0  0  0  0  0  0  0
    5.7790    1.4830   -0.0590 C   0  0  0  0  0  0  0  0  0  0  0  0
    6.8350    2.3890   -0.2200 O   0  0  0  0  0  0  0  0  0  0  0  0
    5.5640    0.8210    1.1260 C   0  0  0  0  0  0  0  0  0  0  0  0
    4.5320   -0.0710    1.3020 C   0  0  0  0  0  0  0  0  0  0  0  0
  1  2  1  0
  2  3  2  0
  2  8  1  0
  3  4  1  0
  4  5  2  0
  5  6  1  0
  5  7  1  0
  7  8  2  0
  7 12  1  0
  8  9  1  0
  9 10  1  0
 10 11  2  0
 10 12  1  0
 12 13  1  6
 13 14  1  0
 14 15  1  0
 15 16  2  0
 15 17  1  0
 17 18  1  6
 17 19  1  0
 19 20  2  0
 19 25  1  0
 20 21  1  0
 21 22  2  0
 22 23  1  0
 22 24  1  0
 24 25  2  0
M  CHG  1  13   1
M  END
