
     RDKit          3D

 12 13  0  0  0  0  0  0  0  0999 V2000
   -3.1880    0.8670   -0.0760 N   0  0  0  0  0  0  0  0  0  0  0  0
   -1.7090    0.9390   -0.0510 C   0  0  0  0  0  0  0  0  0  0  0  0
   -1.1840   -0.4400   -0.1220 C   0  0  0  0  0  0  0  0  0  0  0  0
   -1.9950   -1.5830   -0.2150 C   0  0  0  0  0  0  0  0  0  0  0  0
   -1.2110   -2.6590   -0.2670 N   0  0  0  0  0  0  0  0  0  0  0  0
    0.0140   -2.2330   -0.2120 N   0  0  0  0  0  0  0  0  0  0  0  0
    0.1080   -0.8970   -0.1220 C   0  0  0  0  0  0  0  0  0  0  0  0
    1.3620   -0.0700   -0.0340 C   0  0  0  0  0  0  0  0  0  0  0  0
    2.5260   -0.6100   -0.0470 C   0  0  0  0  0  0  0  0  0  0  0  0
    3.7200    0.2500    0.0430 C   0  0  0  0  0  0  0  0  0  0  0  0
    3.0090    1.9020    0.0960 S   0  0  0  0  0  0  0  0  0  0  0  0
    1.2740    1.3960    0.0750 C   0  0  0  0  0  0  0  0  0  0  0  0
  1  2  1  0
  2  3  1  0
  3  4  1  0
  3  7  2  0
  4  5  2  0
  5  6  1  0
  6  7  1  0
  7  8  1  0
  8  9  2  0
  8 12  1  0
  9 10  1  0
 10 11  1  0
 11 12  1  0
M  CHG  1   1   1
M  END
