
     RDKit          3D

 12 13  0  0  0  0  0  0  0  0999 V2000
   -2.8360    1.2460   -0.2860 N   0  0  0  0  0  0  0  0  0  0  0  0
   -1.4380    1.0910   -0.2840 C   0  0  0  0  0  0  0  0  0  0  0  0
   -0.9060   -0.0580    0.0510 C   0  0  0  0  0  0  0  0  0  0  0  0
   -1.5420   -1.3520    0.4700 C   0  0  0  0  0  0  0  0  0  0  0  0
   -0.4380   -2.3620    0.4070 C   0  0  0  0  0  0  0  0  0  0  0  0
    0.8550   -1.5810    0.4610 C   0  0  0  0  0  0  0  0  0  0  0  0
    0.5140   -0.2380    0.0600 N   0  0  0  0  0  0  0  0  0  0  0  0
    1.3620    0.8430   -0.3000 C   0  0  0  0  0  0  0  0  0  0  0  0
    2.6720    0.7170   -0.3040 C   0  0  0  0  0  0  0  0  0  0  0  0
    3.7120    2.0670   -0.7530 S   0  0  0  0  0  0  0  0  0  0  0  0
    0.7130    2.0680   -0.6550 N   0  0  0  0  0  0  0  0  0  0  0  0
   -0.5710    2.2040   -0.6540 C   0  0  0  0  0  0  0  0  0  0  0  0
  1  2  1  0
  2  3  2  0
  2 12  1  0
  3  4  1  0
  3  7  1  0
  4  5  1  0
  5  6  1  0
  6  7  1  0
  7  8  1  0
  8  9  2  3
  8 11  1  0
  9 10  1  0
 11 12  2  0
M  END
