
     RDKit          3D

 12 12  0  0  0  0  0  0  0  0999 V2000
    1.4850    2.2610   -0.2400 C   0  0  0  0  0  0  0  0  0  0  0  0
    0.5910    1.3140   -0.2490 C   0  0  0  0  0  0  0  0  0  0  0  0
   -1.0030    1.8090   -0.8770 S   0  0  0  0  0  0  0  0  0  0  0  0
   -2.1900    0.5610   -0.4310 C   0  0  0  0  0  0  0  0  0  0  0  0
   -3.2380    0.5440   -1.1820 N   0  0  0  0  0  0  0  0  0  0  0  0
   -2.1370   -0.4160    0.6430 C   0  0  0  0  0  0  0  0  0  0  0  0
   -3.4210   -0.7120    1.1790 N   0  0  0  0  0  0  0  0  0  0  0  0
   -1.1020   -1.0420    1.1630 C   0  0  0  0  0  0  0  0  0  0  0  0
    0.2900   -0.9380    0.8150 C   0  0  0  0  0  0  0  0  0  0  0  0
    1.0090   -0.0150    0.2500 C   0  0  0  0  0  0  0  0  0  0  0  0
    2.3950   -0.2780    0.0670 N   0  0  0  0  0  0  0  0  0  0  0  0
    2.9240   -0.9740   -1.0880 C   0  0  0  0  0  0  0  0  0  0  0  0
  1  2  2  0
  2  3  1  0
  2 10  1  0
  3  4  1  0
  4  5  2  0
  4  6  1  0
  6  7  1  0
  6  8  2  0
  8  9  1  0
  9 10  2  0
 10 11  1  0
 11 12  1  0
M  END
