
     RDKit          3D

 12 12  0  0  0  0  0  0  0  0999 V2000
    1.9890    3.1060    0.2490 C   0  0  0  0  0  0  0  0  0  0  0  0
    1.3110    1.9750    0.1720 C   0  0  0  0  0  0  0  0  0  0  0  0
    2.0150    0.6990    0.2250 C   0  0  0  0  0  0  0  0  0  0  0  0
    1.3930   -0.4600    0.1530 C   0  0  0  0  0  0  0  0  0  0  0  0
    2.1770   -1.6410    0.2140 N   0  0  0  0  0  0  0  0  0  0  0  0
   -0.0160   -0.5660    0.0180 N   0  0  0  0  0  0  0  0  0  0  0  0
   -0.7000   -0.2460   -1.2170 C   0  0  0  0  0  0  0  0  0  0  0  0
   -2.0840    0.2740   -0.9070 C   0  0  0  0  0  0  0  0  0  0  0  0
   -2.8750   -0.8650   -0.2840 C   0  0  0  0  0  0  0  0  0  0  0  0
   -2.2340   -1.1710    0.9790 N   0  0  0  0  0  0  0  0  0  0  0  0
   -0.8140   -0.9990    1.1140 C   0  0  0  0  0  0  0  0  0  0  0  0
   -0.0430   -1.2900    2.5300 S   0  0  0  0  0  0  0  0  0  0  0  0
  1  2  2  0
  2  3  1  0
  3  4  2  3
  4  5  1  0
  4  6  1  0
  6  7  1  0
  6 11  1  0
  7  8  1  0
  8  9  1  0
  9 10  1  0
 10 11  1  0
 11 12  2  0
M  CHG  1   5   1
M  END
