
     RDKit          3D

 10 10  0  0  0  0  0  0  0  0999 V2000
   -1.8920   -1.2670    1.5080 O   0  0  0  0  0  0  0  0  0  0  0  0
   -2.3110   -0.7930    0.4360 C   0  0  0  0  0  0  0  0  0  0  0  0
   -3.6990   -0.9980    0.2280 O   0  0  0  0  0  0  0  0  0  0  0  0
   -1.5320   -0.1080   -0.5210 N   0  0  0  0  0  0  0  0  0  0  0  0
   -0.1680    0.1110   -0.3480 C   0  0  0  0  0  0  0  0  0  0  0  0
    0.6230   -0.2680    0.7020 C   0  0  0  0  0  0  0  0  0  0  0  0
    1.9990    0.0260    0.7390 C   0  0  0  0  0  0  0  0  0  0  0  0
    2.5240    0.7010   -0.3070 C   0  0  0  0  0  0  0  0  0  0  0  0
    1.7510    1.0880   -1.3690 C   0  0  0  0  0  0  0  0  0  0  0  0
    0.4620    0.7900   -1.3590 N   0  0  0  0  0  0  0  0  0  0  0  0
  1  2  2  0
  2  3  1  0
  2  4  1  0
  4  5  1  0
  5  6  2  0
  5 10  1  0
  6  7  1  0
  7  8  2  0
  8  9  1  0
  9 10  2  0
M  END
