
     RDKit          3D

 10 10  0  0  0  0  0  0  0  0999 V2000
    2.5410    0.0090    0.0440 C   0  0  0  0  0  0  0  0  0  0  0  0
    1.1590   -0.5110   -0.0880 C   0  0  0  0  0  0  0  0  0  0  0  0
    0.8110   -1.7830   -0.3460 N   0  0  0  0  0  0  0  0  0  0  0  0
   -0.4740   -1.8840   -0.3940 O   0  0  0  0  0  0  0  0  0  0  0  0
   -1.0610   -0.7520   -0.1830 C   0  0  0  0  0  0  0  0  0  0  0  0
   -2.5320   -0.4210   -0.1460 C   0  0  0  0  0  0  0  0  0  0  0  0
   -0.0500    0.1670    0.0210 C   0  0  0  0  0  0  0  0  0  0  0  0
   -0.1570    1.5440    0.2970 N   0  0  0  0  0  0  0  0  0  0  0  0
   -0.4880    2.2840   -0.6790 O   0  0  0  0  0  0  0  0  0  0  0  0
    0.0760    2.0810    1.5340 O   0  0  0  0  0  0  0  0  0  0  0  0
  1  2  1  0
  2  3  2  0
  2  7  1  0
  3  4  1  0
  4  5  1  0
  5  6  1  0
  5  7  2  0
  7  8  1  0
  8  9  2  0
  8 10  1  0
M  CHG  2   8   1  10  -1
M  END
