
     RDKit          3D

 10 10  0  0  0  0  0  0  0  0999 V2000
    3.9270   -1.4720    0.4440 O   0  0  0  0  0  0  0  0  0  0  0  0
    3.1790   -0.4960    0.2420 N   0  0  0  0  0  0  0  0  0  0  0  0
    3.6970    0.7770    0.1750 O   0  0  0  0  0  0  0  0  0  0  0  0
    1.7800   -0.6570    0.0760 C   0  0  0  0  0  0  0  0  0  0  0  0
    0.9560    0.3670    0.1580 C   0  0  0  0  0  0  0  0  0  0  0  0
   -0.4810    0.1590   -0.0200 C   0  0  0  0  0  0  0  0  0  0  0  0
   -1.4680    1.1390    0.0390 C   0  0  0  0  0  0  0  0  0  0  0  0
   -2.6920    0.5430   -0.1800 C   0  0  0  0  0  0  0  0  0  0  0  0
   -2.4060   -0.7930   -0.3670 C   0  0  0  0  0  0  0  0  0  0  0  0
   -1.1170   -0.9610   -0.2650 O   0  0  0  0  0  0  0  0  0  0  0  0
  1  2  2  0
  2  3  1  0
  2  4  1  0
  4  5  2  3
  5  6  1  0
  6  7  2  0
  6 10  1  0
  7  8  1  0
  8  9  2  0
  9 10  1  0
M  CHG  2   2   1   3  -1
M  END
