
     RDKit          3D

 10 10  0  0  0  0  0  0  0  0999 V2000
    2.7850   -0.8180    0.1240 C   0  0  0  0  0  0  0  0  0  0  0  0
    1.3370   -0.4630    0.0500 C   0  0  0  0  0  0  0  0  0  0  0  0
    0.8680    0.8240    0.1980 C   0  0  0  0  0  0  0  0  0  0  0  0
   -0.5250    0.8190    0.0730 C   0  0  0  0  0  0  0  0  0  0  0  0
   -1.3950    1.9300    0.1660 N   0  0  0  0  0  0  0  0  0  0  0  0
   -2.4290    1.9290   -0.5220 O   0  0  0  0  0  0  0  0  0  0  0  0
   -1.1390    2.9980    0.9800 O   0  0  0  0  0  0  0  0  0  0  0  0
   -0.8100   -0.5120   -0.1480 C   0  0  0  0  0  0  0  0  0  0  0  0
   -2.1920   -1.0460   -0.3510 C   0  0  0  0  0  0  0  0  0  0  0  0
    0.2980   -1.2280   -0.1540 O   0  0  0  0  0  0  0  0  0  0  0  0
  1  2  1  0
  2  3  2  0
  2 10  1  0
  3  4  1  0
  4  5  1  0
  4  8  2  0
  5  6  2  0
  5  7  1  0
  8  9  1  0
  8 10  1  0
M  CHG  2   5   1   7  -1
M  END
