
     RDKit          3D

  9  9  0  0  0  0  0  0  0  0999 V2000
    3.4920    0.3230    0.0020 C   0  0  0  0  0  0  0  0  0  0  0  0
    2.2160    0.1520    0.5500 O   0  0  0  0  0  0  0  0  0  0  0  0
    1.3830   -0.2540   -0.4830 C   0  0  0  0  0  0  0  0  0  0  0  0
   -0.0350   -0.4730   -0.0070 C   0  0  1  0  0  0  0  0  0  0  0  0
   -0.5660    0.7870    0.5980 C   0  0  0  0  0  0  0  0  0  0  0  0
   -1.9860    0.7700    0.8140 N   0  0  0  0  0  0  0  0  0  0  0  0
   -2.6250    0.3840   -0.4250 C   0  0  0  0  0  0  0  0  0  0  0  0
   -2.1280   -1.0080   -0.7730 C   0  0  0  0  0  0  0  0  0  0  0  0
   -0.7800   -0.8750   -1.1130 O   0  0  0  0  0  0  0  0  0  0  0  0
  1  2  1  0
  2  3  1  0
  4  3  1  6
  4  5  1  0
  4  9  1  0
  5  6  1  0
  6  7  1  0
  7  8  1  0
  8  9  1  0
M  END
