
     RDKit          3D

 10 10  0  0  0  0  0  0  0  0999 V2000
    3.2630   -0.9070   -0.5380 O   0  0  0  0  0  0  0  0  0  0  0  0
    2.5790   -0.0620    0.0700 N   0  0  0  0  0  0  0  0  0  0  0  0
    3.2540    0.8550    0.8380 O   0  0  0  0  0  0  0  0  0  0  0  0
    1.1540   -0.0340   -0.0160 C   0  0  0  0  0  0  0  0  0  0  0  0
    0.4450   -0.9370   -0.7760 C   0  0  0  0  0  0  0  0  0  0  0  0
   -0.9490   -0.8700   -0.8300 C   0  0  0  0  0  0  0  0  0  0  0  0
   -1.6600    0.0890   -0.1350 C   0  0  0  0  0  0  0  0  0  0  0  0
   -3.0510    0.1740   -0.1750 O   0  0  0  0  0  0  0  0  0  0  0  0
   -0.9260    0.9920    0.6260 C   0  0  0  0  0  0  0  0  0  0  0  0
    0.4520    0.9260    0.6790 C   0  0  0  0  0  0  0  0  0  0  0  0
  1  2  2  0
  2  3  1  0
  2  4  1  0
  4  5  2  0
  4 10  1  0
  5  6  1  0
  6  7  2  0
  7  8  1  0
  7  9  1  0
  9 10  2  0
M  CHG  2   2   1   3  -1
M  END
