
     RDKit          3D

 11 11  0  0  0  0  0  0  0  0999 V2000
   -0.8660    2.1480   -0.4970 C   0  0  0  0  0  0  0  0  0  0  0  0
   -1.3160    0.7940   -0.1310 C   0  0  0  0  0  0  0  0  0  0  0  0
   -2.3410    0.5590    0.6480 O   0  0  0  0  0  0  0  0  0  0  0  0
   -2.5170   -0.7290    0.8050 C   0  0  0  0  0  0  0  0  0  0  0  0
   -1.5470   -1.3800    0.0850 C   0  0  0  0  0  0  0  0  0  0  0  0
   -1.3080   -2.7410   -0.0700 O   0  0  0  0  0  0  0  0  0  0  0  0
   -0.7610   -0.4040   -0.5280 C   0  0  0  0  0  0  0  0  0  0  0  0
    0.3410   -0.6150   -1.3570 O   0  0  0  0  0  0  0  0  0  0  0  0
    1.6450   -0.7120   -0.8210 C   0  0  0  0  0  0  0  0  0  0  0  0
    2.0070    0.5690   -0.0900 C   0  0  0  0  0  0  0  0  0  0  0  0
    3.2920    0.4930    0.4460 O   0  0  0  0  0  0  0  0  0  0  0  0
  1  2  1  0
  2  3  1  0
  2  7  2  0
  3  4  1  0
  4  5  2  0
  5  6  1  0
  5  7  1  0
  7  8  1  0
  8  9  1  0
  9 10  1  0
 10 11  1  0
M  END
