
     RDKit          3D

 11 11  0  0  0  0  0  0  0  0999 V2000
    3.8740    0.6970   -0.4430 O   0  0  0  0  0  0  0  0  0  0  0  0
    2.6070    1.2750   -0.6480 C   0  0  0  0  0  0  0  0  0  0  0  0
    1.5500    0.2860   -0.2950 C   0  0  0  0  0  0  0  0  0  0  0  0
    1.7750   -1.0040    0.1650 C   0  0  0  0  0  0  0  0  0  0  0  0
    0.5420   -1.5530    0.3600 C   0  0  0  0  0  0  0  0  0  0  0  0
   -0.3890   -0.5770    0.0120 C   0  0  0  0  0  0  0  0  0  0  0  0
   -1.8540   -0.7960    0.0900 C   0  0  1  0  0  0  0  0  0  0  0  0
   -2.1620   -1.4160    1.2990 O   0  0  0  0  0  0  0  0  0  0  0  0
   -2.6120    0.5130    0.0290 C   0  0  0  0  0  0  0  0  0  0  0  0
   -2.2280    1.3080    1.0870 O   0  0  0  0  0  0  0  0  0  0  0  0
    0.2670    0.5040   -0.3730 O   0  0  0  0  0  0  0  0  0  0  0  0
  1  2  1  0
  2  3  1  0
  3  4  2  0
  3 11  1  0
  4  5  1  0
  5  6  2  0
  6  7  1  0
  6 11  1  0
  7  8  1  1
  7  9  1  0
  9 10  1  0
M  END
