
     RDKit          3D

 10 10  0  0  0  0  0  0  0  0999 V2000
    2.6550    1.0780   -0.4890 O   0  0  0  0  0  0  0  0  0  0  0  0
    2.8700    0.2090    0.5340 C   0  0  0  0  0  0  0  0  0  0  0  0
    1.9580   -0.9700    0.4910 C   0  0  0  0  0  0  0  0  0  0  0  0
    0.6210   -0.7400    0.5660 O   0  0  0  0  0  0  0  0  0  0  0  0
    0.0510   -0.0470   -0.4490 C   0  0  1  0  0  0  0  0  0  0  0  0
   -1.1020   -0.8480   -1.0330 C   0  0  0  0  0  0  0  0  0  0  0  0
   -2.3560   -0.7640   -0.2680 C   0  0  0  0  0  0  0  0  0  0  0  0
   -2.5150    0.3710    0.6610 C   0  0  0  0  0  0  0  0  0  0  0  0
   -1.3340    0.8920    1.1620 O   0  0  0  0  0  0  0  0  0  0  0  0
   -0.5610    1.2720    0.0440 C   0  0  0  0  0  0  0  0  0  0  0  0
  1  2  1  0
  2  3  1  0
  3  4  1  0
  5  4  1  1
  5  6  1  0
  5 10  1  0
  6  7  1  0
  7  8  1  0
  8  9  1  0
  9 10  1  0
M  END
