
     RDKit          3D

 11 11  0  0  0  0  0  0  0  0999 V2000
    2.5440   -1.2030   -1.0080 O   0  0  0  0  0  0  0  0  0  0  0  0
    3.0070   -0.3430   -0.0470 C   0  0  0  0  0  0  0  0  0  0  0  0
    2.1410   -0.1170    1.1320 C   0  0  0  0  0  0  0  0  0  0  0  0
    0.9010    0.4120    0.9510 O   0  0  0  0  0  0  0  0  0  0  0  0
    0.1020   -0.3500    0.1700 C   0  0  0  0  0  0  0  0  0  0  0  0
   -1.3060    0.2030    0.0240 C   0  0  2  0  0  0  0  0  0  0  0  0
   -2.2030   -0.6240   -0.8340 C   0  0  0  0  0  0  0  0  0  0  0  0
   -1.7040   -0.7450   -2.1360 O   0  0  0  0  0  0  0  0  0  0  0  0
   -1.3620    1.6910   -0.2380 C   0  0  0  0  0  0  0  0  0  0  0  0
   -2.5460    1.7090    0.5370 O   0  0  0  0  0  0  0  0  0  0  0  0
   -1.9570    0.6640    1.2860 C   0  0  0  0  0  0  0  0  0  0  0  0
  1  2  1  0
  2  3  1  0
  3  4  1  0
  4  5  1  0
  6  5  1  1
  6  7  1  0
  6  9  1  0
  6 11  1  0
  7  8  1  0
  9 10  1  0
 10 11  1  0
M  END
