
     RDKit          3D

 10 10  0  0  0  0  0  0  0  0999 V2000
    1.5010    2.0000   -0.2440 O   0  0  0  0  0  0  0  0  0  0  0  0
    0.6530    1.0870   -0.8460 C   0  0  0  0  0  0  0  0  0  0  0  0
    0.3790   -0.1300   -0.0330 C   0  0  1  0  0  0  0  0  0  0  0  0
    1.6570   -0.9080    0.2840 C   0  0  0  0  0  0  0  0  0  0  0  0
    2.5630   -0.1410    0.9980 O   0  0  0  0  0  0  0  0  0  0  0  0
   -0.3430    0.1200    1.2470 C   0  0  0  0  0  0  0  0  0  0  0  0
   -1.7010    0.7390    1.0210 C   0  0  0  0  0  0  0  0  0  0  0  0
   -2.1720    0.5590   -0.2550 O   0  0  0  0  0  0  0  0  0  0  0  0
   -1.9460   -0.6860   -0.7850 C   0  0  0  0  0  0  0  0  0  0  0  0
   -0.4820   -1.0530   -0.8750 C   0  0  0  0  0  0  0  0  0  0  0  0
  1  2  1  0
  3  2  1  6
  3  4  1  0
  3  6  1  0
  3 10  1  0
  4  5  1  0
  6  7  1  0
  7  8  1  0
  8  9  1  0
  9 10  1  0
M  END
