
     RDKit          3D

 10 10  0  0  0  0  0  0  0  0999 V2000
   -1.3210   -0.9050   -0.8440 C   0  0  0  0  0  0  0  0  0  0  0  0
   -0.6560   -0.1150    0.2580 C   0  0  1  0  0  0  0  0  0  0  0  0
    0.8350   -0.1660    0.1910 C   0  0  0  0  0  0  0  0  0  0  0  0
    1.3570    0.4040   -1.1340 C   0  0  0  0  0  0  0  0  0  0  0  0
    2.8620    0.3440   -1.1820 C   0  0  0  0  0  0  0  0  0  0  0  0
    3.3440   -0.9500   -1.0710 O   0  0  0  0  0  0  0  0  0  0  0  0
   -1.0620    1.2050    0.2820 O   0  0  0  0  0  0  0  0  0  0  0  0
   -2.1080    1.3300    1.1600 C   0  0  0  0  0  0  0  0  0  0  0  0
   -2.2320   -0.0370    1.8190 C   0  0  0  0  0  0  0  0  0  0  0  0
   -1.0550   -0.6870    1.4650 O   0  0  0  0  0  0  0  0  0  0  0  0
  2  1  1  6
  2  3  1  0
  2  7  1  0
  2 10  1  0
  3  4  1  0
  4  5  1  0
  5  6  1  0
  7  8  1  0
  8  9  1  0
  9 10  1  0
M  END
