
     RDKit          3D

 21 22  0  0  0  0  0  0  0  0999 V2000
   -3.0710   -0.2810   -1.7010 O   0  0  0  0  0  0  0  0  0  0  0  0
   -3.4230    0.0470   -0.5610 C   0  0  0  0  0  0  0  0  0  0  0  0
   -4.4130    1.1780   -0.4880 C   0  0  0  0  0  0  0  0  0  0  0  0
   -4.7340    1.4560    0.8390 O   0  0  0  0  0  0  0  0  0  0  0  0
   -5.5910    2.4400    0.8360 O   0  0  0  0  0  0  0  0  0  0  0  0
   -2.9690   -0.5540    0.6190 N   0  0  0  0  0  0  0  0  0  0  0  0
   -2.0300   -1.6220    0.6870 C   0  0  0  0  0  0  0  0  0  0  0  0
   -0.6690   -1.3630    0.1780 C   0  0  1  0  0  0  0  0  0  0  0  0
   -0.0020   -0.2000    0.8570 C   0  0  0  0  0  0  0  0  0  0  0  0
   -0.6470    0.3940    1.7420 O   0  0  0  0  0  0  0  0  0  0  0  0
    1.2660    0.1280    0.4590 O   0  0  0  0  0  0  0  0  0  0  0  0
    1.9310    1.2330    1.0880 C   0  0  0  0  0  0  0  0  0  0  0  0
    3.2840    1.3290    0.4350 C   0  0  0  0  0  0  0  0  0  0  0  0
    3.7900    2.3370   -0.2330 C   0  0  0  0  0  0  0  0  0  0  0  0
    5.1210    2.2280   -0.7860 C   0  0  0  0  0  0  0  0  0  0  0  0
    5.6140    0.8450   -0.7500 C   0  0  0  0  0  0  0  0  0  0  0  0
    6.5150    0.3550   -1.3480 O   0  0  0  0  0  0  0  0  0  0  0  0
    4.5370    0.0430    0.4190 S   0  0  0  0  0  0  0  0  0  0  0  0
    0.1860   -2.6460    0.5810 C   0  0  0  0  0  0  0  0  0  0  0  0
   -0.1390   -3.1550   -0.7940 C   0  0  0  0  0  0  0  0  0  0  0  0
   -0.2520   -1.6760   -1.2050 C   0  0  0  0  0  0  0  0  0  0  0  0
  1  2  2  0
  2  3  1  0
  2  6  1  0
  3  4  1  0
  4  5  1  0
  6  7  1  0
  8  7  1  6
  8  9  1  0
  8 19  1  0
  8 21  1  0
  9 10  2  0
  9 11  1  0
 11 12  1  0
 12 13  1  0
 13 14  2  0
 13 18  1  0
 14 15  1  0
 15 16  1  0
 16 17  2  0
 16 18  1  0
 19 20  1  0
 20 21  1  0
M  END
