
     RDKit          3D

 19 18  0  0  0  0  0  0  0  0999 V2000
   -2.0550    1.9630   -2.4220 O   0  0  0  0  0  0  0  0  0  0  0  0
   -1.3250    1.7210   -1.3750 C   0  0  0  0  0  0  0  0  0  0  0  0
   -1.5430    0.3950   -0.7810 C   0  0  0  0  0  0  0  0  0  0  0  0
   -2.6880   -0.1630   -1.4120 O   0  0  0  0  0  0  0  0  0  0  0  0
   -3.0180   -1.6890   -0.7960 P   0  0  1  0  0  0  0  0  0  0  0  0
   -4.4570   -2.0220   -1.1210 O   0  0  0  0  0  0  0  0  0  0  0  0
   -2.0400   -2.8860   -1.4650 O   0  0  0  0  0  0  0  0  0  0  0  0
   -2.8710   -1.6890    0.8990 O   0  0  0  0  0  0  0  0  0  0  0  0
   -0.4450    2.6740   -0.9030 N   0  0  0  0  0  0  0  0  0  0  0  0
   -0.4620    3.8850   -1.6120 O   0  0  0  0  0  0  0  0  0  0  0  0
    0.4910    2.6340    0.1420 C   0  0  0  0  0  0  0  0  0  0  0  0
    1.8660    2.2570   -0.2990 C   0  0  0  0  0  0  0  0  0  0  0  0
    1.9760    0.8690   -0.8160 C   0  0  0  0  0  0  0  0  0  0  0  0
    1.7110   -0.1150    0.2910 C   0  0  0  0  0  0  0  0  0  0  0  0
    1.8210   -1.3920   -0.2700 O   0  0  0  0  0  0  0  0  0  0  0  0
    1.5410   -2.5890    0.8900 P   0  0  1  0  0  0  0  0  0  0  0  0
    1.2400   -3.9050    0.2190 O   0  0  0  0  0  0  0  0  0  0  0  0
    2.9480   -2.7560    1.8090 O   0  0  0  0  0  0  0  0  0  0  0  0
    0.2410   -2.1950    1.8950 O   0  0  0  0  0  0  0  0  0  0  0  0
  1  2  2  0
  2  3  1  0
  2  9  1  0
  3  4  1  0
  4  5  1  0
  5  6  2  0
  5  7  1  6
  5  8  1  0
  9 10  1  0
  9 11  1  0
 11 12  1  0
 12 13  1  0
 13 14  1  0
 14 15  1  0
 15 16  1  0
 16 17  2  0
 16 18  1  1
 16 19  1  0
M  END
