
     RDKit          3D

 21 22  0  0  0  0  0  0  0  0999 V2000
    3.0000   -1.9450   -0.9580 C   0  0  0  0  0  0  0  0  0  0  0  0
    3.4180   -0.7120   -0.6590 C   0  0  0  0  0  0  0  0  0  0  0  0
    4.8520   -0.3830   -0.7270 C   0  0  0  0  0  0  0  0  0  0  0  0
    5.3920    0.1610    0.9630 P   0  0  0  0  0  0  0  0  0  0  0  0
    6.2710    1.6580    0.8730 O   0  0  0  0  0  0  0  0  0  0  0  0
    6.3700   -1.0770    1.6930 O   0  0  0  0  0  0  0  0  0  0  0  0
    2.4600    0.2910   -0.2710 C   0  0  0  0  0  0  0  0  0  0  0  0
    2.8350    1.4440    0.0110 O   0  0  0  0  0  0  0  0  0  0  0  0
    1.1250   -0.0060   -0.2040 O   0  0  0  0  0  0  0  0  0  0  0  0
    0.1480    0.9580    0.1750 C   0  0  0  0  0  0  0  0  0  0  0  0
   -1.2130    0.3090    0.1460 C   0  0  0  0  0  0  0  0  0  0  0  0
   -1.4700   -1.3820   -0.3000 S   0  0  0  0  0  0  0  0  0  0  0  0
   -3.2070   -1.3000   -0.0820 C   0  0  0  0  0  0  0  0  0  0  0  0
   -3.4700   -0.0620    0.2950 C   0  0  0  0  0  0  0  0  0  0  0  0
   -2.4080    0.7970    0.4160 C   0  0  0  0  0  0  0  0  0  0  0  0
   -2.5350    2.2420    0.8360 C   0  0  0  0  0  0  0  0  0  0  0  0
   -4.8800    0.3200    0.5570 C   0  0  0  0  0  0  0  0  0  0  0  0
   -5.8230   -0.7110    0.3770 N   0  0  0  0  0  0  0  0  0  0  0  0
   -5.5080   -2.0240   -0.0270 C   0  0  0  0  0  0  0  0  0  0  0  0
   -6.4420   -2.8730   -0.1600 O   0  0  0  0  0  0  0  0  0  0  0  0
   -4.1900   -2.3470   -0.2650 O   0  0  0  0  0  0  0  0  0  0  0  0
  1  2  2  0
  2  3  1  0
  2  7  1  0
  3  4  1  0
  4  5  1  0
  4  6  1  0
  7  8  2  0
  7  9  1  0
  9 10  1  0
 10 11  1  0
 11 12  1  0
 11 15  2  0
 12 13  1  0
 13 14  2  0
 13 21  1  0
 14 15  1  0
 14 17  1  0
 15 16  1  0
 17 18  1  0
 18 19  1  0
 19 20  2  0
 19 21  1  0
M  END
