
     RDKit          3D

 21 21  0  0  0  0  0  0  0  0999 V2000
   -3.1810   -3.8000    0.5680 C   0  0  0  0  0  0  0  0  0  0  0  0
   -4.0650   -2.6530    0.2480 C   0  0  0  0  0  0  0  0  0  0  0  0
   -5.2780   -2.8000   -0.0320 O   0  0  0  0  0  0  0  0  0  0  0  0
   -3.4980   -1.2820    0.2610 C   0  0  0  0  0  0  0  0  0  0  0  0
   -4.3110   -0.2820   -0.0270 C   0  0  0  0  0  0  0  0  0  0  0  0
   -3.7890    1.4230   -0.0560 S   0  0  0  0  0  0  0  0  0  0  0  0
   -2.0540    1.3560    0.3710 C   0  0  0  0  0  0  0  0  0  0  0  0
   -1.3200    2.4480    0.4490 C   0  0  0  0  0  0  0  0  0  0  0  0
   -1.8750    3.7640    0.1940 C   0  0  0  0  0  0  0  0  0  0  0  0
   -3.2420    3.9250   -0.1520 N   0  0  0  0  0  0  0  0  0  0  0  0
   -1.1350    4.7650    0.2820 O   0  0  0  0  0  0  0  0  0  0  0  0
   -1.4790    0.0480    0.6290 C   0  0  0  0  0  0  0  0  0  0  0  0
   -0.1010    0.0720    0.9610 O   0  0  0  0  0  0  0  0  0  0  0  0
    0.8370    0.3220    0.0080 O   0  0  0  0  0  0  0  0  0  0  0  0
    2.1540   -0.0310    0.2710 C   0  0  0  0  0  0  0  0  0  0  0  0
    2.4520   -0.5650    1.3670 O   0  0  0  0  0  0  0  0  0  0  0  0
    3.1900    0.1780   -0.6300 O   0  0  0  0  0  0  0  0  0  0  0  0
    4.5160   -0.1770   -0.3640 C   0  0  1  0  0  0  0  0  0  0  0  0
    5.0440   -1.2180   -1.3470 C   0  0  0  0  0  0  0  0  0  0  0  0
    5.4520    1.0190   -0.4040 C   0  0  0  0  0  0  0  0  0  0  0  0
   -2.0960   -1.0900    0.5840 C   0  0  0  0  0  0  0  0  0  0  0  0
  1  2  1  0
  2  3  2  0
  2  4  1  0
  4  5  2  0
  4 21  1  0
  5  6  1  0
  6  7  1  0
  7  8  2  3
  7 12  1  0
  8  9  1  0
  9 10  1  0
  9 11  2  0
 12 13  1  0
 12 21  2  0
 13 14  1  0
 14 15  1  0
 15 16  2  0
 15 17  1  0
 17 18  1  0
 18 19  1  6
 18 20  1  0
M  END
