
     RDKit          3D

 21 22  0  0  0  0  0  0  0  0999 V2000
    1.9850   -0.8150    1.0990 O   0  0  0  0  0  0  0  0  0  0  0  0
    2.8390   -0.7900    0.2040 C   0  0  0  0  0  0  0  0  0  0  0  0
    2.5210   -1.2090   -1.1660 C   0  0  0  0  0  0  0  0  0  0  0  0
    1.1620   -1.5910   -1.2240 O   0  0  0  0  0  0  0  0  0  0  0  0
    0.1340   -0.7280   -0.9340 C   0  0  0  0  0  0  0  0  0  0  0  0
    0.4430    0.4410   -0.6080 O   0  0  0  0  0  0  0  0  0  0  0  0
   -1.2510   -1.1890   -1.0120 C   0  0  0  0  0  0  0  0  0  0  0  0
   -1.5590   -2.5190   -1.3850 C   0  0  0  0  0  0  0  0  0  0  0  0
   -3.2710   -2.6380   -1.3510 S   0  0  0  0  0  0  0  0  0  0  0  0
   -3.5640   -0.9070   -0.8380 C   0  0  0  0  0  0  0  0  0  0  0  0
   -4.9120   -0.3460   -0.6220 C   0  0  2  0  0  0  0  0  0  0  0  0
   -5.0800    0.9000   -1.4350 C   0  0  0  0  0  0  0  0  0  0  0  0
   -5.0480    1.9840   -0.3720 C   0  0  0  0  0  0  0  0  0  0  0  0
   -4.2880    1.4020    0.6670 O   0  0  0  0  0  0  0  0  0  0  0  0
   -4.9510    0.1740    0.8010 C   0  0  0  0  0  0  0  0  0  0  0  0
   -2.3300   -0.4260   -0.7480 C   0  0  0  0  0  0  0  0  0  0  0  0
    4.1510   -0.3340    0.5640 N   0  0  0  0  0  0  0  0  0  0  0  0
    4.4360    0.0710    1.9150 C   0  0  0  0  0  0  0  0  0  0  0  0
    5.8750    0.5050    2.0340 C   0  0  0  0  0  0  0  0  0  0  0  0
    6.0960    1.5770    1.1720 O   0  0  0  0  0  0  0  0  0  0  0  0
    7.3300    1.9870    1.2410 O   0  0  0  0  0  0  0  0  0  0  0  0
  1  2  2  0
  2  3  1  0
  2 17  1  0
  3  4  1  0
  4  5  1  0
  5  6  2  0
  5  7  1  0
  7  8  2  0
  7 16  1  0
  8  9  1  0
  9 10  1  0
 11 10  1  6
 10 16  2  0
 11 12  1  0
 11 15  1  0
 12 13  1  0
 13 14  1  0
 14 15  1  0
 17 18  1  0
 18 19  1  0
 19 20  1  0
 20 21  1  0
M  END
