
     RDKit          3D

 21 22  0  0  0  0  0  0  0  0999 V2000
   -0.8870   -0.7170   -1.2400 O   0  0  0  0  0  0  0  0  0  0  0  0
   -1.4110   -0.6250   -0.1000 C   0  0  0  0  0  0  0  0  0  0  0  0
   -0.6560   -0.8570    1.0340 O   0  0  0  0  0  0  0  0  0  0  0  0
    0.6950   -1.1970    0.9810 C   0  0  0  0  0  0  0  0  0  0  0  0
    1.3890   -0.0600    0.2890 C   0  0  0  0  0  0  0  0  0  0  0  0
    0.8220    0.9540   -0.1300 O   0  0  0  0  0  0  0  0  0  0  0  0
    2.8470   -0.1180    0.0750 C   0  0  0  0  0  0  0  0  0  0  0  0
    3.6900    0.6600   -0.4600 N   0  0  0  0  0  0  0  0  0  0  0  0
    4.9590    0.4070   -0.5440 C   0  0  0  0  0  0  0  0  0  0  0  0
    5.9350    1.3430   -1.1810 C   0  0  0  0  0  0  0  0  0  0  0  0
    5.5780    2.4380   -1.6760 O   0  0  0  0  0  0  0  0  0  0  0  0
    7.2720    1.0290   -1.2450 O   0  0  0  0  0  0  0  0  0  0  0  0
    5.4060   -0.7660   -0.0240 C   0  0  0  0  0  0  0  0  0  0  0  0
    3.8750   -1.4910    0.5990 S   0  0  0  0  0  0  0  0  0  0  0  0
   -2.8120   -0.2750    0.0330 C   0  0  0  0  0  0  0  0  0  0  0  0
   -3.3650   -0.1800    1.2900 C   0  0  0  0  0  0  0  0  0  0  0  0
   -4.7100    0.1550    1.4500 C   0  0  0  0  0  0  0  0  0  0  0  0
   -5.5030    0.3960    0.3390 C   0  0  0  0  0  0  0  0  0  0  0  0
   -6.8410    0.7300    0.4540 O   0  0  0  0  0  0  0  0  0  0  0  0
   -4.9490    0.3000   -0.9190 C   0  0  0  0  0  0  0  0  0  0  0  0
   -3.6120   -0.0330   -1.0640 C   0  0  0  0  0  0  0  0  0  0  0  0
  1  2  2  0
  2  3  1  0
  2 15  1  0
  3  4  1  0
  4  5  1  0
  5  6  2  0
  5  7  1  0
  7  8  2  0
  7 14  1  0
  8  9  1  0
  9 10  1  0
  9 13  2  0
 10 11  2  0
 10 12  1  0
 13 14  1  0
 15 16  2  0
 15 21  1  0
 16 17  1  0
 17 18  2  0
 18 19  1  0
 18 20  1  0
 20 21  2  0
M  END
