
     RDKit          3D

 13 13  0  0  0  0  0  0  0  0999 V2000
   -2.8220    0.9740    0.4070 C   0  0  0  0  0  0  0  0  0  0  0  0
   -3.1070   -0.2390   -0.4440 C   0  0  0  0  0  0  0  0  0  0  0  0
   -2.0650   -1.1540   -0.4540 O   0  0  0  0  0  0  0  0  0  0  0  0
   -0.9390   -0.5560   -0.9500 C   0  0  2  0  0  0  0  0  0  0  0  0
   -0.6210   -1.2560   -2.1400 O   0  0  0  0  0  0  0  0  0  0  0  0
    0.2200   -0.6320   -0.0470 C   0  0  0  0  0  0  0  0  0  0  0  0
    1.0460    0.3840    0.2400 N   0  0  0  0  0  0  0  0  0  0  0  0
    1.9820   -0.0600    1.0960 C   0  0  0  0  0  0  0  0  0  0  0  0
    3.3260    1.0070    1.7580 P   0  0  0  0  0  0  0  0  0  0  0  0
    4.7130    0.1070    2.2000 O   0  0  0  0  0  0  0  0  0  0  0  0
    3.6790    2.3130    0.6800 O   0  0  0  0  0  0  0  0  0  0  0  0
    1.7280   -1.3480    1.3330 N   0  0  0  0  0  0  0  0  0  0  0  0
    0.6570   -1.6920    0.6380 N   0  0  0  0  0  0  0  0  0  0  0  0
  1  2  1  0
  2  3  1  0
  3  4  1  0
  4  5  1  6
  4  6  1  0
  6  7  2  0
  6 13  1  0
  7  8  1  0
  8  9  1  0
  8 12  2  0
  9 10  1  0
  9 11  1  0
 12 13  1  0
M  END
