
     RDKit          3D

 21 22  0  0  0  0  0  0  0  0999 V2000
    5.1580    0.5180    1.0950 O   0  0  0  0  0  0  0  0  0  0  0  0
    5.1470    1.3450    0.1650 C   0  0  0  0  0  0  0  0  0  0  0  0
    6.0160    2.4110    0.1760 O   0  0  0  0  0  0  0  0  0  0  0  0
    4.2610    1.1890   -0.8740 O   0  0  0  0  0  0  0  0  0  0  0  0
    3.4010    0.1010   -0.8500 C   0  0  0  0  0  0  0  0  0  0  0  0
    3.7030   -1.1210   -1.4030 C   0  0  0  0  0  0  0  0  0  0  0  0
    2.7870   -2.1460   -1.3330 C   0  0  0  0  0  0  0  0  0  0  0  0
    1.5920   -1.9970   -0.7380 N   0  0  0  0  0  0  0  0  0  0  0  0
    1.2620   -0.8060   -0.1830 C   0  0  0  0  0  0  0  0  0  0  0  0
    0.0240   -0.6630    0.4290 O   0  0  0  0  0  0  0  0  0  0  0  0
   -0.2330   -0.9120    1.7470 C   0  0  0  0  0  0  0  0  0  0  0  0
    0.7020   -1.3020    2.4870 O   0  0  0  0  0  0  0  0  0  0  0  0
   -1.8500   -0.7140    2.4950 S   0  0  0  0  0  0  0  0  0  0  0  0
   -3.0120   -0.1560    1.2580 C   0  0  0  0  0  0  0  0  0  0  0  0
   -3.6920   -1.1270    0.5490 C   0  0  0  0  0  0  0  0  0  0  0  0
   -4.5900   -0.6760   -0.4070 C   0  0  0  0  0  0  0  0  0  0  0  0
   -4.7990    0.6770   -0.6430 C   0  0  0  0  0  0  0  0  0  0  0  0
   -5.7050    1.0480   -1.6060 O   0  0  0  0  0  0  0  0  0  0  0  0
   -4.0980    1.6100    0.0900 C   0  0  0  0  0  0  0  0  0  0  0  0
   -3.2100    1.1910    1.0350 C   0  0  0  0  0  0  0  0  0  0  0  0
    2.1590    0.2320   -0.2400 C   0  0  0  0  0  0  0  0  0  0  0  0
  1  2  2  0
  2  3  1  0
  2  4  1  0
  4  5  1  0
  5  6  2  0
  5 21  1  0
  6  7  1  0
  7  8  2  0
  8  9  1  0
  9 10  1  0
  9 21  2  0
 10 11  1  0
 11 12  2  0
 11 13  1  0
 13 14  1  0
 14 15  2  0
 14 20  1  0
 15 16  1  0
 16 17  2  0
 17 18  1  0
 17 19  1  0
 19 20  2  0
M  END
