
     RDKit          3D

 12 11  0  0  0  0  0  0  0  0999 V2000
    3.5430   -1.0520    0.2560 O   0  0  0  0  0  0  0  0  0  0  0  0
    3.4860    0.2340   -0.2010 C   0  0  0  0  0  0  0  0  0  0  0  0
    2.2180    0.6240   -0.8970 C   0  0  0  0  0  0  0  0  0  0  0  0
    1.1020    0.5260   -0.1350 O   0  0  0  0  0  0  0  0  0  0  0  0
    0.7530   -0.6860    0.3730 C   0  0  0  0  0  0  0  0  0  0  0  0
   -0.4500   -0.4660    1.1070 O   0  0  0  0  0  0  0  0  0  0  0  0
   -1.4100    0.0200    0.2520 C   0  0  2  0  0  0  0  0  0  0  0  0
   -1.9770    1.3520    0.7070 C   0  0  0  0  0  0  0  0  0  0  0  0
   -0.9400    2.2660    0.7690 O   0  0  0  0  0  0  0  0  0  0  0  0
   -2.5790   -0.9500    0.1940 C   0  0  1  0  0  0  0  0  0  0  0  0
   -3.5070   -0.3810   -0.6950 O   0  0  0  0  0  0  0  0  0  0  0  0
   -2.1170   -2.1560   -0.3190 O   0  0  0  0  0  0  0  0  0  0  0  0
  1  2  1  0
  2  3  1  0
  3  4  1  0
  4  5  1  0
  5  6  1  0
  6  7  1  0
  7  8  1  1
  7 10  1  0
  8  9  1  0
 10 11  1  6
 10 12  1  0
M  END
