
     RDKit          3D

 12 11  0  0  0  0  0  0  0  0999 V2000
    3.3500    0.9970    0.6000 O   0  0  0  0  0  0  0  0  0  0  0  0
    3.8860    0.7840   -0.6500 C   0  0  0  0  0  0  0  0  0  0  0  0
    3.4590   -0.4740   -1.3120 C   0  0  0  0  0  0  0  0  0  0  0  0
    2.1270   -0.5480   -1.5170 O   0  0  0  0  0  0  0  0  0  0  0  0
    1.2710   -0.5000   -0.4600 C   0  0  0  0  0  0  0  0  0  0  0  0
   -0.0300   -0.6190   -1.0110 O   0  0  0  0  0  0  0  0  0  0  0  0
   -0.9790   -0.5760    0.0370 C   0  0  0  0  0  0  0  0  0  0  0  0
   -2.3530   -0.7040   -0.5810 C   0  0  0  0  0  0  0  0  0  0  0  0
   -3.3740   -0.6790    0.3170 O   0  0  0  0  0  0  0  0  0  0  0  0
   -3.5010    0.4310    1.0830 C   0  0  2  0  0  0  0  0  0  0  0  0
   -3.4090    0.2160    2.4480 O   0  0  0  0  0  0  0  0  0  0  0  0
   -4.7490    1.0590    0.8640 O   0  0  0  0  0  0  0  0  0  0  0  0
  1  2  1  0
  2  3  1  0
  3  4  1  0
  4  5  1  0
  5  6  1  0
  6  7  1  0
  7  8  1  0
  8  9  1  0
  9 10  1  0
 10 11  1  1
 10 12  1  0
M  END
