
     RDKit          3D

 12 11  0  0  0  0  0  0  0  0999 V2000
   -1.4880   -0.5560    1.7750 O   0  0  0  0  0  0  0  0  0  0  0  0
   -0.8280   -0.3630    0.7250 C   0  0  0  0  0  0  0  0  0  0  0  0
    0.5420    0.1890    0.8940 C   0  0  0  0  0  0  0  0  0  0  0  0
    1.1920    0.3680   -0.3010 O   0  0  0  0  0  0  0  0  0  0  0  0
    2.4570    0.8850   -0.0500 C   0  0  2  0  0  0  0  0  0  0  0  0
    2.6530    2.1220   -0.6570 O   0  0  0  0  0  0  0  0  0  0  0  0
    3.5120   -0.0530   -0.6290 C   0  0  0  0  0  0  0  0  0  0  0  0
    4.7790    0.4480   -0.3870 O   0  0  0  0  0  0  0  0  0  0  0  0
   -1.3880   -0.6630   -0.4850 O   0  0  0  0  0  0  0  0  0  0  0  0
   -2.6780   -1.1840   -0.7010 C   0  0  0  0  0  0  0  0  0  0  0  0
   -3.6900   -0.2130   -0.1880 C   0  0  0  0  0  0  0  0  0  0  0  0
   -5.0010   -0.6540   -0.3650 O   0  0  0  0  0  0  0  0  0  0  0  0
  1  2  2  0
  2  3  1  0
  2  9  1  0
  3  4  1  0
  4  5  1  0
  5  6  1  6
  5  7  1  0
  7  8  1  0
  9 10  1  0
 10 11  1  0
 11 12  1  0
M  END
