
     RDKit          3D

 19 21  0  0  0  0  0  0  0  0999 V2000
   -3.1390   -1.9460    1.1460 N   0  0  0  0  0  0  0  0  0  0  0  0
   -2.6760   -1.7040   -0.1890 C   0  0  1  0  0  0  0  0  0  0  0  0
   -3.5830   -0.6550   -0.8300 C   0  0  0  0  0  0  0  0  0  0  0  0
   -2.9720    0.6230   -0.3570 C   0  0  0  0  0  0  0  0  0  0  0  0
   -1.5700    0.3420   -0.1180 N   0  0  0  0  0  0  0  0  0  0  0  0
   -0.6340    1.3980    0.1630 C   0  0  0  0  0  0  0  0  0  0  0  0
   -1.1050    2.4300    0.7880 N   0  0  0  0  0  0  0  0  0  0  0  0
   -0.5140    3.6170    1.2200 N   0  0  0  0  0  0  0  0  0  0  0  0
    0.7480    4.1240    0.8110 C   0  0  0  0  0  0  0  0  0  0  0  0
    1.7150    3.4810    0.1740 C   0  0  0  0  0  0  0  0  0  0  0  0
    1.7430    2.0930   -0.2740 C   0  0  0  0  0  0  0  0  0  0  0  0
    0.7450    1.2110   -0.2780 C   0  0  0  0  0  0  0  0  0  0  0  0
    1.0300   -0.0260   -0.7490 O   0  0  0  0  0  0  0  0  0  0  0  0
    2.2680   -0.6530   -0.8500 C   0  0  1  0  0  0  0  0  0  0  0  0
    2.9730   -0.8160    0.4850 C   0  0  0  0  0  0  0  0  0  0  0  0
    3.8380   -2.0240    0.1860 C   0  0  0  0  0  0  0  0  0  0  0  0
    3.1910   -2.7870   -0.7440 O   0  0  0  0  0  0  0  0  0  0  0  0
    2.0930   -2.1160   -1.2110 C   0  0  0  0  0  0  0  0  0  0  0  0
   -1.2880   -1.0640   -0.2030 C   0  0  0  0  0  0  0  0  0  0  0  0
  2  1  1  1
  2  3  1  0
  2 19  1  0
  3  4  1  0
  4  5  1  0
  5  6  1  0
  5 19  1  0
  6  7  2  0
  6 12  1  0
  7  8  1  0
  8  9  1  0
  9 10  2  0
 10 11  1  0
 11 12  2  0
 12 13  1  0
 14 13  1  1
 14 15  1  0
 14 18  1  0
 15 16  1  0
 16 17  1  0
 17 18  1  0
M  CHG  1   1   1
M  END
