
     RDKit          3D

 12 11  0  0  0  0  0  0  0  0999 V2000
   -3.1600    1.3680    2.0380 O   0  0  0  0  0  0  0  0  0  0  0  0
   -3.5040    0.7680    0.8400 C   0  0  0  0  0  0  0  0  0  0  0  0
   -2.3020    0.5530   -0.0410 C   0  0  0  0  0  0  0  0  0  0  0  0
   -1.3500   -0.2650    0.5660 O   0  0  0  0  0  0  0  0  0  0  0  0
   -0.2610   -0.4510   -0.2500 C   0  0  2  0  0  0  0  0  0  0  0  0
   -0.0470   -1.9130   -0.5810 C   0  0  0  0  0  0  0  0  0  0  0  0
    0.1600   -2.6150    0.6230 O   0  0  0  0  0  0  0  0  0  0  0  0
    0.8690   -0.0130    0.4390 O   0  0  0  0  0  0  0  0  0  0  0  0
    1.4910    0.9800   -0.3320 C   0  0  0  0  0  0  0  0  0  0  0  0
    2.6120    1.4060    0.3660 O   0  0  0  0  0  0  0  0  0  0  0  0
    3.5170    0.3780    0.5970 C   0  0  0  0  0  0  0  0  0  0  0  0
    3.9530   -0.1570   -0.6170 O   0  0  0  0  0  0  0  0  0  0  0  0
  1  2  1  0
  2  3  1  0
  3  4  1  0
  4  5  1  0
  5  6  1  1
  5  8  1  0
  6  7  1  0
  8  9  1  0
  9 10  1  0
 10 11  1  0
 11 12  1  0
M  END
