
     RDKit          3D

 12 11  0  0  0  0  0  0  0  0999 V2000
    3.7770    1.0010    0.3360 O   0  0  0  0  0  0  0  0  0  0  0  0
    3.0110    0.0530   -0.3730 C   0  0  0  0  0  0  0  0  0  0  0  0
    1.8770   -0.3460    0.5320 C   0  0  2  0  0  0  0  0  0  0  0  0
    2.4200   -0.8920    1.6890 O   0  0  0  0  0  0  0  0  0  0  0  0
    1.0010   -1.3550   -0.1410 C   0  0  0  0  0  0  0  0  0  0  0  0
    0.4260   -0.8870   -1.2980 O   0  0  0  0  0  0  0  0  0  0  0  0
   -0.3760    0.2250   -1.0940 C   0  0  0  0  0  0  0  0  0  0  0  0
   -1.3850   -0.1530   -0.2090 O   0  0  0  0  0  0  0  0  0  0  0  0
   -2.2250    0.9280    0.0340 C   0  0  2  0  0  0  0  0  0  0  0  0
   -2.1130    1.2050    1.4120 O   0  0  0  0  0  0  0  0  0  0  0  0
   -3.6780    0.5970   -0.2350 C   0  0  0  0  0  0  0  0  0  0  0  0
   -4.0260   -0.4540    0.6120 O   0  0  0  0  0  0  0  0  0  0  0  0
  1  2  1  0
  2  3  1  0
  3  4  1  1
  3  5  1  0
  5  6  1  0
  6  7  1  0
  7  8  1  0
  8  9  1  0
  9 10  1  1
  9 11  1  0
 11 12  1  0
M  END
