
     RDKit          3D

 16 16  0  0  0  0  0  0  0  0999 V2000
    5.9000    0.4480    0.6320 C   0  0  0  0  0  0  0  0  0  0  0  0
    4.6840    0.2190   -0.2140 C   0  0  0  0  0  0  0  0  0  0  0  0
    3.4570    0.7460   -0.0840 N   0  0  0  0  0  0  0  0  0  0  0  0
    2.6930    0.2490   -1.0730 C   0  0  0  0  0  0  0  0  0  0  0  0
    1.2580    0.5640   -1.3120 C   0  0  2  0  0  0  0  0  0  0  0  0
    1.0680    1.9270   -1.1970 O   0  0  0  0  0  0  0  0  0  0  0  0
    0.4440   -0.1840   -0.2780 C   0  0  0  0  0  0  0  0  0  0  0  0
   -0.9030    0.0700   -0.4280 O   0  0  0  0  0  0  0  0  0  0  0  0
   -1.6420   -0.6110    0.5140 C   0  0  2  0  0  0  0  0  0  0  0  0
   -2.4580   -1.7350   -0.0250 C   0  0  0  0  0  0  0  0  0  0  0  0
   -3.3850   -1.3760   -1.0560 N   0  0  0  0  0  0  0  0  0  0  0  0
   -2.2520    0.2320    1.5580 C   0  0  0  0  0  0  0  0  0  0  0  0
   -3.1940    1.3020    1.1760 C   0  0  0  0  0  0  0  0  0  0  0  0
   -4.3440    0.9060    0.5400 O   0  0  0  0  0  0  0  0  0  0  0  0
    3.4790   -0.5820   -1.7970 N   0  0  0  0  0  0  0  0  0  0  0  0
    4.6430   -0.5750   -1.2620 O   0  0  0  0  0  0  0  0  0  0  0  0
  1  2  1  0
  2  3  2  0
  2 16  1  0
  3  4  1  0
  4  5  1  0
  4 15  2  0
  5  6  1  1
  5  7  1  0
  7  8  1  0
  8  9  1  0
  9 10  1  6
  9 12  1  0
 10 11  1  0
 12 13  1  0
 13 14  1  0
 15 16  1  0
M  CHG  1  11   1
M  END
