
     RDKit          3D

 16 15  0  0  0  0  0  0  0  0999 V2000
   -2.5200   -1.5420   -0.2790 C   0  0  0  0  0  0  0  0  0  0  0  0
   -3.2280   -0.5000    0.1220 C   0  0  0  0  0  0  0  0  0  0  0  0
   -4.5470   -0.7030    0.7010 C   0  0  0  0  0  0  0  0  0  0  0  0
   -5.2820    0.2730    1.1090 N   0  0  0  0  0  0  0  0  0  0  0  0
   -2.7450    0.8970    0.0080 C   0  0  2  0  0  0  0  0  0  0  0  0
   -3.6690    1.5680   -0.9200 N   0  0  0  0  0  0  0  0  0  0  0  0
   -1.3810    1.0390   -0.5670 C   0  0  0  0  0  0  0  0  0  0  0  0
   -0.3370    0.3930    0.1630 N   0  0  0  0  0  0  0  0  0  0  0  0
    0.9910    0.4910   -0.3350 C   0  0  0  0  0  0  0  0  0  0  0  0
    1.2020    1.1500   -1.4110 O   0  0  0  0  0  0  0  0  0  0  0  0
    2.0730   -0.1050    0.3070 O   0  0  0  0  0  0  0  0  0  0  0  0
    3.3420    0.0500   -0.2630 C   0  0  0  0  0  0  0  0  0  0  0  0
    4.4120   -0.6150    0.4880 C   0  0  0  0  0  0  0  0  0  0  0  0
    4.1930   -1.2630    1.5480 O   0  0  0  0  0  0  0  0  0  0  0  0
    5.7080   -0.5200    0.0030 O   0  0  0  0  0  0  0  0  0  0  0  0
    6.8220   -1.1130    0.6320 C   0  0  0  0  0  0  0  0  0  0  0  0
  1  2  2  0
  2  3  1  0
  2  5  1  0
  3  4  2  0
  5  6  1  6
  5  7  1  0
  7  8  1  0
  8  9  1  0
  9 10  2  0
  9 11  1  0
 11 12  1  0
 12 13  1  0
 13 14  2  0
 13 15  1  0
 15 16  1  0
M  CHG  1   4   1
M  END
