
     RDKit          3D

 22 22  0  0  0  0  0  0  0  0999 V2000
    4.9740   -0.7770    3.0970 C   0  0  0  0  0  0  0  0  0  0  0  0
    5.6170   -0.2220    1.8460 C   0  0  0  0  0  0  0  0  0  0  0  0
    4.6350    0.7260    1.1780 C   0  0  0  0  0  0  0  0  0  0  0  0
    3.3490   -0.0190    0.8070 C   0  0  0  0  0  0  0  0  0  0  0  0
    2.4380    0.9820    0.1580 C   0  0  0  0  0  0  0  0  0  0  0  0
    1.1490    0.4600   -0.2890 C   0  0  0  0  0  0  0  0  0  0  0  0
    0.0410    0.6610    0.5520 C   0  0  0  0  0  0  0  0  0  0  0  0
   -1.2010    0.1520    0.1830 C   0  0  0  0  0  0  0  0  0  0  0  0
   -2.3000    0.3460    1.0040 O   0  0  0  0  0  0  0  0  0  0  0  0
   -2.1630    1.0570    2.2170 C   0  0  0  0  0  0  0  0  0  0  0  0
   -1.3780   -0.5450   -0.9830 C   0  0  0  0  0  0  0  0  0  0  0  0
   -2.7290   -1.0700   -1.3230 C   0  0  0  0  0  0  0  0  0  0  0  0
   -3.6570   -0.0300   -1.8160 C   0  0  0  0  0  0  0  0  0  0  0  0
   -4.8430    0.1300   -1.2930 C   0  0  0  0  0  0  0  0  0  0  0  0
   -5.3250   -0.7220   -0.1810 C   0  0  0  0  0  0  0  0  0  0  0  0
   -5.7360    1.2090   -1.8390 C   0  0  0  0  0  0  0  0  0  0  0  0
   -0.2980   -0.7430   -1.8070 C   0  0  0  0  0  0  0  0  0  0  0  0
   -0.3900   -1.4310   -2.9970 O   0  0  0  0  0  0  0  0  0  0  0  0
    0.9740   -0.2340   -1.4540 C   0  0  0  0  0  0  0  0  0  0  0  0
    2.0830   -0.4400   -2.3480 C   0  0  0  0  0  0  0  0  0  0  0  0
    3.2580   -0.0660   -2.2020 O   0  0  0  0  0  0  0  0  0  0  0  0
    1.8410   -1.1500   -3.5470 O   0  0  0  0  0  0  0  0  0  0  0  0
  1  2  1  0
  2  3  1  0
  3  4  1  0
  4  5  1  0
  5  6  1  0
  6  7  2  0
  6 19  1  0
  7  8  1  0
  8  9  1  0
  8 11  2  0
  9 10  1  0
 11 12  1  0
 11 17  1  0
 12 13  1  0
 13 14  2  3
 14 15  1  0
 14 16  1  0
 17 18  1  0
 17 19  2  0
 19 20  1  0
 20 21  2  0
 20 22  1  0
M  END
