
     RDKit          3D

 16 16  0  0  0  0  0  0  0  0999 V2000
    5.2400   -0.6820    0.5410 C   0  0  0  0  0  0  0  0  0  0  0  0
    4.5570    0.5800    0.5160 O   0  0  0  0  0  0  0  0  0  0  0  0
    3.1770    0.6280    0.3080 C   0  0  0  0  0  0  0  0  0  0  0  0
    2.5460   -0.4290    0.1440 O   0  0  0  0  0  0  0  0  0  0  0  0
    2.4570    1.8520    0.2750 N   0  0  0  0  0  0  0  0  0  0  0  0
    1.0420    1.9520    0.0640 C   0  0  0  0  0  0  0  0  0  0  0  0
    0.6050    1.3770   -1.2600 C   0  0  0  0  0  0  0  0  0  0  0  0
   -0.7590    1.4960   -1.4240 O   0  0  0  0  0  0  0  0  0  0  0  0
   -1.5460    0.8830   -0.4900 C   0  0  0  0  0  0  0  0  0  0  0  0
   -1.3160   -0.5890   -0.4200 C   0  0  2  0  0  0  0  0  0  0  0  0
   -1.6060   -1.1750   -1.7220 N   0  0  0  0  0  0  0  0  0  0  0  0
   -2.2530   -1.1590    0.6130 C   0  0  0  0  0  0  0  0  0  0  0  0
   -3.1740   -0.7040    1.4250 C   0  0  0  0  0  0  0  0  0  0  0  0
   -3.7030    0.5790    1.6880 N   0  0  0  0  0  0  0  0  0  0  0  0
   -3.4380   -1.9600    1.9350 O   0  0  0  0  0  0  0  0  0  0  0  0
   -2.4600   -2.5330    1.0900 C   0  0  0  0  0  0  0  0  0  0  0  0
  1  2  1  0
  2  3  1  0
  3  4  2  0
  3  5  1  0
  5  6  1  0
  6  7  1  0
  7  8  1  0
  8  9  1  0
  9 10  1  0
 10 11  1  6
 10 12  1  0
 12 13  2  0
 12 16  1  0
 13 14  1  0
 13 15  1  0
 15 16  1  0
M  CHG  1  11   1
M  END
