
     RDKit          3D

 16 15  0  0  0  0  0  0  0  0999 V2000
    2.6330   -2.7590   -1.4140 C   0  0  0  0  0  0  0  0  0  0  0  0
    1.8170   -1.6210   -1.4210 O   0  0  0  0  0  0  0  0  0  0  0  0
    2.3110   -0.4220   -0.9080 C   0  0  0  0  0  0  0  0  0  0  0  0
    3.5160   -0.4820   -0.4610 O   0  0  0  0  0  0  0  0  0  0  0  0
    1.5750    0.7930   -0.8680 C   0  0  2  0  0  0  0  0  0  0  0  0
    2.4890    1.8560   -0.3650 N   0  0  0  0  0  0  0  0  0  0  0  0
    0.3510    0.9200    0.0080 C   0  0  0  0  0  0  0  0  0  0  0  0
   -0.3130    2.1870   -0.1970 C   0  0  0  0  0  0  0  0  0  0  0  0
   -1.4880    2.7020    0.4730 C   0  0  0  0  0  0  0  0  0  0  0  0
    0.1950    2.9740   -1.0890 O   0  0  0  0  0  0  0  0  0  0  0  0
   -0.0550    0.0390    0.8700 C   0  0  0  0  0  0  0  0  0  0  0  0
    0.6100   -1.2760    1.1700 C   0  0  0  0  0  0  0  0  0  0  0  0
   -1.2560    0.2040    1.6670 N   0  0  0  0  0  0  0  0  0  0  0  0
   -2.2640   -0.8210    1.6660 C   0  0  0  0  0  0  0  0  0  0  0  0
   -2.7380   -1.2340    0.4730 O   0  0  0  0  0  0  0  0  0  0  0  0
   -3.3420   -0.3870   -0.3310 N   0  0  0  0  0  0  0  0  0  0  0  0
  1  2  1  0
  2  3  1  0
  3  4  2  0
  3  5  1  0
  5  6  1  1
  5  7  1  0
  7  8  1  0
  7 11  2  3
  8  9  1  0
  8 10  2  0
 11 12  1  0
 11 13  1  0
 13 14  1  0
 14 15  1  0
 15 16  1  0
M  CHG  1  16   1
M  END
