
     RDKit          3D

 22 23  0  0  0  0  0  0  0  0999 V2000
   -3.8220    2.4630   -2.3860 C   0  0  0  0  0  0  0  0  0  0  0  0
   -3.0380    2.6760   -1.3670 C   0  0  0  0  0  0  0  0  0  0  0  0
   -2.9080    4.0020   -0.8710 O   0  0  0  0  0  0  0  0  0  0  0  0
   -3.0600    4.2990    0.5050 C   0  0  0  0  0  0  0  0  0  0  0  0
   -2.7090    3.5840    1.5400 C   0  0  0  0  0  0  0  0  0  0  0  0
   -2.0490    2.2590    1.5550 C   0  0  0  0  0  0  0  0  0  0  0  0
   -1.5230    1.8950    2.8830 C   0  0  0  0  0  0  0  0  0  0  0  0
   -1.8900    1.3840    0.5550 C   0  0  0  0  0  0  0  0  0  0  0  0
   -1.1720    0.1750    0.9580 C   0  0  0  0  0  0  0  0  0  0  0  0
    0.0220    0.1040    0.1570 O   0  0  0  0  0  0  0  0  0  0  0  0
    0.9390   -0.9470    0.3590 C   0  0  0  0  0  0  0  0  0  0  0  0
    0.6190   -1.7640    1.2570 O   0  0  0  0  0  0  0  0  0  0  0  0
    2.1560   -1.0290   -0.4490 C   0  0  2  0  0  0  0  0  0  0  0  0
    2.1800    0.0580   -1.3550 O   0  0  0  0  0  0  0  0  0  0  0  0
    2.2250   -2.2700   -1.2990 C   0  0  0  0  0  0  0  0  0  0  0  0
    2.5480   -3.5130   -0.5290 C   0  0  0  0  0  0  0  0  0  0  0  0
    3.7860   -3.3720    0.3080 C   0  0  0  0  0  0  0  0  0  0  0  0
    3.7420   -2.1350    1.1580 C   0  0  0  0  0  0  0  0  0  0  0  0
    3.4210   -0.9140    0.3600 C   0  0  0  0  0  0  0  0  0  0  0  0
   -2.3400    1.4640   -0.8150 C   0  0  0  0  0  0  0  0  0  0  0  0
   -2.1470    0.5290   -1.6520 C   0  0  0  0  0  0  0  0  0  0  0  0
   -1.5950   -0.7960   -1.7850 C   0  0  0  0  0  0  0  0  0  0  0  0
  1  2  2  0
  2  3  1  0
  2 20  1  0
  3  4  1  0
  4  5  2  0
  5  6  1  0
  6  7  1  0
  6  8  2  0
  8  9  1  0
  8 20  1  0
  9 10  1  0
 10 11  1  0
 11 12  2  0
 11 13  1  0
 13 14  1  6
 13 15  1  0
 13 19  1  0
 15 16  1  0
 16 17  1  0
 17 18  1  0
 18 19  1  0
 20 21  2  3
 21 22  1  0
M  END
