
     RDKit          3D

 30 33  0  0  0  0  0  0  0  0999 V2000
   -4.4050   -1.6450   -2.3320 C   0  0  0  0  0  0  0  0  0  0  0  0
   -3.3420   -1.4340   -1.2530 C   0  0  2  0  0  0  0  0  0  0  0  0
   -2.7330   -2.7580   -1.0930 N   0  0  0  0  0  0  0  0  0  0  0  0
   -3.8580   -0.9300    0.0260 C   0  0  0  0  0  0  0  0  0  0  0  0
   -2.9540   -0.3310    0.9100 C   0  0  0  0  0  0  0  0  0  0  0  0
   -1.5520   -0.1700    0.6460 C   0  0  0  0  0  0  0  0  0  0  0  0
   -0.9910   -0.7850   -0.2800 O   0  0  0  0  0  0  0  0  0  0  0  0
   -0.6480    0.7320    1.4310 C   0  0  2  0  0  0  0  0  0  0  0  0
   -1.0110    2.1770    1.3340 C   0  0  0  0  0  0  0  0  0  0  0  0
   -0.5080    2.8220    0.0580 C   0  0  0  0  0  0  0  0  0  0  0  0
    0.9150    2.4870   -0.1300 C   0  0  0  0  0  0  0  0  0  0  0  0
    1.6190    3.3210   -0.7630 O   0  0  0  0  0  0  0  0  0  0  0  0
    1.5140    1.3010    0.3560 N   0  0  0  0  0  0  0  0  0  0  0  0
    2.8800    1.0000    0.0830 C   0  0  0  0  0  0  0  0  0  0  0  0
    3.9070    1.7330    0.6520 C   0  0  0  0  0  0  0  0  0  0  0  0
    5.2310    1.4390    0.3780 C   0  0  0  0  0  0  0  0  0  0  0  0
    5.5890    0.4050   -0.4710 C   0  0  0  0  0  0  0  0  0  0  0  0
    4.5730   -0.3290   -1.0410 C   0  0  0  0  0  0  0  0  0  0  0  0
    3.2430   -0.0310   -0.7640 C   0  0  0  0  0  0  0  0  0  0  0  0
    5.1450   -1.3060   -1.8490 O   0  0  0  0  0  0  0  0  0  0  0  0
    6.5210   -1.4910   -1.4990 C   0  0  0  0  0  0  0  0  0  0  0  0
    6.9090   -0.1220   -0.9360 C   0  0  0  0  0  0  0  0  0  0  0  0
    0.7600    0.3820    1.1300 C   0  0  0  0  0  0  0  0  0  0  0  0
   -3.4290    0.1230    2.1250 C   0  0  0  0  0  0  0  0  0  0  0  0
   -4.7600   -0.0090    2.4560 C   0  0  0  0  0  0  0  0  0  0  0  0
   -5.2020    0.4490    3.6570 F   0  0  0  0  0  0  0  0  0  0  0  0
   -5.6450   -0.5930    1.5970 C   0  0  0  0  0  0  0  0  0  0  0  0
   -6.9790   -0.7270    1.9230 F   0  0  0  0  0  0  0  0  0  0  0  0
   -5.1840   -1.0530    0.3770 C   0  0  0  0  0  0  0  0  0  0  0  0
   -6.3580   -1.8160   -0.6480 Cl  0  0  0  0  0  0  0  0  0  0  0  0
  2  1  1  6
  2  3  1  0
  2  4  1  0
  4  5  2  0
  4 29  1  0
  5  6  1  0
  5 24  1  0
  6  7  2  0
  8  6  1  6
  8  9  1  0
  8 23  1  0
  9 10  1  0
 10 11  1  0
 11 12  2  0
 11 13  1  0
 13 14  1  0
 13 23  1  0
 14 15  2  0
 14 19  1  0
 15 16  1  0
 16 17  2  0
 17 18  1  0
 17 22  1  0
 18 19  2  0
 18 20  1  0
 20 21  1  0
 21 22  1  0
 24 25  2  0
 25 26  1  0
 25 27  1  0
 27 28  1  0
 27 29  2  0
 29 30  1  0
M  CHG  1   3   1
M  END
