
     RDKit          3D

 31 32  0  0  0  0  0  0  0  0999 V2000
   -2.7350    5.6610    0.4410 C   0  0  0  0  0  0  0  0  0  0  0  0
   -2.3430    4.3870   -0.2090 C   0  0  0  0  0  0  0  0  0  0  0  0
   -1.3600    4.2620   -1.1590 C   0  0  0  0  0  0  0  0  0  0  0  0
   -1.3440    2.9070   -1.4730 C   0  0  0  0  0  0  0  0  0  0  0  0
   -2.3010    2.2900   -0.7100 C   0  0  0  0  0  0  0  0  0  0  0  0
   -2.7110    0.9120   -0.6240 C   0  0  0  0  0  0  0  0  0  0  0  0
   -1.9970   -0.1330   -0.2140 C   0  0  0  0  0  0  0  0  0  0  0  0
   -0.6450    0.1030    0.2150 C   0  0  0  0  0  0  0  0  0  0  0  0
   -0.2370    1.3350    0.2020 O   0  0  0  0  0  0  0  0  0  0  0  0
    0.2960   -0.8000    0.6460 O   0  0  0  0  0  0  0  0  0  0  0  0
    1.5790   -0.4100    1.0420 C   0  0  0  0  0  0  0  0  0  0  0  0
    2.3610    0.2730   -0.0040 C   0  0  0  0  0  0  0  0  0  0  0  0
    1.8950    0.4680   -1.1510 O   0  0  0  0  0  0  0  0  0  0  0  0
    3.6770    0.7290    0.2760 N   0  0  0  0  0  0  0  0  0  0  0  0
    4.4940    1.3820   -0.6520 N   0  0  0  0  0  0  0  0  0  0  0  0
    5.9050    1.1330   -0.6560 C   0  0  0  0  0  0  0  0  0  0  0  0
    6.7800    1.9190    0.0580 C   0  0  0  0  0  0  0  0  0  0  0  0
    8.1350    1.6360    0.0350 C   0  0  0  0  0  0  0  0  0  0  0  0
    8.6330    0.6090   -0.6690 N   0  0  0  0  0  0  0  0  0  0  0  0
    7.8020   -0.1610   -1.3660 C   0  0  0  0  0  0  0  0  0  0  0  0
    6.4410    0.0760   -1.3780 C   0  0  0  0  0  0  0  0  0  0  0  0
   -2.6210   -1.4090   -0.2050 N   0  0  0  0  0  0  0  0  0  0  0  0
   -4.0690   -1.4830   -0.5430 C   0  0  0  0  0  0  0  0  0  0  0  0
   -4.8300   -1.1550    0.7070 C   0  0  0  0  0  0  0  0  0  0  0  0
   -6.2530   -1.2140    0.4720 N   0  0  0  0  0  0  0  0  0  0  0  0
   -2.0450   -2.6430    0.1520 C   0  0  0  0  0  0  0  0  0  0  0  0
   -0.8770   -2.7540    0.5600 O   0  0  0  0  0  0  0  0  0  0  0  0
   -2.8390   -3.9160    0.0470 C   0  0  0  0  0  0  0  0  0  0  0  0
   -1.9900   -5.1020    0.4460 C   0  0  0  0  0  0  0  0  0  0  0  0
   -0.8370   -5.2470   -0.4270 N   0  0  0  0  0  0  0  0  0  0  0  0
   -2.8700    3.2330    0.0310 O   0  0  0  0  0  0  0  0  0  0  0  0
  1  2  1  0
  2  3  2  0
  2 31  1  0
  3  4  1  0
  4  5  2  0
  5  6  1  0
  5 31  1  0
  6  7  2  3
  7  8  1  0
  7 22  1  0
  8  9  2  0
  8 10  1  0
 10 11  1  0
 11 12  1  0
 12 13  2  0
 12 14  1  0
 14 15  1  0
 15 16  1  0
 16 17  2  0
 16 21  1  0
 17 18  1  0
 18 19  2  0
 19 20  1  0
 20 21  2  0
 22 23  1  0
 22 26  1  0
 23 24  1  0
 24 25  1  0
 26 27  2  0
 26 28  1  0
 28 29  1  0
 29 30  1  0
M  CHG  2  19   1  25   1
M  END
