
     RDKit          3D

 30 33  0  0  0  0  0  0  0  0999 V2000
    2.4060    2.1700    1.5750 C   0  0  0  0  0  0  0  0  0  0  0  0
    2.8890    1.0750    0.6880 C   0  0  0  0  0  0  0  0  0  0  0  0
    2.0440    0.3310   -0.0940 C   0  0  0  0  0  0  0  0  0  0  0  0
    0.5960    0.6380   -0.0460 C   0  0  0  0  0  0  0  0  0  0  0  0
    0.1310    1.4860   -0.8490 O   0  0  0  0  0  0  0  0  0  0  0  0
   -0.2630    0.0720    0.8010 O   0  0  0  0  0  0  0  0  0  0  0  0
   -1.5660    0.1050    1.0920 C   0  0  0  0  0  0  0  0  0  0  0  0
   -2.6340   -0.3830    0.2010 C   0  0  1  0  0  0  0  0  0  0  0  0
   -2.4380   -1.8700   -0.0600 C   0  0  0  0  0  0  0  0  0  0  0  0
   -3.6030   -2.6600    0.2550 N   0  0  0  0  0  0  0  0  0  0  0  0
   -4.7680   -2.1410   -0.4710 C   0  0  0  0  0  0  0  0  0  0  0  0
   -5.0000   -0.7640    0.0610 C   0  0  0  0  0  0  0  0  0  0  0  0
   -3.9350   -0.2500    0.8620 N   0  0  0  0  0  0  0  0  0  0  0  0
   -4.2460    1.0820    1.2530 C   0  0  0  0  0  0  0  0  0  0  0  0
   -4.0650    2.1360    0.2140 C   0  0  0  0  0  0  0  0  0  0  0  0
   -3.0920    1.7910   -0.8270 C   0  0  0  0  0  0  0  0  0  0  0  0
   -2.5720    2.7270   -1.4540 O   0  0  0  0  0  0  0  0  0  0  0  0
   -2.7730    0.3660   -1.0900 C   0  0  0  0  0  0  0  0  0  0  0  0
    2.5630   -0.6600   -0.8840 C   0  0  0  0  0  0  0  0  0  0  0  0
    1.5100   -1.6310   -1.8960 Cl  0  0  0  0  0  0  0  0  0  0  0  0
    3.9350   -0.9520   -0.9310 C   0  0  0  0  0  0  0  0  0  0  0  0
    4.4110   -2.0330   -1.8060 C   0  0  1  0  0  0  0  0  0  0  0  0
    3.7510   -3.1940   -1.3630 F   0  0  0  0  0  0  0  0  0  0  0  0
    3.9830   -1.7520   -3.1180 F   0  0  0  0  0  0  0  0  0  0  0  0
    4.7860   -0.2130   -0.1520 C   0  0  0  0  0  0  0  0  0  0  0  0
    6.1470   -0.4220   -0.1270 C   0  0  0  0  0  0  0  0  0  0  0  0
    6.9570    0.3590    0.6820 C   0  0  0  0  0  0  0  0  0  0  0  0
    6.4430    1.3450    1.4680 C   0  0  0  0  0  0  0  0  0  0  0  0
    5.0850    1.5520    1.4420 C   0  0  0  0  0  0  0  0  0  0  0  0
    4.2410    0.7890    0.6440 C   0  0  0  0  0  0  0  0  0  0  0  0
  1  2  1  0
  2  3  2  0
  2 30  1  0
  3  4  1  0
  3 19  1  0
  4  5  2  0
  4  6  1  0
  6  7  1  0
  8  7  1  1
  8  9  1  0
  8 13  1  0
  8 18  1  0
  9 10  1  0
 10 11  1  0
 11 12  1  0
 12 13  1  0
 13 14  1  0
 14 15  1  0
 15 16  1  0
 16 17  2  0
 16 18  1  0
 19 20  1  0
 19 21  2  0
 21 22  1  0
 21 25  1  0
 22 23  1  1
 22 24  1  0
 25 26  2  0
 25 30  1  0
 26 27  1  0
 27 28  2  0
 28 29  1  0
 29 30  2  0
M  CHG  1  10   1
M  END
