
     RDKit          3D

 30 33  0  0  0  0  0  0  0  0999 V2000
    2.4530   -2.0650    2.2530 C   0  0  0  0  0  0  0  0  0  0  0  0
    2.0540   -0.7030    2.2510 O   0  0  0  0  0  0  0  0  0  0  0  0
    1.2460   -0.2400    1.1930 C   0  0  0  0  0  0  0  0  0  0  0  0
    1.8530    0.3190    0.0410 C   0  0  0  0  0  0  0  0  0  0  0  0
    3.1620    0.3700    0.0480 O   0  0  0  0  0  0  0  0  0  0  0  0
    4.2590    0.7390   -0.5600 C   0  0  0  0  0  0  0  0  0  0  0  0
    4.3800    1.4300   -1.7610 C   0  0  0  0  0  0  0  0  0  0  0  0
    5.6070    1.7590   -2.2920 C   0  0  0  0  0  0  0  0  0  0  0  0
    5.6790    2.4300   -3.4600 F   0  0  0  0  0  0  0  0  0  0  0  0
    6.7660    1.4100   -1.6410 C   0  0  0  0  0  0  0  0  0  0  0  0
    7.9940    1.7070   -2.1180 F   0  0  0  0  0  0  0  0  0  0  0  0
    6.7110    0.7200   -0.4400 C   0  0  0  0  0  0  0  0  0  0  0  0
    5.4920    0.4050    0.0650 C   0  0  0  0  0  0  0  0  0  0  0  0
    5.3920   -0.3580    1.3400 C   0  0  0  0  0  0  0  0  0  0  0  0
    6.6760   -0.5920    1.8350 O   0  0  0  0  0  0  0  0  0  0  0  0
    1.0450    0.7660   -0.9850 C   0  0  0  0  0  0  0  0  0  0  0  0
   -0.3340    0.6510   -0.8500 C   0  0  0  0  0  0  0  0  0  0  0  0
   -0.9330    0.1150    0.2510 C   0  0  0  0  0  0  0  0  0  0  0  0
   -2.3900   -0.0140    0.4580 C   0  0  1  0  0  0  0  0  0  0  0  0
   -2.8520    1.0460    1.3810 N   0  0  0  0  0  0  0  0  0  0  0  0
   -4.1310    0.6520    1.8770 C   0  0  0  0  0  0  0  0  0  0  0  0
   -5.2740    1.2820    1.0940 C   0  0  0  0  0  0  0  0  0  0  0  0
   -5.5630    0.4650   -0.1500 C   0  0  0  0  0  0  0  0  0  0  0  0
   -4.5170   -0.4370   -0.4680 N   0  0  0  0  0  0  0  0  0  0  0  0
   -4.8250   -1.5910   -1.1990 C   0  0  0  0  0  0  0  0  0  0  0  0
   -3.7630   -1.7100   -2.2480 C   0  0  0  0  0  0  0  0  0  0  0  0
   -2.6880   -0.6830   -1.9440 C   0  0  0  0  0  0  0  0  0  0  0  0
   -3.2360    0.0900   -0.7690 C   0  0  2  0  0  0  0  0  0  0  0  0
   -0.1080   -0.3190    1.2540 C   0  0  0  0  0  0  0  0  0  0  0  0
   -0.8370   -1.0190    2.7100 Cl  0  0  0  0  0  0  0  0  0  0  0  0
  1  2  1  0
  2  3  1  0
  3  4  2  0
  3 29  1  0
  4  5  1  0
  4 16  1  0
  5  6  1  0
  6  7  2  0
  6 13  1  0
  7  8  1  0
  8  9  1  0
  8 10  2  0
 10 11  1  0
 10 12  1  0
 12 13  2  0
 13 14  1  0
 14 15  1  0
 16 17  2  0
 17 18  1  0
 19 18  1  6
 18 29  2  0
 19 20  1  0
 19 28  1  0
 20 21  1  0
 21 22  1  0
 22 23  1  0
 23 24  1  0
 24 25  1  0
 24 28  1  0
 25 26  1  0
 26 27  1  0
 28 27  1  6
 29 30  1  0
M  CHG  1  20   1
M  END
