
     RDKit          3D

 30 31  0  0  0  0  0  0  0  0999 V2000
    0.0480   -0.2910   -3.1960 C   0  0  0  0  0  0  0  0  0  0  0  0
    0.6680   -0.0180   -1.9540 O   0  0  0  0  0  0  0  0  0  0  0  0
   -0.1520    0.3180   -0.8850 C   0  0  0  0  0  0  0  0  0  0  0  0
   -1.5180    0.3890   -1.0010 C   0  0  0  0  0  0  0  0  0  0  0  0
   -2.3600    0.7260    0.0670 C   0  0  0  0  0  0  0  0  0  0  0  0
   -3.8250    0.7380   -0.1750 C   0  0  0  0  0  0  0  0  0  0  0  0
   -4.5340   -0.4950    0.2720 C   0  0  0  0  0  0  0  0  0  0  0  0
   -5.9970   -0.3100   -0.0290 C   0  0  0  0  0  0  0  0  0  0  0  0
   -6.5460   -0.6950   -1.2340 C   0  0  0  0  0  0  0  0  0  0  0  0
   -7.8960   -0.5080   -1.4760 C   0  0  0  0  0  0  0  0  0  0  0  0
   -8.7010    0.0620   -0.5150 C   0  0  0  0  0  0  0  0  0  0  0  0
   -8.1670    0.4550    0.7030 C   0  0  0  0  0  0  0  0  0  0  0  0
   -6.8360    0.2620    0.9190 C   0  0  0  0  0  0  0  0  0  0  0  0
   -1.8320    1.0050    1.3010 C   0  0  0  0  0  0  0  0  0  0  0  0
   -2.6230    1.3820    2.4580 C   0  0  0  0  0  0  0  0  0  0  0  0
   -3.8650    1.4860    2.4870 O   0  0  0  0  0  0  0  0  0  0  0  0
   -1.9730    1.6580    3.6580 O   0  0  0  0  0  0  0  0  0  0  0  0
   -0.4330    0.9310    1.4210 C   0  0  0  0  0  0  0  0  0  0  0  0
    0.0860    1.2110    2.6680 O   0  0  0  0  0  0  0  0  0  0  0  0
    0.3810    0.6010    0.3700 C   0  0  0  0  0  0  0  0  0  0  0  0
    1.8820    0.5140    0.4800 C   0  0  0  0  0  0  0  0  0  0  0  0
    2.2100   -0.9060    0.5790 C   0  0  0  0  0  0  0  0  0  0  0  0
    3.0090   -1.5420   -0.2220 C   0  0  0  0  0  0  0  0  0  0  0  0
    3.2230   -3.0180    0.0420 C   0  0  0  0  0  0  0  0  0  0  0  0
    3.7040   -0.9030   -1.3340 C   0  0  0  0  0  0  0  0  0  0  0  0
    5.2100   -1.1050   -1.0560 C   0  0  0  0  0  0  0  0  0  0  0  0
    5.4780   -0.4400    0.2560 C   0  0  0  0  0  0  0  0  0  0  0  0
    6.3330    0.5550    0.3800 C   0  0  0  0  0  0  0  0  0  0  0  0
    7.0880    1.0700   -0.8110 C   0  0  0  0  0  0  0  0  0  0  0  0
    6.5610    1.1800    1.7110 C   0  0  0  0  0  0  0  0  0  0  0  0
  1  2  1  0
  2  3  1  0
  3  4  2  0
  3 20  1  0
  4  5  1  0
  5  6  1  0
  5 14  2  0
  6  7  1  0
  7  8  1  0
  8  9  2  0
  8 13  1  0
  9 10  1  0
 10 11  2  0
 11 12  1  0
 12 13  2  0
 14 15  1  0
 14 18  1  0
 15 16  2  0
 15 17  1  0
 18 19  1  0
 18 20  2  0
 20 21  1  0
 21 22  1  0
 22 23  2  3
 23 24  1  0
 23 25  1  0
 25 26  1  0
 26 27  1  0
 27 28  2  3
 28 29  1  0
 28 30  1  0
M  END
