
     RDKit          3D

 30 32  0  0  0  0  0  0  0  0999 V2000
   -4.6900   -1.1540    3.2820 C   0  0  0  0  0  0  0  0  0  0  0  0
   -3.6640   -0.3080    3.1810 C   0  0  0  0  0  0  0  0  0  0  0  0
   -2.8130    0.1200    4.1890 O   0  0  0  0  0  0  0  0  0  0  0  0
   -1.5400    0.3980    3.5830 C   0  0  0  0  0  0  0  0  0  0  0  0
   -1.9630    1.0160    2.3370 C   0  0  2  0  0  0  0  0  0  0  0  0
   -3.2010    0.3740    1.9360 C   0  0  0  0  0  0  0  0  0  0  0  0
   -3.8040    0.4430    0.7290 C   0  0  0  0  0  0  0  0  0  0  0  0
   -3.3790    1.0870   -0.4820 C   0  0  0  0  0  0  0  0  0  0  0  0
   -2.7730    0.6350   -1.5690 C   0  0  0  0  0  0  0  0  0  0  0  0
   -2.3150   -0.6610   -1.9640 C   0  0  0  0  0  0  0  0  0  0  0  0
   -2.0610   -1.7580   -1.3000 C   0  0  0  0  0  0  0  0  0  0  0  0
   -2.1090   -2.1740    0.0850 C   0  0  0  0  0  0  0  0  0  0  0  0
   -3.4930   -3.2770    0.5670 Cl  0  0  0  0  0  0  0  0  0  0  0  0
   -1.2300   -1.8630    1.0430 C   0  0  0  0  0  0  0  0  0  0  0  0
   -0.0590   -1.0800    0.9860 N   0  0  0  0  0  0  0  0  0  0  0  0
    0.1400    0.1960    1.0350 C   0  0  0  0  0  0  0  0  0  0  0  0
    1.5160    0.7050    0.9400 N   0  0  0  0  0  0  0  0  0  0  0  0
    2.5990   -0.1110    0.5000 C   0  0  0  0  0  0  0  0  0  0  0  0
    2.7420   -0.4220   -0.9420 C   0  0  1  0  0  0  0  0  0  0  0  0
    1.5910   -0.9820   -1.4560 O   0  0  0  0  0  0  0  0  0  0  0  0
    3.3150    0.7020   -1.7720 C   0  0  0  0  0  0  0  0  0  0  0  0
    4.8370    0.6050   -1.7900 C   0  0  0  0  0  0  0  0  0  0  0  0
    5.2350   -0.4090   -2.6290 O   0  0  0  0  0  0  0  0  0  0  0  0
    4.3180   -1.4630   -2.5150 C   0  0  0  0  0  0  0  0  0  0  0  0
    3.8340   -1.5470   -1.0950 C   0  0  0  0  0  0  0  0  0  0  0  0
   -0.9140    1.1750    1.2870 C   0  0  0  0  0  0  0  0  0  0  0  0
   -0.9560    2.2810    0.6240 C   0  0  0  0  0  0  0  0  0  0  0  0
   -0.1200    2.7910   -0.4660 C   0  0  1  0  0  0  0  0  0  0  0  0
    0.7000    3.7840    0.0100 F   0  0  0  0  0  0  0  0  0  0  0  0
    0.4920    1.8350   -1.2000 F   0  0  0  0  0  0  0  0  0  0  0  0
  1  2  2  0
  2  3  1  0
  2  6  1  0
  3  4  1  0
  5  4  1  1
  5  6  1  0
  5 26  1  0
  6  7  2  0
  7  8  1  0
  8  9  2  0
  9 10  1  0
 10 11  2  0
 11 12  1  0
 12 13  1  0
 12 14  2  0
 14 15  1  0
 15 16  2  0
 16 17  1  0
 16 26  1  0
 17 18  1  0
 18 19  1  0
 19 20  1  6
 19 21  1  0
 19 25  1  0
 21 22  1  0
 22 23  1  0
 23 24  1  0
 24 25  1  0
 26 27  2  3
 27 28  1  0
 28 29  1  1
 28 30  1  0
M  CHG  1  15   1
M  END
