
     RDKit          3D

 30 33  0  0  0  0  0  0  0  0999 V2000
   -6.8960    0.4890   -1.6500 C   0  0  0  0  0  0  0  0  0  0  0  0
   -5.5820   -0.0760   -1.8300 N   0  0  0  0  0  0  0  0  0  0  0  0
   -5.3260   -1.2370   -1.0490 C   0  0  2  0  0  0  0  0  0  0  0  0
   -6.1000   -1.3280    0.2240 C   0  0  0  0  0  0  0  0  0  0  0  0
   -5.2460   -0.6570    1.1970 C   0  0  0  0  0  0  0  0  0  0  0  0
   -5.6210   -0.0110    2.2750 C   0  0  0  0  0  0  0  0  0  0  0  0
   -4.6510    0.6330    3.1900 C   0  0  1  0  0  0  0  0  0  0  0  0
   -5.2050    0.9810    4.3880 F   0  0  0  0  0  0  0  0  0  0  0  0
   -3.5950   -0.2420    3.4820 F   0  0  0  0  0  0  0  0  0  0  0  0
   -3.9070    2.0750    2.4630 Cl  0  0  0  0  0  0  0  0  0  0  0  0
   -3.8670   -0.8260    0.7640 C   0  0  0  0  0  0  0  0  0  0  0  0
   -2.6000   -0.7800    1.1370 O   0  0  0  0  0  0  0  0  0  0  0  0
   -1.7990   -1.0650    0.1660 C   0  0  0  0  0  0  0  0  0  0  0  0
   -0.3220   -1.1190    0.1890 C   0  0  0  0  0  0  0  0  0  0  0  0
    0.3060   -1.4170   -0.8540 O   0  0  0  0  0  0  0  0  0  0  0  0
    0.4230   -0.8440    1.3600 N   0  0  0  0  0  0  0  0  0  0  0  0
    1.8370   -0.8590    1.5090 C   0  0  0  0  0  0  0  0  0  0  0  0
    2.6080    0.1090    0.6610 C   0  0  1  0  0  0  0  0  0  0  0  0
    4.0150    0.1360    1.1640 C   0  0  0  0  0  0  0  0  0  0  0  0
    5.0360    0.5200    0.1960 C   0  0  0  0  0  0  0  0  0  0  0  0
    6.3520    0.5490    0.6130 C   0  0  0  0  0  0  0  0  0  0  0  0
    7.3230    0.9180   -0.3220 C   0  0  0  0  0  0  0  0  0  0  0  0
    8.7240    0.9510    0.1150 C   0  0  0  0  0  0  0  0  0  0  0  0
    6.9410    1.2400   -1.6290 C   0  0  0  0  0  0  0  0  0  0  0  0
    5.6270    1.2070   -2.0300 C   0  0  0  0  0  0  0  0  0  0  0  0
    4.6740    0.8380   -1.0850 C   0  0  0  0  0  0  0  0  0  0  0  0
    3.2440    0.7840   -1.4540 C   0  0  0  0  0  0  0  0  0  0  0  0
    2.4740   -0.0330   -0.6840 O   0  0  0  0  0  0  0  0  0  0  0  0
   -2.5820   -1.3200   -0.9390 C   0  0  0  0  0  0  0  0  0  0  0  0
   -3.9090   -1.1740   -0.5850 C   0  0  0  0  0  0  0  0  0  0  0  0
  1  2  1  0
  3  2  1  1
  3  4  1  0
  3 30  1  0
  4  5  1  0
  5  6  2  3
  5 11  1  0
  6  7  1  0
  7  8  1  1
  7  9  1  0
  7 10  1  0
 11 12  1  0
 11 30  2  0
 12 13  1  0
 13 14  1  0
 13 29  2  0
 14 15  2  0
 14 16  1  0
 16 17  1  0
 18 17  1  1
 18 19  1  0
 18 28  1  0
 19 20  1  0
 20 21  2  0
 20 26  1  0
 21 22  1  0
 22 23  1  0
 22 24  2  0
 24 25  1  0
 25 26  2  0
 26 27  1  0
 27 28  1  0
 29 30  1  0
M  CHG  1   2   1
M  END
