
     RDKit          3D

 38 39  0  0  0  0  0  0  0  0999 V2000
    6.1840    0.5340   -1.7620 C   0  0  0  0  0  0  0  0  0  0  0  0
    6.0070   -0.7990   -2.3070 C   0  0  0  0  0  0  0  0  0  0  0  0
    5.3540   -1.8420   -1.8610 C   0  0  0  0  0  0  0  0  0  0  0  0
    5.4490   -3.0650   -2.8060 C   0  0  0  0  0  0  0  0  0  0  0  0
    4.6030   -4.1530   -2.3840 C   0  0  0  0  0  0  0  0  0  0  0  0
    3.8700   -4.1660   -1.2940 C   0  0  0  0  0  0  0  0  0  0  0  0
    3.8710   -2.9960   -0.4050 C   0  0  0  0  0  0  0  0  0  0  0  0
    4.5810   -1.8850   -0.6590 C   0  0  0  0  0  0  0  0  0  0  0  0
    4.5110   -0.8350    0.2610 N   0  0  0  0  0  0  0  0  0  0  0  0
    3.5530   -0.6310    1.2660 C   0  0  0  0  0  0  0  0  0  0  0  0
    2.6120   -1.4110    1.4390 O   0  0  0  0  0  0  0  0  0  0  0  0
    3.6260    0.5610    2.1950 C   0  0  0  0  0  0  0  0  0  0  0  0
    2.5550    0.5540    3.1380 N   0  0  0  0  0  0  0  0  0  0  0  0
    2.8250   -0.1570    4.4030 C   0  0  0  0  0  0  0  0  0  0  0  0
    1.3020    1.1460    2.9800 C   0  0  0  0  0  0  0  0  0  0  0  0
    0.4270    0.9930    3.8990 O   0  0  0  0  0  0  0  0  0  0  0  0
    0.8540    1.9690    1.8010 C   0  0  1  0  0  0  0  0  0  0  0  0
   -0.5930    2.0440    1.8710 O   0  0  0  0  0  0  0  0  0  0  0  0
   -1.4030    1.4940    0.9100 C   0  0  0  0  0  0  0  0  0  0  0  0
   -0.8380    0.8950   -0.0630 O   0  0  0  0  0  0  0  0  0  0  0  0
   -2.8880    1.5750    0.9680 C   0  0  1  0  0  0  0  0  0  0  0  0
   -3.2150    3.0600    0.7950 C   0  0  0  0  0  0  0  0  0  0  0  0
   -3.4320    0.8190   -0.0950 O   0  0  0  0  0  0  0  0  0  0  0  0
   -4.3990   -0.1270    0.1670 C   0  0  0  0  0  0  0  0  0  0  0  0
   -4.7870   -0.3070    1.3470 O   0  0  0  0  0  0  0  0  0  0  0  0
   -4.9700   -0.9110   -0.8940 C   0  0  0  0  0  0  0  0  0  0  0  0
   -4.6300   -0.8100   -2.1810 C   0  0  0  0  0  0  0  0  0  0  0  0
   -3.5970    0.1640   -2.5710 C   0  0  0  0  0  0  0  0  0  0  0  0
   -5.3050   -1.6760   -3.1960 C   0  0  0  0  0  0  0  0  0  0  0  0
   -6.7960   -1.4510   -3.0760 C   0  0  0  0  0  0  0  0  0  0  0  0
   -7.4070   -2.1430   -1.8930 C   0  0  1  0  0  0  0  0  0  0  0  0
   -7.6920   -3.6190   -2.2060 C   0  0  0  0  0  0  0  0  0  0  0  0
   -6.2410   -2.1460   -0.5220 S   0  0  0  0  0  0  0  0  0  0  0  0
    1.3780    3.3420    1.9940 C   0  0  0  0  0  0  0  0  0  0  0  0
    2.5570    3.7190    2.0090 O   0  0  0  0  0  0  0  0  0  0  0  0
    0.4320    4.3680    2.1870 O   0  0  0  0  0  0  0  0  0  0  0  0
    0.8200    5.7150    2.3860 C   0  0  0  0  0  0  0  0  0  0  0  0
    1.6630    5.7540    3.6410 C   0  0  0  0  0  0  0  0  0  0  0  0
  1  2  1  0
  2  3  2  3
  3  4  1  0
  3  8  1  0
  4  5  1  0
  5  6  2  0
  6  7  1  0
  7  8  2  0
  8  9  1  0
  9 10  1  0
 10 11  2  0
 10 12  1  0
 12 13  1  0
 13 14  1  0
 13 15  1  0
 15 16  2  0
 15 17  1  0
 17 18  1  1
 17 34  1  0
 18 19  1  0
 19 20  2  0
 19 21  1  0
 21 22  1  6
 21 23  1  0
 23 24  1  0
 24 25  2  0
 24 26  1  0
 26 27  2  0
 26 33  1  0
 27 28  1  0
 27 29  1  0
 29 30  1  0
 30 31  1  0
 31 32  1  6
 31 33  1  0
 34 35  2  0
 34 36  1  0
 36 37  1  0
 37 38  1  0
M  END
