
     RDKit          3D

 38 40  0  0  0  0  0  0  0  0999 V2000
   -9.0440   -1.6910   -0.1350 C   0  0  0  0  0  0  0  0  0  0  0  0
   -8.0800   -2.5520   -0.6110 O   0  0  0  0  0  0  0  0  0  0  0  0
   -6.9310   -1.9630   -1.0490 C   0  0  0  0  0  0  0  0  0  0  0  0
   -6.2080   -1.1650    0.0420 C   0  0  0  0  0  0  0  0  0  0  0  0
   -5.8640   -1.9560    1.0890 O   0  0  0  0  0  0  0  0  0  0  0  0
   -5.2280   -1.3790    2.1450 C   0  0  0  0  0  0  0  0  0  0  0  0
   -3.9140   -0.8150    1.7930 C   0  0  0  0  0  0  0  0  0  0  0  0
   -3.2310   -0.2540    2.7290 O   0  0  0  0  0  0  0  0  0  0  0  0
   -3.3920   -0.8620    0.5340 O   0  0  0  0  0  0  0  0  0  0  0  0
   -2.1750   -0.3360    0.2130 C   0  0  0  0  0  0  0  0  0  0  0  0
   -1.9840    1.1250    0.2960 C   0  0  0  0  0  0  0  0  0  0  0  0
   -0.7050    1.6560    0.0330 C   0  0  0  0  0  0  0  0  0  0  0  0
    0.5100    0.8910   -0.2820 C   0  0  0  0  0  0  0  0  0  0  0  0
    0.4760   -0.3470   -0.3380 O   0  0  0  0  0  0  0  0  0  0  0  0
    1.7130    1.4410   -0.5260 O   0  0  0  0  0  0  0  0  0  0  0  0
    2.9530    1.0290   -0.8060 C   0  0  2  0  0  0  0  0  0  0  0  0
    3.8190    2.2940   -1.1010 C   0  0  0  0  0  0  0  0  0  0  0  0
    3.3350   -0.0960   -1.6570 C   0  0  0  0  0  0  0  0  0  0  0  0
    4.3500   -0.5830   -0.6350 C   0  0  2  0  0  0  0  0  0  0  0  0
    4.4240   -1.9800   -0.3990 N   0  0  0  0  0  0  0  0  0  0  0  0
    3.1930   -2.7960   -0.2470 C   0  0  0  0  0  0  0  0  0  0  0  0
    5.5960   -2.7600   -0.3360 C   0  0  0  0  0  0  0  0  0  0  0  0
    5.4600   -4.0380   -0.1160 O   0  0  0  0  0  0  0  0  0  0  0  0
    6.9240   -2.3170   -0.4850 C   0  0  0  0  0  0  0  0  0  0  0  0
    8.0990   -3.0460   -0.4430 C   0  0  0  0  0  0  0  0  0  0  0  0
    9.2620   -2.4360   -0.6000 C   0  0  0  0  0  0  0  0  0  0  0  0
    9.3080   -1.0830   -0.8040 C   0  0  0  0  0  0  0  0  0  0  0  0
    7.5430   -0.6350   -0.7700 S   0  0  0  0  0  0  0  0  0  0  0  0
    3.6710    0.3280    0.3550 C   0  0  2  0  0  0  0  0  0  0  0  0
    2.8440   -0.2160    1.4500 C   0  0  0  0  0  0  0  0  0  0  0  0
    4.7540    1.2210    1.0100 C   0  0  0  0  0  0  0  0  0  0  0  0
   -0.8330    2.9810    0.1240 N   0  0  0  0  0  0  0  0  0  0  0  0
   -2.0810    3.3300    0.4210 C   0  0  0  0  0  0  0  0  0  0  0  0
   -2.6440    4.7090    0.6130 C   0  0  0  0  0  0  0  0  0  0  0  0
   -2.8530    2.1530    0.5390 C   0  0  0  0  0  0  0  0  0  0  0  0
   -4.2730    2.1720    0.8440 C   0  0  0  0  0  0  0  0  0  0  0  0
   -5.2040    2.2120   -0.3410 C   0  0  0  0  0  0  0  0  0  0  0  0
   -4.8150    2.1620    1.9510 O   0  0  0  0  0  0  0  0  0  0  0  0
  1  2  1  0
  2  3  1  0
  3  4  1  0
  4  5  1  0
  5  6  1  0
  6  7  1  0
  7  8  2  0
  7  9  1  0
  9 10  1  0
 10 11  1  0
 11 12  2  0
 11 35  1  0
 12 13  1  0
 12 32  1  0
 13 14  2  0
 13 15  1  0
 15 16  1  0
 16 17  1  6
 16 18  1  0
 16 29  1  0
 18 19  1  0
 19 20  1  1
 19 29  1  0
 20 21  1  0
 20 22  1  0
 22 23  2  0
 22 24  1  0
 24 25  2  0
 24 28  1  0
 25 26  1  0
 26 27  2  0
 27 28  1  0
 29 30  1  1
 29 31  1  0
 32 33  1  0
 33 34  1  0
 33 35  2  0
 35 36  1  0
 36 37  1  0
 36 38  2  0
M  END
