
     RDKit          3D

 38 40  0  0  0  0  0  0  0  0999 V2000
   -4.3020   -1.7750   -3.7100 C   0  0  0  0  0  0  0  0  0  0  0  0
   -2.9200   -1.5490   -3.0850 C   0  0  0  0  0  0  0  0  0  0  0  0
   -3.0300   -1.1990   -1.7470 O   0  0  0  0  0  0  0  0  0  0  0  0
   -1.9850   -0.9420   -0.9220 C   0  0  0  0  0  0  0  0  0  0  0  0
   -1.3780   -1.9210   -0.1400 C   0  0  0  0  0  0  0  0  0  0  0  0
   -1.7210   -3.3350   -0.2500 C   0  0  1  0  0  0  0  0  0  0  0  0
   -0.4800   -4.0480   -0.2840 O   0  0  0  0  0  0  0  0  0  0  0  0
   -2.4980   -3.9360    0.8910 C   0  0  2  0  0  0  0  0  0  0  0  0
   -3.8920   -3.2060    0.8720 C   0  0  0  0  0  0  0  0  0  0  0  0
   -1.9380   -3.8040    2.2720 C   0  0  0  0  0  0  0  0  0  0  0  0
   -2.8870   -4.5200    3.2650 C   0  0  0  0  0  0  0  0  0  0  0  0
   -0.3300   -1.5030    0.6440 C   0  0  0  0  0  0  0  0  0  0  0  0
    0.2600   -2.3510    1.3760 O   0  0  0  0  0  0  0  0  0  0  0  0
    0.1270   -0.2220    0.6940 N   0  0  0  0  0  0  0  0  0  0  0  0
    1.2540    0.1180    1.4840 C   0  0  0  0  0  0  0  0  0  0  0  0
    2.5810    0.2560    0.8610 C   0  0  0  0  0  0  0  0  0  0  0  0
    3.1620   -0.8590    0.1440 C   0  0  0  0  0  0  0  0  0  0  0  0
    2.4720   -1.8240   -0.2530 O   0  0  0  0  0  0  0  0  0  0  0  0
    4.5450   -0.9220   -0.1560 N   0  0  0  0  0  0  0  0  0  0  0  0
    5.4410    0.1110    0.2540 C   0  0  0  0  0  0  0  0  0  0  0  0
    6.6240   -0.5670    0.9560 C   0  0  0  0  0  0  0  0  0  0  0  0
    7.1950   -1.4330    0.0370 O   0  0  0  0  0  0  0  0  0  0  0  0
    6.3490   -2.5150   -0.2270 C   0  0  0  0  0  0  0  0  0  0  0  0
    5.0730   -2.0350   -0.9000 C   0  0  0  0  0  0  0  0  0  0  0  0
   -0.4770    0.7220   -0.0680 C   0  0  0  0  0  0  0  0  0  0  0  0
   -0.0990    2.0480    0.0040 C   0  0  0  0  0  0  0  0  0  0  0  0
   -0.7750    3.0200   -0.7270 C   0  0  0  0  0  0  0  0  0  0  0  0
   -0.4270    4.4410   -0.4610 C   0  0  2  0  0  0  0  0  0  0  0  0
    1.0990    4.5290   -0.2090 C   0  0  0  0  0  0  0  0  0  0  0  0
   -0.9950    4.6560    0.9830 C   0  0  0  0  0  0  0  0  0  0  0  0
   -0.7300    6.3190    1.4670 S   0  0  1  0  0  0  0  0  0  0  0  0
   -1.2680    6.4940    2.8770 O   0  0  0  0  0  0  0  0  0  0  0  0
    0.7500    6.6540    1.4140 O   0  0  0  0  0  0  0  0  0  0  0  0
   -1.6030    7.3200    0.4050 O   0  0  0  0  0  0  0  0  0  0  0  0
   -1.8260    2.6880   -1.5360 C   0  0  0  0  0  0  0  0  0  0  0  0
   -2.5230    3.7650   -2.3250 C   0  0  0  0  0  0  0  0  0  0  0  0
   -2.1970    1.3600   -1.6070 C   0  0  0  0  0  0  0  0  0  0  0  0
   -1.5280    0.3790   -0.8760 C   0  0  0  0  0  0  0  0  0  0  0  0
  1  2  1  0
  2  3  1  0
  3  4  1  0
  4  5  2  0
  4 38  1  0
  5  6  1  0
  5 12  1  0
  6  7  1  1
  6  8  1  0
  8  9  1  1
  8 10  1  0
 10 11  1  0
 12 13  2  0
 12 14  1  0
 14 15  1  0
 14 25  1  0
 15 16  1  0
 16 17  1  0
 17 18  2  0
 17 19  1  0
 19 20  1  0
 19 24  1  0
 20 21  1  0
 21 22  1  0
 22 23  1  0
 23 24  1  0
 25 26  2  0
 25 38  1  0
 26 27  1  0
 27 28  1  0
 27 35  2  0
 28 29  1  1
 28 30  1  0
 30 31  1  0
 31 32  2  0
 31 33  2  0
 31 34  1  6
 35 36  1  0
 35 37  1  0
 37 38  2  0
M  END
