
     RDKit          3D

 38 41  0  0  0  0  0  0  0  0999 V2000
   -9.6660   -0.1770    0.6980 C   0  0  0  0  0  0  0  0  0  0  0  0
   -8.2370    0.0300    0.2550 C   0  0  0  0  0  0  0  0  0  0  0  0
   -7.2520   -0.7850    1.0680 C   0  0  1  0  0  0  0  0  0  0  0  0
   -7.5040   -2.2610    0.9660 C   0  0  0  0  0  0  0  0  0  0  0  0
   -5.8420   -0.3820    0.8270 C   0  0  1  0  0  0  0  0  0  0  0  0
   -5.7010    1.0850    1.2300 C   0  0  0  0  0  0  0  0  0  0  0  0
   -4.9060   -1.2160    1.7120 C   0  0  0  0  0  0  0  0  0  0  0  0
   -5.3540   -0.5980   -0.5560 C   0  0  0  0  0  0  0  0  0  0  0  0
   -5.9350   -1.1250   -1.4580 O   0  0  0  0  0  0  0  0  0  0  0  0
   -3.9780   -0.0890   -0.8350 C   0  0  0  0  0  0  0  0  0  0  0  0
   -3.5480   -0.3120   -2.1560 O   0  0  0  0  0  0  0  0  0  0  0  0
   -2.2780    0.1660   -2.4870 C   0  0  0  0  0  0  0  0  0  0  0  0
   -1.7500    0.0070   -3.7470 C   0  0  0  0  0  0  0  0  0  0  0  0
   -0.4830    0.4920   -4.0680 C   0  0  0  0  0  0  0  0  0  0  0  0
    0.2850    1.1490   -3.1340 C   0  0  0  0  0  0  0  0  0  0  0  0
   -0.2380    1.3090   -1.8770 C   0  0  0  0  0  0  0  0  0  0  0  0
   -1.4810    0.8370   -1.5490 C   0  0  0  0  0  0  0  0  0  0  0  0
    0.6160    2.0590   -0.8980 C   0  0  1  0  0  0  0  0  0  0  0  0
    1.7830    1.3820   -0.4730 N   0  0  0  0  0  0  0  0  0  0  0  0
    1.9080    0.3300    0.4740 C   0  0  0  0  0  0  0  0  0  0  0  0
    0.8450   -0.1030    0.9880 O   0  0  0  0  0  0  0  0  0  0  0  0
    3.2380   -0.1830    0.7960 C   0  0  0  0  0  0  0  0  0  0  0  0
    3.8690   -1.3570    0.4980 C   0  0  0  0  0  0  0  0  0  0  0  0
    5.1900   -1.3260    0.9890 C   0  0  0  0  0  0  0  0  0  0  0  0
    6.1990   -2.3640    0.8850 C   0  0  0  0  0  0  0  0  0  0  0  0
    7.4890   -2.1880    0.6960 C   0  0  0  0  0  0  0  0  0  0  0  0
    8.2840   -1.0250    0.5390 N   0  0  0  0  0  0  0  0  0  0  0  0
    9.6670   -1.4060    0.3780 C   0  0  0  0  0  0  0  0  0  0  0  0
   10.7950   -0.4270    0.1890 C   0  0  0  0  0  0  0  0  0  0  0  0
    9.7840   -2.7210    0.4230 C   0  0  0  0  0  0  0  0  0  0  0  0
    8.4530   -3.2930    0.6220 C   0  0  0  0  0  0  0  0  0  0  0  0
    8.2380   -4.5250    0.7050 O   0  0  0  0  0  0  0  0  0  0  0  0
    5.3250   -0.1350    1.5740 N   0  0  0  0  0  0  0  0  0  0  0  0
    4.1880    0.5730    1.4790 C   0  0  0  0  0  0  0  0  0  0  0  0
    3.9700    1.9240    2.0210 C   0  0  0  0  0  0  0  0  0  0  0  0
    1.0240    3.3050   -1.6690 C   0  0  0  0  0  0  0  0  0  0  0  0
    1.9930    2.8710   -2.7480 C   0  0  0  0  0  0  0  0  0  0  0  0
    1.5700    1.6680   -3.3900 O   0  0  0  0  0  0  0  0  0  0  0  0
  1  2  1  0
  2  3  1  0
  3  4  1  6
  3  5  1  0
  5  6  1  1
  5  7  1  0
  5  8  1  0
  8  9  2  0
  8 10  1  0
 10 11  1  0
 11 12  1  0
 12 13  2  0
 12 17  1  0
 13 14  1  0
 14 15  2  0
 15 16  1  0
 15 38  1  0
 16 17  2  0
 16 18  1  0
 18 19  1  6
 18 36  1  0
 19 20  1  0
 20 21  2  0
 20 22  1  0
 22 23  1  0
 22 34  2  0
 23 24  2  0
 24 25  1  0
 24 33  1  0
 25 26  2  3
 26 27  1  0
 26 31  1  0
 27 28  1  0
 28 29  1  0
 28 30  2  0
 30 31  1  0
 31 32  2  0
 33 34  1  0
 34 35  1  0
 36 37  1  0
 37 38  1  0
M  END
