
     RDKit          3D

 38 40  0  0  0  0  0  0  0  0999 V2000
   -3.7840    6.6650   -1.2720 C   0  0  0  0  0  0  0  0  0  0  0  0
   -2.2950    6.7210   -1.3870 C   0  0  0  0  0  0  0  0  0  0  0  0
   -1.7050    5.4460   -1.5610 O   0  0  0  0  0  0  0  0  0  0  0  0
   -1.8360    4.4220   -0.6360 C   0  0  0  0  0  0  0  0  0  0  0  0
   -2.4920    4.5870    0.4050 O   0  0  0  0  0  0  0  0  0  0  0  0
   -1.1760    3.1480   -0.9300 C   0  0  0  0  0  0  0  0  0  0  0  0
   -1.4160    2.1680    0.1660 N   0  0  0  0  0  0  0  0  0  0  0  0
   -0.4740    2.1910    1.1820 C   0  0  0  0  0  0  0  0  0  0  0  0
    0.5640    2.9630    1.1140 O   0  0  0  0  0  0  0  0  0  0  0  0
   -0.5560    1.3690    2.4010 C   0  0  0  0  0  0  0  0  0  0  0  0
    0.6460    1.4410    3.1710 O   0  0  0  0  0  0  0  0  0  0  0  0
    1.8220    0.9780    2.5960 C   0  0  0  0  0  0  0  0  0  0  0  0
    1.9020    0.4390    1.3420 C   0  0  0  0  0  0  0  0  0  0  0  0
    3.1270   -0.0070    0.8200 C   0  0  0  0  0  0  0  0  0  0  0  0
    4.2970    0.0710    1.5240 C   0  0  0  0  0  0  0  0  0  0  0  0
    5.5600   -0.3380    1.0730 N   0  0  0  0  0  0  0  0  0  0  0  0
    5.9290   -0.7760   -0.2070 C   0  0  0  0  0  0  0  0  0  0  0  0
    5.0680   -0.8290   -1.1080 O   0  0  0  0  0  0  0  0  0  0  0  0
    7.3370   -1.1880   -0.5390 C   0  0  1  0  0  0  0  0  0  0  0  0
    7.6030   -2.4600    0.2540 C   0  0  0  0  0  0  0  0  0  0  0  0
    8.3630   -3.3370   -0.7030 C   0  0  0  0  0  0  0  0  0  0  0  0
    8.2340   -2.6060   -2.0130 C   0  0  0  0  0  0  0  0  0  0  0  0
    7.3790   -1.5470   -1.8620 O   0  0  0  0  0  0  0  0  0  0  0  0
    4.1960    0.6200    2.7930 C   0  0  0  0  0  0  0  0  0  0  0  0
    3.0170    1.0610    3.3250 C   0  0  0  0  0  0  0  0  0  0  0  0
   -2.5130    1.3070    0.0240 C   0  0  2  0  0  0  0  0  0  0  0  0
   -3.5240    1.1960    1.1010 C   0  0  0  0  0  0  0  0  0  0  0  0
   -4.3400   -0.0150    0.5740 C   0  0  0  0  0  0  0  0  0  0  0  0
   -3.2220   -1.0020    0.2930 C   0  0  1  0  0  0  0  0  0  0  0  0
   -2.8310   -1.6600    1.5820 C   0  0  0  0  0  0  0  0  0  0  0  0
   -3.6480   -1.9680   -0.6660 O   0  0  0  0  0  0  0  0  0  0  0  0
   -4.7540   -2.7670   -0.3560 C   0  0  0  0  0  0  0  0  0  0  0  0
   -5.3300   -2.6050    0.7450 O   0  0  0  0  0  0  0  0  0  0  0  0
   -5.2570   -3.7760   -1.2660 C   0  0  0  0  0  0  0  0  0  0  0  0
   -4.6940   -3.9930   -2.4390 C   0  0  0  0  0  0  0  0  0  0  0  0
   -5.2630   -5.2090   -3.5890 S   0  0  0  0  0  0  0  0  0  0  0  0
   -6.3090   -6.4570   -2.8030 C   0  0  0  0  0  0  0  0  0  0  0  0
   -2.1440   -0.1470   -0.3100 C   0  0  0  0  0  0  0  0  0  0  0  0
  1  2  1  0
  2  3  1  0
  3  4  1  0
  4  5  2  0
  4  6  1  0
  6  7  1  0
  7  8  1  0
 26  7  1  1
  8  9  2  0
  8 10  1  0
 10 11  1  0
 11 12  1  0
 12 13  2  0
 12 25  1  0
 13 14  1  0
 14 15  2  0
 15 16  1  0
 15 24  1  0
 16 17  1  0
 17 18  2  0
 19 17  1  1
 19 20  1  0
 19 23  1  0
 20 21  1  0
 21 22  1  0
 22 23  1  0
 24 25  2  0
 26 27  1  0
 26 38  1  0
 27 28  1  0
 28 29  1  0
 29 30  1  1
 29 31  1  0
 29 38  1  0
 31 32  1  0
 32 33  2  0
 32 34  1  0
 34 35  2  3
 35 36  1  0
 36 37  1  0
M  END
