
     RDKit          3D

 38 41  0  0  0  0  0  0  0  0999 V2000
   -4.8870    0.1380    0.1350 C   0  0  0  0  0  0  0  0  0  0  0  0
   -4.2370    1.5710    0.0590 C   0  0  1  0  0  0  0  0  0  0  0  0
   -3.2460    1.6850    0.8810 O   0  0  0  0  0  0  0  0  0  0  0  0
   -2.2540    1.8040    1.7120 C   0  0  0  0  0  0  0  0  0  0  0  0
   -1.0170    1.2310    1.3180 C   0  0  0  0  0  0  0  0  0  0  0  0
    0.0960    1.2890    2.1020 C   0  0  0  0  0  0  0  0  0  0  0  0
    1.3800    0.7180    1.7150 C   0  0  0  0  0  0  0  0  0  0  0  0
    1.4440   -0.5470    1.1440 C   0  0  0  0  0  0  0  0  0  0  0  0
    2.6440   -1.1060    0.7670 C   0  0  0  0  0  0  0  0  0  0  0  0
    2.6810   -2.4340    0.1510 C   0  0  0  0  0  0  0  0  0  0  0  0
    3.7050   -3.1720   -0.2840 C   0  0  0  0  0  0  0  0  0  0  0  0
    3.5130   -4.3750   -0.8270 C   0  0  0  0  0  0  0  0  0  0  0  0
    4.6570   -5.2610   -1.3440 C   0  0  0  0  0  0  0  0  0  0  0  0
    5.5040   -4.3600   -2.0900 N   0  0  0  0  0  0  0  0  0  0  0  0
    6.6500   -5.0290   -2.6610 C   0  0  0  0  0  0  0  0  0  0  0  0
    4.7740   -3.5840   -3.0550 C   0  0  0  0  0  0  0  0  0  0  0  0
    2.1720   -4.8000   -0.9060 C   0  0  0  0  0  0  0  0  0  0  0  0
    1.2910   -3.4260   -0.1870 S   0  0  0  0  0  0  0  0  0  0  0  0
    3.7970   -0.4090    0.9540 C   0  0  0  0  0  0  0  0  0  0  0  0
    3.7750    0.8260    1.5060 N   0  0  0  0  0  0  0  0  0  0  0  0
    2.5860    1.3820    1.8810 C   0  0  0  0  0  0  0  0  0  0  0  0
    2.5400    2.6740    2.4550 N   0  0  0  0  0  0  0  0  0  0  0  0
   -0.0310    1.9370    3.3140 C   0  0  0  0  0  0  0  0  0  0  0  0
   -1.2110    2.5010    3.7220 C   0  0  0  0  0  0  0  0  0  0  0  0
   -2.3540    2.4520    2.9390 C   0  0  0  0  0  0  0  0  0  0  0  0
   -3.5920    3.0500    3.4130 C   0  0  0  0  0  0  0  0  0  0  0  0
   -4.8370    3.0250    2.7780 N   0  0  0  0  0  0  0  0  0  0  0  0
   -3.5450    3.6640    4.5290 O   0  0  0  0  0  0  0  0  0  0  0  0
   -3.9170    1.8180   -1.3920 C   0  0  0  0  0  0  0  0  0  0  0  0
   -3.8240    0.7540   -2.2840 C   0  0  0  0  0  0  0  0  0  0  0  0
   -3.5050    0.9160   -3.5990 C   0  0  0  0  0  0  0  0  0  0  0  0
   -3.2630    2.1810   -4.0780 C   0  0  0  0  0  0  0  0  0  0  0  0
   -3.3470    3.2340   -3.2310 C   0  0  0  0  0  0  0  0  0  0  0  0
   -3.6760    3.0790   -1.8680 C   0  0  0  0  0  0  0  0  0  0  0  0
   -3.7750    4.2580   -0.9980 C   0  0  1  0  0  0  0  0  0  0  0  0
   -2.9270    4.3140    0.0520 F   0  0  0  0  0  0  0  0  0  0  0  0
   -3.4970    5.3870   -1.7840 F   0  0  0  0  0  0  0  0  0  0  0  0
   -5.1100    4.4740   -0.5980 F   0  0  0  0  0  0  0  0  0  0  0  0
  2  1  1  6
  2  3  1  0
  2 29  1  0
  3  4  1  0
  4  5  2  0
  4 25  1  0
  5  6  1  0
  6  7  1  0
  6 23  2  0
  7  8  2  0
  7 21  1  0
  8  9  1  0
  9 10  1  0
  9 19  2  0
 10 11  2  0
 10 18  1  0
 11 12  1  0
 12 13  1  0
 12 17  2  0
 13 14  1  0
 14 15  1  0
 14 16  1  0
 17 18  1  0
 19 20  1  0
 20 21  2  0
 21 22  1  0
 23 24  1  0
 24 25  2  0
 25 26  1  0
 26 27  1  0
 26 28  2  0
 29 30  2  0
 29 34  1  0
 30 31  1  0
 31 32  2  0
 32 33  1  0
 33 34  2  0
 34 35  1  0
 35 36  1  1
 35 37  1  0
 35 38  1  0
M  END
