
     RDKit          3D

 30 33  0  0  0  0  0  0  0  0999 V2000
    3.8980   -2.4210    1.3170 C   0  0  0  0  0  0  0  0  0  0  0  0
    4.2080   -1.1650    0.5940 C   0  0  0  0  0  0  0  0  0  0  0  0
    5.5090   -0.7710    0.4700 C   0  0  0  0  0  0  0  0  0  0  0  0
    5.8790    0.3910   -0.1930 C   0  0  0  0  0  0  0  0  0  0  0  0
    7.2270    0.7840   -0.3120 N   0  0  0  0  0  0  0  0  0  0  0  0
    7.9320    1.8890   -0.9110 C   0  0  0  0  0  0  0  0  0  0  0  0
    9.1090    0.9400   -1.1130 C   0  0  0  0  0  0  0  0  0  0  0  0
    8.5070    0.2670    0.1070 C   0  0  0  0  0  0  0  0  0  0  0  0
    4.8470    1.1230   -0.7200 C   0  0  0  0  0  0  0  0  0  0  0  0
    3.4940    0.7370   -0.6050 C   0  0  0  0  0  0  0  0  0  0  0  0
    3.1710   -0.4040    0.0490 C   0  0  0  0  0  0  0  0  0  0  0  0
    1.8650   -0.8790    0.2210 N   0  0  0  0  0  0  0  0  0  0  0  0
    0.6950   -0.2830   -0.2370 C   0  0  0  0  0  0  0  0  0  0  0  0
    0.7490    0.8030   -0.8800 O   0  0  0  0  0  0  0  0  0  0  0  0
   -0.6590   -0.8440   -0.0200 C   0  0  0  0  0  0  0  0  0  0  0  0
   -0.8380   -2.1410    0.3660 C   0  0  0  0  0  0  0  0  0  0  0  0
   -2.0950   -2.6560    0.5730 N   0  0  0  0  0  0  0  0  0  0  0  0
   -3.2060   -1.9190    0.4070 C   0  0  0  0  0  0  0  0  0  0  0  0
   -4.5370   -2.5510    0.6520 C   0  0  0  0  0  0  0  0  0  0  0  0
   -3.0510   -0.6090    0.0180 C   0  0  0  0  0  0  0  0  0  0  0  0
   -4.2340    0.2120   -0.1690 C   0  0  0  0  0  0  0  0  0  0  0  0
   -5.4250   -0.1880    0.0010 N   0  0  0  0  0  0  0  0  0  0  0  0
   -6.5450    0.6150   -0.1830 N   0  0  0  0  0  0  0  0  0  0  0  0
   -7.5030    0.8230    0.8780 C   0  0  0  0  0  0  0  0  0  0  0  0
   -8.3560    2.0100    0.5190 C   0  0  0  0  0  0  0  0  0  0  0  0
   -8.9640    1.9020   -0.7180 O   0  0  0  0  0  0  0  0  0  0  0  0
   -8.0660    1.9030   -1.7720 C   0  0  0  0  0  0  0  0  0  0  0  0
   -6.7770    1.2550   -1.4260 C   0  0  0  0  0  0  0  0  0  0  0  0
   -5.8700    1.2930   -2.2980 O   0  0  0  0  0  0  0  0  0  0  0  0
   -1.7890   -0.0730   -0.1950 C   0  0  0  0  0  0  0  0  0  0  0  0
  1  2  1  0
  2  3  2  0
  2 11  1  0
  3  4  1  0
  4  5  1  0
  4  9  2  0
  5  6  1  0
  5  8  1  0
  6  7  1  0
  7  8  1  0
  9 10  1  0
 10 11  2  0
 11 12  1  0
 12 13  1  0
 13 14  2  0
 13 15  1  0
 15 16  2  0
 15 30  1  0
 16 17  1  0
 17 18  2  0
 18 19  1  0
 18 20  1  0
 20 21  1  0
 20 30  2  0
 21 22  2  3
 22 23  1  0
 23 24  1  0
 23 28  1  0
 24 25  1  0
 25 26  1  0
 26 27  1  0
 27 28  1  0
 28 29  2  0
M  END
