
     RDKit          3D

 31 34  0  0  0  0  0  0  0  0999 V2000
   -6.3710    0.9260    1.0630 C   0  0  0  0  0  0  0  0  0  0  0  0
   -4.8700    1.0710    0.7740 C   0  0  0  0  0  0  0  0  0  0  0  0
   -4.5440    0.5010   -0.5690 C   0  0  2  0  0  0  0  0  0  0  0  0
   -4.9080   -0.9680   -0.6090 C   0  0  0  0  0  0  0  0  0  0  0  0
   -4.4560   -1.6040   -1.8050 N   0  0  0  0  0  0  0  0  0  0  0  0
   -3.9410   -0.7490   -2.8140 C   0  0  0  0  0  0  0  0  0  0  0  0
   -2.9500    0.2910   -2.3280 C   0  0  0  0  0  0  0  0  0  0  0  0
   -3.2260    0.7080   -1.0240 N   0  0  0  0  0  0  0  0  0  0  0  0
   -2.2520    1.2430   -0.1830 C   0  0  0  0  0  0  0  0  0  0  0  0
   -1.1440    0.3690    0.2500 C   0  0  0  0  0  0  0  0  0  0  0  0
   -1.1130   -0.9820   -0.1340 C   0  0  0  0  0  0  0  0  0  0  0  0
   -0.1030   -1.8210    0.2770 C   0  0  0  0  0  0  0  0  0  0  0  0
    0.9440   -1.3800    1.0950 C   0  0  0  0  0  0  0  0  0  0  0  0
    1.9680   -2.3390    1.5000 C   0  0  0  0  0  0  0  0  0  0  0  0
    1.7440   -3.5360    2.1960 C   0  0  0  0  0  0  0  0  0  0  0  0
    2.8740   -4.1850    2.3950 N   0  0  0  0  0  0  0  0  0  0  0  0
    3.8220   -3.4700    1.8640 N   0  0  0  0  0  0  0  0  0  0  0  0
    3.3280   -2.3200    1.2970 C   0  0  0  0  0  0  0  0  0  0  0  0
    4.1320   -1.3130    0.6410 C   0  0  0  0  0  0  0  0  0  0  0  0
    4.3850   -0.1260    1.2560 C   0  0  0  0  0  0  0  0  0  0  0  0
    5.1600    0.8200    0.6180 C   0  0  0  0  0  0  0  0  0  0  0  0
    5.6930    0.6070   -0.6310 C   0  0  0  0  0  0  0  0  0  0  0  0
    6.4780    1.5320   -1.3060 O   0  0  0  0  0  0  0  0  0  0  0  0
    6.8240    2.7790   -0.8120 C   0  0  0  0  0  0  0  0  0  0  0  0
    5.4360   -0.6150   -1.2700 C   0  0  0  0  0  0  0  0  0  0  0  0
    4.6520   -1.5460   -0.6000 C   0  0  0  0  0  0  0  0  0  0  0  0
    0.9050   -0.0670    1.4610 C   0  0  0  0  0  0  0  0  0  0  0  0
   -0.1250    0.8030    1.0460 C   0  0  0  0  0  0  0  0  0  0  0  0
   -0.0760    2.1940    1.4960 C   0  0  0  0  0  0  0  0  0  0  0  0
    1.0310    2.6790    2.2590 N   0  0  0  0  0  0  0  0  0  0  0  0
   -1.0110    2.9650    1.2090 O   0  0  0  0  0  0  0  0  0  0  0  0
  1  2  1  0
  3  2  1  1
  3  4  1  0
  3  8  1  0
  4  5  1  0
  5  6  1  0
  6  7  1  0
  7  8  1  0
  8  9  1  0
  9 10  1  0
 10 11  2  0
 10 28  1  0
 11 12  1  0
 12 13  2  0
 13 14  1  0
 13 27  1  0
 14 15  1  0
 14 18  2  0
 15 16  2  0
 16 17  1  0
 17 18  1  0
 18 19  1  0
 19 20  2  0
 19 26  1  0
 20 21  1  0
 21 22  2  0
 22 23  1  0
 22 25  1  0
 23 24  1  0
 25 26  2  0
 27 28  2  0
 28 29  1  0
 29 30  1  0
 29 31  2  0
M  END
