
     RDKit          3D

 29 32  0  0  0  0  0  0  0  0999 V2000
    8.5730   -0.7440   -1.0570 C   0  0  0  0  0  0  0  0  0  0  0  0
    7.1720   -0.8430   -1.5670 C   0  0  0  0  0  0  0  0  0  0  0  0
    7.0390   -0.9930   -2.8020 O   0  0  0  0  0  0  0  0  0  0  0  0
    6.0650   -0.7620   -0.6220 C   0  0  0  0  0  0  0  0  0  0  0  0
    6.1780   -0.5860    0.7480 C   0  0  0  0  0  0  0  0  0  0  0  0
    4.9510   -0.5560    1.2920 N   0  0  0  0  0  0  0  0  0  0  0  0
    4.0140   -0.7050    0.3390 C   0  0  0  0  0  0  0  0  0  0  0  0
    2.5520   -0.7230    0.5500 C   0  0  0  0  0  0  0  0  0  0  0  0
    1.7430   -0.8660   -0.3950 O   0  0  0  0  0  0  0  0  0  0  0  0
    2.0410   -0.5780    1.8270 O   0  0  0  0  0  0  0  0  0  0  0  0
    0.6850   -0.5750    2.1820 C   0  0  0  0  0  0  0  0  0  0  0  0
    0.0030    0.5260    1.4970 C   0  0  0  0  0  0  0  0  0  0  0  0
    0.1740    1.8260    1.7990 N   0  0  0  0  0  0  0  0  0  0  0  0
   -0.5970    2.5650    0.9930 C   0  0  0  0  0  0  0  0  0  0  0  0
   -1.2510    1.6790    0.1810 C   0  0  0  0  0  0  0  0  0  0  0  0
   -0.8720    0.4250    0.5020 N   0  0  0  0  0  0  0  0  0  0  0  0
   -1.4770   -0.6470   -0.2630 C   0  0  0  0  0  0  0  0  0  0  0  0
   -2.9690   -0.4030   -0.2700 C   0  0  0  0  0  0  0  0  0  0  0  0
   -3.3370    0.8950   -0.7350 N   0  0  0  0  0  0  0  0  0  0  0  0
   -4.3280    1.5500    0.0980 C   0  0  0  0  0  0  0  0  0  0  0  0
   -5.5860    0.7620    0.1720 C   0  0  0  0  0  0  0  0  0  0  0  0
   -6.6120    0.9490   -0.7310 C   0  0  0  0  0  0  0  0  0  0  0  0
   -7.7880    0.2280   -0.6790 C   0  0  0  0  0  0  0  0  0  0  0  0
   -7.9330   -0.7110    0.3140 C   0  0  0  0  0  0  0  0  0  0  0  0
   -6.8900   -0.8870    1.2150 C   0  0  0  0  0  0  0  0  0  0  0  0
   -5.7520   -0.1570    1.1290 N   0  0  0  0  0  0  0  0  0  0  0  0
   -2.2470    1.7960   -0.9310 C   0  0  0  0  0  0  0  0  0  0  0  0
    4.6990   -0.8330   -0.8510 C   0  0  0  0  0  0  0  0  0  0  0  0
    4.0610   -1.0230   -2.1870 C   0  0  0  0  0  0  0  0  0  0  0  0
  1  2  1  0
  2  3  2  0
  2  4  1  0
  4  5  2  0
  4 28  1  0
  5  6  1  0
  6  7  1  0
  7  8  1  0
  7 28  2  0
  8  9  2  0
  8 10  1  0
 10 11  1  0
 11 12  1  0
 12 13  2  0
 12 16  1  0
 13 14  1  0
 14 15  2  0
 15 16  1  0
 15 27  1  0
 16 17  1  0
 17 18  1  0
 18 19  1  0
 19 20  1  0
 19 27  1  0
 20 21  1  0
 21 22  2  0
 21 26  1  0
 22 23  1  0
 23 24  2  0
 24 25  1  0
 25 26  2  0
 28 29  1  0
M  END
