
     RDKit          3D

 30 33  0  0  0  0  0  0  0  0999 V2000
   -3.9590    2.2460    1.3040 C   0  0  0  0  0  0  0  0  0  0  0  0
   -4.5510    1.6160    0.0830 C   0  0  0  0  0  0  0  0  0  0  0  0
   -3.8750    0.2510   -0.1370 C   0  0  1  0  0  0  0  0  0  0  0  0
   -4.1400   -0.5700    1.0680 C   0  0  0  0  0  0  0  0  0  0  0  0
   -4.6590   -0.3580   -1.3090 C   0  0  0  0  0  0  0  0  0  0  0  0
   -2.5160    0.4730   -0.5020 N   0  0  0  0  0  0  0  0  0  0  0  0
   -1.6760   -0.6300   -0.7610 C   0  0  0  0  0  0  0  0  0  0  0  0
   -2.1680   -1.7620   -0.6370 O   0  0  0  0  0  0  0  0  0  0  0  0
   -0.2940   -0.4840   -1.1650 C   0  0  0  0  0  0  0  0  0  0  0  0
   -0.0980    0.1510   -2.4310 C   0  0  0  0  0  0  0  0  0  0  0  0
   -1.2630    0.6560   -3.1520 C   0  0  0  0  0  0  0  0  0  0  0  0
    1.1950    0.2230   -2.8520 C   0  0  0  0  0  0  0  0  0  0  0  0
    2.2250   -0.2570   -2.1500 N   0  0  0  0  0  0  0  0  0  0  0  0
    2.0460   -0.8500   -0.9600 C   0  0  0  0  0  0  0  0  0  0  0  0
    0.7590   -0.9700   -0.4440 C   0  0  0  0  0  0  0  0  0  0  0  0
    0.5340   -1.5690    0.8260 C   0  0  0  0  0  0  0  0  0  0  0  0
    1.6560   -2.0220    1.4830 C   0  0  0  0  0  0  0  0  0  0  0  0
    2.8890   -1.8860    0.9310 C   0  0  0  0  0  0  0  0  0  0  0  0
    3.9050   -2.3080    1.5490 O   0  0  0  0  0  0  0  0  0  0  0  0
    3.0820   -1.3120   -0.2620 N   0  0  0  0  0  0  0  0  0  0  0  0
    4.4020   -1.1700   -0.8410 C   0  0  0  0  0  0  0  0  0  0  0  0
    5.0330    0.1120   -0.4460 C   0  0  0  0  0  0  0  0  0  0  0  0
    4.9420    1.2810   -1.0960 N   0  0  0  0  0  0  0  0  0  0  0  0
    5.6490    2.2040   -0.4260 C   0  0  0  0  0  0  0  0  0  0  0  0
    5.7990    3.6270   -0.8230 C   0  0  0  0  0  0  0  0  0  0  0  0
    6.1650    1.5780    0.6320 N   0  0  0  0  0  0  0  0  0  0  0  0
    5.7870    0.3360    0.6020 O   0  0  0  0  0  0  0  0  0  0  0  0
    1.1850   -2.6250    2.7860 C   0  0  0  0  0  0  0  0  0  0  0  0
   -0.0590   -1.8120    3.0700 C   0  0  0  0  0  0  0  0  0  0  0  0
   -0.6240   -1.7480    1.6400 C   0  0  0  0  0  0  0  0  0  0  0  0
  1  2  1  0
  2  3  1  0
  3  4  1  1
  3  5  1  0
  3  6  1  0
  6  7  1  0
  7  8  2  0
  7  9  1  0
  9 10  2  0
  9 15  1  0
 10 11  1  0
 10 12  1  0
 12 13  2  0
 13 14  1  0
 14 15  2  0
 14 20  1  0
 15 16  1  0
 16 17  2  0
 16 30  1  0
 17 18  1  0
 17 28  1  0
 18 19  2  0
 18 20  1  0
 20 21  1  0
 21 22  1  0
 22 23  2  0
 22 27  1  0
 23 24  1  0
 24 25  1  0
 24 26  2  0
 26 27  1  0
 28 29  1  0
 29 30  1  0
M  END
