
     RDKit          3D

 30 33  0  0  0  0  0  0  0  0999 V2000
   -1.8370    0.0550    1.7410 C   0  0  0  0  0  0  0  0  0  0  0  0
   -2.6880    0.8090    0.8930 N   0  0  0  0  0  0  0  0  0  0  0  0
   -3.3470    1.9580    1.4250 N   0  0  0  0  0  0  0  0  0  0  0  0
   -4.1690    2.6620    0.4940 C   0  0  0  0  0  0  0  0  0  0  0  0
   -5.2790    3.1330    0.8780 O   0  0  0  0  0  0  0  0  0  0  0  0
   -3.6610    2.8000   -0.8920 C   0  0  0  0  0  0  0  0  0  0  0  0
   -3.0820    1.5640   -1.4840 C   0  0  0  0  0  0  0  0  0  0  0  0
   -2.8860    0.4590   -0.4670 C   0  0  0  0  0  0  0  0  0  0  0  0
   -2.9130   -0.7430   -0.8340 N   0  0  0  0  0  0  0  0  0  0  0  0
   -2.7800   -1.9370   -0.1440 C   0  0  0  0  0  0  0  0  0  0  0  0
   -3.5810   -2.1300    0.8300 O   0  0  0  0  0  0  0  0  0  0  0  0
   -1.8050   -2.9750   -0.4480 C   0  0  0  0  0  0  0  0  0  0  0  0
   -1.6680   -4.1530    0.2380 C   0  0  0  0  0  0  0  0  0  0  0  0
   -0.6510   -4.8680   -0.3500 C   0  0  0  0  0  0  0  0  0  0  0  0
   -0.1340   -6.1780    0.0200 C   0  0  0  0  0  0  0  0  0  0  0  0
   -0.6330   -6.7760    0.9800 O   0  0  0  0  0  0  0  0  0  0  0  0
   -0.1930   -4.1030   -1.3850 N   0  0  0  0  0  0  0  0  0  0  0  0
   -0.8870   -2.9690   -1.4400 N   0  0  0  0  0  0  0  0  0  0  0  0
   -0.7020   -1.9060   -2.3890 C   0  0  0  0  0  0  0  0  0  0  0  0
    0.3120   -0.9190   -1.8710 C   0  0  0  0  0  0  0  0  0  0  0  0
    0.8890   -1.0980   -0.7090 C   0  0  0  0  0  0  0  0  0  0  0  0
    1.8780   -0.2180   -0.1070 C   0  0  0  0  0  0  0  0  0  0  0  0
    2.4190   -0.5190    1.1380 C   0  0  0  0  0  0  0  0  0  0  0  0
    3.3530    0.2780    1.7470 C   0  0  0  0  0  0  0  0  0  0  0  0
    3.7930    1.4430    1.1100 C   0  0  0  0  0  0  0  0  0  0  0  0
    3.2770    1.7620   -0.1140 C   0  0  0  0  0  0  0  0  0  0  0  0
    2.3270    0.9330   -0.7120 C   0  0  0  0  0  0  0  0  0  0  0  0
    3.8670    3.0290   -0.6210 C   0  0  0  0  0  0  0  0  0  0  0  0
    4.4680    3.6410    0.6320 C   0  0  0  0  0  0  0  0  0  0  0  0
    4.7760    2.4760    1.5190 C   0  0  0  0  0  0  0  0  0  0  0  0
  1  2  1  0
  2  3  1  0
  2  8  1  0
  3  4  1  0
  4  5  2  0
  4  6  1  0
  6  7  1  0
  7  8  1  0
  8  9  2  3
  9 10  1  0
 10 11  2  0
 10 12  1  0
 12 13  2  0
 12 18  1  0
 13 14  1  0
 14 15  1  0
 14 17  2  0
 15 16  2  0
 17 18  1  0
 18 19  1  0
 19 20  1  0
 20 21  2  3
 21 22  1  0
 22 23  2  0
 22 27  1  0
 23 24  1  0
 24 25  2  0
 25 26  1  0
 25 30  1  0
 26 27  2  0
 26 28  1  0
 28 29  1  0
 29 30  1  0
M  END
