
     RDKit          3D

 30 33  0  0  0  0  0  0  0  0999 V2000
   -7.2780    3.2290    0.1960 C   0  0  0  0  0  0  0  0  0  0  0  0
   -7.7600    1.9480    0.2630 N   0  0  0  0  0  0  0  0  0  0  0  0
   -7.5670    0.7430    0.1900 C   0  0  0  0  0  0  0  0  0  0  0  0
   -8.6870   -0.1700    0.4020 N   0  0  0  0  0  0  0  0  0  0  0  0
   -8.5710   -1.4210    0.3450 C   0  0  0  0  0  0  0  0  0  0  0  0
   -7.3410   -2.1290    0.0680 C   0  0  0  0  0  0  0  0  0  0  0  0
   -6.2620   -1.3640   -0.1390 C   0  0  0  0  0  0  0  0  0  0  0  0
   -6.2790    0.0870   -0.0970 C   0  0  0  0  0  0  0  0  0  0  0  0
   -5.2270    0.8350   -0.2990 C   0  0  0  0  0  0  0  0  0  0  0  0
   -3.9200    0.2600   -0.5880 C   0  0  0  0  0  0  0  0  0  0  0  0
   -2.8540    1.0360   -0.7930 C   0  0  0  0  0  0  0  0  0  0  0  0
   -1.5960    0.4400   -1.0710 N   0  0  0  0  0  0  0  0  0  0  0  0
   -0.4600    0.6270   -0.2590 C   0  0  0  0  0  0  0  0  0  0  0  0
   -0.5640    1.3620    0.7700 O   0  0  0  0  0  0  0  0  0  0  0  0
    0.8560    0.0140   -0.5340 C   0  0  0  0  0  0  0  0  0  0  0  0
    1.9280    0.1420    0.1630 N   0  0  0  0  0  0  0  0  0  0  0  0
    2.9750   -0.5870   -0.4100 N   0  0  0  0  0  0  0  0  0  0  0  0
    4.3270   -0.6860    0.0880 C   0  0  0  0  0  0  0  0  0  0  0  0
    4.7100   -1.7200    0.8850 C   0  0  0  0  0  0  0  0  0  0  0  0
    6.0140   -1.7700    1.3400 C   0  0  0  0  0  0  0  0  0  0  0  0
    6.9410   -0.7840    0.9990 C   0  0  0  0  0  0  0  0  0  0  0  0
    6.5210    0.2350    0.1990 C   0  0  0  0  0  0  0  0  0  0  0  0
    5.2230    0.3080   -0.2690 C   0  0  0  0  0  0  0  0  0  0  0  0
    7.6510    1.1470   -0.0280 C   0  0  0  0  0  0  0  0  0  0  0  0
    7.5900    2.3440   -0.3970 O   0  0  0  0  0  0  0  0  0  0  0  0
    8.8750    0.3380    0.2740 C   0  0  0  0  0  0  0  0  0  0  0  0
    8.3680   -0.5870    1.3350 C   0  0  0  0  0  0  0  0  0  0  0  0
    2.5020   -1.2320   -1.5820 C   0  0  0  0  0  0  0  0  0  0  0  0
    3.1890   -1.9810   -2.3550 O   0  0  0  0  0  0  0  0  0  0  0  0
    1.0730   -0.8590   -1.7140 C   0  0  0  0  0  0  0  0  0  0  0  0
  1  2  1  0
  2  3  2  3
  3  4  1  0
  3  8  1  0
  4  5  2  0
  5  6  1  0
  6  7  2  0
  7  8  1  0
  8  9  2  3
  9 10  1  0
 10 11  2  3
 11 12  1  0
 12 13  1  0
 13 14  2  0
 13 15  1  0
 15 16  2  0
 15 30  1  0
 16 17  1  0
 17 18  1  0
 17 28  1  0
 18 19  2  0
 18 23  1  0
 19 20  1  0
 20 21  2  0
 21 22  1  0
 21 27  1  0
 22 23  2  0
 22 24  1  0
 24 25  2  0
 24 26  1  0
 26 27  1  0
 28 29  2  0
 28 30  1  0
M  END
