
     RDKit          3D

 30 33  0  0  0  0  0  0  0  0999 V2000
   -8.5290    2.8000   -1.6550 C   0  0  0  0  0  0  0  0  0  0  0  0
   -8.0040    1.6130   -1.8740 C   0  0  0  0  0  0  0  0  0  0  0  0
   -8.0150    0.5820   -0.8220 C   0  0  0  0  0  0  0  0  0  0  0  0
   -6.6400    0.2200   -0.5270 N   0  0  0  0  0  0  0  0  0  0  0  0
   -5.7500    1.2150   -0.0540 C   0  0  0  0  0  0  0  0  0  0  0  0
   -6.1090    2.4080    0.1190 O   0  0  0  0  0  0  0  0  0  0  0  0
   -4.3540    0.8870    0.2590 C   0  0  0  0  0  0  0  0  0  0  0  0
   -3.4930    1.7830    0.7350 N   0  0  0  0  0  0  0  0  0  0  0  0
   -2.1950    1.4970    1.0420 C   0  0  0  0  0  0  0  0  0  0  0  0
   -1.7900    0.2050    0.8350 C   0  0  0  0  0  0  0  0  0  0  0  0
   -0.4850   -0.2910    1.1090 N   0  0  0  0  0  0  0  0  0  0  0  0
   -0.3000   -1.5850    1.7800 C   0  0  0  0  0  0  0  0  0  0  0  0
    0.6480   -2.4600    1.0180 C   0  0  0  0  0  0  0  0  0  0  0  0
    1.8970   -1.7690    0.6640 C   0  0  0  0  0  0  0  0  0  0  0  0
    1.9070   -0.3800    0.5400 C   0  0  0  0  0  0  0  0  0  0  0  0
    3.1010    0.2300    0.2060 C   0  0  0  0  0  0  0  0  0  0  0  0
    4.2390   -0.5150    0.0050 C   0  0  0  0  0  0  0  0  0  0  0  0
    5.5210    0.1220   -0.3580 C   0  0  0  0  0  0  0  0  0  0  0  0
    6.7070   -0.5500   -0.5660 C   0  0  0  0  0  0  0  0  0  0  0  0
    7.6890    0.3620   -0.8860 C   0  0  0  0  0  0  0  0  0  0  0  0
    7.0320    1.5980   -0.8580 C   0  0  0  0  0  0  0  0  0  0  0  0
    7.7000    2.9010   -1.1470 C   0  0  0  0  0  0  0  0  0  0  0  0
    5.7770    1.3800   -0.5450 O   0  0  0  0  0  0  0  0  0  0  0  0
    4.1730   -1.8420    0.1370 N   0  0  0  0  0  0  0  0  0  0  0  0
    3.0330   -2.5050    0.4620 C   0  0  0  0  0  0  0  0  0  0  0  0
    2.9870   -3.9730    0.5990 C   0  0  0  0  0  0  0  0  0  0  0  0
    0.7030    0.4060    0.7610 C   0  0  0  0  0  0  0  0  0  0  0  0
    0.6870    1.6570    0.6550 O   0  0  0  0  0  0  0  0  0  0  0  0
   -2.7040   -0.7210    0.3350 C   0  0  0  0  0  0  0  0  0  0  0  0
   -3.9550   -0.3920    0.0530 N   0  0  0  0  0  0  0  0  0  0  0  0
  1  2  2  0
  2  3  1  0
  3  4  1  0
  4  5  1  0
  5  6  2  0
  5  7  1  0
  7  8  2  0
  7 30  1  0
  8  9  1  0
  9 10  2  0
 10 11  1  0
 10 29  1  0
 11 12  1  0
 11 27  1  0
 12 13  1  0
 13 14  1  0
 14 15  2  0
 14 25  1  0
 15 16  1  0
 15 27  1  0
 16 17  2  0
 17 18  1  0
 17 24  1  0
 18 19  2  0
 18 23  1  0
 19 20  1  0
 20 21  2  0
 21 22  1  0
 21 23  1  0
 24 25  2  0
 25 26  1  0
 27 28  2  0
 29 30  2  0
M  END
