
     RDKit          3D

 22 24  0  0  0  0  0  0  0  0999 V2000
   -5.7140    0.0610    1.8800 C   0  0  0  0  0  0  0  0  0  0  0  0
   -4.8410    0.7250    0.8000 C   0  0  2  0  0  0  0  0  0  0  0  0
   -4.9430   -0.0290   -0.5280 C   0  0  0  0  0  0  0  0  0  0  0  0
   -3.5070   -0.3010   -0.8560 C   0  0  0  0  0  0  0  0  0  0  0  0
   -2.9050   -0.8870   -1.9610 C   0  0  0  0  0  0  0  0  0  0  0  0
   -1.5110   -1.1540   -1.9430 C   0  0  0  0  0  0  0  0  0  0  0  0
   -1.0250   -1.7350   -3.1010 O   0  0  0  0  0  0  0  0  0  0  0  0
   -0.7400   -0.8600   -0.8660 C   0  0  0  0  0  0  0  0  0  0  0  0
    0.7270   -1.1120   -0.8310 C   0  0  2  0  0  0  0  0  0  0  0  0
    0.8450   -2.0190    0.4650 C   0  0  0  0  0  0  0  0  0  0  0  0
    2.5480   -2.5160    0.6790 S   0  0  0  0  0  0  0  0  0  0  0  0
    3.6480   -1.0870    0.3810 C   0  0  0  0  0  0  0  0  0  0  0  0
    2.9970   -0.1100   -0.5510 C   0  0  2  0  0  0  0  0  0  0  0  0
    3.1910   -0.5950   -1.8710 O   0  0  0  0  0  0  0  0  0  0  0  0
    3.7470    1.0890   -0.5470 O   0  0  0  0  0  0  0  0  0  0  0  0
    3.7370    1.7410    0.6470 C   0  0  0  0  0  0  0  0  0  0  0  0
    4.5990    3.0110    0.4920 C   0  0  0  0  0  0  0  0  0  0  0  0
    5.9000    2.6010    0.1240 O   0  0  0  0  0  0  0  0  0  0  0  0
    1.5350    0.0960   -0.4090 C   0  0  0  0  0  0  0  0  0  0  0  0
   -1.3650   -0.2760    0.2150 C   0  0  0  0  0  0  0  0  0  0  0  0
   -2.7410    0.0110    0.2340 C   0  0  0  0  0  0  0  0  0  0  0  0
   -3.5010    0.5870    1.1980 O   0  0  0  0  0  0  0  0  0  0  0  0
  2  1  1  1
  2  3  1  0
  2 22  1  0
  3  4  1  0
  4  5  2  0
  4 21  1  0
  5  6  1  0
  6  7  1  0
  6  8  2  0
  9  8  1  1
  8 20  1  0
  9 10  1  0
  9 19  1  0
 10 11  1  0
 11 12  1  0
 12 13  1  0
 13 14  1  6
 13 15  1  0
 13 19  1  0
 15 16  1  0
 16 17  1  0
 17 18  1  0
 20 21  2  0
 21 22  1  0
M  END
