
     RDKit          3D

 22 24  0  0  0  0  0  0  0  0999 V2000
   -5.2490   -0.5070    1.1530 O   0  0  0  0  0  0  0  0  0  0  0  0
   -4.2610    0.4960    1.1450 C   0  0  0  0  0  0  0  0  0  0  0  0
   -3.6000    0.5710   -0.2380 C   0  0  1  0  0  0  0  0  0  0  0  0
   -2.6680    1.5280   -0.2070 O   0  0  0  0  0  0  0  0  0  0  0  0
   -1.3540    1.1960   -0.4060 C   0  0  1  0  0  0  0  0  0  0  0  0
   -0.7210    0.7250    1.2240 S   0  0  0  0  0  0  0  0  0  0  0  0
    1.0020    0.3640    1.2610 C   0  0  0  0  0  0  0  0  0  0  0  0
    1.6020   -0.0870    2.4130 C   0  0  0  0  0  0  0  0  0  0  0  0
    2.9590   -0.3680    2.4790 C   0  0  0  0  0  0  0  0  0  0  0  0
    3.7460   -0.1970    1.3670 C   0  0  0  0  0  0  0  0  0  0  0  0
    5.1050   -0.4690    1.3970 C   0  0  0  0  0  0  0  0  0  0  0  0
    5.8810   -0.2880    0.2610 C   0  0  0  0  0  0  0  0  0  0  0  0
    5.2990    0.1640   -0.9060 C   0  0  0  0  0  0  0  0  0  0  0  0
    3.9550    0.4260   -0.9110 C   0  0  0  0  0  0  0  0  0  0  0  0
    3.1730    0.2520    0.2070 C   0  0  0  0  0  0  0  0  0  0  0  0
    1.7960    0.5320    0.1590 C   0  0  0  0  0  0  0  0  0  0  0  0
   -1.1040    0.1560   -1.4440 C   0  0  2  0  0  0  0  0  0  0  0  0
   -0.5690    0.7230   -2.6180 O   0  0  0  0  0  0  0  0  0  0  0  0
   -2.3340   -0.5930   -1.9080 C   0  0  1  0  0  0  0  0  0  0  0  0
   -1.9310   -1.8090   -2.4540 O   0  0  0  0  0  0  0  0  0  0  0  0
   -3.1810   -0.7990   -0.6720 C   0  0  1  0  0  0  0  0  0  0  0  0
   -2.3740   -1.3700    0.2950 O   0  0  0  0  0  0  0  0  0  0  0  0
  1  2  1  0
  3  2  1  1
  3  4  1  0
  3 21  1  0
  4  5  1  0
  5  6  1  1
  5 17  1  0
  6  7  1  0
  7  8  2  0
  7 16  1  0
  8  9  1  0
  9 10  2  0
 10 11  1  0
 10 15  1  0
 11 12  2  0
 12 13  1  0
 13 14  2  0
 14 15  1  0
 15 16  2  0
 17 18  1  6
 17 19  1  0
 19 20  1  1
 19 21  1  0
 21 22  1  1
M  END
