
     RDKit          3D

 21 23  0  0  0  0  0  0  0  0999 V2000
   -1.5680    3.4420    2.2680 C   0  0  0  0  0  0  0  0  0  0  0  0
   -1.3900    2.1800    1.4870 C   0  0  0  0  0  0  0  0  0  0  0  0
   -2.1600    1.7510    0.4140 C   0  0  0  0  0  0  0  0  0  0  0  0
   -1.6170    0.5500    0.0350 C   0  0  0  0  0  0  0  0  0  0  0  0
   -0.5540    0.2700    0.8560 C   0  0  0  0  0  0  0  0  0  0  0  0
   -0.4800    1.2970    1.7040 O   0  0  0  0  0  0  0  0  0  0  0  0
    0.3040   -0.9440    0.7710 C   0  0  2  0  0  0  0  0  0  0  0  0
    1.6760   -0.4520    0.4840 C   0  0  2  0  0  0  0  0  0  0  0  0
    2.0130    0.3670    1.6070 O   0  0  0  0  0  0  0  0  0  0  0  0
    1.7510    0.5690   -0.6430 C   0  0  0  0  0  0  0  0  0  0  0  0
    3.1020    1.1050   -0.8670 C   0  0  0  0  0  0  0  0  0  0  0  0
    4.0410    1.1110    0.2860 C   0  0  0  0  0  0  0  0  0  0  0  0
    4.3170   -0.6030    0.8900 S   0  0  0  0  0  0  0  0  0  0  0  0
    2.7620   -1.4610    0.3800 C   0  0  0  0  0  0  0  0  0  0  0  0
   -0.3260   -2.0070    0.0290 C   0  0  2  0  0  0  0  0  0  0  0  0
    0.4050   -2.6470   -1.1220 C   0  0  0  0  0  0  0  0  0  0  0  0
   -1.7470   -1.7760   -0.4540 C   0  0  0  0  0  0  0  0  0  0  0  0
   -1.9720   -0.4080   -1.0290 C   0  0  2  0  0  0  0  0  0  0  0  0
   -1.3030   -0.1890   -2.2210 O   0  0  0  0  0  0  0  0  0  0  0  0
   -3.4620   -0.3360   -1.3690 C   0  0  0  0  0  0  0  0  0  0  0  0
   -4.2450   -0.5390   -0.2550 O   0  0  0  0  0  0  0  0  0  0  0  0
  1  2  1  0
  2  3  2  0
  2  6  1  0
  3  4  1  0
  4  5  2  0
  4 18  1  0
  5  6  1  0
  7  5  1  6
  7  8  1  0
  7 15  1  0
  8  9  1  1
  8 10  1  0
  8 14  1  0
 10 11  1  0
 11 12  1  0
 12 13  1  0
 13 14  1  0
 15 16  1  6
 15 17  1  0
 17 18  1  0
 18 19  1  6
 18 20  1  0
 20 21  1  0
M  END
