
     RDKit          3D

 22 24  0  0  0  0  0  0  0  0999 V2000
   -4.0210   -0.0100   -1.9670 C   0  0  0  0  0  0  0  0  0  0  0  0
   -3.6410    0.6550   -0.6640 C   0  0  2  0  0  0  0  0  0  0  0  0
   -4.9240    0.9250    0.0940 C   0  0  0  0  0  0  0  0  0  0  0  0
   -2.9990    1.8510   -0.8740 O   0  0  0  0  0  0  0  0  0  0  0  0
   -2.7750   -0.2290    0.1910 C   0  0  1  0  0  0  0  0  0  0  0  0
   -3.4800   -1.5320    0.5450 C   0  0  0  0  0  0  0  0  0  0  0  0
   -2.2580   -2.4640    1.5400 S   0  0  0  0  0  0  0  0  0  0  0  0
   -0.9050   -1.2900    1.8590 C   0  0  0  0  0  0  0  0  0  0  0  0
   -0.3630   -0.8450    0.5140 C   0  0  2  0  0  0  0  0  0  0  0  0
    0.4470    0.2770    0.6820 O   0  0  0  0  0  0  0  0  0  0  0  0
    1.7990    0.3810    0.4320 C   0  0  0  0  0  0  0  0  0  0  0  0
    2.5710   -0.6600   -0.0410 C   0  0  0  0  0  0  0  0  0  0  0  0
    3.9320   -0.5060   -0.2780 C   0  0  0  0  0  0  0  0  0  0  0  0
    4.4720    0.7330   -0.0190 C   0  0  0  0  0  0  0  0  0  0  0  0
    3.7070    1.7800    0.4540 C   0  0  0  0  0  0  0  0  0  0  0  0
    2.3660    1.6410    0.6920 C   0  0  0  0  0  0  0  0  0  0  0  0
    1.5790    2.6920    1.1710 O   0  0  0  0  0  0  0  0  0  0  0  0
    5.9180    0.6130   -0.3530 C   0  0  0  0  0  0  0  0  0  0  0  0
    6.1600   -0.7570   -0.3400 O   0  0  0  0  0  0  0  0  0  0  0  0
    5.0200   -1.3820   -0.7700 C   0  0  2  0  0  0  0  0  0  0  0  0
    5.0280   -1.3520   -2.1790 O   0  0  0  0  0  0  0  0  0  0  0  0
   -1.4710   -0.5360   -0.4650 C   0  0  0  0  0  0  0  0  0  0  0  0
  2  1  1  6
  2  3  1  0
  2  4  1  0
  2  5  1  0
  5  6  1  6
  5 22  1  0
  6  7  1  0
  7  8  1  0
  8  9  1  0
  9 10  1  1
  9 22  1  0
 10 11  1  0
 11 12  2  0
 11 16  1  0
 12 13  1  0
 13 14  2  0
 13 20  1  0
 14 15  1  0
 14 18  1  0
 15 16  2  0
 16 17  1  0
 18 19  1  0
 19 20  1  0
 20 21  1  6
M  END
