
     RDKit          3D

 22 24  0  0  0  0  0  0  0  0999 V2000
   -3.4020    3.1850    0.7220 C   0  0  0  0  0  0  0  0  0  0  0  0
   -3.0560    1.6990    0.4460 C   0  0  0  0  0  0  0  0  0  0  0  0
   -1.7440    1.6790    0.1480 O   0  0  0  0  0  0  0  0  0  0  0  0
   -1.1320    0.4660   -0.1370 C   0  0  2  0  0  0  0  0  0  0  0  0
    0.2980    0.8200   -0.4290 C   0  0  0  0  0  0  0  0  0  0  0  0
    1.0840    1.5160    0.6290 C   0  0  2  0  0  0  0  0  0  0  0  0
    2.7760    1.8870   -0.0850 S   0  0  0  0  0  0  0  0  0  0  0  0
    3.5850    0.2980   -0.1750 C   0  0  0  0  0  0  0  0  0  0  0  0
    4.5380    0.0730   -1.0390 C   0  0  0  0  0  0  0  0  0  0  0  0
    5.2100   -1.2390   -1.1170 C   0  0  0  0  0  0  0  0  0  0  0  0
    4.7130   -2.1610   -0.1860 O   0  0  0  0  0  0  0  0  0  0  0  0
    3.7130   -1.9050    0.7120 C   0  0  0  0  0  0  0  0  0  0  0  0
    3.1190   -0.7140    0.7650 C   0  0  0  0  0  0  0  0  0  0  0  0
    2.1070   -0.4630    1.6770 O   0  0  0  0  0  0  0  0  0  0  0  0
    1.4260    0.7140    1.8250 C   0  0  0  0  0  0  0  0  0  0  0  0
    1.0740    1.1520    2.9810 O   0  0  0  0  0  0  0  0  0  0  0  0
   -1.6720   -0.0800   -1.4510 C   0  0  0  0  0  0  0  0  0  0  0  0
   -1.7280   -1.5430   -1.5920 C   0  0  0  0  0  0  0  0  0  0  0  0
   -1.7890   -2.3680   -0.3630 C   0  0  0  0  0  0  0  0  0  0  0  0
   -2.3520   -1.5250    0.7470 C   0  0  0  0  0  0  0  0  0  0  0  0
   -1.2640   -0.4620    0.9890 C   0  0  2  0  0  0  0  0  0  0  0  0
   -1.6190    0.1090    2.2100 O   0  0  0  0  0  0  0  0  0  0  0  0
  1  2  1  0
  2  3  1  0
  3  4  1  0
  4  5  1  6
  4 17  1  0
  4 21  1  0
  6  5  1  6
  6  7  1  0
  6 15  1  0
  7  8  1  0
  8  9  2  0
  8 13  1  0
  9 10  1  0
 10 11  1  0
 11 12  1  0
 12 13  2  0
 13 14  1  0
 14 15  1  0
 15 16  2  0
 17 18  1  0
 18 19  1  0
 19 20  1  0
 20 21  1  0
 21 22  1  1
M  END
