
     RDKit          3D

 22 24  0  0  0  0  0  0  0  0999 V2000
    2.8220    2.8550    0.0710 C   0  0  0  0  0  0  0  0  0  0  0  0
    3.2100    1.5910    0.5120 O   0  0  0  0  0  0  0  0  0  0  0  0
    2.9360    0.6210   -0.4480 C   0  0  2  0  0  0  0  0  0  0  0  0
    1.9090   -0.3500    0.0500 C   0  0  0  0  0  0  0  0  0  0  0  0
    0.5720   -0.0790   -0.1500 C   0  0  0  0  0  0  0  0  0  0  0  0
   -0.4460   -0.9100    0.2710 C   0  0  0  0  0  0  0  0  0  0  0  0
   -1.7940   -0.6500    0.0770 O   0  0  0  0  0  0  0  0  0  0  0  0
   -2.2970    0.4780   -0.5660 C   0  0  0  0  0  0  0  0  0  0  0  0
   -3.8110    0.4140   -0.5880 C   0  0  1  0  0  0  0  0  0  0  0  0
   -4.2560   -0.7100   -1.2590 O   0  0  0  0  0  0  0  0  0  0  0  0
   -4.2700    0.3460    0.8460 C   0  0  0  0  0  0  0  0  0  0  0  0
   -5.7810    0.3980    0.8260 C   0  0  0  0  0  0  0  0  0  0  0  0
   -6.0210    1.7620   -0.3800 S   0  0  0  0  0  0  0  0  0  0  0  0
   -4.3670    1.6890   -1.1730 C   0  0  0  0  0  0  0  0  0  0  0  0
   -0.0440   -2.0580    0.9210 C   0  0  0  0  0  0  0  0  0  0  0  0
   -1.0360   -2.9300    1.3660 O   0  0  0  0  0  0  0  0  0  0  0  0
    1.2910   -2.3550    1.1350 C   0  0  0  0  0  0  0  0  0  0  0  0
    2.2800   -1.5040    0.7020 C   0  0  0  0  0  0  0  0  0  0  0  0
    3.7270   -1.7440    0.8890 C   0  0  0  0  0  0  0  0  0  0  0  0
    4.4150   -1.4240   -0.4010 C   0  0  0  0  0  0  0  0  0  0  0  0
    4.1920   -0.0520   -0.9140 C   0  0  2  0  0  0  0  0  0  0  0  0
    5.2630    0.7930   -0.5530 O   0  0  0  0  0  0  0  0  0  0  0  0
  1  2  1  0
  3  2  1  1
  3  4  1  0
  3 21  1  0
  4  5  2  0
  4 18  1  0
  5  6  1  0
  6  7  1  0
  6 15  2  0
  7  8  1  0
  8  9  1  0
  9 10  1  6
  9 11  1  0
  9 14  1  0
 11 12  1  0
 12 13  1  0
 13 14  1  0
 15 16  1  0
 15 17  1  0
 17 18  2  0
 18 19  1  0
 19 20  1  0
 20 21  1  0
 21 22  1  1
M  END
