
     RDKit          3D

 24 25  0  0  0  0  0  0  0  0999 V2000
   -6.1880   -0.3410   -0.1150 C   0  0  0  0  0  0  0  0  0  0  0  0
   -4.8670   -0.4640   -0.6910 N   0  0  1  0  0  0  0  0  0  0  0  0
   -4.2240    0.8420   -0.5540 C   0  0  0  0  0  0  0  0  0  0  0  0
   -2.8990    0.7200   -1.3190 C   0  0  0  0  0  0  0  0  0  0  0  0
   -2.0450   -0.2060   -0.4380 C   0  0  1  0  0  0  0  0  0  0  0  0
   -0.7240   -0.3430   -1.1370 C   0  0  0  0  0  0  0  0  0  0  0  0
   -1.9330    0.5070    1.2090 S   0  0  0  0  0  0  0  0  0  0  0  0
   -0.9890    2.0190    1.2830 C   0  0  0  0  0  0  0  0  0  0  0  0
    0.4920    1.8270    1.1460 C   0  0  0  0  0  0  0  0  0  0  0  0
    1.1710    2.8640    0.9520 O   0  0  0  0  0  0  0  0  0  0  0  0
    1.1150    0.5790    1.2280 N   0  0  0  0  0  0  0  0  0  0  0  0
    2.4960    0.3230    1.1030 C   0  0  0  0  0  0  0  0  0  0  0  0
    3.4800    1.2570    0.9000 C   0  0  0  0  0  0  0  0  0  0  0  0
    4.8400    0.9240    0.7900 C   0  0  0  0  0  0  0  0  0  0  0  0
    5.2520   -0.3680    0.8800 C   0  0  0  0  0  0  0  0  0  0  0  0
    6.6000   -0.7900    0.7790 N   0  0  0  0  0  0  0  0  0  0  0  0
    7.7040   -0.2280   -0.3970 S   0  0  2  0  0  0  0  0  0  0  0  0
    9.0960   -0.3640    0.1030 O   0  0  0  0  0  0  0  0  0  0  0  0
    7.3830    1.1540   -0.8800 O   0  0  0  0  0  0  0  0  0  0  0  0
    4.2720   -1.3180    1.0840 C   0  0  0  0  0  0  0  0  0  0  0  0
    2.9480   -1.0040    1.1930 C   0  0  0  0  0  0  0  0  0  0  0  0
    1.7400   -2.2720    1.4530 Cl  0  0  0  0  0  0  0  0  0  0  0  0
   -2.6900   -1.5680   -0.3490 C   0  0  0  0  0  0  0  0  0  0  0  0
   -4.1480   -1.5000    0.0140 C   0  0  0  0  0  0  0  0  0  0  0  0
  2  1  1  1
  2  3  1  0
  2 24  1  0
  3  4  1  0
  4  5  1  0
  5  6  1  6
  5  7  1  0
  5 23  1  0
  7  8  1  0
  8  9  1  0
  9 10  2  0
  9 11  1  0
 11 12  1  0
 12 13  2  0
 12 21  1  0
 13 14  1  0
 14 15  2  0
 15 16  1  0
 15 20  1  0
 17 16  1  1
 17 18  2  0
 17 19  2  0
 20 21  2  0
 21 22  1  0
 23 24  1  0
M  CHG  1   2   1
M  END
