
     RDKit          3D

 24 25  0  0  0  0  0  0  0  0999 V2000
   -7.2350    1.5330   -0.5130 C   0  0  0  0  0  0  0  0  0  0  0  0
   -5.8790    1.1680   -0.8140 O   0  0  0  0  0  0  0  0  0  0  0  0
   -5.1170    0.6750    0.2140 C   0  0  0  0  0  0  0  0  0  0  0  0
   -5.6310    0.5790    1.3530 O   0  0  0  0  0  0  0  0  0  0  0  0
   -3.6950    0.2400    0.0650 C   0  0  2  0  0  0  0  0  0  0  0  0
   -3.3700   -0.6270    1.2450 C   0  0  0  0  0  0  0  0  0  0  0  0
   -2.8340    1.4950    0.1320 C   0  0  0  0  0  0  0  0  0  0  0  0
   -3.4160   -0.6710   -1.4860 S   0  0  0  0  0  0  0  0  0  0  0  0
   -2.0290   -1.8420   -1.1540 C   0  0  0  0  0  0  0  0  0  0  0  0
   -0.7960   -1.0720   -0.9440 C   0  0  0  0  0  0  0  0  0  0  0  0
    0.4560   -1.7600   -0.5700 C   0  0  2  0  0  0  0  0  0  0  0  0
    1.5280   -0.7340   -0.3840 C   0  0  0  0  0  0  0  0  0  0  0  0
    1.5530    0.5010   -0.2490 N   0  0  0  0  0  0  0  0  0  0  0  0
    2.6070    1.1700   -0.1040 N   0  0  0  0  0  0  0  0  0  0  0  0
    3.7700    0.6850   -0.0700 C   0  0  0  0  0  0  0  0  0  0  0  0
    5.1550    1.0600    0.0840 C   0  0  0  0  0  0  0  0  0  0  0  0
    6.1430    0.1540   -0.0650 C   0  0  0  0  0  0  0  0  0  0  0  0
    5.7830   -1.5180   -0.4470 Cl  0  0  0  0  0  0  0  0  0  0  0  0
    5.4520    2.4550    0.4330 C   0  0  0  0  0  0  0  0  0  0  0  0
    6.9010    2.6610    0.5950 N   0  0  0  0  0  0  0  0  0  0  0  0
    3.2880   -1.1330   -0.2990 S   0  0  0  0  0  0  0  0  0  0  0  0
    0.8320   -2.9810   -1.3460 C   0  0  0  0  0  0  0  0  0  0  0  0
    1.2460   -3.6550   -0.1880 O   0  0  0  0  0  0  0  0  0  0  0  0
    0.4380   -2.7660    0.5510 C   0  0  0  0  0  0  0  0  0  0  0  0
  1  2  1  0
  2  3  1  0
  3  4  2  0
  3  5  1  0
  5  6  1  1
  5  7  1  0
  5  8  1  0
  8  9  1  0
  9 10  1  0
 11 10  1  6
 11 12  1  0
 11 22  1  0
 11 24  1  0
 12 13  2  0
 12 21  1  0
 13 14  1  0
 14 15  2  0
 15 16  1  0
 15 21  1  0
 16 17  2  3
 16 19  1  0
 17 18  1  0
 19 20  1  0
 22 23  1  0
 23 24  1  0
M  CHG  1  20   1
M  END
