
     RDKit          3D

 24 25  0  0  0  0  0  0  0  0999 V2000
   -3.6790   -0.5130   -1.5310 C   0  0  0  0  0  0  0  0  0  0  0  0
   -4.5670   -0.6070   -0.3370 C   0  0  2  0  0  0  0  0  0  0  0  0
   -5.5770    0.5160   -0.4110 C   0  0  0  0  0  0  0  0  0  0  0  0
   -3.8220   -0.4850    0.9270 N   0  0  2  0  0  0  0  0  0  0  0  0
   -3.4830    0.8840    1.1930 C   0  0  0  0  0  0  0  0  0  0  0  0
   -2.1460    0.9740    1.8870 C   0  0  0  0  0  0  0  0  0  0  0  0
   -1.1100    0.4970    0.8680 C   0  0  1  0  0  0  0  0  0  0  0  0
    0.2440    0.6840    1.3750 N   0  0  0  0  0  0  0  0  0  0  0  0
    1.1230    1.8180    0.4510 S   0  0  2  0  0  0  0  0  0  0  0  0
    2.3180    2.2880    1.2000 O   0  0  0  0  0  0  0  0  0  0  0  0
    0.2070    3.0850    0.4290 O   0  0  0  0  0  0  0  0  0  0  0  0
    1.3740    1.4150   -1.2070 C   0  0  0  0  0  0  0  0  0  0  0  0
    2.0710    0.1870   -1.6250 C   0  0  0  0  0  0  0  0  0  0  0  0
    3.4050   -0.0430   -1.2670 N   0  0  0  0  0  0  0  0  0  0  0  0
    3.9990   -0.3010   -0.0210 C   0  0  0  0  0  0  0  0  0  0  0  0
    3.3000   -0.3760    0.9880 O   0  0  0  0  0  0  0  0  0  0  0  0
    5.4650   -0.4820    0.0820 C   0  0  0  0  0  0  0  0  0  0  0  0
    6.4340   -0.4470   -0.8640 C   0  0  0  0  0  0  0  0  0  0  0  0
    7.7090   -0.6440   -0.5130 C   0  0  0  0  0  0  0  0  0  0  0  0
    7.9910   -0.8730    0.7730 C   0  0  0  0  0  0  0  0  0  0  0  0
    9.5450   -1.1820    1.6500 Cl  0  0  0  0  0  0  0  0  0  0  0  0
    6.3520   -0.8080    1.5610 S   0  0  0  0  0  0  0  0  0  0  0  0
   -1.4250   -0.9280    0.5520 C   0  0  0  0  0  0  0  0  0  0  0  0
   -2.7460   -1.4050    1.0170 C   0  0  0  0  0  0  0  0  0  0  0  0
  2  1  1  6
  2  3  1  0
  2  4  1  0
  4  5  1  6
  4 24  1  0
  5  6  1  0
  6  7  1  0
  7  8  1  1
  7 23  1  0
  8  9  1  0
  9 10  2  0
  9 11  2  0
  9 12  1  6
 12 13  1  0
 13 14  1  0
 14 15  1  0
 15 16  2  0
 15 17  1  0
 17 18  2  0
 17 22  1  0
 18 19  1  0
 19 20  2  0
 20 21  1  0
 20 22  1  0
 23 24  1  0
M  CHG  1   4   1
M  END
