
     RDKit          3D

 24 24  0  0  0  0  0  0  0  0999 V2000
    2.5920    2.3620    3.5660 C   0  0  0  0  0  0  0  0  0  0  0  0
    1.8710    1.1400    3.4860 N   0  0  0  0  0  0  0  0  0  0  0  0
    2.0400    0.2380    2.5800 C   0  0  0  0  0  0  0  0  0  0  0  0
    0.9740   -1.1870    2.7590 S   0  0  0  0  0  0  0  0  0  0  0  0
    0.7860   -2.0870    1.2360 C   0  0  0  0  0  0  0  0  0  0  0  0
   -0.0830   -1.3360    0.2320 C   0  0  0  0  0  0  0  0  0  0  0  0
    0.4700   -0.6700   -0.5960 O   0  0  0  0  0  0  0  0  0  0  0  0
   -1.4600   -1.4370    0.2960 N   0  0  0  0  0  0  0  0  0  0  0  0
   -2.6060   -0.9860   -0.3310 C   0  0  0  0  0  0  0  0  0  0  0  0
   -2.7480   -0.1810   -1.3430 C   0  0  0  0  0  0  0  0  0  0  0  0
   -1.4830    0.3450   -1.9270 C   0  0  0  0  0  0  0  0  0  0  0  0
   -3.9080    0.3740   -2.1020 C   0  0  0  0  0  0  0  0  0  0  0  0
   -5.1940   -0.0630   -1.7790 N   0  0  0  0  0  0  0  0  0  0  0  0
   -5.3820   -1.5050   -1.7000 C   0  0  0  0  0  0  0  0  0  0  0  0
   -5.0340   -1.8090   -0.2600 C   0  0  0  0  0  0  0  0  0  0  0  0
   -3.8660   -1.5810    0.2860 C   0  0  0  0  0  0  0  0  0  0  0  0
   -3.6830   -1.9990    1.9810 Cl  0  0  0  0  0  0  0  0  0  0  0  0
    2.9830    0.4050    1.4940 C   0  0  0  0  0  0  0  0  0  0  0  0
    3.1370   -0.5300    0.6390 O   0  0  0  0  0  0  0  0  0  0  0  0
    3.9810    1.8620    1.2420 S   0  0  0  0  0  0  0  0  0  0  0  0
    5.0280    1.7130   -0.2110 C   0  0  1  0  0  0  0  0  0  0  0  0
    6.0850    0.6330   -0.0470 C   0  0  0  0  0  0  0  0  0  0  0  0
    4.2070    1.3470   -1.4010 C   0  0  0  0  0  0  0  0  0  0  0  0
    4.0370    0.1820   -1.7320 O   0  0  0  0  0  0  0  0  0  0  0  0
  1  2  1  0
  2  3  2  3
  3  4  1  0
  3 18  1  0
  4  5  1  0
  5  6  1  0
  6  7  2  0
  6  8  1  0
  8  9  1  0
  9 10  2  0
  9 16  1  0
 10 11  1  0
 10 12  1  0
 12 13  1  0
 13 14  1  0
 14 15  1  0
 15 16  2  0
 16 17  1  0
 18 19  2  0
 18 20  1  0
 20 21  1  0
 21 22  1  1
 21 23  1  0
 23 24  2  0
M  CHG  1  13   1
M  END
