
     RDKit          3D

 24 24  0  0  0  0  0  0  0  0999 V2000
   -4.7780   -0.0890   -1.0030 C   0  0  0  0  0  0  0  0  0  0  0  0
   -5.1320    0.2110    0.4330 C   0  0  2  0  0  0  0  0  0  0  0  0
   -6.0780   -0.8540    0.9440 C   0  0  0  0  0  0  0  0  0  0  0  0
   -5.8940    1.5180    0.4240 C   0  0  0  0  0  0  0  0  0  0  0  0
   -3.6610    0.2490    1.4240 S   0  0  0  0  0  0  0  0  0  0  0  0
   -2.5350    1.6020    1.1080 C   0  0  0  0  0  0  0  0  0  0  0  0
   -1.9810    1.4600   -0.2510 C   0  0  0  0  0  0  0  0  0  0  0  0
   -2.3730    2.2110   -1.2000 O   0  0  0  0  0  0  0  0  0  0  0  0
   -1.0120    0.5010   -0.5390 N   0  0  0  0  0  0  0  0  0  0  0  0
   -0.5110   -0.4070    0.4670 C   0  0  0  0  0  0  0  0  0  0  0  0
    1.0130   -0.2190    0.4760 C   0  0  0  0  0  0  0  0  0  0  0  0
    1.5040   -0.7300   -0.7520 N   0  0  0  0  0  0  0  0  0  0  0  0
    2.8820   -0.4450   -1.0070 C   0  0  0  0  0  0  0  0  0  0  0  0
    3.7570   -1.1970   -0.0630 C   0  0  0  0  0  0  0  0  0  0  0  0
    3.6640   -2.6750   -0.0820 C   0  0  0  0  0  0  0  0  0  0  0  0
    2.8640   -3.2450   -0.8890 O   0  0  0  0  0  0  0  0  0  0  0  0
    4.4320   -3.4470    0.7650 O   0  0  0  0  0  0  0  0  0  0  0  0
    4.6010   -0.6500    0.7870 C   0  0  0  0  0  0  0  0  0  0  0  0
    5.5600   -1.7200    1.8300 Cl  0  0  0  0  0  0  0  0  0  0  0  0
    4.8230    0.7900    0.9740 C   0  0  0  0  0  0  0  0  0  0  0  0
    6.5540    1.2010    0.5990 S   0  0  0  0  0  0  0  0  0  0  0  0
    6.6840    1.6070   -0.9230 N   0  0  0  0  0  0  0  0  0  0  0  0
    0.6350   -0.7010   -1.8720 C   0  0  0  0  0  0  0  0  0  0  0  0
   -0.4280    0.3340   -1.8660 C   0  0  0  0  0  0  0  0  0  0  0  0
  2  1  1  6
  2  3  1  0
  2  4  1  0
  2  5  1  0
  5  6  1  0
  6  7  1  0
  7  8  2  0
  7  9  1  0
  9 10  1  0
  9 24  1  0
 10 11  1  0
 11 12  1  0
 12 13  1  0
 12 23  1  0
 13 14  1  0
 14 15  1  0
 14 18  2  3
 15 16  2  0
 15 17  1  0
 18 19  1  0
 18 20  1  0
 20 21  1  0
 21 22  2  0
 23 24  1  0
M  CHG  1  22   1
M  END
