
     RDKit          3D

 24 25  0  0  0  0  0  0  0  0999 V2000
   -3.9550    1.7070   -2.2700 C   0  0  0  0  0  0  0  0  0  0  0  0
   -4.7900    0.9830   -1.3990 O   0  0  0  0  0  0  0  0  0  0  0  0
   -4.3230    0.1290   -0.4100 C   0  0  0  0  0  0  0  0  0  0  0  0
   -2.9780   -0.1110   -0.1660 C   0  0  0  0  0  0  0  0  0  0  0  0
   -2.5370   -0.9590    0.8190 C   0  0  0  0  0  0  0  0  0  0  0  0
   -1.1290   -1.2280    1.0980 C   0  0  0  0  0  0  0  0  0  0  0  0
   -0.2260   -0.5200    0.2430 N   0  0  0  0  0  0  0  0  0  0  0  0
   -0.2050    0.8700    0.4580 C   0  0  0  0  0  0  0  0  0  0  0  0
   -1.0490    1.4810    1.7080 S   0  0  0  0  0  0  0  0  0  0  0  0
    0.5240    1.7280   -0.3720 N   0  0  0  0  0  0  0  0  0  0  0  0
    1.2880    1.1900   -1.4790 C   0  0  0  0  0  0  0  0  0  0  0  0
    2.6090    0.1570   -0.7740 S   0  0  0  0  0  0  0  0  0  0  0  0
    3.7300    1.2240    0.1410 C   0  0  0  0  0  0  0  0  0  0  0  0
    4.8420    0.4680    0.8260 C   0  0  0  0  0  0  0  0  0  0  0  0
    5.7010   -0.2740    0.0110 N   0  0  0  0  0  0  0  0  0  0  0  0
    6.5820    0.3740   -0.8700 C   0  0  0  0  0  0  0  0  0  0  0  0
    5.5620   -1.6760   -0.0600 C   0  0  0  0  0  0  0  0  0  0  0  0
   -3.5250   -1.5840    1.5840 C   0  0  0  0  0  0  0  0  0  0  0  0
   -2.9850   -2.6790    2.8490 Cl  0  0  0  0  0  0  0  0  0  0  0  0
   -4.8640   -1.3570    1.3550 C   0  0  0  0  0  0  0  0  0  0  0  0
   -5.3020   -0.5060    0.3650 C   0  0  0  0  0  0  0  0  0  0  0  0
   -6.6870   -0.4470    0.3320 O   0  0  0  0  0  0  0  0  0  0  0  0
   -7.1420   -1.2190    1.4250 C   0  0  0  0  0  0  0  0  0  0  0  0
   -6.0080   -1.8590    1.9790 O   0  0  0  0  0  0  0  0  0  0  0  0
  1  2  1  0
  2  3  1  0
  3  4  2  0
  3 21  1  0
  4  5  1  0
  5  6  1  0
  5 18  2  0
  6  7  1  0
  7  8  1  0
  8  9  2  0
  8 10  1  0
 10 11  1  0
 11 12  1  0
 12 13  1  0
 13 14  1  0
 14 15  1  0
 15 16  1  0
 15 17  1  0
 18 19  1  0
 18 20  1  0
 20 21  2  0
 20 24  1  0
 21 22  1  0
 22 23  1  0
 23 24  1  0
M  CHG  1   7   1
M  END
