
     RDKit          3D

 21 23  0  0  0  0  0  0  0  0999 V2000
   -5.0230    0.0060    0.1460 C   0  0  0  0  0  0  0  0  0  0  0  0
   -3.9650   -0.9250    0.1470 O   0  0  0  0  0  0  0  0  0  0  0  0
   -2.6420   -0.5620    0.0920 C   0  0  0  0  0  0  0  0  0  0  0  0
   -2.2480    0.7520    0.0330 C   0  0  0  0  0  0  0  0  0  0  0  0
   -0.9180    1.1090   -0.0210 C   0  0  0  0  0  0  0  0  0  0  0  0
   -0.4850    2.4240   -0.0820 O   0  0  0  0  0  0  0  0  0  0  0  0
   -1.4180    3.5030   -0.0920 C   0  0  0  0  0  0  0  0  0  0  0  0
    0.0770    0.1360   -0.0170 C   0  0  0  0  0  0  0  0  0  0  0  0
    1.4120    0.4720   -0.0710 C   0  0  0  0  0  0  0  0  0  0  0  0
    2.3430   -0.5190   -0.0640 C   0  0  0  0  0  0  0  0  0  0  0  0
    3.7930   -0.2390   -0.1200 C   0  0  0  0  0  0  0  0  0  0  0  0
    4.7610   -1.1380   -0.1170 C   0  0  0  0  0  0  0  0  0  0  0  0
    6.0340   -0.4210   -0.1830 C   0  0  0  0  0  0  0  0  0  0  0  0
    5.6640    0.8400   -0.3380 C   0  0  0  0  0  0  0  0  0  0  0  0
    4.4170    1.0290   -0.1840 N   0  0  0  0  0  0  0  0  0  0  0  0
    1.9350   -1.7950   -0.0060 N   0  0  0  0  0  0  0  0  0  0  0  0
    0.6630   -2.1570    0.0470 C   0  0  0  0  0  0  0  0  0  0  0  0
    0.2940   -3.3740    0.1020 O   0  0  0  0  0  0  0  0  0  0  0  0
   -0.3120   -1.1850    0.0420 C   0  0  0  0  0  0  0  0  0  0  0  0
   -1.6700   -1.5260    0.0970 C   0  0  0  0  0  0  0  0  0  0  0  0
   -1.9630   -2.8740    0.1540 O   0  0  0  0  0  0  0  0  0  0  0  0
  1  2  1  0
  2  3  1  0
  3  4  2  0
  3 20  1  0
  4  5  1  0
  5  6  1  0
  5  8  2  0
  6  7  1  0
  8  9  1  0
  8 19  1  0
  9 10  2  0
 10 11  1  0
 10 16  1  0
 11 12  2  0
 11 15  1  0
 12 13  1  0
 13 14  2  0
 14 15  2  0
 16 17  1  0
 17 18  2  0
 17 19  1  0
 19 20  2  0
 20 21  1  0
M  END
