
     RDKit          3D

 23 24  0  0  0  0  0  0  0  0999 V2000
    6.0780   -2.4710   -1.8980 C   0  0  0  0  0  0  0  0  0  0  0  0
    5.4170   -1.1360   -1.6280 C   0  0  0  0  0  0  0  0  0  0  0  0
    3.7710   -1.4620   -1.0580 S   0  0  2  0  0  0  0  0  0  0  0  0
    3.8490   -2.2510    0.2280 O   0  0  0  0  0  0  0  0  0  0  0  0
    3.0440   -2.2400   -2.0880 O   0  0  0  0  0  0  0  0  0  0  0  0
    2.8900    0.0400   -0.7060 C   0  0  0  0  0  0  0  0  0  0  0  0
    1.4940   -0.4050   -0.2270 C   0  0  0  0  0  0  0  0  0  0  0  0
    0.6810    0.7220    0.0910 N   0  0  0  0  0  0  0  0  0  0  0  0
   -0.4450    0.8140    0.6620 C   0  0  0  0  0  0  0  0  0  0  0  0
   -1.1530   -0.3190    1.1240 N   0  0  0  0  0  0  0  0  0  0  0  0
   -1.2480   -1.5500    0.3950 C   0  0  1  0  0  0  0  0  0  0  0  0
   -2.1820   -2.4460    1.2100 C   0  0  0  0  0  0  0  0  0  0  0  0
   -2.1660   -3.8500    0.5940 C   0  0  0  0  0  0  0  0  0  0  0  0
   -3.0550   -3.6400   -0.9830 S   0  0  0  0  0  0  0  0  0  0  0  0
   -4.4550   -4.2320   -0.8950 O   0  0  0  0  0  0  0  0  0  0  0  0
   -3.1540   -1.8460   -1.2370 C   0  0  0  0  0  0  0  0  0  0  0  0
   -1.7890   -1.2850   -0.9720 C   0  0  0  0  0  0  0  0  0  0  0  0
   -1.0000    2.1420    0.8510 N   0  0  0  0  0  0  0  0  0  0  0  0
   -0.3730    2.9260    1.8750 C   0  0  0  0  0  0  0  0  0  0  0  0
   -1.3690    3.8420    2.5200 C   0  0  0  0  0  0  0  0  0  0  0  0
   -2.0280    4.6540    1.4510 C   0  0  0  0  0  0  0  0  0  0  0  0
   -2.7070    3.8550    0.4030 C   0  0  0  0  0  0  0  0  0  0  0  0
   -2.0920    2.5630    0.0390 C   0  0  0  0  0  0  0  0  0  0  0  0
  1  2  1  0
  3  2  1  6
  3  4  2  0
  3  5  2  0
  3  6  1  0
  6  7  1  0
  7  8  1  0
  8  9  2  3
  9 10  1  0
  9 18  1  0
 11 10  1  1
 11 12  1  0
 11 17  1  0
 12 13  1  0
 14 13  1  1
 14 15  2  0
 14 16  1  0
 16 17  1  0
 18 19  1  0
 18 23  1  0
 19 20  1  0
 20 21  1  0
 21 22  1  0
 22 23  1  0
M  CHG  1   8   1
M  END
