
     RDKit          3D

 22 23  0  0  0  0  0  0  0  0999 V2000
   -4.7760   -1.1170   -0.3390 C   0  0  0  0  0  0  0  0  0  0  0  0
   -3.3180   -1.4440   -0.5080 C   0  0  0  0  0  0  0  0  0  0  0  0
   -2.4250   -0.9890    0.5930 C   0  0  2  0  0  0  0  0  0  0  0  0
   -2.8670   -1.6030    1.8730 C   0  0  0  0  0  0  0  0  0  0  0  0
   -2.0980    0.3800    0.5710 N   0  0  0  0  0  0  0  0  0  0  0  0
   -3.0760    1.3660    0.7370 C   0  0  0  0  0  0  0  0  0  0  0  0
   -2.5740    2.7320    0.3960 C   0  0  0  0  0  0  0  0  0  0  0  0
   -1.3750    2.9710   -0.4370 C   0  0  0  0  0  0  0  0  0  0  0  0
   -3.1710    3.7230    0.8100 O   0  0  0  0  0  0  0  0  0  0  0  0
   -0.9930    0.7090    1.4500 C   0  0  0  0  0  0  0  0  0  0  0  0
    0.2860    0.0590    1.0780 C   0  0  0  0  0  0  0  0  0  0  0  0
    1.2370    0.2160    0.3500 N   0  0  0  0  0  0  0  0  0  0  0  0
    2.2910   -0.5620    0.2140 C   0  0  0  0  0  0  0  0  0  0  0  0
    3.4180   -0.2370   -0.7370 C   0  0  0  0  0  0  0  0  0  0  0  0
    4.4950   -0.9140   -0.9920 C   0  0  0  0  0  0  0  0  0  0  0  0
    5.3440   -0.1930   -2.0220 C   0  0  0  0  0  0  0  0  0  0  0  0
    4.5600    1.0050   -2.2970 C   0  0  0  0  0  0  0  0  0  0  0  0
    3.4840    0.9740   -1.5750 C   0  0  0  0  0  0  0  0  0  0  0  0
    2.4400    2.0550   -1.6030 C   0  0  0  0  0  0  0  0  0  0  0  0
    2.2780   -1.7010    1.0260 C   0  0  0  0  0  0  0  0  0  0  0  0
    3.2430   -2.8190    1.1910 C   0  0  0  0  0  0  0  0  0  0  0  0
    0.7530   -1.5670    1.9220 S   0  0  0  0  0  0  0  0  0  0  0  0
  1  2  1  0
  2  3  1  0
  3  4  1  1
  3  5  1  0
  5  6  1  0
  5 10  1  0
  6  7  1  0
  7  8  1  0
  7  9  2  0
 10 11  1  0
 11 12  2  0
 11 22  1  0
 12 13  1  0
 13 14  1  0
 13 20  2  0
 14 15  2  0
 14 18  1  0
 15 16  1  0
 16 17  1  0
 17 18  2  0
 18 19  1  0
 20 21  1  0
 20 22  1  0
M  END
