
     RDKit          3D

 22 23  0  0  0  0  0  0  0  0999 V2000
   -5.8950   -1.5650    0.6190 C   0  0  0  0  0  0  0  0  0  0  0  0
   -4.8060   -2.2190    0.2340 C   0  0  0  0  0  0  0  0  0  0  0  0
   -4.1630   -1.8630   -1.0360 C   0  0  0  0  0  0  0  0  0  0  0  0
   -2.7630   -1.4120   -0.8780 C   0  0  0  0  0  0  0  0  0  0  0  0
   -2.4410   -0.0810   -0.9590 C   0  0  0  0  0  0  0  0  0  0  0  0
   -1.1660    0.3740   -0.8190 N   0  0  0  0  0  0  0  0  0  0  0  0
   -0.8660    1.7730   -0.9180 C   0  0  0  0  0  0  0  0  0  0  0  0
   -0.9180    2.4860    0.4030 C   0  0  0  0  0  0  0  0  0  0  0  0
   -0.5920    3.9610    0.2400 C   0  0  0  0  0  0  0  0  0  0  0  0
   -0.6430    4.6830    1.5620 C   0  0  0  0  0  0  0  0  0  0  0  0
   -0.1890   -0.5170   -0.5940 C   0  0  0  0  0  0  0  0  0  0  0  0
    1.2550   -0.1270   -0.4150 C   0  0  1  0  0  0  0  0  0  0  0  0
    1.8000   -0.5690    0.8980 C   0  0  0  0  0  0  0  0  0  0  0  0
    2.5990   -1.8170    0.9230 C   0  0  0  0  0  0  0  0  0  0  0  0
    3.2910   -2.1860   -0.3510 C   0  0  0  0  0  0  0  0  0  0  0  0
    3.3770   -1.0690   -1.2650 N   0  0  0  0  0  0  0  0  0  0  0  0
    4.3530    0.2460   -0.6170 S   0  0  0  0  0  0  0  0  0  0  0  0
    5.8480   -0.3840    0.1460 C   0  0  0  0  0  0  0  0  0  0  0  0
    2.0690   -0.5580   -1.6150 C   0  0  0  0  0  0  0  0  0  0  0  0
   -0.4270   -1.8950   -0.4980 C   0  0  0  0  0  0  0  0  0  0  0  0
   -1.7360   -2.2990   -0.6470 C   0  0  0  0  0  0  0  0  0  0  0  0
   -1.9470   -3.5480   -0.5580 O   0  0  0  0  0  0  0  0  0  0  0  0
  1  2  2  0
  2  3  1  0
  3  4  1  0
  4  5  2  0
  4 21  1  0
  5  6  1  0
  6  7  1  0
  6 11  1  0
  7  8  1  0
  8  9  1  0
  9 10  1  0
 12 11  1  6
 11 20  2  0
 12 13  1  0
 12 19  1  0
 13 14  1  0
 14 15  1  0
 15 16  1  0
 16 17  1  0
 16 19  1  0
 17 18  1  0
 20 21  1  0
 21 22  2  0
M  END
