
     RDKit          3D

 22 22  0  0  0  0  0  0  0  0999 V2000
    5.8060    2.3710   -0.5890 C   0  0  0  0  0  0  0  0  0  0  0  0
    6.1700    1.0380   -1.0580 C   0  0  0  0  0  0  0  0  0  0  0  0
    5.2610    0.0570   -1.0380 C   0  0  0  0  0  0  0  0  0  0  0  0
    3.9140    0.3960   -0.5290 C   0  0  0  0  0  0  0  0  0  0  0  0
    2.9600   -0.4860   -0.4620 C   0  0  0  0  0  0  0  0  0  0  0  0
    1.6200   -0.0590    0.0660 C   0  0  0  0  0  0  0  0  0  0  0  0
    1.2890   -0.8070    1.2390 N   0  0  0  0  0  0  0  0  0  0  0  0
    1.7750   -0.2050    2.5140 C   0  0  0  0  0  0  0  0  0  0  0  0
    0.5910   -1.9950    1.2710 C   0  0  0  0  0  0  0  0  0  0  0  0
    0.4540   -2.5460    2.4430 O   0  0  0  0  0  0  0  0  0  0  0  0
   -0.0120   -2.7210    0.1770 C   0  0  0  0  0  0  0  0  0  0  0  0
   -0.8400   -1.6510   -0.9950 S   0  0  0  0  0  0  0  0  0  0  0  0
   -2.2820   -0.9310   -0.2660 C   0  0  0  0  0  0  0  0  0  0  0  0
   -2.6030   -1.2470    0.9670 C   0  0  0  0  0  0  0  0  0  0  0  0
   -3.7790   -0.6780    1.6020 C   0  0  0  0  0  0  0  0  0  0  0  0
   -4.5860    0.1900    0.9620 C   0  0  0  0  0  0  0  0  0  0  0  0
   -5.7610    0.7150    1.6980 C   0  0  0  0  0  0  0  0  0  0  0  0
   -4.2810    0.5680   -0.3930 C   0  0  0  0  0  0  0  0  0  0  0  0
   -5.0530    1.3880   -1.0150 N   0  0  0  0  0  0  0  0  0  0  0  0
   -3.0870   -0.0080   -1.0400 C   0  0  0  0  0  0  0  0  0  0  0  0
   -2.8520    0.3640   -2.2800 C   0  0  0  0  0  0  0  0  0  0  0  0
   -1.7080   -0.1280   -3.0530 C   0  0  0  0  0  0  0  0  0  0  0  0
  1  2  1  0
  2  3  2  3
  3  4  1  0
  4  5  2  3
  5  6  1  0
  6  7  1  0
  7  8  1  0
  7  9  1  0
  9 10  2  0
  9 11  1  0
 11 12  1  0
 12 13  1  0
 13 14  2  0
 13 20  1  0
 14 15  1  0
 15 16  2  0
 16 17  1  0
 16 18  1  0
 18 19  2  0
 18 20  1  0
 20 21  2  3
 21 22  1  0
M  END
