
     RDKit          3D

 22 23  0  0  0  0  0  0  0  0999 V2000
   -1.0660   -1.5200   -2.4750 C   0  0  0  0  0  0  0  0  0  0  0  0
   -1.6460   -0.5070   -2.7310 C   0  0  0  0  0  0  0  0  0  0  0  0
   -2.4370    0.5280   -1.9710 C   0  0  0  0  0  0  0  0  0  0  0  0
   -2.9810    1.4520   -2.6800 C   0  0  0  0  0  0  0  0  0  0  0  0
   -3.7910    2.5480   -2.1160 C   0  0  0  0  0  0  0  0  0  0  0  0
   -2.6390    0.2740   -0.5140 C   0  0  0  0  0  0  0  0  0  0  0  0
   -3.7800    0.4310    0.1130 C   0  0  0  0  0  0  0  0  0  0  0  0
   -3.8100    0.3150    1.5070 C   0  0  0  0  0  0  0  0  0  0  0  0
   -5.0000    0.4440    2.4190 C   0  0  0  0  0  0  0  0  0  0  0  0
   -2.1520   -0.0300    1.8840 S   0  0  0  0  0  0  0  0  0  0  0  0
   -1.4860   -0.0090    0.2640 C   0  0  0  0  0  0  0  0  0  0  0  0
   -0.2200   -0.2080   -0.1820 N   0  0  0  0  0  0  0  0  0  0  0  0
    0.9610   -0.2750   -0.0880 C   0  0  0  0  0  0  0  0  0  0  0  0
    1.9440   -0.1090    0.9510 C   0  0  0  0  0  0  0  0  0  0  0  0
    1.6130    0.2410    2.2290 C   0  0  0  0  0  0  0  0  0  0  0  0
    2.6020    0.3720    3.2180 C   0  0  0  0  0  0  0  0  0  0  0  0
    3.9230    0.1470    2.9030 C   0  0  0  0  0  0  0  0  0  0  0  0
    4.2280   -0.1950    1.6480 N   0  0  0  0  0  0  0  0  0  0  0  0
    3.2810   -0.3240    0.6800 C   0  0  0  0  0  0  0  0  0  0  0  0
    3.6500   -0.6750   -0.6060 O   0  0  0  0  0  0  0  0  0  0  0  0
    5.0470   -0.9170   -0.8440 C   0  0  0  0  0  0  0  0  0  0  0  0
    5.4750   -2.0880    0.0760 C   0  0  0  0  0  0  0  0  0  0  0  0
  1  2  2  0
  2  3  1  0
  3  4  2  3
  3  6  1  0
  4  5  1  0
  6  7  1  0
  6 11  2  0
  7  8  2  0
  8  9  1  0
  8 10  1  0
 10 11  1  0
 11 12  1  0
 12 13  2  3
 13 14  1  0
 14 15  2  0
 14 19  1  0
 15 16  1  0
 16 17  2  0
 17 18  1  0
 18 19  2  0
 19 20  1  0
 20 21  1  0
 21 22  1  0
M  END
