
     RDKit          3D

 12 12  0  0  0  0  0  0  0  0999 V2000
    3.7270   -0.7520    0.0080 O   0  0  0  0  0  0  0  0  0  0  0  0
    2.8320    0.7070    0.1720 S   0  0  0  0  0  0  0  0  0  0  0  0
    1.6000    0.8750   -1.1460 C   0  0  0  0  0  0  0  0  0  0  0  0
    0.5540   -0.1730   -1.0190 C   0  0  0  0  0  0  0  0  0  0  0  0
   -0.1630   -0.1010    0.2810 C   0  0  1  0  0  0  0  0  0  0  0  0
    0.7430   -0.2750    1.3060 O   0  0  0  0  0  0  0  0  0  0  0  0
   -0.9670    1.1250    0.5230 C   0  0  1  0  0  0  0  0  0  0  0  0
   -1.6430    1.6330   -0.5420 O   0  0  0  0  0  0  0  0  0  0  0  0
   -1.8400    0.7980    1.5460 O   0  0  0  0  0  0  0  0  0  0  0  0
   -1.9530   -0.5690    1.6130 C   0  0  0  0  0  0  0  0  0  0  0  0
   -1.2450   -1.1530    0.4040 C   0  0  1  0  0  0  0  0  0  0  0  0
   -2.1120   -1.1030   -0.6900 O   0  0  0  0  0  0  0  0  0  0  0  0
  1  2  1  0
  2  3  1  0
  3  4  1  0
  4  5  1  0
  5  6  1  1
  5  7  1  0
  5 11  1  0
  7  8  1  6
  7  9  1  0
  9 10  1  0
 10 11  1  0
 11 12  1  6
M  END
