
     RDKit          3D

 22 23  0  0  0  0  0  0  0  0999 V2000
   -2.5350    2.1200    2.2600 C   0  0  0  0  0  0  0  0  0  0  0  0
   -3.2180    1.9190    1.1910 C   0  0  0  0  0  0  0  0  0  0  0  0
   -4.2230    3.0770    0.9010 C   0  0  0  0  0  0  0  0  0  0  0  0
   -3.2770    0.8740    0.2310 C   0  0  0  0  0  0  0  0  0  0  0  0
   -4.1770    1.0940   -0.7930 C   0  0  0  0  0  0  0  0  0  0  0  0
   -4.4860    0.2370   -1.9280 C   0  0  0  0  0  0  0  0  0  0  0  0
   -3.8130   -0.7400   -2.4830 C   0  0  0  0  0  0  0  0  0  0  0  0
   -2.4710   -1.2890   -2.0980 C   0  0  0  0  0  0  0  0  0  0  0  0
   -2.3730   -1.3390   -0.6290 C   0  0  0  0  0  0  0  0  0  0  0  0
   -2.1560   -2.4620   -0.1260 O   0  0  0  0  0  0  0  0  0  0  0  0
   -2.4880   -0.2780    0.3730 N   0  0  0  0  0  0  0  0  0  0  0  0
   -1.7680   -0.5340    1.5530 C   0  0  0  0  0  0  0  0  0  0  0  0
   -0.3070   -0.1710    1.5440 C   0  0  0  0  0  0  0  0  0  0  0  0
    0.4540   -0.9630    0.4940 C   0  0  0  0  0  0  0  0  0  0  0  0
    1.9090   -0.5210    0.5560 C   0  0  0  0  0  0  0  0  0  0  0  0
    2.3730    0.4540    1.4580 C   0  0  0  0  0  0  0  0  0  0  0  0
    4.1520    0.5110    1.0230 S   0  0  0  0  0  0  0  0  0  0  0  0
    3.9590   -0.7980   -0.3090 C   0  0  0  0  0  0  0  0  0  0  0  0
    5.1660   -1.2160   -1.0860 C   0  0  2  0  0  0  0  0  0  0  0  0
    6.1850   -1.7440   -0.0680 C   0  0  0  0  0  0  0  0  0  0  0  0
    5.8110   -0.0580   -1.8000 C   0  0  0  0  0  0  0  0  0  0  0  0
    2.8350   -1.0140   -0.2230 N   0  0  0  0  0  0  0  0  0  0  0  0
  1  2  2  0
  2  3  1  0
  2  4  1  0
  4  5  2  0
  4 11  1  0
  5  6  1  0
  6  7  2  0
  7  8  1  0
  8  9  1  0
  9 10  2  0
  9 11  1  0
 11 12  1  0
 12 13  1  0
 13 14  1  0
 14 15  1  0
 15 16  2  0
 15 22  1  0
 16 17  1  0
 17 18  1  0
 18 19  1  0
 18 22  2  0
 19 20  1  1
 19 21  1  0
M  END
