
     RDKit          3D

 38 40  0  0  0  0  0  0  0  0999 V2000
   -4.3870   -3.3120   -1.5360 O   0  0  0  0  0  0  0  0  0  0  0  0
   -4.3680   -2.1270   -1.0460 C   0  0  0  0  0  0  0  0  0  0  0  0
   -5.2470   -1.1490   -1.7300 C   0  0  0  0  0  0  0  0  0  0  0  0
   -5.1860    0.1140   -1.2150 O   0  0  0  0  0  0  0  0  0  0  0  0
   -6.4660    0.6430   -0.9310 C   0  0  0  0  0  0  0  0  0  0  0  0
   -6.3470    2.1250   -0.9860 C   0  0  0  0  0  0  0  0  0  0  0  0
   -5.8210    2.7460    0.2550 C   0  0  0  0  0  0  0  0  0  0  0  0
   -6.1190    3.9820    0.3580 O   0  0  0  0  0  0  0  0  0  0  0  0
   -5.1180    2.0620    1.1480 O   0  0  0  0  0  0  0  0  0  0  0  0
   -5.2670    1.3040    2.2610 C   0  0  1  0  0  0  0  0  0  0  0  0
   -4.8670   -0.1540    2.1680 C   0  0  0  0  0  0  0  0  0  0  0  0
   -3.5230    0.3520    2.1580 N   0  0  0  0  0  0  0  0  0  0  0  0
   -3.9180    1.3580    2.9960 C   0  0  0  0  0  0  0  0  0  0  0  0
   -3.6480    2.1390    3.9400 O   0  0  0  0  0  0  0  0  0  0  0  0
   -2.4080   -0.1300    1.4930 C   0  0  2  0  0  0  0  0  0  0  0  0
   -1.2610    0.8550    1.3430 C   0  0  0  0  0  0  0  0  0  0  0  0
   -0.0900    0.2810    0.6420 C   0  0  0  0  0  0  0  0  0  0  0  0
    0.9440   -0.3790    1.2310 N   0  0  0  0  0  0  0  0  0  0  0  0
    1.7790   -0.7270    0.3100 O   0  0  0  0  0  0  0  0  0  0  0  0
    1.3650   -0.3390   -0.8690 C   0  0  0  0  0  0  0  0  0  0  0  0
    2.0630   -0.5580   -2.1900 C   0  0  0  0  0  0  0  0  0  0  0  0
    3.4200   -0.2450   -2.1430 O   0  0  0  0  0  0  0  0  0  0  0  0
    4.3740   -0.8170   -1.3380 C   0  0  0  0  0  0  0  0  0  0  0  0
    4.0070   -1.7250   -0.5530 O   0  0  0  0  0  0  0  0  0  0  0  0
    5.8150   -0.4420   -1.3250 C   0  0  2  0  0  0  0  0  0  0  0  0
    6.3240   -0.7410   -2.7420 C   0  0  0  0  0  0  0  0  0  0  0  0
    6.1630   -2.1210   -3.0050 O   0  0  0  0  0  0  0  0  0  0  0  0
    6.5300   -1.1780   -0.3720 O   0  0  0  0  0  0  0  0  0  0  0  0
    7.2760   -0.5420    0.6070 C   0  0  0  0  0  0  0  0  0  0  0  0
    7.3520    0.7240    0.6850 O   0  0  0  0  0  0  0  0  0  0  0  0
    7.9910   -1.3140    1.5720 N   0  0  0  0  0  0  0  0  0  0  0  0
    8.7140   -0.6480    2.5220 O   0  0  0  0  0  0  0  0  0  0  0  0
    9.4280    0.2550    1.8960 O   0  0  0  0  0  0  0  0  0  0  0  0
    9.2880    1.4550    2.4550 O   0  0  0  0  0  0  0  0  0  0  0  0
    9.8590    2.3840    1.7510 O   0  0  0  0  0  0  0  0  0  0  0  0
    0.1940    0.2920   -0.6620 N   0  0  0  0  0  0  0  0  0  0  0  0
   -2.6530   -0.6710    0.1010 C   0  0  0  0  0  0  0  0  0  0  0  0
   -3.5590   -1.7970    0.0660 N   0  0  0  0  0  0  0  0  0  0  0  0
  1  2  2  0
  2  3  1  0
  2 38  1  0
  3  4  1  0
  4  5  1  0
  5  6  1  0
  6  7  1  0
  7  8  2  0
  7  9  1  0
 10  9  1  6
 10 11  1  0
 10 13  1  0
 11 12  1  0
 12 13  1  0
 12 15  1  0
 13 14  2  0
 15 16  1  6
 15 37  1  0
 16 17  1  0
 17 18  2  0
 17 36  1  0
 18 19  1  0
 19 20  1  0
 20 21  1  0
 20 36  2  0
 21 22  1  0
 22 23  1  0
 23 24  2  0
 23 25  1  0
 25 26  1  6
 25 28  1  0
 26 27  1  0
 28 29  1  0
 29 30  2  0
 29 31  1  0
 31 32  1  0
 32 33  1  0
 33 34  1  0
 34 35  1  0
 37 38  1  0
M  END
