
     RDKit          3D

 39 41  0  0  0  0  0  0  0  0999 V2000
   -1.9680   -5.9940   -0.5900 C   0  0  0  0  0  0  0  0  0  0  0  0
   -2.5120   -4.8000   -0.7000 C   0  0  0  0  0  0  0  0  0  0  0  0
   -1.8140   -3.6480   -0.1970 C   0  0  0  0  0  0  0  0  0  0  0  0
   -1.3240   -2.5750    0.1990 C   0  0  0  0  0  0  0  0  0  0  0  0
    0.1330   -2.8420    0.8590 C   0  0  0  0  0  0  0  0  0  0  0  0
    1.2300   -3.1740    0.0030 C   0  0  2  0  0  0  0  0  0  0  0  0
    2.0020   -4.4100    0.4030 C   0  0  0  0  0  0  0  0  0  0  0  0
    2.9410   -4.2490    1.4210 O   0  0  0  0  0  0  0  0  0  0  0  0
    2.6330   -3.2030    2.2310 C   0  0  0  0  0  0  0  0  0  0  0  0
    2.7030   -1.9420    1.4260 C   0  0  0  0  0  0  0  0  0  0  0  0
    2.2980   -2.0580    0.0710 N   0  0  0  0  0  0  0  0  0  0  0  0
    3.3630   -2.4500   -0.7720 C   0  0  0  0  0  0  0  0  0  0  0  0
    4.1680   -1.5710   -1.6290 C   0  0  2  0  0  0  0  0  0  0  0  0
    5.5550   -1.8390   -1.4660 O   0  0  0  0  0  0  0  0  0  0  0  0
    3.8970    0.2280   -1.4630 P   0  0  0  0  0  0  0  0  0  0  0  0
    3.2600    0.6050    0.1210 O   0  0  0  0  0  0  0  0  0  0  0  0
    3.1760    1.9580    0.3580 C   0  0  0  0  0  0  0  0  0  0  0  0
    2.5380    2.1800    1.6980 C   0  0  0  0  0  0  0  0  0  0  0  0
    2.5930    0.6950   -2.6670 O   0  0  0  0  0  0  0  0  0  0  0  0
    1.2580    1.0100   -2.1840 C   0  0  0  0  0  0  0  0  0  0  0  0
    0.8570    2.3040   -2.5700 C   0  0  0  0  0  0  0  0  0  0  0  0
   -0.4010    2.7530   -2.1300 C   0  0  0  0  0  0  0  0  0  0  0  0
   -0.8310    4.1220   -2.3990 C   0  0  0  0  0  0  0  0  0  0  0  0
   -0.9920    4.9160   -1.4000 O   0  0  0  0  0  0  0  0  0  0  0  0
   -1.0980    4.6990   -3.6660 N   0  0  0  0  0  0  0  0  0  0  0  0
   -1.5110    6.1190   -3.7260 C   0  0  0  0  0  0  0  0  0  0  0  0
   -1.1320    1.8790   -1.3630 C   0  0  0  0  0  0  0  0  0  0  0  0
   -0.7120    0.5950   -0.9800 C   0  0  0  0  0  0  0  0  0  0  0  0
    0.4980    0.1670   -1.4190 C   0  0  0  0  0  0  0  0  0  0  0  0
   -1.6840   -0.0200   -0.0130 C   0  0  0  0  0  0  0  0  0  0  0  0
   -2.3840    0.9050    0.9900 C   0  0  0  0  0  0  0  0  0  0  0  0
   -2.1520    2.1540    1.1580 C   0  0  0  0  0  0  0  0  0  0  0  0
   -2.8650    2.9400    2.1930 C   0  0  0  0  0  0  0  0  0  0  0  0
   -2.6040    4.2290    2.2810 C   0  0  0  0  0  0  0  0  0  0  0  0
   -3.6720    2.4390    3.3460 C   0  0  0  0  0  0  0  0  0  0  0  0
   -3.4370    0.3790    1.7830 O   0  0  0  0  0  0  0  0  0  0  0  0
   -4.7740    0.6840    1.2200 C   0  0  0  0  0  0  0  0  0  0  0  0
   -1.8720   -1.2370    0.3640 C   0  0  0  0  0  0  0  0  0  0  0  0
   -3.0760   -1.4830    1.2860 O   0  0  0  0  0  0  0  0  0  0  0  0
  1  2  2  0
  2  3  1  0
  3  4  2  3
  4  5  1  0
  4 38  1  0
  6  5  1  1
  6  7  1  0
  6 11  1  0
  7  8  1  0
  8  9  1  0
  9 10  1  0
 10 11  1  0
 11 12  1  0
 12 13  1  0
 13 14  1  1
 13 15  1  0
 15 16  1  0
 15 19  1  0
 16 17  1  0
 17 18  1  0
 19 20  1  0
 20 21  2  0
 20 29  1  0
 21 22  1  0
 22 23  1  0
 22 27  2  0
 23 24  2  0
 23 25  1  0
 25 26  1  0
 27 28  1  0
 28 29  2  0
 28 30  1  0
 30 31  1  0
 30 38  2  0
 31 32  2  3
 31 36  1  0
 32 33  1  0
 33 34  2  0
 33 35  1  0
 36 37  1  0
 38 39  1  0
M  END
