
     RDKit          3D

 39 42  0  0  0  0  0  0  0  0999 V2000
    6.2600    1.8050   -2.9570 C   0  0  0  0  0  0  0  0  0  0  0  0
    5.3350    0.9770   -2.0580 C   0  0  0  0  0  0  0  0  0  0  0  0
    5.7080    1.2190   -0.7420 O   0  0  0  0  0  0  0  0  0  0  0  0
    4.7510    0.3590    0.3970 P   0  0  0  0  0  0  0  0  0  0  0  0
    5.3990    0.6050    1.9740 O   0  0  0  0  0  0  0  0  0  0  0  0
    4.4860    1.2920    2.7750 C   0  0  0  0  0  0  0  0  0  0  0  0
    5.0850    1.5000    4.1650 C   0  0  0  0  0  0  0  0  0  0  0  0
    4.4890   -1.4110   -0.0170 C   0  0  1  0  0  0  0  0  0  0  0  0
    4.3520   -2.2200    1.0840 O   0  0  0  0  0  0  0  0  0  0  0  0
    3.2000   -1.5510   -0.8760 C   0  0  0  0  0  0  0  0  0  0  0  0
    2.1120   -1.1440   -0.0860 N   0  0  0  0  0  0  0  0  0  0  0  0
    0.8400   -1.0170   -0.7030 C   0  0  2  0  0  0  0  0  0  0  0  0
   -0.0210   -0.2510    0.2580 C   0  0  0  0  0  0  0  0  0  0  0  0
    0.3540   -0.6410    1.5690 C   0  0  0  0  0  0  0  0  0  0  0  0
   -0.2070   -0.1470    2.7110 C   0  0  0  0  0  0  0  0  0  0  0  0
   -1.1920    0.7830    2.5210 C   0  0  0  0  0  0  0  0  0  0  0  0
   -1.6110    1.2110    1.2310 C   0  0  0  0  0  0  0  0  0  0  0  0
   -1.0160    0.6850    0.0950 C   0  0  0  0  0  0  0  0  0  0  0  0
   -2.6500    2.1940    1.4120 N   0  0  0  0  0  0  0  0  0  0  0  0
   -2.3910    3.2450    2.4640 C   0  0  0  0  0  0  0  0  0  0  0  0
   -3.9130    2.3410    0.7790 C   0  0  0  0  0  0  0  0  0  0  0  0
   -4.1800    3.4610    0.2270 O   0  0  0  0  0  0  0  0  0  0  0  0
   -4.9980    1.3300    0.6730 C   0  0  1  0  0  0  0  0  0  0  0  0
   -4.7780    0.0950    1.4670 C   0  0  0  0  0  0  0  0  0  0  0  0
   -6.2230    2.0380    1.2940 C   0  0  0  0  0  0  0  0  0  0  0  0
   -5.3270    1.0100   -0.7470 C   0  0  0  0  0  0  0  0  0  0  0  0
   -5.5220   -0.4490   -0.8980 C   0  0  0  0  0  0  0  0  0  0  0  0
   -6.4030   -1.0460   -0.1850 O   0  0  0  0  0  0  0  0  0  0  0  0
   -4.7880   -1.1590   -1.7760 O   0  0  0  0  0  0  0  0  0  0  0  0
   -3.4480   -1.3460   -2.0920 C   0  0  0  0  0  0  0  0  0  0  0  0
   -3.2120   -1.0590   -3.4610 C   0  0  0  0  0  0  0  0  0  0  0  0
   -1.9740   -1.1600   -4.0380 C   0  0  0  0  0  0  0  0  0  0  0  0
   -0.9760   -1.5620   -3.1930 C   0  0  0  0  0  0  0  0  0  0  0  0
   -1.1760   -1.8580   -1.8240 C   0  0  0  0  0  0  0  0  0  0  0  0
   -2.4120   -1.7540   -1.2610 C   0  0  0  0  0  0  0  0  0  0  0  0
    0.1730   -2.2480   -1.2310 C   0  0  2  0  0  0  0  0  0  0  0  0
    0.3740   -3.4400   -0.4300 C   0  0  0  0  0  0  0  0  0  0  0  0
    1.1120   -4.1210   -1.3980 O   0  0  0  0  0  0  0  0  0  0  0  0
    0.8800   -3.0870   -2.2650 C   0  0  0  0  0  0  0  0  0  0  0  0
  1  2  1  0
  2  3  1  0
  3  4  1  0
  4  5  1  0
  4  8  1  0
  5  6  1  0
  6  7  1  0
  8  9  1  1
  8 10  1  0
 10 11  1  0
 12 11  1  1
 12 13  1  0
 12 36  1  0
 13 14  1  0
 13 18  2  0
 14 15  2  0
 15 16  1  0
 16 17  2  0
 17 18  1  0
 17 19  1  0
 19 20  1  0
 19 21  1  0
 21 22  2  0
 21 23  1  0
 23 24  1  1
 23 25  1  0
 23 26  1  0
 26 27  1  0
 27 28  2  0
 27 29  1  0
 29 30  1  0
 30 31  1  0
 30 35  2  0
 31 32  2  0
 32 33  1  0
 33 34  2  0
 34 35  1  0
 34 36  1  0
 36 37  1  1
 36 39  1  0
 37 38  1  0
 38 39  1  0
M  END
