
     RDKit          3D

 39 43  0  0  0  0  0  0  0  0999 V2000
    9.0520    0.4900    0.0720 C   0  0  0  0  0  0  0  0  0  0  0  0
    7.7750    0.9830    0.3070 O   0  0  0  0  0  0  0  0  0  0  0  0
    7.5380    1.5010    1.9280 P   0  0  0  0  0  0  0  0  0  0  0  0
    6.0260    2.5770    1.9680 C   0  0  0  0  0  0  0  0  0  0  0  0
    4.9270    1.8340    1.2910 C   0  0  0  0  0  0  0  0  0  0  0  0
    4.7810    1.9890   -0.0630 C   0  0  0  0  0  0  0  0  0  0  0  0
    3.7560    1.2990   -0.7080 C   0  0  0  0  0  0  0  0  0  0  0  0
    2.8850    0.4660   -0.0230 C   0  0  0  0  0  0  0  0  0  0  0  0
    3.0490    0.3240    1.3340 C   0  0  0  0  0  0  0  0  0  0  0  0
    4.0640    1.0080    1.9670 C   0  0  0  0  0  0  0  0  0  0  0  0
    2.0100   -0.6200    1.8750 C   0  0  0  0  0  0  0  0  0  0  0  0
    1.7050   -1.3960    0.6390 C   0  0  0  0  0  0  0  0  0  0  0  0
    1.4810   -2.5880    0.5410 O   0  0  0  0  0  0  0  0  0  0  0  0
    1.7370   -0.3610   -0.4580 C   0  0  1  0  0  0  0  0  0  0  0  0
    0.4260    0.3700   -0.3540 C   0  0  0  0  0  0  0  0  0  0  0  0
   -0.6080   -0.2430   -1.1610 N   0  0  0  0  0  0  0  0  0  0  0  0
   -1.9590   -0.3000   -0.7330 C   0  0  0  0  0  0  0  0  0  0  0  0
   -2.5690   -1.5010   -0.4380 C   0  0  0  0  0  0  0  0  0  0  0  0
   -3.8760   -1.5870   -0.0250 C   0  0  0  0  0  0  0  0  0  0  0  0
   -4.6790   -0.4470    0.1240 C   0  0  0  0  0  0  0  0  0  0  0  0
   -6.0210   -0.6110    0.5490 N   0  0  0  0  0  0  0  0  0  0  0  0
   -6.9590    0.3850    0.8270 C   0  0  0  0  0  0  0  0  0  0  0  0
   -6.6600    1.5860    0.7140 O   0  0  0  0  0  0  0  0  0  0  0  0
   -8.3350    0.0600    1.2630 C   0  0  0  0  0  0  0  0  0  0  0  0
   -9.3000    0.9130    1.5520 C   0  0  0  0  0  0  0  0  0  0  0  0
  -10.5380    0.1950    1.9510 C   0  0  1  0  0  0  0  0  0  0  0  0
  -11.4760    0.4400    0.9450 O   0  0  0  0  0  0  0  0  0  0  0  0
  -10.1320   -1.2200    1.8470 C   0  0  0  0  0  0  0  0  0  0  0  0
   -8.8830   -1.2750    1.4570 C   0  0  0  0  0  0  0  0  0  0  0  0
   -4.0690    0.7440   -0.1700 C   0  0  0  0  0  0  0  0  0  0  0  0
   -2.7320    0.8260   -0.5920 C   0  0  0  0  0  0  0  0  0  0  0  0
   -0.1890   -0.7900   -2.4090 C   0  0  0  0  0  0  0  0  0  0  0  0
   -1.0650   -1.2640   -3.1800 O   0  0  0  0  0  0  0  0  0  0  0  0
    1.2440   -0.7630   -2.7150 C   0  0  2  0  0  0  0  0  0  0  0  0
    1.5480    0.5160   -3.4490 C   0  0  0  0  0  0  0  0  0  0  0  0
    1.5570   -1.8880   -3.7200 C   0  0  0  0  0  0  0  0  0  0  0  0
    1.9860   -1.0140   -1.6150 O   0  0  0  0  0  0  0  0  0  0  0  0
    7.2780    0.1720    3.0110 O   0  0  0  0  0  0  0  0  0  0  0  0
    6.9790   -0.9760    2.2650 C   0  0  0  0  0  0  0  0  0  0  0  0
  1  2  1  0
  2  3  1  0
  3  4  1  0
  3 38  1  0
  4  5  1  0
  5  6  2  0
  5 10  1  0
  6  7  1  0
  7  8  2  0
  8  9  1  0
  8 14  1  0
  9 10  2  0
  9 11  1  0
 11 12  1  0
 12 13  2  0
 12 14  1  0
 14 15  1  6
 14 37  1  0
 15 16  1  0
 16 17  1  0
 16 32  1  0
 17 18  2  0
 17 31  1  0
 18 19  1  0
 19 20  2  0
 20 21  1  0
 20 30  1  0
 21 22  1  0
 22 23  2  0
 22 24  1  0
 24 25  2  0
 24 29  1  0
 25 26  1  0
 26 27  1  6
 26 28  1  0
 28 29  2  0
 30 31  2  0
 32 33  2  0
 32 34  1  0
 34 35  1  6
 34 36  1  0
 34 37  1  0
 38 39  1  0
M  END
