
     RDKit          3D

 39 41  0  0  0  0  0  0  0  0999 V2000
   -5.4710   -0.6610    0.8030 C   0  0  0  0  0  0  0  0  0  0  0  0
   -4.1840    0.0570    1.2160 C   0  0  0  0  0  0  0  0  0  0  0  0
   -2.9780   -0.7880    0.9100 C   0  0  0  0  0  0  0  0  0  0  0  0
   -1.7340   -0.0550    1.3240 C   0  0  1  0  0  0  0  0  0  0  0  0
   -0.5470   -0.7890    1.1070 O   0  0  0  0  0  0  0  0  0  0  0  0
   -0.2170   -1.9620    0.4180 C   0  0  0  0  0  0  0  0  0  0  0  0
   -0.2870   -1.9720   -0.8750 C   0  0  0  0  0  0  0  0  0  0  0  0
   -0.6890   -0.7100   -1.6620 C   0  0  0  0  0  0  0  0  0  0  0  0
    0.0820    0.3270   -1.3950 C   0  0  0  0  0  0  0  0  0  0  0  0
    1.2260    0.2620   -0.4100 C   0  0  0  0  0  0  0  0  0  0  0  0
    2.2970   -0.4810   -0.2310 C   0  0  0  0  0  0  0  0  0  0  0  0
    3.1050   -0.0860    0.9730 C   0  0  0  0  0  0  0  0  0  0  0  0
    4.1870   -0.8930    1.0710 O   0  0  0  0  0  0  0  0  0  0  0  0
    3.0280    0.8450    1.9510 N   0  0  0  0  0  0  0  0  0  0  0  0
    4.2230    0.7650    2.9340 C   0  0  0  0  0  0  0  0  0  0  0  0
    2.1310    1.8750    2.3070 C   0  0  0  0  0  0  0  0  0  0  0  0
    2.6250    3.4670    1.4930 P   0  0  0  0  0  0  0  0  0  0  0  0
    2.1550    3.5800   -0.1400 O   0  0  0  0  0  0  0  0  0  0  0  0
    4.3250    3.6630    1.6710 O   0  0  0  0  0  0  0  0  0  0  0  0
    2.8290   -1.5580   -1.0820 C   0  0  0  0  0  0  0  0  0  0  0  0
    2.7590   -2.7810   -1.4480 C   0  0  0  0  0  0  0  0  0  0  0  0
    2.0600   -4.0270   -1.2570 C   0  0  0  0  0  0  0  0  0  0  0  0
    2.1430   -4.9980   -2.4880 C   0  0  0  0  0  0  0  0  0  0  0  0
    3.6200   -5.2810   -2.6220 C   0  0  0  0  0  0  0  0  0  0  0  0
    1.3370   -4.5600   -0.3160 C   0  0  0  0  0  0  0  0  0  0  0  0
    0.8770   -4.1590    0.9990 C   0  0  0  0  0  0  0  0  0  0  0  0
    0.2100   -3.0510    1.3220 C   0  0  0  0  0  0  0  0  0  0  0  0
   -0.0270    1.6460   -1.9490 N   0  0  0  0  0  0  0  0  0  0  0  0
   -1.1970    2.3780   -2.3420 C   0  0  0  0  0  0  0  0  0  0  0  0
   -1.2110    3.2740   -3.2080 O   0  0  0  0  0  0  0  0  0  0  0  0
   -2.5030    2.0630   -1.6810 C   0  0  2  0  0  0  0  0  0  0  0  0
   -3.5180    2.4280   -2.5590 O   0  0  0  0  0  0  0  0  0  0  0  0
   -2.5840    2.9390   -0.4500 C   0  0  0  0  0  0  0  0  0  0  0  0
   -3.0520    4.1930   -0.6740 C   0  0  0  0  0  0  0  0  0  0  0  0
   -3.1490    5.0560    0.3850 C   0  0  0  0  0  0  0  0  0  0  0  0
   -2.7870    4.6850    1.6530 C   0  0  0  0  0  0  0  0  0  0  0  0
   -2.3180    3.4090    1.8440 C   0  0  0  0  0  0  0  0  0  0  0  0
   -2.1840    2.4540    0.8180 C   0  0  0  0  0  0  0  0  0  0  0  0
   -1.7360    1.2330    0.9910 O   0  0  0  0  0  0  0  0  0  0  0  0
  1  2  1  0
  2  3  1  0
  4  3  1  6
  4  5  1  0
  4 39  1  0
  5  6  1  0
  6  7  2  0
  6 27  1  0
  7  8  1  0
  8  9  2  0
  9 10  1  0
  9 28  1  0
 10 11  2  0
 11 12  1  0
 11 20  1  0
 12 13  2  0
 12 14  1  0
 14 15  1  0
 14 16  1  0
 16 17  1  0
 17 18  1  0
 17 19  1  0
 20 21  2  0
 21 22  1  0
 22 23  1  0
 22 25  2  0
 23 24  1  0
 25 26  1  0
 26 27  2  0
 28 29  1  0
 29 30  2  0
 29 31  1  0
 31 32  1  6
 31 33  1  0
 33 34  2  0
 33 38  1  0
 34 35  1  0
 35 36  2  0
 36 37  1  0
 37 38  2  0
 38 39  1  0
M  END
