
     RDKit          3D

 38 41  0  0  0  0  0  0  0  0999 V2000
   -6.7140   -4.9750   -1.5240 C   0  0  0  0  0  0  0  0  0  0  0  0
   -5.4400   -5.0360   -0.9160 O   0  0  0  0  0  0  0  0  0  0  0  0
   -4.6740   -3.9010   -0.7620 C   0  0  0  0  0  0  0  0  0  0  0  0
   -3.4370   -3.9770   -0.1680 C   0  0  0  0  0  0  0  0  0  0  0  0
   -2.7210   -2.8180   -0.0430 C   0  0  0  0  0  0  0  0  0  0  0  0
   -3.1540   -1.5440   -0.4790 C   0  0  0  0  0  0  0  0  0  0  0  0
   -4.4160   -1.5080   -1.0730 C   0  0  0  0  0  0  0  0  0  0  0  0
   -5.1290   -2.6790   -1.1960 C   0  0  0  0  0  0  0  0  0  0  0  0
   -4.9740   -0.3180   -1.5360 O   0  0  0  0  0  0  0  0  0  0  0  0
   -4.5370    1.0040   -1.3120 C   0  0  0  0  0  0  0  0  0  0  0  0
   -4.4500    1.6840   -2.5370 C   0  0  0  0  0  0  0  0  0  0  0  0
   -4.0210    2.9820   -2.6230 C   0  0  0  0  0  0  0  0  0  0  0  0
   -3.6830    3.5570   -1.4180 C   0  0  0  0  0  0  0  0  0  0  0  0
   -3.7630    2.8970   -0.1790 C   0  0  0  0  0  0  0  0  0  0  0  0
   -4.2100    1.5920   -0.1140 C   0  0  0  0  0  0  0  0  0  0  0  0
   -3.1480    3.7280    0.8980 C   0  0  0  0  0  0  0  0  0  0  0  0
   -1.7050    3.2930    1.2090 C   0  0  0  0  0  0  0  0  0  0  0  0
   -1.3550    1.9100    0.8800 C   0  0  0  0  0  0  0  0  0  0  0  0
   -0.8100    1.4160   -0.3480 C   0  0  2  0  0  0  0  0  0  0  0  0
    0.6220    0.8150   -0.0640 C   0  0  0  0  0  0  0  0  0  0  0  0
    1.5530    1.8310    0.4690 C   0  0  0  0  0  0  0  0  0  0  0  0
    2.8490    1.2100    0.6900 N   0  0  0  0  0  0  0  0  0  0  0  0
    3.0830    0.1350    1.5720 C   0  0  0  0  0  0  0  0  0  0  0  0
    2.0670   -0.2980    2.2100 O   0  0  0  0  0  0  0  0  0  0  0  0
    4.3860   -0.4760    1.7740 C   0  0  0  0  0  0  0  0  0  0  0  0
    4.4890   -1.6030    2.5540 C   0  0  0  0  0  0  0  0  0  0  0  0
    5.7100   -2.1910    2.7560 C   0  0  0  0  0  0  0  0  0  0  0  0
    6.8590   -1.6760    2.1870 C   0  0  0  0  0  0  0  0  0  0  0  0
    8.4590   -2.5070    2.4890 P   0  0  0  0  0  0  0  0  0  0  0  0
    9.8160   -1.2440    2.4500 C   0  0  0  0  0  0  0  0  0  0  0  0
    8.7420   -3.6910    1.2470 O   0  0  0  0  0  0  0  0  0  0  0  0
    6.7560   -0.5560    1.4120 C   0  0  0  0  0  0  0  0  0  0  0  0
    5.5090    0.0520    1.2010 C   0  0  0  0  0  0  0  0  0  0  0  0
   -0.4820    2.4730   -1.3580 C   0  0  0  0  0  0  0  0  0  0  0  0
   -0.0870    2.1020   -2.6840 N   0  0  0  0  0  0  0  0  0  0  0  0
   -0.5260    3.6820   -1.1220 O   0  0  0  0  0  0  0  0  0  0  0  0
   -1.4870    0.2900   -1.1120 C   0  0  0  0  0  0  0  0  0  0  0  0
   -2.3450   -0.4280   -0.3060 O   0  0  0  0  0  0  0  0  0  0  0  0
  1  2  1  0
  2  3  1  0
  3  4  2  0
  3  8  1  0
  4  5  1  0
  5  6  2  0
  6  7  1  0
  6 38  1  0
  7  8  2  0
  7  9  1  0
  9 10  1  0
 10 11  2  0
 10 15  1  0
 11 12  1  0
 12 13  2  0
 13 14  1  0
 14 15  2  0
 14 16  1  0
 16 17  1  0
 17 18  1  0
 18 19  1  0
 19 20  1  1
 19 34  1  0
 19 37  1  0
 20 21  1  0
 21 22  1  0
 22 23  1  0
 23 24  2  0
 23 25  1  0
 25 26  2  0
 25 33  1  0
 26 27  1  0
 27 28  2  0
 28 29  1  0
 28 32  1  0
 29 30  1  0
 29 31  1  0
 32 33  2  0
 34 35  1  0
 34 36  2  0
 37 38  1  0
M  END
