
     RDKit          3D

 44 46  0  0  0  0  0  0  0  0999 V2000
   10.2370   -1.6700   -0.8820 C   0  0  0  0  0  0  0  0  0  0  0  0
   10.0520   -0.1980   -1.0640 C   0  0  0  0  0  0  0  0  0  0  0  0
    9.1690    0.4320   -0.0300 C   0  0  1  0  0  0  0  0  0  0  0  0
    9.1180    1.8230   -0.3570 O   0  0  0  0  0  0  0  0  0  0  0  0
    7.7720   -0.1060   -0.0370 C   0  0  0  0  0  0  0  0  0  0  0  0
    6.8890    0.6450   -0.5040 O   0  0  0  0  0  0  0  0  0  0  0  0
    7.4370   -1.3830    0.4520 N   0  0  0  0  0  0  0  0  0  0  0  0
    6.1440   -1.9570    0.4770 C   0  0  0  0  0  0  0  0  0  0  0  0
    6.0680   -3.3100    0.8560 C   0  0  0  0  0  0  0  0  0  0  0  0
    4.8610   -3.9140    0.9070 C   0  0  0  0  0  0  0  0  0  0  0  0
    3.6940   -3.2190    0.5930 C   0  0  0  0  0  0  0  0  0  0  0  0
    3.7130   -1.8980    0.2170 C   0  0  0  0  0  0  0  0  0  0  0  0
    2.5600   -1.1490   -0.1340 N   0  0  0  0  0  0  0  0  0  0  0  0
    1.2930   -1.6830   -0.4490 C   0  0  0  0  0  0  0  0  0  0  0  0
    1.1260   -2.9380   -0.4350 O   0  0  0  0  0  0  0  0  0  0  0  0
    0.1660   -0.8170   -0.7920 C   0  0  0  0  0  0  0  0  0  0  0  0
   -1.0880   -1.3680   -1.0150 C   0  0  0  0  0  0  0  0  0  0  0  0
   -2.1810   -0.6040   -1.3410 C   0  0  0  0  0  0  0  0  0  0  0  0
   -3.5000   -1.1740   -1.5750 C   0  0  0  0  0  0  0  0  0  0  0  0
   -3.6260   -2.4490   -1.4730 O   0  0  0  0  0  0  0  0  0  0  0  0
   -4.6270   -0.4770   -1.8960 O   0  0  0  0  0  0  0  0  0  0  0  0
   -5.8500   -1.1430   -2.0950 C   0  0  0  0  0  0  0  0  0  0  0  0
   -6.2340   -1.8300   -0.8460 C   0  0  0  0  0  0  0  0  0  0  0  0
   -5.5120   -1.7350    0.1720 O   0  0  0  0  0  0  0  0  0  0  0  0
   -7.3930   -2.5840   -0.7870 O   0  0  0  0  0  0  0  0  0  0  0  0
   -7.8520   -3.2720    0.3350 C   0  0  0  0  0  0  0  0  0  0  0  0
   -8.0850   -2.2780    1.4520 C   0  0  0  0  0  0  0  0  0  0  0  0
   -9.0320   -1.3550    1.0320 O   0  0  0  0  0  0  0  0  0  0  0  0
   -9.2920   -0.4080    2.0200 C   0  0  0  0  0  0  0  0  0  0  0  0
   -2.0200    0.7570   -1.4500 C   0  0  0  0  0  0  0  0  0  0  0  0
   -3.1490    1.6220   -1.7950 C   0  0  0  0  0  0  0  0  0  0  0  0
   -0.7750    1.3560   -1.2340 C   0  0  0  0  0  0  0  0  0  0  0  0
   -0.5700    3.0880   -1.3700 S   0  0  2  0  0  0  0  0  0  0  0  0
   -0.8200    3.5810   -2.7660 O   0  0  0  0  0  0  0  0  0  0  0  0
    0.8590    3.4180   -1.0390 O   0  0  0  0  0  0  0  0  0  0  0  0
   -1.5680    3.9100   -0.2570 N   0  0  0  0  0  0  0  0  0  0  0  0
   -1.2570    3.5840    1.1000 C   0  0  0  0  0  0  0  0  0  0  0  0
   -2.1720    4.3450    1.9800 C   0  0  0  0  0  0  0  0  0  0  0  0
   -3.4250    3.9220    2.4400 C   0  0  0  0  0  0  0  0  0  0  0  0
   -3.9310    4.9330    3.2270 C   0  0  0  0  0  0  0  0  0  0  0  0
   -2.9820    5.9260    3.2210 C   0  0  0  0  0  0  0  0  0  0  0  0
   -1.9710    5.5360    2.4770 O   0  0  0  0  0  0  0  0  0  0  0  0
    0.3020    0.5240   -0.9040 C   0  0  0  0  0  0  0  0  0  0  0  0
    4.9840   -1.3020    0.1740 C   0  0  0  0  0  0  0  0  0  0  0  0
  1  2  1  0
  2  3  1  0
  3  4  1  6
  3  5  1  0
  5  6  2  0
  5  7  1  0
  7  8  1  0
  8  9  2  0
  8 44  1  0
  9 10  1  0
 10 11  2  0
 11 12  1  0
 12 13  1  0
 12 44  2  0
 13 14  1  0
 14 15  2  0
 14 16  1  0
 16 17  2  0
 16 43  1  0
 17 18  1  0
 18 19  1  0
 18 30  2  0
 19 20  2  0
 19 21  1  0
 21 22  1  0
 22 23  1  0
 23 24  2  0
 23 25  1  0
 25 26  1  0
 26 27  1  0
 27 28  1  0
 28 29  1  0
 30 31  1  0
 30 32  1  0
 32 33  1  0
 32 43  2  0
 33 34  2  0
 33 35  2  0
 33 36  1  1
 36 37  1  0
 37 38  1  0
 38 39  2  0
 38 42  1  0
 39 40  1  0
 40 41  2  0
 41 42  1  0
M  END
