
     RDKit          3D

 44 46  0  0  0  0  0  0  0  0999 V2000
   -5.0690    4.8030    0.9560 C   0  0  0  0  0  0  0  0  0  0  0  0
   -5.2460    3.4080    0.8250 O   0  0  0  0  0  0  0  0  0  0  0  0
   -4.6030    2.7830   -0.2540 C   0  0  0  0  0  0  0  0  0  0  0  0
   -3.8360    3.5130   -1.1390 C   0  0  0  0  0  0  0  0  0  0  0  0
   -3.1920    2.9350   -2.2060 C   0  0  0  0  0  0  0  0  0  0  0  0
   -2.4300    3.7190   -3.0690 O   0  0  0  0  0  0  0  0  0  0  0  0
   -2.2630    5.0930   -2.9300 C   0  0  0  0  0  0  0  0  0  0  0  0
   -3.3430    1.5830   -2.3600 C   0  0  0  0  0  0  0  0  0  0  0  0
   -2.5870    0.7430   -3.6530 S   0  0  1  0  0  0  0  0  0  0  0  0
   -2.9620   -0.7120   -3.6670 O   0  0  0  0  0  0  0  0  0  0  0  0
   -3.0940    1.3230   -4.9560 O   0  0  0  0  0  0  0  0  0  0  0  0
   -0.8870    0.8460   -3.6810 N   0  0  0  0  0  0  0  0  0  0  0  0
   -0.2460    0.2850   -2.5110 C   0  0  0  0  0  0  0  0  0  0  0  0
    1.2170    0.4550   -2.6690 C   0  0  0  0  0  0  0  0  0  0  0  0
    1.7630    1.1240   -3.7710 C   0  0  0  0  0  0  0  0  0  0  0  0
    3.1200    1.3160   -3.9370 C   0  0  0  0  0  0  0  0  0  0  0  0
    3.9890    0.8430   -3.0010 C   0  0  0  0  0  0  0  0  0  0  0  0
    3.4980    0.1870   -1.9150 C   0  0  0  0  0  0  0  0  0  0  0  0
    2.1140   -0.0130   -1.7380 C   0  0  0  0  0  0  0  0  0  0  0  0
    1.6650   -0.7090   -0.6010 N   0  0  0  0  0  0  0  0  0  0  0  0
    0.8170   -0.0770    0.3700 C   0  0  0  0  0  0  0  0  0  0  0  0
    1.3840   -0.4240    1.7640 C   0  0  0  0  0  0  0  0  0  0  0  0
    2.8420   -0.8130    1.6380 C   0  0  1  0  0  0  0  0  0  0  0  0
    3.4830   -0.9660    3.0000 C   0  0  0  0  0  0  0  0  0  0  0  0
    4.8300   -1.3220    2.8070 O   0  0  0  0  0  0  0  0  0  0  0  0
    5.7220   -1.5430    3.8490 C   0  0  0  0  0  0  0  0  0  0  0  0
    5.2800   -1.4120    5.0410 O   0  0  0  0  0  0  0  0  0  0  0  0
    7.1240   -1.9130    3.5770 C   0  0  0  0  0  0  0  0  0  0  0  0
    7.3400   -1.9820    2.0920 C   0  0  0  0  0  0  0  0  0  0  0  0
    8.7200   -2.3450    1.7350 C   0  0  0  0  0  0  0  0  0  0  0  0
    9.0000   -2.4330    0.5100 O   0  0  0  0  0  0  0  0  0  0  0  0
    9.7300   -2.5970    2.6500 O   0  0  0  0  0  0  0  0  0  0  0  0
    2.9430   -2.1180    0.8940 C   0  0  0  0  0  0  0  0  0  0  0  0
    2.0430   -2.0860   -0.3480 C   0  0  0  0  0  0  0  0  0  0  0  0
   -4.1200    0.8450   -1.4640 C   0  0  0  0  0  0  0  0  0  0  0  0
   -4.7680    1.3970   -0.3990 C   0  0  0  0  0  0  0  0  0  0  0  0
   -5.5690    0.7260    0.5520 N   0  0  0  0  0  0  0  0  0  0  0  0
   -5.8760   -0.6370    0.6150 C   0  0  0  0  0  0  0  0  0  0  0  0
   -5.4110   -1.4030   -0.2520 O   0  0  0  0  0  0  0  0  0  0  0  0
   -6.7520   -1.1410    1.7190 C   0  0  0  0  0  0  0  0  0  0  0  0
   -6.9570   -2.6220    1.6380 C   0  0  0  0  0  0  0  0  0  0  0  0
   -5.6590   -3.3080    1.7380 C   0  0  0  0  0  0  0  0  0  0  0  0
   -5.6410   -4.5630    1.6770 O   0  0  0  0  0  0  0  0  0  0  0  0
   -4.4830   -2.5980    1.8960 O   0  0  0  0  0  0  0  0  0  0  0  0
  1  2  1  0
  2  3  1  0
  3  4  2  0
  3 36  1  0
  4  5  1  0
  5  6  1  0
  5  8  2  0
  6  7  1  0
  8  9  1  0
  8 35  1  0
  9 10  2  0
  9 11  2  0
  9 12  1  1
 12 13  1  0
 13 14  1  0
 14 15  2  0
 14 19  1  0
 15 16  1  0
 16 17  2  0
 17 18  1  0
 18 19  2  0
 19 20  1  0
 20 21  1  0
 20 34  1  0
 21 22  1  0
 22 23  1  0
 23 24  1  1
 23 33  1  0
 24 25  1  0
 25 26  1  0
 26 27  2  0
 26 28  1  0
 28 29  1  0
 29 30  1  0
 30 31  2  0
 30 32  1  0
 33 34  1  0
 35 36  2  0
 36 37  1  0
 37 38  1  0
 38 39  2  0
 38 40  1  0
 40 41  1  0
 41 42  1  0
 42 43  2  0
 42 44  1  0
M  END
