
     RDKit          3D

 44 46  0  0  0  0  0  0  0  0999 V2000
   -8.2180   -4.9000    2.0420 C   0  0  0  0  0  0  0  0  0  0  0  0
   -6.9190   -4.8860    1.5670 O   0  0  0  0  0  0  0  0  0  0  0  0
   -6.6750   -3.7600    0.8280 C   0  0  0  0  0  0  0  0  0  0  0  0
   -5.2430   -3.7000    0.3070 C   0  0  0  0  0  0  0  0  0  0  0  0
   -5.1430   -2.3960   -0.4370 C   0  0  0  0  0  0  0  0  0  0  0  0
   -6.1030   -1.6160   -0.3670 O   0  0  0  0  0  0  0  0  0  0  0  0
   -4.0280   -2.0310   -1.1890 N   0  0  0  0  0  0  0  0  0  0  0  0
   -3.7950   -0.8230   -1.8990 C   0  0  0  0  0  0  0  0  0  0  0  0
   -4.5890    0.2830   -1.7740 C   0  0  0  0  0  0  0  0  0  0  0  0
   -4.3420    1.5280   -2.3840 C   0  0  0  0  0  0  0  0  0  0  0  0
   -5.4390    2.9080   -2.2700 S   0  0  0  0  0  0  0  0  0  0  0  0
   -7.0480    2.5550   -1.5780 C   0  0  1  0  0  0  0  0  0  0  0  0
   -7.7790    1.6600   -2.5630 C   0  0  0  0  0  0  0  0  0  0  0  0
   -7.0650    2.0270   -0.1910 C   0  0  0  0  0  0  0  0  0  0  0  0
   -3.2150    1.6240   -3.1550 C   0  0  0  0  0  0  0  0  0  0  0  0
   -2.3840    0.5110   -3.3070 C   0  0  0  0  0  0  0  0  0  0  0  0
   -2.6490   -0.7040   -2.7000 C   0  0  0  0  0  0  0  0  0  0  0  0
   -1.8070   -1.7680   -2.9110 O   0  0  0  0  0  0  0  0  0  0  0  0
   -0.6270   -1.8560   -3.5890 C   0  0  0  0  0  0  0  0  0  0  0  0
    0.5840   -1.3290   -2.9960 C   0  0  0  0  0  0  0  0  0  0  0  0
    0.6600    0.0350   -2.6210 N   0  0  0  0  0  0  0  0  0  0  0  0
    0.3110    0.5620   -1.2970 C   0  0  0  0  0  0  0  0  0  0  0  0
   -0.1460   -0.1540   -0.3820 O   0  0  0  0  0  0  0  0  0  0  0  0
    0.5860    1.9090   -1.3060 O   0  0  0  0  0  0  0  0  0  0  0  0
    1.6840    2.0890   -2.2270 C   0  0  1  0  0  0  0  0  0  0  0  0
    2.8860    1.3520   -1.7600 C   0  0  0  0  0  0  0  0  0  0  0  0
    3.3860    1.7310   -0.4260 C   0  0  0  0  0  0  0  0  0  0  0  0
    3.9980    2.7830   -0.1640 O   0  0  0  0  0  0  0  0  0  0  0  0
    3.1660    0.8310    0.6400 O   0  0  0  0  0  0  0  0  0  0  0  0
    3.6290    1.0410    1.9350 C   0  0  0  0  0  0  0  0  0  0  0  0
    5.1410    1.0670    1.9640 C   0  0  0  0  0  0  0  0  0  0  0  0
    5.6750    1.1220    0.8350 O   0  0  0  0  0  0  0  0  0  0  0  0
    5.9010    1.0230    3.1220 N   0  0  0  0  0  0  0  0  0  0  0  0
    7.3430    1.0280    3.1910 C   0  0  0  0  0  0  0  0  0  0  0  0
    8.1300    1.1910    2.0870 C   0  0  0  0  0  0  0  0  0  0  0  0
    9.5150    1.1620    2.1530 C   0  0  0  0  0  0  0  0  0  0  0  0
   10.1010    0.9660    3.3590 C   0  0  0  0  0  0  0  0  0  0  0  0
   11.5040    0.9200    3.5170 O   0  0  0  0  0  0  0  0  0  0  0  0
    9.3740    0.7970    4.5190 C   0  0  0  0  0  0  0  0  0  0  0  0
    9.9680    0.5570    5.8480 C   0  0  0  0  0  0  0  0  0  0  0  0
    7.9640    0.8320    4.4100 C   0  0  0  0  0  0  0  0  0  0  0  0
    7.2760    0.6650    5.5740 O   0  0  0  0  0  0  0  0  0  0  0  0
    1.1260    1.1840   -3.3300 C   0  0  0  0  0  0  0  0  0  0  0  0
    1.0760    1.3740   -4.5560 O   0  0  0  0  0  0  0  0  0  0  0  0
  1  2  1  0
  2  3  1  0
  3  4  1  0
  4  5  1  0
  5  6  2  0
  5  7  1  0
  7  8  1  0
  8  9  2  0
  8 17  1  0
  9 10  1  0
 10 11  1  0
 10 15  2  0
 11 12  1  0
 12 13  1  6
 12 14  1  0
 15 16  1  0
 16 17  2  0
 17 18  1  0
 18 19  1  0
 19 20  1  0
 20 21  1  0
 21 22  1  0
 21 43  1  0
 22 23  2  0
 22 24  1  0
 24 25  1  0
 25 26  1  1
 25 43  1  0
 26 27  1  0
 27 28  2  0
 27 29  1  0
 29 30  1  0
 30 31  1  0
 31 32  2  0
 31 33  1  0
 33 34  1  0
 34 35  2  0
 34 41  1  0
 35 36  1  0
 36 37  2  0
 37 38  1  0
 37 39  1  0
 39 40  1  0
 39 41  2  0
 41 42  1  0
 43 44  2  0
M  END
