
     RDKit          3D

 44 45  0  0  0  0  0  0  0  0999 V2000
   -2.6060    3.1100    5.2960 C   0  0  0  0  0  0  0  0  0  0  0  0
   -1.8680    2.6810    4.1340 N   0  0  0  0  0  0  0  0  0  0  0  0
   -2.3570    1.6730    3.2230 C   0  0  0  0  0  0  0  0  0  0  0  0
   -3.4640    1.1990    3.5090 O   0  0  0  0  0  0  0  0  0  0  0  0
   -1.4060    1.1810    1.8270 S   0  0  0  0  0  0  0  0  0  0  0  0
   -2.2350    0.1510    0.6800 C   0  0  0  0  0  0  0  0  0  0  0  0
   -3.7100    0.2860    0.6140 C   0  0  0  0  0  0  0  0  0  0  0  0
   -4.4510   -0.4890   -0.0160 O   0  0  0  0  0  0  0  0  0  0  0  0
   -4.3660    1.3270    1.2670 O   0  0  0  0  0  0  0  0  0  0  0  0
   -5.7510    1.5500    1.2490 C   0  0  0  0  0  0  0  0  0  0  0  0
   -6.1810    1.7970   -0.1450 C   0  0  0  0  0  0  0  0  0  0  0  0
   -5.3250    1.7450   -1.0620 O   0  0  0  0  0  0  0  0  0  0  0  0
   -7.4730    2.0860   -0.5210 O   0  0  0  0  0  0  0  0  0  0  0  0
   -7.9170    2.3280   -1.8220 C   0  0  0  0  0  0  0  0  0  0  0  0
   -7.7190    1.1790   -2.7750 C   0  0  0  0  0  0  0  0  0  0  0  0
   -8.3610    0.0190   -2.4250 O   0  0  0  0  0  0  0  0  0  0  0  0
   -9.7240    0.2280   -2.3470 C   0  0  0  0  0  0  0  0  0  0  0  0
   -1.6660   -0.7960   -0.0140 C   0  0  0  0  0  0  0  0  0  0  0  0
   -0.3320   -1.2320   -0.0320 N   0  0  0  0  0  0  0  0  0  0  0  0
    0.7610   -0.7720    0.6830 C   0  0  0  0  0  0  0  0  0  0  0  0
    0.7030    0.1470    1.4900 O   0  0  0  0  0  0  0  0  0  0  0  0
    2.1170   -1.4000    0.4970 C   0  0  0  0  0  0  0  0  0  0  0  0
    2.2020   -2.3520   -0.2980 O   0  0  0  0  0  0  0  0  0  0  0  0
    3.2240   -0.9280    1.1890 N   0  0  0  0  0  0  0  0  0  0  0  0
    4.5290   -1.4300    1.1020 C   0  0  0  0  0  0  0  0  0  0  0  0
    4.8680   -2.6200    0.5200 C   0  0  0  0  0  0  0  0  0  0  0  0
    6.2010   -3.0610    0.4450 C   0  0  0  0  0  0  0  0  0  0  0  0
    7.2350   -2.3160    0.9560 C   0  0  0  0  0  0  0  0  0  0  0  0
    8.5460   -2.7670    0.8730 O   0  0  0  0  0  0  0  0  0  0  0  0
    6.9150   -1.1070    1.5500 C   0  0  0  0  0  0  0  0  0  0  0  0
    7.9830   -0.2890    2.1130 C   0  0  0  0  0  0  0  0  0  0  0  0
    8.8410    0.4680    1.1750 C   0  0  0  0  0  0  0  0  0  0  0  0
    8.1990    1.4950    0.3180 C   0  0  2  0  0  0  0  0  0  0  0  0
    7.1370    1.0250   -0.6170 C   0  0  0  0  0  0  0  0  0  0  0  0
    9.2360    2.0540   -0.4720 O   0  0  0  0  0  0  0  0  0  0  0  0
    9.3640    3.3770   -0.0950 C   0  0  0  0  0  0  0  0  0  0  0  0
    5.6100   -0.6880    1.6160 C   0  0  0  0  0  0  0  0  0  0  0  0
   -2.4950   -1.5060   -1.0710 C   0  0  0  0  0  0  0  0  0  0  0  0
   -2.6680   -2.8640   -1.1630 C   0  0  0  0  0  0  0  0  0  0  0  0
   -3.4840   -3.0280   -2.2840 C   0  0  0  0  0  0  0  0  0  0  0  0
   -3.9660   -4.3130   -2.8180 C   0  0  0  0  0  0  0  0  0  0  0  0
   -3.7480   -1.7860   -2.7900 C   0  0  0  0  0  0  0  0  0  0  0  0
   -4.5830   -1.5170   -3.9890 C   0  0  0  0  0  0  0  0  0  0  0  0
   -3.1250   -0.9200   -2.0140 O   0  0  0  0  0  0  0  0  0  0  0  0
  1  2  1  0
  2  3  1  0
  3  4  2  0
  3  5  1  0
  5  6  1  0
  6  7  1  0
  6 18  2  3
  7  8  2  0
  7  9  1  0
  9 10  1  0
 10 11  1  0
 11 12  2  0
 11 13  1  0
 13 14  1  0
 14 15  1  0
 15 16  1  0
 16 17  1  0
 18 19  1  0
 18 38  1  0
 19 20  1  0
 20 21  2  0
 20 22  1  0
 22 23  2  0
 22 24  1  0
 24 25  1  0
 25 26  2  0
 25 37  1  0
 26 27  1  0
 27 28  2  0
 28 29  1  0
 28 30  1  0
 30 31  1  0
 30 37  2  0
 31 32  1  0
 32 33  1  0
 33 34  1  6
 33 35  1  0
 35 36  1  0
 38 39  2  0
 38 44  1  0
 39 40  1  0
 40 41  1  0
 40 42  2  0
 42 43  1  0
 42 44  1  0
M  END
