
     RDKit          3D

 43 45  0  0  0  0  0  0  0  0999 V2000
    0.0270    3.9180    1.4800 C   0  0  0  0  0  0  0  0  0  0  0  0
    0.5960    2.8020    0.6200 C   0  0  0  0  0  0  0  0  0  0  0  0
    0.0610    1.5570    0.9570 O   0  0  0  0  0  0  0  0  0  0  0  0
    0.4060    0.3690    0.3300 C   0  0  0  0  0  0  0  0  0  0  0  0
    1.3380    0.3490   -0.7110 C   0  0  0  0  0  0  0  0  0  0  0  0
    1.6920   -0.8310   -1.3470 C   0  0  0  0  0  0  0  0  0  0  0  0
    2.6780   -0.7970   -2.4570 C   0  0  0  0  0  0  0  0  0  0  0  0
    3.3250    0.8500   -2.7950 S   0  0  0  0  0  0  0  0  0  0  0  0
    4.3410    1.4530   -1.4730 C   0  0  0  0  0  0  0  0  0  0  0  0
    4.9650    2.5990   -1.5150 N   0  0  0  0  0  0  0  0  0  0  0  0
    5.6770    2.7740   -0.3210 N   0  0  0  0  0  0  0  0  0  0  0  0
    5.6550    1.5400    0.3990 C   0  0  2  0  0  0  0  0  0  0  0  0
    5.3100    1.7080    1.8630 C   0  0  0  0  0  0  0  0  0  0  0  0
    6.9090    0.7310    0.1950 C   0  0  0  0  0  0  0  0  0  0  0  0
    8.1640    1.4440    0.6310 C   0  0  0  0  0  0  0  0  0  0  0  0
    9.3210    0.4970    0.3840 C   0  0  0  0  0  0  0  0  0  0  0  0
    9.1520   -0.6740    1.1340 O   0  0  0  0  0  0  0  0  0  0  0  0
    4.6130    0.8380   -0.2720 O   0  0  0  0  0  0  0  0  0  0  0  0
    1.1370   -2.0330   -0.9770 C   0  0  0  0  0  0  0  0  0  0  0  0
    1.4840   -3.2870   -1.6510 C   0  0  0  0  0  0  0  0  0  0  0  0
    2.2700   -3.3810   -2.6070 O   0  0  0  0  0  0  0  0  0  0  0  0
    0.9020   -4.4950   -1.2110 O   0  0  0  0  0  0  0  0  0  0  0  0
    1.2340   -5.7040   -1.8600 C   0  0  0  0  0  0  0  0  0  0  0  0
    0.2130   -2.0110    0.0560 C   0  0  0  0  0  0  0  0  0  0  0  0
   -0.1380   -0.8340    0.6880 C   0  0  0  0  0  0  0  0  0  0  0  0
   -1.0690   -0.8580    1.7190 O   0  0  0  0  0  0  0  0  0  0  0  0
   -2.3130   -1.4230    1.4570 C   0  0  0  0  0  0  0  0  0  0  0  0
   -2.5080   -1.8830    0.3030 O   0  0  0  0  0  0  0  0  0  0  0  0
   -3.3650   -1.5000    2.4380 N   0  0  0  0  0  0  0  0  0  0  0  0
   -4.5880   -2.1350    2.0180 C   0  0  0  0  0  0  0  0  0  0  0  0
   -5.4220   -1.3360    1.1080 C   0  0  0  0  0  0  0  0  0  0  0  0
   -6.4220   -2.0030    0.4260 C   0  0  0  0  0  0  0  0  0  0  0  0
   -7.2580   -1.3660   -0.4590 C   0  0  0  0  0  0  0  0  0  0  0  0
   -8.2580   -2.0470   -1.1400 O   0  0  0  0  0  0  0  0  0  0  0  0
   -8.3920   -3.4370   -0.8970 C   0  0  0  0  0  0  0  0  0  0  0  0
   -7.0640    0.0120   -0.6550 C   0  0  0  0  0  0  0  0  0  0  0  0
   -7.9170    0.6170   -1.5480 O   0  0  0  0  0  0  0  0  0  0  0  0
   -6.0840    0.7270   -0.0040 C   0  0  0  0  0  0  0  0  0  0  0  0
   -5.8550    2.1490   -0.1920 C   0  0  0  0  0  0  0  0  0  0  0  0
   -4.9020    2.6710    0.4890 O   0  0  0  0  0  0  0  0  0  0  0  0
   -6.5330    2.9960   -1.0070 O   0  0  0  0  0  0  0  0  0  0  0  0
   -6.3130    4.3680   -1.1950 C   0  0  0  0  0  0  0  0  0  0  0  0
   -5.2800   -0.0120    0.8810 C   0  0  0  0  0  0  0  0  0  0  0  0
  1  2  1  0
  2  3  1  0
  3  4  1  0
  4  5  2  0
  4 25  1  0
  5  6  1  0
  6  7  1  0
  6 19  2  0
  7  8  1  0
  8  9  1  0
  9 10  2  0
  9 18  1  0
 10 11  1  0
 11 12  1  0
 12 13  1  1
 12 14  1  0
 12 18  1  0
 14 15  1  0
 15 16  1  0
 16 17  1  0
 19 20  1  0
 19 24  1  0
 20 21  2  0
 20 22  1  0
 22 23  1  0
 24 25  2  0
 25 26  1  0
 26 27  1  0
 27 28  2  0
 27 29  1  0
 29 30  1  0
 30 31  1  0
 31 32  2  0
 31 43  1  0
 32 33  1  0
 33 34  1  0
 33 36  2  0
 34 35  1  0
 36 37  1  0
 36 38  1  0
 38 39  1  0
 38 43  2  0
 39 40  2  0
 39 41  1  0
 41 42  1  0
M  END
