
     RDKit          3D

 44 46  0  0  0  0  0  0  0  0999 V2000
   -9.7430   -0.6710    0.6650 C   0  0  0  0  0  0  0  0  0  0  0  0
   -9.3000   -0.6390   -0.6330 O   0  0  0  0  0  0  0  0  0  0  0  0
   -8.0260   -0.1550   -0.8370 C   0  0  0  0  0  0  0  0  0  0  0  0
   -7.9270    1.2690   -0.3650 C   0  0  0  0  0  0  0  0  0  0  0  0
   -6.3440    2.0270   -0.5650 S   0  0  0  0  0  0  0  0  0  0  0  0
   -4.9430    1.3790    0.2040 C   0  0  0  0  0  0  0  0  0  0  0  0
   -4.8270    0.7950    1.3390 C   0  0  0  0  0  0  0  0  0  0  0  0
   -5.9580    0.5400    2.2890 C   0  0  0  0  0  0  0  0  0  0  0  0
   -5.6250    1.2090    3.4890 O   0  0  0  0  0  0  0  0  0  0  0  0
   -3.5210    0.2990    1.8600 C   0  0  0  0  0  0  0  0  0  0  0  0
   -3.5470   -0.2600    2.9850 O   0  0  0  0  0  0  0  0  0  0  0  0
   -2.2930    0.4040    1.2150 N   0  0  0  0  0  0  0  0  0  0  0  0
   -1.0240   -0.0440    1.6730 C   0  0  0  0  0  0  0  0  0  0  0  0
   -0.7960   -0.6780    2.8720 C   0  0  0  0  0  0  0  0  0  0  0  0
    0.4660   -1.0610    3.2420 C   0  0  0  0  0  0  0  0  0  0  0  0
    0.6700   -1.7360    4.5420 C   0  0  0  0  0  0  0  0  0  0  0  0
    1.5520   -0.8180    2.4090 C   0  0  0  0  0  0  0  0  0  0  0  0
    1.3820   -0.1950    1.2140 C   0  0  0  0  0  0  0  0  0  0  0  0
    2.4060    0.0820    0.3070 N   0  0  0  0  0  0  0  0  0  0  0  0
    3.7650   -0.2070    0.5640 C   0  0  0  0  0  0  0  0  0  0  0  0
    4.1770   -0.7260    1.6070 O   0  0  0  0  0  0  0  0  0  0  0  0
    4.8160    0.1220   -0.4730 C   0  0  1  0  0  0  0  0  0  0  0  0
    4.7510    1.6290   -0.6640 C   0  0  0  0  0  0  0  0  0  0  0  0
    6.0990   -0.2120   -0.0390 O   0  0  0  0  0  0  0  0  0  0  0  0
    6.9790   -1.0620   -0.6750 C   0  0  0  0  0  0  0  0  0  0  0  0
    6.6390   -1.6070   -1.7430 O   0  0  0  0  0  0  0  0  0  0  0  0
    8.3430   -1.3620   -0.1330 C   0  0  2  0  0  0  0  0  0  0  0  0
    8.4790   -2.8040    0.2560 C   0  0  0  0  0  0  0  0  0  0  0  0
    9.5250   -2.7680    1.3460 C   0  0  0  0  0  0  0  0  0  0  0  0
    9.6110   -1.2950    1.6660 C   0  0  0  0  0  0  0  0  0  0  0  0
    8.5480   -0.6800    1.0490 O   0  0  0  0  0  0  0  0  0  0  0  0
    0.0910    0.1790    0.8720 C   0  0  0  0  0  0  0  0  0  0  0  0
   -0.0830    0.8280   -0.3830 N   0  0  0  0  0  0  0  0  0  0  0  0
   -0.0910    2.2440   -0.4830 C   0  0  0  0  0  0  0  0  0  0  0  0
    0.0580    2.8440    0.6450 O   0  0  0  0  0  0  0  0  0  0  0  0
   -0.2470    3.0240   -1.7240 C   0  0  0  0  0  0  0  0  0  0  0  0
   -0.3940    2.3330   -2.8980 O   0  0  0  0  0  0  0  0  0  0  0  0
   -1.3850    1.4780   -3.3170 C   0  0  0  0  0  0  0  0  0  0  0  0
   -2.3380    1.2830   -2.5050 O   0  0  0  0  0  0  0  0  0  0  0  0
   -1.3600    0.8220   -4.6260 C   0  0  0  0  0  0  0  0  0  0  0  0
   -2.3180   -0.0330   -5.0870 C   0  0  0  0  0  0  0  0  0  0  0  0
   -1.9090   -0.4150   -6.3440 C   0  0  0  0  0  0  0  0  0  0  0  0
   -0.7190    0.2290   -6.5830 C   0  0  0  0  0  0  0  0  0  0  0  0
   -0.4420    0.9490   -5.5290 O   0  0  0  0  0  0  0  0  0  0  0  0
  1  2  1  0
  2  3  1  0
  3  4  1  0
  4  5  1  0
  5  6  1  0
  6  7  2  3
  7  8  1  0
  7 10  1  0
  8  9  1  0
 10 11  2  0
 10 12  1  0
 12 13  1  0
 13 14  2  0
 13 32  1  0
 14 15  1  0
 15 16  1  0
 15 17  2  0
 17 18  1  0
 18 19  1  0
 18 32  2  0
 19 20  1  0
 20 21  2  0
 20 22  1  0
 22 23  1  1
 22 24  1  0
 24 25  1  0
 25 26  2  0
 27 25  1  1
 27 28  1  0
 27 31  1  0
 28 29  1  0
 29 30  1  0
 30 31  1  0
 32 33  1  0
 33 34  1  0
 34 35  2  0
 34 36  1  0
 36 37  1  0
 37 38  1  0
 38 39  2  0
 38 40  1  0
 40 41  2  0
 40 44  1  0
 41 42  1  0
 42 43  2  0
 43 44  1  0
M  END
