
     RDKit          3D

 44 46  0  0  0  0  0  0  0  0999 V2000
   -3.2780   10.4120    1.4800 C   0  0  0  0  0  0  0  0  0  0  0  0
   -3.0870    9.0170    1.2060 N   0  0  0  0  0  0  0  0  0  0  0  0
   -2.5790    8.5490   -0.0300 C   0  0  0  0  0  0  0  0  0  0  0  0
   -2.2970    9.4230   -0.8940 O   0  0  0  0  0  0  0  0  0  0  0  0
   -2.3450    6.7900   -0.3600 S   0  0  0  0  0  0  0  0  0  0  0  0
   -2.8560    5.8900    1.1090 C   0  0  0  0  0  0  0  0  0  0  0  0
   -2.7140    4.4330    0.9680 C   0  0  0  0  0  0  0  0  0  0  0  0
   -3.0490    3.7240    1.9570 O   0  0  0  0  0  0  0  0  0  0  0  0
   -2.2490    3.7700   -0.1440 O   0  0  0  0  0  0  0  0  0  0  0  0
   -2.1490    2.3660   -0.1860 C   0  0  0  0  0  0  0  0  0  0  0  0
   -1.0020    1.6950    0.1800 C   0  0  0  0  0  0  0  0  0  0  0  0
    0.1750    2.4450    0.6640 C   0  0  0  0  0  0  0  0  0  0  0  0
    1.2970    1.6700    0.9600 O   0  0  0  0  0  0  0  0  0  0  0  0
    1.9980    0.9190    0.0350 C   0  0  0  0  0  0  0  0  0  0  0  0
    1.6120    0.9370   -1.1600 O   0  0  0  0  0  0  0  0  0  0  0  0
    3.1680    0.1110    0.4180 C   0  0  0  0  0  0  0  0  0  0  0  0
    3.6930    0.0020    1.6810 C   0  0  0  0  0  0  0  0  0  0  0  0
    4.7830   -0.8610    1.5580 C   0  0  0  0  0  0  0  0  0  0  0  0
    4.8520   -1.2200    0.2330 C   0  0  0  0  0  0  0  0  0  0  0  0
    5.8750   -2.1280   -0.3080 C   0  0  0  0  0  0  0  0  0  0  0  0
    5.8860   -2.4220   -1.5290 O   0  0  0  0  0  0  0  0  0  0  0  0
    6.8710   -2.6940    0.5240 N   0  0  0  0  0  0  0  0  0  0  0  0
    7.9010   -3.5960    0.0190 C   0  0  0  0  0  0  0  0  0  0  0  0
    8.7550   -2.9490   -1.0200 C   0  0  0  0  0  0  0  0  0  0  0  0
    9.7220   -3.7950   -1.5050 O   0  0  0  0  0  0  0  0  0  0  0  0
   10.6050   -4.2480   -0.5720 C   0  0  0  0  0  0  0  0  0  0  0  0
    3.8850   -0.6190   -0.3700 O   0  0  0  0  0  0  0  0  0  0  0  0
   -0.9860    0.3230    0.1110 C   0  0  0  0  0  0  0  0  0  0  0  0
   -2.1060   -0.4040   -0.3210 C   0  0  0  0  0  0  0  0  0  0  0  0
   -2.0470   -1.8810   -0.3880 C   0  0  0  0  0  0  0  0  0  0  0  0
   -0.9370   -2.4000   -0.3800 O   0  0  0  0  0  0  0  0  0  0  0  0
   -3.2220   -2.6310   -0.4550 N   0  0  0  0  0  0  0  0  0  0  0  0
   -3.3120   -4.0230   -0.5240 C   0  0  0  0  0  0  0  0  0  0  0  0
   -2.2040   -4.8190   -0.5510 C   0  0  0  0  0  0  0  0  0  0  0  0
   -2.4070   -6.2070   -0.6210 C   0  0  0  0  0  0  0  0  0  0  0  0
   -3.6400   -6.7880   -0.6640 C   0  0  0  0  0  0  0  0  0  0  0  0
   -4.7550   -5.9650   -0.6360 C   0  0  0  0  0  0  0  0  0  0  0  0
   -5.9780   -6.6020   -0.6810 O   0  0  0  0  0  0  0  0  0  0  0  0
   -4.5940   -4.6020   -0.5670 C   0  0  0  0  0  0  0  0  0  0  0  0
   -5.7690   -3.6980   -0.5380 C   0  0  0  0  0  0  0  0  0  0  0  0
   -3.2140    0.3160   -0.6710 C   0  0  0  0  0  0  0  0  0  0  0  0
   -3.2830    1.7110   -0.6190 C   0  0  0  0  0  0  0  0  0  0  0  0
   -4.4370    2.4040   -0.9860 O   0  0  0  0  0  0  0  0  0  0  0  0
   -5.5410    1.6310   -1.4150 C   0  0  0  0  0  0  0  0  0  0  0  0
  1  2  1  0
  2  3  1  0
  3  4  2  0
  3  5  1  0
  5  6  1  0
  6  7  1  0
  7  8  2  0
  7  9  1  0
  9 10  1  0
 10 11  2  0
 10 42  1  0
 11 12  1  0
 11 28  1  0
 12 13  1  0
 13 14  1  0
 14 15  2  0
 14 16  1  0
 16 17  2  0
 16 27  1  0
 17 18  1  0
 18 19  2  0
 19 20  1  0
 19 27  1  0
 20 21  2  0
 20 22  1  0
 22 23  1  0
 23 24  1  0
 24 25  1  0
 25 26  1  0
 28 29  2  0
 29 30  1  0
 29 41  1  0
 30 31  2  0
 30 32  1  0
 32 33  1  0
 33 34  2  0
 33 39  1  0
 34 35  1  0
 35 36  2  0
 36 37  1  0
 37 38  1  0
 37 39  2  0
 39 40  1  0
 41 42  2  0
 42 43  1  0
 43 44  1  0
M  END
