
     RDKit          3D

 44 45  0  0  0  0  0  0  0  0999 V2000
   -5.9400    1.7870   -3.1770 C   0  0  0  0  0  0  0  0  0  0  0  0
   -6.3220    2.7500   -2.0740 C   0  0  0  0  0  0  0  0  0  0  0  0
   -6.5600    1.9270   -0.8110 C   0  0  2  0  0  0  0  0  0  0  0  0
   -7.5780    1.0050   -1.0200 O   0  0  0  0  0  0  0  0  0  0  0  0
   -6.9540    2.7990    0.3270 C   0  0  0  0  0  0  0  0  0  0  0  0
   -6.2330    3.7020    0.7130 O   0  0  0  0  0  0  0  0  0  0  0  0
   -5.2570    1.2040   -0.5070 C   0  0  0  0  0  0  0  0  0  0  0  0
   -5.4060    0.3840    0.7040 C   0  0  0  0  0  0  0  0  0  0  0  0
   -6.5730    0.3140    1.2320 O   0  0  0  0  0  0  0  0  0  0  0  0
   -4.3720   -0.3380    1.3540 N   0  0  0  0  0  0  0  0  0  0  0  0
   -4.6670   -0.9690    2.6060 C   0  0  0  0  0  0  0  0  0  0  0  0
   -5.1600   -2.3630    2.3910 C   0  0  0  0  0  0  0  0  0  0  0  0
   -5.4750   -3.0570    3.5410 O   0  0  0  0  0  0  0  0  0  0  0  0
   -6.4630   -2.5050    4.3120 C   0  0  0  0  0  0  0  0  0  0  0  0
   -3.0880   -0.3430    0.7540 C   0  0  0  0  0  0  0  0  0  0  0  0
   -2.0800    0.4400    1.3090 C   0  0  0  0  0  0  0  0  0  0  0  0
   -0.8040    0.5190    0.8150 C   0  0  0  0  0  0  0  0  0  0  0  0
    0.4120    1.5840    1.6050 S   0  0  0  0  0  0  0  0  0  0  0  0
    1.9250    1.5430    0.6580 C   0  0  0  0  0  0  0  0  0  0  0  0
    2.9550    0.6830    0.9430 C   0  0  0  0  0  0  0  0  0  0  0  0
    4.1430    0.6310    0.2090 C   0  0  0  0  0  0  0  0  0  0  0  0
    5.1300   -0.2760    0.5860 N   0  0  0  0  0  0  0  0  0  0  0  0
    6.4520   -0.2500    0.1070 C   0  0  0  0  0  0  0  0  0  0  0  0
    6.8750    0.5950   -0.7100 O   0  0  0  0  0  0  0  0  0  0  0  0
    7.4300   -1.2230    0.5430 N   0  0  0  0  0  0  0  0  0  0  0  0
    8.7870   -1.1820    0.0440 C   0  0  2  0  0  0  0  0  0  0  0  0
    9.2020   -2.5570   -0.4010 C   0  0  0  0  0  0  0  0  0  0  0  0
    9.6950   -0.7390    1.1630 C   0  0  0  0  0  0  0  0  0  0  0  0
    9.2040   -0.4940    2.2710 O   0  0  0  0  0  0  0  0  0  0  0  0
   11.0550   -0.6040    0.9750 O   0  0  0  0  0  0  0  0  0  0  0  0
   11.8430   -0.1820    2.0700 C   0  0  0  0  0  0  0  0  0  0  0  0
    4.2520    1.4990   -0.8470 C   0  0  0  0  0  0  0  0  0  0  0  0
    3.2140    2.3910   -1.1630 C   0  0  0  0  0  0  0  0  0  0  0  0
    3.3010    3.2790   -2.2260 O   0  0  0  0  0  0  0  0  0  0  0  0
    4.3730    3.4210   -3.1030 C   0  0  0  0  0  0  0  0  0  0  0  0
    2.0600    2.4190   -0.4240 C   0  0  0  0  0  0  0  0  0  0  0  0
   -0.4850   -0.2120   -0.2890 C   0  0  0  0  0  0  0  0  0  0  0  0
    0.8150   -0.1560   -0.8220 O   0  0  0  0  0  0  0  0  0  0  0  0
   -1.4390   -1.0020   -0.8750 C   0  0  0  0  0  0  0  0  0  0  0  0
   -2.7440   -1.0720   -0.3610 C   0  0  0  0  0  0  0  0  0  0  0  0
   -3.6820   -1.9090   -1.0600 C   0  0  0  0  0  0  0  0  0  0  0  0
   -4.8690   -2.0150   -0.7170 O   0  0  0  0  0  0  0  0  0  0  0  0
   -3.2690   -2.6370   -2.1610 O   0  0  0  0  0  0  0  0  0  0  0  0
   -4.1940   -3.4600   -2.8460 C   0  0  0  0  0  0  0  0  0  0  0  0
  1  2  1  0
  2  3  1  0
  3  4  1  6
  3  5  1  0
  3  7  1  0
  5  6  2  0
  7  8  1  0
  8  9  2  0
  8 10  1  0
 10 11  1  0
 10 15  1  0
 11 12  1  0
 12 13  1  0
 13 14  1  0
 15 16  2  0
 15 40  1  0
 16 17  1  0
 17 18  1  0
 17 37  2  0
 18 19  1  0
 19 20  2  0
 19 36  1  0
 20 21  1  0
 21 22  1  0
 21 32  2  0
 22 23  1  0
 23 24  2  0
 23 25  1  0
 25 26  1  0
 26 27  1  1
 26 28  1  0
 28 29  2  0
 28 30  1  0
 30 31  1  0
 32 33  1  0
 33 34  1  0
 33 36  2  0
 34 35  1  0
 37 38  1  0
 37 39  1  0
 39 40  2  0
 40 41  1  0
 41 42  2  0
 41 43  1  0
 43 44  1  0
M  END
