
     RDKit          3D

 14 14  0  0  0  0  0  0  0  0999 V2000
    1.5460    1.3350   -1.3450 N   0  0  0  0  0  0  0  0  0  0  0  0
    1.4360    1.0250    0.0460 C   0  0  0  0  0  0  0  0  0  0  0  0
    0.3960   -0.0850    0.3160 C   0  0  2  0  0  0  0  0  0  0  0  0
    0.4370   -0.2510    1.7770 C   0  0  0  0  0  0  0  0  0  0  0  0
   -0.5340   -0.0730    2.5230 O   0  0  0  0  0  0  0  0  0  0  0  0
    1.6290   -0.6290    2.3590 O   0  0  0  0  0  0  0  0  0  0  0  0
    1.0360   -1.3170   -0.3050 C   0  0  0  0  0  0  0  0  0  0  0  0
    0.0630   -2.3530   -0.7230 C   0  0  0  0  0  0  0  0  0  0  0  0
   -1.2300   -2.0340   -0.3360 O   0  0  0  0  0  0  0  0  0  0  0  0
   -1.5570   -0.8610   -1.0550 C   0  0  0  0  0  0  0  0  0  0  0  0
   -0.9020    0.2750   -0.2810 C   0  0  2  0  0  0  0  0  0  0  0  0
   -0.6500    1.2780   -1.2510 O   0  0  0  0  0  0  0  0  0  0  0  0
   -1.9450    0.8430    0.6280 C   0  0  0  0  0  0  0  0  0  0  0  0
   -1.5510    2.0080    1.2820 O   0  0  0  0  0  0  0  0  0  0  0  0
  1  2  1  0
  3  2  1  1
  3  4  1  0
  3  7  1  0
  3 11  1  0
  4  5  2  0
  4  6  1  0
  7  8  1  0
  8  9  1  0
  9 10  1  0
 10 11  1  0
 11 12  1  6
 11 13  1  0
 13 14  1  0
M  END
