
     RDKit          3D

 15 15  0  0  0  0  0  0  0  0999 V2000
   -0.1330   -2.7020    1.0880 O   0  0  0  0  0  0  0  0  0  0  0  0
   -0.2610   -2.4160   -0.2840 C   0  0  2  0  0  0  0  0  0  0  0  0
    0.8970   -1.6190   -0.8070 C   0  0  0  0  0  0  0  0  0  0  0  0
    1.9800   -1.5450    0.1760 N   0  0  0  0  0  0  0  0  0  0  0  0
    2.2860   -0.1200    0.3570 C   0  0  2  0  0  0  0  0  0  0  0  0
    3.1920    0.2210   -0.6270 O   0  0  0  0  0  0  0  0  0  0  0  0
    2.8060    0.0630    1.6520 O   0  0  0  0  0  0  0  0  0  0  0  0
    1.0950    0.5560    0.2990 O   0  0  0  0  0  0  0  0  0  0  0  0
    1.1740    1.8430   -0.1690 C   0  0  0  0  0  0  0  0  0  0  0  0
   -0.1780    2.5020    0.1350 C   0  0  0  0  0  0  0  0  0  0  0  0
   -1.1030    2.1750   -0.8450 O   0  0  0  0  0  0  0  0  0  0  0  0
   -2.3020    1.7110   -0.3240 C   0  0  0  0  0  0  0  0  0  0  0  0
   -2.2350    0.2780    0.1320 C   0  0  0  0  0  0  0  0  0  0  0  0
   -1.5910   -0.4810   -0.8520 O   0  0  0  0  0  0  0  0  0  0  0  0
   -1.5970   -1.8300   -0.5870 C   0  0  0  0  0  0  0  0  0  0  0  0
  2  1  1  1
  2  3  1  0
  2 15  1  0
  3  4  1  0
  4  5  1  0
  5  6  1  6
  5  7  1  0
  5  8  1  0
  8  9  1  0
  9 10  1  0
 10 11  1  0
 11 12  1  0
 12 13  1  0
 13 14  1  0
 14 15  1  0
M  END
