
     RDKit          3D

 15 15  0  0  0  0  0  0  0  0999 V2000
    2.4480   -0.7320    1.6590 N   0  0  0  0  0  0  0  0  0  0  0  0
    2.4800    0.5070    0.8910 C   0  0  1  0  0  0  0  0  0  0  0  0
    3.8270    0.5610    0.2340 C   0  0  0  0  0  0  0  0  0  0  0  0
    4.8160    1.2240    0.6430 O   0  0  0  0  0  0  0  0  0  0  0  0
    3.7310   -0.2500   -0.8760 O   0  0  0  0  0  0  0  0  0  0  0  0
    2.3700   -0.4300   -1.2570 C   0  0  0  0  0  0  0  0  0  0  0  0
    1.5690    0.4460   -0.3030 C   0  0  2  0  0  0  0  0  0  0  0  0
    1.4240    1.7070   -0.8330 O   0  0  0  0  0  0  0  0  0  0  0  0
    0.2560   -0.2000    0.0800 C   0  0  0  0  0  0  0  0  0  0  0  0
   -0.6870   -0.2740   -1.1130 C   0  0  0  0  0  0  0  0  0  0  0  0
   -1.8870   -0.8560   -0.7990 O   0  0  0  0  0  0  0  0  0  0  0  0
   -2.6340   -0.2390    0.1660 C   0  0  2  0  0  0  0  0  0  0  0  0
   -2.8180   -1.1800    1.2080 O   0  0  0  0  0  0  0  0  0  0  0  0
   -4.0530    0.0760   -0.3240 C   0  0  0  0  0  0  0  0  0  0  0  0
   -4.7470    0.6920    0.6870 O   0  0  0  0  0  0  0  0  0  0  0  0
  2  1  1  1
  2  3  1  0
  2  7  1  0
  3  4  2  0
  3  5  1  0
  5  6  1  0
  6  7  1  0
  7  8  1  6
  7  9  1  0
  9 10  1  0
 10 11  1  0
 11 12  1  0
 12 13  1  1
 12 14  1  0
 14 15  1  0
M  END
