
     RDKit          3D

 14 14  0  0  0  0  0  0  0  0999 V2000
   -0.9260    1.5090   -0.6370 C   0  0  0  0  0  0  0  0  0  0  0  0
   -0.9320    0.0970   -0.0340 C   0  0  2  0  0  0  0  0  0  0  0  0
    0.2780   -0.6040   -0.5700 C   0  0  1  0  0  0  0  0  0  0  0  0
    0.1660   -0.7590   -2.0170 N   0  0  0  0  0  0  0  0  0  0  0  0
    1.3780    0.2490   -0.3480 O   0  0  0  0  0  0  0  0  0  0  0  0
    2.3890   -0.3580    0.3520 C   0  0  2  0  0  0  0  0  0  0  0  0
    2.5810    0.3750    1.5330 O   0  0  0  0  0  0  0  0  0  0  0  0
    3.7180   -0.2920   -0.4070 C   0  0  0  0  0  0  0  0  0  0  0  0
    4.6910   -0.9290    0.3680 O   0  0  0  0  0  0  0  0  0  0  0  0
   -2.2300   -0.5370   -0.4410 C   0  0  0  0  0  0  0  0  0  0  0  0
   -3.3490    0.3440    0.0820 C   0  0  0  0  0  0  0  0  0  0  0  0
   -3.0700    0.7730    1.3770 O   0  0  0  0  0  0  0  0  0  0  0  0
   -2.0650   -0.0080    1.9390 C   0  0  0  0  0  0  0  0  0  0  0  0
   -0.8210    0.2420    1.3400 O   0  0  0  0  0  0  0  0  0  0  0  0
  2  1  1  6
  2  3  1  0
  2 10  1  0
  2 14  1  0
  3  4  1  6
  3  5  1  0
  5  6  1  0
  6  7  1  1
  6  8  1  0
  8  9  1  0
 10 11  1  0
 11 12  1  0
 12 13  1  0
 13 14  1  0
M  END
