
     RDKit          3D

 15 15  0  0  0  0  0  0  0  0999 V2000
    1.9880   -0.8000    1.4510 C   0  0  0  0  0  0  0  0  0  0  0  0
    1.3030   -0.6660    0.0800 C   0  0  2  0  0  0  0  0  0  0  0  0
    2.3820   -0.8540   -0.9160 C   0  0  0  0  0  0  0  0  0  0  0  0
    2.7070    0.2240   -1.7730 N   0  0  0  0  0  0  0  0  0  0  0  0
    3.0130   -1.9300   -1.0230 O   0  0  0  0  0  0  0  0  0  0  0  0
    0.7880    0.5570   -0.0020 O   0  0  0  0  0  0  0  0  0  0  0  0
   -0.4780    0.8130    0.4120 C   0  0  1  0  0  0  0  0  0  0  0  0
   -0.9650    2.0590   -0.3050 C   0  0  0  0  0  0  0  0  0  0  0  0
   -2.2750    2.3910    0.0730 O   0  0  0  0  0  0  0  0  0  0  0  0
   -1.4560   -0.3070    0.3560 C   0  0  1  0  0  0  0  0  0  0  0  0
   -2.1860   -0.3920   -0.9820 C   0  0  0  0  0  0  0  0  0  0  0  0
   -3.1460   -1.4180   -0.8130 O   0  0  0  0  0  0  0  0  0  0  0  0
   -0.8820   -1.5840    0.5540 O   0  0  0  0  0  0  0  0  0  0  0  0
    0.3660   -1.7980   -0.0060 C   0  0  0  0  0  0  0  0  0  0  0  0
    0.7350   -2.8640   -0.5630 O   0  0  0  0  0  0  0  0  0  0  0  0
  2  1  1  1
  2  3  1  0
  2  6  1  0
  2 14  1  0
  3  4  1  0
  3  5  2  0
  6  7  1  0
  7  8  1  6
  7 10  1  0
  8  9  1  0
 10 11  1  6
 10 13  1  0
 11 12  1  0
 13 14  1  0
 14 15  2  0
M  END
