
     RDKit          3D

 15 15  0  0  0  0  0  0  0  0999 V2000
    4.9580    1.1570    0.1520 N   0  0  0  0  0  0  0  0  0  0  0  0
    4.1610    0.2330   -0.4410 O   0  0  0  0  0  0  0  0  0  0  0  0
    2.8520    0.5390   -0.0500 C   0  0  0  0  0  0  0  0  0  0  0  0
    1.8660   -0.4550   -0.6710 C   0  0  1  0  0  0  0  0  0  0  0  0
    2.1620   -1.7430   -0.2590 O   0  0  0  0  0  0  0  0  0  0  0  0
    0.4820   -0.0120   -0.2340 C   0  0  2  0  0  0  0  0  0  0  0  0
    0.4630   -0.0690    1.1430 O   0  0  0  0  0  0  0  0  0  0  0  0
   -0.5990   -0.8600   -0.8020 C   0  0  0  0  0  0  0  0  0  0  0  0
   -1.9430   -0.3580   -0.3360 C   0  0  1  0  0  0  0  0  0  0  0  0
   -3.0500   -1.2310   -0.9380 C   0  0  0  0  0  0  0  0  0  0  0  0
   -4.2470   -0.7370   -0.4160 O   0  0  0  0  0  0  0  0  0  0  0  0
   -2.0960   -0.3280    1.1540 C   0  0  0  0  0  0  0  0  0  0  0  0
   -1.8890    0.9860    1.5340 O   0  0  0  0  0  0  0  0  0  0  0  0
   -2.1010    1.7630    0.3970 C   0  0  0  0  0  0  0  0  0  0  0  0
   -2.1470    0.9490   -0.7000 O   0  0  0  0  0  0  0  0  0  0  0  0
  1  2  1  0
  2  3  1  0
  3  4  1  0
  4  5  1  1
  4  6  1  0
  6  7  1  1
  6  8  1  0
  9  8  1  1
  9 10  1  0
  9 12  1  0
  9 15  1  0
 10 11  1  0
 12 13  1  0
 13 14  1  0
 14 15  1  0
M  END
