
     RDKit          3D

 15 15  0  0  0  0  0  0  0  0999 V2000
    4.3770    1.8240   -0.0150 N   0  0  0  0  0  0  0  0  0  0  0  0
    3.3100    1.4860   -0.7300 O   0  0  0  0  0  0  0  0  0  0  0  0
    2.9730    0.1300   -0.6210 C   0  0  0  0  0  0  0  0  0  0  0  0
    1.5970    0.2520    0.2240 C   0  0  2  0  0  0  0  0  0  0  0  0
    2.2220    0.5400    1.4630 O   0  0  0  0  0  0  0  0  0  0  0  0
    0.9280   -1.0360    0.2090 C   0  0  2  0  0  0  0  0  0  0  0  0
    1.7790   -1.9980   -0.2750 O   0  0  0  0  0  0  0  0  0  0  0  0
   -0.3650   -0.9960   -0.6210 C   0  0  1  0  0  0  0  0  0  0  0  0
   -0.7890   -2.3860   -0.4440 O   0  0  0  0  0  0  0  0  0  0  0  0
   -1.4460   -0.2380    0.1920 C   0  0  2  0  0  0  0  0  0  0  0  0
   -2.7020   -0.9990    0.1890 C   0  0  0  0  0  0  0  0  0  0  0  0
   -3.6570   -0.2050    0.8440 O   0  0  0  0  0  0  0  0  0  0  0  0
   -3.8890    0.8480   -0.0350 C   0  0  0  0  0  0  0  0  0  0  0  0
   -2.6570    1.5990   -0.4300 C   0  0  0  0  0  0  0  0  0  0  0  0
   -1.4520    1.1100    0.0360 O   0  0  0  0  0  0  0  0  0  0  0  0
  1  2  1  0
  2  3  1  0
  3  4  1  0
  4  5  1  1
  4  6  1  0
  6  7  1  6
  6  8  1  0
  8  9  1  1
  8 10  1  0
 10 11  1  6
 10 15  1  0
 11 12  1  0
 12 13  1  0
 13 14  1  0
 14 15  1  0
M  END
