
     RDKit          3D

 22 24  0  0  0  0  0  0  0  0999 V2000
   -5.2970    1.9420   -0.4040 C   0  0  0  0  0  0  0  0  0  0  0  0
   -4.6350    1.2860    0.7580 C   0  0  0  0  0  0  0  0  0  0  0  0
   -3.3530    0.6900    0.4430 N   0  0  0  0  0  0  0  0  0  0  0  0
   -3.3440   -0.6820    0.0070 C   0  0  0  0  0  0  0  0  0  0  0  0
   -2.0220   -1.2300   -0.2980 C   0  0  0  0  0  0  0  0  0  0  0  0
   -1.9640   -2.6500   -0.7540 C   0  0  0  0  0  0  0  0  0  0  0  0
   -0.8670   -0.5940   -0.2110 C   0  0  0  0  0  0  0  0  0  0  0  0
   -0.8990    0.7990    0.2340 C   0  0  0  0  0  0  0  0  0  0  0  0
    0.1770    1.5050    0.3520 N   0  0  0  0  0  0  0  0  0  0  0  0
    1.4610    0.9280    0.0420 C   0  0  0  0  0  0  0  0  0  0  0  0
    2.3510    0.6490    1.0550 C   0  0  0  0  0  0  0  0  0  0  0  0
    3.5720    0.0980    0.7310 C   0  0  0  0  0  0  0  0  0  0  0  0
    4.5110   -0.2040    1.7250 C   0  0  0  0  0  0  0  0  0  0  0  0
    5.7230   -0.7510    1.4030 C   0  0  0  0  0  0  0  0  0  0  0  0
    5.9970   -0.9960    0.0810 C   0  0  0  0  0  0  0  0  0  0  0  0
    5.0770   -0.7010   -0.9070 C   0  0  0  0  0  0  0  0  0  0  0  0
    3.8550   -0.1520   -0.5980 C   0  0  0  0  0  0  0  0  0  0  0  0
    2.9580    0.1340   -1.5790 N   0  0  0  0  0  0  0  0  0  0  0  0
    1.7650    0.6710   -1.2760 C   0  0  0  0  0  0  0  0  0  0  0  0
    0.9710    0.9170   -2.2130 O   0  0  0  0  0  0  0  0  0  0  0  0
   -2.1640    1.4420    0.5640 C   0  0  0  0  0  0  0  0  0  0  0  0
   -2.1800    2.6240    0.9400 O   0  0  0  0  0  0  0  0  0  0  0  0
  1  2  1  0
  2  3  1  0
  3  4  1  0
  3 21  1  0
  4  5  1  0
  5  6  1  0
  5  7  2  0
  7  8  1  0
  8  9  2  3
  8 21  1  0
  9 10  1  0
 10 11  2  0
 10 19  1  0
 11 12  1  0
 12 13  2  0
 12 17  1  0
 13 14  1  0
 14 15  2  0
 15 16  1  0
 16 17  2  0
 17 18  1  0
 18 19  1  0
 19 20  2  0
 21 22  2  0
M  END
