
     RDKit          3D

 22 24  0  0  0  0  0  0  0  0999 V2000
   -5.5910   -1.3810   -0.0650 C   0  0  0  0  0  0  0  0  0  0  0  0
   -4.4890   -0.7400    0.2700 C   0  0  0  0  0  0  0  0  0  0  0  0
   -4.4220   -0.0820    1.5850 C   0  0  0  0  0  0  0  0  0  0  0  0
   -3.1510    0.6040    1.8110 C   0  0  0  0  0  0  0  0  0  0  0  0
   -2.1250    0.6510    0.9690 C   0  0  0  0  0  0  0  0  0  0  0  0
   -0.8860    1.3960    1.3440 C   0  0  0  0  0  0  0  0  0  0  0  0
    0.2710    0.5560    1.3790 N   0  0  0  0  0  0  0  0  0  0  0  0
    0.3120   -0.4750    2.4330 C   0  0  0  0  0  0  0  0  0  0  0  0
    1.3700    0.6460    0.5040 C   0  0  0  0  0  0  0  0  0  0  0  0
    1.4910    1.5710   -0.5080 C   0  0  0  0  0  0  0  0  0  0  0  0
    2.5850    1.6500   -1.3580 C   0  0  0  0  0  0  0  0  0  0  0  0
    3.6310    0.7650   -1.2090 C   0  0  0  0  0  0  0  0  0  0  0  0
    3.5390   -0.1780   -0.1990 C   0  0  0  0  0  0  0  0  0  0  0  0
    4.7100   -0.9210   -0.2770 C   0  0  0  0  0  0  0  0  0  0  0  0
    5.4500   -0.4030   -1.3180 C   0  0  0  0  0  0  0  0  0  0  0  0
    4.7920    0.6240   -1.8840 N   0  0  0  0  0  0  0  0  0  0  0  0
    5.2310    1.3820   -2.9540 O   0  0  0  0  0  0  0  0  0  0  0  0
    2.4430   -0.2310    0.6260 C   0  0  0  0  0  0  0  0  0  0  0  0
   -2.2430   -0.0240   -0.3100 C   0  0  0  0  0  0  0  0  0  0  0  0
   -1.2680   -0.0160   -1.1850 N   0  0  0  0  0  0  0  0  0  0  0  0
   -1.4310   -0.7020   -2.4440 C   0  0  0  0  0  0  0  0  0  0  0  0
   -3.4200   -0.6930   -0.6080 O   0  0  0  0  0  0  0  0  0  0  0  0
  1  2  2  0
  2  3  1  0
  2 22  1  0
  3  4  1  0
  4  5  2  0
  5  6  1  0
  5 19  1  0
  6  7  1  0
  7  8  1  0
  7  9  1  0
  9 10  2  0
  9 18  1  0
 10 11  1  0
 11 12  2  0
 12 13  1  0
 12 16  1  0
 13 14  1  0
 13 18  2  0
 14 15  2  0
 15 16  1  0
 16 17  1  0
 19 20  2  3
 19 22  1  0
 20 21  1  0
M  END
