
     RDKit          3D

 22 24  0  0  0  0  0  0  0  0999 V2000
   -3.4530   -3.0240    0.0760 C   0  0  0  0  0  0  0  0  0  0  0  0
   -2.0060   -2.5070    0.0640 C   0  0  0  0  0  0  0  0  0  0  0  0
   -2.0450   -1.0150    0.0380 C   0  0  0  0  0  0  0  0  0  0  0  0
   -3.2450   -0.3320    0.0280 C   0  0  0  0  0  0  0  0  0  0  0  0
   -3.2960    1.0460    0.0040 C   0  0  0  0  0  0  0  0  0  0  0  0
   -4.6020    1.7660   -0.0060 C   0  0  0  0  0  0  0  0  0  0  0  0
   -2.1250    1.7040   -0.0090 N   0  0  0  0  0  0  0  0  0  0  0  0
   -0.9150    1.0670    0.0000 C   0  0  0  0  0  0  0  0  0  0  0  0
   -0.8520   -0.3230    0.0240 C   0  0  0  0  0  0  0  0  0  0  0  0
    0.3740   -0.9340    0.0330 C   0  0  0  0  0  0  0  0  0  0  0  0
    0.4510   -2.1680    0.0550 O   0  0  0  0  0  0  0  0  0  0  0  0
    1.5370   -0.1600    0.0180 C   0  0  0  0  0  0  0  0  0  0  0  0
    2.7830   -0.7610    0.0260 C   0  0  0  0  0  0  0  0  0  0  0  0
    3.9600   -0.0570    0.0120 C   0  0  0  0  0  0  0  0  0  0  0  0
    5.2580   -0.6300    0.0080 N   0  0  0  0  0  0  0  0  0  0  0  0
    5.5810   -1.9810   -0.1390 C   0  0  0  0  0  0  0  0  0  0  0  0
    4.6980   -2.8370   -0.2900 O   0  0  0  0  0  0  0  0  0  0  0  0
    3.8020    1.3350   -0.0120 C   0  0  0  0  0  0  0  0  0  0  0  0
    2.5830    1.9580   -0.0210 C   0  0  0  0  0  0  0  0  0  0  0  0
    1.4250    1.2130   -0.0060 C   0  0  0  0  0  0  0  0  0  0  0  0
    0.2070    1.7940   -0.0140 N   0  0  0  0  0  0  0  0  0  0  0  0
    0.1390    3.2320   -0.0390 C   0  0  0  0  0  0  0  0  0  0  0  0
  1  2  1  0
  2  3  1  0
  3  4  2  0
  3  9  1  0
  4  5  1  0
  5  6  1  0
  5  7  2  0
  7  8  1  0
  8  9  2  0
  8 21  1  0
  9 10  1  0
 10 11  2  0
 10 12  1  0
 12 13  2  0
 12 20  1  0
 13 14  1  0
 14 15  1  0
 14 18  2  0
 15 16  1  0
 16 17  2  0
 18 19  1  0
 19 20  2  0
 20 21  1  0
 21 22  1  0
M  END
