
     RDKit          3D

 22 24  0  0  0  0  0  0  0  0999 V2000
   -0.3290   -1.4760   -1.7270 C   0  0  0  0  0  0  0  0  0  0  0  0
   -1.3090   -0.9210   -0.7620 C   0  0  0  0  0  0  0  0  0  0  0  0
   -1.0250   -0.3550    0.4360 C   0  0  0  0  0  0  0  0  0  0  0  0
    0.1750   -0.0800    1.1930 C   0  0  0  0  0  0  0  0  0  0  0  0
   -0.0560    0.5630    2.3540 O   0  0  0  0  0  0  0  0  0  0  0  0
    1.5240   -0.3030    1.0470 N   0  0  0  0  0  0  0  0  0  0  0  0
    2.2170   -0.9520    0.0010 C   0  0  0  0  0  0  0  0  0  0  0  0
    3.7120   -1.0310    0.4480 C   0  0  0  0  0  0  0  0  0  0  0  0
    4.2520    0.2320    0.6080 O   0  0  0  0  0  0  0  0  0  0  0  0
    3.5960    0.9400    1.6130 C   0  0  1  0  0  0  0  0  0  0  0  0
    3.3030    2.3240    1.1050 C   0  0  0  0  0  0  0  0  0  0  0  0
    4.5990    3.0210    0.7490 C   0  0  0  0  0  0  0  0  0  0  0  0
    4.3330    4.3640    0.2580 C   0  0  0  0  0  0  0  0  0  0  0  0
    4.1370    5.4380   -0.1410 N   0  0  0  0  0  0  0  0  0  0  0  0
    2.3960    0.2070    2.1260 C   0  0  0  0  0  0  0  0  0  0  0  0
   -2.2450    0.0100    0.9510 N   0  0  0  0  0  0  0  0  0  0  0  0
   -3.2380   -0.3100    0.1190 C   0  0  0  0  0  0  0  0  0  0  0  0
   -2.7010   -0.8930   -0.9630 C   0  0  0  0  0  0  0  0  0  0  0  0
   -3.4500   -1.4060   -2.1290 C   0  0  0  0  0  0  0  0  0  0  0  0
   -4.9210   -1.3880   -1.9480 C   0  0  0  0  0  0  0  0  0  0  0  0
   -5.3490   -1.3060   -0.5000 C   0  0  0  0  0  0  0  0  0  0  0  0
   -4.7310   -0.1310    0.2020 C   0  0  0  0  0  0  0  0  0  0  0  0
  1  2  1  0
  2  3  2  0
  2 18  1  0
  3  4  1  0
  3 16  1  0
  4  5  2  0
  4  6  1  0
  6  7  1  0
  6 15  1  0
  7  8  1  0
  8  9  1  0
  9 10  1  0
 10 11  1  6
 10 15  1  0
 11 12  1  0
 12 13  1  0
 13 14  3  0
 16 17  1  0
 17 18  2  0
 17 22  1  0
 18 19  1  0
 19 20  1  0
 20 21  1  0
 21 22  1  0
M  END
