
     RDKit          3D

 11 12  0  0  0  0  0  0  0  0999 V2000
   -3.1890   -0.1560    0.0640 N   0  0  0  0  0  0  0  0  0  0  0  0
   -2.0380   -1.0340    0.0970 C   0  0  0  0  0  0  0  0  0  0  0  0
   -0.7640   -0.2740    0.1770 C   0  0  0  0  0  0  0  0  0  0  0  0
   -0.7130    1.1030    0.2180 C   0  0  0  0  0  0  0  0  0  0  0  0
    0.4940    1.7670    0.2920 C   0  0  0  0  0  0  0  0  0  0  0  0
    1.6790    1.0620    0.3260 C   0  0  0  0  0  0  0  0  0  0  0  0
    2.9520    1.4080    0.3940 O   0  0  0  0  0  0  0  0  0  0  0  0
    3.7310    0.3740    0.4010 C   0  0  0  0  0  0  0  0  0  0  0  0
    2.9580   -0.7640    0.3330 C   0  0  0  0  0  0  0  0  0  0  0  0
    1.6540   -0.3170    0.2860 C   0  0  0  0  0  0  0  0  0  0  0  0
    0.4310   -0.9590    0.2120 C   0  0  0  0  0  0  0  0  0  0  0  0
  1  2  1  0
  2  3  1  0
  3  4  2  0
  3 11  1  0
  4  5  1  0
  5  6  2  0
  6  7  1  0
  6 10  1  0
  7  8  1  0
  8  9  2  0
  9 10  1  0
 10 11  2  0
M  CHG  1   1   1
M  END
