
     RDKit          3D

 21 23  0  0  0  0  0  0  0  0999 V2000
    1.9090   -3.1890    0.5990 C   0  0  0  0  0  0  0  0  0  0  0  0
    2.1430   -1.9000    0.4190 C   0  0  0  0  0  0  0  0  0  0  0  0
    1.2310   -0.8920    0.8280 N   0  0  0  0  0  0  0  0  0  0  0  0
    1.4750    0.3620    0.6440 C   0  0  0  0  0  0  0  0  0  0  0  0
    0.5090    1.3160    1.0830 N   0  0  0  0  0  0  0  0  0  0  0  0
   -0.8690    1.1120    0.8540 C   0  0  0  0  0  0  0  0  0  0  0  0
   -1.7580    2.0330    1.4040 C   0  0  0  0  0  0  0  0  0  0  0  0
   -3.1160    1.9290    1.2350 C   0  0  0  0  0  0  0  0  0  0  0  0
   -4.2300    3.0900    1.9300 Cl  0  0  0  0  0  0  0  0  0  0  0  0
   -3.6420    0.8780    0.4930 C   0  0  0  0  0  0  0  0  0  0  0  0
   -2.7880   -0.0280   -0.0500 C   0  0  0  0  0  0  0  0  0  0  0  0
   -1.4200    0.0920    0.1300 C   0  0  0  0  0  0  0  0  0  0  0  0
   -3.5740   -1.0620   -0.7980 C   0  0  0  0  0  0  0  0  0  0  0  0
   -4.9560   -0.9600   -0.1640 C   0  0  0  0  0  0  0  0  0  0  0  0
   -5.0420    0.4980    0.1340 C   0  0  0  0  0  0  0  0  0  0  0  0
    2.6930    0.7980    0.0120 N   0  0  0  0  0  0  0  0  0  0  0  0
    3.5790   -0.0470   -0.3910 C   0  0  0  0  0  0  0  0  0  0  0  0
    4.7520    0.5000   -1.0060 N   0  0  0  0  0  0  0  0  0  0  0  0
    5.2580    1.8080   -0.6380 C   0  0  0  0  0  0  0  0  0  0  0  0
    3.3870   -1.4730   -0.2250 C   0  0  0  0  0  0  0  0  0  0  0  0
    4.2730   -2.3060   -0.6290 N   0  0  0  0  0  0  0  0  0  0  0  0
  1  2  2  0
  2  3  1  0
  2 20  1  0
  3  4  2  0
  4  5  1  0
  4 16  1  0
  5  6  1  0
  6  7  2  0
  6 12  1  0
  7  8  1  0
  8  9  1  0
  8 10  2  0
 10 11  1  0
 10 15  1  0
 11 12  2  0
 11 13  1  0
 13 14  1  0
 14 15  1  0
 16 17  2  0
 17 18  1  0
 17 20  1  0
 18 19  1  0
 20 21  2  0
M  END
