
     RDKit          3D

 21 23  0  0  0  0  0  0  0  0999 V2000
    5.4700    1.4540   -1.6670 C   0  0  0  0  0  0  0  0  0  0  0  0
    5.0130    0.3760   -0.7540 C   0  0  0  0  0  0  0  0  0  0  0  0
    3.7190    0.1580   -0.5010 N   0  0  0  0  0  0  0  0  0  0  0  0
    3.3040   -0.8140    0.3220 C   0  0  0  0  0  0  0  0  0  0  0  0
    1.8760   -1.0110    0.5650 C   0  0  0  0  0  0  0  0  0  0  0  0
    1.0260   -0.2230   -0.0350 C   0  0  0  0  0  0  0  0  0  0  0  0
   -0.4330   -0.3550    0.1560 C   0  0  0  0  0  0  0  0  0  0  0  0
   -1.0840   -1.2410    0.9210 N   0  0  0  0  0  0  0  0  0  0  0  0
   -2.4260   -1.0540    0.8440 C   0  0  0  0  0  0  0  0  0  0  0  0
   -3.4770   -1.8520    1.5600 C   0  0  0  0  0  0  0  0  0  0  0  0
   -2.6250    0.0010   -0.0130 C   0  0  0  0  0  0  0  0  0  0  0  0
   -3.8760    0.6070   -0.4400 C   0  0  0  0  0  0  0  0  0  0  0  0
   -5.1460    0.2530   -0.0770 C   0  0  0  0  0  0  0  0  0  0  0  0
   -6.0630    1.1000   -0.7220 C   0  0  0  0  0  0  0  0  0  0  0  0
   -5.3370    1.9510   -1.4620 N   0  0  0  0  0  0  0  0  0  0  0  0
   -4.0180    1.6690   -1.3050 C   0  0  0  0  0  0  0  0  0  0  0  0
   -1.3710    0.3910   -0.4050 N   0  0  0  0  0  0  0  0  0  0  0  0
    4.2310   -1.5900    0.9070 N   0  0  0  0  0  0  0  0  0  0  0  0
    5.5390   -1.4400    0.7090 C   0  0  0  0  0  0  0  0  0  0  0  0
    5.9510   -0.4350   -0.1410 C   0  0  0  0  0  0  0  0  0  0  0  0
    7.6270   -0.1550   -0.4660 Cl  0  0  0  0  0  0  0  0  0  0  0  0
  1  2  1  0
  2  3  2  0
  2 20  1  0
  3  4  1  0
  4  5  1  0
  4 18  2  0
  5  6  2  3
  6  7  1  0
  7  8  2  0
  7 17  1  0
  8  9  1  0
  9 10  1  0
  9 11  2  0
 11 12  1  0
 11 17  1  0
 12 13  1  0
 12 16  2  0
 13 14  2  0
 14 15  1  0
 15 16  1  0
 18 19  1  0
 19 20  2  0
 20 21  1  0
M  END
