
     RDKit          3D

 24 24  0  0  0  0  0  0  0  0999 V2000
   -0.4250   -3.3090   -2.3630 O   0  0  0  0  0  0  0  0  0  0  0  0
   -0.5040   -2.5690   -1.2830 C   0  0  0  0  0  0  0  0  0  0  0  0
   -1.3910   -1.4890   -1.4210 N   0  0  0  0  0  0  0  0  0  0  0  0
   -1.1280   -0.0660   -1.4230 C   0  0  0  0  0  0  0  0  0  0  0  0
   -2.2170    0.7230   -0.7410 C   0  0  1  0  0  0  0  0  0  0  0  0
   -2.8640   -0.1060    0.2330 N   0  0  0  0  0  0  0  0  0  0  0  0
   -4.2390   -0.4550   -0.1710 C   0  0  0  0  0  0  0  0  0  0  0  0
   -5.2020    0.4910    0.5300 C   0  0  0  0  0  0  0  0  0  0  0  0
   -5.0520    0.3470    1.9000 O   0  0  0  0  0  0  0  0  0  0  0  0
   -1.7300    2.0280   -0.2250 C   0  0  0  0  0  0  0  0  0  0  0  0
   -0.8470    2.2080    0.7270 C   0  0  0  0  0  0  0  0  0  0  0  0
   -0.1410    1.1500    1.4950 C   0  0  0  0  0  0  0  0  0  0  0  0
    1.3290    1.1220    1.2440 C   0  0  0  0  0  0  0  0  0  0  0  0
    1.8290   -0.3180    1.3070 C   0  0  2  0  0  0  0  0  0  0  0  0
    2.6910   -0.6440    0.1630 C   0  0  0  0  0  0  0  0  0  0  0  0
    2.5520   -1.7040   -0.4510 O   0  0  0  0  0  0  0  0  0  0  0  0
    3.6940    0.2720   -0.2380 N   0  0  0  0  0  0  0  0  0  0  0  0
    4.5610   -0.0210   -1.3630 C   0  0  0  0  0  0  0  0  0  0  0  0
    5.5400    1.1130   -1.5830 C   0  0  0  0  0  0  0  0  0  0  0  0
    6.3300    1.3080   -0.4720 O   0  0  0  0  0  0  0  0  0  0  0  0
    0.8270   -1.2720    1.6470 N   0  0  0  0  0  0  0  0  0  0  0  0
    0.4730   -2.5130    1.0930 C   0  0  0  0  0  0  0  0  0  0  0  0
    0.2700   -3.4030    2.0430 O   0  0  0  0  0  0  0  0  0  0  0  0
    0.2970   -2.9830   -0.1990 N   0  0  0  0  0  0  0  0  0  0  0  0
  1  2  2  0
  2  3  1  0
  2 24  1  0
  3  4  1  0
  4  5  1  0
  5  6  1  1
  5 10  1  0
  6  7  1  0
  7  8  1  0
  8  9  1  0
 10 11  2  0
 11 12  1  0
 12 13  1  0
 13 14  1  0
 14 15  1  6
 14 21  1  0
 15 16  2  0
 15 17  1  0
 17 18  1  0
 18 19  1  0
 19 20  1  0
 21 22  1  0
 22 23  2  0
 22 24  1  0
M  CHG  1   6   1
M  END
