
     RDKit          3D

 21 23  0  0  0  0  0  0  0  0999 V2000
   -3.6440   -1.1230    1.5140 C   0  0  0  0  0  0  0  0  0  0  0  0
   -3.4640    0.1020    0.9830 C   0  0  0  0  0  0  0  0  0  0  0  0
   -4.4320    1.3910    1.6150 Cl  0  0  0  0  0  0  0  0  0  0  0  0
   -2.4950    0.2470   -0.0580 C   0  0  0  0  0  0  0  0  0  0  0  0
   -2.2430    1.3920   -0.6390 C   0  0  0  0  0  0  0  0  0  0  0  0
   -2.9380    2.6360   -0.2640 C   0  0  0  0  0  0  0  0  0  0  0  0
   -1.7340   -0.9940   -0.4490 C   0  0  0  0  0  0  0  0  0  0  0  0
   -0.6840   -0.6710   -1.4130 N   0  0  0  0  0  0  0  0  0  0  0  0
   -0.2080   -1.8730   -2.0530 C   0  0  0  0  0  0  0  0  0  0  0  0
    0.6230   -2.7620   -1.2380 C   0  0  0  0  0  0  0  0  0  0  0  0
    1.6560   -2.0400   -0.4570 C   0  0  0  0  0  0  0  0  0  0  0  0
    2.8060   -2.4490    0.1440 N   0  0  0  0  0  0  0  0  0  0  0  0
    3.3670   -1.4210    0.7060 N   0  0  0  0  0  0  0  0  0  0  0  0
    2.6090   -0.3200    0.4930 C   0  0  0  0  0  0  0  0  0  0  0  0
    2.8770    1.0430    0.9430 C   0  0  0  0  0  0  0  0  0  0  0  0
    2.0510    1.9650    1.5410 C   0  0  0  0  0  0  0  0  0  0  0  0
    2.7710    3.1050    1.7720 N   0  0  0  0  0  0  0  0  0  0  0  0
    4.0100    2.9350    1.3430 N   0  0  0  0  0  0  0  0  0  0  0  0
    4.1120    1.6970    0.8340 C   0  0  0  0  0  0  0  0  0  0  0  0
    1.5010   -0.7090   -0.2580 C   0  0  0  0  0  0  0  0  0  0  0  0
    0.3800    0.0600   -0.7630 C   0  0  0  0  0  0  0  0  0  0  0  0
  1  2  2  0
  2  3  1  0
  2  4  1  0
  4  5  2  3
  4  7  1  0
  5  6  1  0
  7  8  1  0
  8  9  1  0
  8 21  1  0
  9 10  1  0
 10 11  1  0
 11 12  1  0
 11 20  2  0
 12 13  1  0
 13 14  2  0
 14 15  1  0
 14 20  1  0
 15 16  1  0
 15 19  2  0
 16 17  2  0
 17 18  1  0
 18 19  1  0
 20 21  1  0
M  END
