
     RDKit          3D

 21 23  0  0  0  0  0  0  0  0999 V2000
   -3.7700    1.9880   -1.9070 C   0  0  0  0  0  0  0  0  0  0  0  0
   -2.9370    1.1020   -1.0780 C   0  0  0  0  0  0  0  0  0  0  0  0
   -1.6080    0.8560   -1.2570 N   0  0  0  0  0  0  0  0  0  0  0  0
   -1.1820    0.0150   -0.3340 N   0  0  0  0  0  0  0  0  0  0  0  0
    0.1600   -0.4410   -0.2470 C   0  0  0  0  0  0  0  0  0  0  0  0
    0.4960   -1.7300   -0.6650 C   0  0  0  0  0  0  0  0  0  0  0  0
   -0.7870   -2.7250   -1.2850 Cl  0  0  0  0  0  0  0  0  0  0  0  0
    1.7740   -2.1980   -0.5940 C   0  0  0  0  0  0  0  0  0  0  0  0
    2.7970   -1.4230   -0.1070 C   0  0  0  0  0  0  0  0  0  0  0  0
    4.2040   -1.9280   -0.0260 C   0  0  0  0  0  0  0  0  0  0  0  0
    2.5040   -0.1390    0.3170 C   0  0  0  0  0  0  0  0  0  0  0  0
    3.5130    0.6750    0.8160 C   0  0  0  0  0  0  0  0  0  0  0  0
    3.2410    1.9290    1.2340 N   0  0  0  0  0  0  0  0  0  0  0  0
    1.9700    2.3860    1.1610 C   0  0  0  0  0  0  0  0  0  0  0  0
    0.9350    1.6160    0.6730 C   0  0  0  0  0  0  0  0  0  0  0  0
    1.1940    0.3300    0.2410 C   0  0  0  0  0  0  0  0  0  0  0  0
   -2.2320   -0.2920    0.4520 C   0  0  0  0  0  0  0  0  0  0  0  0
   -2.1560   -1.1760    1.5590 N   0  0  0  0  0  0  0  0  0  0  0  0
   -3.3580    0.3760    0.0120 C   0  0  0  0  0  0  0  0  0  0  0  0
   -4.6840    0.3510    0.5370 C   0  0  0  0  0  0  0  0  0  0  0  0
   -5.7450    0.3480    0.9670 N   0  0  0  0  0  0  0  0  0  0  0  0
  1  2  1  0
  2  3  2  0
  2 19  1  0
  3  4  1  0
  4  5  1  0
  4 17  1  0
  5  6  2  0
  5 16  1  0
  6  7  1  0
  6  8  1  0
  8  9  2  0
  9 10  1  0
  9 11  1  0
 11 12  2  0
 11 16  1  0
 12 13  1  0
 13 14  2  0
 14 15  1  0
 15 16  2  0
 17 18  1  0
 17 19  2  0
 19 20  1  0
 20 21  3  0
M  END
