
     RDKit          3D

 24 24  0  0  0  0  0  0  0  0999 V2000
    1.1730   -4.6050   -1.7030 C   0  0  0  0  0  0  0  0  0  0  0  0
    1.3400   -3.2550   -1.3010 O   0  0  0  0  0  0  0  0  0  0  0  0
    0.5030   -2.6620   -0.3570 C   0  0  0  0  0  0  0  0  0  0  0  0
   -0.4010   -3.4130    0.1040 O   0  0  0  0  0  0  0  0  0  0  0  0
    0.7190   -1.2680    0.0190 C   0  0  1  0  0  0  0  0  0  0  0  0
   -0.3470   -0.9320    0.9640 N   0  0  0  0  0  0  0  0  0  0  0  0
   -1.6840   -1.0860    0.5230 C   0  0  0  0  0  0  0  0  0  0  0  0
   -1.9890   -1.4930   -0.6270 O   0  0  0  0  0  0  0  0  0  0  0  0
   -2.7980   -0.7790    1.3880 N   0  0  0  0  0  0  0  0  0  0  0  0
   -4.0970   -0.9580    0.9140 N   0  0  0  0  0  0  0  0  0  0  0  0
   -4.9400    0.1640    0.7220 C   0  0  0  0  0  0  0  0  0  0  0  0
   -4.4840    1.3010    0.9870 O   0  0  0  0  0  0  0  0  0  0  0  0
   -6.3290   -0.0430    0.2150 C   0  0  0  0  0  0  0  0  0  0  0  0
   -7.0630    1.2590    0.0750 C   0  0  0  0  0  0  0  0  0  0  0  0
   -6.3940    2.0890   -0.8200 O   0  0  0  0  0  0  0  0  0  0  0  0
    2.0740   -1.0850    0.6900 C   0  0  0  0  0  0  0  0  0  0  0  0
    3.1160   -0.9090   -0.3360 C   0  0  0  0  0  0  0  0  0  0  0  0
    3.1790    0.2570   -1.0960 N   0  0  0  0  0  0  0  0  0  0  0  0
    2.4360    1.4000   -0.7270 C   0  0  2  0  0  0  0  0  0  0  0  0
    3.0830    2.2260    0.3580 C   0  0  0  0  0  0  0  0  0  0  0  0
    4.4410    2.6600   -0.2100 C   0  0  0  0  0  0  0  0  0  0  0  0
    5.1660    3.4670    0.7550 N   0  0  0  0  0  0  0  0  0  0  0  0
    0.9700    1.0930   -0.4410 C   0  0  0  0  0  0  0  0  0  0  0  0
    0.6700   -0.2690   -1.0980 C   0  0  0  0  0  0  0  0  0  0  0  0
  1  2  1  0
  2  3  1  0
  3  4  2  0
  3  5  1  0
  5  6  1  1
  5 16  1  0
  5 24  1  0
  6  7  1  0
  7  8  2  0
  7  9  1  0
  9 10  1  0
 10 11  1  0
 11 12  2  0
 11 13  1  0
 13 14  1  0
 14 15  1  0
 16 17  1  0
 17 18  1  0
 18 19  1  0
 19 20  1  1
 19 23  1  0
 20 21  1  0
 21 22  1  0
 23 24  1  0
M  CHG  1  22   1
M  END
