
     RDKit          3D

 12 13  0  0  0  0  0  0  0  0999 V2000
   -3.1010    1.3320   -0.0630 N   0  0  0  0  0  0  0  0  0  0  0  0
   -3.1720   -0.1020   -0.1620 C   0  0  0  0  0  0  0  0  0  0  0  0
   -1.7700   -0.7140   -0.1820 C   0  0  0  0  0  0  0  0  0  0  0  0
   -1.6040   -2.1210   -0.2760 C   0  0  0  0  0  0  0  0  0  0  0  0
    0.1990   -2.2970   -0.2590 S   0  0  0  0  0  0  0  0  0  0  0  0
    0.4600   -0.4580   -0.1290 C   0  0  0  0  0  0  0  0  0  0  0  0
    1.8540    0.0610   -0.0700 C   0  0  0  0  0  0  0  0  0  0  0  0
    3.0290   -0.5710   -0.0950 C   0  0  0  0  0  0  0  0  0  0  0  0
    4.1620    0.1250   -0.0290 C   0  0  0  0  0  0  0  0  0  0  0  0
    4.0410    1.5110    0.0640 C   0  0  0  0  0  0  0  0  0  0  0  0
    2.2800    1.7610    0.0530 S   0  0  0  0  0  0  0  0  0  0  0  0
   -0.6310   -0.0760   -0.1200 N   0  0  0  0  0  0  0  0  0  0  0  0
  1  2  1  0
  2  3  1  0
  3  4  2  0
  3 12  1  0
  4  5  1  0
  5  6  1  0
  6  7  1  0
  6 12  2  0
  7  8  2  0
  7 11  1  0
  8  9  1  0
  9 10  2  0
 10 11  1  0
M  CHG  1   1   1
M  END
