
     RDKit          3D

 22 22  0  0  0  0  0  0  0  0999 V2000
   -1.5430   -0.4660   -2.7640 N   0  0  0  0  0  0  0  0  0  0  0  0
   -0.9430   -0.9890   -1.5950 C   0  0  0  0  0  0  0  0  0  0  0  0
    0.2330   -1.4170   -1.6650 O   0  0  0  0  0  0  0  0  0  0  0  0
   -1.6910   -1.0190   -0.3570 C   0  0  0  0  0  0  0  0  0  0  0  0
   -2.9210   -0.5620   -0.3240 C   0  0  0  0  0  0  0  0  0  0  0  0
   -3.6710   -0.5940    0.9240 C   0  0  0  0  0  0  0  0  0  0  0  0
   -4.8940   -0.1690    1.0740 C   0  0  0  0  0  0  0  0  0  0  0  0
   -5.8340   -0.1980    2.5970 S   0  0  0  0  0  0  0  0  0  0  0  0
   -7.0350    1.0560    2.0660 C   0  0  0  0  0  0  0  0  0  0  0  0
   -7.7710    1.7380    2.8180 O   0  0  0  0  0  0  0  0  0  0  0  0
   -6.9220    1.0560    0.6570 N   0  0  0  0  0  0  0  0  0  0  0  0
   -5.8040    0.4170    0.1270 C   0  0  0  0  0  0  0  0  0  0  0  0
   -5.5920    0.3510   -1.1390 O   0  0  0  0  0  0  0  0  0  0  0  0
   -1.1370   -1.5220    0.8000 O   0  0  0  0  0  0  0  0  0  0  0  0
    0.2410   -1.5620    1.0770 C   0  0  0  0  0  0  0  0  0  0  0  0
    0.7970   -0.1870    1.0640 C   0  0  0  0  0  0  0  0  0  0  0  0
    0.0810    0.7810    0.8290 O   0  0  0  0  0  0  0  0  0  0  0  0
    2.2400    0.0500    1.3370 C   0  0  0  0  0  0  0  0  0  0  0  0
    2.9510    0.2180   -0.0090 C   0  0  0  0  0  0  0  0  0  0  0  0
    4.4280    0.4610    0.1990 C   0  0  0  0  0  0  0  0  0  0  0  0
    5.0560    0.6160   -1.1700 C   0  0  0  0  0  0  0  0  0  0  0  0
    6.4840    0.8540   -1.0620 N   0  0  0  0  0  0  0  0  0  0  0  0
  1  2  1  0
  2  3  2  0
  2  4  1  0
  4  5  2  3
  4 14  1  0
  5  6  1  0
  6  7  2  3
  7  8  1  0
  7 12  1  0
  8  9  1  0
  9 10  2  0
  9 11  1  0
 11 12  1  0
 12 13  2  0
 14 15  1  0
 15 16  1  0
 16 17  2  0
 16 18  1  0
 18 19  1  0
 19 20  1  0
 20 21  1  0
 21 22  1  0
M  CHG  1  22   1
M  END
