
     RDKit          3D

 28 32  0  0  0  0  0  0  0  0999 V2000
   -7.0340    0.9480   -0.9930 C   0  0  0  0  0  0  0  0  0  0  0  0
   -6.2740   -0.3130   -0.6600 C   0  0  0  0  0  0  0  0  0  0  0  0
   -5.0800   -0.0590    0.1450 C   0  0  0  0  0  0  0  0  0  0  0  0
   -5.1400    0.2200    1.4890 C   0  0  0  0  0  0  0  0  0  0  0  0
   -6.3430    0.2550    2.1120 F   0  0  0  0  0  0  0  0  0  0  0  0
   -4.0200    0.4700    2.2630 C   0  0  0  0  0  0  0  0  0  0  0  0
   -2.7890    0.4330    1.6290 C   0  0  0  0  0  0  0  0  0  0  0  0
   -1.5820    0.6710    2.2840 C   0  0  0  0  0  0  0  0  0  0  0  0
   -0.3720    0.6320    1.6270 C   0  0  0  0  0  0  0  0  0  0  0  0
    0.8810    0.9060    2.3720 C   0  0  0  0  0  0  0  0  0  0  0  0
    2.0360    0.6280    1.6460 O   0  0  0  0  0  0  0  0  0  0  0  0
    2.4000   -0.6100    1.1470 C   0  0  0  0  0  0  0  0  0  0  0  0
    1.6370   -1.5740    1.3610 O   0  0  0  0  0  0  0  0  0  0  0  0
    3.6580   -0.7790    0.3810 C   0  0  0  0  0  0  0  0  0  0  0  0
    4.0270   -2.0050   -0.1120 C   0  0  0  0  0  0  0  0  0  0  0  0
    5.2160   -2.1210   -0.8280 C   0  0  0  0  0  0  0  0  0  0  0  0
    6.0460   -1.0400   -1.0630 C   0  0  0  0  0  0  0  0  0  0  0  0
    7.2210   -0.8760   -1.7090 N   0  0  0  0  0  0  0  0  0  0  0  0
    7.6250    0.3920   -1.6550 C   0  0  0  0  0  0  0  0  0  0  0  0
    6.6620    1.0720   -0.9410 C   0  0  0  0  0  0  0  0  0  0  0  0
    5.6710    0.1900   -0.5660 C   0  0  0  0  0  0  0  0  0  0  0  0
    4.4860    0.2980    0.1460 C   0  0  0  0  0  0  0  0  0  0  0  0
   -0.3430    0.3480    0.2690 C   0  0  0  0  0  0  0  0  0  0  0  0
   -1.5440    0.1050   -0.4120 C   0  0  0  0  0  0  0  0  0  0  0  0
   -2.7030    0.1580    0.2930 C   0  0  0  0  0  0  0  0  0  0  0  0
   -3.8140   -0.0870   -0.4610 C   0  0  0  0  0  0  0  0  0  0  0  0
   -3.3640   -0.3250   -1.7490 O   0  0  0  0  0  0  0  0  0  0  0  0
   -1.9320   -0.2210   -1.8040 C   0  0  0  0  0  0  0  0  0  0  0  0
  1  2  1  0
  2  3  1  0
  3  4  2  0
  3 26  1  0
  4  5  1  0
  4  6  1  0
  6  7  2  0
  7  8  1  0
  7 25  1  0
  8  9  2  0
  9 10  1  0
  9 23  1  0
 10 11  1  0
 11 12  1  0
 12 13  2  0
 12 14  1  0
 14 15  2  0
 14 22  1  0
 15 16  1  0
 16 17  2  0
 17 18  1  0
 17 21  1  0
 18 19  1  0
 19 20  2  0
 20 21  1  0
 21 22  2  0
 23 24  2  0
 24 25  1  0
 24 28  1  0
 25 26  2  0
 26 27  1  0
 27 28  1  0
M  END
