
     RDKit          3D

 11 12  0  0  0  0  0  0  0  0999 V2000
   -3.1620   -0.2160   -0.1640 N   0  0  0  0  0  0  0  0  0  0  0  0
   -1.8630   -0.7750    0.1100 C   0  0  0  0  0  0  0  0  0  0  0  0
   -0.8020    0.2900   -0.1460 C   0  0  0  0  0  0  0  0  0  0  0  0
   -1.2470    1.5390   -0.5770 C   0  0  0  0  0  0  0  0  0  0  0  0
    0.3060    2.4730   -0.7540 S   0  0  0  0  0  0  0  0  0  0  0  0
    1.4080    1.1000   -0.2340 C   0  0  0  0  0  0  0  0  0  0  0  0
    2.7630    1.0730   -0.1210 C   0  0  0  0  0  0  0  0  0  0  0  0
    3.3530   -0.1230    0.3040 C   0  0  0  0  0  0  0  0  0  0  0  0
    2.5030   -1.1500    0.5650 C   0  0  0  0  0  0  0  0  0  0  0  0
    1.1450   -1.0910    0.4420 C   0  0  0  0  0  0  0  0  0  0  0  0
    0.5110    0.1170    0.0100 C   0  0  0  0  0  0  0  0  0  0  0  0
  1  2  1  0
  2  3  1  0
  3  4  2  0
  3 11  1  0
  4  5  1  0
  5  6  1  0
  6  7  2  0
  6 11  1  0
  7  8  1  0
  8  9  2  0
  9 10  1  0
 10 11  2  0
M  CHG  1   1   1
M  END
