
     RDKit          3D

 28 32  0  0  0  0  0  0  0  0999 V2000
    6.6130   -0.3900    1.2900 N   0  0  0  0  0  0  0  0  0  0  0  0
    6.2420    0.5050    0.2120 C   0  0  1  0  0  0  0  0  0  0  0  0
    6.1920   -0.3110   -1.0530 C   0  0  0  0  0  0  0  0  0  0  0  0
    4.9010   -1.0580   -0.8260 C   0  0  0  0  0  0  0  0  0  0  0  0
    4.5860   -2.2250   -1.0820 O   0  0  0  0  0  0  0  0  0  0  0  0
    4.0440   -0.0330   -0.1920 C   0  0  0  0  0  0  0  0  0  0  0  0
    2.6720    0.1310   -0.1230 C   0  0  0  0  0  0  0  0  0  0  0  0
    2.1040    1.2050    0.5390 C   0  0  0  0  0  0  0  0  0  0  0  0
    0.6440    1.3280    0.5800 C   0  0  0  0  0  0  0  0  0  0  0  0
    0.0240    0.2630   -0.1060 O   0  0  0  0  0  0  0  0  0  0  0  0
   -1.3520    0.2230   -0.1650 C   0  0  0  0  0  0  0  0  0  0  0  0
   -2.0840    1.2150    0.4410 C   0  0  0  0  0  0  0  0  0  0  0  0
   -3.4800    1.2030    0.3990 C   0  0  0  0  0  0  0  0  0  0  0  0
   -4.2160    2.1960    1.0060 C   0  0  0  0  0  0  0  0  0  0  0  0
   -5.5830    2.2030    0.9770 C   0  0  0  0  0  0  0  0  0  0  0  0
   -6.2210    1.1760    0.3140 C   0  0  0  0  0  0  0  0  0  0  0  0
   -7.5710    1.1890    0.2890 F   0  0  0  0  0  0  0  0  0  0  0  0
   -5.4920    0.1820   -0.2940 C   0  0  0  0  0  0  0  0  0  0  0  0
   -4.0950    0.1590   -0.2740 C   0  0  0  0  0  0  0  0  0  0  0  0
   -3.3890   -0.8510   -0.8930 C   0  0  0  0  0  0  0  0  0  0  0  0
   -2.0110   -0.7950   -0.8230 C   0  0  0  0  0  0  0  0  0  0  0  0
   -1.3170   -1.8280   -1.4560 O   0  0  0  0  0  0  0  0  0  0  0  0
   -1.9500   -3.1120   -1.5650 C   0  0  0  0  0  0  0  0  0  0  0  0
   -3.3140   -2.9680   -2.1950 C   0  0  0  0  0  0  0  0  0  0  0  0
   -4.1470   -1.9050   -1.5760 C   0  0  0  0  0  0  0  0  0  0  0  0
    2.9000    2.1480    1.1530 C   0  0  0  0  0  0  0  0  0  0  0  0
    4.2660    2.0000    1.0940 C   0  0  0  0  0  0  0  0  0  0  0  0
    4.8340    0.9090    0.4210 C   0  0  0  0  0  0  0  0  0  0  0  0
  2  1  1  1
  2  3  1  0
  2 28  1  0
  3  4  1  0
  4  5  2  0
  4  6  1  0
  6  7  2  0
  6 28  1  0
  7  8  1  0
  8  9  1  0
  8 26  2  0
  9 10  1  0
 10 11  1  0
 11 12  2  0
 11 21  1  0
 12 13  1  0
 13 14  2  0
 13 19  1  0
 14 15  1  0
 15 16  2  0
 16 17  1  0
 16 18  1  0
 18 19  2  0
 19 20  1  0
 20 21  2  0
 20 25  1  0
 21 22  1  0
 22 23  1  0
 23 24  1  0
 24 25  1  0
 26 27  1  0
 27 28  2  0
M  END
