
     RDKit          3D

 22 22  0  0  0  0  0  0  0  0999 V2000
    4.7820   -0.8760    1.7150 N   0  0  0  0  0  0  0  0  0  0  0  0
    4.2340    0.4890    1.6900 C   0  0  0  0  0  0  0  0  0  0  0  0
    3.2110    0.4550    0.6370 C   0  0  0  0  0  0  0  0  0  0  0  0
    2.0780   -0.2370    0.7090 C   0  0  0  0  0  0  0  0  0  0  0  0
    1.0860   -0.1250   -0.3100 C   0  0  0  0  0  0  0  0  0  0  0  0
   -0.0670   -0.8620   -0.0130 N   0  0  0  0  0  0  0  0  0  0  0  0
   -1.2530   -0.1370    0.2870 C   0  0  0  0  0  0  0  0  0  0  0  0
   -1.2720    1.0910    0.2520 O   0  0  0  0  0  0  0  0  0  0  0  0
   -2.4160   -0.9570    0.6470 C   0  0  0  0  0  0  0  0  0  0  0  0
   -3.0770   -1.4280   -0.6650 C   0  0  0  0  0  0  0  0  0  0  0  0
   -4.2680   -2.2670   -0.1190 C   0  0  0  0  0  0  0  0  0  0  0  0
   -5.0670   -1.2480    0.4640 O   0  0  0  0  0  0  0  0  0  0  0  0
   -5.7490   -0.6210   -0.5910 C   0  0  0  0  0  0  0  0  0  0  0  0
   -6.2720    0.7330   -0.3000 C   0  0  0  0  0  0  0  0  0  0  0  0
   -5.2350    1.6340    0.0220 O   0  0  0  0  0  0  0  0  0  0  0  0
    1.3210    0.7000   -1.3760 C   0  0  0  0  0  0  0  0  0  0  0  0
    2.5010    1.4270   -1.4500 C   0  0  0  0  0  0  0  0  0  0  0  0
    3.4230    1.3170   -0.4670 C   0  0  0  0  0  0  0  0  0  0  0  0
    4.6530    2.0290   -0.4340 N   0  0  0  0  0  0  0  0  0  0  0  0
    5.8740    1.6620   -1.5670 S   0  0  1  0  0  0  0  0  0  0  0  0
    7.1910    1.7110   -0.8550 O   0  0  0  0  0  0  0  0  0  0  0  0
    5.6630    0.2880   -2.1650 O   0  0  0  0  0  0  0  0  0  0  0  0
  1  2  1  0
  2  3  1  0
  3  4  2  0
  3 18  1  0
  4  5  1  0
  5  6  1  0
  5 16  2  0
  6  7  1  0
  7  8  2  0
  7  9  1  0
  9 10  1  0
 10 11  1  0
 11 12  1  0
 12 13  1  0
 13 14  1  0
 14 15  1  0
 16 17  1  0
 17 18  2  0
 18 19  1  0
 20 19  1  1
 20 21  2  0
 20 22  2  0
M  CHG  1   1   1
M  END
