
     RDKit          3D

 28 32  0  0  0  0  0  0  0  0999 V2000
   -0.1920    0.1850    3.6930 C   0  0  0  0  0  0  0  0  0  0  0  0
   -0.0040   -0.2910    2.2960 C   0  0  0  0  0  0  0  0  0  0  0  0
    1.0730   -0.7630    2.0190 O   0  0  0  0  0  0  0  0  0  0  0  0
   -1.1170   -0.1440    1.4070 C   0  0  0  0  0  0  0  0  0  0  0  0
   -2.3510    0.3160    1.7560 O   0  0  0  0  0  0  0  0  0  0  0  0
   -3.1480    0.3130    0.6880 C   0  0  0  0  0  0  0  0  0  0  0  0
   -2.3800   -0.1530   -0.3170 C   0  0  0  0  0  0  0  0  0  0  0  0
   -2.9580   -0.2650   -1.5300 C   0  0  0  0  0  0  0  0  0  0  0  0
   -2.1230   -0.7590   -2.5350 C   0  0  0  0  0  0  0  0  0  0  0  0
   -0.8060   -1.0880   -2.2390 C   0  0  0  0  0  0  0  0  0  0  0  0
   -0.3000   -0.9290   -0.9300 C   0  0  0  0  0  0  0  0  0  0  0  0
    1.1040   -1.1330   -0.6550 C   0  0  0  0  0  0  0  0  0  0  0  0
    1.5280   -2.2980   -0.5810 O   0  0  0  0  0  0  0  0  0  0  0  0
    2.0180   -0.0630   -0.4820 N   0  0  0  0  0  0  0  0  0  0  0  0
    3.4010   -0.1560   -0.2270 C   0  0  0  0  0  0  0  0  0  0  0  0
    4.1500   -1.2910   -0.1000 C   0  0  0  0  0  0  0  0  0  0  0  0
    5.5050   -1.3010    0.1490 C   0  0  0  0  0  0  0  0  0  0  0  0
    6.1230   -2.5090    0.2510 F   0  0  0  0  0  0  0  0  0  0  0  0
    6.1860   -0.1160    0.2860 C   0  0  0  0  0  0  0  0  0  0  0  0
    5.4790    1.0390    0.1670 C   0  0  0  0  0  0  0  0  0  0  0  0
    4.1180    1.0410   -0.0840 C   0  0  0  0  0  0  0  0  0  0  0  0
    3.3950    2.3160   -0.2040 C   0  0  0  0  0  0  0  0  0  0  0  0
   -1.1110   -0.4500    0.0690 C   0  0  0  0  0  0  0  0  0  0  0  0
   -4.3170    0.1930   -1.3490 C   0  0  0  0  0  0  0  0  0  0  0  0
   -5.4610    0.3960   -1.9700 C   0  0  0  0  0  0  0  0  0  0  0  0
   -6.4520    0.9290   -0.9920 C   0  0  0  0  0  0  0  0  0  0  0  0
   -5.6730    0.9870    0.2750 C   0  0  0  0  0  0  0  0  0  0  0  0
   -4.4540    0.5710    0.0850 C   0  0  0  0  0  0  0  0  0  0  0  0
  1  2  1  0
  2  3  2  0
  2  4  1  0
  4  5  1  0
  4 23  2  0
  5  6  1  0
  6  7  2  0
  6 28  1  0
  7  8  1  0
  7 23  1  0
  8  9  2  0
  8 24  1  0
  9 10  1  0
 10 11  2  0
 11 12  1  0
 11 23  1  0
 12 13  2  0
 12 14  1  0
 14 15  1  0
 15 16  2  0
 15 21  1  0
 16 17  1  0
 17 18  1  0
 17 19  2  0
 19 20  1  0
 20 21  2  0
 21 22  1  0
 24 25  2  0
 24 28  1  0
 25 26  1  0
 26 27  1  0
 27 28  2  0
M  END
