
     RDKit          3D

 27 31  0  0  0  0  0  0  0  0999 V2000
   -1.9700    4.2120    0.3120 F   0  0  0  0  0  0  0  0  0  0  0  0
   -2.7790    3.1610    0.0560 C   0  0  0  0  0  0  0  0  0  0  0  0
   -4.1150    3.4280   -0.1440 C   0  0  0  0  0  0  0  0  0  0  0  0
   -4.9930    2.4190   -0.4070 C   0  0  0  0  0  0  0  0  0  0  0  0
   -4.5280    1.1200   -0.4720 C   0  0  0  0  0  0  0  0  0  0  0  0
   -3.2210    0.8090   -0.2820 C   0  0  0  0  0  0  0  0  0  0  0  0
   -2.6670   -0.5440   -0.3380 C   0  0  0  0  0  0  0  0  0  0  0  0
   -3.4960   -1.6040   -0.5990 C   0  0  0  0  0  0  0  0  0  0  0  0
   -2.9180   -2.8780   -0.6410 C   0  0  0  0  0  0  0  0  0  0  0  0
   -1.5670   -3.0020   -0.4230 C   0  0  0  0  0  0  0  0  0  0  0  0
   -0.9890   -4.2610   -0.4640 C   0  0  0  0  0  0  0  0  0  0  0  0
    0.3660   -4.4280   -0.2500 C   0  0  0  0  0  0  0  0  0  0  0  0
    1.1460   -3.3250    0.0070 C   0  0  0  0  0  0  0  0  0  0  0  0
    0.6190   -2.0530    0.0580 C   0  0  0  0  0  0  0  0  0  0  0  0
    1.4460   -0.8980    0.3290 C   0  0  0  0  0  0  0  0  0  0  0  0
    0.9900    0.0420    1.2300 C   0  0  0  0  0  0  0  0  0  0  0  0
    1.8060    1.1520    1.4780 C   0  0  0  0  0  0  0  0  0  0  0  0
    3.0180    1.3000    0.8450 C   0  0  0  0  0  0  0  0  0  0  0  0
    3.4690    0.3590   -0.0540 C   0  0  0  0  0  0  0  0  0  0  0  0
    2.6710   -0.7380   -0.3040 C   0  0  0  0  0  0  0  0  0  0  0  0
    4.7070    0.5100   -0.7000 O   0  0  0  0  0  0  0  0  0  0  0  0
    5.6480    1.4570   -0.1730 C   0  0  0  0  0  0  0  0  0  0  0  0
    4.8830    2.7040    0.2520 C   0  0  0  0  0  0  0  0  0  0  0  0
    3.8100    2.4090    1.1060 O   0  0  0  0  0  0  0  0  0  0  0  0
   -0.7560   -1.9200   -0.1630 C   0  0  0  0  0  0  0  0  0  0  0  0
   -1.3410   -0.7150   -0.1290 N   0  0  0  0  0  0  0  0  0  0  0  0
   -2.3380    1.8630   -0.0130 C   0  0  0  0  0  0  0  0  0  0  0  0
  1  2  1  0
  2  3  2  0
  2 27  1  0
  3  4  1  0
  4  5  2  0
  5  6  1  0
  6  7  1  0
  6 27  2  0
  7  8  2  0
  7 26  1  0
  8  9  1  0
  9 10  2  0
 10 11  1  0
 10 25  1  0
 11 12  2  0
 12 13  1  0
 13 14  2  0
 14 15  1  0
 14 25  1  0
 15 16  2  0
 15 20  1  0
 16 17  1  0
 17 18  2  0
 18 19  1  0
 18 24  1  0
 19 20  2  0
 19 21  1  0
 21 22  1  0
 22 23  1  0
 23 24  1  0
 25 26  2  0
M  END
