
     RDKit          3D

 10 11  0  0  0  0  0  0  0  0999 V2000
    2.9870   -0.1160    0.2670 C   0  0  0  0  0  0  0  0  0  0  0  0
    1.6120    0.4370    0.2470 C   0  0  0  0  0  0  0  0  0  0  0  0
    1.1790    1.6930    0.2930 N   0  0  0  0  0  0  0  0  0  0  0  0
   -0.1320    1.7340    0.2510 N   0  0  0  0  0  0  0  0  0  0  0  0
   -0.5640    0.4740    0.1750 C   0  0  0  0  0  0  0  0  0  0  0  0
   -1.6760   -0.3330    0.0980 C   0  0  0  0  0  0  0  0  0  0  0  0
   -3.0440    0.0700    0.0720 N   0  0  0  0  0  0  0  0  0  0  0  0
   -1.2360   -1.6360    0.0500 C   0  0  0  0  0  0  0  0  0  0  0  0
    0.1020   -1.5970    0.0970 N   0  0  0  0  0  0  0  0  0  0  0  0
    0.4950   -0.3400    0.1710 N   0  0  0  0  0  0  0  0  0  0  0  0
  1  2  1  0
  2  3  2  0
  2 10  1  0
  3  4  1  0
  4  5  1  0
  5  6  2  0
  5 10  1  0
  6  7  1  0
  6  8  1  0
  8  9  2  0
  9 10  1  0
M  END
