
     RDKit          3D

 10 11  0  0  0  0  0  0  0  0999 V2000
    2.1040   -0.5930   -0.2300 N   0  0  0  0  0  0  0  0  0  0  0  0
    0.8920    0.1140   -0.1060 C   0  0  0  0  0  0  0  0  0  0  0  0
    0.8970    1.4870   -0.1330 C   0  0  0  0  0  0  0  0  0  0  0  0
   -0.2600    2.2020   -0.0150 N   0  0  0  0  0  0  0  0  0  0  0  0
   -1.4590    1.6130    0.1310 C   0  0  0  0  0  0  0  0  0  0  0  0
   -1.4790    0.2370    0.1590 C   0  0  0  0  0  0  0  0  0  0  0  0
   -2.4760   -0.6650    0.2880 N   0  0  0  0  0  0  0  0  0  0  0  0
   -1.9600   -1.8770    0.2520 N   0  0  0  0  0  0  0  0  0  0  0  0
   -0.6470   -1.8300    0.1030 N   0  0  0  0  0  0  0  0  0  0  0  0
   -0.3190   -0.5170    0.0420 C   0  0  0  0  0  0  0  0  0  0  0  0
  1  2  1  0
  2  3  2  0
  2 10  1  0
  3  4  1  0
  4  5  2  0
  5  6  1  0
  6  7  1  0
  6 10  2  0
  7  8  2  0
  8  9  1  0
  9 10  1  0
M  END
