
     RDKit          3D

 10 11  0  0  0  0  0  0  0  0999 V2000
    2.4540   -0.8100   -0.0030 C   0  0  0  0  0  0  0  0  0  0  0  0
    0.9770   -0.6100    0.0280 C   0  0  0  0  0  0  0  0  0  0  0  0
    0.0390   -1.5510    0.1480 N   0  0  0  0  0  0  0  0  0  0  0  0
   -1.1810   -1.0140    0.1380 N   0  0  0  0  0  0  0  0  0  0  0  0
   -2.4940   -1.3090    0.2090 C   0  0  0  0  0  0  0  0  0  0  0  0
   -3.1380   -0.1300    0.1190 N   0  0  0  0  0  0  0  0  0  0  0  0
   -2.2400    0.8360   -0.0020 N   0  0  0  0  0  0  0  0  0  0  0  0
   -1.0050    0.3190    0.0060 C   0  0  0  0  0  0  0  0  0  0  0  0
    0.3410    0.6180   -0.0670 C   0  0  0  0  0  0  0  0  0  0  0  0
    0.9020    1.9090   -0.2080 N   0  0  0  0  0  0  0  0  0  0  0  0
  1  2  1  0
  2  3  2  0
  2  9  1  0
  3  4  1  0
  4  5  1  0
  4  8  1  0
  5  6  2  0
  6  7  1  0
  7  8  1  0
  8  9  2  0
  9 10  1  0
M  END
