
     RDKit          3D

 10 11  0  0  0  0  0  0  0  0999 V2000
   -2.2590    1.0450   -0.0680 N   0  0  0  0  0  0  0  0  0  0  0  0
   -1.1390    0.1570   -0.0670 C   0  0  0  0  0  0  0  0  0  0  0  0
   -1.2930   -1.2100   -0.1850 C   0  0  0  0  0  0  0  0  0  0  0  0
   -0.2280   -2.0360   -0.1820 N   0  0  0  0  0  0  0  0  0  0  0  0
    1.0410   -1.6020   -0.0670 C   0  0  0  0  0  0  0  0  0  0  0  0
    1.2360   -0.2360    0.0530 C   0  0  0  0  0  0  0  0  0  0  0  0
    2.3410    0.5220    0.1830 N   0  0  0  0  0  0  0  0  0  0  0  0
    1.9550    1.7850    0.2580 N   0  0  0  0  0  0  0  0  0  0  0  0
    0.6300    1.8610    0.1800 N   0  0  0  0  0  0  0  0  0  0  0  0
    0.1570    0.6260    0.0520 C   0  0  0  0  0  0  0  0  0  0  0  0
  1  2  1  0
  2  3  2  0
  2 10  1  0
  3  4  1  0
  4  5  2  0
  5  6  1  0
  6  7  1  0
  6 10  2  0
  7  8  1  0
  8  9  2  0
  9 10  1  0
M  END
