
     RDKit          3D

 10 11  0  0  0  0  0  0  0  0999 V2000
    2.7240   -0.4160   -0.0090 N   0  0  0  0  0  0  0  0  0  0  0  0
    1.4830    0.2830    0.0210 C   0  0  0  0  0  0  0  0  0  0  0  0
    1.2980    1.6130    0.0870 N   0  0  0  0  0  0  0  0  0  0  0  0
   -0.0230    1.9160    0.0970 C   0  0  0  0  0  0  0  0  0  0  0  0
   -0.7630    0.7530    0.0350 C   0  0  0  0  0  0  0  0  0  0  0  0
   -2.0890    0.4650    0.0140 N   0  0  0  0  0  0  0  0  0  0  0  0
   -2.3900   -0.8160   -0.0520 N   0  0  0  0  0  0  0  0  0  0  0  0
   -1.5160   -1.8200   -0.0990 C   0  0  0  0  0  0  0  0  0  0  0  0
   -0.2060   -1.5810   -0.0810 N   0  0  0  0  0  0  0  0  0  0  0  0
    0.2280   -0.3180   -0.0150 C   0  0  0  0  0  0  0  0  0  0  0  0
  1  2  1  0
  2  3  2  0
  2 10  1  0
  3  4  1  0
  4  5  2  0
  5  6  1  0
  5 10  1  0
  6  7  1  0
  7  8  2  0
  8  9  1  0
  9 10  2  0
M  END
