
     RDKit          3D

 10 11  0  0  0  0  0  0  0  0999 V2000
    2.9810   -0.0960   -0.6640 N   0  0  0  0  0  0  0  0  0  0  0  0
    1.6270   -0.0340   -0.2730 C   0  0  0  0  0  0  0  0  0  0  0  0
    1.3030    0.2290    1.0590 C   0  0  0  0  0  0  0  0  0  0  0  0
    0.0200    0.2930    1.4520 N   0  0  0  0  0  0  0  0  0  0  0  0
   -0.9940    0.1070    0.5860 C   0  0  0  0  0  0  0  0  0  0  0  0
   -2.3330    0.1100    0.6800 N   0  0  0  0  0  0  0  0  0  0  0  0
   -2.8940   -0.1360   -0.5160 C   0  0  0  0  0  0  0  0  0  0  0  0
   -1.8780   -0.2970   -1.3780 N   0  0  0  0  0  0  0  0  0  0  0  0
   -0.6930   -0.1540   -0.7370 C   0  0  0  0  0  0  0  0  0  0  0  0
    0.5970   -0.2160   -1.1220 N   0  0  0  0  0  0  0  0  0  0  0  0
  1  2  1  0
  2  3  2  0
  2 10  1  0
  3  4  1  0
  4  5  2  0
  5  6  1  0
  5  9  1  0
  6  7  1  0
  7  8  2  0
  8  9  1  0
  9 10  2  0
M  END
