
     RDKit          3D

 10 11  0  0  0  0  0  0  0  0999 V2000
    3.0540    0.0370    0.1460 N   0  0  0  0  0  0  0  0  0  0  0  0
    1.6450    0.1360    0.0660 C   0  0  0  0  0  0  0  0  0  0  0  0
    1.0810    1.2980   -0.3630 N   0  0  0  0  0  0  0  0  0  0  0  0
   -0.2520    1.4500   -0.4580 C   0  0  0  0  0  0  0  0  0  0  0  0
   -1.0690    0.3900   -0.1090 C   0  0  0  0  0  0  0  0  0  0  0  0
   -2.4240    0.2420   -0.1000 C   0  0  0  0  0  0  0  0  0  0  0  0
   -2.6640   -1.0100    0.3350 N   0  0  0  0  0  0  0  0  0  0  0  0
   -1.5430   -1.6370    0.5920 N   0  0  0  0  0  0  0  0  0  0  0  0
   -0.5210   -0.7920    0.3260 C   0  0  0  0  0  0  0  0  0  0  0  0
    0.8230   -0.8890    0.4020 N   0  0  0  0  0  0  0  0  0  0  0  0
  1  2  1  0
  2  3  2  0
  2 10  1  0
  3  4  1  0
  4  5  2  0
  5  6  1  0
  5  9  1  0
  6  7  2  0
  7  8  1  0
  8  9  1  0
  9 10  2  0
M  END
