
     RDKit          3D

 10 11  0  0  0  0  0  0  0  0999 V2000
    2.7310   -0.4160   -0.9310 N   0  0  0  0  0  0  0  0  0  0  0  0
    1.4400   -0.1570   -0.3470 C   0  0  0  0  0  0  0  0  0  0  0  0
    1.3350    0.4040    0.9100 C   0  0  0  0  0  0  0  0  0  0  0  0
    0.1280    0.6460    1.4560 N   0  0  0  0  0  0  0  0  0  0  0  0
   -1.0210    0.3530    0.8050 C   0  0  0  0  0  0  0  0  0  0  0  0
   -2.3230    0.4830    1.1010 N   0  0  0  0  0  0  0  0  0  0  0  0
   -3.0030    0.0230    0.0730 N   0  0  0  0  0  0  0  0  0  0  0  0
   -2.1840   -0.4110   -0.9000 C   0  0  0  0  0  0  0  0  0  0  0  0
   -0.8950   -0.2070   -0.4490 C   0  0  0  0  0  0  0  0  0  0  0  0
    0.3090   -0.4540   -1.0080 N   0  0  0  0  0  0  0  0  0  0  0  0
  1  2  1  0
  2  3  2  0
  2 10  1  0
  3  4  1  0
  4  5  2  0
  5  6  1  0
  5  9  1  0
  6  7  1  0
  7  8  2  0
  8  9  1  0
  9 10  2  0
M  END
