
     RDKit          3D

 10 11  0  0  0  0  0  0  0  0999 V2000
   -2.8400    0.9760   -0.6850 N   0  0  0  0  0  0  0  0  0  0  0  0
   -1.5270    0.4490   -0.3960 C   0  0  0  0  0  0  0  0  0  0  0  0
   -1.4110   -0.8150    0.1440 C   0  0  0  0  0  0  0  0  0  0  0  0
   -0.2230   -1.3660    0.4370 N   0  0  0  0  0  0  0  0  0  0  0  0
    0.8960   -0.6460    0.1900 C   0  0  0  0  0  0  0  0  0  0  0  0
    2.2390   -0.9290    0.3770 C   0  0  0  0  0  0  0  0  0  0  0  0
    2.9070    0.1450   -0.0420 N   0  0  0  0  0  0  0  0  0  0  0  0
    2.0610    1.0600   -0.4710 N   0  0  0  0  0  0  0  0  0  0  0  0
    0.7790    0.6160   -0.3490 C   0  0  0  0  0  0  0  0  0  0  0  0
   -0.4180    1.1610   -0.6400 N   0  0  0  0  0  0  0  0  0  0  0  0
  1  2  1  0
  2  3  1  0
  2 10  2  0
  3  4  2  0
  4  5  1  0
  5  6  2  0
  5  9  1  0
  6  7  1  0
  7  8  1  0
  8  9  2  0
  9 10  1  0
M  END
