
     RDKit          3D

  9  9  0  0  0  0  0  0  0  0999 V2000
   -2.8260    0.4840   -0.6310 N   0  0  0  0  0  0  0  0  0  0  0  0
   -2.3000   -0.6140    0.1390 C   0  0  0  0  0  0  0  0  0  0  0  0
   -1.1280   -0.1080    0.9690 C   0  0  0  0  0  0  0  0  0  0  0  0
   -0.0370    0.4450    0.0520 C   0  0  2  0  0  0  0  0  0  0  0  0
    0.4870   -0.5630   -0.8840 C   0  0  0  0  0  0  0  0  0  0  0  0
    1.9640   -0.6420   -1.0310 C   0  0  0  0  0  0  0  0  0  0  0  0
    2.7550   -0.1030    0.1020 C   0  0  0  0  0  0  0  0  0  0  0  0
    1.9560    0.0840    1.3110 N   0  0  0  0  0  0  0  0  0  0  0  0
    0.9760    1.1150    0.9280 C   0  0  0  0  0  0  0  0  0  0  0  0
  1  2  1  0
  2  3  1  0
  4  3  1  1
  4  5  1  0
  4  9  1  0
  5  6  1  0
  6  7  1  0
  7  8  1  0
  8  9  1  0
M  CHG  1   1   1
M  END
