
     RDKit          3D

  9  9  0  0  0  0  0  0  0  0999 V2000
    2.8580   -0.8730    0.6760 C   0  0  0  0  0  0  0  0  0  0  0  0
    1.5900   -0.9440   -0.1610 C   0  0  0  0  0  0  0  0  0  0  0  0
    0.7120    0.0740    0.2530 N   0  0  0  0  0  0  0  0  0  0  0  0
    1.1110    1.3960   -0.0840 C   0  0  0  0  0  0  0  0  0  0  0  0
   -0.1550    2.2510    0.0690 C   0  0  0  0  0  0  0  0  0  0  0  0
   -1.2230    1.2440    0.4180 C   0  0  0  0  0  0  0  0  0  0  0  0
   -0.6390   -0.0210   -0.2080 C   0  0  2  0  0  0  0  0  0  0  0  0
   -1.3610   -1.2000    0.4150 C   0  0  0  0  0  0  0  0  0  0  0  0
   -2.7050   -1.2400   -0.1200 N   0  0  0  0  0  0  0  0  0  0  0  0
  1  2  1  0
  2  3  1  0
  3  4  1  0
  3  7  1  0
  4  5  1  0
  5  6  1  0
  6  7  1  0
  7  8  1  1
  8  9  1  0
M  CHG  1   9   1
M  END
