
     RDKit          3D

  9  9  0  0  0  0  0  0  0  0999 V2000
   -2.5010   -0.7700   -0.2660 C   0  0  0  0  0  0  0  0  0  0  0  0
   -1.5000    0.0180    0.0600 C   0  0  0  0  0  0  0  0  0  0  0  0
   -1.8030    1.2540    0.6940 N   0  0  0  0  0  0  0  0  0  0  0  0
   -0.0950   -0.3990   -0.2410 C   0  0  2  0  0  0  0  0  0  0  0  0
   -0.0930   -1.6750   -0.8750 N   0  0  0  0  0  0  0  0  0  0  0  0
    0.6980   -0.5740    1.0610 C   0  0  0  0  0  0  0  0  0  0  0  0
    2.1090   -0.3310    0.5580 C   0  0  0  0  0  0  0  0  0  0  0  0
    1.9060    0.9750   -0.1930 C   0  0  0  0  0  0  0  0  0  0  0  0
    0.6570    0.6590   -0.9890 C   0  0  0  0  0  0  0  0  0  0  0  0
  1  2  2  0
  2  3  1  0
  2  4  1  0
  4  5  1  6
  4  6  1  0
  4  9  1  0
  6  7  1  0
  7  8  1  0
  8  9  1  0
M  CHG  1   3   1
M  END
