
     RDKit          3D

  9  9  0  0  0  0  0  0  0  0999 V2000
    3.4590    0.6020    0.3920 N   0  0  0  0  0  0  0  0  0  0  0  0
    2.3790   -0.0550    0.1160 C   0  0  0  0  0  0  0  0  0  0  0  0
    1.1050    0.6250    0.2670 C   0  0  0  0  0  0  0  0  0  0  0  0
   -0.0320   -0.0150   -0.0070 C   0  0  0  0  0  0  0  0  0  0  0  0
   -0.1090   -1.3970   -0.4640 C   0  0  0  0  0  0  0  0  0  0  0  0
   -1.3930   -1.6540   -0.6210 C   0  0  0  0  0  0  0  0  0  0  0  0
   -2.1910   -0.4920   -0.2840 C   0  0  0  0  0  0  0  0  0  0  0  0
   -1.3940    0.4900    0.0830 C   0  0  0  0  0  0  0  0  0  0  0  0
   -1.7280    1.8130    0.4970 N   0  0  0  0  0  0  0  0  0  0  0  0
  1  2  2  0
  2  3  1  0
  3  4  2  3
  4  5  1  0
  4  8  1  0
  5  6  2  0
  6  7  1  0
  7  8  2  0
  8  9  1  0
M  END
