
     RDKit          3D

  9  9  0  0  0  0  0  0  0  0999 V2000
    1.9420    1.1560    0.7120 C   0  0  0  0  0  0  0  0  0  0  0  0
    1.8340   -0.0680   -0.0960 C   0  0  0  0  0  0  0  0  0  0  0  0
    3.0800   -0.5630   -0.6640 N   0  0  0  0  0  0  0  0  0  0  0  0
    0.7490   -0.7400   -0.3520 C   0  0  0  0  0  0  0  0  0  0  0  0
   -0.6080   -0.4270    0.1060 C   0  0  0  0  0  0  0  0  0  0  0  0
   -1.6670   -1.1630   -0.1900 C   0  0  0  0  0  0  0  0  0  0  0  0
   -2.8790   -0.5950    0.4130 C   0  0  0  0  0  0  0  0  0  0  0  0
   -2.5240    0.7610    0.7280 N   0  0  0  0  0  0  0  0  0  0  0  0
   -1.0610    0.6990    0.9300 C   0  0  0  0  0  0  0  0  0  0  0  0
  1  2  1  0
  2  3  1  0
  2  4  2  3
  4  5  1  0
  5  6  2  0
  5  9  1  0
  6  7  1  0
  7  8  1  0
  8  9  1  0
M  END
