
     RDKit          3D

  9  9  0  0  0  0  0  0  0  0999 V2000
   -2.0610   -0.2380   -1.3260 C   0  0  0  0  0  0  0  0  0  0  0  0
   -1.2490    0.1260   -0.0950 C   0  0  1  0  0  0  0  0  0  0  0  0
   -1.9950    1.1550    0.6890 C   0  0  0  0  0  0  0  0  0  0  0  0
   -1.0440   -1.1700    0.6980 C   0  0  0  0  0  0  0  0  0  0  0  0
    0.3400   -1.5630    0.1620 C   0  0  0  0  0  0  0  0  0  0  0  0
    1.0000   -0.2780    0.2800 N   0  0  0  0  0  0  0  0  0  0  0  0
    2.3630   -0.3160   -0.1980 C   0  0  0  0  0  0  0  0  0  0  0  0
    2.8950    1.0410   -0.0170 N   0  0  0  0  0  0  0  0  0  0  0  0
    0.1520    0.5810   -0.4810 C   0  0  0  0  0  0  0  0  0  0  0  0
  2  1  1  6
  2  3  1  0
  2  4  1  0
  2  9  1  0
  4  5  1  0
  5  6  1  0
  6  7  1  0
  6  9  1  0
  7  8  1  0
M  CHG  1   8   1
M  END
