
     RDKit          3D

  9  9  0  0  0  0  0  0  0  0999 V2000
   -2.4940   -0.9540    0.0050 C   0  0  0  0  0  0  0  0  0  0  0  0
   -1.1860   -0.2490   -0.0850 C   0  0  0  0  0  0  0  0  0  0  0  0
   -0.0850   -0.9660    0.1480 C   0  0  0  0  0  0  0  0  0  0  0  0
    1.3260   -0.5860    0.1400 C   0  0  0  0  0  0  0  0  0  0  0  0
    2.2600   -1.6730    0.1980 N   0  0  0  0  0  0  0  0  0  0  0  0
    1.7990    0.6380    0.0870 C   0  0  0  0  0  0  0  0  0  0  0  0
    1.1280    1.9490    0.0210 C   0  0  0  0  0  0  0  0  0  0  0  0
   -0.1620    2.1280   -0.1960 C   0  0  0  0  0  0  0  0  0  0  0  0
   -1.1870    1.1370   -0.4130 N   0  0  0  0  0  0  0  0  0  0  0  0
  1  2  1  0
  2  3  2  0
  2  9  1  0
  3  4  1  0
  4  5  1  0
  4  6  2  0
  6  7  1  0
  7  8  2  0
  8  9  1  0
M  END
