
     RDKit          3D

 12 13  0  0  0  0  0  0  0  0999 V2000
   -3.1820    0.1040    0.5880 N   0  0  0  0  0  0  0  0  0  0  0  0
   -1.8580    0.5830    0.7160 C   0  0  0  0  0  0  0  0  0  0  0  0
   -0.8260   -0.3830    0.1310 C   0  0  0  0  0  0  0  0  0  0  0  0
   -1.3170   -1.5410   -0.4230 C   0  0  0  0  0  0  0  0  0  0  0  0
    0.2670   -2.3300   -0.9650 S   0  0  0  0  0  0  0  0  0  0  0  0
    1.3280   -1.0420   -0.3920 C   0  0  0  0  0  0  0  0  0  0  0  0
    2.7100   -0.9320   -0.4530 C   0  0  0  0  0  0  0  0  0  0  0  0
    3.3320    0.1860    0.0700 C   0  0  0  0  0  0  0  0  0  0  0  0
    2.5220    1.1270    0.6240 C   0  0  0  0  0  0  0  0  0  0  0  0
    3.3800    2.6810    1.3510 Br  0  0  0  0  0  0  0  0  0  0  0  0
    1.1630    1.0060    0.6780 C   0  0  0  0  0  0  0  0  0  0  0  0
    0.4830   -0.1300    0.1500 C   0  0  0  0  0  0  0  0  0  0  0  0
  1  2  1  0
  2  3  1  0
  3  4  2  0
  3 12  1  0
  4  5  1  0
  5  6  1  0
  6  7  2  0
  6 12  1  0
  7  8  1  0
  8  9  2  0
  9 10  1  0
  9 11  1  0
 11 12  2  0
M  CHG  1   1   1
M  END
