
     RDKit          3D

 12 13  0  0  0  0  0  0  0  0999 V2000
   -1.6910   -1.5830   -0.8800 N   0  0  0  0  0  0  0  0  0  0  0  0
   -1.5810   -0.1440   -1.1580 C   0  0  0  0  0  0  0  0  0  0  0  0
   -0.6700    0.4100   -0.1130 C   0  0  0  0  0  0  0  0  0  0  0  0
   -1.1350    1.4370    0.7140 C   0  0  0  0  0  0  0  0  0  0  0  0
   -2.5410    1.9930    0.7900 C   0  0  0  0  0  0  0  0  0  0  0  0
   -3.5300    1.0100    2.1220 Br  0  0  0  0  0  0  0  0  0  0  0  0
    0.1820    1.7940    1.7540 S   0  0  0  0  0  0  0  0  0  0  0  0
    1.3660    0.5900    1.0950 C   0  0  0  0  0  0  0  0  0  0  0  0
    0.6110    0.0300    0.1210 C   0  0  0  0  0  0  0  0  0  0  0  0
    1.6610   -0.7270   -0.8180 C   0  0  0  0  0  0  0  0  0  0  0  0
    2.9640   -0.6240   -0.1290 C   0  0  0  0  0  0  0  0  0  0  0  0
    2.6950   -0.0170    1.2360 C   0  0  0  0  0  0  0  0  0  0  0  0
  1  2  1  0
  2  3  1  0
  3  4  2  0
  3  9  1  0
  4  5  1  0
  4  7  1  0
  5  6  1  0
  7  8  1  0
  8  9  2  0
  8 12  1  0
  9 10  1  0
 10 11  1  0
 11 12  1  0
M  CHG  1   1   1
M  END
