
     RDKit          3D

 12 14  0  0  0  0  0  0  0  0999 V2000
    0.5540    2.7780   -1.3480 Br  0  0  0  0  0  0  0  0  0  0  0  0
   -0.6270    1.3900   -0.8350 C   0  0  0  0  0  0  0  0  0  0  0  0
   -1.9310    1.5450   -0.9190 C   0  0  0  0  0  0  0  0  0  0  0  0
   -2.8820    0.5800   -0.5650 N   0  0  0  0  0  0  0  0  0  0  0  0
   -2.4010   -0.6590   -0.0770 C   0  0  0  0  0  0  0  0  0  0  0  0
   -0.9490   -0.8270    0.0150 C   0  0  0  0  0  0  0  0  0  0  0  0
   -0.1220    0.1240   -0.3370 C   0  0  0  0  0  0  0  0  0  0  0  0
    1.3450   -0.0790   -0.2310 C   0  0  0  0  0  0  0  0  0  0  0  0
    2.0500   -1.1280    0.1870 C   0  0  0  0  0  0  0  0  0  0  0  0
    3.3850   -1.0880    0.1970 C   0  0  0  0  0  0  0  0  0  0  0  0
    3.9650    0.0820   -0.2440 C   0  0  0  0  0  0  0  0  0  0  0  0
    2.5380    1.1120   -0.6680 S   0  0  1  0  0  0  0  0  0  0  0  0
  1  2  1  0
  2  3  2  0
  2  7  1  0
  3  4  1  0
  4  5  1  0
  5  6  1  0
  6  7  2  0
  7  8  1  0
  8  9  2  0
  8 12  1  0
  9 10  1  0
 10 11  2  0
 11 12  1  0
 12  1  1  0
M  CHG  1   4   1
M  END
