
     RDKit          3D

 12 12  0  0  0  0  0  0  0  0999 V2000
   -1.7510    2.2290   -0.0270 N   0  0  0  0  0  0  0  0  0  0  0  0
   -2.2830    0.9360    0.1490 C   0  0  0  0  0  0  0  0  0  0  0  0
   -1.6080   -0.1860    0.0670 C   0  0  0  0  0  0  0  0  0  0  0  0
   -2.3210   -1.4720    0.2810 C   0  0  0  0  0  0  0  0  0  0  0  0
   -4.1910   -1.1460    0.6520 Br  0  0  0  0  0  0  0  0  0  0  0  0
   -0.1980   -0.1060   -0.2300 C   0  0  0  0  0  0  0  0  0  0  0  0
    0.4610   -1.2660   -0.3070 C   0  0  0  0  0  0  0  0  0  0  0  0
    1.8680   -1.5170   -0.5860 C   0  0  0  0  0  0  0  0  0  0  0  0
    2.9160   -0.7440   -0.3550 C   0  0  0  0  0  0  0  0  0  0  0  0
    3.0270    0.5820    0.2360 C   0  0  0  0  0  0  0  0  0  0  0  0
    2.1230    1.5450    0.2520 C   0  0  0  0  0  0  0  0  0  0  0  0
    0.4670    1.5240   -0.4510 S   0  0  0  0  0  0  0  0  0  0  0  0
  1  2  1  0
  2  3  2  3
  3  4  1  0
  3  6  1  0
  4  5  1  0
  6  7  2  0
  6 12  1  0
  7  8  1  0
  8  9  2  0
  9 10  1  0
 10 11  2  0
 11 12  1  0
M  END
