
     RDKit          3D

 12 12  0  0  0  0  0  0  0  0999 V2000
    2.2300   -2.1590    0.0890 N   0  0  0  0  0  0  0  0  0  0  0  0
    1.8880   -0.8070   -0.2910 C   0  0  0  0  0  0  0  0  0  0  0  0
    0.4820   -0.4740    0.0040 C   0  0  0  0  0  0  0  0  0  0  0  0
   -0.2530   -1.4300    0.5610 C   0  0  0  0  0  0  0  0  0  0  0  0
   -1.6600   -1.4130    0.9700 C   0  0  0  0  0  0  0  0  0  0  0  0
   -2.5620   -0.4520    0.8780 C   0  0  0  0  0  0  0  0  0  0  0  0
   -2.4260    0.8970    0.3360 C   0  0  0  0  0  0  0  0  0  0  0  0
   -4.0040    1.9610    0.3810 Br  0  0  0  0  0  0  0  0  0  0  0  0
   -1.3250    1.4300   -0.1710 C   0  0  0  0  0  0  0  0  0  0  0  0
    0.0230    0.8610   -0.3360 C   0  0  0  0  0  0  0  0  0  0  0  0
    0.9380    1.6480   -0.8550 C   0  0  0  0  0  0  0  0  0  0  0  0
    0.6200    3.3280   -1.3530 S   0  0  0  0  0  0  0  0  0  0  0  0
  1  2  1  0
  2  3  1  0
  3  4  2  0
  3 10  1  0
  4  5  1  0
  5  6  2  0
  6  7  1  0
  7  8  1  0
  7  9  2  0
  9 10  1  0
 10 11  2  3
 11 12  1  0
M  END
