
     RDKit          3D

 12 13  0  0  0  0  0  0  0  0999 V2000
    3.3980   -0.2000    0.4130 N   0  0  0  0  0  0  0  0  0  0  0  0
    2.2030    0.6050    0.1360 C   0  0  0  0  0  0  0  0  0  0  0  0
    0.9960   -0.2480    0.1470 C   0  0  0  0  0  0  0  0  0  0  0  0
    0.9660   -2.0310    0.4530 S   0  0  0  0  0  0  0  0  0  0  0  0
   -0.7530   -2.2220    0.2890 C   0  0  0  0  0  0  0  0  0  0  0  0
   -1.2140   -0.9720    0.0190 C   0  0  0  0  0  0  0  0  0  0  0  0
   -2.5890   -0.6870   -0.1870 C   0  0  0  0  0  0  0  0  0  0  0  0
   -3.0570    0.5710   -0.4600 C   0  0  0  0  0  0  0  0  0  0  0  0
   -4.9130    0.9110   -0.7310 Br  0  0  0  0  0  0  0  0  0  0  0  0
   -2.1400    1.5860   -0.5310 C   0  0  0  0  0  0  0  0  0  0  0  0
   -0.8070    1.3320   -0.3340 C   0  0  0  0  0  0  0  0  0  0  0  0
   -0.3410    0.0280   -0.0540 C   0  0  0  0  0  0  0  0  0  0  0  0
  1  2  1  0
  2  3  1  0
  3  4  1  0
  3 12  2  0
  4  5  1  0
  5  6  2  0
  6  7  1  0
  6 12  1  0
  7  8  2  0
  8  9  1  0
  8 10  1  0
 10 11  2  0
 11 12  1  0
M  CHG  1   1   1
M  END
