
     RDKit          3D

 12 13  0  0  0  0  0  0  0  0999 V2000
    4.0320   -0.2380    0.6350 N   0  0  0  0  0  0  0  0  0  0  0  0
    3.2920    0.0700   -0.5460 C   0  0  0  0  0  0  0  0  0  0  0  0
    1.7960    0.0190   -0.2200 C   0  0  0  0  0  0  0  0  0  0  0  0
    1.1590   -0.3590    1.3520 S   0  0  0  0  0  0  0  0  0  0  0  0
   -0.6220   -0.1940    0.8290 C   0  0  0  0  0  0  0  0  0  0  0  0
   -0.4890    0.1280   -0.4790 C   0  0  0  0  0  0  0  0  0  0  0  0
    0.7510    0.2350   -1.0110 C   0  0  0  0  0  0  0  0  0  0  0  0
    1.1020    0.6950   -2.8900 Br  0  0  0  0  0  0  0  0  0  0  0  0
   -1.7890    0.3490   -1.2640 C   0  0  0  0  0  0  0  0  0  0  0  0
   -2.9200   -0.1910   -0.4930 C   0  0  0  0  0  0  0  0  0  0  0  0
   -2.9710    0.2680    0.9410 C   0  0  0  0  0  0  0  0  0  0  0  0
   -1.8140   -0.3710    1.6400 C   0  0  0  0  0  0  0  0  0  0  0  0
  1  2  1  0
  2  3  1  0
  3  4  1  0
  3  7  2  0
  4  5  1  0
  5  6  2  0
  5 12  1  0
  6  7  1  0
  6  9  1  0
  7  8  1  0
  9 10  1  0
 10 11  1  0
 11 12  1  0
M  CHG  1   1   1
M  END
