
     RDKit          3D

 12 12  0  0  0  0  0  0  0  0999 V2000
   -2.5910   -1.1080    1.6430 N   0  0  0  0  0  0  0  0  0  0  0  0
   -2.3020    0.0480    0.7330 C   0  0  0  0  0  0  0  0  0  0  0  0
   -1.5200   -0.4020   -0.4070 C   0  0  0  0  0  0  0  0  0  0  0  0
   -0.3580   -0.0250   -0.8670 C   0  0  0  0  0  0  0  0  0  0  0  0
    0.1360   -0.7550   -2.0900 C   0  0  0  0  0  0  0  0  0  0  0  0
    1.3560   -2.0110   -1.5360 S   0  0  0  0  0  0  0  0  0  0  0  0
    2.2540   -1.2780   -0.1430 C   0  0  0  0  0  0  0  0  0  0  0  0
    2.6090    0.1550   -0.3600 C   0  0  0  0  0  0  0  0  0  0  0  0
    1.7020    1.1220    0.3670 C   0  0  0  0  0  0  0  0  0  0  0  0
    0.3080    1.0560   -0.1600 C   0  0  0  0  0  0  0  0  0  0  0  0
   -0.4220    2.1360    0.0290 C   0  0  0  0  0  0  0  0  0  0  0  0
    0.3660    3.6150    0.9550 Br  0  0  0  0  0  0  0  0  0  0  0  0
  1  2  1  0
  2  3  1  0
  3  4  2  3
  4  5  1  0
  4 10  1  0
  5  6  1  0
  6  7  1  0
  7  8  1  0
  8  9  1  0
  9 10  1  0
 10 11  2  3
 11 12  1  0
M  CHG  1   1   1
M  END
