
     RDKit          3D

 26 27  0  0  0  0  0  0  0  0999 V2000
    6.3580   -0.3710   -1.6050 C   0  0  0  0  0  0  0  0  0  0  0  0
    6.2730   -1.3960   -0.5490 C   0  0  0  0  0  0  0  0  0  0  0  0
    5.4170   -1.2480    0.4480 C   0  0  0  0  0  0  0  0  0  0  0  0
    4.5480   -0.0370    0.4850 C   0  0  2  0  0  0  0  0  0  0  0  0
    4.8240    0.6360    1.6890 O   0  0  0  0  0  0  0  0  0  0  0  0
    3.0810   -0.4070    0.4500 C   0  0  0  0  0  0  0  0  0  0  0  0
    2.2320    0.7570    0.5270 N   0  0  0  0  0  0  0  0  0  0  0  0
    0.8210    0.5870    0.5060 C   0  0  0  0  0  0  0  0  0  0  0  0
    0.3420   -0.5650    0.4220 O   0  0  0  0  0  0  0  0  0  0  0  0
   -0.0020    1.8200    0.5880 C   0  0  0  0  0  0  0  0  0  0  0  0
   -1.4390    1.4800    0.5560 N   0  0  0  0  0  0  0  0  0  0  0  0
   -2.0130    0.8050   -0.5280 C   0  0  0  0  0  0  0  0  0  0  0  0
   -1.2340    0.4940   -1.4760 O   0  0  0  0  0  0  0  0  0  0  0  0
   -3.3930    0.4330   -0.6630 C   0  0  0  0  0  0  0  0  0  0  0  0
   -4.0160   -0.5140   -2.0720 S   0  0  0  0  0  0  0  0  0  0  0  0
   -5.7030   -0.5330   -1.4650 C   0  0  0  0  0  0  0  0  0  0  0  0
   -6.8300   -1.1760   -2.1460 C   0  0  0  0  0  0  0  0  0  0  0  0
   -5.6730    0.1900   -0.2220 C   0  0  0  0  0  0  0  0  0  0  0  0
   -4.5270    0.6650    0.1630 C   0  0  0  0  0  0  0  0  0  0  0  0
   -4.5110    1.4800    1.4480 C   0  0  0  0  0  0  0  0  0  0  0  0
   -6.2780    1.7730    1.7090 S   0  0  0  0  0  0  0  0  0  0  0  0
   -6.8690    0.4140    0.7200 C   0  0  0  0  0  0  0  0  0  0  0  0
    5.3410   -2.2950    1.5110 C   0  0  2  0  0  0  0  0  0  0  0  0
    6.2630   -3.2820    1.2270 F   0  0  0  0  0  0  0  0  0  0  0  0
    4.1010   -2.9360    1.5040 F   0  0  0  0  0  0  0  0  0  0  0  0
    5.6500   -1.7810    2.7430 F   0  0  0  0  0  0  0  0  0  0  0  0
  1  2  1  0
  2  3  2  3
  3  4  1  0
  3 23  1  0
  4  5  1  1
  4  6  1  0
  6  7  1  0
  7  8  1  0
  8  9  2  0
  8 10  1  0
 10 11  1  0
 11 12  1  0
 12 13  2  0
 12 14  1  0
 14 15  1  0
 14 19  2  0
 15 16  1  0
 16 17  1  0
 16 18  2  0
 18 19  1  0
 18 22  1  0
 19 20  1  0
 20 21  1  0
 21 22  1  0
 23 24  1  6
 23 25  1  0
 23 26  1  0
M  END
