
     RDKit          3D

 20 22  0  0  0  0  0  0  0  0999 V2000
    3.9020    1.0920    2.6210 O   0  0  0  0  0  0  0  0  0  0  0  0
    3.3500    0.6920    1.5660 C   0  0  0  0  0  0  0  0  0  0  0  0
    3.5730   -0.6750    1.0840 C   0  0  0  0  0  0  0  0  0  0  0  0
    2.3110   -1.3030    0.5330 C   0  0  0  0  0  0  0  0  0  0  0  0
    1.4750   -0.2980   -0.1780 C   0  0  0  0  0  0  0  0  0  0  0  0
    1.5980    1.0010   -0.0060 C   0  0  0  0  0  0  0  0  0  0  0  0
    2.5270    1.5580    0.8610 O   0  0  0  0  0  0  0  0  0  0  0  0
    0.7440    1.9440   -0.7350 C   0  0  0  0  0  0  0  0  0  0  0  0
    0.8670    3.1790   -0.5660 O   0  0  0  0  0  0  0  0  0  0  0  0
   -0.2140    1.4100   -1.6270 N   0  0  0  0  0  0  0  0  0  0  0  0
   -0.6220    0.0140   -1.5600 C   0  0  2  0  0  0  0  0  0  0  0  0
   -1.7880   -0.1160   -0.6110 C   0  0  0  0  0  0  0  0  0  0  0  0
   -2.2580    0.9330   -0.0020 C   0  0  0  0  0  0  0  0  0  0  0  0
   -3.3880    0.8760    0.9330 C   0  0  2  0  0  0  0  0  0  0  0  0
   -3.0100    1.6660    2.4820 Cl  0  0  0  0  0  0  0  0  0  0  0  0
   -3.8800   -0.4020    1.0830 O   0  0  0  0  0  0  0  0  0  0  0  0
   -3.3780   -1.4960    0.4380 C   0  0  0  0  0  0  0  0  0  0  0  0
   -2.3590   -1.4410   -0.4040 C   0  0  0  0  0  0  0  0  0  0  0  0
   -1.7410   -2.8690   -1.2170 Cl  0  0  0  0  0  0  0  0  0  0  0  0
    0.5040   -0.8020   -1.0810 N   0  0  0  0  0  0  0  0  0  0  0  0
  1  2  2  0
  2  3  1  0
  2  7  1  0
  3  4  1  0
  4  5  1  0
  5  6  2  0
  5 20  1  0
  6  7  1  0
  6  8  1  0
  8  9  2  0
  8 10  1  0
 10 11  1  0
 11 12  1  1
 11 20  1  0
 12 13  2  0
 12 18  1  0
 13 14  1  0
 14 15  1  1
 14 16  1  0
 16 17  1  0
 17 18  2  0
 18 19  1  0
M  END
