
     RDKit          3D

 21 23  0  0  0  0  0  0  0  0999 V2000
   -5.9990    0.5330   -0.5840 C   0  0  0  0  0  0  0  0  0  0  0  0
   -4.9710    0.5770    0.3740 O   0  0  0  0  0  0  0  0  0  0  0  0
   -3.6610    0.2570    0.1290 C   0  0  0  0  0  0  0  0  0  0  0  0
   -3.3590   -0.1430   -1.1750 C   0  0  0  0  0  0  0  0  0  0  0  0
   -2.0430   -0.4800   -1.4720 C   0  0  0  0  0  0  0  0  0  0  0  0
   -1.0700   -0.4160   -0.4940 C   0  0  0  0  0  0  0  0  0  0  0  0
    0.3130   -0.7760   -0.8030 C   0  0  0  0  0  0  0  0  0  0  0  0
    0.6110   -1.7450   -1.7330 C   0  0  0  0  0  0  0  0  0  0  0  0
    1.9050   -2.0790   -2.0230 C   0  0  0  0  0  0  0  0  0  0  0  0
    2.9450   -1.4230   -1.3610 C   0  0  0  0  0  0  0  0  0  0  0  0
    4.7080   -1.9580   -1.8430 Br  0  0  0  0  0  0  0  0  0  0  0  0
    2.7070   -0.4570   -0.4320 C   0  0  0  0  0  0  0  0  0  0  0  0
    3.7330    0.2700    0.2930 C   0  0  0  0  0  0  0  0  0  0  0  0
    5.1000    0.1730    0.2550 C   0  0  0  0  0  0  0  0  0  0  0  0
    5.6750    1.0690    1.1210 N   0  0  0  0  0  0  0  0  0  0  0  0
    4.6520    1.6960    1.6720 C   0  0  0  0  0  0  0  0  0  0  0  0
    3.4830    1.2610    1.2170 N   0  0  0  0  0  0  0  0  0  0  0  0
    1.3780   -0.1530   -0.1720 C   0  0  0  0  0  0  0  0  0  0  0  0
   -1.4130   -0.0110    0.8010 C   0  0  0  0  0  0  0  0  0  0  0  0
   -2.7210    0.3320    1.1300 C   0  0  0  0  0  0  0  0  0  0  0  0
   -3.0200    0.7320    2.4520 N   0  0  0  0  0  0  0  0  0  0  0  0
  1  2  1  0
  2  3  1  0
  3  4  2  0
  3 20  1  0
  4  5  1  0
  5  6  2  0
  6  7  1  0
  6 19  1  0
  7  8  2  0
  7 18  1  0
  8  9  1  0
  9 10  2  0
 10 11  1  0
 10 12  1  0
 12 13  1  0
 12 18  2  0
 13 14  2  0
 13 17  1  0
 14 15  1  0
 15 16  2  0
 16 17  1  0
 19 20  2  0
 20 21  1  0
M  CHG  1  15   1
M  END
