
     RDKit          3D

 27 29  0  0  0  0  0  0  0  0999 V2000
   -4.6050    2.9710    0.3790 C   0  0  0  0  0  0  0  0  0  0  0  0
   -3.4640    3.4530    0.8550 C   0  0  0  0  0  0  0  0  0  0  0  0
   -2.2600    2.7030    0.7390 N   0  0  0  0  0  0  0  0  0  0  0  0
   -2.3060    1.3890    0.0810 C   0  0  0  0  0  0  0  0  0  0  0  0
   -0.8660    0.8710    0.1330 C   0  0  2  0  0  0  0  0  0  0  0  0
   -0.7700   -0.4810   -0.4440 C   0  0  0  0  0  0  0  0  0  0  0  0
   -1.8830   -1.1600   -0.7470 N   0  0  0  0  0  0  0  0  0  0  0  0
   -1.8150   -2.3970   -1.2560 C   0  0  0  0  0  0  0  0  0  0  0  0
   -2.9990   -3.0360   -1.5430 O   0  0  0  0  0  0  0  0  0  0  0  0
   -4.2710   -2.4550   -1.3290 C   0  0  0  0  0  0  0  0  0  0  0  0
   -4.5160   -2.1000    0.1010 C   0  0  0  0  0  0  0  0  0  0  0  0
   -0.6380   -3.0400   -1.4980 C   0  0  0  0  0  0  0  0  0  0  0  0
    0.5470   -2.3550   -1.1920 C   0  0  0  0  0  0  0  0  0  0  0  0
    0.4540   -1.0840   -0.6700 C   0  0  0  0  0  0  0  0  0  0  0  0
    1.6170   -0.3420   -0.3680 N   0  0  0  0  0  0  0  0  0  0  0  0
    2.9540   -0.7780   -0.4590 C   0  0  0  0  0  0  0  0  0  0  0  0
    3.2540   -1.9120   -0.8290 O   0  0  0  0  0  0  0  0  0  0  0  0
    4.0110    0.1250   -0.1100 N   0  0  0  0  0  0  0  0  0  0  0  0
    5.3660   -0.3300   -0.2060 C   0  0  0  0  0  0  0  0  0  0  0  0
    6.5240    0.2760    0.0450 C   0  0  0  0  0  0  0  0  0  0  0  0
    7.6820   -0.3720   -0.1230 C   0  0  0  0  0  0  0  0  0  0  0  0
    7.6490   -1.6710   -0.5580 C   0  0  0  0  0  0  0  0  0  0  0  0
    5.8440   -1.9620   -0.7310 S   0  0  0  0  0  0  0  0  0  0  0  0
   -0.4800    0.9080    1.6040 C   0  0  0  0  0  0  0  0  0  0  0  0
   -0.0290    2.3190    1.9120 C   0  0  0  0  0  0  0  0  0  0  0  0
   -1.0370    3.2240    1.2520 C   0  0  0  0  0  0  0  0  0  0  0  0
   -0.8360    4.4660    1.1310 O   0  0  0  0  0  0  0  0  0  0  0  0
  1  2  2  0
  2  3  1  0
  3  4  1  0
  3 26  1  0
  4  5  1  0
  5  6  1  1
  5 24  1  0
  6  7  2  0
  6 14  1  0
  7  8  1  0
  8  9  1  0
  8 12  2  0
  9 10  1  0
 10 11  1  0
 12 13  1  0
 13 14  2  0
 14 15  1  0
 15 16  1  0
 16 17  2  0
 16 18  1  0
 18 19  1  0
 19 20  2  0
 19 23  1  0
 20 21  1  0
 21 22  2  0
 22 23  1  0
 24 25  1  0
 25 26  1  0
 26 27  2  0
M  END
