
     RDKit          3D

 13 14  0  0  0  0  0  0  0  0999 V2000
    4.4800    0.3940    0.1470 N   0  0  0  0  0  0  0  0  0  0  0  0
    3.1840    0.7230    0.7070 C   0  0  0  0  0  0  0  0  0  0  0  0
    2.0880   -0.0070    0.0190 C   0  0  0  0  0  0  0  0  0  0  0  0
    2.3080   -0.8940   -1.0100 C   0  0  0  0  0  0  0  0  0  0  0  0
    1.2860   -1.5590   -1.6340 C   0  0  0  0  0  0  0  0  0  0  0  0
   -0.0060   -1.3300   -1.2140 C   0  0  0  0  0  0  0  0  0  0  0  0
   -0.2820   -0.4650   -0.2030 C   0  0  0  0  0  0  0  0  0  0  0  0
   -1.6180   -0.2340    0.2240 N   0  0  0  0  0  0  0  0  0  0  0  0
   -2.1010    0.6280    1.2840 C   0  0  0  0  0  0  0  0  0  0  0  0
   -3.4350    1.1500    0.7930 C   0  0  0  0  0  0  0  0  0  0  0  0
   -3.6330    0.4600   -0.5440 C   0  0  0  0  0  0  0  0  0  0  0  0
   -2.8230   -0.8120   -0.3080 C   0  0  0  0  0  0  0  0  0  0  0  0
    0.7870    0.1940    0.4090 C   0  0  0  0  0  0  0  0  0  0  0  0
  1  2  1  0
  2  3  1  0
  3  4  2  0
  3 13  1  0
  4  5  1  0
  5  6  2  0
  6  7  1  0
  7  8  1  0
  7 13  2  0
  8  9  1  0
  8 12  1  0
  9 10  1  0
 10 11  1  0
 11 12  1  0
M  CHG  1   1   1
M  END
