
     RDKit          3D

 27 29  0  0  0  0  0  0  0  0999 V2000
   -2.3020   -0.8220    3.0050 C   0  0  0  0  0  0  0  0  0  0  0  0
   -2.4430   -1.5060    1.7800 O   0  0  0  0  0  0  0  0  0  0  0  0
   -2.8540   -0.7730    0.6720 C   0  0  0  0  0  0  0  0  0  0  0  0
   -1.8930   -0.1730   -0.1380 C   0  0  0  0  0  0  0  0  0  0  0  0
   -0.5350   -0.3410    0.2100 N   0  0  0  0  0  0  0  0  0  0  0  0
    0.5270    0.2020   -0.5040 C   0  0  0  0  0  0  0  0  0  0  0  0
    0.3300    0.9090   -1.5540 O   0  0  0  0  0  0  0  0  0  0  0  0
    1.9530    0.0100   -0.1150 C   0  0  0  0  0  0  0  0  0  0  0  0
    3.2910    0.7570   -1.1170 S   0  0  0  0  0  0  0  0  0  0  0  0
    4.6050    0.0530    0.0200 C   0  0  0  0  0  0  0  0  0  0  0  0
    6.0250    0.3510   -0.3130 C   0  0  0  0  0  0  0  0  0  0  0  0
    7.0170   -0.1460    0.4940 C   0  0  0  0  0  0  0  0  0  0  0  0
    8.3170    0.0930    0.2390 N   0  0  0  0  0  0  0  0  0  0  0  0
    8.6550    0.8280   -0.8200 N   0  0  0  0  0  0  0  0  0  0  0  0
    7.7380    1.3390   -1.6430 C   0  0  0  0  0  0  0  0  0  0  0  0
    8.1160    2.0890   -2.7210 O   0  0  0  0  0  0  0  0  0  0  0  0
    6.4060    1.1030   -1.3950 C   0  0  0  0  0  0  0  0  0  0  0  0
    3.9380   -0.5050    0.7930 N   0  0  0  0  0  0  0  0  0  0  0  0
    2.6240   -0.6200    0.8650 C   0  0  0  0  0  0  0  0  0  0  0  0
    1.9330   -1.3980    1.9640 C   0  0  0  0  0  0  0  0  0  0  0  0
   -2.3890    0.5280   -1.2060 C   0  0  0  0  0  0  0  0  0  0  0  0
   -3.7640    0.6450   -1.4810 C   0  0  0  0  0  0  0  0  0  0  0  0
   -4.2040    1.4200   -2.6530 C   0  0  0  0  0  0  0  0  0  0  0  0
   -4.6800    0.0460   -0.6700 C   0  0  0  0  0  0  0  0  0  0  0  0
   -6.1490    0.1230   -0.8940 C   0  0  0  0  0  0  0  0  0  0  0  0
   -4.1920   -0.6600    0.4040 C   0  0  0  0  0  0  0  0  0  0  0  0
   -5.1960   -1.3240    1.3020 C   0  0  0  0  0  0  0  0  0  0  0  0
  1  2  1  0
  2  3  1  0
  3  4  2  0
  3 26  1  0
  4  5  1  0
  4 21  1  0
  5  6  1  0
  6  7  2  0
  6  8  1  0
  8  9  1  0
  8 19  2  0
  9 10  1  0
 10 11  1  0
 10 18  2  0
 11 12  2  0
 11 17  1  0
 12 13  1  0
 13 14  2  0
 14 15  1  0
 15 16  1  0
 15 17  2  0
 18 19  1  0
 19 20  1  0
 21 22  2  0
 22 23  1  0
 22 24  1  0
 24 25  1  0
 24 26  2  0
 26 27  1  0
M  END
