
     RDKit          3D

 21 23  0  0  0  0  0  0  0  0999 V2000
    4.7830    1.7630   -0.2610 C   0  0  0  0  0  0  0  0  0  0  0  0
    3.3760    1.4160    0.0860 C   0  0  0  0  0  0  0  0  0  0  0  0
    3.1720   -0.1170    0.0950 C   0  0  0  0  0  0  0  0  0  0  0  0
    1.7610   -0.3860    0.4660 C   0  0  0  0  0  0  0  0  0  0  0  0
    1.1820   -0.0990    1.6330 N   0  0  0  0  0  0  0  0  0  0  0  0
   -0.1150   -0.4090    1.5930 C   0  0  0  0  0  0  0  0  0  0  0  0
   -0.3920   -0.9220    0.3480 C   0  0  0  0  0  0  0  0  0  0  0  0
    0.7590   -0.9190   -0.3620 C   0  0  0  0  0  0  0  0  0  0  0  0
    0.9800   -1.2510   -1.7760 C   0  0  0  0  0  0  0  0  0  0  0  0
    1.1460   -2.7030   -1.9910 N   0  0  0  0  0  0  0  0  0  0  0  0
   -1.7740   -1.3310   -0.1080 C   0  0  0  0  0  0  0  0  0  0  0  0
   -2.7410   -0.1950    0.0580 C   0  0  0  0  0  0  0  0  0  0  0  0
   -3.4290    0.1070   -1.1350 C   0  0  0  0  0  0  0  0  0  0  0  0
   -3.1100   -0.9080   -2.6930 Br  0  0  0  0  0  0  0  0  0  0  0  0
   -4.3350    1.1400   -1.1460 C   0  0  0  0  0  0  0  0  0  0  0  0
   -4.6060    1.8920   -0.0340 C   0  0  0  0  0  0  0  0  0  0  0  0
   -3.9230    1.5990    1.1710 C   0  0  0  0  0  0  0  0  0  0  0  0
   -3.0070    0.5570    1.1630 C   0  0  0  0  0  0  0  0  0  0  0  0
   -2.3870    0.3930    2.4700 N   0  0  0  0  0  0  0  0  0  0  0  0
   -1.0640   -0.1540    2.7070 C   0  0  0  0  0  0  0  0  0  0  0  0
   -0.6770   -0.4070    3.8190 O   0  0  0  0  0  0  0  0  0  0  0  0
  1  2  1  0
  2  3  1  0
  3  4  1  0
  4  5  1  0
  4  8  2  0
  5  6  1  0
  6  7  2  0
  6 20  1  0
  7  8  1  0
  7 11  1  0
  8  9  1  0
  9 10  1  0
 11 12  1  0
 12 13  2  0
 12 18  1  0
 13 14  1  0
 13 15  1  0
 15 16  2  0
 16 17  1  0
 17 18  2  0
 18 19  1  0
 19 20  1  0
 20 21  2  0
M  CHG  1  10   1
M  END
