
     RDKit          3D

 27 29  0  0  0  0  0  0  0  0999 V2000
    6.9140   -4.0550    1.3690 C   0  0  0  0  0  0  0  0  0  0  0  0
    6.5390   -2.8420    1.7760 C   0  0  0  0  0  0  0  0  0  0  0  0
    5.5650   -2.0200    1.0990 C   0  0  0  0  0  0  0  0  0  0  0  0
    4.8780   -2.4960   -0.1250 C   0  0  0  0  0  0  0  0  0  0  0  0
    5.2590   -0.8370    1.5670 C   0  0  0  0  0  0  0  0  0  0  0  0
    4.2840    0.0110    0.9030 C   0  0  0  0  0  0  0  0  0  0  0  0
    4.2170    0.2630   -0.4320 N   0  0  0  0  0  0  0  0  0  0  0  0
    3.1950    1.0880   -0.7130 C   0  0  0  0  0  0  0  0  0  0  0  0
    2.6720    1.7760   -2.2710 S   0  0  0  0  0  0  0  0  0  0  0  0
    1.5160    0.6400   -3.0560 C   0  0  0  0  0  0  0  0  0  0  0  0
    0.2660    0.5560   -2.2860 C   0  0  0  0  0  0  0  0  0  0  0  0
   -0.1630   -0.5800   -1.9350 O   0  0  0  0  0  0  0  0  0  0  0  0
   -0.5020    1.6870   -1.9100 N   0  0  0  0  0  0  0  0  0  0  0  0
   -1.7170    1.6820   -1.1950 C   0  0  0  0  0  0  0  0  0  0  0  0
   -2.1320    2.8090   -0.5180 C   0  0  0  0  0  0  0  0  0  0  0  0
   -3.3430    2.8520    0.1720 C   0  0  0  0  0  0  0  0  0  0  0  0
   -4.1760    1.7540    0.2000 C   0  0  0  0  0  0  0  0  0  0  0  0
   -5.3720    1.7940    0.8760 C   0  0  0  0  0  0  0  0  0  0  0  0
   -6.2070    0.6700    0.8890 C   0  0  0  0  0  0  0  0  0  0  0  0
   -7.5020    0.6500    1.5980 C   0  0  0  0  0  0  0  0  0  0  0  0
   -5.7820   -0.4170    0.2230 N   0  0  0  0  0  0  0  0  0  0  0  0
   -4.6260   -0.4760   -0.4380 C   0  0  0  0  0  0  0  0  0  0  0  0
   -4.2720   -1.5070   -1.0440 O   0  0  0  0  0  0  0  0  0  0  0  0
   -3.7760    0.6210   -0.4710 C   0  0  0  0  0  0  0  0  0  0  0  0
   -2.5720    0.5750   -1.1580 C   0  0  0  0  0  0  0  0  0  0  0  0
    2.6340    1.3350    0.5060 N   0  0  0  0  0  0  0  0  0  0  0  0
    3.3010    0.6850    1.4310 O   0  0  0  0  0  0  0  0  0  0  0  0
  1  2  2  0
  2  3  1  0
  3  4  1  0
  3  5  2  3
  5  6  1  0
  6  7  2  0
  6 27  1  0
  7  8  1  0
  8  9  1  0
  8 26  2  0
  9 10  1  0
 10 11  1  0
 11 12  2  0
 11 13  1  0
 13 14  1  0
 14 15  2  0
 14 25  1  0
 15 16  1  0
 16 17  2  0
 17 18  1  0
 17 24  1  0
 18 19  2  0
 19 20  1  0
 19 21  1  0
 21 22  1  0
 22 23  2  0
 22 24  1  0
 24 25  2  0
 26 27  1  0
M  END
