
     RDKit          3D

 26 28  0  0  0  0  0  0  0  0999 V2000
   -4.4160   -1.3980    2.1220 C   0  0  0  0  0  0  0  0  0  0  0  0
   -4.6360   -0.0180    1.6330 C   0  0  0  0  0  0  0  0  0  0  0  0
   -5.6120    0.7310    2.2310 C   0  0  0  0  0  0  0  0  0  0  0  0
   -5.8730    1.9900    1.8460 N   0  0  0  0  0  0  0  0  0  0  0  0
   -5.1440    2.4990    0.8480 C   0  0  0  0  0  0  0  0  0  0  0  0
   -4.1370    1.8010    0.1920 C   0  0  0  0  0  0  0  0  0  0  0  0
   -3.3880    2.4610   -0.8540 C   0  0  0  0  0  0  0  0  0  0  0  0
   -2.5070    1.9650   -1.6550 C   0  0  0  0  0  0  0  0  0  0  0  0
   -2.0540    0.6530   -1.7190 N   0  0  0  0  0  0  0  0  0  0  0  0
   -0.6680    0.3920   -1.4070 C   0  0  0  0  0  0  0  0  0  0  0  0
    0.0370    1.3480   -1.1000 O   0  0  0  0  0  0  0  0  0  0  0  0
   -0.2090   -1.0200   -1.4830 C   0  0  0  0  0  0  0  0  0  0  0  0
   -1.2410   -2.3700   -1.9240 S   0  0  0  0  0  0  0  0  0  0  0  0
   -0.0410   -3.6160   -1.7920 C   0  0  0  0  0  0  0  0  0  0  0  0
    1.1450   -2.9070   -1.3990 C   0  0  0  0  0  0  0  0  0  0  0  0
    0.9970   -1.5890   -1.2570 C   0  0  0  0  0  0  0  0  0  0  0  0
    2.1020   -0.7130   -0.8620 N   0  0  0  0  0  0  0  0  0  0  0  0
    3.4120   -1.1650   -0.5940 C   0  0  0  0  0  0  0  0  0  0  0  0
    3.7500   -2.3640   -0.6710 O   0  0  0  0  0  0  0  0  0  0  0  0
    4.4210   -0.1450   -0.2030 C   0  0  0  0  0  0  0  0  0  0  0  0
    5.7420   -0.3990    0.0940 C   0  0  0  0  0  0  0  0  0  0  0  0
    6.3360    0.8220    0.4080 C   0  0  0  0  0  0  0  0  0  0  0  0
    7.7650    1.0480    0.7970 C   0  0  0  0  0  0  0  0  0  0  0  0
    5.4080    1.7130    0.2960 O   0  0  0  0  0  0  0  0  0  0  0  0
    4.2630    1.1790   -0.0640 N   0  0  0  0  0  0  0  0  0  0  0  0
   -3.8770    0.5130    0.5950 C   0  0  0  0  0  0  0  0  0  0  0  0
  1  2  1  0
  2  3  2  0
  2 26  1  0
  3  4  1  0
  4  5  2  0
  5  6  1  0
  6  7  1  0
  6 26  2  0
  7  8  2  3
  8  9  1  0
  9 10  1  0
 10 11  2  0
 10 12  1  0
 12 13  1  0
 12 16  2  0
 13 14  1  0
 14 15  2  0
 15 16  1  0
 16 17  1  0
 17 18  1  0
 18 19  2  0
 18 20  1  0
 20 21  1  0
 20 25  2  0
 21 22  2  0
 22 23  1  0
 22 24  1  0
 24 25  1  0
M  END
