
     RDKit          3D

 21 22  0  0  0  0  0  0  0  0999 V2000
    1.6130   -4.3450    0.5830 N   0  0  0  0  0  0  0  0  0  0  0  0
    2.7100   -4.0890   -0.2660 C   0  0  0  0  0  0  0  0  0  0  0  0
    2.9530   -2.9380   -0.8130 C   0  0  0  0  0  0  0  0  0  0  0  0
    2.2160   -1.6960   -0.7070 C   0  0  0  0  0  0  0  0  0  0  0  0
    1.0750   -1.5250    0.0220 C   0  0  0  0  0  0  0  0  0  0  0  0
    0.4450   -0.2760    0.0530 C   0  0  0  0  0  0  0  0  0  0  0  0
   -0.7320   -0.2090    0.9000 C   0  0  0  0  0  0  0  0  0  0  0  0
   -1.7350   -1.0380    0.9180 C   0  0  0  0  0  0  0  0  0  0  0  0
   -1.7770   -2.5280   -0.2420 Br  0  0  0  0  0  0  0  0  0  0  0  0
   -2.8590   -0.8350    1.8420 C   0  0  0  0  0  0  0  0  0  0  0  0
   -4.0590   -0.6830    1.0060 N   0  0  0  0  0  0  0  0  0  0  0  0
    0.9100    0.8100   -0.6210 C   0  0  0  0  0  0  0  0  0  0  0  0
    0.3300    2.1270   -0.5890 C   0  0  0  0  0  0  0  0  0  0  0  0
   -0.9670    2.3860   -0.3090 C   0  0  0  0  0  0  0  0  0  0  0  0
   -1.4630    3.6940   -0.2140 C   0  0  0  0  0  0  0  0  0  0  0  0
   -0.6400    4.7680   -0.4080 C   0  0  0  0  0  0  0  0  0  0  0  0
    0.6820    4.5440   -0.6960 C   0  0  0  0  0  0  0  0  0  0  0  0
    1.1550    3.2500   -0.7840 C   0  0  0  0  0  0  0  0  0  0  0  0
    2.0620    0.6300   -1.3540 N   0  0  0  0  0  0  0  0  0  0  0  0
    2.6650   -0.5560   -1.3840 C   0  0  0  0  0  0  0  0  0  0  0  0
    3.7210   -0.7040   -2.0610 O   0  0  0  0  0  0  0  0  0  0  0  0
  1  2  1  0
  2  3  2  3
  3  4  1  0
  4  5  2  0
  4 20  1  0
  5  6  1  0
  6  7  1  0
  6 12  2  0
  7  8  2  3
  8  9  1  0
  8 10  1  0
 10 11  1  0
 12 13  1  0
 12 19  1  0
 13 14  2  0
 13 18  1  0
 14 15  1  0
 15 16  2  0
 16 17  1  0
 17 18  2  0
 19 20  1  0
 20 21  2  0
M  CHG  1  11   1
M  END
