
     RDKit          3D

 27 29  0  0  0  0  0  0  0  0999 V2000
    7.6630    0.7250    0.6530 C   0  0  0  0  0  0  0  0  0  0  0  0
    6.2900    0.0860    0.7940 C   0  0  0  0  0  0  0  0  0  0  0  0
    5.5530    0.3520   -0.4780 C   0  0  0  0  0  0  0  0  0  0  0  0
    4.1490   -0.2450   -0.4490 C   0  0  0  0  0  0  0  0  0  0  0  0
    4.0230   -1.5730   -0.6210 C   0  0  0  0  0  0  0  0  0  0  0  0
    4.9730   -2.6690   -0.8490 C   0  0  0  0  0  0  0  0  0  0  0  0
    2.2380   -1.8140   -0.5050 S   0  0  0  0  0  0  0  0  0  0  0  0
    1.8500   -0.1180   -0.2400 C   0  0  0  0  0  0  0  0  0  0  0  0
    0.5190    0.4240   -0.0520 N   0  0  0  0  0  0  0  0  0  0  0  0
   -0.6040   -0.4520   -0.1010 C   0  0  0  0  0  0  0  0  0  0  0  0
   -0.3600   -1.6910   -0.3220 O   0  0  0  0  0  0  0  0  0  0  0  0
   -1.9780   -0.0550    0.0750 C   0  0  0  0  0  0  0  0  0  0  0  0
   -2.9750   -0.9690   -0.2640 C   0  0  0  0  0  0  0  0  0  0  0  0
   -4.3040   -0.6980   -0.1540 C   0  0  0  0  0  0  0  0  0  0  0  0
   -5.4780   -1.3810   -0.4060 C   0  0  0  0  0  0  0  0  0  0  0  0
   -5.5120   -2.7740   -0.9350 C   0  0  0  0  0  0  0  0  0  0  0  0
   -6.5000   -0.5650   -0.0910 N   0  0  0  0  0  0  0  0  0  0  0  0
   -6.0230    0.6110    0.3510 N   0  0  0  0  0  0  0  0  0  0  0  0
   -6.8260    1.6960    0.7680 C   0  0  0  0  0  0  0  0  0  0  0  0
   -8.2930    1.5790    0.7360 C   0  0  0  0  0  0  0  0  0  0  0  0
   -6.3060    2.7580    1.1660 O   0  0  0  0  0  0  0  0  0  0  0  0
   -4.6650    0.5460    0.3190 C   0  0  0  0  0  0  0  0  0  0  0  0
   -3.7120    1.4290    0.6470 N   0  0  0  0  0  0  0  0  0  0  0  0
   -2.3870    1.1650    0.5390 C   0  0  0  0  0  0  0  0  0  0  0  0
   -1.5480    2.0590    0.8730 O   0  0  0  0  0  0  0  0  0  0  0  0
    3.0690    0.5230   -0.2540 C   0  0  0  0  0  0  0  0  0  0  0  0
    3.0930    2.0290   -0.0600 C   0  0  0  0  0  0  0  0  0  0  0  0
  1  2  1  0
  2  3  1  0
  3  4  1  0
  4  5  2  0
  4 26  1  0
  5  6  1  0
  5  7  1  0
  7  8  1  0
  8  9  1  0
  8 26  2  0
  9 10  1  0
 10 11  2  0
 10 12  1  0
 12 13  2  0
 12 24  1  0
 13 14  1  0
 14 15  1  0
 14 22  2  0
 15 16  1  0
 15 17  2  0
 17 18  1  0
 18 19  1  0
 18 22  1  0
 19 20  1  0
 19 21  2  0
 22 23  1  0
 23 24  1  0
 24 25  2  0
 26 27  1  0
M  END
