
     RDKit          3D

 31 33  0  0  0  0  0  0  0  0999 V2000
    6.9190    0.1840   -1.2610 C   0  0  0  0  0  0  0  0  0  0  0  0
    6.7270   -0.1950    0.1900 C   0  0  0  0  0  0  0  0  0  0  0  0
    5.4710   -0.8050    0.4290 O   0  0  0  0  0  0  0  0  0  0  0  0
    4.2740   -0.1630    0.1720 C   0  0  0  0  0  0  0  0  0  0  0  0
    4.2490    1.0000   -0.2870 O   0  0  0  0  0  0  0  0  0  0  0  0
    2.9770   -0.8270    0.4320 C   0  0  0  0  0  0  0  0  0  0  0  0
    2.9830   -1.9930    0.8920 O   0  0  0  0  0  0  0  0  0  0  0  0
    1.7650   -0.1700    0.1700 N   0  0  0  0  0  0  0  0  0  0  0  0
    0.4520   -0.6730    0.3660 C   0  0  0  0  0  0  0  0  0  0  0  0
    0.1620   -1.9170    0.8530 C   0  0  0  0  0  0  0  0  0  0  0  0
   -1.1560   -2.3900    1.0360 C   0  0  0  0  0  0  0  0  0  0  0  0
   -1.3130   -3.6940    1.5590 N   0  0  0  0  0  0  0  0  0  0  0  0
   -2.5240   -4.4070    1.6130 C   0  0  0  0  0  0  0  0  0  0  0  0
   -2.5470   -5.8020    2.2080 C   0  0  0  0  0  0  0  0  0  0  0  0
   -3.5910   -3.9160    1.1800 O   0  0  0  0  0  0  0  0  0  0  0  0
   -2.1560   -1.5270    0.6950 C   0  0  0  0  0  0  0  0  0  0  0  0
   -1.9300   -0.2400    0.1900 C   0  0  0  0  0  0  0  0  0  0  0  0
   -3.0610    0.6160   -0.1490 C   0  0  0  0  0  0  0  0  0  0  0  0
   -3.1340    1.9470    0.2040 C   0  0  0  0  0  0  0  0  0  0  0  0
   -4.2420    2.7090   -0.1520 C   0  0  0  0  0  0  0  0  0  0  0  0
   -5.2950    2.1700   -0.8610 C   0  0  0  0  0  0  0  0  0  0  0  0
   -5.2200    0.8400   -1.2130 C   0  0  0  0  0  0  0  0  0  0  0  0
   -4.1130    0.0750   -0.8580 C   0  0  0  0  0  0  0  0  0  0  0  0
   -0.6360    0.1540    0.0380 C   0  0  0  0  0  0  0  0  0  0  0  0
   -0.3890    1.4170   -0.4580 O   0  0  0  0  0  0  0  0  0  0  0  0
   -0.2450    1.7150   -1.7860 C   0  0  0  0  0  0  0  0  0  0  0  0
   -0.3370    0.8120   -2.6340 O   0  0  0  0  0  0  0  0  0  0  0  0
    0.0220    3.1030   -2.2670 C   0  0  0  0  0  0  0  0  0  0  0  0
    0.1680    4.2320   -1.6440 C   0  0  0  0  0  0  0  0  0  0  0  0
    0.4000    5.1520   -2.7410 C   0  0  0  0  0  0  0  0  0  0  0  0
    0.2540    3.8100   -3.8690 S   0  0  0  0  0  0  0  0  0  0  0  0
  1  2  1  0
  2  3  1  0
  3  4  1  0
  4  5  2  0
  4  6  1  0
  6  7  2  0
  6  8  1  0
  8  9  1  0
  9 10  2  0
  9 24  1  0
 10 11  1  0
 11 12  1  0
 11 16  2  0
 12 13  1  0
 13 14  1  0
 13 15  2  0
 16 17  1  0
 17 18  1  0
 17 24  2  0
 18 19  2  0
 18 23  1  0
 19 20  1  0
 20 21  2  0
 21 22  1  0
 22 23  2  0
 24 25  1  0
 25 26  1  0
 26 27  2  0
 26 28  1  0
 28 29  2  0
 28 31  1  0
 29 30  1  0
 30 31  1  0
M  END
