
     RDKit          3D

 31 33  0  0  0  0  0  0  0  0999 V2000
   -7.2690    4.0270   -1.1840 C   0  0  0  0  0  0  0  0  0  0  0  0
   -6.3660    4.4020   -0.0480 C   0  0  0  0  0  0  0  0  0  0  0  0
   -5.1130    3.7550   -0.0980 O   0  0  0  0  0  0  0  0  0  0  0  0
   -5.0230    2.3410   -0.0640 C   0  0  0  0  0  0  0  0  0  0  0  0
   -6.1150    1.7760    0.0110 O   0  0  0  0  0  0  0  0  0  0  0  0
   -3.7120    1.7640   -0.1200 C   0  0  0  0  0  0  0  0  0  0  0  0
   -3.2730    0.5460   -0.1430 C   0  0  0  0  0  0  0  0  0  0  0  0
   -1.7640    0.4490   -0.1890 C   0  0  0  0  0  0  0  0  0  0  0  0
   -1.1250    1.5520   -0.1800 O   0  0  0  0  0  0  0  0  0  0  0  0
   -1.0660   -0.7450   -0.2410 N   0  0  0  0  0  0  0  0  0  0  0  0
    0.3460   -0.8670   -0.2740 C   0  0  0  0  0  0  0  0  0  0  0  0
    1.2310    0.1300    0.0200 C   0  0  0  0  0  0  0  0  0  0  0  0
    2.6230   -0.0830   -0.0610 C   0  0  0  0  0  0  0  0  0  0  0  0
    3.1640   -1.2790   -0.4320 C   0  0  0  0  0  0  0  0  0  0  0  0
    4.5510   -1.5210   -0.5290 N   0  0  0  0  0  0  0  0  0  0  0  0
    5.5950   -0.6050   -0.3690 C   0  0  0  0  0  0  0  0  0  0  0  0
    5.3440    0.5930   -0.1090 O   0  0  0  0  0  0  0  0  0  0  0  0
    7.0140   -0.9960   -0.4960 C   0  0  0  0  0  0  0  0  0  0  0  0
    7.9970   -0.1020   -0.3390 C   0  0  0  0  0  0  0  0  0  0  0  0
    9.4360   -0.5450   -0.4780 C   0  0  0  0  0  0  0  0  0  0  0  0
   10.1710    0.5570    0.7970 S   0  0  0  0  0  0  0  0  0  0  0  0
    8.7390    1.6650    0.9990 C   0  0  0  0  0  0  0  0  0  0  0  0
    7.9040    1.2280   -0.0560 O   0  0  0  0  0  0  0  0  0  0  0  0
    2.2540   -2.2890   -0.7290 C   0  0  0  0  0  0  0  0  0  0  0  0
    0.9070   -2.0970   -0.6560 C   0  0  0  0  0  0  0  0  0  0  0  0
   -4.0480   -0.6740   -0.2580 C   0  0  0  0  0  0  0  0  0  0  0  0
   -5.3070   -0.9030   -0.7450 C   0  0  0  0  0  0  0  0  0  0  0  0
   -5.5820   -2.2630   -0.6090 C   0  0  0  0  0  0  0  0  0  0  0  0
   -4.4710   -2.8080   -0.0430 C   0  0  0  0  0  0  0  0  0  0  0  0
   -4.2570   -4.2580    0.3140 C   0  0  0  0  0  0  0  0  0  0  0  0
   -3.6190   -1.8670    0.1400 O   0  0  0  0  0  0  0  0  0  0  0  0
  1  2  1  0
  2  3  1  0
  3  4  1  0
  4  5  2  0
  4  6  1  0
  6  7  2  3
  7  8  1  0
  7 26  1  0
  8  9  2  0
  8 10  1  0
 10 11  1  0
 11 12  2  0
 11 25  1  0
 12 13  1  0
 13 14  2  0
 14 15  1  0
 14 24  1  0
 15 16  1  0
 16 17  2  0
 16 18  1  0
 18 19  2  3
 19 20  1  0
 19 23  1  0
 20 21  1  0
 21 22  1  0
 22 23  1  0
 24 25  2  0
 26 27  2  0
 26 31  1  0
 27 28  1  0
 28 29  2  0
 29 30  1  0
 29 31  1  0
M  END
