
     RDKit          3D

 31 32  0  0  0  0  0  0  0  0999 V2000
   -5.8070    0.7440    0.8030 C   0  0  0  0  0  0  0  0  0  0  0  0
   -5.3450    0.0890    1.8470 C   0  0  0  0  0  0  0  0  0  0  0  0
   -6.4020    0.1260    3.2760 S   0  0  0  0  0  0  0  0  0  0  0  0
   -6.0570   -1.4130    4.1180 C   0  0  0  0  0  0  0  0  0  0  0  0
   -5.0230   -2.1120    3.7270 C   0  0  0  0  0  0  0  0  0  0  0  0
   -4.1330   -1.8150    2.6540 C   0  0  0  0  0  0  0  0  0  0  0  0
   -4.2060   -0.7800    1.7660 C   0  0  0  0  0  0  0  0  0  0  0  0
   -3.1390   -0.6140    0.8170 C   0  0  0  0  0  0  0  0  0  0  0  0
   -2.6010    0.0850   -0.0770 C   0  0  0  0  0  0  0  0  0  0  0  0
   -2.7850    1.3200   -0.7410 C   0  0  0  0  0  0  0  0  0  0  0  0
   -1.9390    1.6340   -1.7350 O   0  0  0  0  0  0  0  0  0  0  0  0
   -3.6730    2.3520   -0.5970 O   0  0  0  0  0  0  0  0  0  0  0  0
   -3.6820    3.5310   -1.3690 C   0  0  0  0  0  0  0  0  0  0  0  0
   -3.8810    3.1980   -2.8420 C   0  0  0  0  0  0  0  0  0  0  0  0
   -1.3240   -0.6320   -0.6160 C   0  0  0  0  0  0  0  0  0  0  0  0
   -0.7110   -0.0470   -1.4940 O   0  0  0  0  0  0  0  0  0  0  0  0
   -0.9250   -1.8280   -0.1380 O   0  0  0  0  0  0  0  0  0  0  0  0
    0.2370   -2.4580   -0.6440 C   0  0  0  0  0  0  0  0  0  0  0  0
    1.4460   -1.6040   -0.4330 C   0  0  0  0  0  0  0  0  0  0  0  0
    1.4010   -0.5000    0.1140 O   0  0  0  0  0  0  0  0  0  0  0  0
    2.6780   -2.1250   -0.8970 N   0  0  0  0  0  0  0  0  0  0  0  0
    3.9440   -1.4960   -0.8060 C   0  0  0  0  0  0  0  0  0  0  0  0
    4.2100   -0.2840   -0.2600 C   0  0  0  0  0  0  0  0  0  0  0  0
    5.5120    0.2260   -0.2330 C   0  0  0  0  0  0  0  0  0  0  0  0
    5.6960    1.4130    0.3160 C   0  0  0  0  0  0  0  0  0  0  0  0
    4.5340    2.1400    0.8690 C   0  0  0  0  0  0  0  0  0  0  0  0
    6.5460   -0.4900   -0.7580 C   0  0  0  0  0  0  0  0  0  0  0  0
    7.7890   -0.0890   -0.7740 C   0  0  0  0  0  0  0  0  0  0  0  0
    6.2630   -1.7010   -1.3020 N   0  0  0  0  0  0  0  0  0  0  0  0
    5.0320   -2.2010   -1.3360 C   0  0  0  0  0  0  0  0  0  0  0  0
    4.8880   -3.3450   -1.8700 O   0  0  0  0  0  0  0  0  0  0  0  0
  1  2  2  0
  2  3  1  0
  2  7  1  0
  3  4  1  0
  4  5  2  0
  5  6  1  0
  6  7  2  0
  7  8  1  0
  8  9  2  3
  9 10  1  0
  9 15  1  0
 10 11  2  0
 10 12  1  0
 12 13  1  0
 13 14  1  0
 15 16  2  0
 15 17  1  0
 17 18  1  0
 18 19  1  0
 19 20  2  0
 19 21  1  0
 21 22  1  0
 22 23  2  0
 22 30  1  0
 23 24  1  0
 24 25  2  3
 24 27  1  0
 25 26  1  0
 27 28  2  0
 27 29  1  0
 29 30  1  0
 30 31  2  0
M  END
