
     RDKit          3D

 31 33  0  0  0  0  0  0  0  0999 V2000
    5.3660   -0.7080    1.6850 C   0  0  0  0  0  0  0  0  0  0  0  0
    6.2740    0.4060    1.5760 N   0  0  1  0  0  0  0  0  0  0  0  0
    7.4210    0.0180    0.7760 C   0  0  0  0  0  0  0  0  0  0  0  0
    5.6310    1.5870    1.0830 C   0  0  0  0  0  0  0  0  0  0  0  0
    4.8180    1.2820   -0.1310 C   0  0  0  0  0  0  0  0  0  0  0  0
    4.1590    2.4660   -0.6460 N   0  0  0  0  0  0  0  0  0  0  0  0
    3.2220    2.1430   -2.0360 S   0  0  2  0  0  0  0  0  0  0  0  0
    4.1250    1.6140   -3.1170 O   0  0  0  0  0  0  0  0  0  0  0  0
    2.6180    3.4180   -2.5350 O   0  0  0  0  0  0  0  0  0  0  0  0
    1.9310    1.0110   -1.7450 C   0  0  0  0  0  0  0  0  0  0  0  0
    2.1290   -0.3410   -1.9050 C   0  0  0  0  0  0  0  0  0  0  0  0
    1.0960   -1.2630   -1.6740 C   0  0  0  0  0  0  0  0  0  0  0  0
   -0.1430   -0.8440   -1.2810 C   0  0  0  0  0  0  0  0  0  0  0  0
   -1.2500   -1.7520   -1.0270 C   0  0  0  0  0  0  0  0  0  0  0  0
   -1.1600   -3.1180   -1.1570 C   0  0  0  0  0  0  0  0  0  0  0  0
   -2.2500   -3.8790   -0.8960 N   0  0  0  0  0  0  0  0  0  0  0  0
   -3.4250   -3.3120   -0.5100 C   0  0  0  0  0  0  0  0  0  0  0  0
   -4.5740   -4.0780   -0.2330 N   0  0  0  0  0  0  0  0  0  0  0  0
   -3.5350   -1.9440   -0.3740 C   0  0  0  0  0  0  0  0  0  0  0  0
   -4.8000   -1.3090    0.0430 C   0  0  0  0  0  0  0  0  0  0  0  0
   -5.7640   -2.0640    0.2670 O   0  0  0  0  0  0  0  0  0  0  0  0
   -4.9380    0.0750    0.1880 N   0  0  0  0  0  0  0  0  0  0  0  0
   -6.0890    0.7970    0.5790 C   0  0  0  0  0  0  0  0  0  0  0  0
   -7.3010    0.2590    0.8900 C   0  0  0  0  0  0  0  0  0  0  0  0
   -8.3380    1.0880    1.2550 C   0  0  0  0  0  0  0  0  0  0  0  0
   -8.1830    2.4650    1.3170 C   0  0  0  0  0  0  0  0  0  0  0  0
   -6.9790    2.9560    1.0050 N   0  0  0  0  0  0  0  0  0  0  0  0
   -5.9570    2.1750    0.6470 C   0  0  0  0  0  0  0  0  0  0  0  0
   -2.4470   -1.2090   -0.6360 N   0  0  0  0  0  0  0  0  0  0  0  0
   -0.3230    0.5240   -1.1240 C   0  0  0  0  0  0  0  0  0  0  0  0
    0.6960    1.4380   -1.3520 C   0  0  0  0  0  0  0  0  0  0  0  0
  2  1  1  6
  2  3  1  0
  2  4  1  0
  4  5  1  0
  5  6  1  0
  7  6  1  1
  7  8  2  0
  7  9  2  0
  7 10  1  0
 10 11  2  0
 10 31  1  0
 11 12  1  0
 12 13  2  0
 13 14  1  0
 13 30  1  0
 14 15  2  0
 14 29  1  0
 15 16  1  0
 16 17  2  0
 17 18  1  0
 17 19  1  0
 19 20  1  0
 19 29  2  0
 20 21  2  0
 20 22  1  0
 22 23  1  0
 23 24  2  0
 23 28  1  0
 24 25  1  0
 25 26  2  0
 26 27  1  0
 27 28  2  0
 30 31  2  0
M  CHG  1   2   1
M  END
