
     RDKit          3D

 31 33  0  0  0  0  0  0  0  0999 V2000
    7.0400    2.5940   -0.8390 C   0  0  0  0  0  0  0  0  0  0  0  0
    7.4040    1.4840    0.1400 C   0  0  0  0  0  0  0  0  0  0  0  0
    8.5030    1.5630    0.9000 C   0  0  0  0  0  0  0  0  0  0  0  0
    8.7710    0.5240    1.7630 C   0  0  0  0  0  0  0  0  0  0  0  0
    7.3930   -0.6270    1.4830 S   0  0  0  0  0  0  0  0  0  0  0  0
    6.6020    0.3970    0.2440 C   0  0  0  0  0  0  0  0  0  0  0  0
    5.3740    0.0720   -0.4540 C   0  0  0  0  0  0  0  0  0  0  0  0
    4.9600    0.9090   -1.2930 O   0  0  0  0  0  0  0  0  0  0  0  0
    4.6700   -1.0960   -0.2260 N   0  0  0  0  0  0  0  0  0  0  0  0
    5.0900   -2.0910    0.7190 C   0  0  0  0  0  0  0  0  0  0  0  0
    3.4380   -1.3410   -0.9770 C   0  0  0  0  0  0  0  0  0  0  0  0
    2.2380   -0.7860   -0.2420 C   0  0  0  0  0  0  0  0  0  0  0  0
    1.0050   -1.0720   -1.0680 C   0  0  0  0  0  0  0  0  0  0  0  0
   -0.2000   -0.5410   -0.3790 C   0  0  0  0  0  0  0  0  0  0  0  0
   -0.0600    0.0310    0.7110 O   0  0  0  0  0  0  0  0  0  0  0  0
   -1.4640   -0.6950   -0.9680 N   0  0  0  0  0  0  0  0  0  0  0  0
   -2.6880   -0.2410   -0.4390 C   0  0  0  0  0  0  0  0  0  0  0  0
   -2.7860    0.6280    0.5920 C   0  0  0  0  0  0  0  0  0  0  0  0
   -4.0440    1.0280    1.0870 C   0  0  0  0  0  0  0  0  0  0  0  0
   -5.2080    0.5510    0.5390 C   0  0  0  0  0  0  0  0  0  0  0  0
   -6.3680    1.0240    1.1200 C   0  0  0  0  0  0  0  0  0  0  0  0
   -6.1680    1.8770    2.0210 O   0  0  0  0  0  0  0  0  0  0  0  0
   -7.6890    0.6910    0.8480 C   0  0  0  0  0  0  0  0  0  0  0  0
   -8.6670    1.3450    1.5690 O   0  0  0  0  0  0  0  0  0  0  0  0
   -8.1580   -0.2230   -0.0650 C   0  0  0  0  0  0  0  0  0  0  0  0
   -9.5910   -0.6580    0.0730 C   0  0  0  0  0  0  0  0  0  0  0  0
   -7.4690   -0.7540   -1.0490 O   0  0  0  0  0  0  0  0  0  0  0  0
   -6.1770   -0.9360   -1.2070 C   0  0  0  0  0  0  0  0  0  0  0  0
   -5.7860   -1.7520   -2.0920 O   0  0  0  0  0  0  0  0  0  0  0  0
   -5.1220   -0.3340   -0.5110 C   0  0  0  0  0  0  0  0  0  0  0  0
   -3.8940   -0.7130   -0.9790 C   0  0  0  0  0  0  0  0  0  0  0  0
  1  2  1  0
  2  3  1  0
  2  6  2  0
  3  4  2  0
  4  5  1  0
  5  6  1  0
  6  7  1  0
  7  8  2  0
  7  9  1  0
  9 10  1  0
  9 11  1  0
 11 12  1  0
 12 13  1  0
 13 14  1  0
 14 15  2  0
 14 16  1  0
 16 17  1  0
 17 18  2  0
 17 31  1  0
 18 19  1  0
 19 20  2  0
 20 21  1  0
 20 30  1  0
 21 22  2  0
 21 23  1  0
 23 24  1  0
 23 25  2  0
 25 26  1  0
 25 27  1  0
 27 28  1  0
 28 29  2  0
 28 30  1  0
 30 31  2  0
M  END
