
     RDKit          3D

 31 33  0  0  0  0  0  0  0  0999 V2000
   -3.6470    3.1360    0.6510 C   0  0  0  0  0  0  0  0  0  0  0  0
   -3.1900    1.9730    1.5280 C   0  0  0  0  0  0  0  0  0  0  0  0
   -1.8320    1.5320    1.1370 C   0  0  0  0  0  0  0  0  0  0  0  0
   -0.7760    1.8230    1.8500 O   0  0  0  0  0  0  0  0  0  0  0  0
    0.4190    1.4380    1.5100 C   0  0  0  0  0  0  0  0  0  0  0  0
    1.4140    1.7510    2.2350 O   0  0  0  0  0  0  0  0  0  0  0  0
    0.6670    0.6990    0.3860 C   0  0  0  0  0  0  0  0  0  0  0  0
    1.9630    0.3010   -0.0970 C   0  0  0  0  0  0  0  0  0  0  0  0
    2.1080   -0.9730   -0.3320 O   0  0  0  0  0  0  0  0  0  0  0  0
    3.0860    1.1020   -0.3550 N   0  0  0  0  0  0  0  0  0  0  0  0
    4.3670    0.6380   -0.8360 C   0  0  0  0  0  0  0  0  0  0  0  0
    5.0740   -0.1830    0.1810 C   0  0  0  0  0  0  0  0  0  0  0  0
    4.5640   -0.4090    1.4580 C   0  0  0  0  0  0  0  0  0  0  0  0
    5.2840   -1.1570    2.3890 C   0  0  0  0  0  0  0  0  0  0  0  0
    6.4740   -1.6530    2.0330 N   0  0  0  0  0  0  0  0  0  0  0  0
    6.9970   -1.4500    0.7990 C   0  0  0  0  0  0  0  0  0  0  0  0
    8.2220   -1.9830    0.4890 O   0  0  0  0  0  0  0  0  0  0  0  0
    6.3030   -0.7170   -0.1320 C   0  0  0  0  0  0  0  0  0  0  0  0
    6.8580   -0.5260   -1.3860 O   0  0  0  0  0  0  0  0  0  0  0  0
    7.6900    0.5390   -1.7680 C   0  0  0  0  0  0  0  0  0  0  0  0
   -0.4720    0.3760   -0.3880 C   0  0  0  0  0  0  0  0  0  0  0  0
   -1.7410    0.7830   -0.0390 C   0  0  0  0  0  0  0  0  0  0  0  0
   -2.8500    0.4670   -0.8910 C   0  0  0  0  0  0  0  0  0  0  0  0
   -2.8460    0.9100   -2.0610 O   0  0  0  0  0  0  0  0  0  0  0  0
   -3.9680   -0.3460   -0.4530 C   0  0  0  0  0  0  0  0  0  0  0  0
   -5.2570   -0.3150   -0.8540 C   0  0  0  0  0  0  0  0  0  0  0  0
   -6.1350   -1.1910   -0.3550 C   0  0  0  0  0  0  0  0  0  0  0  0
   -7.6190   -1.2600   -0.7510 C   0  0  0  0  0  0  0  0  0  0  0  0
   -5.6710   -2.1050    0.5670 C   0  0  0  0  0  0  0  0  0  0  0  0
   -6.3540   -3.2000    1.3020 C   0  0  0  0  0  0  0  0  0  0  0  0
   -3.9560   -1.6800    0.6980 S   0  0  0  0  0  0  0  0  0  0  0  0
  1  2  1  0
  2  3  1  0
  3  4  1  0
  3 22  2  0
  4  5  1  0
  5  6  2  0
  5  7  1  0
  7  8  1  0
  7 21  2  0
  8  9  2  0
  8 10  1  0
 10 11  1  0
 11 12  1  0
 12 13  2  0
 12 18  1  0
 13 14  1  0
 14 15  2  0
 15 16  1  0
 16 17  1  0
 16 18  2  0
 18 19  1  0
 19 20  1  0
 21 22  1  0
 22 23  1  0
 23 24  2  0
 23 25  1  0
 25 26  2  0
 25 31  1  0
 26 27  1  0
 27 28  1  0
 27 29  2  0
 29 30  1  0
 29 31  1  0
M  END
