
     RDKit          3D

 31 34  0  0  0  0  0  0  0  0999 V2000
   -5.6220    1.3680    1.6270 C   0  0  0  0  0  0  0  0  0  0  0  0
   -5.5060   -0.0240    1.1890 C   0  0  0  0  0  0  0  0  0  0  0  0
   -5.9020   -1.0550    2.0520 C   0  0  0  0  0  0  0  0  0  0  0  0
   -5.8080   -2.3830    1.6770 C   0  0  0  0  0  0  0  0  0  0  0  0
   -5.3120   -2.6690    0.4270 C   0  0  0  0  0  0  0  0  0  0  0  0
   -4.9210   -1.6470   -0.4250 C   0  0  0  0  0  0  0  0  0  0  0  0
   -5.0140   -0.3300   -0.0530 C   0  0  0  0  0  0  0  0  0  0  0  0
   -4.6160    0.7080   -0.9200 N   0  0  0  0  0  0  0  0  0  0  0  0
   -5.5410    1.4760   -1.5220 C   0  0  0  0  0  0  0  0  0  0  0  0
   -6.7760    1.2400   -1.2880 O   0  0  0  0  0  0  0  0  0  0  0  0
   -5.1530    2.4800   -2.3600 C   0  0  0  0  0  0  0  0  0  0  0  0
   -3.8110    2.6990   -2.5840 C   0  0  0  0  0  0  0  0  0  0  0  0
   -2.8800    1.9210   -1.9740 N   0  0  0  0  0  0  0  0  0  0  0  0
   -3.3020    0.9450   -1.1580 C   0  0  0  0  0  0  0  0  0  0  0  0
   -2.4170    0.1840   -0.5600 N   0  0  0  0  0  0  0  0  0  0  0  0
   -1.0260    0.4050   -0.7870 C   0  0  0  0  0  0  0  0  0  0  0  0
   -0.4760    1.2520   -0.0500 O   0  0  0  0  0  0  0  0  0  0  0  0
   -0.2580   -0.3030   -1.8210 C   0  0  0  0  0  0  0  0  0  0  0  0
    1.2210   -0.1020   -1.6570 C   0  0  0  0  0  0  0  0  0  0  0  0
    1.6770   -0.6670   -0.3510 C   0  0  0  0  0  0  0  0  0  0  0  0
    3.1270   -0.4820   -0.1710 N   0  0  1  0  0  0  0  0  0  0  0  0
    3.3010    0.6980    0.6210 C   0  0  0  0  0  0  0  0  0  0  0  0
    4.6730    0.8110    1.1920 C   0  0  0  0  0  0  0  0  0  0  0  0
    5.4130    1.9510    1.1820 C   0  0  0  0  0  0  0  0  0  0  0  0
    6.6680    1.9200    1.7440 C   0  0  0  0  0  0  0  0  0  0  0  0
    7.1990    0.7740    2.3160 C   0  0  0  0  0  0  0  0  0  0  0  0
    6.4530   -0.3860    2.3290 C   0  0  0  0  0  0  0  0  0  0  0  0
    5.1880   -0.3510    1.7610 C   0  0  0  0  0  0  0  0  0  0  0  0
    4.3000   -1.5390    1.7200 C   0  0  0  0  0  0  0  0  0  0  0  0
    3.6570   -1.6740    0.3870 C   0  0  2  0  0  0  0  0  0  0  0  0
    4.6890   -2.2250   -0.6050 C   0  0  0  0  0  0  0  0  0  0  0  0
  1  2  1  0
  2  3  2  0
  2  7  1  0
  3  4  1  0
  4  5  2  0
  5  6  1  0
  6  7  2  0
  7  8  1  0
  8  9  1  0
  8 14  1  0
  9 10  2  0
  9 11  1  0
 11 12  2  0
 12 13  1  0
 13 14  1  0
 14 15  2  3
 15 16  1  0
 16 17  2  0
 16 18  1  0
 18 19  1  0
 19 20  1  0
 21 20  1  1
 21 22  1  0
 21 30  1  0
 22 23  1  0
 23 24  2  0
 23 28  1  0
 24 25  1  0
 25 26  2  0
 26 27  1  0
 27 28  2  0
 28 29  1  0
 29 30  1  0
 30 31  1  6
M  CHG  1  21   1
M  END
