
     RDKit          3D

 31 34  0  0  0  0  0  0  0  0999 V2000
    5.9110    1.5090    0.5440 C   0  0  0  0  0  0  0  0  0  0  0  0
    5.0240    0.6950    0.1130 C   0  0  0  0  0  0  0  0  0  0  0  0
    3.8470    0.7220   -0.7130 C   0  0  0  0  0  0  0  0  0  0  0  0
    4.0020    0.0990   -1.8950 C   0  0  0  0  0  0  0  0  0  0  0  0
    4.9290   -1.0740   -1.8980 C   0  0  0  0  0  0  0  0  0  0  0  0
    5.5300   -1.4150   -0.7780 C   0  0  0  0  0  0  0  0  0  0  0  0
    5.1890   -0.7840    0.5450 C   0  0  2  0  0  0  0  0  0  0  0  0
    3.7620   -1.2160    0.8140 C   0  0  0  0  0  0  0  0  0  0  0  0
    3.5690   -2.4290    0.6610 O   0  0  0  0  0  0  0  0  0  0  0  0
    2.5600   -0.4470    1.2220 C   0  0  2  0  0  0  0  0  0  0  0  0
    1.7070   -1.3880    2.0540 C   0  0  0  0  0  0  0  0  0  0  0  0
    1.7580   -0.0500    0.0480 N   0  0  1  0  0  0  0  0  0  0  0  0
    0.4550    0.2210    0.4030 C   0  0  0  0  0  0  0  0  0  0  0  0
   -0.5900    0.1360   -0.7400 C   0  0  0  0  0  0  0  0  0  0  0  0
   -1.8480    0.2080   -0.1560 N   0  0  0  0  0  0  0  0  0  0  0  0
   -2.2500    1.2970    0.6090 C   0  0  0  0  0  0  0  0  0  0  0  0
   -2.9730    2.3860    0.0180 C   0  0  0  0  0  0  0  0  0  0  0  0
   -3.9660    2.4120   -0.9260 C   0  0  0  0  0  0  0  0  0  0  0  0
   -4.4400    3.6890   -1.0500 N   0  0  0  0  0  0  0  0  0  0  0  0
   -3.7830    4.4640   -0.2230 N   0  0  0  0  0  0  0  0  0  0  0  0
   -4.0300    5.8900   -0.0100 C   0  0  0  0  0  0  0  0  0  0  0  0
   -2.8670    3.7290    0.4600 C   0  0  0  0  0  0  0  0  0  0  0  0
   -2.9030   -0.6840   -0.4260 C   0  0  0  0  0  0  0  0  0  0  0  0
   -2.7920   -2.1110   -0.3910 C   0  0  0  0  0  0  0  0  0  0  0  0
   -2.3060   -2.8910   -1.4080 C   0  0  0  0  0  0  0  0  0  0  0  0
   -2.4500   -4.2790   -1.3830 C   0  0  0  0  0  0  0  0  0  0  0  0
   -3.0750   -4.9150   -0.3540 C   0  0  0  0  0  0  0  0  0  0  0  0
   -3.5690   -4.1570    0.6710 C   0  0  0  0  0  0  0  0  0  0  0  0
   -3.4380   -2.8060    0.6640 C   0  0  0  0  0  0  0  0  0  0  0  0
   -3.9040   -1.9590    1.6660 O   0  0  0  0  0  0  0  0  0  0  0  0
    2.4170    1.0980   -0.6160 C   0  0  0  0  0  0  0  0  0  0  0  0
  1  2  2  0
  2  3  1  0
  2  7  1  0
  3  4  2  0
  3 31  1  0
  4  5  1  0
  5  6  2  0
  7  6  1  6
  7  8  1  0
  8  9  2  0
  8 10  1  0
 10 11  1  1
 10 12  1  0
 12 13  1  1
 12 31  1  0
 13 14  1  0
 14 15  1  0
 15 16  1  0
 15 23  1  0
 16 17  1  0
 17 18  1  0
 17 22  2  0
 18 19  2  0
 19 20  1  0
 20 21  1  0
 20 22  1  0
 23 24  1  0
 24 25  2  0
 24 29  1  0
 25 26  1  0
 26 27  2  0
 27 28  1  0
 28 29  2  0
 29 30  1  0
M  CHG  1  12   1
M  END
