
     RDKit          3D

 12 11  0  0  0  0  0  0  0  0999 V2000
   -4.9210   -1.0700    0.0890 O   0  0  0  0  0  0  0  0  0  0  0  0
   -3.5640   -0.8400    0.3170 C   0  0  0  0  0  0  0  0  0  0  0  0
   -3.2910    0.4590    0.0520 O   0  0  0  0  0  0  0  0  0  0  0  0
   -2.0060    0.8820    0.2170 C   0  0  0  0  0  0  0  0  0  0  0  0
   -0.9840    0.1830   -0.6290 C   0  0  1  0  0  0  0  0  0  0  0  0
   -1.3290    0.3950   -1.9650 O   0  0  0  0  0  0  0  0  0  0  0  0
    0.2270    0.8420   -0.4140 O   0  0  0  0  0  0  0  0  0  0  0  0
    1.2020   -0.0230    0.0270 C   0  0  0  0  0  0  0  0  0  0  0  0
    2.5000    0.6780    0.2580 C   0  0  2  0  0  0  0  0  0  0  0  0
    2.9360    1.2620   -0.9470 O   0  0  0  0  0  0  0  0  0  0  0  0
    3.5540   -0.2930    0.7450 C   0  0  0  0  0  0  0  0  0  0  0  0
    3.7390   -1.2730   -0.2170 O   0  0  0  0  0  0  0  0  0  0  0  0
  1  2  1  0
  2  3  1  0
  3  4  1  0
  4  5  1  0
  5  6  1  6
  5  7  1  0
  7  8  1  0
  8  9  1  0
  9 10  1  6
  9 11  1  0
 11 12  1  0
M  END
