
     RDKit          3D

 12 11  0  0  0  0  0  0  0  0999 V2000
   -4.5820   -0.0030    0.3730 O   0  0  0  0  0  0  0  0  0  0  0  0
   -4.1960    0.0710   -0.9520 C   0  0  0  0  0  0  0  0  0  0  0  0
   -2.9710   -0.6220   -1.0810 O   0  0  0  0  0  0  0  0  0  0  0  0
   -2.0800    0.0170   -0.2490 C   0  0  0  0  0  0  0  0  0  0  0  0
   -0.8130   -0.5300   -0.2450 O   0  0  0  0  0  0  0  0  0  0  0  0
   -0.0410    0.2290    0.6410 C   0  0  0  0  0  0  0  0  0  0  0  0
    1.3680   -0.2640    0.7400 C   0  0  2  0  0  0  0  0  0  0  0  0
    2.0540    0.5370    1.6300 O   0  0  0  0  0  0  0  0  0  0  0  0
    2.0550   -0.4110   -0.5800 C   0  0  1  0  0  0  0  0  0  0  0  0
    2.2450    0.7750   -1.2460 O   0  0  0  0  0  0  0  0  0  0  0  0
    3.3980   -1.0820   -0.3340 C   0  0  0  0  0  0  0  0  0  0  0  0
    4.2360   -0.2840    0.4280 O   0  0  0  0  0  0  0  0  0  0  0  0
  1  2  1  0
  2  3  1  0
  3  4  1  0
  4  5  1  0
  5  6  1  0
  6  7  1  0
  7  8  1  1
  7  9  1  0
  9 10  1  1
  9 11  1  0
 11 12  1  0
M  END
