
     RDKit          3D

 12 11  0  0  0  0  0  0  0  0999 V2000
   -4.5550   -0.8160    0.3180 O   0  0  0  0  0  0  0  0  0  0  0  0
   -3.2220   -0.6080   -0.0070 C   0  0  0  0  0  0  0  0  0  0  0  0
   -2.4900   -0.2510    1.2690 C   0  0  2  0  0  0  0  0  0  0  0  0
   -3.0070    0.8970    1.8490 O   0  0  0  0  0  0  0  0  0  0  0  0
   -1.0060   -0.0170    0.9940 C   0  0  0  0  0  0  0  0  0  0  0  0
   -0.8370    1.0640    0.1300 O   0  0  0  0  0  0  0  0  0  0  0  0
    0.5060    1.2510   -0.0980 C   0  0  0  0  0  0  0  0  0  0  0  0
    1.1080    0.1390   -0.6740 O   0  0  0  0  0  0  0  0  0  0  0  0
    2.4590    0.3940   -0.8780 C   0  0  2  0  0  0  0  0  0  0  0  0
    2.7060    0.3210   -2.2280 O   0  0  0  0  0  0  0  0  0  0  0  0
    3.2470   -0.6480   -0.1100 C   0  0  0  0  0  0  0  0  0  0  0  0
    4.6150   -0.4690   -0.2560 O   0  0  0  0  0  0  0  0  0  0  0  0
  1  2  1  0
  2  3  1  0
  3  4  1  6
  3  5  1  0
  5  6  1  0
  6  7  1  0
  7  8  1  0
  8  9  1  0
  9 10  1  6
  9 11  1  0
 11 12  1  0
M  END
