
     RDKit          3D

 13 12  0  0  0  0  0  0  0  0999 V2000
   -2.2810   -0.9500    2.2510 O   0  0  0  0  0  0  0  0  0  0  0  0
   -1.7210   -0.8890    1.0990 C   0  0  0  0  0  0  0  0  0  0  0  0
   -1.8660   -2.0170    0.3260 O   0  0  0  0  0  0  0  0  0  0  0  0
   -1.0090    0.3420    0.7400 C   0  0  0  0  0  0  0  0  0  0  0  0
   -0.2750    0.2690   -0.5500 C   0  0  2  0  0  0  0  0  0  0  0  0
   -1.2420   -0.0210   -1.5580 O   0  0  0  0  0  0  0  0  0  0  0  0
    0.7320   -0.8240   -0.6410 C   0  0  0  0  0  0  0  0  0  0  0  0
    1.8060   -0.7890    0.3560 C   0  0  0  0  0  0  0  0  0  0  0  0
    2.7170   -1.6490    0.3120 O   0  0  0  0  0  0  0  0  0  0  0  0
    1.8280    0.1730    1.3370 O   0  0  0  0  0  0  0  0  0  0  0  0
    0.2890    1.5770   -0.9670 C   0  0  0  0  0  0  0  0  0  0  0  0
   -0.0880    2.1840   -1.9940 O   0  0  0  0  0  0  0  0  0  0  0  0
    1.2760    2.1820   -0.2100 O   0  0  0  0  0  0  0  0  0  0  0  0
  1  2  2  0
  2  3  1  0
  2  4  1  0
  4  5  1  0
  5  6  1  6
  5  7  1  0
  5 11  1  0
  7  8  1  0
  8  9  2  0
  8 10  1  0
 11 12  2  0
 11 13  1  0
M  END
