
     RDKit          3D

 12 11  0  0  0  0  0  0  0  0999 V2000
    2.1260   -0.5620    1.5020 O   0  0  0  0  0  0  0  0  0  0  0  0
    1.1120   -0.5880    0.7610 C   0  0  0  0  0  0  0  0  0  0  0  0
   -0.2740   -0.5500    1.3090 C   0  0  0  0  0  0  0  0  0  0  0  0
   -1.2140   -0.5910    0.2770 O   0  0  0  0  0  0  0  0  0  0  0  0
   -2.5060   -0.5580    0.7400 C   0  0  2  0  0  0  0  0  0  0  0  0
   -3.2670   -1.6460    0.3460 O   0  0  0  0  0  0  0  0  0  0  0  0
   -3.1680    0.6870    0.2160 C   0  0  0  0  0  0  0  0  0  0  0  0
   -2.5100    1.8380    0.6380 O   0  0  0  0  0  0  0  0  0  0  0  0
    1.3630   -0.6550   -0.6060 O   0  0  0  0  0  0  0  0  0  0  0  0
    2.6410   -0.6930   -1.1600 C   0  0  0  0  0  0  0  0  0  0  0  0
    3.4840    0.5110   -0.8270 C   0  0  0  0  0  0  0  0  0  0  0  0
    2.9330    1.6940   -1.2670 O   0  0  0  0  0  0  0  0  0  0  0  0
  1  2  2  0
  2  3  1  0
  2  9  1  0
  3  4  1  0
  4  5  1  0
  5  6  1  6
  5  7  1  0
  7  8  1  0
  9 10  1  0
 10 11  1  0
 11 12  1  0
M  END
