
     RDKit          3D

 12 11  0  0  0  0  0  0  0  0999 V2000
    2.2060    1.2070    1.3580 O   0  0  0  0  0  0  0  0  0  0  0  0
    2.7770    1.2730    0.2460 C   0  0  0  0  0  0  0  0  0  0  0  0
    3.2500    2.4970   -0.2120 O   0  0  0  0  0  0  0  0  0  0  0  0
    2.9590    0.1760   -0.5500 O   0  0  0  0  0  0  0  0  0  0  0  0
    2.5200   -1.1060   -0.1860 C   0  0  0  0  0  0  0  0  0  0  0  0
    1.0170   -1.1460    0.0050 C   0  0  0  0  0  0  0  0  0  0  0  0
    0.4220   -0.7880   -1.1750 O   0  0  0  0  0  0  0  0  0  0  0  0
   -0.9410   -0.8080   -1.1050 C   0  0  0  0  0  0  0  0  0  0  0  0
   -1.5250    0.1260   -0.0810 C   0  0  1  0  0  0  0  0  0  0  0  0
   -1.1400    1.4370   -0.3770 O   0  0  0  0  0  0  0  0  0  0  0  0
   -3.0500    0.0380   -0.2080 C   0  0  0  0  0  0  0  0  0  0  0  0
   -3.6220    0.9320    0.6950 O   0  0  0  0  0  0  0  0  0  0  0  0
  1  2  2  0
  2  3  1  0
  2  4  1  0
  4  5  1  0
  5  6  1  0
  6  7  1  0
  7  8  1  0
  8  9  1  0
  9 10  1  6
  9 11  1  0
 11 12  1  0
M  END
