
     RDKit          3D

 13 12  0  0  0  0  0  0  0  0999 V2000
   -0.4520    2.4410   -0.6330 O   0  0  0  0  0  0  0  0  0  0  0  0
   -1.0160    2.0900    0.4240 C   0  0  0  0  0  0  0  0  0  0  0  0
   -1.5440    3.0230    1.3340 O   0  0  0  0  0  0  0  0  0  0  0  0
   -1.1200    0.7440    0.7000 O   0  0  0  0  0  0  0  0  0  0  0  0
   -0.5830   -0.2100   -0.2210 C   0  0  1  0  0  0  0  0  0  0  0  0
   -0.8730   -1.5490    0.3770 C   0  0  0  0  0  0  0  0  0  0  0  0
   -0.3890   -1.7690    1.6490 O   0  0  0  0  0  0  0  0  0  0  0  0
   -1.6910   -0.1360   -1.3750 C   0  0  0  0  0  0  0  0  0  0  0  0
   -2.9120   -0.4880   -0.8400 O   0  0  0  0  0  0  0  0  0  0  0  0
    0.5220    0.0670   -0.8360 O   0  0  0  0  0  0  0  0  0  0  0  0
    1.7470    0.3410   -0.5190 C   0  0  0  0  0  0  0  0  0  0  0  0
    2.4710   -0.7620    0.2230 C   0  0  0  0  0  0  0  0  0  0  0  0
    3.7970   -0.3620    0.4990 O   0  0  0  0  0  0  0  0  0  0  0  0
  1  2  2  0
  2  3  1  0
  2  4  1  0
  4  5  1  0
  5  6  1  1
  5  8  1  0
  5 10  1  0
  6  7  1  0
  8  9  1  0
 10 11  1  0
 11 12  1  0
 12 13  1  0
M  END
