
     RDKit          3D

 20 20  0  0  0  0  0  0  0  0999 V2000
   -3.9370    1.9330    0.0190 C   0  0  0  0  0  0  0  0  0  0  0  0
   -3.5660    0.4540    0.0330 C   0  0  1  0  0  0  0  0  0  0  0  0
   -2.1680    0.2620    0.5940 C   0  0  2  0  0  0  0  0  0  0  0  0
   -2.0860    0.7580    1.8930 O   0  0  0  0  0  0  0  0  0  0  0  0
   -1.1270    0.9220   -0.2860 C   0  0  0  0  0  0  0  0  0  0  0  0
    0.1600    0.6820    0.1890 O   0  0  0  0  0  0  0  0  0  0  0  0
    1.1030    1.2970   -0.6340 C   0  0  0  0  0  0  0  0  0  0  0  0
    2.5130    1.0540   -0.1420 C   0  0  2  0  0  0  0  0  0  0  0  0
    3.3630    1.7070   -1.0310 O   0  0  0  0  0  0  0  0  0  0  0  0
    2.8350   -0.3990   -0.0120 C   0  0  1  0  0  0  0  0  0  0  0  0
    2.7520   -1.0950   -1.1960 O   0  0  0  0  0  0  0  0  0  0  0  0
    4.1090   -0.5820    0.7410 C   0  0  1  0  0  0  0  0  0  0  0  0
    4.2580   -1.9950    1.0660 N   0  0  0  0  0  0  0  0  0  0  0  0
    5.3310   -0.1050   -0.0170 C   0  0  0  0  0  0  0  0  0  0  0  0
    5.4480   -0.8420   -1.1890 O   0  0  0  0  0  0  0  0  0  0  0  0
   -4.5150   -0.1980    1.0320 C   0  0  0  0  0  0  0  0  0  0  0  0
   -4.5000   -1.6880    0.7800 C   0  0  0  0  0  0  0  0  0  0  0  0
   -4.9180   -1.8610   -0.5420 O   0  0  0  0  0  0  0  0  0  0  0  0
   -3.9680   -1.3290   -1.4000 C   0  0  0  0  0  0  0  0  0  0  0  0
   -3.7090   -0.0110   -1.2350 O   0  0  0  0  0  0  0  0  0  0  0  0
  2  1  1  6
  2  3  1  0
  2 16  1  0
  2 20  1  0
  3  4  1  1
  3  5  1  0
  5  6  1  0
  6  7  1  0
  7  8  1  0
  8  9  1  6
  8 10  1  0
 10 11  1  6
 10 12  1  0
 12 13  1  6
 12 14  1  0
 14 15  1  0
 16 17  1  0
 17 18  1  0
 18 19  1  0
 19 20  1  0
M  CHG  1  13   1
M  END
