
     RDKit          3D

 20 20  0  0  0  0  0  0  0  0999 V2000
   -1.9840    0.9510    2.4280 O   0  0  0  0  0  0  0  0  0  0  0  0
   -2.2350    1.4820    1.1760 C   0  0  0  0  0  0  0  0  0  0  0  0
   -1.4200    0.8630    0.0750 C   0  0  1  0  0  0  0  0  0  0  0  0
   -0.0860    1.0960    0.4060 O   0  0  0  0  0  0  0  0  0  0  0  0
    0.3290    2.3430   -0.0030 C   0  0  0  0  0  0  0  0  0  0  0  0
    1.6950    2.2900   -0.6730 C   0  0  1  0  0  0  0  0  0  0  0  0
    2.0290    3.5370   -1.1430 O   0  0  0  0  0  0  0  0  0  0  0  0
    2.7500    1.7250    0.2600 C   0  0  0  0  0  0  0  0  0  0  0  0
    2.3820    0.4600    0.6730 O   0  0  0  0  0  0  0  0  0  0  0  0
    3.3570   -0.5060    0.4450 C   0  0  0  0  0  0  0  0  0  0  0  0
    2.6430   -1.8590    0.3190 C   0  0  2  0  0  0  0  0  0  0  0  0
    3.4030   -2.7800   -0.3670 O   0  0  0  0  0  0  0  0  0  0  0  0
    1.2700   -1.6450   -0.3430 C   0  0  0  0  0  0  0  0  0  0  0  0
    0.3130   -1.5820    0.7160 N   0  0  0  0  0  0  0  0  0  0  0  0
   -1.0410   -1.6110    0.4080 C   0  0  0  0  0  0  0  0  0  0  0  0
   -1.7290   -0.5290   -0.2990 C   0  0  2  0  0  0  0  0  0  0  0  0
   -1.5910   -0.6550   -1.8280 C   0  0  0  0  0  0  0  0  0  0  0  0
   -1.8800   -1.9680   -2.1960 O   0  0  0  0  0  0  0  0  0  0  0  0
   -3.2350   -0.8250   -0.1100 C   0  0  0  0  0  0  0  0  0  0  0  0
   -3.6490   -0.6570    1.1930 O   0  0  0  0  0  0  0  0  0  0  0  0
  1  2  1  0
  3  2  1  1
  3  4  1  0
  3 16  1  0
  4  5  1  0
  5  6  1  0
  6  7  1  1
  6  8  1  0
  8  9  1  0
  9 10  1  0
 10 11  1  0
 11 12  1  6
 11 13  1  0
 13 14  1  0
 14 15  1  0
 15 16  1  0
 16 17  1  6
 16 19  1  0
 17 18  1  0
 19 20  1  0
M  CHG  1  14   1
M  END
