
     RDKit          3D

 20 21  0  0  0  0  0  0  0  0999 V2000
   -1.3140    0.4130   -1.6650 N   0  0  0  0  0  0  0  0  0  0  0  0
   -0.7230   -0.5450   -0.7760 C   0  0  1  0  0  0  0  0  0  0  0  0
    0.7340   -0.7880   -1.0050 C   0  0  1  0  0  0  0  0  0  0  0  0
    1.2390   -0.2150   -2.3030 C   0  0  0  0  0  0  0  0  0  0  0  0
    1.1170    1.1300   -2.4570 O   0  0  0  0  0  0  0  0  0  0  0  0
    1.5630   -0.4880    0.1920 C   0  0  1  0  0  0  0  0  0  0  0  0
    3.0480   -0.4910   -0.0890 C   0  0  0  0  0  0  0  0  0  0  0  0
    3.7940   -0.2140    1.0440 O   0  0  0  0  0  0  0  0  0  0  0  0
    5.1500   -0.2270    0.7400 C   0  0  2  0  0  0  0  0  0  0  0  0
    5.8160   -1.2620    1.4230 O   0  0  0  0  0  0  0  0  0  0  0  0
    5.7560    1.0010    0.9780 O   0  0  0  0  0  0  0  0  0  0  0  0
    1.1990    0.7800    0.9280 C   0  0  0  0  0  0  0  0  0  0  0  0
   -0.1590    1.0320    0.9060 O   0  0  0  0  0  0  0  0  0  0  0  0
   -0.9060   -0.1100    0.6550 C   0  0  1  0  0  0  0  0  0  0  0  0
   -2.3650    0.1440    0.9580 C   0  0  2  0  0  0  0  0  0  0  0  0
   -3.0460   -1.0230    0.6660 O   0  0  0  0  0  0  0  0  0  0  0  0
   -4.3960   -0.8210    0.4160 C   0  0  0  0  0  0  0  0  0  0  0  0
   -4.8790    0.4280    1.1380 C   0  0  0  0  0  0  0  0  0  0  0  0
   -4.1120    1.5850    0.4940 C   0  0  0  0  0  0  0  0  0  0  0  0
   -2.7890    1.2710    0.3190 O   0  0  0  0  0  0  0  0  0  0  0  0
  2  1  1  6
  2  3  1  0
  2 14  1  0
  3  4  1  6
  3  6  1  0
  4  5  1  0
  6  7  1  6
  6 12  1  0
  7  8  1  0
  8  9  1  0
  9 10  1  1
  9 11  1  0
 12 13  1  0
 14 13  1  6
 14 15  1  0
 15 16  1  6
 15 20  1  0
 16 17  1  0
 17 18  1  0
 18 19  1  0
 19 20  1  0
M  CHG  1   1   1
M  END
