
     RDKit          3D

 21 21  0  0  0  0  0  0  0  0999 V2000
    0.0220    4.3790    0.0490 C   0  0  0  0  0  0  0  0  0  0  0  0
   -0.1360    2.9950    0.3160 O   0  0  0  0  0  0  0  0  0  0  0  0
    0.5770    2.0750   -0.3870 C   0  0  0  0  0  0  0  0  0  0  0  0
    1.3880    2.3860   -1.2810 O   0  0  0  0  0  0  0  0  0  0  0  0
    0.3950    0.6050   -0.0850 C   0  0  2  0  0  0  0  0  0  0  0  0
    1.2590   -0.1380   -0.8910 O   0  0  0  0  0  0  0  0  0  0  0  0
    2.2430   -0.7950   -0.1630 C   0  0  2  0  0  0  0  0  0  0  0  0
    3.5600   -0.1610   -0.5910 C   0  0  0  0  0  0  0  0  0  0  0  0
    4.7350   -0.7760    0.1200 C   0  0  0  0  0  0  0  0  0  0  0  0
    4.6580   -0.6340    1.4910 O   0  0  0  0  0  0  0  0  0  0  0  0
    2.2250   -2.2620   -0.4080 C   0  0  1  0  0  0  0  0  0  0  0  0
    1.0150   -2.8280   -0.0400 O   0  0  0  0  0  0  0  0  0  0  0  0
    2.4850   -2.5770   -1.7570 O   0  0  0  0  0  0  0  0  0  0  0  0
   -1.0400    0.3010   -0.2800 C   0  0  2  0  0  0  0  0  0  0  0  0
   -1.8670    1.1730    0.6290 C   0  0  0  0  0  0  0  0  0  0  0  0
   -3.0410    0.2920    0.9980 C   0  0  2  0  0  0  0  0  0  0  0  0
   -3.3140    0.3960    2.3690 O   0  0  0  0  0  0  0  0  0  0  0  0
   -2.5840   -1.0700    0.6310 C   0  0  1  0  0  0  0  0  0  0  0  0
   -3.6960   -1.8010   -0.0700 C   0  0  0  0  0  0  0  0  0  0  0  0
   -4.0430   -1.1880   -1.3350 N   0  0  0  0  0  0  0  0  0  0  0  0
   -1.4160   -1.0000   -0.0560 O   0  0  0  0  0  0  0  0  0  0  0  0
  1  2  1  0
  2  3  1  0
  3  4  2  0
  3  5  1  0
  5  6  1  6
  5 14  1  0
  6  7  1  0
  7  8  1  6
  7 11  1  0
  8  9  1  0
  9 10  1  0
 11 12  1  6
 11 13  1  0
 14 15  1  1
 14 21  1  0
 15 16  1  0
 16 17  1  1
 16 18  1  0
 18 19  1  6
 18 21  1  0
 19 20  1  0
M  CHG  1  20   1
M  END
