
     RDKit          3D

 21 21  0  0  0  0  0  0  0  0999 V2000
    4.1240    1.7690   -0.5280 N   0  0  0  0  0  0  0  0  0  0  0  0
    3.6400    0.7480    0.3490 C   0  0  0  0  0  0  0  0  0  0  0  0
    2.3600    0.0910   -0.1610 C   0  0  2  0  0  0  0  0  0  0  0  0
    2.6510   -0.4840   -1.4190 O   0  0  0  0  0  0  0  0  0  0  0  0
    1.3130    1.1380   -0.3910 C   0  0  0  0  0  0  0  0  0  0  0  0
    0.6100    1.5000    0.7710 O   0  0  0  0  0  0  0  0  0  0  0  0
   -0.7330    1.8360    0.7460 C   0  0  0  0  0  0  0  0  0  0  0  0
   -1.2620    2.0830    1.8830 O   0  0  0  0  0  0  0  0  0  0  0  0
   -1.5880    1.9330   -0.4330 C   0  0  0  0  0  0  0  0  0  0  0  0
   -2.6640    0.8860   -0.5090 C   0  0  2  0  0  0  0  0  0  0  0  0
   -4.0580    1.4770   -0.2790 C   0  0  0  0  0  0  0  0  0  0  0  0
   -4.1930    2.5690   -1.1610 O   0  0  0  0  0  0  0  0  0  0  0  0
   -2.4480   -0.1890    0.3160 O   0  0  0  0  0  0  0  0  0  0  0  0
   -3.1650   -1.3030    0.0180 C   0  0  0  0  0  0  0  0  0  0  0  0
   -2.4360   -2.5600   -0.1990 C   0  0  0  0  0  0  0  0  0  0  0  0
   -1.2150   -2.6940    0.4210 O   0  0  0  0  0  0  0  0  0  0  0  0
   -0.3520   -1.6530    0.2200 C   0  0  0  0  0  0  0  0  0  0  0  0
    1.1250   -2.0720    0.2030 C   0  0  2  0  0  0  0  0  0  0  0  0
    1.2190   -3.1740    1.0520 O   0  0  0  0  0  0  0  0  0  0  0  0
    1.9970   -0.9870    0.7790 C   0  0  1  0  0  0  0  0  0  0  0  0
    3.1840   -1.6140    1.2040 O   0  0  0  0  0  0  0  0  0  0  0  0
  1  2  1  0
  2  3  1  0
  3  4  1  6
  3  5  1  0
  3 20  1  0
  5  6  1  0
  6  7  1  0
  7  8  2  0
  7  9  1  0
  9 10  1  0
 10 11  1  1
 10 13  1  0
 11 12  1  0
 13 14  1  0
 14 15  1  0
 15 16  1  0
 16 17  1  0
 17 18  1  0
 18 19  1  1
 18 20  1  0
 20 21  1  6
M  CHG  1   1   1
M  END
