
     RDKit          3D

 17 19  0  0  0  0  0  0  0  0999 V2000
   -1.1660    1.3980   -2.6210 C   0  0  0  0  0  0  0  0  0  0  0  0
   -0.6690    0.4780   -1.5590 C   0  0  0  0  0  0  0  0  0  0  0  0
    0.5580   -0.0250   -1.5790 N   0  0  0  0  0  0  0  0  0  0  0  0
    1.0650   -0.8520   -0.6640 C   0  0  0  0  0  0  0  0  0  0  0  0
    2.4420   -1.4040   -0.7050 C   0  0  0  0  0  0  0  0  0  0  0  0
    3.4260   -0.5640   -0.0140 C   0  0  0  0  0  0  0  0  0  0  0  0
    4.1780    0.4630   -0.5620 C   0  0  0  0  0  0  0  0  0  0  0  0
    4.9700    1.0000    0.3810 N   0  0  0  0  0  0  0  0  0  0  0  0
    4.7250    0.3330    1.4890 N   0  0  0  0  0  0  0  0  0  0  0  0
    3.7990   -0.6220    1.3010 C   0  0  0  0  0  0  0  0  0  0  0  0
    0.2380   -1.1910    0.3640 N   0  0  0  0  0  0  0  0  0  0  0  0
   -1.0080   -0.7280    0.4580 C   0  0  0  0  0  0  0  0  0  0  0  0
   -1.5070    0.1240   -0.5010 C   0  0  0  0  0  0  0  0  0  0  0  0
   -2.8710    0.6690   -0.4560 C   0  0  0  0  0  0  0  0  0  0  0  0
   -3.5720    0.3990    0.7600 N   0  0  0  0  0  0  0  0  0  0  0  0
   -2.7060    0.1800    1.8960 C   0  0  0  0  0  0  0  0  0  0  0  0
   -1.9120   -1.0940    1.5740 C   0  0  0  0  0  0  0  0  0  0  0  0
  1  2  1  0
  2  3  2  0
  2 13  1  0
  3  4  1  0
  4  5  1  0
  4 11  2  0
  5  6  1  0
  6  7  1  0
  6 10  2  0
  7  8  2  0
  8  9  1  0
  9 10  1  0
 11 12  1  0
 12 13  2  0
 12 17  1  0
 13 14  1  0
 14 15  1  0
 15 16  1  0
 16 17  1  0
M  CHG  1  15   1
M  END
