
     RDKit          3D

 17 19  0  0  0  0  0  0  0  0999 V2000
    4.5940    0.8890   -0.7190 N   0  0  0  0  0  0  0  0  0  0  0  0
    3.1950    0.8220   -0.1860 C   0  0  0  0  0  0  0  0  0  0  0  0
    2.7890   -0.6140   -0.3530 C   0  0  0  0  0  0  0  0  0  0  0  0
    3.6980   -1.6440   -0.4600 N   0  0  0  0  0  0  0  0  0  0  0  0
    3.0360   -2.7510   -0.6610 N   0  0  0  0  0  0  0  0  0  0  0  0
    1.7180   -2.5060   -0.6930 C   0  0  0  0  0  0  0  0  0  0  0  0
    1.5790   -1.1550   -0.4960 N   0  0  0  0  0  0  0  0  0  0  0  0
    0.2900   -0.5360   -0.3720 C   0  0  0  0  0  0  0  0  0  0  0  0
    0.2140    0.5770    0.3080 C   0  0  0  0  0  0  0  0  0  0  0  0
   -0.9550    1.4470    0.6080 C   0  0  0  0  0  0  0  0  0  0  0  0
   -2.2410    1.1230    0.4900 C   0  0  0  0  0  0  0  0  0  0  0  0
   -3.3650    1.9950    0.7960 C   0  0  0  0  0  0  0  0  0  0  0  0
   -4.4560    1.2960    0.5510 C   0  0  0  0  0  0  0  0  0  0  0  0
   -4.1440   -0.0390    0.0820 C   0  0  0  0  0  0  0  0  0  0  0  0
   -2.8300   -0.1320    0.0470 C   0  0  0  0  0  0  0  0  0  0  0  0
   -2.0570   -1.2580   -0.3870 N   0  0  0  0  0  0  0  0  0  0  0  0
   -0.8170   -1.2460   -1.1170 C   0  0  0  0  0  0  0  0  0  0  0  0
  1  2  1  0
  2  3  1  0
  3  4  2  0
  3  7  1  0
  4  5  1  0
  5  6  2  0
  6  7  1  0
  7  8  1  0
  8  9  2  0
  8 17  1  0
  9 10  1  0
 10 11  2  0
 11 12  1  0
 11 15  1  0
 12 13  2  0
 13 14  1  0
 14 15  2  0
 15 16  1  0
 16 17  1  0
M  END
