
     RDKit          3D

 17 18  0  0  0  0  0  0  0  0999 V2000
    4.9520    1.1570    0.3220 C   0  0  0  0  0  0  0  0  0  0  0  0
    4.3360    0.1370   -0.5950 C   0  0  1  0  0  0  0  0  0  0  0  0
    4.6600   -1.2800   -0.2170 C   0  0  0  0  0  0  0  0  0  0  0  0
    2.8950    0.3210   -0.7640 N   0  0  0  0  0  0  0  0  0  0  0  0
    2.2410    0.6400    0.4930 C   0  0  0  0  0  0  0  0  0  0  0  0
    0.8310    0.2420    0.5930 C   0  0  0  0  0  0  0  0  0  0  0  0
    0.2820   -0.3270    1.7000 N   0  0  0  0  0  0  0  0  0  0  0  0
   -1.0370   -0.4900    1.4920 C   0  0  0  0  0  0  0  0  0  0  0  0
   -1.3660   -0.0420    0.2680 N   0  0  0  0  0  0  0  0  0  0  0  0
   -2.3670    0.1200   -0.6200 C   0  0  0  0  0  0  0  0  0  0  0  0
   -3.7780   -0.2490   -0.3230 C   0  0  1  0  0  0  0  0  0  0  0  0
   -3.8570   -1.6750    0.1050 C   0  0  0  0  0  0  0  0  0  0  0  0
   -4.2890    0.6750    0.8010 C   0  0  0  0  0  0  0  0  0  0  0  0
   -4.6620   -0.0270   -1.5290 C   0  0  0  0  0  0  0  0  0  0  0  0
   -1.8400    0.6650   -1.7080 N   0  0  0  0  0  0  0  0  0  0  0  0
   -0.5260    0.8420   -1.5000 N   0  0  0  0  0  0  0  0  0  0  0  0
   -0.2160    0.4050   -0.2770 C   0  0  0  0  0  0  0  0  0  0  0  0
  2  1  1  1
  2  3  1  0
  2  4  1  0
  4  5  1  0
  5  6  1  0
  6  7  1  0
  6 17  2  0
  7  8  2  0
  8  9  1  0
  9 10  1  0
  9 17  1  0
 10 11  1  0
 10 15  2  0
 11 12  1  1
 11 13  1  0
 11 14  1  0
 15 16  1  0
 16 17  1  0
M  CHG  1   4   1
M  END
