
     RDKit          3D

 17 19  0  0  0  0  0  0  0  0999 V2000
    4.6550    0.8810   -0.4780 C   0  0  0  0  0  0  0  0  0  0  0  0
    4.7370   -0.4420   -0.0730 C   0  0  0  0  0  0  0  0  0  0  0  0
    3.5640   -1.1060    0.1900 C   0  0  0  0  0  0  0  0  0  0  0  0
    2.3160   -0.4920    0.0610 C   0  0  0  0  0  0  0  0  0  0  0  0
    1.1820   -1.1660    0.3260 N   0  0  0  0  0  0  0  0  0  0  0  0
    0.0040   -0.5340    0.1880 C   0  0  0  0  0  0  0  0  0  0  0  0
   -1.0560   -1.2270    0.4550 N   0  0  0  0  0  0  0  0  0  0  0  0
   -2.3250   -0.6350    0.3330 C   0  0  0  0  0  0  0  0  0  0  0  0
   -2.6740   -0.0270   -0.8640 C   0  0  0  0  0  0  0  0  0  0  0  0
   -3.9200    0.5650   -1.0110 C   0  0  0  0  0  0  0  0  0  0  0  0
   -4.7850    0.5410    0.0260 N   0  0  0  0  0  0  0  0  0  0  0  0
   -4.5050   -0.0280    1.1990 C   0  0  0  0  0  0  0  0  0  0  0  0
   -3.2650   -0.6160    1.3420 C   0  0  0  0  0  0  0  0  0  0  0  0
   -0.0360    0.7510   -0.2080 N   0  0  0  0  0  0  0  0  0  0  0  0
    1.0600    1.4410   -0.4760 N   0  0  0  0  0  0  0  0  0  0  0  0
    2.2460    0.8240   -0.3430 C   0  0  0  0  0  0  0  0  0  0  0  0
    3.4350    1.5070   -0.6120 C   0  0  0  0  0  0  0  0  0  0  0  0
  1  2  2  0
  1 17  1  0
  2  3  1  0
  3  4  2  0
  4  5  1  0
  4 16  1  0
  5  6  1  0
  6  7  2  3
  6 14  1  0
  7  8  1  0
  8  9  2  0
  8 13  1  0
  9 10  1  0
 10 11  2  0
 11 12  1  0
 12 13  2  0
 14 15  2  0
 15 16  1  0
 16 17  2  0
M  CHG  1  11   1
M  END
