
     RDKit          3D

 17 19  0  0  0  0  0  0  0  0999 V2000
    6.0520    1.0950   -0.1560 C   0  0  0  0  0  0  0  0  0  0  0  0
    5.1160   -0.0940   -0.1010 C   0  0  0  0  0  0  0  0  0  0  0  0
    3.7070    0.4500   -0.0630 C   0  0  0  0  0  0  0  0  0  0  0  0
    2.7180   -0.5780   -0.0090 N   0  0  0  0  0  0  0  0  0  0  0  0
    1.3320   -0.2760    0.0320 C   0  0  0  0  0  0  0  0  0  0  0  0
    0.2770   -1.1730    0.0860 C   0  0  0  0  0  0  0  0  0  0  0  0
   -0.8860   -0.4990    0.1120 N   0  0  0  0  0  0  0  0  0  0  0  0
   -0.5610    0.8010    0.0760 C   0  0  0  0  0  0  0  0  0  0  0  0
   -1.7370    1.4830    0.1020 N   0  0  0  0  0  0  0  0  0  0  0  0
   -2.7800    0.6390    0.1550 C   0  0  0  0  0  0  0  0  0  0  0  0
   -4.1310    0.8260    0.1970 N   0  0  0  0  0  0  0  0  0  0  0  0
   -4.9400   -0.2450    0.2460 C   0  0  0  0  0  0  0  0  0  0  0  0
   -6.4140   -0.0570    0.2930 C   0  0  0  0  0  0  0  0  0  0  0  0
   -4.4150   -1.5220    0.2530 C   0  0  0  0  0  0  0  0  0  0  0  0
   -3.0510   -1.7180    0.2110 C   0  0  0  0  0  0  0  0  0  0  0  0
   -2.2360   -0.6220    0.1610 C   0  0  0  0  0  0  0  0  0  0  0  0
    0.7820    0.9490    0.0270 N   0  0  0  0  0  0  0  0  0  0  0  0
  1  2  1  0
  2  3  1  0
  3  4  1  0
  4  5  1  0
  5  6  2  0
  5 17  1  0
  6  7  1  0
  7  8  1  0
  7 16  1  0
  8  9  1  0
  8 17  2  0
  9 10  1  0
 10 11  2  0
 10 16  1  0
 11 12  1  0
 12 13  1  0
 12 14  2  0
 14 15  1  0
 15 16  2  0
M  CHG  1  17   1
M  END
