
     RDKit          3D

 17 19  0  0  0  0  0  0  0  0999 V2000
   -4.9100    0.3610   -0.3200 C   0  0  0  0  0  0  0  0  0  0  0  0
   -3.8810    0.7250   -1.1540 C   0  0  0  0  0  0  0  0  0  0  0  0
   -2.5670    0.7180   -0.7220 C   0  0  0  0  0  0  0  0  0  0  0  0
   -2.2910    0.3490    0.5360 N   0  0  0  0  0  0  0  0  0  0  0  0
   -1.1330    0.2550    1.1990 C   0  0  0  0  0  0  0  0  0  0  0  0
    0.2280    0.5280    0.7500 C   0  0  0  0  0  0  0  0  0  0  0  0
    0.9120   -0.6240    0.2210 N   0  0  0  0  0  0  0  0  0  0  0  0
    2.2280   -0.4800   -0.2420 C   0  0  0  0  0  0  0  0  0  0  0  0
    2.9420    0.6980   -0.2320 C   0  0  0  0  0  0  0  0  0  0  0  0
    4.2530    0.7570   -0.7130 C   0  0  0  0  0  0  0  0  0  0  0  0
    4.8250   -0.3570   -1.1920 N   0  0  0  0  0  0  0  0  0  0  0  0
    4.1680   -1.5230   -1.2200 C   0  0  0  0  0  0  0  0  0  0  0  0
    2.8700   -1.5850   -0.7460 C   0  0  0  0  0  0  0  0  0  0  0  0
   -1.4380   -0.1650    2.4380 N   0  0  0  0  0  0  0  0  0  0  0  0
   -2.7230   -0.3230    2.5390 N   0  0  0  0  0  0  0  0  0  0  0  0
   -3.2670   -0.0070    1.3620 C   0  0  0  0  0  0  0  0  0  0  0  0
   -4.6050   -0.0200    0.9850 C   0  0  0  0  0  0  0  0  0  0  0  0
  1  2  1  0
  1 17  2  0
  2  3  2  0
  3  4  1  0
  4  5  1  0
  4 16  1  0
  5  6  1  0
  5 14  2  0
  6  7  1  0
  7  8  1  0
  8  9  2  0
  8 13  1  0
  9 10  1  0
 10 11  2  0
 11 12  1  0
 12 13  2  0
 14 15  1  0
 15 16  2  0
 16 17  1  0
M  CHG  1  11   1
M  END
