
     RDKit          3D

 22 23  0  0  0  0  0  0  0  0999 V2000
    4.0290    2.4680   -0.2750 O   0  0  0  0  0  0  0  0  0  0  0  0
    4.1580    1.5960    0.7950 C   0  0  0  0  0  0  0  0  0  0  0  0
    3.2480    0.4040    0.6650 C   0  0  1  0  0  0  0  0  0  0  0  0
    1.9320    0.7840    0.6110 O   0  0  0  0  0  0  0  0  0  0  0  0
    1.0940   -0.1130    0.0030 C   0  0  2  0  0  0  0  0  0  0  0  0
   -0.1600    0.0090    0.6030 O   0  0  0  0  0  0  0  0  0  0  0  0
   -1.1380    0.3710   -0.3090 C   0  0  2  0  0  0  0  0  0  0  0  0
   -1.7080    1.7270    0.1010 C   0  0  2  0  0  0  0  0  0  0  0  0
   -0.7210    2.5560    0.5960 O   0  0  0  0  0  0  0  0  0  0  0  0
   -2.7080    1.4790    1.2220 C   0  0  0  0  0  0  0  0  0  0  0  0
   -3.8740    0.7790    0.6980 N   0  0  0  0  0  0  0  0  0  0  0  0
   -3.5560   -0.0160   -0.4540 C   0  0  2  0  0  0  0  0  0  0  0  0
   -4.5980   -1.0990   -0.6170 C   0  0  0  0  0  0  0  0  0  0  0  0
   -4.3350   -1.8980   -1.7200 O   0  0  0  0  0  0  0  0  0  0  0  0
   -2.2160   -0.6950   -0.2710 C   0  0  1  0  0  0  0  0  0  0  0  0
   -1.9860   -1.6050   -1.3010 O   0  0  0  0  0  0  0  0  0  0  0  0
    1.5140   -1.5490    0.1330 C   0  0  2  0  0  0  0  0  0  0  0  0
    1.2660   -2.0420    1.4140 O   0  0  0  0  0  0  0  0  0  0  0  0
    2.9410   -1.7900   -0.2980 C   0  0  1  0  0  0  0  0  0  0  0  0
    3.0510   -2.6130   -1.3920 O   0  0  0  0  0  0  0  0  0  0  0  0
    3.5430   -0.4050   -0.5810 C   0  0  2  0  0  0  0  0  0  0  0  0
    4.8990   -0.4880   -0.8540 O   0  0  0  0  0  0  0  0  0  0  0  0
  1  2  1  0
  3  2  1  6
  3  4  1  0
  3 21  1  0
  4  5  1  0
  5  6  1  1
  5 17  1  0
  7  6  1  1
  7  8  1  0
  7 15  1  0
  8  9  1  1
  8 10  1  0
 10 11  1  0
 11 12  1  0
 12 13  1  1
 12 15  1  0
 13 14  1  0
 15 16  1  6
 17 18  1  1
 17 19  1  0
 19 20  1  6
 19 21  1  0
 21 22  1  1
M  CHG  1  11   1
M  END
