
     RDKit          3D

 17 19  0  0  0  0  0  0  0  0999 V2000
    5.2110    0.8520    0.0540 C   0  0  0  0  0  0  0  0  0  0  0  0
    4.5590    1.0000   -1.1610 C   0  0  0  0  0  0  0  0  0  0  0  0
    3.2620    0.5110   -1.3270 C   0  0  0  0  0  0  0  0  0  0  0  0
    2.6300   -0.1180   -0.2800 C   0  0  0  0  0  0  0  0  0  0  0  0
    1.2680   -0.6730   -0.3300 C   0  0  0  0  0  0  0  0  0  0  0  0
    0.2570    0.2720    0.0840 N   0  0  0  0  0  0  0  0  0  0  0  0
   -1.1060   -0.1350    0.0830 C   0  0  0  0  0  0  0  0  0  0  0  0
   -1.4860   -1.4110   -0.3020 C   0  0  0  0  0  0  0  0  0  0  0  0
   -2.8070   -1.8080   -0.3040 C   0  0  0  0  0  0  0  0  0  0  0  0
   -3.8040   -0.9300    0.0860 C   0  0  0  0  0  0  0  0  0  0  0  0
   -5.1500   -1.0160    0.1910 N   0  0  0  0  0  0  0  0  0  0  0  0
   -5.6000    0.1720    0.6290 C   0  0  0  0  0  0  0  0  0  0  0  0
   -4.5430    0.9850    0.7950 N   0  0  0  0  0  0  0  0  0  0  0  0
   -3.4000    0.3330    0.4650 C   0  0  0  0  0  0  0  0  0  0  0  0
   -2.0940    0.6960    0.4570 N   0  0  0  0  0  0  0  0  0  0  0  0
    3.3160   -0.2290    0.8720 N   0  0  0  0  0  0  0  0  0  0  0  0
    4.5470    0.2250    1.0560 C   0  0  0  0  0  0  0  0  0  0  0  0
  1  2  2  0
  1 17  1  0
  2  3  1  0
  3  4  2  0
  4  5  1  0
  4 16  1  0
  5  6  1  0
  6  7  1  0
  7  8  2  0
  7 15  1  0
  8  9  1  0
  9 10  2  0
 10 11  1  0
 10 14  1  0
 11 12  2  0
 12 13  1  0
 13 14  1  0
 14 15  2  0
 16 17  2  0
M  CHG  1  15   1
M  END
