
     RDKit          3D

 14 15  0  0  0  0  0  0  0  0999 V2000
    1.4360    2.0340    0.4930 N   0  0  0  0  0  0  0  0  0  0  0  0
    1.6720    0.6670    0.1710 C   0  0  0  0  0  0  0  0  0  0  0  0
    2.8770    0.1520    0.0580 C   0  0  0  0  0  0  0  0  0  0  0  0
    2.7040   -1.2110   -0.2670 N   0  0  0  0  0  0  0  0  0  0  0  0
    1.3030   -1.4410   -0.3310 C   0  0  0  0  0  0  0  0  0  0  0  0
    0.6430   -0.3250   -0.0720 C   0  0  0  0  0  0  0  0  0  0  0  0
   -0.8050   -0.1490   -0.0400 C   0  0  0  0  0  0  0  0  0  0  0  0
   -1.3610    1.0380    0.2370 N   0  0  0  0  0  0  0  0  0  0  0  0
   -2.6980    1.2050    0.2670 C   0  0  0  0  0  0  0  0  0  0  0  0
   -3.1990    2.3330    0.5310 O   0  0  0  0  0  0  0  0  0  0  0  0
   -3.4860    0.1220    0.0050 N   0  0  0  0  0  0  0  0  0  0  0  0
   -2.9190   -1.0570   -0.2710 C   0  0  0  0  0  0  0  0  0  0  0  0
   -3.8300   -2.3940   -0.5940 S   0  0  0  0  0  0  0  0  0  0  0  0
   -1.6230   -1.1450   -0.2820 O   0  0  0  0  0  0  0  0  0  0  0  0
  1  2  1  0
  2  3  2  0
  2  6  1  0
  3  4  1  0
  4  5  1  0
  5  6  2  0
  6  7  1  0
  7  8  2  0
  7 14  1  0
  8  9  1  0
  9 10  2  0
  9 11  1  0
 11 12  1  0
 12 13  2  0
 12 14  1  0
M  CHG  1   4   1
M  END
