
     RDKit          3D

 15 16  0  0  0  0  0  0  0  0999 V2000
    4.6300    0.4020    1.1060 N   0  0  0  0  0  0  0  0  0  0  0  0
    3.5000    0.0480    0.3280 C   0  0  0  0  0  0  0  0  0  0  0  0
    3.4190   -0.4700   -0.8200 N   0  0  0  0  0  0  0  0  0  0  0  0
    2.1890   -0.7270   -1.3830 C   0  0  0  0  0  0  0  0  0  0  0  0
    2.0670   -1.2570   -2.5560 O   0  0  0  0  0  0  0  0  0  0  0  0
    1.0370   -0.3600   -0.5640 C   0  0  0  0  0  0  0  0  0  0  0  0
   -0.2440   -0.4740   -0.8100 C   0  0  0  0  0  0  0  0  0  0  0  0
   -0.6290   -1.0390   -2.0590 N   0  0  0  0  0  0  0  0  0  0  0  0
   -1.1750   -0.0390    0.1610 N   0  0  0  0  0  0  0  0  0  0  0  0
   -1.8410   -0.8470    1.2000 C   0  0  0  0  0  0  0  0  0  0  0  0
   -3.1470   -0.2440    1.2230 N   0  0  0  0  0  0  0  0  0  0  0  0
   -3.1160    0.9530    0.7810 C   0  0  0  0  0  0  0  0  0  0  0  0
   -1.7200    1.2820    0.4020 C   0  0  2  0  0  0  0  0  0  0  0  0
   -1.6350    2.1130   -0.6960 O   0  0  0  0  0  0  0  0  0  0  0  0
    1.8270    0.3040    0.9030 S   0  0  0  0  0  0  0  0  0  0  0  0
  1  2  1  0
  2  3  2  0
  2 15  1  0
  3  4  1  0
  4  5  2  0
  4  6  1  0
  6  7  2  3
  6 15  1  0
  7  8  1  0
  7  9  1  0
  9 10  1  0
  9 13  1  0
 10 11  1  0
 11 12  2  0
 12 13  1  0
 13 14  1  6
M  CHG  1  11   1
M  END
