
     RDKit          3D

 15 15  0  0  0  0  0  0  0  0999 V2000
    1.0330   -2.2900   -0.3790 O   0  0  0  0  0  0  0  0  0  0  0  0
    1.0200   -1.0310   -0.1700 C   0  0  0  0  0  0  0  0  0  0  0  0
   -0.2420   -0.4030   -0.0460 N   0  0  0  0  0  0  0  0  0  0  0  0
   -1.4410   -1.1740   -0.1560 C   0  0  0  0  0  0  0  0  0  0  0  0
   -2.6380   -0.2740    0.0110 C   0  0  0  0  0  0  0  0  0  0  0  0
   -3.5640   -0.3410    0.9070 N   0  0  0  0  0  0  0  0  0  0  0  0
   -4.5090    0.6490    0.7590 N   0  0  0  0  0  0  0  0  0  0  0  0
   -4.1070    1.4150   -0.3690 C   0  0  0  0  0  0  0  0  0  0  0  0
   -2.9890    0.8690   -0.8210 C   0  0  0  0  0  0  0  0  0  0  0  0
    2.2490   -0.3290   -0.0710 N   0  0  0  0  0  0  0  0  0  0  0  0
    3.4730   -1.0280   -0.2060 C   0  0  0  0  0  0  0  0  0  0  0  0
    3.4500   -2.6360   -0.4740 S   0  0  0  0  0  0  0  0  0  0  0  0
    4.7230   -0.3210   -0.1080 N   0  0  0  0  0  0  0  0  0  0  0  0
    4.7980    0.7170    0.6340 C   0  0  0  0  0  0  0  0  0  0  0  0
    5.9900    1.4030    0.7370 O   0  0  0  0  0  0  0  0  0  0  0  0
  1  2  2  0
  2  3  1  0
  2 10  1  0
  3  4  1  0
  4  5  1  0
  5  6  2  0
  5  9  1  0
  6  7  1  0
  7  8  1  0
  8  9  2  0
 10 11  1  0
 11 12  2  0
 11 13  1  0
 13 14  2  3
 14 15  1  0
M  CHG  1   7   1
M  END
