
     RDKit          3D

 15 15  0  0  0  0  0  0  0  0999 V2000
    3.9870    1.9270   -0.0950 C   0  0  0  0  0  0  0  0  0  0  0  0
    2.6840    1.4110   -0.0710 O   0  0  0  0  0  0  0  0  0  0  0  0
    2.3610    0.0780   -0.2590 C   0  0  0  0  0  0  0  0  0  0  0  0
    3.2890   -0.7400   -0.4670 O   0  0  0  0  0  0  0  0  0  0  0  0
    0.9820   -0.3750   -0.2180 C   0  0  0  0  0  0  0  0  0  0  0  0
    0.0430    0.4930   -0.0010 N   0  0  0  0  0  0  0  0  0  0  0  0
   -1.3350    0.3480    0.0880 N   0  0  0  0  0  0  0  0  0  0  0  0
   -1.9780    1.3240    0.9720 C   0  0  0  0  0  0  0  0  0  0  0  0
   -3.4020    1.1300    1.0300 N   0  0  0  0  0  0  0  0  0  0  0  0
   -2.2310   -0.5700   -0.5180 C   0  0  0  0  0  0  0  0  0  0  0  0
   -1.5920   -1.7930   -1.0510 C   0  0  0  0  0  0  0  0  0  0  0  0
   -2.5180   -2.6270   -2.1470 S   0  0  0  0  0  0  0  0  0  0  0  0
   -0.3250   -2.3790   -0.7840 N   0  0  0  0  0  0  0  0  0  0  0  0
    0.7770   -1.8000   -0.4310 C   0  0  0  0  0  0  0  0  0  0  0  0
    1.9160   -2.6050   -0.2230 N   0  0  0  0  0  0  0  0  0  0  0  0
  1  2  1  0
  2  3  1  0
  3  4  2  0
  3  5  1  0
  5  6  2  0
  5 14  1  0
  6  7  1  0
  7  8  1  0
  7 10  1  0
  8  9  1  0
 10 11  1  0
 11 12  2  0
 11 13  1  0
 13 14  2  0
 14 15  1  0
M  CHG  1   9   1
M  END
