
     RDKit          3D

 15 15  0  0  0  0  0  0  0  0999 V2000
    4.2750    0.7410    1.0600 C   0  0  0  0  0  0  0  0  0  0  0  0
    2.9810    0.9590    0.3590 C   0  0  0  0  0  0  0  0  0  0  0  0
    2.6770    2.1020   -0.1760 N   0  0  0  0  0  0  0  0  0  0  0  0
    2.0260   -0.0880    0.2510 N   0  0  0  0  0  0  0  0  0  0  0  0
    0.6100    0.1750    0.0510 C   0  0  0  0  0  0  0  0  0  0  0  0
   -0.1700   -1.1310   -0.0270 C   0  0  0  0  0  0  0  0  0  0  0  0
   -1.5790   -0.8860   -0.2250 N   0  0  0  0  0  0  0  0  0  0  0  0
   -2.0630   -0.8000   -1.4510 N   0  0  0  0  0  0  0  0  0  0  0  0
   -3.3760   -0.5710   -1.6410 C   0  0  0  0  0  0  0  0  0  0  0  0
   -4.0340   -0.4540   -3.1460 S   0  0  0  0  0  0  0  0  0  0  0  0
   -4.2180   -0.4270   -0.6040 N   0  0  0  0  0  0  0  0  0  0  0  0
   -3.7420   -0.5120    0.6470 C   0  0  0  0  0  0  0  0  0  0  0  0
   -4.4720   -0.3860    1.6670 O   0  0  0  0  0  0  0  0  0  0  0  0
   -2.3970   -0.7450    0.8320 C   0  0  0  0  0  0  0  0  0  0  0  0
   -1.9010   -0.8340    1.9910 O   0  0  0  0  0  0  0  0  0  0  0  0
  1  2  1  0
  2  3  2  0
  2  4  1  0
  4  5  1  0
  5  6  1  0
  6  7  1  0
  7  8  1  0
  7 14  1  0
  8  9  1  0
  9 10  2  0
  9 11  1  0
 11 12  1  0
 12 13  2  0
 12 14  1  0
 14 15  2  0
M  CHG  1   3   1
M  END
