
     RDKit          3D

 15 16  0  0  0  0  0  0  0  0999 V2000
   -4.4070   -0.4500   -0.3210 N   0  0  0  0  0  0  0  0  0  0  0  0
   -3.0220   -0.2170   -0.1570 C   0  0  0  0  0  0  0  0  0  0  0  0
   -2.3570    0.6430   -0.9570 N   0  0  0  0  0  0  0  0  0  0  0  0
   -1.0490    0.9000   -0.8440 C   0  0  0  0  0  0  0  0  0  0  0  0
   -0.2400    1.7170   -1.5490 N   0  0  0  0  0  0  0  0  0  0  0  0
    0.9700    1.5790   -1.0050 C   0  0  0  0  0  0  0  0  0  0  0  0
    2.4240    2.4390   -1.5560 S   0  0  0  0  0  0  0  0  0  0  0  0
    0.9620    0.7070    0.0190 N   0  0  0  0  0  0  0  0  0  0  0  0
    2.0240    0.2670    0.8700 C   0  0  0  0  0  0  0  0  0  0  0  0
    2.7490   -0.9480    0.3730 C   0  0  0  0  0  0  0  0  0  0  0  0
    3.7500   -1.2400    1.3190 O   0  0  0  0  0  0  0  0  0  0  0  0
   -0.3150    0.2710    0.1280 C   0  0  0  0  0  0  0  0  0  0  0  0
   -0.9790   -0.6130    0.9560 C   0  0  0  0  0  0  0  0  0  0  0  0
   -0.3160   -1.1960    1.8510 O   0  0  0  0  0  0  0  0  0  0  0  0
   -2.3050   -0.8350    0.7960 N   0  0  0  0  0  0  0  0  0  0  0  0
  1  2  1  0
  2  3  1  0
  2 15  2  0
  3  4  1  0
  4  5  1  0
  4 12  2  0
  5  6  2  0
  6  7  1  0
  6  8  1  0
  8  9  1  0
  8 12  1  0
  9 10  1  0
 10 11  1  0
 12 13  1  0
 13 14  2  0
 13 15  1  0
M  CHG  1  15   1
M  END
