
     RDKit          3D

 15 16  0  0  0  0  0  0  0  0999 V2000
    4.0100   -2.0400    1.5520 O   0  0  0  0  0  0  0  0  0  0  0  0
    4.0990   -0.5930    1.2080 S   0  0  1  0  0  0  0  0  0  0  0  0
    5.2070    0.1430    1.8200 O   0  0  0  0  0  0  0  0  0  0  0  0
    4.0570   -0.3800   -0.5250 N   0  0  0  0  0  0  0  0  0  0  0  0
    2.7000   -0.6840   -0.7630 C   0  0  0  0  0  0  0  0  0  0  0  0
    1.8000   -0.4210    0.3640 C   0  0  2  0  0  0  0  0  0  0  0  0
    0.6930    0.4760   -0.1160 C   0  0  0  0  0  0  0  0  0  0  0  0
   -0.3230    0.6650    0.8600 N   0  0  0  0  0  0  0  0  0  0  0  0
   -1.4300    1.3010    0.1600 C   0  0  0  0  0  0  0  0  0  0  0  0
   -2.7070    0.5430    0.4750 C   0  0  0  0  0  0  0  0  0  0  0  0
   -3.6810    0.8110    1.3820 C   0  0  0  0  0  0  0  0  0  0  0  0
   -4.5900   -0.1950    1.2520 N   0  0  0  0  0  0  0  0  0  0  0  0
   -4.1590   -1.0460    0.3040 C   0  0  0  0  0  0  0  0  0  0  0  0
   -3.0050   -0.5970   -0.1850 N   0  0  0  0  0  0  0  0  0  0  0  0
    2.5330    0.1360    1.4740 N   0  0  0  0  0  0  0  0  0  0  0  0
  1  2  2  0
  2  3  2  0
  2  4  1  6
  2 15  1  0
  4  5  1  0
  5  6  1  0
  6  7  1  6
  6 15  1  0
  7  8  1  0
  8  9  1  0
  9 10  1  0
 10 11  2  0
 10 14  1  0
 11 12  1  0
 12 13  2  0
 13 14  1  0
M  CHG  1  12   1
M  END
