
     RDKit          3D

 15 16  0  0  0  0  0  0  0  0999 V2000
    4.4350   -0.0590    0.0190 C   0  0  0  0  0  0  0  0  0  0  0  0
    3.1120   -0.4070   -0.2670 O   0  0  0  0  0  0  0  0  0  0  0  0
    2.0080    0.2550    0.2600 C   0  0  0  0  0  0  0  0  0  0  0  0
    2.1350    1.2900    1.0930 N   0  0  0  0  0  0  0  0  0  0  0  0
    1.0060    1.8560    1.5430 C   0  0  0  0  0  0  0  0  0  0  0  0
   -0.2000    1.4100    1.1780 N   0  0  0  0  0  0  0  0  0  0  0  0
   -0.3840    0.3510    0.3260 C   0  0  0  0  0  0  0  0  0  0  0  0
   -1.7000   -0.0330   -0.0330 N   0  0  0  0  0  0  0  0  0  0  0  0
   -2.8710    0.2880    0.7530 C   0  0  0  0  0  0  0  0  0  0  0  0
   -3.9270   -0.4640    0.1520 N   0  0  0  0  0  0  0  0  0  0  0  0
   -3.3580   -1.4020   -0.6650 O   0  0  0  0  0  0  0  0  0  0  0  0
   -2.2060   -0.7310   -1.1520 C   0  0  0  0  0  0  0  0  0  0  0  0
   -1.5730   -0.7310   -2.6450 S   0  0  0  0  0  0  0  0  0  0  0  0
    0.7510   -0.2350   -0.1390 C   0  0  0  0  0  0  0  0  0  0  0  0
    0.6870   -1.3620   -1.0010 N   0  0  0  0  0  0  0  0  0  0  0  0
  1  2  1  0
  2  3  1  0
  3  4  2  0
  3 14  1  0
  4  5  1  0
  5  6  2  0
  6  7  1  0
  7  8  1  0
  7 14  2  0
  8  9  1  0
  8 12  1  0
  9 10  1  0
 10 11  1  0
 11 12  1  0
 12 13  2  0
 14 15  1  0
M  CHG  1  10   1
M  END
