
     RDKit          3D

 15 16  0  0  0  0  0  0  0  0999 V2000
    3.2100   -0.9650    0.3800 N   0  0  0  0  0  0  0  0  0  0  0  0
    2.7590    0.3230    0.2850 C   0  0  0  0  0  0  0  0  0  0  0  0
    4.1090    1.4070    0.4240 S   0  0  0  0  0  0  0  0  0  0  0  0
    1.5310    0.9520    0.1130 C   0  0  0  0  0  0  0  0  0  0  0  0
    0.2570    0.8410   -0.0440 C   0  0  0  0  0  0  0  0  0  0  0  0
   -0.5490    2.0580   -0.1810 N   0  0  0  0  0  0  0  0  0  0  0  0
   -1.9420    2.0730   -0.3560 C   0  0  0  0  0  0  0  0  0  0  0  0
   -2.6820    3.2530   -0.4830 O   0  0  0  0  0  0  0  0  0  0  0  0
   -2.5630    0.9780   -0.4020 N   0  0  0  0  0  0  0  0  0  0  0  0
   -1.8670   -0.2410   -0.2800 C   0  0  0  0  0  0  0  0  0  0  0  0
   -2.3810   -1.4900   -0.3080 N   0  0  0  0  0  0  0  0  0  0  0  0
   -1.4140   -2.3700   -0.1610 C   0  0  0  0  0  0  0  0  0  0  0  0
   -0.2250   -1.6440   -0.0330 C   0  0  0  0  0  0  0  0  0  0  0  0
    1.0000   -2.1880    0.1370 O   0  0  0  0  0  0  0  0  0  0  0  0
   -0.5070   -0.3350   -0.1060 N   0  0  0  0  0  0  0  0  0  0  0  0
  1  2  1  0
  2  3  2  0
  2  4  1  0
  4  5  2  3
  5  6  1  0
  5 15  1  0
  6  7  1  0
  7  8  1  0
  7  9  2  0
  9 10  1  0
 10 11  2  0
 10 15  1  0
 11 12  1  0
 12 13  2  0
 13 14  1  0
 13 15  1  0
M  CHG  1  11   1
M  END
