
     RDKit          3D

 24 25  0  0  0  0  0  0  0  0999 V2000
    5.4270    1.3830    2.5930 O   0  0  0  0  0  0  0  0  0  0  0  0
    4.7440    0.7140    1.6820 O   0  0  0  0  0  0  0  0  0  0  0  0
    4.2630    1.6320    0.7540 C   0  0  0  0  0  0  0  0  0  0  0  0
    3.4850    0.8850   -0.2860 C   0  0  0  0  0  0  0  0  0  0  0  0
    2.4020    0.1940    0.2830 O   0  0  0  0  0  0  0  0  0  0  0  0
    1.7910   -0.4180   -0.6850 O   0  0  0  0  0  0  0  0  0  0  0  0
    0.4080   -0.4830   -0.5210 C   0  0  1  0  0  0  0  0  0  0  0  0
   -0.2260    0.2560   -1.5190 O   0  0  0  0  0  0  0  0  0  0  0  0
   -1.5700    0.3840   -1.2740 C   0  0  2  0  0  0  0  0  0  0  0  0
   -1.8520    1.4340   -0.3990 O   0  0  0  0  0  0  0  0  0  0  0  0
   -3.1940    1.4890   -0.1110 C   0  0  1  0  0  0  0  0  0  0  0  0
   -3.8260    2.1650   -1.1570 O   0  0  0  0  0  0  0  0  0  0  0  0
   -4.3340    3.3010   -0.7960 O   0  0  0  0  0  0  0  0  0  0  0  0
   -3.4640    3.9120   -0.0190 O   0  0  0  0  0  0  0  0  0  0  0  0
   -4.0940    4.8970    0.5750 O   0  0  0  0  0  0  0  0  0  0  0  0
   -3.8330    0.1850    0.2130 C   0  0  0  0  0  0  0  0  0  0  0  0
   -3.3870   -0.8770   -0.5580 O   0  0  0  0  0  0  0  0  0  0  0  0
   -2.0180   -0.8690   -0.5120 C   0  0  1  0  0  0  0  0  0  0  0  0
   -1.3970   -1.9960   -0.9700 O   0  0  0  0  0  0  0  0  0  0  0  0
   -0.0710   -1.9170   -0.4730 C   0  0  1  0  0  0  0  0  0  0  0  0
    0.7630   -2.7940   -1.1050 O   0  0  0  0  0  0  0  0  0  0  0  0
    1.2060   -3.7240   -0.1720 C   0  0  0  0  0  0  0  0  0  0  0  0
    2.0610   -4.6650   -0.7080 O   0  0  0  0  0  0  0  0  0  0  0  0
    2.4090   -5.4820    0.2620 O   0  0  0  0  0  0  0  0  0  0  0  0
  1  2  1  0
  2  3  1  0
  3  4  1  0
  4  5  1  0
  5  6  1  0
  7  6  1  6
  7  8  1  0
  7 20  1  0
  9  8  1  1
  9 10  1  0
  9 18  1  0
 10 11  1  0
 11 12  1  6
 11 16  1  0
 12 13  1  0
 13 14  1  0
 14 15  1  0
 16 17  1  0
 18 17  1  6
 18 19  1  0
 19 20  1  0
 20 21  1  6
 21 22  1  0
 22 23  1  0
 23 24  1  0
M  END
