
     RDKit          3D

 24 24  0  0  0  0  0  0  0  0999 V2000
    5.8480    0.7820   -0.6540 O   0  0  0  0  0  0  0  0  0  0  0  0
    5.2100    0.5190    0.4020 C   0  0  0  0  0  0  0  0  0  0  0  0
    5.9190    0.5090    1.5970 O   0  0  0  0  0  0  0  0  0  0  0  0
    3.8680    0.2560    0.3400 O   0  0  0  0  0  0  0  0  0  0  0  0
    3.1900    0.2790   -0.9110 C   0  0  0  0  0  0  0  0  0  0  0  0
    1.7060   -0.0500   -0.6770 C   0  0  2  0  0  0  0  0  0  0  0  0
    1.0760    1.0310    0.1720 C   0  0  0  0  0  0  0  0  0  0  0  0
    0.2770    0.4110    1.1220 O   0  0  0  0  0  0  0  0  0  0  0  0
   -1.0550    0.5180    1.3140 C   0  0  0  0  0  0  0  0  0  0  0  0
   -1.5750    0.3370    2.4340 O   0  0  0  0  0  0  0  0  0  0  0  0
   -1.9310    0.8590    0.1760 C   0  0  2  0  0  0  0  0  0  0  0  0
   -3.3480    0.3970    0.4160 C   0  0  0  0  0  0  0  0  0  0  0  0
   -4.2410    0.8830   -0.5040 O   0  0  0  0  0  0  0  0  0  0  0  0
   -5.4350    0.4170   -0.1940 O   0  0  0  0  0  0  0  0  0  0  0  0
   -5.7000    0.5790    1.0970 O   0  0  0  0  0  0  0  0  0  0  0  0
   -1.4100    0.4840   -1.0580 O   0  0  0  0  0  0  0  0  0  0  0  0
   -1.6580   -0.6940   -1.7530 C   0  0  0  0  0  0  0  0  0  0  0  0
   -1.6360   -0.5310   -3.0260 O   0  0  0  0  0  0  0  0  0  0  0  0
   -1.8820   -1.8140   -1.0630 O   0  0  0  0  0  0  0  0  0  0  0  0
   -1.2310   -2.7330   -0.4220 O   0  0  0  0  0  0  0  0  0  0  0  0
   -0.2390   -2.6860    0.5420 C   0  0  0  0  0  0  0  0  0  0  0  0
   -0.2840   -3.6920    1.3110 O   0  0  0  0  0  0  0  0  0  0  0  0
    0.6150   -1.6440    0.5630 O   0  0  0  0  0  0  0  0  0  0  0  0
    1.6530   -1.2840   -0.1210 O   0  0  0  0  0  0  0  0  0  0  0  0
  1  2  2  0
  2  3  1  0
  2  4  1  0
  4  5  1  0
  6  5  1  1
  6  7  1  0
  6 24  1  0
  7  8  1  0
  8  9  1  0
  9 10  2  0
  9 11  1  0
 11 12  1  1
 11 16  1  0
 12 13  1  0
 13 14  1  0
 14 15  1  0
 16 17  1  0
 17 18  2  0
 17 19  1  0
 19 20  1  0
 20 21  1  0
 21 22  2  0
 21 23  1  0
 23 24  1  0
M  END
