
     RDKit          3D

 24 26  0  0  0  0  0  0  0  0999 V2000
   -0.0480    0.7300    0.9060 O   0  0  0  0  0  0  0  0  0  0  0  0
    0.5000   -0.2680    1.4100 C   0  0  0  0  0  0  0  0  0  0  0  0
   -0.2900   -1.4440    1.8160 C   0  0  0  0  0  0  0  0  0  0  0  0
   -1.6150   -1.2580    1.5330 O   0  0  0  0  0  0  0  0  0  0  0  0
   -1.8730   -1.0820    0.1680 C   0  0  1  0  0  0  0  0  0  0  0  0
   -2.6730   -2.3220   -0.1940 C   0  0  0  0  0  0  0  0  0  0  0  0
   -2.1610   -3.2280   -0.8520 O   0  0  0  0  0  0  0  0  0  0  0  0
   -3.9980   -2.3120    0.2870 O   0  0  0  0  0  0  0  0  0  0  0  0
   -4.7020   -1.1390    0.2480 O   0  0  0  0  0  0  0  0  0  0  0  0
   -4.0590   -0.3810   -0.6820 C   0  0  1  0  0  0  0  0  0  0  0  0
   -4.5960    0.9670   -0.9860 C   0  0  0  0  0  0  0  0  0  0  0  0
   -3.4540    1.6990   -1.2860 O   0  0  0  0  0  0  0  0  0  0  0  0
   -2.3890    0.9860   -1.0270 O   0  0  0  0  0  0  0  0  0  0  0  0
   -2.7360    0.0810   -0.0340 C   0  0  2  0  0  0  0  0  0  0  0  0
    1.9000   -0.2370    1.5790 O   0  0  0  0  0  0  0  0  0  0  0  0
    2.6720    0.8840    1.1940 C   0  0  1  0  0  0  0  0  0  0  0  0
    3.4070    1.2740    2.3050 O   0  0  0  0  0  0  0  0  0  0  0  0
    4.6580    1.0820    2.0610 O   0  0  0  0  0  0  0  0  0  0  0  0
    4.7960    0.1510    1.1740 O   0  0  0  0  0  0  0  0  0  0  0  0
    3.7880    0.4370    0.2450 C   0  0  2  0  0  0  0  0  0  0  0  0
    4.1270    1.5220   -0.5570 O   0  0  0  0  0  0  0  0  0  0  0  0
    4.0230    1.2860   -1.8280 O   0  0  0  0  0  0  0  0  0  0  0  0
    5.0800    0.6680   -2.3330 O   0  0  0  0  0  0  0  0  0  0  0  0
    6.1050    1.4780   -2.4770 O   0  0  0  0  0  0  0  0  0  0  0  0
  1  2  2  0
  2  3  1  0
  2 15  1  0
  3  4  1  0
  5  4  1  1
  5  6  1  0
  5 14  1  0
  6  7  2  0
  6  8  1  0
  8  9  1  0
  9 10  1  0
 10 11  1  1
 10 14  1  0
 11 12  1  0
 12 13  1  0
 14 13  1  6
 16 15  1  1
 16 17  1  0
 16 20  1  0
 17 18  1  0
 18 19  1  0
 19 20  1  0
 20 21  1  6
 21 22  1  0
 22 23  1  0
 23 24  1  0
M  END
