
     RDKit          3D

 23 25  0  0  0  0  0  0  0  0999 V2000
   -5.7680   -0.4940    2.5320 O   0  0  0  0  0  0  0  0  0  0  0  0
   -5.1170   -0.7560    1.4820 C   0  0  0  0  0  0  0  0  0  0  0  0
   -5.6620   -1.4010    0.4600 N   0  0  0  0  0  0  0  0  0  0  0  0
   -4.9500   -1.6720   -0.6520 C   0  0  0  0  0  0  0  0  0  0  0  0
   -3.6680   -1.2930   -0.7520 N   0  0  0  0  0  0  0  0  0  0  0  0
   -3.0650   -0.6370    0.2530 C   0  0  0  0  0  0  0  0  0  0  0  0
   -3.7930   -0.3540    1.4040 C   0  0  0  0  0  0  0  0  0  0  0  0
   -2.9550    0.2910    2.2140 N   0  0  0  0  0  0  0  0  0  0  0  0
   -1.7440    0.4140    1.6030 C   0  0  0  0  0  0  0  0  0  0  0  0
   -1.8160   -0.1580    0.3970 N   0  0  0  0  0  0  0  0  0  0  0  0
   -0.7500   -0.2460   -0.5710 C   0  0  2  0  0  0  0  0  0  0  0  0
    0.4050   -0.8120   -0.0690 O   0  0  0  0  0  0  0  0  0  0  0  0
    1.4600   -0.1550   -0.6730 C   0  0  2  0  0  0  0  0  0  0  0  0
    2.7600   -0.2970    0.0730 C   0  0  0  0  0  0  0  0  0  0  0  0
    3.7240    0.4150   -0.6550 O   0  0  0  0  0  0  0  0  0  0  0  0
    5.2370    0.3660    0.0320 P   0  0  1  0  0  0  0  0  0  0  0  0
    6.0630    1.5050   -0.5710 O   0  0  0  0  0  0  0  0  0  0  0  0
    5.1060    0.6440    1.6890 O   0  0  0  0  0  0  0  0  0  0  0  0
    6.0710   -1.0630   -0.3110 O   0  0  0  0  0  0  0  0  0  0  0  0
    1.0030    1.3030   -0.5120 C   0  0  1  0  0  0  0  0  0  0  0  0
    1.7550    2.1680   -1.2620 O   0  0  0  0  0  0  0  0  0  0  0  0
   -0.4170    1.1400   -1.0390 C   0  0  1  0  0  0  0  0  0  0  0  0
   -0.2990    1.1750   -2.4480 O   0  0  0  0  0  0  0  0  0  0  0  0
  1  2  2  0
  2  3  1  0
  2  7  1  0
  3  4  1  0
  4  5  2  0
  5  6  1  0
  6  7  2  0
  6 10  1  0
  7  8  1  0
  8  9  2  0
  9 10  1  0
 11 10  1  1
 11 12  1  0
 11 22  1  0
 12 13  1  0
 13 14  1  1
 13 20  1  0
 14 15  1  0
 15 16  1  0
 16 17  2  0
 16 18  1  1
 16 19  1  0
 20 21  1  6
 20 22  1  0
 22 23  1  6
M  END
