
     RDKit          3D

 24 24  0  0  0  0  0  0  0  0999 V2000
    4.7670   -1.2340   -0.6830 O   0  0  0  0  0  0  0  0  0  0  0  0
    4.9520   -1.1270    0.5600 C   0  0  0  0  0  0  0  0  0  0  0  0
    6.2490   -1.0340    1.0530 O   0  0  0  0  0  0  0  0  0  0  0  0
    3.8390   -1.1080    1.3840 O   0  0  0  0  0  0  0  0  0  0  0  0
    2.6030   -1.2030    0.8280 O   0  0  0  0  0  0  0  0  0  0  0  0
    2.1960   -0.1650   -0.0020 C   0  0  0  0  0  0  0  0  0  0  0  0
    2.9680    0.8030   -0.2040 O   0  0  0  0  0  0  0  0  0  0  0  0
    0.8690   -0.1650   -0.6610 C   0  0  2  0  0  0  0  0  0  0  0  0
    0.7330    0.9740   -1.4170 O   0  0  0  0  0  0  0  0  0  0  0  0
   -0.0350    2.0730   -1.2000 C   0  0  0  0  0  0  0  0  0  0  0  0
   -0.4930    2.6850   -2.2000 O   0  0  0  0  0  0  0  0  0  0  0  0
   -0.3930    2.6330    0.1290 C   0  0  0  0  0  0  0  0  0  0  0  0
   -1.8280    3.0100    0.0770 C   0  0  0  0  0  0  0  0  0  0  0  0
   -2.2680    4.1340    0.4390 O   0  0  0  0  0  0  0  0  0  0  0  0
   -2.7500    2.0870   -0.3910 O   0  0  0  0  0  0  0  0  0  0  0  0
   -2.4480    0.7890   -0.3020 O   0  0  0  0  0  0  0  0  0  0  0  0
   -3.5550    0.1310   -0.0510 O   0  0  0  0  0  0  0  0  0  0  0  0
   -3.4460   -1.4940   -0.6950 P   0  0  0  0  0  0  0  0  0  0  0  0
   -4.0820   -2.5550    0.5230 O   0  0  0  0  0  0  0  0  0  0  0  0
   -4.6650   -1.9210    1.4960 O   0  0  0  0  0  0  0  0  0  0  0  0
   -1.6060   -1.8800   -0.7910 C   0  0  0  0  0  0  0  0  0  0  0  0
   -1.0350   -1.3030    0.4460 C   0  0  0  0  0  0  0  0  0  0  0  0
   -1.4640   -1.7890    1.5150 O   0  0  0  0  0  0  0  0  0  0  0  0
   -0.0980   -0.2990    0.3680 O   0  0  0  0  0  0  0  0  0  0  0  0
  1  2  2  0
  2  3  1  0
  2  4  1  0
  4  5  1  0
  5  6  1  0
  6  7  2  0
  8  6  1  1
  8  9  1  0
  8 24  1  0
  9 10  1  0
 10 11  2  0
 10 12  1  0
 12 13  1  0
 13 14  2  0
 13 15  1  0
 15 16  1  0
 16 17  1  0
 17 18  1  0
 18 19  1  0
 18 21  1  0
 19 20  1  0
 21 22  1  0
 22 23  2  0
 22 24  1  0
M  END
