
     RDKit          3D

 23 24  0  0  0  0  0  0  0  0999 V2000
   -1.4200   -0.1270   -2.3930 C   0  0  0  0  0  0  0  0  0  0  0  0
   -0.8750   -0.0000   -0.9560 C   0  0  2  0  0  0  0  0  0  0  0  0
    0.3010   -0.6620   -0.9500 O   0  0  0  0  0  0  0  0  0  0  0  0
    1.0940   -0.6630    0.1370 C   0  0  2  0  0  0  0  0  0  0  0  0
    1.5370    0.5730    0.5690 O   0  0  0  0  0  0  0  0  0  0  0  0
    2.2320    1.2150   -0.3040 O   0  0  0  0  0  0  0  0  0  0  0  0
    3.7790    1.7090    0.1840 P   0  0  0  0  0  0  0  0  0  0  0  0
    4.0730    3.3490   -0.2630 O   0  0  0  0  0  0  0  0  0  0  0  0
    4.1190    1.4010    1.8490 O   0  0  0  0  0  0  0  0  0  0  0  0
    2.3530   -1.4670   -0.2420 C   0  0  0  0  0  0  0  0  0  0  0  0
    1.8570   -2.7630   -0.1460 O   0  0  0  0  0  0  0  0  0  0  0  0
    0.7930   -2.7300    0.7270 C   0  0  2  0  0  0  0  0  0  0  0  0
    1.1130   -3.5710    1.8020 O   0  0  0  0  0  0  0  0  0  0  0  0
   -0.3080   -3.2820    0.0760 O   0  0  0  0  0  0  0  0  0  0  0  0
    0.6010   -1.4400    1.1510 O   0  0  0  0  0  0  0  0  0  0  0  0
   -1.9580   -0.4860   -0.0600 C   0  0  0  0  0  0  0  0  0  0  0  0
   -2.7480    0.7770    0.2440 C   0  0  1  0  0  0  0  0  0  0  0  0
   -3.6440    1.1140   -0.7370 O   0  0  0  0  0  0  0  0  0  0  0  0
   -3.4000    0.6870    1.4670 O   0  0  0  0  0  0  0  0  0  0  0  0
   -4.0830    1.7670    1.7420 O   0  0  0  0  0  0  0  0  0  0  0  0
   -1.6670    1.7970    0.2580 C   0  0  0  0  0  0  0  0  0  0  0  0
   -1.5820    2.8080    1.0040 O   0  0  0  0  0  0  0  0  0  0  0  0
   -0.7760    1.3910   -0.7270 O   0  0  0  0  0  0  0  0  0  0  0  0
  2  1  1  6
  2  3  1  0
  2 16  1  0
  2 23  1  0
  4  3  1  6
  4  5  1  0
  4 10  1  0
  4 15  1  0
  5  6  1  0
  6  7  1  0
  7  8  1  0
  7  9  1  0
 10 11  1  0
 11 12  1  0
 12 13  1  1
 12 14  1  0
 12 15  1  0
 16 17  1  0
 17 18  1  6
 17 19  1  0
 17 21  1  0
 19 20  1  0
 21 22  2  0
 21 23  1  0
M  END
