
     RDKit          3D

 24 23  0  0  0  0  0  0  0  0999 V2000
    5.3310    0.8330    0.7530 O   0  0  0  0  0  0  0  0  0  0  0  0
    4.3200    1.5470    1.0520 C   0  0  0  0  0  0  0  0  0  0  0  0
    4.1790    2.1220    2.3090 O   0  0  0  0  0  0  0  0  0  0  0  0
    3.3830    1.7060    0.0410 O   0  0  0  0  0  0  0  0  0  0  0  0
    3.5070    1.1580   -1.1730 O   0  0  0  0  0  0  0  0  0  0  0  0
    3.6700   -0.2030   -1.1450 C   0  0  2  0  0  0  0  0  0  0  0  0
    4.8490   -0.5240   -1.8170 O   0  0  0  0  0  0  0  0  0  0  0  0
    2.5260   -0.8070   -1.9690 C   0  0  2  0  0  0  0  0  0  0  0  0
    2.6560   -0.2880   -3.2570 O   0  0  0  0  0  0  0  0  0  0  0  0
    1.2840   -0.3030   -1.4650 O   0  0  0  0  0  0  0  0  0  0  0  0
    0.2720   -1.1570   -1.0280 C   0  0  0  0  0  0  0  0  0  0  0  0
    0.4970   -2.3800   -1.0950 O   0  0  0  0  0  0  0  0  0  0  0  0
   -1.0140   -0.6130   -0.5070 C   0  0  1  0  0  0  0  0  0  0  0  0
   -1.8160   -1.6970   -0.1510 O   0  0  0  0  0  0  0  0  0  0  0  0
   -3.0070   -1.7280   -0.8760 C   0  0  0  0  0  0  0  0  0  0  0  0
   -3.7680   -2.9590   -0.3780 C   0  0  0  0  0  0  0  0  0  0  0  0
   -3.9670   -2.7420    1.0010 O   0  0  0  0  0  0  0  0  0  0  0  0
   -4.6270   -3.8040    1.4450 O   0  0  0  0  0  0  0  0  0  0  0  0
   -0.8010    0.2510    0.5560 O   0  0  0  0  0  0  0  0  0  0  0  0
   -1.3390    1.5140    0.2940 C   0  0  0  0  0  0  0  0  0  0  0  0
   -1.1190    2.4670    1.4360 C   0  0  0  0  0  0  0  0  0  0  0  0
   -1.7260    1.9670    2.5860 O   0  0  0  0  0  0  0  0  0  0  0  0
   -1.5760    2.7400    3.6160 O   0  0  0  0  0  0  0  0  0  0  0  0
   -2.4050    3.7540    3.6450 O   0  0  0  0  0  0  0  0  0  0  0  0
  1  2  2  0
  2  3  1  0
  2  4  1  0
  4  5  1  0
  5  6  1  0
  6  7  1  6
  6  8  1  0
  8  9  1  6
  8 10  1  0
 10 11  1  0
 11 12  2  0
 11 13  1  0
 13 14  1  1
 13 19  1  0
 14 15  1  0
 15 16  1  0
 16 17  1  0
 17 18  1  0
 19 20  1  0
 20 21  1  0
 21 22  1  0
 22 23  1  0
 23 24  1  0
M  END
