
     RDKit          3D

 23 23  0  0  0  0  0  0  0  0999 V2000
   -7.5120   -1.2420   -1.4060 O   0  0  0  0  0  0  0  0  0  0  0  0
   -7.1500   -1.5580   -0.2350 C   0  0  0  0  0  0  0  0  0  0  0  0
   -7.8830   -2.5360    0.4170 O   0  0  0  0  0  0  0  0  0  0  0  0
   -6.0500   -0.9280    0.3520 O   0  0  0  0  0  0  0  0  0  0  0  0
   -5.4280   -0.0050   -0.3760 O   0  0  0  0  0  0  0  0  0  0  0  0
   -4.0830   -0.0130   -0.0330 C   0  0  0  0  0  0  0  0  0  0  0  0
   -3.3290    1.0300   -0.8430 C   0  0  2  0  0  0  0  0  0  0  0  0
   -3.4280    0.7820   -2.1950 O   0  0  0  0  0  0  0  0  0  0  0  0
   -1.9780    0.9370   -0.4780 O   0  0  0  0  0  0  0  0  0  0  0  0
   -1.3560    2.0130    0.1420 C   0  0  0  0  0  0  0  0  0  0  0  0
   -1.9580    3.0870    0.3970 O   0  0  0  0  0  0  0  0  0  0  0  0
    0.0600    1.9000    0.5180 C   0  0  0  0  0  0  0  0  0  0  0  0
    0.5800    0.6110    0.1530 O   0  0  0  0  0  0  0  0  0  0  0  0
    1.8990    0.2730    0.4090 C   0  0  0  0  0  0  0  0  0  0  0  0
    2.6030    1.1480    0.9720 O   0  0  0  0  0  0  0  0  0  0  0  0
    2.4710   -0.9230    0.0960 O   0  0  0  0  0  0  0  0  0  0  0  0
    3.8050   -1.3150    0.3320 C   0  0  0  0  0  0  0  0  0  0  0  0
    4.7080   -0.3760   -0.4260 C   0  0  0  0  0  0  0  0  0  0  0  0
    6.4990   -0.8180   -0.1740 P   0  0  0  0  0  0  0  0  0  0  0  0
    7.8030   -0.4880   -1.1400 O   0  0  0  0  0  0  0  0  0  0  0  0
    8.8660   -0.3350   -0.1950 O   0  0  0  0  0  0  0  0  0  0  0  0
    8.5860   -0.4660    0.9030 O   0  0  0  0  0  0  0  0  0  0  0  0
    7.3280   -0.7530    1.3790 O   0  0  0  0  0  0  0  0  0  0  0  0
  1  2  2  0
  2  3  1  0
  2  4  1  0
  4  5  1  0
  5  6  1  0
  6  7  1  0
  7  8  1  6
  7  9  1  0
  9 10  1  0
 10 11  2  0
 10 12  1  0
 12 13  1  0
 13 14  1  0
 14 15  2  0
 14 16  1  0
 16 17  1  0
 17 18  1  0
 18 19  1  0
 19 20  1  0
 19 23  1  0
 20 21  1  0
 21 22  1  0
 22 23  1  0
M  END
