
     RDKit          3D

 24 25  0  0  0  0  0  0  0  0999 V2000
   -4.1170    0.1980    1.2790 O   0  0  0  0  0  0  0  0  0  0  0  0
   -3.2910    1.1630    1.2260 C   0  0  0  0  0  0  0  0  0  0  0  0
   -3.4980    2.2280    2.0790 O   0  0  0  0  0  0  0  0  0  0  0  0
   -2.2360    1.1020    0.3260 O   0  0  0  0  0  0  0  0  0  0  0  0
   -2.1260   -0.0650   -0.5140 C   0  0  1  0  0  0  0  0  0  0  0  0
   -1.9870   -1.1980    0.2020 O   0  0  0  0  0  0  0  0  0  0  0  0
   -0.9650   -1.3520    1.0530 C   0  0  0  0  0  0  0  0  0  0  0  0
    0.4370   -1.3650    0.5510 C   0  0  0  0  0  0  0  0  0  0  0  0
    1.2740   -1.5410    1.6600 O   0  0  0  0  0  0  0  0  0  0  0  0
    2.6170   -1.5790    1.3720 C   0  0  0  0  0  0  0  0  0  0  0  0
    3.1370   -0.3240    0.8420 C   0  0  0  0  0  0  0  0  0  0  0  0
    2.4470    0.7030    0.7420 O   0  0  0  0  0  0  0  0  0  0  0  0
    4.4670   -0.2260    0.4140 O   0  0  0  0  0  0  0  0  0  0  0  0
    4.9850    0.9020   -0.0780 O   0  0  0  0  0  0  0  0  0  0  0  0
    6.2780    0.9640    0.1490 O   0  0  0  0  0  0  0  0  0  0  0  0
    6.5500    1.7480    1.1590 O   0  0  0  0  0  0  0  0  0  0  0  0
   -3.4550   -0.0650   -1.1490 O   0  0  0  0  0  0  0  0  0  0  0  0
   -3.3400    0.8710   -2.1560 C   0  0  0  0  0  0  0  0  0  0  0  0
   -4.1070    1.8320   -2.4820 O   0  0  0  0  0  0  0  0  0  0  0  0
   -2.0880    0.5490   -2.8420 C   0  0  2  0  0  0  0  0  0  0  0  0
   -2.2300   -0.6050   -3.5720 O   0  0  0  0  0  0  0  0  0  0  0  0
   -1.9790   -1.5580   -2.7070 O   0  0  0  0  0  0  0  0  0  0  0  0
   -0.8370   -1.1590   -2.1380 O   0  0  0  0  0  0  0  0  0  0  0  0
   -1.2270    0.0880   -1.6610 C   0  0  2  0  0  0  0  0  0  0  0  0
  1  2  2  0
  2  3  1  0
  2  4  1  0
  5  4  1  1
  5  6  1  0
  5 17  1  0
  5 24  1  0
  6  7  1  0
  7  8  1  0
  8  9  1  0
  9 10  1  0
 10 11  1  0
 11 12  2  0
 11 13  1  0
 13 14  1  0
 14 15  1  0
 15 16  1  0
 17 18  1  0
 18 19  2  0
 18 20  1  0
 20 21  1  6
 20 24  1  0
 21 22  1  0
 22 23  1  0
 24 23  1  6
M  END
