
     RDKit          3D

 20 22  0  0  0  0  0  0  0  0999 V2000
   -3.3790   -1.3500   -0.8260 C   0  0  0  0  0  0  0  0  0  0  0  0
   -2.2170   -0.4620   -0.4800 C   0  0  1  0  0  0  0  0  0  0  0  0
   -2.7330    0.7080    0.2730 N   0  0  0  0  0  0  0  0  0  0  0  0
   -1.9770    1.7000    0.6170 C   0  0  0  0  0  0  0  0  0  0  0  0
   -2.5580    2.7860    1.3420 N   0  0  0  0  0  0  0  0  0  0  0  0
   -0.5350    1.9010    0.3510 C   0  0  0  0  0  0  0  0  0  0  0  0
   -0.1890    3.1600    0.3890 C   0  0  0  0  0  0  0  0  0  0  0  0
    1.1220    3.4740    0.1600 O   0  0  0  0  0  0  0  0  0  0  0  0
    2.1540    2.6580   -0.2230 C   0  0  0  0  0  0  0  0  0  0  0  0
    1.7940    1.2080   -0.2180 C   0  0  0  0  0  0  0  0  0  0  0  0
    2.6980    0.3370   -0.4600 N   0  0  0  0  0  0  0  0  0  0  0  0
    2.4730   -1.0540   -0.4810 C   0  0  1  0  0  0  0  0  0  0  0  0
    3.0070   -1.5660   -1.7410 N   0  0  0  0  0  0  0  0  0  0  0  0
    3.2830   -1.6900    0.5560 N   0  0  0  0  0  0  0  0  0  0  0  0
    2.9910   -1.2430    1.7780 O   0  0  0  0  0  0  0  0  0  0  0  0
    1.1470   -1.4390   -0.2800 O   0  0  0  0  0  0  0  0  0  0  0  0
    0.1720   -0.5130    0.0200 C   0  0  0  0  0  0  0  0  0  0  0  0
    0.4210    0.8090    0.0480 C   0  0  0  0  0  0  0  0  0  0  0  0
   -1.1490   -1.1410    0.3050 C   0  0  2  0  0  0  0  0  0  0  0  0
   -1.1130   -2.6300    0.1290 C   0  0  0  0  0  0  0  0  0  0  0  0
  2  1  1  1
  2  3  1  0
  2 19  1  0
  3  4  2  0
  4  5  1  0
  4  6  1  0
  6  7  2  0
  6 18  1  0
  7  8  1  0
  8  9  1  0
  9 10  1  0
 10 11  2  0
 10 18  1  0
 11 12  1  0
 12 13  1  6
 12 14  1  0
 12 16  1  0
 14 15  1  0
 16 17  1  0
 17 18  2  0
 17 19  1  0
 19 20  1  6
M  END
