
     RDKit          3D

 20 21  0  0  0  0  0  0  0  0999 V2000
    4.8000    0.7350   -1.4530 N   0  0  0  0  0  0  0  0  0  0  0  0
    3.6260    0.1090   -0.9070 C   0  0  0  0  0  0  0  0  0  0  0  0
    2.5700   -0.1240   -1.6700 C   0  0  0  0  0  0  0  0  0  0  0  0
    1.3390   -0.7800   -1.1000 C   0  0  1  0  0  0  0  0  0  0  0  0
    1.4360   -2.2150   -1.1250 N   0  0  0  0  0  0  0  0  0  0  0  0
    1.1650   -0.2480    0.2930 C   0  0  0  0  0  0  0  0  0  0  0  0
   -0.1550   -0.0120    0.7410 N   0  0  0  0  0  0  0  0  0  0  0  0
   -0.5160    1.0240    1.4060 C   0  0  0  0  0  0  0  0  0  0  0  0
   -1.8810    1.1190    1.7870 N   0  0  0  0  0  0  0  0  0  0  0  0
   -2.9040    0.4860    1.0240 C   0  0  0  0  0  0  0  0  0  0  0  0
   -2.9520   -0.8010    0.7800 C   0  0  0  0  0  0  0  0  0  0  0  0
   -4.0170   -1.4640   -0.0160 C   0  0  0  0  0  0  0  0  0  0  0  0
   -4.9860   -0.5800   -0.4940 O   0  0  0  0  0  0  0  0  0  0  0  0
   -4.9670    0.7700   -0.2590 C   0  0  0  0  0  0  0  0  0  0  0  0
   -5.9930    1.5410   -0.7920 O   0  0  0  0  0  0  0  0  0  0  0  0
   -3.9770    1.3060    0.4680 C   0  0  0  0  0  0  0  0  0  0  0  0
   -4.0020    2.6710    0.6770 O   0  0  0  0  0  0  0  0  0  0  0  0
    2.2270   -0.0230    1.0350 C   0  0  0  0  0  0  0  0  0  0  0  0
    3.5750   -0.2890    0.5110 C   0  0  2  0  0  0  0  0  0  0  0  0
    4.6020    0.4040    1.2840 N   0  0  0  0  0  0  0  0  0  0  0  0
  1  2  1  0
  2  3  2  0
  2 19  1  0
  3  4  1  0
  4  5  1  1
  4  6  1  0
  6  7  1  0
  6 18  2  0
  7  8  2  3
  8  9  1  0
  9 10  1  0
 10 11  2  0
 10 16  1  0
 11 12  1  0
 12 13  1  0
 13 14  1  0
 14 15  1  0
 14 16  2  0
 16 17  1  0
 18 19  1  0
 19 20  1  1
M  CHG  1   5   1
M  END
