
     RDKit          3D

 20 21  0  0  0  0  0  0  0  0999 V2000
   -3.8110   -1.2610    1.4910 C   0  0  0  0  0  0  0  0  0  0  0  0
   -2.6590   -0.3970    1.3250 N   0  0  0  0  0  0  0  0  0  0  0  0
   -2.9850    0.9290    0.9560 C   0  0  0  0  0  0  0  0  0  0  0  0
   -3.0360    1.0740   -0.5040 C   0  0  0  0  0  0  0  0  0  0  0  0
   -3.5010    2.3370   -1.0210 N   0  0  0  0  0  0  0  0  0  0  0  0
   -2.6870    0.1310   -1.3550 C   0  0  0  0  0  0  0  0  0  0  0  0
   -2.1990   -1.1960   -0.9010 C   0  0  1  0  0  0  0  0  0  0  0  0
   -1.3270   -1.7830   -1.7690 O   0  0  0  0  0  0  0  0  0  0  0  0
   -1.6930   -1.0580    0.5140 C   0  0  1  0  0  0  0  0  0  0  0  0
   -0.3540   -0.4040    0.5650 C   0  0  0  0  0  0  0  0  0  0  0  0
   -0.2320    0.6800    1.1530 O   0  0  0  0  0  0  0  0  0  0  0  0
    0.7690   -1.0060   -0.0460 N   0  0  0  0  0  0  0  0  0  0  0  0
    2.0880   -0.5230   -0.0890 C   0  0  0  0  0  0  0  0  0  0  0  0
    3.0230   -1.3110   -0.7600 C   0  0  0  0  0  0  0  0  0  0  0  0
    4.3190   -0.8800   -0.8270 C   0  0  0  0  0  0  0  0  0  0  0  0
    4.6780    0.3120   -0.2360 C   0  0  0  0  0  0  0  0  0  0  0  0
    6.0290    0.7750   -0.2990 N   0  0  0  0  0  0  0  0  0  0  0  0
    3.7490    1.0650    0.4130 C   0  0  0  0  0  0  0  0  0  0  0  0
    4.0740    2.2700    1.0190 O   0  0  0  0  0  0  0  0  0  0  0  0
    2.4610    0.6210    0.4700 N   0  0  0  0  0  0  0  0  0  0  0  0
  1  2  1  0
  2  3  1  0
  2  9  1  0
  3  4  1  0
  4  5  1  0
  4  6  2  0
  6  7  1  0
  7  8  1  6
  7  9  1  0
  9 10  1  6
 10 11  2  0
 10 12  1  0
 12 13  1  0
 13 14  2  0
 13 20  1  0
 14 15  1  0
 15 16  2  0
 16 17  1  0
 16 18  1  0
 18 19  1  0
 18 20  2  0
M  CHG  1  20   1
M  END
