
     RDKit          3D

 20 21  0  0  0  0  0  0  0  0999 V2000
    6.3250   -3.0160   -0.2320 N   0  0  0  0  0  0  0  0  0  0  0  0
    5.0620   -2.6150   -0.7480 C   0  0  0  0  0  0  0  0  0  0  0  0
    4.7260   -3.1120   -1.8790 O   0  0  0  0  0  0  0  0  0  0  0  0
    4.2720   -1.7010    0.0110 C   0  0  0  0  0  0  0  0  0  0  0  0
    4.4440   -1.2090    1.0270 O   0  0  0  0  0  0  0  0  0  0  0  0
    2.7920   -1.2750   -0.7710 N   0  0  0  0  0  0  0  0  0  0  0  0
    2.3190   -0.3960    0.2280 C   0  0  0  0  0  0  0  0  0  0  0  0
    2.6770   -0.0460    1.2930 O   0  0  0  0  0  0  0  0  0  0  0  0
    1.0340    0.1850   -0.2670 N   0  0  0  0  0  0  0  0  0  0  0  0
    0.2650    1.1020    0.3680 C   0  0  2  0  0  0  0  0  0  0  0  0
   -0.1160    0.7960    1.8330 C   0  0  0  0  0  0  0  0  0  0  0  0
   -1.0200    2.0020    2.1040 C   0  0  0  0  0  0  0  0  0  0  0  0
   -1.3740    2.6030    0.7540 C   0  0  0  0  0  0  0  0  0  0  0  0
   -1.0840    1.3780   -0.1780 C   0  0  2  0  0  0  0  0  0  0  0  0
   -2.1680    0.3930    0.2200 C   0  0  2  0  0  0  0  0  0  0  0  0
   -1.8940   -1.0260   -0.0560 C   0  0  0  0  0  0  0  0  0  0  0  0
   -2.6690   -1.3620   -1.3220 C   0  0  0  0  0  0  0  0  0  0  0  0
   -3.6040   -0.2780   -1.4010 N   0  0  0  0  0  0  0  0  0  0  0  0
   -3.3860    0.6890   -0.6000 C   0  0  0  0  0  0  0  0  0  0  0  0
   -4.2000    1.8770   -0.5210 N   0  0  0  0  0  0  0  0  0  0  0  0
  1  2  1  0
  2  3  2  0
  2  4  1  0
  4  5  2  0
  4  6  1  0
  6  7  1  0
  7  8  2  0
  7  9  1  0
 10  9  1  6
 10 11  1  0
 10 14  1  0
 11 12  1  0
 12 13  1  0
 14 13  1  1
 14 15  1  0
 15 16  1  6
 15 19  1  0
 16 17  1  0
 17 18  1  0
 18 19  2  0
 19 20  1  0
M  CHG  1  18   1
M  END
