
     RDKit          3D

 16 19  0  0  0  0  0  0  0  0999 V2000
    4.4560   -0.6720    0.9530 C   0  0  0  0  0  0  0  0  0  0  0  0
    4.5410    0.5710    0.3590 C   0  0  0  0  0  0  0  0  0  0  0  0
    3.4380    1.1200   -0.1820 N   0  0  0  0  0  0  0  0  0  0  0  0
    2.2370    0.4850   -0.1620 C   0  0  0  0  0  0  0  0  0  0  0  0
    1.1080    1.0550   -0.7190 C   0  0  0  0  0  0  0  0  0  0  0  0
   -0.1260    0.4370   -0.7170 C   0  0  0  0  0  0  0  0  0  0  0  0
   -0.1890   -0.8030   -0.1180 C   0  0  0  0  0  0  0  0  0  0  0  0
    0.9210   -1.3920    0.4450 C   0  0  0  0  0  0  0  0  0  0  0  0
    2.1500   -0.7620    0.4330 C   0  0  0  0  0  0  0  0  0  0  0  0
    3.2590   -1.3030    0.9720 N   0  0  0  0  0  0  0  0  0  0  0  0
   -1.5920   -1.2790   -0.2220 C   0  0  1  0  0  0  0  0  0  0  0  0
   -2.4660   -0.6630    0.8490 C   0  0  0  0  0  0  0  0  0  0  0  0
   -2.0670    0.7130    1.0830 N   0  0  0  0  0  0  0  0  0  0  0  0
   -2.2740    1.4520   -0.1460 C   0  0  0  0  0  0  0  0  0  0  0  0
   -1.4870    0.8090   -1.2370 C   0  0  2  0  0  0  0  0  0  0  0  0
   -2.0160   -0.6030   -1.5310 C   0  0  0  0  0  0  0  0  0  0  0  0
  1  2  2  0
  1 10  1  0
  2  3  1  0
  3  4  2  0
  4  5  1  0
  4  9  1  0
  5  6  2  0
  6  7  1  0
  6 15  1  0
  7  8  2  0
  7 11  1  0
  8  9  1  0
  9 10  2  0
 11 12  1  1
 11 16  1  0
 12 13  1  0
 13 14  1  0
 15 14  1  1
 15 16  1  0
M  CHG  1  13   1
M  END
