
     RDKit          3D

 20 22  0  0  0  0  0  0  0  0999 V2000
   -3.8780    1.2140   -1.6220 C   0  0  0  0  0  0  0  0  0  0  0  0
   -3.3630    0.6860   -0.3000 C   0  0  2  0  0  0  0  0  0  0  0  0
   -1.8840    0.3830   -0.3500 C   0  0  0  0  0  0  0  0  0  0  0  0
   -1.6790   -0.8370    0.4770 C   0  0  1  0  0  0  0  0  0  0  0  0
   -0.6400   -0.7050    1.5330 C   0  0  0  0  0  0  0  0  0  0  0  0
    0.6860   -0.3910    0.9420 C   0  0  0  0  0  0  0  0  0  0  0  0
    1.2270    0.8130    0.7040 N   0  0  0  0  0  0  0  0  0  0  0  0
    2.4520    0.7080    0.1540 C   0  0  0  0  0  0  0  0  0  0  0  0
    2.7030   -0.6430    0.0350 C   0  0  0  0  0  0  0  0  0  0  0  0
    1.6260   -1.2870    0.5170 N   0  0  0  0  0  0  0  0  0  0  0  0
    3.9040   -1.2790   -0.5070 C   0  0  0  0  0  0  0  0  0  0  0  0
    3.7820   -2.4990   -0.7410 O   0  0  0  0  0  0  0  0  0  0  0  0
    5.1700   -0.6750   -0.7920 N   0  0  0  0  0  0  0  0  0  0  0  0
    5.5840    0.6570   -0.6480 N   0  0  0  0  0  0  0  0  0  0  0  0
    4.7130    1.7820   -0.4950 C   0  0  0  0  0  0  0  0  0  0  0  0
    5.2950    2.8810   -0.6190 O   0  0  0  0  0  0  0  0  0  0  0  0
    3.3070    1.7850   -0.2260 N   0  0  0  0  0  0  0  0  0  0  0  0
   -3.0180   -1.1090    1.1740 C   0  0  0  0  0  0  0  0  0  0  0  0
   -3.9650   -0.6420    0.0580 C   0  0  2  0  0  0  0  0  0  0  0  0
   -3.8510   -1.5660   -0.9660 O   0  0  0  0  0  0  0  0  0  0  0  0
  2  1  1  6
  2  3  1  0
  2 19  1  0
  3  4  1  0
  4  5  1  1
  4 18  1  0
  5  6  1  0
  6  7  1  0
  6 10  2  0
  7  8  1  0
  8  9  2  0
  8 17  1  0
  9 10  1  0
  9 11  1  0
 11 12  2  0
 11 13  1  0
 13 14  1  0
 14 15  1  0
 15 16  2  0
 15 17  1  0
 18 19  1  0
 19 20  1  6
M  CHG  1  10   1
M  END
