
     RDKit          3D

 24 26  0  0  0  0  0  0  0  0999 V2000
   -0.6420    0.7460   -0.5170 O   0  0  0  0  0  0  0  0  0  0  0  0
   -1.1390   -0.2120   -1.1400 C   0  0  0  0  0  0  0  0  0  0  0  0
   -0.1990   -0.9330   -2.0820 C   0  0  0  0  0  0  0  0  0  0  0  0
    1.1060   -0.3600   -2.0530 N   0  0  0  0  0  0  0  0  0  0  0  0
    1.9550   -0.3690   -0.9150 C   0  0  0  0  0  0  0  0  0  0  0  0
    1.6390   -0.9530    0.2870 C   0  0  0  0  0  0  0  0  0  0  0  0
    2.5070   -0.9140    1.3390 N   0  0  0  0  0  0  0  0  0  0  0  0
    3.7000   -0.3060    1.2450 C   0  0  0  0  0  0  0  0  0  0  0  0
    4.5340   -0.3000    2.3430 C   0  0  0  0  0  0  0  0  0  0  0  0
    5.7550    0.3300    2.2260 C   0  0  0  0  0  0  0  0  0  0  0  0
    6.1150    0.9330    1.0310 C   0  0  0  0  0  0  0  0  0  0  0  0
    5.2520    0.9060   -0.0490 C   0  0  0  0  0  0  0  0  0  0  0  0
    4.0240    0.2820    0.0430 C   0  0  0  0  0  0  0  0  0  0  0  0
    3.1620    0.2380   -0.9880 N   0  0  0  0  0  0  0  0  0  0  0  0
   -2.4710   -0.6330   -1.0170 N   0  0  0  0  0  0  0  0  0  0  0  0
   -3.4200   -0.0300   -0.1720 C   0  0  0  0  0  0  0  0  0  0  0  0
   -3.1990    1.0510    0.6550 C   0  0  0  0  0  0  0  0  0  0  0  0
   -4.2060    1.5900    1.4670 C   0  0  0  0  0  0  0  0  0  0  0  0
   -3.8530    2.9570    2.4860 Cl  0  0  0  0  0  0  0  0  0  0  0  0
   -5.4550    1.0370    1.4510 C   0  0  0  0  0  0  0  0  0  0  0  0
   -6.7380    1.6730    2.4430 Cl  0  0  0  0  0  0  0  0  0  0  0  0
   -5.6860   -0.0580    0.6160 C   0  0  0  0  0  0  0  0  0  0  0  0
   -4.7090   -0.5850   -0.1750 C   0  0  0  0  0  0  0  0  0  0  0  0
   -4.9980   -1.6570   -0.9700 O   0  0  0  0  0  0  0  0  0  0  0  0
  1  2  2  0
  2  3  1  0
  2 15  1  0
  3  4  1  0
  4  5  1  0
  5  6  2  0
  5 14  1  0
  6  7  1  0
  7  8  2  0
  8  9  1  0
  8 13  1  0
  9 10  2  0
 10 11  1  0
 11 12  2  0
 12 13  1  0
 13 14  2  0
 15 16  1  0
 16 17  2  0
 16 23  1  0
 17 18  1  0
 18 19  1  0
 18 20  2  0
 20 21  1  0
 20 22  1  0
 22 23  2  0
 23 24  1  0
M  END
