
     RDKit          3D

 24 26  0  0  0  0  0  0  0  0999 V2000
   -4.2650   -2.3240    0.4550 C   0  0  0  0  0  0  0  0  0  0  0  0
   -2.8530   -1.9130    0.4530 C   0  0  0  0  0  0  0  0  0  0  0  0
   -1.9090   -2.6710    1.1110 C   0  0  0  0  0  0  0  0  0  0  0  0
   -2.4380   -4.1160    1.9330 Cl  0  0  0  0  0  0  0  0  0  0  0  0
   -0.6010   -2.3370    1.1420 N   0  0  0  0  0  0  0  0  0  0  0  0
   -0.2060   -1.2190    0.5040 C   0  0  0  0  0  0  0  0  0  0  0  0
    1.1020   -0.9170    0.5580 N   0  0  0  0  0  0  0  0  0  0  0  0
    1.6200    0.1830   -0.0420 C   0  0  0  0  0  0  0  0  0  0  0  0
    3.0730    0.4510    0.0650 C   0  0  0  0  0  0  0  0  0  0  0  0
    3.8190   -0.4060    0.7390 C   0  0  0  0  0  0  0  0  0  0  0  0
    5.2420   -0.2430    0.9070 C   0  0  0  0  0  0  0  0  0  0  0  0
    6.0410   -1.1340    1.6110 O   0  0  0  0  0  0  0  0  0  0  0  0
    5.7920    0.8220    0.3490 C   0  0  0  0  0  0  0  0  0  0  0  0
    5.0620    1.8380   -0.4200 C   0  0  0  0  0  0  0  0  0  0  0  0
    3.6460    1.5910   -0.5360 N   0  0  0  0  0  0  0  0  0  0  0  0
    0.7530    0.9950   -0.7200 C   0  0  0  0  0  0  0  0  0  0  0  0
   -0.6040    0.7330   -0.8100 C   0  0  0  0  0  0  0  0  0  0  0  0
   -1.0780   -0.3980   -0.1820 C   0  0  0  0  0  0  0  0  0  0  0  0
   -2.4110   -0.7730   -0.1900 C   0  0  0  0  0  0  0  0  0  0  0  0
   -3.3090    0.0570   -0.8850 N   0  0  0  0  0  0  0  0  0  0  0  0
   -3.9230    1.1200   -0.1700 C   0  0  0  0  0  0  0  0  0  0  0  0
   -3.7030    1.3490    1.0470 O   0  0  0  0  0  0  0  0  0  0  0  0
   -4.8760    2.0250   -0.8620 C   0  0  0  0  0  0  0  0  0  0  0  0
   -6.5040    1.3450   -0.6490 Cl  0  0  0  0  0  0  0  0  0  0  0  0
  1  2  1  0
  2  3  2  0
  2 19  1  0
  3  4  1  0
  3  5  1  0
  5  6  2  0
  6  7  1  0
  6 18  1  0
  7  8  2  0
  8  9  1  0
  8 16  1  0
  9 10  2  0
  9 15  1  0
 10 11  1  0
 11 12  1  0
 11 13  2  0
 13 14  1  0
 14 15  1  0
 16 17  2  0
 17 18  1  0
 18 19  2  0
 19 20  1  0
 20 21  1  0
 21 22  2  0
 21 23  1  0
 23 24  1  0
M  END
