
     RDKit          3D

 24 26  0  0  0  0  0  0  0  0999 V2000
    2.5090    0.8080    1.2370 O   0  0  0  0  0  0  0  0  0  0  0  0
    2.2980    0.1470    0.1940 C   0  0  0  0  0  0  0  0  0  0  0  0
    0.8940   -0.2260   -0.1590 C   0  0  0  0  0  0  0  0  0  0  0  0
   -0.0660    0.1570    0.6440 C   0  0  0  0  0  0  0  0  0  0  0  0
   -1.4690   -0.1220    0.4470 C   0  0  0  0  0  0  0  0  0  0  0  0
   -2.2830    0.3840    1.3940 C   0  0  0  0  0  0  0  0  0  0  0  0
   -3.7020    0.3150    1.5310 N   0  0  0  0  0  0  0  0  0  0  0  0
   -4.6530    0.1490    0.4770 C   0  0  0  0  0  0  0  0  0  0  0  0
   -5.9260    0.4590    0.5810 C   0  0  0  0  0  0  0  0  0  0  0  0
   -6.7100    1.1330    2.0220 Cl  0  0  0  0  0  0  0  0  0  0  0  0
   -6.6140    0.1580   -0.6960 C   0  0  0  0  0  0  0  0  0  0  0  0
   -5.5280   -0.3750   -1.5500 C   0  0  0  0  0  0  0  0  0  0  0  0
   -4.4020   -0.3760   -0.8650 C   0  0  0  0  0  0  0  0  0  0  0  0
   -3.1720   -0.8300   -1.4030 N   0  0  0  0  0  0  0  0  0  0  0  0
   -1.9190   -0.9080   -0.6820 C   0  0  0  0  0  0  0  0  0  0  0  0
   -1.1270   -1.7780   -1.1000 O   0  0  0  0  0  0  0  0  0  0  0  0
    3.3870   -0.2320   -0.6250 N   0  0  0  0  0  0  0  0  0  0  0  0
    4.7410    0.0670   -0.3840 C   0  0  0  0  0  0  0  0  0  0  0  0
    5.2660    0.7640    0.6600 C   0  0  0  0  0  0  0  0  0  0  0  0
    6.5980    1.0070    0.8130 N   0  0  0  0  0  0  0  0  0  0  0  0
    7.4980    0.5620   -0.0800 C   0  0  0  0  0  0  0  0  0  0  0  0
    7.0160   -0.1500   -1.1570 C   0  0  0  0  0  0  0  0  0  0  0  0
    8.2110   -0.7250   -2.3180 Cl  0  0  0  0  0  0  0  0  0  0  0  0
    5.6740   -0.4000   -1.3200 C   0  0  0  0  0  0  0  0  0  0  0  0
  1  2  2  0
  2  3  1  0
  2 17  1  0
  3  4  2  3
  4  5  1  0
  5  6  2  0
  5 15  1  0
  6  7  1  0
  7  8  1  0
  8  9  2  0
  8 13  1  0
  9 10  1  0
  9 11  1  0
 11 12  1  0
 12 13  2  0
 13 14  1  0
 14 15  1  0
 15 16  2  0
 17 18  1  0
 18 19  2  0
 18 24  1  0
 19 20  1  0
 20 21  2  0
 21 22  1  0
 22 23  1  0
 22 24  2  0
M  END
