
     RDKit          3D

 28 31  0  0  0  0  0  0  0  0999 V2000
   -6.8520    0.7520   -3.5370 C   0  0  0  0  0  0  0  0  0  0  0  0
   -6.5800    0.3460   -2.1680 N   0  0  0  0  0  0  0  0  0  0  0  0
   -5.5890    0.9840   -1.3730 C   0  0  0  0  0  0  0  0  0  0  0  0
   -4.9270    1.9250   -1.8600 O   0  0  0  0  0  0  0  0  0  0  0  0
   -5.3790    0.5090    0.0050 C   0  0  0  0  0  0  0  0  0  0  0  0
   -6.4980    0.1190    0.6900 C   0  0  0  0  0  0  0  0  0  0  0  0
   -6.3980   -0.3390    1.9820 C   0  0  0  0  0  0  0  0  0  0  0  0
   -5.1400   -0.3820    2.5350 C   0  0  0  0  0  0  0  0  0  0  0  0
   -3.9890    0.0140    1.8490 C   0  0  0  0  0  0  0  0  0  0  0  0
   -4.0850    0.4690    0.5600 C   0  0  0  0  0  0  0  0  0  0  0  0
   -2.7820    0.9520   -0.4690 S   0  0  0  0  0  0  0  0  0  0  0  0
   -1.1420    0.5080   -0.0610 C   0  0  0  0  0  0  0  0  0  0  0  0
   -0.0980    1.1860   -0.7260 C   0  0  0  0  0  0  0  0  0  0  0  0
    1.2230    0.8920   -0.5140 C   0  0  0  0  0  0  0  0  0  0  0  0
    1.5970   -0.0990    0.3770 C   0  0  0  0  0  0  0  0  0  0  0  0
    2.8000   -0.6130    0.7960 C   0  0  0  0  0  0  0  0  0  0  0  0
    4.1120   -0.1470    0.3160 C   0  0  0  0  0  0  0  0  0  0  0  0
    5.2310   -0.6800    0.7560 C   0  0  0  0  0  0  0  0  0  0  0  0
    6.5700   -0.2960    0.3490 C   0  0  0  0  0  0  0  0  0  0  0  0
    6.8260    0.6930   -0.5650 C   0  0  0  0  0  0  0  0  0  0  0  0
    8.1430    1.0120   -0.9120 C   0  0  0  0  0  0  0  0  0  0  0  0
    9.2010    0.3450   -0.3460 C   0  0  0  0  0  0  0  0  0  0  0  0
    8.9070   -0.6410    0.5670 C   0  0  0  0  0  0  0  0  0  0  0  0
    7.6350   -0.9340    0.8880 N   0  0  0  0  0  0  0  0  0  0  0  0
    2.4930   -1.5680    1.6820 N   0  0  0  0  0  0  0  0  0  0  0  0
    1.1980   -1.6880    1.8460 N   0  0  0  0  0  0  0  0  0  0  0  0
    0.6130   -0.7850    1.0450 C   0  0  0  0  0  0  0  0  0  0  0  0
   -0.7240   -0.4630    0.8060 C   0  0  0  0  0  0  0  0  0  0  0  0
  1  2  1  0
  2  3  1  0
  3  4  2  0
  3  5  1  0
  5  6  2  0
  5 10  1  0
  6  7  1  0
  7  8  2  0
  8  9  1  0
  9 10  2  0
 10 11  1  0
 11 12  1  0
 12 13  2  0
 12 28  1  0
 13 14  1  0
 14 15  2  0
 15 16  1  0
 15 27  1  0
 16 17  1  0
 16 25  2  0
 17 18  2  3
 18 19  1  0
 19 20  2  0
 19 24  1  0
 20 21  1  0
 21 22  2  0
 22 23  1  0
 23 24  2  0
 25 26  1  0
 26 27  1  0
 27 28  2  0
M  END
