
     RDKit          3D

 24 25  0  0  0  0  0  0  0  0999 V2000
    3.1700    3.7120    0.1740 C   0  0  0  0  0  0  0  0  0  0  0  0
    3.8860    2.5120    0.0550 O   0  0  0  0  0  0  0  0  0  0  0  0
    3.2680    1.2740   -0.0040 C   0  0  0  0  0  0  0  0  0  0  0  0
    1.8980    1.1030    0.0470 C   0  0  0  0  0  0  0  0  0  0  0  0
    1.3420   -0.1560   -0.0170 C   0  0  0  0  0  0  0  0  0  0  0  0
   -0.0640   -0.3500    0.0340 N   0  0  0  0  0  0  0  0  0  0  0  0
   -0.7010   -0.4990   -1.0790 C   0  0  0  0  0  0  0  0  0  0  0  0
    0.0140   -0.4710   -2.3930 C   0  0  0  0  0  0  0  0  0  0  0  0
   -2.1080   -0.6920   -1.0030 N   0  0  0  0  0  0  0  0  0  0  0  0
   -2.7740   -0.2290    0.1650 C   0  0  0  0  0  0  0  0  0  0  0  0
   -3.3580    0.9480    0.3170 C   0  0  0  0  0  0  0  0  0  0  0  0
   -3.4270    1.9990   -0.6980 C   0  0  0  0  0  0  0  0  0  0  0  0
   -4.0090    3.1130   -0.4770 N   0  0  0  0  0  0  0  0  0  0  0  0
   -3.9120    1.0250    1.6370 N   0  0  0  0  0  0  0  0  0  0  0  0
   -3.7570   -0.2490    2.3180 C   0  0  0  0  0  0  0  0  0  0  0  0
   -2.9010   -1.0180    1.3820 C   0  0  0  0  0  0  0  0  0  0  0  0
   -2.3600   -2.1890    1.6060 C   0  0  0  0  0  0  0  0  0  0  0  0
   -2.6280   -2.9820    3.1310 Cl  0  0  0  0  0  0  0  0  0  0  0  0
    2.1890   -1.2370   -0.1330 C   0  0  0  0  0  0  0  0  0  0  0  0
    1.5960   -2.4880   -0.1950 O   0  0  0  0  0  0  0  0  0  0  0  0
    2.4280   -3.6180   -0.3130 C   0  0  0  0  0  0  0  0  0  0  0  0
    3.5630   -1.0990   -0.1860 C   0  0  0  0  0  0  0  0  0  0  0  0
    4.0950    0.1720   -0.1210 C   0  0  0  0  0  0  0  0  0  0  0  0
    5.8240    0.3520   -0.1870 Cl  0  0  0  0  0  0  0  0  0  0  0  0
  1  2  1  0
  2  3  1  0
  3  4  2  0
  3 23  1  0
  4  5  1  0
  5  6  1  0
  5 19  2  0
  6  7  2  3
  7  8  1  0
  7  9  1  0
  9 10  1  0
 10 11  2  0
 10 16  1  0
 11 12  1  0
 11 14  1  0
 12 13  2  0
 14 15  1  0
 15 16  1  0
 16 17  2  3
 17 18  1  0
 19 20  1  0
 19 22  1  0
 20 21  1  0
 22 23  2  0
 23 24  1  0
M  END
