
     RDKit          3D

 24 26  0  0  0  0  0  0  0  0999 V2000
   -6.3970   -0.6570   -1.4310 C   0  0  0  0  0  0  0  0  0  0  0  0
   -4.9400   -0.9370   -1.1640 C   0  0  0  0  0  0  0  0  0  0  0  0
   -4.3410   -2.0480   -1.7420 C   0  0  0  0  0  0  0  0  0  0  0  0
   -3.0120   -2.2820   -1.4830 C   0  0  0  0  0  0  0  0  0  0  0  0
   -2.1850   -3.6480   -2.1640 Cl  0  0  0  0  0  0  0  0  0  0  0  0
   -2.3240   -1.4010   -0.6580 C   0  0  0  0  0  0  0  0  0  0  0  0
   -2.9000   -0.2940   -0.0780 C   0  0  0  0  0  0  0  0  0  0  0  0
   -2.2400    0.6430    0.7330 N   0  0  0  0  0  0  0  0  0  0  0  0
   -0.9190    1.0740    0.5160 C   0  0  0  0  0  0  0  0  0  0  0  0
   -0.2640    1.9770    1.3230 N   0  0  0  0  0  0  0  0  0  0  0  0
    0.9440    2.2090    0.8470 N   0  0  0  0  0  0  0  0  0  0  0  0
    1.1270    1.4830   -0.2680 C   0  0  0  0  0  0  0  0  0  0  0  0
    2.3310    1.4160   -1.1510 C   0  0  0  0  0  0  0  0  0  0  0  0
    3.1760    0.3810   -0.6800 O   0  0  0  0  0  0  0  0  0  0  0  0
    3.7350    0.3360    0.5710 C   0  0  0  0  0  0  0  0  0  0  0  0
    3.0010   -0.0430    1.6250 C   0  0  0  0  0  0  0  0  0  0  0  0
    3.6640   -0.0660    2.9250 C   0  0  0  0  0  0  0  0  0  0  0  0
    4.9360    0.2720    3.0610 C   0  0  0  0  0  0  0  0  0  0  0  0
    5.7180    0.6690    1.9800 O   0  0  0  0  0  0  0  0  0  0  0  0
    5.1350    0.7080    0.7230 C   0  0  0  0  0  0  0  0  0  0  0  0
    5.8190    1.0770   -0.3560 C   0  0  0  0  0  0  0  0  0  0  0  0
    7.4980    1.5210   -0.1610 Cl  0  0  0  0  0  0  0  0  0  0  0  0
   -0.0370    0.8020   -0.4380 N   0  0  0  0  0  0  0  0  0  0  0  0
   -4.2620   -0.0710   -0.3540 C   0  0  0  0  0  0  0  0  0  0  0  0
  1  2  1  0
  2  3  2  0
  2 24  1  0
  3  4  1  0
  4  5  1  0
  4  6  2  0
  6  7  1  0
  7  8  1  0
  7 24  2  0
  8  9  1  0
  9 10  2  0
  9 23  1  0
 10 11  1  0
 11 12  2  0
 12 13  1  0
 12 23  1  0
 13 14  1  0
 14 15  1  0
 15 16  2  0
 15 20  1  0
 16 17  1  0
 17 18  2  0
 18 19  1  0
 19 20  1  0
 20 21  2  3
 21 22  1  0
M  END
