
     RDKit          3D

 24 26  0  0  0  0  0  0  0  0999 V2000
    5.0960    2.5920    0.8880 C   0  0  0  0  0  0  0  0  0  0  0  0
    4.8800    1.4550   -0.0500 C   0  0  0  0  0  0  0  0  0  0  0  0
    3.6730    0.7800   -0.0670 C   0  0  0  0  0  0  0  0  0  0  0  0
    3.4800   -0.2680   -0.9350 C   0  0  0  0  0  0  0  0  0  0  0  0
    2.2850   -1.0160   -1.0450 N   0  0  0  0  0  0  0  0  0  0  0  0
    1.0520   -0.7330   -0.4320 C   0  0  0  0  0  0  0  0  0  0  0  0
    0.9000    0.2580    0.2970 O   0  0  0  0  0  0  0  0  0  0  0  0
   -0.0850   -1.6190   -0.6520 C   0  0  0  0  0  0  0  0  0  0  0  0
   -0.1090   -2.7470   -1.4150 N   0  0  0  0  0  0  0  0  0  0  0  0
   -1.3050   -3.2500   -1.3530 O   0  0  0  0  0  0  0  0  0  0  0  0
   -2.0970   -2.5550   -0.6080 C   0  0  0  0  0  0  0  0  0  0  0  0
   -1.3580   -1.4930   -0.1320 C   0  0  0  0  0  0  0  0  0  0  0  0
   -1.9270   -0.4710    0.7610 C   0  0  0  0  0  0  0  0  0  0  0  0
   -3.3840   -0.3370    0.6740 C   0  0  0  0  0  0  0  0  0  0  0  0
   -3.9770    0.7670    1.0600 C   0  0  0  0  0  0  0  0  0  0  0  0
   -5.3800    0.9440    0.9950 N   0  0  0  0  0  0  0  0  0  0  0  0
   -5.9650    1.9850    0.1360 C   0  0  0  0  0  0  0  0  0  0  0  0
   -5.3350    3.5780    0.6790 Cl  0  0  0  0  0  0  0  0  0  0  0  0
   -4.1190   -1.4450    0.1570 N   0  0  0  0  0  0  0  0  0  0  0  0
   -3.5040   -2.6820   -0.2160 C   0  0  0  0  0  0  0  0  0  0  0  0
    4.5290   -0.6310   -1.7950 C   0  0  0  0  0  0  0  0  0  0  0  0
    5.7140    0.0610   -1.7500 C   0  0  0  0  0  0  0  0  0  0  0  0
    5.9110    1.1090   -0.8850 C   0  0  0  0  0  0  0  0  0  0  0  0
    7.4510    1.9730   -0.8610 Cl  0  0  0  0  0  0  0  0  0  0  0  0
  1  2  1  0
  2  3  2  0
  2 23  1  0
  3  4  1  0
  4  5  1  0
  4 21  2  0
  5  6  1  0
  6  7  2  0
  6  8  1  0
  8  9  2  0
  8 12  1  0
  9 10  1  0
 10 11  1  0
 11 12  2  0
 11 20  1  0
 12 13  1  0
 13 14  1  0
 14 15  2  3
 14 19  1  0
 15 16  1  0
 16 17  1  0
 17 18  1  0
 19 20  1  0
 21 22  1  0
 22 23  2  0
 23 24  1  0
M  END
