
     RDKit          3D

 10  9  0  0  0  0  0  0  0  0999 V2000
    2.8650   -1.4930   -1.0930 C   0  0  0  0  0  0  0  0  0  0  0  0
    2.3190   -0.6630    0.0370 C   0  0  0  0  0  0  0  0  0  0  0  0
    1.4900    0.4370   -0.5400 C   0  0  0  0  0  0  0  0  0  0  0  0
    0.2090    0.5670   -0.2530 C   0  0  0  0  0  0  0  0  0  0  0  0
   -0.5710    1.6720   -0.8480 C   0  0  0  0  0  0  0  0  0  0  0  0
   -1.1490    2.5690    0.2490 C   0  0  0  0  0  0  0  0  0  0  0  0
   -0.4540   -0.3250    0.6160 N   0  0  0  0  0  0  0  0  0  0  0  0
   -1.5420   -0.9520    0.3290 C   0  0  0  0  0  0  0  0  0  0  0  0
   -2.0840   -1.8140    1.3120 N   0  0  0  0  0  0  0  0  0  0  0  0
   -2.2140   -0.8210   -0.9080 N   0  0  0  0  0  0  0  0  0  0  0  0
  1  2  1  0
  2  3  1  0
  3  4  2  3
  4  5  1  0
  4  7  1  0
  5  6  1  0
  7  8  2  3
  8  9  1  0
  8 10  1  0
M  END
