
     RDKit          3D

 10  9  0  0  0  0  0  0  0  0999 V2000
    2.6150    0.7220    0.3250 C   0  0  0  0  0  0  0  0  0  0  0  0
    1.5930    0.1800    1.2900 C   0  0  0  0  0  0  0  0  0  0  0  0
    0.7450   -0.8990    0.7610 C   0  0  0  0  0  0  0  0  0  0  0  0
   -0.1240   -0.6300   -0.4060 C   0  0  2  0  0  0  0  0  0  0  0  0
   -0.9130   -1.9190   -0.7540 C   0  0  0  0  0  0  0  0  0  0  0  0
    0.5360   -0.2010   -1.6680 C   0  0  0  0  0  0  0  0  0  0  0  0
   -1.1740    0.3330    0.0020 C   0  0  0  0  0  0  0  0  0  0  0  0
   -2.0640    0.0010    1.0380 N   0  0  0  0  0  0  0  0  0  0  0  0
   -1.2380    1.4490   -0.6070 N   0  0  0  0  0  0  0  0  0  0  0  0
   -2.1920    2.4020   -0.2820 N   0  0  0  0  0  0  0  0  0  0  0  0
  1  2  1  0
  2  3  1  0
  3  4  1  0
  4  5  1  6
  4  6  1  0
  4  7  1  0
  7  8  1  0
  7  9  2  3
  9 10  1  0
M  END
