
     RDKit          3D

 10  9  0  0  0  0  0  0  0  0999 V2000
   -1.6580    0.2010   -2.0100 C   0  0  0  0  0  0  0  0  0  0  0  0
   -1.5810    0.6020   -0.6040 C   0  0  0  0  0  0  0  0  0  0  0  0
   -2.7310    1.3370   -0.0970 N   0  0  0  0  0  0  0  0  0  0  0  0
   -0.6050    0.3800    0.2450 C   0  0  0  0  0  0  0  0  0  0  0  0
   -0.7970    0.9110    1.6370 C   0  0  0  0  0  0  0  0  0  0  0  0
    0.5780   -0.3370   -0.1510 C   0  0  0  0  0  0  0  0  0  0  0  0
    0.7310   -0.8420   -1.5010 N   0  0  0  0  0  0  0  0  0  0  0  0
    1.6160   -0.6140    0.6170 C   0  0  0  0  0  0  0  0  0  0  0  0
    2.7830   -1.3660    0.0880 C   0  0  0  0  0  0  0  0  0  0  0  0
    1.6340   -0.1980    1.9590 N   0  0  0  0  0  0  0  0  0  0  0  0
  1  2  1  0
  2  3  1  0
  2  4  2  3
  4  5  1  0
  4  6  1  0
  6  7  1  0
  6  8  2  3
  8  9  1  0
  8 10  1  0
M  END
