
     RDKit          3D

  9  8  0  0  0  0  0  0  0  0999 V2000
    1.4900    1.2490    1.3300 C   0  0  0  0  0  0  0  0  0  0  0  0
    1.1770    0.1080    0.7190 C   0  0  0  0  0  0  0  0  0  0  0  0
    1.9930   -1.0680    1.0220 C   0  0  0  0  0  0  0  0  0  0  0  0
    0.0400    0.1500   -0.1980 C   0  0  0  0  0  0  0  0  0  0  0  0
   -0.6860    1.3610   -0.4160 N   0  0  0  0  0  0  0  0  0  0  0  0
   -1.6040    1.9220    0.5360 C   0  0  0  0  0  0  0  0  0  0  0  0
   -0.3530   -0.9200   -0.8520 C   0  0  0  0  0  0  0  0  0  0  0  0
   -1.5390   -0.7640   -1.7750 C   0  0  0  0  0  0  0  0  0  0  0  0
    0.2710   -2.1900   -0.7370 N   0  0  0  0  0  0  0  0  0  0  0  0
  1  2  2  0
  2  3  1  0
  2  4  1  0
  4  5  1  0
  4  7  2  3
  5  6  1  0
  7  8  1  0
  7  9  1  0
M  END
