
     RDKit          3D

 10  9  0  0  0  0  0  0  0  0999 V2000
   -1.6650    1.5720   -0.4780 C   0  0  0  0  0  0  0  0  0  0  0  0
   -2.2400    0.4400    0.2840 C   0  0  0  0  0  0  0  0  0  0  0  0
   -1.3660   -0.7250    0.4730 C   0  0  0  0  0  0  0  0  0  0  0  0
   -1.9460   -1.8170    1.2170 N   0  0  0  0  0  0  0  0  0  0  0  0
   -0.1490   -0.8630    0.0440 C   0  0  0  0  0  0  0  0  0  0  0  0
    0.6080   -2.1180    0.3220 C   0  0  0  0  0  0  0  0  0  0  0  0
    0.4380    0.2070   -0.6940 N   0  0  0  0  0  0  0  0  0  0  0  0
    1.6380    0.6150   -0.5160 C   0  0  0  0  0  0  0  0  0  0  0  0
    2.1180    1.7400   -1.3570 C   0  0  0  0  0  0  0  0  0  0  0  0
    2.5410    0.0610    0.4340 N   0  0  0  0  0  0  0  0  0  0  0  0
  1  2  1  0
  2  3  1  0
  3  4  1  0
  3  5  2  3
  5  6  1  0
  5  7  1  0
  7  8  2  3
  8  9  1  0
  8 10  1  0
M  END
