
     RDKit          3D

  9  8  0  0  0  0  0  0  0  0999 V2000
   -3.1800   -0.8340   -0.1600 C   0  0  0  0  0  0  0  0  0  0  0  0
   -3.0980    0.6550    0.0300 C   0  0  0  0  0  0  0  0  0  0  0  0
   -1.6920    1.0920   -0.3100 C   0  0  0  0  0  0  0  0  0  0  0  0
   -0.6860    0.4090    0.5900 C   0  0  0  0  0  0  0  0  0  0  0  0
    0.6500    0.8330    0.2560 N   0  0  0  0  0  0  0  0  0  0  0  0
    1.7870    0.3700    0.9190 N   0  0  0  0  0  0  0  0  0  0  0  0
    2.7140   -0.2680    0.3220 C   0  0  0  0  0  0  0  0  0  0  0  0
    3.9080   -0.7520    1.0320 C   0  0  0  0  0  0  0  0  0  0  0  0
    2.5980   -0.5210   -1.0560 N   0  0  0  0  0  0  0  0  0  0  0  0
  1  2  1  0
  2  3  1  0
  3  4  1  0
  4  5  1  0
  5  6  1  0
  6  7  2  3
  7  8  1  0
  7  9  1  0
M  END
