
     RDKit          3D

 10  9  0  0  0  0  0  0  0  0999 V2000
   -2.4760    0.7850   -1.3340 C   0  0  0  0  0  0  0  0  0  0  0  0
   -1.5630   -0.0900   -0.4870 C   0  0  0  0  0  0  0  0  0  0  0  0
   -2.1900   -1.3310    0.0330 C   0  0  0  0  0  0  0  0  0  0  0  0
   -0.3390    0.3100   -0.2940 C   0  0  0  0  0  0  0  0  0  0  0  0
   -0.0240    1.5780   -0.9400 N   0  0  0  0  0  0  0  0  0  0  0  0
    0.7290   -0.2900    0.4390 C   0  0  0  0  0  0  0  0  0  0  0  0
    0.5930   -1.5780    1.1520 C   0  0  0  0  0  0  0  0  0  0  0  0
    1.9100    0.2990    0.5070 C   0  0  0  0  0  0  0  0  0  0  0  0
    2.1790    1.5300   -0.1260 N   0  0  0  0  0  0  0  0  0  0  0  0
    2.9620   -0.2930    1.2290 N   0  0  0  0  0  0  0  0  0  0  0  0
  1  2  1  0
  2  3  1  0
  2  4  2  3
  4  5  1  0
  4  6  1  0
  6  7  1  0
  6  8  2  3
  8  9  1  0
  8 10  1  0
M  END
