
     RDKit          3D

 10  9  0  0  0  0  0  0  0  0999 V2000
   -0.6760    1.6420   -1.1760 C   0  0  0  0  0  0  0  0  0  0  0  0
   -0.1280    0.5290   -0.2340 C   0  0  0  0  0  0  0  0  0  0  0  0
    1.1410    0.3290   -0.3800 C   0  0  0  0  0  0  0  0  0  0  0  0
    1.8620    1.1550   -1.3810 N   0  0  0  0  0  0  0  0  0  0  0  0
    2.0330   -0.5790    0.2700 C   0  0  0  0  0  0  0  0  0  0  0  0
    3.3120   -0.5520   -0.1020 N   0  0  0  0  0  0  0  0  0  0  0  0
    1.7230   -1.5280    1.2840 N   0  0  0  0  0  0  0  0  0  0  0  0
   -1.2080    0.0190    0.5480 C   0  0  1  0  0  0  0  0  0  0  0  0
   -2.3980   -0.3530   -0.3680 C   0  0  0  0  0  0  0  0  0  0  0  0
   -1.0850   -1.0460    1.5410 C   0  0  0  0  0  0  0  0  0  0  0  0
  1  2  1  0
  2  3  2  3
  2  8  1  0
  3  4  1  0
  3  5  1  0
  5  6  2  0
  5  7  1  0
  8  9  1  6
  8 10  1  0
M  END
