
     RDKit          3D

 19 21  0  0  0  0  0  0  0  0999 V2000
    4.5020    2.2900   -1.9510 Cl  0  0  0  0  0  0  0  0  0  0  0  0
    5.1490    0.9360   -1.0460 C   0  0  0  0  0  0  0  0  0  0  0  0
    4.5710   -0.1080   -0.4660 C   0  0  0  0  0  0  0  0  0  0  0  0
    3.2700   -0.6400   -0.2800 N   0  0  0  0  0  0  0  0  0  0  0  0
    2.3090    0.1700    0.4190 C   0  0  0  0  0  0  0  0  0  0  0  0
    0.9640   -0.5190    0.5460 C   0  0  1  0  0  0  0  0  0  0  0  0
   -0.0110    0.3330    1.2700 C   0  0  0  0  0  0  0  0  0  0  0  0
   -1.2340    0.7190    0.5170 C   0  0  0  0  0  0  0  0  0  0  0  0
   -1.7990   -0.3260   -0.3870 C   0  0  2  0  0  0  0  0  0  0  0  0
   -3.0870   -0.7940    0.0780 N   0  0  0  0  0  0  0  0  0  0  0  0
   -4.1750    0.1090    0.2110 C   0  0  0  0  0  0  0  0  0  0  0  0
   -4.2150    1.4580   -0.0490 C   0  0  0  0  0  0  0  0  0  0  0  0
   -5.4380    1.8950    0.2170 N   0  0  0  0  0  0  0  0  0  0  0  0
   -6.1820    0.9130    0.6310 O   0  0  0  0  0  0  0  0  0  0  0  0
   -5.4560   -0.1960    0.6440 C   0  0  0  0  0  0  0  0  0  0  0  0
   -0.9010   -1.4960   -0.6220 C   0  0  0  0  0  0  0  0  0  0  0  0
    0.5040   -0.9160   -0.8420 C   0  0  0  0  0  0  0  0  0  0  0  0
    5.8980   -0.5120   -0.0730 N   0  0  0  0  0  0  0  0  0  0  0  0
    6.4670    0.4940   -0.6300 C   0  0  0  0  0  0  0  0  0  0  0  0
  1  2  1  0
  2  3  2  0
  2 19  1  0
  3  4  1  0
  3 18  1  0
  4  5  1  0
  6  5  1  6
  6  7  1  0
  6 17  1  0
  7  8  1  0
  8  9  1  0
  9 10  1  1
  9 16  1  0
 10 11  1  0
 11 12  1  0
 11 15  2  0
 12 13  2  0
 13 14  1  0
 14 15  1  0
 16 17  1  0
 18 19  2  0
M  END
