
     RDKit          3D

 18 20  0  0  0  0  0  0  0  0999 V2000
    6.2370    0.0480    0.7170 C   0  0  0  0  0  0  0  0  0  0  0  0
    5.0500   -0.8520    0.4580 C   0  0  0  0  0  0  0  0  0  0  0  0
    3.7560   -0.0390    0.4070 C   0  0  0  0  0  0  0  0  0  0  0  0
    2.6200   -0.8880    0.1610 N   0  0  0  0  0  0  0  0  0  0  0  0
    1.2780   -0.4410    0.0740 C   0  0  0  0  0  0  0  0  0  0  0  0
    0.8220    0.8270    0.2120 C   0  0  0  0  0  0  0  0  0  0  0  0
    1.5420    2.0900    0.4880 C   0  0  0  0  0  0  0  0  0  0  0  0
   -0.5190    0.7570    0.0450 N   0  0  0  0  0  0  0  0  0  0  0  0
   -0.9280   -0.4640   -0.1870 N   0  0  0  0  0  0  0  0  0  0  0  0
   -1.9910   -1.2490   -0.4290 C   0  0  0  0  0  0  0  0  0  0  0  0
   -3.4050   -0.8800   -0.5380 C   0  0  1  0  0  0  0  0  0  0  0  0
   -3.9180   -0.1350    0.6670 C   0  0  0  0  0  0  0  0  0  0  0  0
   -5.2650    0.3630    0.1330 C   0  0  0  0  0  0  0  0  0  0  0  0
   -4.9970    0.6680   -1.3210 C   0  0  0  0  0  0  0  0  0  0  0  0
   -3.6240    0.1530   -1.6420 C   0  0  0  0  0  0  0  0  0  0  0  0
   -1.5000   -2.4880   -0.5580 N   0  0  0  0  0  0  0  0  0  0  0  0
   -0.1960   -2.4710   -0.4040 O   0  0  0  0  0  0  0  0  0  0  0  0
    0.1820   -1.2390   -0.1740 C   0  0  0  0  0  0  0  0  0  0  0  0
  1  2  1  0
  2  3  1  0
  3  4  1  0
  4  5  1  0
  5  6  1  0
  5 18  2  0
  6  7  1  0
  6  8  2  0
  8  9  1  0
  9 10  1  0
  9 18  1  0
 11 10  1  1
 10 16  2  0
 11 12  1  0
 11 15  1  0
 12 13  1  0
 13 14  1  0
 14 15  1  0
 16 17  1  0
 17 18  1  0
M  END
