
     RDKit          3D

 12 12  0  0  0  0  0  0  0  0999 V2000
    2.5210    0.9880   -0.2430 O   0  0  0  0  0  0  0  0  0  0  0  0
    2.1650   -0.1860   -0.8770 C   0  0  0  0  0  0  0  0  0  0  0  0
    0.7050   -0.2780   -1.2160 C   0  0  0  0  0  0  0  0  0  0  0  0
   -0.1610   -0.1960    0.0050 C   0  0  2  0  0  0  0  0  0  0  0  0
    0.1260   -1.3050    0.9890 C   0  0  0  0  0  0  0  0  0  0  0  0
   -0.0890   -2.5640    0.4320 O   0  0  0  0  0  0  0  0  0  0  0  0
   -1.6280   -0.0350   -0.2540 C   0  0  1  0  0  0  0  0  0  0  0  0
   -2.4410   -1.0420    0.2730 O   0  0  0  0  0  0  0  0  0  0  0  0
   -1.6930    1.1700    0.6860 C   0  0  2  0  0  0  0  0  0  0  0  0
   -2.3240    2.2360    0.1240 F   0  0  0  0  0  0  0  0  0  0  0  0
   -0.1670    1.1890    0.5990 C   0  0  2  0  0  0  0  0  0  0  0  0
    0.1910    2.2120   -0.3050 O   0  0  0  0  0  0  0  0  0  0  0  0
  1  2  1  0
  2  3  1  0
  4  3  1  6
  4  5  1  0
  4  7  1  0
  4 11  1  0
  5  6  1  0
  7  8  1  1
  7  9  1  0
  9 10  1  6
  9 11  1  0
 11 12  1  6
M  END
