
     RDKit          3D

 19 21  0  0  0  0  0  0  0  0999 V2000
    6.2120    0.9620    1.0570 O   0  0  0  0  0  0  0  0  0  0  0  0
    5.8430   -0.3720    1.1220 C   0  0  0  0  0  0  0  0  0  0  0  0
    4.4180   -0.5660    0.7130 C   0  0  0  0  0  0  0  0  0  0  0  0
    3.9010   -1.8450    0.7280 C   0  0  0  0  0  0  0  0  0  0  0  0
    2.5870   -2.0510    0.3550 C   0  0  0  0  0  0  0  0  0  0  0  0
    1.7840   -1.0080   -0.0310 C   0  0  0  0  0  0  0  0  0  0  0  0
    0.4880   -0.9050   -0.4400 N   0  0  0  0  0  0  0  0  0  0  0  0
    0.2170    0.4050   -0.7000 C   0  0  0  0  0  0  0  0  0  0  0  0
   -1.1000    0.8530   -1.1620 C   0  0  0  0  0  0  0  0  0  0  0  0
   -1.9950    1.2160   -0.0970 N   0  0  0  0  0  0  0  0  0  0  0  0
   -3.2710    1.6480   -0.5790 C   0  0  0  0  0  0  0  0  0  0  0  0
   -4.4220    1.0150    0.1810 C   0  0  0  0  0  0  0  0  0  0  0  0
   -4.3700   -0.4770    0.1890 C   0  0  1  0  0  0  0  0  0  0  0  0
   -5.1110   -1.0990   -1.3050 Cl  0  0  0  0  0  0  0  0  0  0  0  0
   -2.9550   -0.9930    0.3710 C   0  0  0  0  0  0  0  0  0  0  0  0
   -2.1230    0.1650    0.8680 C   0  0  0  0  0  0  0  0  0  0  0  0
    1.3440    1.0780   -0.4460 N   0  0  0  0  0  0  0  0  0  0  0  0
    2.3290    0.2580   -0.0350 C   0  0  0  0  0  0  0  0  0  0  0  0
    3.6240    0.4500    0.3340 N   0  0  0  0  0  0  0  0  0  0  0  0
  1  2  1  0
  2  3  1  0
  3  4  2  0
  3 19  1  0
  4  5  1  0
  5  6  2  0
  6  7  1  0
  6 18  1  0
  7  8  2  0
  8  9  1  0
  8 17  1  0
  9 10  1  0
 10 11  1  0
 10 16  1  0
 11 12  1  0
 12 13  1  0
 13 14  1  6
 13 15  1  0
 15 16  1  0
 17 18  1  0
 18 19  2  0
M  END
