
     RDKit          3D

 19 21  0  0  0  0  0  0  0  0999 V2000
   -3.2850   -2.9440    0.0440 C   0  0  0  0  0  0  0  0  0  0  0  0
   -2.8430   -2.1320   -1.1640 C   0  0  0  0  0  0  0  0  0  0  0  0
   -1.9050   -1.1100   -0.7290 N   0  0  0  0  0  0  0  0  0  0  0  0
   -0.5780   -1.2800   -0.6790 N   0  0  0  0  0  0  0  0  0  0  0  0
   -0.0010   -0.1660   -0.2380 C   0  0  0  0  0  0  0  0  0  0  0  0
    1.3900    0.0740   -0.0510 N   0  0  0  0  0  0  0  0  0  0  0  0
    2.0670   -0.7290    0.8630 N   0  0  0  0  0  0  0  0  0  0  0  0
    3.2790   -1.0490    0.6220 C   0  0  0  0  0  0  0  0  0  0  0  0
    3.9340   -0.5640   -0.6100 C   0  0  1  0  0  0  0  0  0  0  0  0
    4.4050    0.9130   -0.5860 C   0  0  0  0  0  0  0  0  0  0  0  0
    5.3720   -0.1930   -0.6210 C   0  0  0  0  0  0  0  0  0  0  0  0
   -0.9960    0.7530    0.0040 C   0  0  0  0  0  0  0  0  0  0  0  0
   -0.9280    2.0440    0.4610 C   0  0  0  0  0  0  0  0  0  0  0  0
   -2.0850    2.7930    0.6230 C   0  0  0  0  0  0  0  0  0  0  0  0
   -2.0190    4.0870    1.0810 O   0  0  0  0  0  0  0  0  0  0  0  0
   -3.2660    2.1710    0.3060 C   0  0  0  0  0  0  0  0  0  0  0  0
   -3.3460    0.8650   -0.1570 C   0  0  0  0  0  0  0  0  0  0  0  0
   -4.8970    0.1310   -0.5460 Cl  0  0  0  0  0  0  0  0  0  0  0  0
   -2.1950    0.1390   -0.3120 C   0  0  0  0  0  0  0  0  0  0  0  0
  1  2  1  0
  2  3  1  0
  3  4  1  0
  3 19  1  0
  4  5  2  0
  5  6  1  0
  5 12  1  0
  6  7  1  0
  7  8  2  3
  9  8  1  1
  9 10  1  0
  9 11  1  0
 10 11  1  0
 12 13  2  0
 12 19  1  0
 13 14  1  0
 14 15  1  0
 14 16  2  0
 16 17  1  0
 17 18  1  0
 17 19  2  0
M  END
