
     RDKit          3D

 27 28  0  0  0  0  0  0  0  0999 V2000
   -8.4560    1.0510   -0.1920 C   0  0  0  0  0  0  0  0  0  0  0  0
   -7.2790    0.4570    0.5180 C   0  0  0  0  0  0  0  0  0  0  0  0
   -6.6250   -0.6140   -0.3610 C   0  0  0  0  0  0  0  0  0  0  0  0
   -5.5100   -1.1500    0.3510 N   0  0  0  0  0  0  0  0  0  0  0  0
   -4.3650   -0.5530    0.3820 C   0  0  0  0  0  0  0  0  0  0  0  0
   -4.1740    0.6740   -0.3000 N   0  0  0  0  0  0  0  0  0  0  0  0
   -2.9030    1.2910   -0.2300 C   0  0  0  0  0  0  0  0  0  0  0  0
   -2.6950    2.4080   -0.7890 O   0  0  0  0  0  0  0  0  0  0  0  0
   -1.7270    0.7090    0.4840 C   0  0  0  0  0  0  0  0  0  0  0  0
   -2.0230   -0.5500    1.1770 C   0  0  0  0  0  0  0  0  0  0  0  0
   -1.0060   -1.2140    2.0110 C   0  0  0  0  0  0  0  0  0  0  0  0
    0.2470   -1.6680    1.3800 C   0  0  0  0  0  0  0  0  0  0  0  0
    1.1190   -0.6700    0.8330 N   0  0  0  0  0  0  0  0  0  0  0  0
    1.4100   -1.0250   -0.5460 C   0  0  0  0  0  0  0  0  0  0  0  0
    1.8800    0.1320   -1.3550 C   0  0  0  0  0  0  0  0  0  0  0  0
    3.0230    0.7760   -0.9540 O   0  0  0  0  0  0  0  0  0  0  0  0
    4.3100    0.3450   -0.8440 C   0  0  0  0  0  0  0  0  0  0  0  0
    4.7970   -0.8940   -1.1380 C   0  0  0  0  0  0  0  0  0  0  0  0
    6.1490   -1.2190   -0.9790 C   0  0  0  0  0  0  0  0  0  0  0  0
    7.0430   -0.2890   -0.5160 C   0  0  0  0  0  0  0  0  0  0  0  0
    6.5830    0.9780   -0.2090 C   0  0  0  0  0  0  0  0  0  0  0  0
    7.5310    1.9750    0.2860 C   0  0  0  0  0  0  0  0  0  0  0  0
    8.8900    1.6790    0.4550 N   0  0  0  0  0  0  0  0  0  0  0  0
    7.1100    3.1180    0.5620 O   0  0  0  0  0  0  0  0  0  0  0  0
    5.2520    1.2740   -0.3720 C   0  0  0  0  0  0  0  0  0  0  0  0
   -3.2470   -1.1150    1.1110 C   0  0  0  0  0  0  0  0  0  0  0  0
   -3.5460   -2.6390    1.9540 Cl  0  0  0  0  0  0  0  0  0  0  0  0
  1  2  1  0
  2  3  1  0
  3  4  1  0
  4  5  2  3
  5  6  1  0
  5 26  1  0
  6  7  1  0
  7  8  2  0
  7  9  1  0
  9 10  1  0
 10 11  1  0
 10 26  2  0
 11 12  1  0
 12 13  1  0
 13 14  1  0
 14 15  1  0
 15 16  1  0
 16 17  1  0
 17 18  2  0
 17 25  1  0
 18 19  1  0
 19 20  2  0
 20 21  1  0
 21 22  1  0
 21 25  2  0
 22 23  1  0
 22 24  2  0
 26 27  1  0
M  CHG  1  13   1
M  END
