
     RDKit          3D

 27 28  0  0  0  0  0  0  0  0999 V2000
    4.1690    0.2540    2.4030 C   0  0  0  0  0  0  0  0  0  0  0  0
    4.8380    0.3990    1.2390 C   0  0  0  0  0  0  0  0  0  0  0  0
    5.5190    1.6180    0.9220 C   0  0  0  0  0  0  0  0  0  0  0  0
    6.1830    1.8540   -0.1540 C   0  0  0  0  0  0  0  0  0  0  0  0
    6.3790    0.9690   -1.2390 N   0  0  0  0  0  0  0  0  0  0  0  0
    4.8260   -0.7160    0.3590 N   0  0  0  0  0  0  0  0  0  0  0  0
    3.5750   -1.1210   -0.2410 C   0  0  0  0  0  0  0  0  0  0  0  0
    2.4320   -0.4170    0.0310 C   0  0  0  0  0  0  0  0  0  0  0  0
    1.2170   -0.8230   -0.5650 C   0  0  0  0  0  0  0  0  0  0  0  0
    0.0660   -0.0630   -0.2680 N   0  0  0  0  0  0  0  0  0  0  0  0
   -1.2770   -0.3700   -0.5480 C   0  0  0  0  0  0  0  0  0  0  0  0
   -1.5460   -1.4420   -1.1300 O   0  0  0  0  0  0  0  0  0  0  0  0
   -2.3970    0.5590   -0.1670 C   0  0  2  0  0  0  0  0  0  0  0  0
   -2.3760    0.7460    1.3460 C   0  0  0  0  0  0  0  0  0  0  0  0
   -3.8210    0.9240    1.6400 C   0  0  0  0  0  0  0  0  0  0  0  0
   -4.3470    1.6720    2.5320 O   0  0  0  0  0  0  0  0  0  0  0  0
   -4.5140    0.0870    0.7220 N   0  0  0  0  0  0  0  0  0  0  0  0
   -5.8370   -0.4790    0.9090 C   0  0  0  0  0  0  0  0  0  0  0  0
   -6.9150    0.4360    0.3790 C   0  0  0  0  0  0  0  0  0  0  0  0
   -6.8970    1.6720    1.0230 O   0  0  0  0  0  0  0  0  0  0  0  0
   -7.8710    2.5180    0.5520 C   0  0  0  0  0  0  0  0  0  0  0  0
   -9.4930    1.8540    0.7770 Cl  0  0  0  0  0  0  0  0  0  0  0  0
   -3.6980   -0.1300   -0.4600 C   0  0  0  0  0  0  0  0  0  0  0  0
    1.2260   -1.9090   -1.3950 C   0  0  0  0  0  0  0  0  0  0  0  0
    2.4080   -2.6230   -1.6650 C   0  0  0  0  0  0  0  0  0  0  0  0
    3.5800   -2.2220   -1.0830 C   0  0  0  0  0  0  0  0  0  0  0  0
    4.8390   -2.9510   -1.3470 C   0  0  0  0  0  0  0  0  0  0  0  0
  1  2  2  0
  2  3  1  0
  2  6  1  0
  3  4  2  3
  4  5  1  0
  6  7  1  0
  7  8  2  0
  7 26  1  0
  8  9  1  0
  9 10  1  0
  9 24  2  0
 10 11  1  0
 11 12  2  0
 13 11  1  1
 13 14  1  0
 13 23  1  0
 14 15  1  0
 15 16  2  0
 15 17  1  0
 17 18  1  0
 17 23  1  0
 18 19  1  0
 19 20  1  0
 20 21  1  0
 21 22  1  0
 24 25  1  0
 25 26  2  0
 26 27  1  0
M  CHG  1   5   1
M  END
