
     RDKit          3D

 27 28  0  0  0  0  0  0  0  0999 V2000
    6.0650    2.0600   -1.4450 C   0  0  0  0  0  0  0  0  0  0  0  0
    6.3870    1.1650   -0.5260 C   0  0  0  0  0  0  0  0  0  0  0  0
    7.7290    1.3090    0.0800 C   0  0  0  0  0  0  0  0  0  0  0  0
    8.0360    0.3100    1.1010 C   0  0  0  0  0  0  0  0  0  0  0  0
    7.1730   -0.6240    1.4190 C   0  0  0  0  0  0  0  0  0  0  0  0
    5.8820   -0.7480    0.8130 C   0  0  0  0  0  0  0  0  0  0  0  0
    5.4740    0.1280   -0.1540 C   0  0  0  0  0  0  0  0  0  0  0  0
    4.1770   -0.1050   -0.6780 N   0  0  0  0  0  0  0  0  0  0  0  0
    3.2210    0.7750   -1.2540 C   0  0  0  0  0  0  0  0  0  0  0  0
    1.8450    0.0740   -1.3840 C   0  0  0  0  0  0  0  0  0  0  0  0
    1.3300   -0.3600   -0.0280 C   0  0  0  0  0  0  0  0  0  0  0  0
    0.0300   -1.0230   -0.1720 N   0  0  0  0  0  0  0  0  0  0  0  0
   -0.0690   -2.3500   -0.3600 C   0  0  0  0  0  0  0  0  0  0  0  0
    0.9710   -3.0780   -0.4100 O   0  0  0  0  0  0  0  0  0  0  0  0
   -1.2440   -2.9840   -0.5040 N   0  0  0  0  0  0  0  0  0  0  0  0
   -2.3690   -2.2480   -0.4560 C   0  0  0  0  0  0  0  0  0  0  0  0
   -3.4870   -2.8010   -0.5860 O   0  0  0  0  0  0  0  0  0  0  0  0
   -2.3170   -0.9260   -0.2720 N   0  0  0  0  0  0  0  0  0  0  0  0
   -3.5790   -0.1490   -0.2310 C   0  0  0  0  0  0  0  0  0  0  0  0
   -4.0850   -0.0970    1.1540 C   0  0  0  0  0  0  0  0  0  0  0  0
   -5.2500    0.6880    1.5090 C   0  0  0  0  0  0  0  0  0  0  0  0
   -6.5480    0.4590    0.8720 C   0  0  0  0  0  0  0  0  0  0  0  0
   -6.6510    0.7970   -0.5730 C   0  0  0  0  0  0  0  0  0  0  0  0
   -8.1070    0.4710   -0.9750 C   0  0  0  0  0  0  0  0  0  0  0  0
   -9.1510    1.4730    0.0300 Cl  0  0  0  0  0  0  0  0  0  0  0  0
   -1.1250   -0.3210   -0.1310 C   0  0  0  0  0  0  0  0  0  0  0  0
   -1.0860    0.9300    0.0430 O   0  0  0  0  0  0  0  0  0  0  0  0
  1  2  2  0
  2  3  1  0
  2  7  1  0
  3  4  1  0
  4  5  2  0
  5  6  1  0
  6  7  2  0
  7  8  1  0
  8  9  1  0
  9 10  1  0
 10 11  1  0
 11 12  1  0
 12 13  1  0
 12 26  1  0
 13 14  2  0
 13 15  1  0
 15 16  1  0
 16 17  2  0
 16 18  1  0
 18 19  1  0
 18 26  1  0
 19 20  1  0
 20 21  1  0
 21 22  1  0
 22 23  1  0
 23 24  1  0
 24 25  1  0
 26 27  2  0
M  END
