
     RDKit          3D

 27 27  0  0  0  0  0  0  0  0999 V2000
   -4.8400   -2.1410   -0.8650 C   0  0  0  0  0  0  0  0  0  0  0  0
   -3.6170   -1.6940   -0.5370 O   0  0  0  0  0  0  0  0  0  0  0  0
   -3.0110   -0.5770   -0.2180 C   0  0  0  0  0  0  0  0  0  0  0  0
   -3.5230    0.5410    0.1990 C   0  0  0  0  0  0  0  0  0  0  0  0
   -4.9260    0.8210    0.4070 C   0  0  0  0  0  0  0  0  0  0  0  0
   -5.8900    0.7790   -0.5740 C   0  0  0  0  0  0  0  0  0  0  0  0
   -7.2170    1.0300   -0.3120 C   0  0  0  0  0  0  0  0  0  0  0  0
   -7.6340    1.3420    0.9750 C   0  0  0  0  0  0  0  0  0  0  0  0
   -9.0680    1.6110    1.2450 C   0  0  0  0  0  0  0  0  0  0  0  0
   -6.6990    1.3960    1.9890 C   0  0  0  0  0  0  0  0  0  0  0  0
   -5.3910    1.1400    1.6930 C   0  0  0  0  0  0  0  0  0  0  0  0
   -1.5170   -0.5110   -0.3250 N   0  0  0  0  0  0  0  0  0  0  0  0
   -0.9930    0.4830   -0.9300 C   0  0  0  0  0  0  0  0  0  0  0  0
    0.4310    0.6550   -1.0970 C   0  0  0  0  0  0  0  0  0  0  0  0
    0.9050    1.6390   -1.6940 O   0  0  0  0  0  0  0  0  0  0  0  0
    1.3900   -0.2930   -0.5860 N   0  0  0  0  0  0  0  0  0  0  0  0
    2.7890   -0.0880   -0.7710 C   0  0  0  0  0  0  0  0  0  0  0  0
    3.4540   -0.9560   -1.4850 C   0  0  0  0  0  0  0  0  0  0  0  0
    2.9540   -2.1590   -2.1580 C   0  0  0  0  0  0  0  0  0  0  0  0
    1.2570   -2.4980   -2.0310 Cl  0  0  0  0  0  0  0  0  0  0  0  0
    3.4850    1.0630   -0.1650 C   0  0  0  0  0  0  0  0  0  0  0  0
    4.9380    1.1450   -0.3260 C   0  0  0  0  0  0  0  0  0  0  0  0
    5.7020    0.0710    0.2350 N   0  0  0  0  0  0  0  0  0  0  0  0
    7.1130   -0.0170    0.1760 C   0  0  0  0  0  0  0  0  0  0  0  0
    7.7140    0.9160   -0.4090 O   0  0  0  0  0  0  0  0  0  0  0  0
    7.9010   -1.1250    0.7550 C   0  0  0  0  0  0  0  0  0  0  0  0
    9.3020   -0.8700    0.5000 N   0  0  0  0  0  0  0  0  0  0  0  0
  1  2  1  0
  2  3  1  0
  3  4  2  3
  3 12  1  0
  4  5  1  0
  5  6  2  0
  5 11  1  0
  6  7  1  0
  7  8  2  0
  8  9  1  0
  8 10  1  0
 10 11  2  0
 12 13  2  3
 13 14  1  0
 14 15  2  0
 14 16  1  0
 16 17  1  0
 17 18  2  3
 17 21  1  0
 18 19  1  0
 19 20  1  0
 21 22  1  0
 22 23  1  0
 23 24  1  0
 24 25  2  0
 24 26  1  0
 26 27  1  0
M  CHG  1  27   1
M  END
