
     RDKit          3D

 27 28  0  0  0  0  0  0  0  0999 V2000
   -4.6590    3.8090   -2.3520 C   0  0  0  0  0  0  0  0  0  0  0  0
   -5.0840    2.3660   -2.3910 C   0  0  0  0  0  0  0  0  0  0  0  0
   -4.1880    1.3570   -2.7260 N   0  0  0  0  0  0  0  0  0  0  0  0
   -3.0370    1.1150   -1.9280 C   0  0  0  0  0  0  0  0  0  0  0  0
   -2.9410   -0.2510   -1.3370 C   0  0  0  0  0  0  0  0  0  0  0  0
   -4.0420   -1.0620   -1.3490 C   0  0  0  0  0  0  0  0  0  0  0  0
   -3.9410   -2.2790   -0.6620 C   0  0  0  0  0  0  0  0  0  0  0  0
   -5.3130   -3.3610   -0.6050 Cl  0  0  0  0  0  0  0  0  0  0  0  0
   -2.7820   -2.6450   -0.0110 C   0  0  0  0  0  0  0  0  0  0  0  0
   -2.7280   -3.9270    0.7870 C   0  0  0  0  0  0  0  0  0  0  0  0
   -1.4450   -4.0660    1.3270 O   0  0  0  0  0  0  0  0  0  0  0  0
   -1.6880   -1.7950   -0.0360 C   0  0  0  0  0  0  0  0  0  0  0  0
   -1.7460   -0.5720   -0.6990 C   0  0  0  0  0  0  0  0  0  0  0  0
   -0.6120    0.3220   -0.7120 C   0  0  0  0  0  0  0  0  0  0  0  0
   -0.5110    1.2780    0.4650 C   0  0  0  0  0  0  0  0  0  0  0  0
   -0.2920    0.4120    1.6950 C   0  0  0  0  0  0  0  0  0  0  0  0
   -1.2210   -0.1080    2.2650 O   0  0  0  0  0  0  0  0  0  0  0  0
    1.0680    0.2470    2.1460 N   0  0  0  0  0  0  0  0  0  0  0  0
    1.5250   -0.5140    3.2680 C   0  0  0  0  0  0  0  0  0  0  0  0
    2.9670   -0.9000    2.9260 C   0  0  0  0  0  0  0  0  0  0  0  0
    3.1910   -0.3920    1.5670 C   0  0  2  0  0  0  0  0  0  0  0  0
    4.5080    0.1110    1.2620 N   0  0  0  0  0  0  0  0  0  0  0  0
    5.0370    0.0440   -0.0200 C   0  0  0  0  0  0  0  0  0  0  0  0
    4.2550   -0.4850   -0.9100 O   0  0  0  0  0  0  0  0  0  0  0  0
    6.3050    0.4890   -0.4700 N   0  0  0  0  0  0  0  0  0  0  0  0
    7.2280   -0.5660   -0.7110 C   0  0  0  0  0  0  0  0  0  0  0  0
    2.2160    0.8200    1.4780 C   0  0  0  0  0  0  0  0  0  0  0  0
  1  2  1  0
  2  3  1  0
  3  4  1  0
  4  5  1  0
  5  6  2  0
  5 13  1  0
  6  7  1  0
  7  8  1  0
  7  9  2  0
  9 10  1  0
  9 12  1  0
 10 11  1  0
 12 13  2  0
 13 14  1  0
 14 15  1  0
 15 16  1  0
 16 17  2  0
 16 18  1  0
 18 19  1  0
 18 27  1  0
 19 20  1  0
 20 21  1  0
 21 22  1  1
 21 27  1  0
 22 23  1  0
 23 24  2  0
 23 25  1  0
 25 26  1  0
M  CHG  1  25   1
M  END
