
     RDKit          3D

 21 22  0  0  0  0  0  0  0  0999 V2000
   -3.9030   -2.3500   -0.1420 C   0  0  0  0  0  0  0  0  0  0  0  0
   -3.7390   -1.0500   -0.8700 C   0  0  0  0  0  0  0  0  0  0  0  0
   -3.0790   -0.0470   -0.0350 N   0  0  2  0  0  0  0  0  0  0  0  0
   -3.7740    1.2040   -0.1840 C   0  0  0  0  0  0  0  0  0  0  0  0
   -4.3340    1.6740    1.1480 C   0  0  0  0  0  0  0  0  0  0  0  0
   -1.7190   -0.0040   -0.4730 C   0  0  1  0  0  0  0  0  0  0  0  0
   -1.0040    1.2570   -0.1340 C   0  0  0  0  0  0  0  0  0  0  0  0
    0.3400    1.0830    0.4370 C   0  0  0  0  0  0  0  0  0  0  0  0
    1.1090   -0.0690   -0.0560 N   0  0  2  0  0  0  0  0  0  0  0  0
    2.2050    0.4630   -0.8370 C   0  0  0  0  0  0  0  0  0  0  0  0
    3.5080    0.0620   -0.3050 C   0  0  0  0  0  0  0  0  0  0  0  0
    3.9960   -1.2150   -0.2880 C   0  0  0  0  0  0  0  0  0  0  0  0
    5.3400   -1.5120    0.0220 C   0  0  0  0  0  0  0  0  0  0  0  0
    6.1000   -3.4810    0.0410 I   0  0  0  0  0  0  0  0  0  0  0  0
    6.2130   -0.5080    0.3250 C   0  0  0  0  0  0  0  0  0  0  0  0
    5.7050    0.8140    0.3140 C   0  0  0  0  0  0  0  0  0  0  0  0
    7.0130    2.3740    0.8240 I   0  0  0  0  0  0  0  0  0  0  0  0
    4.4230    1.1140    0.0200 C   0  0  0  0  0  0  0  0  0  0  0  0
    3.8260    2.3680   -0.0160 O   0  0  0  0  0  0  0  0  0  0  0  0
    0.4130   -1.1020   -0.6470 C   0  0  0  0  0  0  0  0  0  0  0  0
   -0.9570   -1.1750    0.0800 C   0  0  0  0  0  0  0  0  0  0  0  0
  1  2  1  0
  3  2  1  6
  3  4  1  0
  3  6  1  0
  4  5  1  0
  6  7  1  1
  6 21  1  0
  7  8  1  0
  8  9  1  0
  9 10  1  6
  9 20  1  0
 10 11  1  0
 11 12  2  0
 11 18  1  0
 12 13  1  0
 13 14  1  0
 13 15  2  0
 15 16  1  0
 16 17  1  0
 16 18  2  0
 18 19  1  0
 20 21  1  0
M  CHG  2   3   1   9   1
M  END
