
     RDKit          3D

 27 28  0  0  0  0  0  0  0  0999 V2000
   -4.8610   -2.6680   -1.9640 C   0  0  0  0  0  0  0  0  0  0  0  0
   -4.7790   -1.4640   -1.2900 O   0  0  0  0  0  0  0  0  0  0  0  0
   -5.7670   -0.5870   -0.9320 C   0  0  0  0  0  0  0  0  0  0  0  0
   -7.0950   -0.8100   -1.2240 C   0  0  0  0  0  0  0  0  0  0  0  0
   -8.1140    0.0490   -0.8800 C   0  0  0  0  0  0  0  0  0  0  0  0
   -7.7500    1.1890   -0.2060 C   0  0  0  0  0  0  0  0  0  0  0  0
   -6.4010    1.4380    0.1030 C   0  0  0  0  0  0  0  0  0  0  0  0
   -5.3930    0.5830   -0.2400 C   0  0  0  0  0  0  0  0  0  0  0  0
   -4.0140    0.7540    0.0280 N   0  0  0  0  0  0  0  0  0  0  0  0
   -3.3860    1.8130    0.7000 C   0  0  0  0  0  0  0  0  0  0  0  0
   -4.1290    2.7540    1.1410 O   0  0  0  0  0  0  0  0  0  0  0  0
   -1.9830    1.8860    0.9110 N   0  0  0  0  0  0  0  0  0  0  0  0
   -1.4790    3.0440    1.6640 C   0  0  0  0  0  0  0  0  0  0  0  0
   -1.1280    0.8800    0.3890 C   0  0  0  0  0  0  0  0  0  0  0  0
   -0.9180   -0.2910    1.2970 C   0  0  0  0  0  0  0  0  0  0  0  0
   -0.0820   -1.2480    0.7520 O   0  0  0  0  0  0  0  0  0  0  0  0
    1.1850   -0.8240    0.4500 C   0  0  0  0  0  0  0  0  0  0  0  0
    1.9280   -0.2980    1.6760 C   0  0  0  0  0  0  0  0  0  0  0  0
    3.3160    0.1420    1.2630 C   0  0  0  0  0  0  0  0  0  0  0  0
    4.0320   -0.9940    0.7050 N   0  0  0  0  0  0  0  0  0  0  0  0
    5.3760   -0.6270    0.3010 C   0  0  2  0  0  0  0  0  0  0  0  0
    5.3170    0.4140   -0.7950 C   0  0  0  0  0  0  0  0  0  0  0  0
    6.6140    0.4850   -1.5690 C   0  0  0  0  0  0  0  0  0  0  0  0
    7.6420   -0.3660   -1.0540 N   0  0  0  0  0  0  0  0  0  0  0  0
    7.1980   -1.7110   -0.8470 C   0  0  0  0  0  0  0  0  0  0  0  0
    6.0640   -1.8610   -0.1690 C   0  0  0  0  0  0  0  0  0  0  0  0
    5.4370   -3.4600    0.1380 Cl  0  0  0  0  0  0  0  0  0  0  0  0
  1  2  1  0
  2  3  1  0
  3  4  2  0
  3  8  1  0
  4  5  1  0
  5  6  2  0
  6  7  1  0
  7  8  2  0
  8  9  1  0
  9 10  1  0
 10 11  2  0
 10 12  1  0
 12 13  1  0
 12 14  1  0
 14 15  1  0
 15 16  1  0
 16 17  1  0
 17 18  1  0
 18 19  1  0
 19 20  1  0
 21 20  1  6
 21 22  1  0
 21 26  1  0
 22 23  1  0
 23 24  1  0
 24 25  1  0
 25 26  2  0
 26 27  1  0
M  CHG  1  24   1
M  END
