
     RDKit          3D

 27 27  0  0  0  0  0  0  0  0999 V2000
    6.8260    0.0990   -0.6070 C   0  0  0  0  0  0  0  0  0  0  0  0
    6.5330   -1.0810   -0.1210 C   0  0  0  0  0  0  0  0  0  0  0  0
    5.1780   -1.4000    0.3360 C   0  0  0  0  0  0  0  0  0  0  0  0
    4.8820   -2.5740    0.8220 C   0  0  0  0  0  0  0  0  0  0  0  0
    3.5100   -2.8780    1.2780 C   0  0  0  0  0  0  0  0  0  0  0  0
    4.2140   -0.3720    0.2210 N   0  0  0  0  0  0  0  0  0  0  0  0
    3.3550   -0.3540   -0.9270 C   0  0  0  0  0  0  0  0  0  0  0  0
    4.1690   -0.6490   -2.4590 Cl  0  0  0  0  0  0  0  0  0  0  0  0
    2.0640   -0.1490   -0.7810 C   0  0  0  0  0  0  0  0  0  0  0  0
    1.5070    0.0570    0.5530 C   0  0  0  0  0  0  0  0  0  0  0  0
    2.1850    0.0380    1.5720 O   0  0  0  0  0  0  0  0  0  0  0  0
    1.1840   -0.0840   -1.9590 C   0  0  1  0  0  0  0  0  0  0  0  0
    1.8270   -0.0110   -3.3020 C   0  0  0  0  0  0  0  0  0  0  0  0
    0.1910   -1.1860   -1.9740 C   0  0  0  0  0  0  0  0  0  0  0  0
   -0.7790   -1.2730   -0.9430 N   0  0  0  0  0  0  0  0  0  0  0  0
   -1.7780   -0.2590   -0.7460 C   0  0  0  0  0  0  0  0  0  0  0  0
   -1.7350    0.6890   -1.5310 O   0  0  0  0  0  0  0  0  0  0  0  0
   -2.7380   -0.3270    0.2620 N   0  0  0  0  0  0  0  0  0  0  0  0
   -3.7680    0.6710    0.4940 C   0  0  0  0  0  0  0  0  0  0  0  0
   -4.5670    0.4490    1.4690 C   0  0  0  0  0  0  0  0  0  0  0  0
   -4.3200   -0.8280    2.2830 C   0  0  0  0  0  0  0  0  0  0  0  0
   -5.7910    1.1280    1.8010 C   0  0  0  0  0  0  0  0  0  0  0  0
   -6.4410    2.1610    1.0920 N   0  0  0  0  0  0  0  0  0  0  0  0
   -6.3930    0.7540    2.8990 O   0  0  0  0  0  0  0  0  0  0  0  0
   -3.6180    1.8800   -0.2930 C   0  0  2  0  0  0  0  0  0  0  0  0
   -2.6190    2.8870   -0.0540 C   0  0  0  0  0  0  0  0  0  0  0  0
   -4.1400    3.2110   -0.0500 C   0  0  0  0  0  0  0  0  0  0  0  0
  1  2  2  0
  2  3  1  0
  3  4  2  3
  3  6  1  0
  4  5  1  0
  6  7  1  0
  7  8  1  0
  7  9  2  3
  9 10  1  0
  9 12  1  0
 10 11  2  0
 12 13  1  6
 12 14  1  0
 14 15  1  0
 15 16  1  0
 16 17  2  0
 16 18  1  0
 18 19  1  0
 19 20  2  3
 25 19  1  1
 20 21  1  0
 20 22  1  0
 22 23  1  0
 22 24  2  0
 25 26  1  0
 25 27  1  0
 26 27  1  0
M  END
