
     RDKit          3D

 27 27  0  0  0  0  0  0  0  0999 V2000
    4.0690    2.8660    0.7020 C   0  0  0  0  0  0  0  0  0  0  0  0
    2.7900    2.9400    0.1810 O   0  0  0  0  0  0  0  0  0  0  0  0
    2.7600    2.7020   -1.1720 C   0  0  0  0  0  0  0  0  0  0  0  0
    3.1120    1.3000   -1.4720 C   0  0  0  0  0  0  0  0  0  0  0  0
    3.3720    0.9520   -2.6770 O   0  0  0  0  0  0  0  0  0  0  0  0
    3.1800    0.2800   -0.4920 N   0  0  0  0  0  0  0  0  0  0  0  0
    3.5270   -0.9990   -0.8650 N   0  0  0  0  0  0  0  0  0  0  0  0
    3.0240   -2.0660   -0.4090 C   0  0  0  0  0  0  0  0  0  0  0  0
    1.9620   -2.0580    0.6170 C   0  0  0  0  0  0  0  0  0  0  0  0
    0.7020   -2.7410    0.1250 C   0  0  0  0  0  0  0  0  0  0  0  0
   -0.3870   -2.7310    1.1810 C   0  0  2  0  0  0  0  0  0  0  0  0
   -1.5810   -3.4700    0.5860 C   0  0  0  0  0  0  0  0  0  0  0  0
   -0.7580   -1.4250    1.6300 N   0  0  0  0  0  0  0  0  0  0  0  0
   -1.4600   -0.4460    0.8540 C   0  0  0  0  0  0  0  0  0  0  0  0
   -2.7680   -0.4120    1.0550 C   0  0  0  0  0  0  0  0  0  0  0  0
   -3.5400   -1.5110    2.2050 Cl  0  0  0  0  0  0  0  0  0  0  0  0
   -3.5590    0.5670    0.2780 C   0  0  1  0  0  0  0  0  0  0  0  0
   -3.8150    0.1250   -1.1430 C   0  0  0  0  0  0  0  0  0  0  0  0
   -4.9130    0.6640    0.9540 C   0  0  0  0  0  0  0  0  0  0  0  0
   -2.8440    1.8950    0.3670 C   0  0  0  0  0  0  0  0  0  0  0  0
   -1.4420    1.8310   -0.1600 C   0  0  2  0  0  0  0  0  0  0  0  0
   -0.6010    2.8810    0.5290 C   0  0  0  0  0  0  0  0  0  0  0  0
   -1.5060    2.2170   -1.6260 C   0  0  0  0  0  0  0  0  0  0  0  0
   -0.8280    0.4630   -0.0870 C   0  0  0  0  0  0  0  0  0  0  0  0
    3.5400   -3.3330   -0.9350 C   0  0  0  0  0  0  0  0  0  0  0  0
    4.5670   -3.3740   -1.9240 N   0  0  0  0  0  0  0  0  0  0  0  0
    3.1000   -4.4300   -0.5360 O   0  0  0  0  0  0  0  0  0  0  0  0
  1  2  1  0
  2  3  1  0
  3  4  1  0
  4  5  2  0
  4  6  1  0
  6  7  1  0
  7  8  2  3
  8  9  1  0
  8 25  1  0
  9 10  1  0
 10 11  1  0
 11 12  1  6
 11 13  1  0
 13 14  1  0
 14 15  2  0
 14 24  1  0
 15 16  1  0
 15 17  1  0
 17 18  1  6
 17 19  1  0
 17 20  1  0
 20 21  1  0
 21 22  1  1
 21 23  1  0
 21 24  1  0
 25 26  1  0
 25 27  2  0
M  END
