
     RDKit          3D

 14 15  0  0  0  0  0  0  0  0999 V2000
    4.1600   -0.0560    1.2280 C   0  0  0  0  0  0  0  0  0  0  0  0
    2.9880    0.4640    0.5340 N   0  0  0  0  0  0  0  0  0  0  0  0
    3.0220    1.6850    0.0500 N   0  0  0  0  0  0  0  0  0  0  0  0
    1.9730    2.2040   -0.5930 N   0  0  0  0  0  0  0  0  0  0  0  0
    0.8740    1.4780   -0.7480 N   0  0  0  0  0  0  0  0  0  0  0  0
    0.7830    0.2250   -0.2740 C   0  0  0  0  0  0  0  0  0  0  0  0
   -0.3770   -0.5720   -0.4260 N   0  0  0  0  0  0  0  0  0  0  0  0
   -1.5450   -0.0820   -1.1050 C   0  0  2  0  0  0  0  0  0  0  0  0
   -2.0520    1.1200   -0.4090 C   0  0  0  0  0  0  0  0  0  0  0  0
   -3.2470    0.9730   -0.0190 N   0  0  0  0  0  0  0  0  0  0  0  0
   -3.7680   -0.3170   -0.3630 C   0  0  0  0  0  0  0  0  0  0  0  0
   -2.6670   -1.0670   -1.0660 C   0  0  0  0  0  0  0  0  0  0  0  0
    1.8910   -0.2900    0.3910 C   0  0  0  0  0  0  0  0  0  0  0  0
    1.9010   -1.4440    0.8660 O   0  0  0  0  0  0  0  0  0  0  0  0
  1  2  1  0
  2  3  1  0
  2 13  1  0
  3  4  2  0
  4  5  1  0
  5  6  2  0
  6  7  1  0
  6 13  1  0
  8  7  1  1
  8  9  1  0
  8 12  1  0
  9 10  2  0
 10 11  1  0
 11 12  1  0
 13 14  2  0
M  END
