
     RDKit          3D

 14 15  0  0  0  0  0  0  0  0999 V2000
   -1.5740   -0.8300    2.8500 C   0  0  0  0  0  0  0  0  0  0  0  0
   -0.9470   -1.7370    1.8160 C   0  0  0  0  0  0  0  0  0  0  0  0
   -0.6400   -1.0100    0.5950 N   0  0  0  0  0  0  0  0  0  0  0  0
   -1.4850   -0.8730   -0.4330 N   0  0  0  0  0  0  0  0  0  0  0  0
   -0.9190   -0.1510   -1.4120 C   0  0  0  0  0  0  0  0  0  0  0  0
   -0.9990    0.4090   -2.6300 N   0  0  0  0  0  0  0  0  0  0  0  0
    0.1390    1.0280   -2.8920 N   0  0  0  0  0  0  0  0  0  0  0  0
    0.9870    0.9110   -1.8980 N   0  0  0  0  0  0  0  0  0  0  0  0
    2.3270    1.4570   -1.8300 C   0  0  0  0  0  0  0  0  0  0  0  0
    2.1920    2.8040   -1.2290 C   0  0  0  0  0  0  0  0  0  0  0  0
    2.0970    3.8520   -0.7430 N   0  0  0  0  0  0  0  0  0  0  0  0
    0.3600    0.1780   -0.9520 C   0  0  0  0  0  0  0  0  0  0  0  0
    0.4930   -0.3760    0.3020 C   0  0  0  0  0  0  0  0  0  0  0  0
    1.5140   -0.2860    1.0230 O   0  0  0  0  0  0  0  0  0  0  0  0
  1  2  1  0
  2  3  1  0
  3  4  1  0
  3 13  1  0
  4  5  1  0
  5  6  1  0
  5 12  2  0
  6  7  2  0
  7  8  1  0
  8  9  1  0
  8 12  1  0
  9 10  1  0
 10 11  3  0
 12 13  1  0
 13 14  2  0
M  END
