
     RDKit          3D

 14 15  0  0  0  0  0  0  0  0999 V2000
   -3.3900   -1.2830    0.3430 C   0  0  0  0  0  0  0  0  0  0  0  0
   -2.2420   -0.3580    0.2310 C   0  0  0  0  0  0  0  0  0  0  0  0
   -2.4550    0.9460    0.4260 N   0  0  0  0  0  0  0  0  0  0  0  0
   -1.4740    1.7970    0.3370 N   0  0  0  0  0  0  0  0  0  0  0  0
   -0.2290    1.4080    0.0520 C   0  0  0  0  0  0  0  0  0  0  0  0
    0.8410    2.4210   -0.0340 C   0  0  0  0  0  0  0  0  0  0  0  0
    0.0170    0.1080   -0.1480 N   0  0  0  0  0  0  0  0  0  0  0  0
    1.3540   -0.3190   -0.4550 C   0  0  0  0  0  0  0  0  0  0  0  0
    1.9430   -0.2840   -1.6580 N   0  0  0  0  0  0  0  0  0  0  0  0
    3.1730   -0.7550   -1.5730 N   0  0  0  0  0  0  0  0  0  0  0  0
    3.3630   -1.0940   -0.2890 C   0  0  0  0  0  0  0  0  0  0  0  0
    2.2510   -0.8290    0.4010 N   0  0  0  0  0  0  0  0  0  0  0  0
   -0.9830   -0.8050   -0.0630 C   0  0  0  0  0  0  0  0  0  0  0  0
   -0.7290   -2.0350   -0.2570 O   0  0  0  0  0  0  0  0  0  0  0  0
  1  2  1  0
  2  3  2  0
  2 13  1  0
  3  4  1  0
  4  5  2  0
  5  6  1  0
  5  7  1  0
  7  8  1  0
  7 13  1  0
  8  9  2  0
  8 12  1  0
  9 10  1  0
 10 11  2  0
 11 12  1  0
 13 14  2  0
M  END
