
     RDKit          3D

 14 15  0  0  0  0  0  0  0  0999 V2000
    3.2720    1.0970    0.0490 C   0  0  0  0  0  0  0  0  0  0  0  0
    2.5030    0.1490   -0.8590 C   0  0  0  0  0  0  0  0  0  0  0  0
    1.7760   -0.8780   -0.0810 C   0  0  0  0  0  0  0  0  0  0  0  0
    2.2630   -2.0660    0.2740 N   0  0  0  0  0  0  0  0  0  0  0  0
    1.3640   -2.7470    0.9620 N   0  0  0  0  0  0  0  0  0  0  0  0
    0.2850   -1.9430    1.0300 C   0  0  0  0  0  0  0  0  0  0  0  0
   -0.7980   -2.2080    1.6000 O   0  0  0  0  0  0  0  0  0  0  0  0
    0.5330   -0.7760    0.3830 N   0  0  0  0  0  0  0  0  0  0  0  0
   -0.3700    0.2840    0.2600 N   0  0  0  0  0  0  0  0  0  0  0  0
   -1.6170    0.0850   -0.0180 C   0  0  0  0  0  0  0  0  0  0  0  0
   -2.4230   -1.0610   -0.2630 N   0  0  0  0  0  0  0  0  0  0  0  0
   -3.5310   -0.4280   -0.4570 C   0  0  0  0  0  0  0  0  0  0  0  0
   -2.8060    0.7920   -0.2240 N   0  0  0  0  0  0  0  0  0  0  0  0
   -3.1510    2.1920   -0.2070 C   0  0  0  0  0  0  0  0  0  0  0  0
  1  2  1  0
  2  3  1  0
  3  4  2  0
  3  8  1  0
  4  5  1  0
  5  6  1  0
  6  7  2  0
  6  8  1  0
  8  9  1  0
  9 10  2  3
 10 11  1  0
 10 13  1  0
 11 12  2  0
 12 13  1  0
 13 14  1  0
M  END
