
     RDKit          3D

 13 14  0  0  0  0  0  0  0  0999 V2000
   -4.2010   -0.6550   -0.4590 C   0  0  0  0  0  0  0  0  0  0  0  0
   -3.0990    0.2640   -0.0280 C   0  0  0  0  0  0  0  0  0  0  0  0
   -1.9020    0.0860   -0.5230 C   0  0  0  0  0  0  0  0  0  0  0  0
   -0.7940    0.9930   -0.1050 C   0  0  2  0  0  0  0  0  0  0  0  0
    0.2300    0.9320   -1.1200 N   0  0  0  0  0  0  0  0  0  0  0  0
    1.3260    0.4790   -0.6090 C   0  0  0  0  0  0  0  0  0  0  0  0
    2.6390    0.1980   -1.0750 N   0  0  0  0  0  0  0  0  0  0  0  0
    3.5680   -0.2670   -0.3020 C   0  0  0  0  0  0  0  0  0  0  0  0
    4.8760   -0.5380   -0.8030 N   0  0  0  0  0  0  0  0  0  0  0  0
    3.2400   -0.4970    1.0550 N   0  0  0  0  0  0  0  0  0  0  0  0
    2.0850   -0.2710    1.5500 N   0  0  0  0  0  0  0  0  0  0  0  0
    1.0630    0.2250    0.7660 N   0  0  0  0  0  0  0  0  0  0  0  0
   -0.2120    0.5330    1.0750 O   0  0  0  0  0  0  0  0  0  0  0  0
  1  2  1  0
  2  3  2  3
  4  3  1  6
  4  5  1  0
  4 13  1  0
  5  6  2  0
  6  7  1  0
  6 12  1  0
  7  8  2  0
  8  9  1  0
  8 10  1  0
 10 11  2  0
 11 12  1  0
 12 13  1  0
M  END
