
     RDKit          3D

 14 15  0  0  0  0  0  0  0  0999 V2000
   -2.7040    1.8260    1.2730 C   0  0  0  0  0  0  0  0  0  0  0  0
   -2.3380    1.4130   -0.0760 N   0  0  0  0  0  0  0  0  0  0  0  0
   -2.9990    1.7560   -1.1860 N   0  0  0  0  0  0  0  0  0  0  0  0
   -2.3920    1.2070   -2.2340 N   0  0  0  0  0  0  0  0  0  0  0  0
   -1.3580    0.5280   -1.7540 N   0  0  0  0  0  0  0  0  0  0  0  0
   -1.3060    0.6430   -0.4180 C   0  0  0  0  0  0  0  0  0  0  0  0
   -0.3610    0.0750    0.4750 N   0  0  0  0  0  0  0  0  0  0  0  0
    0.6990   -0.7390   -0.0760 C   0  0  2  0  0  0  0  0  0  0  0  0
    0.1400   -1.8870   -0.7910 C   0  0  0  0  0  0  0  0  0  0  0  0
   -0.2760   -2.7880   -1.3480 N   0  0  0  0  0  0  0  0  0  0  0  0
    1.6950   -1.1590    0.9860 C   0  0  0  0  0  0  0  0  0  0  0  0
    2.9190   -1.3690    0.1200 C   0  0  0  0  0  0  0  0  0  0  0  0
    2.8780   -0.3780   -0.8240 O   0  0  0  0  0  0  0  0  0  0  0  0
    1.5820    0.0120   -1.0230 C   0  0  0  0  0  0  0  0  0  0  0  0
  1  2  1  0
  2  3  1  0
  2  6  1  0
  3  4  2  0
  4  5  1  0
  5  6  2  0
  6  7  1  0
  7  8  1  0
  8  9  1  6
  8 11  1  0
  8 14  1  0
  9 10  3  0
 11 12  1  0
 12 13  1  0
 13 14  1  0
M  END
