
     RDKit          3D

 31 33  0  0  0  0  0  0  0  0999 V2000
    3.0110   -0.3210    2.3580 O   0  0  0  0  0  0  0  0  0  0  0  0
    2.1540   -0.0080    1.4930 C   0  0  0  0  0  0  0  0  0  0  0  0
    1.1000    0.9710    1.8530 C   0  0  0  0  0  0  0  0  0  0  0  0
    0.1560    1.1140    0.8150 O   0  0  0  0  0  0  0  0  0  0  0  0
   -0.6630    0.0460    0.3810 C   0  0  0  0  0  0  0  0  0  0  0  0
   -0.4860   -1.0350    1.0070 O   0  0  0  0  0  0  0  0  0  0  0  0
   -1.5890    0.2790   -0.7020 C   0  0  0  0  0  0  0  0  0  0  0  0
   -3.0430    0.5270   -0.3610 C   0  0  1  0  0  0  0  0  0  0  0  0
   -3.6540    0.7440   -1.5880 O   0  0  0  0  0  0  0  0  0  0  0  0
   -4.9510    0.5000   -1.7370 C   0  0  2  0  0  0  0  0  0  0  0  0
   -5.8000    1.6450   -2.2380 C   0  0  0  0  0  0  0  0  0  0  0  0
   -7.1560    1.2570   -1.6660 C   0  0  0  0  0  0  0  0  0  0  0  0
   -6.9590    0.0770   -0.9140 O   0  0  0  0  0  0  0  0  0  0  0  0
   -5.6790    0.2670   -0.4030 C   0  0  1  0  0  0  0  0  0  0  0  0
   -5.0480   -0.9460    0.1520 C   0  0  0  0  0  0  0  0  0  0  0  0
   -3.5790   -0.6030    0.4210 C   0  0  1  0  0  0  0  0  0  0  0  0
   -2.8180   -1.7810    0.3290 O   0  0  0  0  0  0  0  0  0  0  0  0
   -3.5740   -0.2110    1.9030 C   0  0  0  0  0  0  0  0  0  0  0  0
   -4.3280    0.9680    2.0950 O   0  0  0  0  0  0  0  0  0  0  0  0
    2.2310   -0.6080    0.1950 N   0  0  0  0  0  0  0  0  0  0  0  0
    3.2500   -1.5630   -0.1600 C   0  0  0  0  0  0  0  0  0  0  0  0
    4.6130   -1.0140   -0.1970 C   0  0  0  0  0  0  0  0  0  0  0  0
    4.8510    0.3220    0.0220 C   0  0  0  0  0  0  0  0  0  0  0  0
    6.1350    0.8420   -0.0490 C   0  0  0  0  0  0  0  0  0  0  0  0
    6.3390    2.2020    0.1780 O   0  0  0  0  0  0  0  0  0  0  0  0
    7.1600   -0.0190   -0.3440 C   0  0  0  0  0  0  0  0  0  0  0  0
    8.5480    0.5290   -0.4290 C   0  0  0  0  0  0  0  0  0  0  0  0
    9.2410    0.8650    1.1620 Cl  0  0  0  0  0  0  0  0  0  0  0  0
    6.9420   -1.3610   -0.5660 C   0  0  0  0  0  0  0  0  0  0  0  0
    5.6750   -1.8490   -0.4920 C   0  0  0  0  0  0  0  0  0  0  0  0
    5.4690   -3.2070   -0.7170 O   0  0  0  0  0  0  0  0  0  0  0  0
  1  2  2  0
  2  3  1  0
  2 20  1  0
  3  4  1  0
  4  5  1  0
  5  6  2  0
  5  7  1  0
  8  7  1  6
  8  9  1  0
  8 16  1  0
  9 10  1  0
 10 11  1  1
 10 14  1  0
 11 12  1  0
 12 13  1  0
 13 14  1  0
 14 15  1  6
 15 16  1  0
 16 17  1  1
 16 18  1  0
 18 19  1  0
 20 21  1  0
 21 22  1  0
 22 23  2  0
 22 30  1  0
 23 24  1  0
 24 25  1  0
 24 26  2  0
 26 27  1  0
 26 29  1  0
 27 28  1  0
 29 30  2  0
 30 31  1  0
M  END
