
     RDKit          3D

 29 32  0  0  0  0  0  0  0  0999 V2000
   -7.3260    2.1850    0.2120 C   0  0  0  0  0  0  0  0  0  0  0  0
   -7.6650    0.9620   -0.4770 N   0  0  0  0  0  0  0  0  0  0  0  0
   -6.7590   -0.1230   -0.2310 C   0  0  0  0  0  0  0  0  0  0  0  0
   -5.3450    0.3100    0.0390 C   0  0  0  0  0  0  0  0  0  0  0  0
   -4.5650   -0.8350    0.2560 O   0  0  0  0  0  0  0  0  0  0  0  0
   -3.2300   -0.4330    0.5310 C   0  0  0  0  0  0  0  0  0  0  0  0
   -2.3270   -1.6210    0.7620 C   0  0  1  0  0  0  0  0  0  0  0  0
   -2.9030   -2.3110    1.8490 O   0  0  0  0  0  0  0  0  0  0  0  0
   -2.4370   -2.5400   -0.4280 C   0  0  0  0  0  0  0  0  0  0  0  0
   -1.4410   -2.1680   -1.5080 C   0  0  0  0  0  0  0  0  0  0  0  0
   -0.0870   -2.2110   -0.8470 C   0  0  0  0  0  0  0  0  0  0  0  0
    0.0220   -1.1430    0.0770 N   0  0  0  0  0  0  0  0  0  0  0  0
    0.4250    0.1010   -0.3800 C   0  0  1  0  0  0  0  0  0  0  0  0
   -0.3550    1.3230   -0.1270 C   0  0  0  0  0  0  0  0  0  0  0  0
    0.5200    2.5700    0.0300 C   0  0  0  0  0  0  0  0  0  0  0  0
    1.4880    2.2370    1.1820 C   0  0  0  0  0  0  0  0  0  0  0  0
    2.4250    1.2610    0.5900 C   0  0  0  0  0  0  0  0  0  0  0  0
    3.7290    1.3820    0.7660 N   0  0  0  0  0  0  0  0  0  0  0  0
    4.5970    0.5000    0.2170 C   0  0  0  0  0  0  0  0  0  0  0  0
    5.9620    0.6260    0.3900 C   0  0  0  0  0  0  0  0  0  0  0  0
    6.8610   -0.2560   -0.1660 C   0  0  0  0  0  0  0  0  0  0  0  0
    8.3210   -0.1430   -0.0150 C   0  0  0  0  0  0  0  0  0  0  0  0
    8.7350    1.1790    0.3690 N   0  0  0  0  0  0  0  0  0  0  0  0
    6.3290   -1.2940   -0.9190 C   0  0  0  0  0  0  0  0  0  0  0  0
    4.9750   -1.4380   -1.1060 C   0  0  0  0  0  0  0  0  0  0  0  0
    4.0940   -0.5350   -0.5350 C   0  0  0  0  0  0  0  0  0  0  0  0
    2.7640   -0.6240   -0.6900 N   0  0  0  0  0  0  0  0  0  0  0  0
    1.8980    0.2470   -0.1510 C   0  0  0  0  0  0  0  0  0  0  0  0
   -0.9180   -1.2680    1.1210 C   0  0  0  0  0  0  0  0  0  0  0  0
  1  2  1  0
  2  3  1  0
  3  4  1  0
  4  5  1  0
  5  6  1  0
  6  7  1  0
  7  8  1  1
  7  9  1  0
  7 29  1  0
  9 10  1  0
 10 11  1  0
 11 12  1  0
 13 12  1  1
 12 29  1  0
 13 14  1  0
 13 28  1  0
 14 15  1  0
 15 16  1  0
 16 17  1  0
 17 18  2  0
 17 28  1  0
 18 19  1  0
 19 20  2  0
 19 26  1  0
 20 21  1  0
 21 22  1  0
 21 24  2  0
 22 23  1  0
 24 25  1  0
 25 26  2  0
 26 27  1  0
 27 28  2  0
M  CHG  2   2   1  23   1
M  END
