
     RDKit          3D

 31 32  0  0  0  0  0  0  0  0999 V2000
   -8.5930   -1.2610   -0.3780 C   0  0  0  0  0  0  0  0  0  0  0  0
   -7.3310   -0.7720    0.2730 C   0  0  0  0  0  0  0  0  0  0  0  0
   -6.5860    0.1630   -0.5820 N   0  0  1  0  0  0  0  0  0  0  0  0
   -6.8830    1.4940   -0.0980 C   0  0  0  0  0  0  0  0  0  0  0  0
   -7.7270    2.2720   -1.0760 C   0  0  0  0  0  0  0  0  0  0  0  0
   -5.1880   -0.0330   -0.3720 C   0  0  1  0  0  0  0  0  0  0  0  0
   -4.9990   -0.1170    1.1370 C   0  0  0  0  0  0  0  0  0  0  0  0
   -3.5390   -0.0970    1.3880 C   0  0  0  0  0  0  0  0  0  0  0  0
   -2.7200   -1.0870    0.6360 N   0  0  2  0  0  0  0  0  0  0  0  0
   -1.9650   -0.3560   -0.3100 C   0  0  0  0  0  0  0  0  0  0  0  0
   -0.5110   -0.0830   -0.1680 C   0  0  0  0  0  0  0  0  0  0  0  0
    0.4600   -0.6170   -1.0520 C   0  0  0  0  0  0  0  0  0  0  0  0
    1.7870   -0.1230   -1.0900 C   0  0  0  0  0  0  0  0  0  0  0  0
    2.9840   -0.3870   -1.4590 C   0  0  0  0  0  0  0  0  0  0  0  0
    4.3100   -0.6660   -1.8600 C   0  0  0  0  0  0  0  0  0  0  0  0
    5.4840   -0.9230   -2.1950 C   0  0  0  0  0  0  0  0  0  0  0  0
    6.3870    0.2370   -1.5640 N   0  0  0  0  0  0  0  0  0  0  0  0
    7.4570   -0.1430   -0.7910 C   0  0  0  0  0  0  0  0  0  0  0  0
    7.7620   -1.3080   -0.5850 O   0  0  0  0  0  0  0  0  0  0  0  0
    8.2840    0.7950   -0.1130 O   0  0  0  0  0  0  0  0  0  0  0  0
    9.4180    0.3100    0.6940 C   0  0  1  0  0  0  0  0  0  0  0  0
   10.4430   -0.3150   -0.1050 C   0  0  0  0  0  0  0  0  0  0  0  0
    9.9950    1.6570    1.2600 C   0  0  0  0  0  0  0  0  0  0  0  0
    8.9550   -0.6390    1.7680 C   0  0  0  0  0  0  0  0  0  0  0  0
    1.8830    0.9630   -0.0740 C   0  0  0  0  0  0  0  0  0  0  0  0
    1.0500    1.4720    0.7560 C   0  0  0  0  0  0  0  0  0  0  0  0
    1.4230    3.0160    2.1220 I   0  0  0  0  0  0  0  0  0  0  0  0
   -0.2940    0.8780    0.7090 C   0  0  0  0  0  0  0  0  0  0  0  0
   -1.0320    1.5070    1.6810 O   0  0  0  0  0  0  0  0  0  0  0  0
   -3.7170   -1.9880    0.1500 C   0  0  0  0  0  0  0  0  0  0  0  0
   -4.6120   -1.3210   -0.9160 C   0  0  0  0  0  0  0  0  0  0  0  0
  1  2  1  0
  3  2  1  1
  3  4  1  0
  3  6  1  0
  4  5  1  0
  6  7  1  1
  6 31  1  0
  7  8  1  0
  8  9  1  0
  9 10  1  6
  9 30  1  0
 10 11  1  0
 11 12  2  0
 11 28  1  0
 12 13  1  0
 13 14  1  0
 13 25  2  0
 14 15  3  0
 15 16  1  0
 16 17  1  0
 17 18  1  0
 18 19  2  0
 18 20  1  0
 20 21  1  0
 21 22  1  6
 21 23  1  0
 21 24  1  0
 25 26  1  0
 26 27  1  0
 26 28  2  0
 28 29  1  0
 30 31  1  0
M  CHG  2   3   1   9   1
M  END
