
     RDKit          3D

 29 31  0  0  0  0  0  0  0  0999 V2000
   -5.2930    2.1360   -0.7760 C   0  0  0  0  0  0  0  0  0  0  0  0
   -5.7330    0.8490   -0.0930 C   0  0  1  0  0  0  0  0  0  0  0  0
   -6.4450    1.2040    1.1730 C   0  0  0  0  0  0  0  0  0  0  0  0
   -6.7950    0.2710   -1.0730 C   0  0  0  0  0  0  0  0  0  0  0  0
   -4.6940   -0.0730    0.0480 N   0  0  0  0  0  0  0  0  0  0  0  0
   -3.8510   -0.0280    1.2290 C   0  0  0  0  0  0  0  0  0  0  0  0
   -2.9920   -1.2220    1.0370 C   0  0  0  0  0  0  0  0  0  0  0  0
   -3.4150   -2.5090    1.0770 C   0  0  0  0  0  0  0  0  0  0  0  0
   -2.6280   -3.5980    0.8450 C   0  0  0  0  0  0  0  0  0  0  0  0
   -1.3400   -3.4070    0.5540 C   0  0  0  0  0  0  0  0  0  0  0  0
   -0.8370   -2.0730    0.5070 C   0  0  0  0  0  0  0  0  0  0  0  0
   -1.6180   -0.9980    0.7420 C   0  0  0  0  0  0  0  0  0  0  0  0
   -1.2530    0.4640    0.6350 C   0  0  0  0  0  0  0  0  0  0  0  0
   -0.2920    0.6910   -0.4620 C   0  0  0  0  0  0  0  0  0  0  0  0
    1.0840    0.5020   -0.2220 N   0  0  0  0  0  0  0  0  0  0  0  0
    2.1100    1.3350   -0.8760 C   0  0  0  0  0  0  0  0  0  0  0  0
    1.8810    2.2040   -1.7480 O   0  0  0  0  0  0  0  0  0  0  0  0
    3.3370    0.9600   -0.3630 N   0  0  0  0  0  0  0  0  0  0  0  0
    3.1540   -0.5060    0.0370 C   0  0  1  0  0  0  0  0  0  0  0  0
    3.0930   -1.2940   -1.2130 C   0  0  0  0  0  0  0  0  0  0  0  0
    4.2780   -0.8760    0.8740 N   0  0  0  0  0  0  0  0  0  0  0  0
    5.5120   -0.3410    0.2920 C   0  0  0  0  0  0  0  0  0  0  0  0
    6.0730   -0.8060   -0.7900 C   0  0  0  0  0  0  0  0  0  0  0  0
    7.3250   -0.0130   -1.0830 C   0  0  0  0  0  0  0  0  0  0  0  0
    7.3240    1.0060   -0.0210 C   0  0  0  0  0  0  0  0  0  0  0  0
    8.2490    2.1050    0.1020 N   0  0  0  0  0  0  0  0  0  0  0  0
    6.2900    0.7900    0.7460 C   0  0  0  0  0  0  0  0  0  0  0  0
    1.8720   -0.2900    0.6900 C   0  0  0  0  0  0  0  0  0  0  0  0
    1.4760   -0.6730    1.8240 O   0  0  0  0  0  0  0  0  0  0  0  0
  2  1  1  6
  2  3  1  0
  2  4  1  0
  2  5  1  0
  5  6  1  0
  6  7  1  0
  7  8  2  0
  7 12  1  0
  8  9  1  0
  9 10  2  0
 10 11  1  0
 11 12  2  0
 12 13  1  0
 13 14  1  0
 14 15  1  0
 15 16  1  0
 15 28  1  0
 16 17  2  0
 16 18  1  0
 18 19  1  0
 19 20  1  6
 19 21  1  0
 19 28  1  0
 21 22  1  0
 22 23  2  0
 22 27  1  0
 23 24  1  0
 24 25  1  0
 25 26  1  0
 25 27  2  0
 28 29  2  0
M  CHG  2   5   1  26   1
M  END
