
     RDKit          3D

 30 32  0  0  0  0  0  0  0  0999 V2000
   -4.7780    1.3450    1.3070 C   0  0  0  0  0  0  0  0  0  0  0  0
   -5.1000    0.7140   -0.0080 C   0  0  1  0  0  0  0  0  0  0  0  0
   -6.3600    0.1040    0.1250 O   0  0  0  0  0  0  0  0  0  0  0  0
   -5.2710    1.7990   -1.0090 C   0  0  0  0  0  0  0  0  0  0  0  0
   -6.3770    1.9830   -1.6680 N   0  0  0  0  0  0  0  0  0  0  0  0
   -4.2470    2.7020   -1.3120 O   0  0  0  0  0  0  0  0  0  0  0  0
   -4.0970   -0.3050   -0.4520 C   0  0  2  0  0  0  0  0  0  0  0  0
   -4.5010   -0.8230   -1.6820 O   0  0  0  0  0  0  0  0  0  0  0  0
   -4.1780   -1.4800    0.5320 C   0  0  0  0  0  0  0  0  0  0  0  0
   -3.0720   -2.4410    0.0710 C   0  0  2  0  0  0  0  0  0  0  0  0
   -3.2990   -3.7280    0.4910 O   0  0  0  0  0  0  0  0  0  0  0  0
   -1.7820   -1.8630    0.6380 C   0  0  0  0  0  0  0  0  0  0  0  0
   -1.7860   -0.3730    0.5420 C   0  0  1  0  0  0  0  0  0  0  0  0
   -0.3580    0.0520    0.1640 C   0  0  2  0  0  0  0  0  0  0  0  0
    0.0170   -0.4950   -1.0340 O   0  0  0  0  0  0  0  0  0  0  0  0
    0.5710   -0.2030    1.3190 C   0  0  0  0  0  0  0  0  0  0  0  0
    1.8600    0.2740    1.1870 O   0  0  0  0  0  0  0  0  0  0  0  0
    2.7810   -0.1060    0.2460 C   0  0  0  0  0  0  0  0  0  0  0  0
    2.4910   -0.9640   -0.5990 O   0  0  0  0  0  0  0  0  0  0  0  0
    4.1390    0.5320    0.2580 C   0  0  1  0  0  0  0  0  0  0  0  0
    4.7360    0.2470    1.6160 C   0  0  0  0  0  0  0  0  0  0  0  0
    6.0330    0.8310    1.6370 O   0  0  0  0  0  0  0  0  0  0  0  0
    6.8580    0.6310    0.5410 C   0  0  0  0  0  0  0  0  0  0  0  0
    8.2340    0.8270    0.6160 C   0  0  0  0  0  0  0  0  0  0  0  0
    9.0730    0.6360   -0.4530 C   0  0  0  0  0  0  0  0  0  0  0  0
    8.5330    0.2360   -1.6500 C   0  0  0  0  0  0  0  0  0  0  0  0
    7.1540    0.0350   -1.7440 C   0  0  0  0  0  0  0  0  0  0  0  0
    6.3260    0.2310   -0.6590 C   0  0  0  0  0  0  0  0  0  0  0  0
    4.9530    0.0260   -0.7720 O   0  0  0  0  0  0  0  0  0  0  0  0
   -2.6970    0.1830   -0.5160 C   0  0  0  0  0  0  0  0  0  0  0  0
  2  1  1  1
  2  3  1  0
  2  4  1  0
  2  7  1  0
  4  5  2  0
  4  6  1  0
  7  8  1  6
  7  9  1  0
  7 30  1  0
  9 10  1  0
 10 11  1  1
 10 12  1  0
 13 12  1  6
 13 14  1  0
 13 30  1  0
 14 15  1  6
 14 16  1  0
 16 17  1  0
 17 18  1  0
 18 19  2  0
 20 18  1  1
 20 21  1  0
 20 29  1  0
 21 22  1  0
 22 23  1  0
 23 24  2  0
 23 28  1  0
 24 25  1  0
 25 26  2  0
 26 27  1  0
 27 28  2  0
 28 29  1  0
M  END
