
     RDKit          3D

 29 31  0  0  0  0  0  0  0  0999 V2000
    8.8780    1.7860    0.3380 C   0  0  0  0  0  0  0  0  0  0  0  0
    8.0350    0.7390   -0.3470 C   0  0  0  0  0  0  0  0  0  0  0  0
    8.6890   -0.2080   -1.0870 C   0  0  0  0  0  0  0  0  0  0  0  0
    7.9050   -1.2250   -1.6660 C   0  0  0  0  0  0  0  0  0  0  0  0
    8.6810   -2.1480   -2.5540 C   0  0  0  0  0  0  0  0  0  0  0  0
    6.5770   -1.2450   -1.4920 C   0  0  0  0  0  0  0  0  0  0  0  0
    5.8990   -0.2810   -0.7440 C   0  0  0  0  0  0  0  0  0  0  0  0
    4.6160   -0.3060   -0.5530 O   0  0  0  0  0  0  0  0  0  0  0  0
    3.4480    0.0680   -0.1600 C   0  0  0  0  0  0  0  0  0  0  0  0
    3.1220    0.4990    1.2640 C   0  0  0  0  0  0  0  0  0  0  0  0
    1.6240    0.8340    1.2970 C   0  0  0  0  0  0  0  0  0  0  0  0
    0.8410   -0.3720    1.0340 N   0  0  0  0  0  0  0  0  0  0  0  0
   -0.5370   -0.3100    1.0010 C   0  0  0  0  0  0  0  0  0  0  0  0
   -1.1620    0.7760    1.2420 O   0  0  0  0  0  0  0  0  0  0  0  0
   -1.3980   -1.4670    0.6800 N   0  0  0  0  0  0  0  0  0  0  0  0
   -2.7980   -1.0860    0.6420 C   0  0  0  0  0  0  0  0  0  0  0  0
   -3.5090   -1.2500   -0.5240 C   0  0  0  0  0  0  0  0  0  0  0  0
   -4.7880   -0.6620   -0.7050 C   0  0  0  0  0  0  0  0  0  0  0  0
   -5.5470   -0.6800   -1.9370 C   0  0  0  0  0  0  0  0  0  0  0  0
   -6.1850   -1.9570   -2.2550 N   0  0  0  0  0  0  0  0  0  0  0  0
   -5.2670    0.0630    0.3580 C   0  0  0  0  0  0  0  0  0  0  0  0
   -4.5340    0.1890    1.5500 C   0  0  0  0  0  0  0  0  0  0  0  0
   -3.3020   -0.3690    1.7010 C   0  0  0  0  0  0  0  0  0  0  0  0
   -5.2300    0.8030    2.7640 C   0  0  0  0  0  0  0  0  0  0  0  0
   -6.3230    1.6180    2.4240 N   0  0  0  0  0  0  0  0  0  0  0  0
   -7.2440    0.9560    1.4880 C   0  0  0  0  0  0  0  0  0  0  0  0
   -6.4720    0.7880    0.2180 N   0  0  0  0  0  0  0  0  0  0  0  0
   -6.8830    1.3290   -1.0090 C   0  0  0  0  0  0  0  0  0  0  0  0
    6.6890    0.7260   -0.1750 C   0  0  0  0  0  0  0  0  0  0  0  0
  1  2  1  0
  2  3  2  0
  2 29  1  0
  3  4  1  0
  4  5  1  0
  4  6  2  0
  6  7  1  0
  7  8  1  0
  7 29  2  0
  8  9  1  0
  9 10  1  0
 10 11  1  0
 11 12  1  0
 12 13  1  0
 13 14  2  0
 13 15  1  0
 15 16  1  0
 16 17  2  0
 16 23  1  0
 17 18  1  0
 18 19  1  0
 18 21  2  0
 19 20  1  0
 21 22  1  0
 21 27  1  0
 22 23  2  0
 22 24  1  0
 24 25  1  0
 25 26  1  0
 26 27  1  0
 27 28  1  0
M  CHG  2  20   1  25   1
M  END
