
     RDKit          3D

 29 31  0  0  0  0  0  0  0  0999 V2000
   -5.0730    4.1880    2.0550 C   0  0  0  0  0  0  0  0  0  0  0  0
   -4.3470    3.1860    1.1860 C   0  0  0  0  0  0  0  0  0  0  0  0
   -3.3950    2.2600    1.5220 C   0  0  0  0  0  0  0  0  0  0  0  0
   -2.9280    1.6000    0.4170 C   0  0  0  0  0  0  0  0  0  0  0  0
   -1.7800    0.7800    0.1090 C   0  0  0  0  0  0  0  0  0  0  0  0
   -1.6520   -0.6050    0.1490 N   0  0  2  0  0  0  0  0  0  0  0  0
   -1.8090   -1.5210    1.1910 C   0  0  0  0  0  0  0  0  0  0  0  0
   -2.1870   -2.8840    0.6240 C   0  0  0  0  0  0  0  0  0  0  0  0
   -3.3040   -2.9970   -0.1420 C   0  0  0  0  0  0  0  0  0  0  0  0
   -3.6080   -4.2540   -0.7060 C   0  0  0  0  0  0  0  0  0  0  0  0
   -2.8510   -5.3360   -0.5210 N   0  0  0  0  0  0  0  0  0  0  0  0
   -1.7480   -5.2180    0.2400 C   0  0  0  0  0  0  0  0  0  0  0  0
   -1.4230   -4.0010    0.8040 C   0  0  0  0  0  0  0  0  0  0  0  0
   -0.7280   -0.9790   -0.9450 C   0  0  0  0  0  0  0  0  0  0  0  0
    0.7160   -0.9830   -0.7430 C   0  0  1  0  0  0  0  0  0  0  0  0
    1.2720   -2.3110   -0.2080 C   0  0  0  0  0  0  0  0  0  0  0  0
    1.2060   -1.0220   -2.0990 O   0  0  0  0  0  0  0  0  0  0  0  0
    1.3570    0.1210   -0.0480 C   0  0  0  0  0  0  0  0  0  0  0  0
    2.8010    0.0890   -0.1520 N   0  0  0  0  0  0  0  0  0  0  0  0
    3.5390    1.1120    0.5540 C   0  0  0  0  0  0  0  0  0  0  0  0
    2.8510    1.9070    1.2330 O   0  0  0  0  0  0  0  0  0  0  0  0
    5.0070    1.2060    0.4630 C   0  0  0  0  0  0  0  0  0  0  0  0
    5.7360    2.0910    1.0980 C   0  0  0  0  0  0  0  0  0  0  0  0
    7.1860    1.8900    0.7730 C   0  0  0  0  0  0  0  0  0  0  0  0
    7.1670    0.9380   -0.3380 N   0  0  0  0  0  0  0  0  0  0  0  0
    5.8670    0.3450   -0.3830 C   0  0  0  0  0  0  0  0  0  0  0  0
   -3.7040    2.1920   -0.6400 C   0  0  0  0  0  0  0  0  0  0  0  0
   -3.6150    1.6760   -2.0420 C   0  0  0  0  0  0  0  0  0  0  0  0
   -4.5040    3.1010   -0.1500 N   0  0  0  0  0  0  0  0  0  0  0  0
  1  2  1  0
  2  3  2  0
  2 29  1  0
  3  4  1  0
  4  5  1  0
  4 27  2  0
  6  5  1  1
  6  7  1  0
  6 14  1  0
  7  8  1  0
  8  9  2  0
  8 13  1  0
  9 10  1  0
 10 11  2  0
 11 12  1  0
 12 13  2  0
 14 15  1  0
 15 16  1  1
 15 17  1  0
 15 18  1  0
 18 19  1  0
 19 20  1  0
 20 21  2  0
 20 22  1  0
 22 23  2  0
 22 26  1  0
 23 24  1  0
 24 25  1  0
 25 26  1  0
 27 28  1  0
 27 29  1  0
M  CHG  2   6   1  25   1
M  END
