
     RDKit          3D

 29 31  0  0  0  0  0  0  0  0999 V2000
    6.7170   -5.6180    0.4510 C   0  0  0  0  0  0  0  0  0  0  0  0
    6.8240   -4.2130    0.5290 O   0  0  0  0  0  0  0  0  0  0  0  0
    5.6850   -3.4530    0.2930 C   0  0  0  0  0  0  0  0  0  0  0  0
    4.4700   -4.0200   -0.0100 C   0  0  0  0  0  0  0  0  0  0  0  0
    3.4020   -3.1990   -0.2260 C   0  0  0  0  0  0  0  0  0  0  0  0
    3.4790   -1.8090   -0.1560 C   0  0  0  0  0  0  0  0  0  0  0  0
    2.3170   -1.0640   -0.4130 N   0  0  0  0  0  0  0  0  0  0  0  0
    2.1780    0.2900   -0.1300 C   0  0  0  0  0  0  0  0  0  0  0  0
    3.0850    0.9950    0.4000 O   0  0  0  0  0  0  0  0  0  0  0  0
    0.9620    1.0180   -0.4230 N   0  0  0  0  0  0  0  0  0  0  0  0
   -0.1340    0.3130   -1.0530 C   0  0  0  0  0  0  0  0  0  0  0  0
   -1.0190   -0.3360   -0.0410 C   0  0  0  0  0  0  0  0  0  0  0  0
   -2.1190   -1.0460   -0.6430 N   0  0  0  0  0  0  0  0  0  0  0  0
   -3.2660   -1.1270    0.2590 C   0  0  2  0  0  0  0  0  0  0  0  0
   -3.7480   -2.5310    0.3560 C   0  0  0  0  0  0  0  0  0  0  0  0
   -5.1920   -2.6800    0.7150 C   0  0  0  0  0  0  0  0  0  0  0  0
   -6.0480   -1.6780    0.1520 N   0  0  0  0  0  0  0  0  0  0  0  0
   -5.5530   -0.3730    0.6020 C   0  0  0  0  0  0  0  0  0  0  0  0
   -4.2800   -0.1380   -0.1960 C   0  0  2  0  0  0  0  0  0  0  0  0
   -4.6090   -0.2560   -1.5930 N   0  0  0  0  0  0  0  0  0  0  0  0
    0.8930    2.4010   -0.0830 C   0  0  1  0  0  0  0  0  0  0  0  0
    0.7740    3.2960   -1.2990 C   0  0  0  0  0  0  0  0  0  0  0  0
   -0.0050    4.5390   -1.0250 C   0  0  0  0  0  0  0  0  0  0  0  0
    0.2390    5.1410    0.3270 C   0  0  2  0  0  0  0  0  0  0  0  0
    1.6320    5.7170    0.4150 C   0  0  0  0  0  0  0  0  0  0  0  0
    0.0580    4.1700    1.4660 C   0  0  0  0  0  0  0  0  0  0  0  0
   -0.1610    2.7510    0.9450 C   0  0  0  0  0  0  0  0  0  0  0  0
    4.6820   -1.2730    0.1430 C   0  0  0  0  0  0  0  0  0  0  0  0
    5.7940   -2.1000    0.3690 C   0  0  0  0  0  0  0  0  0  0  0  0
  1  2  1  0
  2  3  1  0
  3  4  2  0
  3 29  1  0
  4  5  1  0
  5  6  2  0
  6  7  1  0
  6 28  1  0
  7  8  1  0
  8  9  2  0
  8 10  1  0
 10 11  1  0
 21 10  1  6
 11 12  1  0
 12 13  1  0
 14 13  1  6
 14 15  1  0
 14 19  1  0
 15 16  1  0
 16 17  1  0
 17 18  1  0
 18 19  1  0
 19 20  1  6
 21 22  1  0
 21 27  1  0
 22 23  1  0
 23 24  1  0
 24 25  1  6
 24 26  1  0
 26 27  1  0
 28 29  2  0
M  CHG  2  13   1  17   1
M  END
