
     RDKit          3D

 31 34  0  0  0  0  0  0  0  0999 V2000
   -6.1910    0.9780    1.9170 N   0  0  0  0  0  0  0  0  0  0  0  0
   -4.8810    1.0920    1.3830 C   0  0  0  0  0  0  0  0  0  0  0  0
   -4.4700    2.1290    0.8180 O   0  0  0  0  0  0  0  0  0  0  0  0
   -3.9430   -0.0060    1.4660 N   0  0  0  0  0  0  0  0  0  0  0  0
   -2.6290    0.1140    0.9270 C   0  0  0  0  0  0  0  0  0  0  0  0
   -1.6140    0.1590    1.8110 C   0  0  0  0  0  0  0  0  0  0  0  0
   -0.2220    0.2850    1.4430 C   0  0  0  0  0  0  0  0  0  0  0  0
    0.7040    0.3220    2.3260 O   0  0  0  0  0  0  0  0  0  0  0  0
    0.0930    0.3690    0.0260 C   0  0  0  0  0  0  0  0  0  0  0  0
    1.3070    0.4970   -0.6460 C   0  0  0  0  0  0  0  0  0  0  0  0
    2.5950    0.5930    0.0110 C   0  0  0  0  0  0  0  0  0  0  0  0
    2.7440    1.7810    0.7700 C   0  0  0  0  0  0  0  0  0  0  0  0
    3.9520    2.0260    1.3510 C   0  0  0  0  0  0  0  0  0  0  0  0
    5.0000    1.1440    1.2040 C   0  0  0  0  0  0  0  0  0  0  0  0
    4.8150    0.0100    0.4660 C   0  0  0  0  0  0  0  0  0  0  0  0
    3.5820   -0.3170   -0.1690 C   0  0  0  0  0  0  0  0  0  0  0  0
    3.5270   -1.4830   -0.7670 C   0  0  0  0  0  0  0  0  0  0  0  0
    2.4140   -2.1670   -1.4110 C   0  0  2  0  0  0  0  0  0  0  0  0
    2.5170   -3.5740   -1.1690 F   0  0  0  0  0  0  0  0  0  0  0  0
    2.4970   -2.0700   -3.2050 Cl  0  0  0  0  0  0  0  0  0  0  0  0
    5.9550   -0.6500    0.4830 C   0  0  0  0  0  0  0  0  0  0  0  0
    6.9690    0.0710    1.2730 C   0  0  0  0  0  0  0  0  0  0  0  0
    6.3820    1.1600    1.7080 C   0  0  0  0  0  0  0  0  0  0  0  0
    0.9820    0.5240   -1.9440 N   0  0  0  0  0  0  0  0  0  0  0  0
   -0.3320    0.4230   -2.0930 N   0  0  0  0  0  0  0  0  0  0  0  0
   -0.9200    0.3240   -0.8850 C   0  0  0  0  0  0  0  0  0  0  0  0
   -2.3550    0.1900   -0.4920 C   0  0  0  0  0  0  0  0  0  0  0  0
   -3.2470    0.0300   -1.4470 C   0  0  0  0  0  0  0  0  0  0  0  0
   -4.6780   -0.2670   -1.3620 C   0  0  0  0  0  0  0  0  0  0  0  0
   -5.0220   -1.3830   -2.4150 C   0  0  0  0  0  0  0  0  0  0  0  0
   -4.0480   -2.7870   -1.9870 Cl  0  0  0  0  0  0  0  0  0  0  0  0
  1  2  1  0
  2  3  2  0
  2  4  1  0
  4  5  1  0
  5  6  2  0
  5 27  1  0
  6  7  1  0
  7  8  2  0
  7  9  1  0
  9 10  1  0
  9 26  2  0
 10 11  1  0
 10 24  2  0
 11 12  2  0
 11 16  1  0
 12 13  1  0
 13 14  2  0
 14 15  1  0
 14 23  1  0
 15 16  1  0
 15 21  2  0
 16 17  2  3
 17 18  1  0
 18 19  1  6
 18 20  1  0
 21 22  1  0
 22 23  2  0
 24 25  1  0
 25 26  1  0
 26 27  1  0
 27 28  2  3
 28 29  1  0
 29 30  1  0
 30 31  1  0
M  END
