
     RDKit          3D

 29 31  0  0  0  0  0  0  0  0999 V2000
   -2.8610    1.0280   -1.7570 C   0  0  0  0  0  0  0  0  0  0  0  0
   -1.6240    0.8950   -0.9420 C   0  0  0  0  0  0  0  0  0  0  0  0
   -1.1060   -0.3890   -0.8170 C   0  0  0  0  0  0  0  0  0  0  0  0
   -1.7130   -1.4710   -1.4110 O   0  0  0  0  0  0  0  0  0  0  0  0
   -2.6880   -2.2490   -0.7980 C   0  0  0  0  0  0  0  0  0  0  0  0
   -3.5550   -1.8470    0.1020 C   0  0  0  0  0  0  0  0  0  0  0  0
   -4.4260   -2.9690    0.5110 C   0  0  0  0  0  0  0  0  0  0  0  0
   -3.9300   -4.1050   -0.2970 C   0  0  0  0  0  0  0  0  0  0  0  0
   -2.9200   -3.6680   -1.0520 C   0  0  0  0  0  0  0  0  0  0  0  0
   -2.0030   -4.6490   -2.1840 Cl  0  0  0  0  0  0  0  0  0  0  0  0
    0.0350   -0.5670   -0.0820 C   0  0  0  0  0  0  0  0  0  0  0  0
    0.5050   -1.7170    0.0330 O   0  0  0  0  0  0  0  0  0  0  0  0
    0.6540    0.4700    0.5120 N   0  0  0  0  0  0  0  0  0  0  0  0
    1.8700    0.2270    1.2890 C   0  0  0  0  0  0  0  0  0  0  0  0
    3.0750    0.3370    0.4910 C   0  0  0  0  0  0  0  0  0  0  0  0
    3.2770    1.4170   -0.1240 O   0  0  0  0  0  0  0  0  0  0  0  0
    4.0190   -0.6970    0.3720 N   0  0  0  0  0  0  0  0  0  0  0  0
    5.1830   -0.4510   -0.4780 C   0  0  0  0  0  0  0  0  0  0  0  0
    5.5590   -1.6500   -1.3150 C   0  0  0  0  0  0  0  0  0  0  0  0
    6.1020   -2.9490   -0.1490 S   0  0  0  0  0  0  0  0  0  0  0  0
    5.2550   -2.5500    1.4280 C   0  0  0  0  0  0  0  0  0  0  0  0
    3.8870   -1.9810    1.0520 C   0  0  0  0  0  0  0  0  0  0  0  0
    0.1130    1.6820    0.3600 C   0  0  0  0  0  0  0  0  0  0  0  0
    0.6990    2.6520    0.9200 O   0  0  0  0  0  0  0  0  0  0  0  0
   -1.0190    1.9250   -0.3570 N   0  0  0  0  0  0  0  0  0  0  0  0
   -1.5090    3.2810   -0.4610 C   0  0  0  0  0  0  0  0  0  0  0  0
   -2.4300    3.6420    0.6790 C   0  0  1  0  0  0  0  0  0  0  0  0
   -2.9480    5.0500    0.5610 C   0  0  0  0  0  0  0  0  0  0  0  0
   -3.4640    2.7280    0.8100 O   0  0  0  0  0  0  0  0  0  0  0  0
  1  2  1  0
  2  3  2  0
  2 25  1  0
  3  4  1  0
  3 11  1  0
  4  5  1  0
  5  6  2  0
  5  9  1  0
  6  7  1  0
  7  8  1  0
  8  9  2  0
  9 10  1  0
 11 12  2  0
 11 13  1  0
 13 14  1  0
 13 23  1  0
 14 15  1  0
 15 16  2  0
 15 17  1  0
 17 18  1  0
 17 22  1  0
 18 19  1  0
 19 20  1  0
 20 21  1  0
 21 22  1  0
 23 24  2  0
 23 25  1  0
 25 26  1  0
 26 27  1  0
 27 28  1  6
 27 29  1  0
M  END
