
     RDKit          3D

 31 34  0  0  0  0  0  0  0  0999 V2000
    0.9950   -1.5950    0.6010 N   0  0  0  0  0  0  0  0  0  0  0  0
    0.6790   -0.3260   -0.0100 C   0  0  0  0  0  0  0  0  0  0  0  0
   -0.5240    0.3450    0.0490 C   0  0  0  0  0  0  0  0  0  0  0  0
   -1.7240   -0.1520    0.7750 C   0  0  2  0  0  0  0  0  0  0  0  0
   -2.2220   -1.3170    0.0330 C   0  0  0  0  0  0  0  0  0  0  0  0
   -2.8380   -2.3990    0.6790 C   0  0  0  0  0  0  0  0  0  0  0  0
   -3.2380   -3.4900   -0.0540 C   0  0  0  0  0  0  0  0  0  0  0  0
   -3.0130   -3.4740   -1.4090 C   0  0  0  0  0  0  0  0  0  0  0  0
   -2.4160   -2.4200   -2.0180 N   0  0  0  0  0  0  0  0  0  0  0  0
   -2.0160   -1.3480   -1.3470 C   0  0  0  0  0  0  0  0  0  0  0  0
   -2.7200    0.8580    1.0790 C   0  0  0  0  0  0  0  0  0  0  0  0
   -2.3130    1.8650    1.9760 C   0  0  0  0  0  0  0  0  0  0  0  0
   -0.7000    1.8690    2.6530 Cl  0  0  0  0  0  0  0  0  0  0  0  0
   -3.2190    2.8340    2.2990 C   0  0  0  0  0  0  0  0  0  0  0  0
   -4.4970    2.8420    1.7710 C   0  0  0  0  0  0  0  0  0  0  0  0
   -4.9160    1.8690    0.8930 C   0  0  0  0  0  0  0  0  0  0  0  0
   -3.9750    0.8780    0.5690 C   0  0  0  0  0  0  0  0  0  0  0  0
   -4.5960   -0.3350   -0.5490 Cl  0  0  0  0  0  0  0  0  0  0  0  0
   -0.3420    1.4980   -0.6800 C   0  0  0  0  0  0  0  0  0  0  0  0
   -1.2390    2.3780   -0.8540 O   0  0  0  0  0  0  0  0  0  0  0  0
    0.9250    1.4940   -1.1430 N   0  0  0  0  0  0  0  0  0  0  0  0
    1.5570    0.4020   -0.7500 N   0  0  0  0  0  0  0  0  0  0  0  0
    2.9060   -0.0050   -1.0150 C   0  0  0  0  0  0  0  0  0  0  0  0
    3.2110   -0.9450   -1.9700 C   0  0  0  0  0  0  0  0  0  0  0  0
    4.5180   -1.3190   -2.2030 C   0  0  0  0  0  0  0  0  0  0  0  0
    5.5600   -0.7740   -1.4990 C   0  0  0  0  0  0  0  0  0  0  0  0
    5.2860    0.1810   -0.5250 C   0  0  0  0  0  0  0  0  0  0  0  0
    6.3160    0.7510    0.2030 O   0  0  0  0  0  0  0  0  0  0  0  0
    3.9910    0.5350   -0.3110 C   0  0  0  0  0  0  0  0  0  0  0  0
    3.5880    1.5530    0.7130 C   0  0  0  0  0  0  0  0  0  0  0  0
    3.2920    2.7390    0.0590 F   0  0  0  0  0  0  0  0  0  0  0  0
  1  2  1  0
  2  3  2  0
  2 22  1  0
  4  3  1  6
  3 19  1  0
  4  5  1  0
  4 11  1  0
  5  6  2  0
  5 10  1  0
  6  7  1  0
  7  8  2  0
  8  9  1  0
  9 10  2  0
 11 12  2  0
 11 17  1  0
 12 13  1  0
 12 14  1  0
 14 15  2  0
 15 16  1  0
 16 17  2  0
 17 18  1  0
 19 20  2  0
 19 21  1  0
 21 22  1  0
 22 23  1  0
 23 24  2  0
 23 29  1  0
 24 25  1  0
 25 26  2  0
 26 27  1  0
 27 28  1  0
 27 29  2  0
 29 30  1  0
 30 31  1  0
M  END
