
     RDKit          3D

 29 31  0  0  0  0  0  0  0  0999 V2000
   -5.0100    3.1260    2.5130 C   0  0  0  0  0  0  0  0  0  0  0  0
   -4.5570    2.2920    1.3880 C   0  0  0  0  0  0  0  0  0  0  0  0
   -5.1660    1.2070    0.9580 C   0  0  0  0  0  0  0  0  0  0  0  0
   -4.6410    0.4380   -0.1700 C   0  0  2  0  0  0  0  0  0  0  0  0
   -5.3660   -0.8300   -0.4660 C   0  0  0  0  0  0  0  0  0  0  0  0
   -4.8270   -1.6100   -1.6010 C   0  0  0  0  0  0  0  0  0  0  0  0
   -3.8920   -2.7330   -1.2720 C   0  0  0  0  0  0  0  0  0  0  0  0
   -2.6350   -2.2440   -0.7630 O   0  0  0  0  0  0  0  0  0  0  0  0
   -2.5660   -1.1110    0.0080 C   0  0  0  0  0  0  0  0  0  0  0  0
   -1.8160   -1.1180    1.0890 O   0  0  0  0  0  0  0  0  0  0  0  0
   -3.1920    0.2030   -0.1070 C   0  0  0  0  0  0  0  0  0  0  0  0
   -2.2800    1.0950    0.1450 C   0  0  0  0  0  0  0  0  0  0  0  0
   -0.9250    1.0690    0.2110 N   0  0  0  0  0  0  0  0  0  0  0  0
    0.1630    0.2290    0.0040 C   0  0  0  0  0  0  0  0  0  0  0  0
    0.0390   -0.9170   -0.4230 O   0  0  0  0  0  0  0  0  0  0  0  0
    1.5850    0.6660    0.2920 C   0  0  0  0  0  0  0  0  0  0  0  0
    2.5150   -0.3720   -0.0030 N   0  0  0  0  0  0  0  0  0  0  0  0
    3.4690    0.0160   -1.0500 C   0  0  2  0  0  0  0  0  0  0  0  0
    2.9340   -0.5690   -2.3440 C   0  0  0  0  0  0  0  0  0  0  0  0
    4.8120   -0.6060   -0.8060 C   0  0  0  0  0  0  0  0  0  0  0  0
    5.3750   -1.6150   -1.5080 N   0  0  0  0  0  0  0  0  0  0  0  0
    6.5400   -1.8690   -0.9730 N   0  0  0  0  0  0  0  0  0  0  0  0
    6.7860   -1.0620    0.0700 C   0  0  0  0  0  0  0  0  0  0  0  0
    8.2060   -1.0130    1.1090 Cl  0  0  0  0  0  0  0  0  0  0  0  0
    5.6760   -0.2410    0.1880 C   0  0  0  0  0  0  0  0  0  0  0  0
    5.5420    0.8010    1.2090 C   0  0  0  0  0  0  0  0  0  0  0  0
    6.5630    1.0050    2.1770 N   0  0  0  0  0  0  0  0  0  0  0  0
    4.5480    1.5480    1.2810 O   0  0  0  0  0  0  0  0  0  0  0  0
   -3.0640    2.7310    0.4680 S   0  0  0  0  0  0  0  0  0  0  0  0
  1  2  1  0
  2  3  2  0
  2 29  1  0
  3  4  1  0
  4  5  1  1
  4 11  1  0
  5  6  1  0
  6  7  1  0
  7  8  1  0
  8  9  1  0
  9 10  2  0
  9 11  1  0
 11 12  2  0
 12 13  1  0
 12 29  1  0
 13 14  1  0
 14 15  2  0
 14 16  1  0
 16 17  1  0
 17 18  1  0
 18 19  1  6
 18 20  1  0
 20 21  2  0
 20 25  1  0
 21 22  1  0
 22 23  1  0
 23 24  1  0
 23 25  2  0
 25 26  1  0
 26 27  1  0
 26 28  2  0
M  CHG  1  17   1
M  END
