
     RDKit          3D

 31 33  0  0  0  0  0  0  0  0999 V2000
    4.8340   -0.7350    2.3230 C   0  0  0  0  0  0  0  0  0  0  0  0
    3.7560   -0.4690    1.3580 C   0  0  0  0  0  0  0  0  0  0  0  0
    3.9560    0.3630    0.3440 C   0  0  0  0  0  0  0  0  0  0  0  0
    5.2810    0.9620    0.2760 C   0  0  0  0  0  0  0  0  0  0  0  0
    5.9800    1.2800   -0.7930 C   0  0  0  0  0  0  0  0  0  0  0  0
    5.7830    1.1940   -2.2560 C   0  0  0  0  0  0  0  0  0  0  0  0
    4.4110    0.6390   -2.5330 C   0  0  0  0  0  0  0  0  0  0  0  0
    3.3360    1.4170   -1.7890 C   0  0  0  0  0  0  0  0  0  0  0  0
    2.8380    0.6040   -0.5890 C   0  0  1  0  0  0  0  0  0  0  0  0
    2.1250   -0.5580   -1.0020 N   0  0  0  0  0  0  0  0  0  0  0  0
    0.6660   -0.3460   -1.0430 C   0  0  0  0  0  0  0  0  0  0  0  0
    0.1860   -0.4430    0.3600 C   0  0  0  0  0  0  0  0  0  0  0  0
   -1.3020   -0.2680    0.5500 C   0  0  1  0  0  0  0  0  0  0  0  0
   -1.9670   -1.3480   -0.2220 C   0  0  0  0  0  0  0  0  0  0  0  0
   -2.8250   -1.0770   -1.0170 O   0  0  0  0  0  0  0  0  0  0  0  0
   -1.5900   -2.7670   -0.0300 C   0  0  0  0  0  0  0  0  0  0  0  0
   -2.3740   -3.6880   -0.9170 C   0  0  0  0  0  0  0  0  0  0  0  0
   -3.7740   -3.6730   -0.7520 N   0  0  2  0  0  0  0  0  0  0  0  0
   -4.2930   -3.2500    0.4930 C   0  0  0  0  0  0  0  0  0  0  0  0
   -4.3510   -4.9900   -1.0680 C   0  0  0  0  0  0  0  0  0  0  0  0
   -1.6070   -0.5610    2.0250 C   0  0  0  0  0  0  0  0  0  0  0  0
   -1.0910    0.5220    2.9280 C   0  0  0  0  0  0  0  0  0  0  0  0
   -1.7350    1.8400    2.6530 C   0  0  0  0  0  0  0  0  0  0  0  0
   -1.9710    2.0370    1.1770 C   0  0  0  0  0  0  0  0  0  0  0  0
   -2.4190    3.3080    0.7680 C   0  0  0  0  0  0  0  0  0  0  0  0
   -2.6610    3.6340   -0.5410 C   0  0  0  0  0  0  0  0  0  0  0  0
   -3.1040    4.9060   -0.9000 O   0  0  0  0  0  0  0  0  0  0  0  0
   -3.3050    5.8740    0.1240 C   0  0  0  0  0  0  0  0  0  0  0  0
   -2.4550    2.6780   -1.4820 C   0  0  0  0  0  0  0  0  0  0  0  0
   -2.0100    1.4100   -1.0890 C   0  0  0  0  0  0  0  0  0  0  0  0
   -1.7670    1.0820    0.2360 C   0  0  0  0  0  0  0  0  0  0  0  0
  1  2  1  0
  2  3  2  3
  3  4  1  0
  3  9  1  0
  4  5  2  0
  5  6  1  0
  6  7  1  0
  7  8  1  0
  8  9  1  0
  9 10  1  6
 10 11  1  0
 11 12  1  0
 13 12  1  1
 13 14  1  0
 13 21  1  0
 13 31  1  0
 14 15  2  0
 14 16  1  0
 16 17  1  0
 17 18  1  0
 18 19  1  1
 18 20  1  0
 21 22  1  0
 22 23  1  0
 23 24  1  0
 24 25  2  0
 24 31  1  0
 25 26  1  0
 26 27  1  0
 26 29  2  0
 27 28  1  0
 29 30  1  0
 30 31  2  0
M  CHG  2  10   1  18   1
M  END
