
     RDKit          3D

 31 32  0  0  0  0  0  0  0  0999 V2000
   -2.9580    4.1650   -0.9950 C   0  0  0  0  0  0  0  0  0  0  0  0
   -2.4490    3.4990    0.2070 C   0  0  0  0  0  0  0  0  0  0  0  0
   -3.1510    2.6390    0.9590 C   0  0  0  0  0  0  0  0  0  0  0  0
   -2.4880    2.0540    2.1440 C   0  0  0  0  0  0  0  0  0  0  0  0
   -1.2050    1.3790    1.9200 C   0  0  0  0  0  0  0  0  0  0  0  0
   -0.1570    1.6470    3.0020 C   0  0  0  0  0  0  0  0  0  0  0  0
   -0.5590    1.1260    4.3280 C   0  0  0  0  0  0  0  0  0  0  0  0
   -0.7980    0.6230    0.9380 C   0  0  0  0  0  0  0  0  0  0  0  0
    0.5740    0.0220    0.9150 C   0  0  0  0  0  0  0  0  0  0  0  0
    1.3220    0.3160   -0.2090 C   0  0  0  0  0  0  0  0  0  0  0  0
    2.5780   -0.2070   -0.3830 C   0  0  0  0  0  0  0  0  0  0  0  0
    3.1000   -1.0350    0.5780 C   0  0  0  0  0  0  0  0  0  0  0  0
    4.3660   -1.5460    0.3780 O   0  0  0  0  0  0  0  0  0  0  0  0
    5.1540   -1.2650   -0.7480 C   0  0  0  0  0  0  0  0  0  0  0  0
    6.4860   -1.9560   -0.7060 C   0  0  0  0  0  0  0  0  0  0  0  0
    7.2960   -1.7080   -1.7930 O   0  0  0  0  0  0  0  0  0  0  0  0
    7.6480   -0.3850   -1.9700 C   0  0  2  0  0  0  0  0  0  0  0  0
    7.1290    0.1660   -3.2930 C   0  0  0  0  0  0  0  0  0  0  0  0
    9.1730   -0.2130   -1.9460 C   0  0  0  0  0  0  0  0  0  0  0  0
    2.3410   -1.3160    1.6870 C   0  0  0  0  0  0  0  0  0  0  0  0
    1.0600   -0.7920    1.8810 C   0  0  0  0  0  0  0  0  0  0  0  0
   -1.5800    0.2160   -0.2670 C   0  0  0  0  0  0  0  0  0  0  0  0
   -1.7670   -1.2320   -0.3330 N   0  0  0  0  0  0  0  0  0  0  0  0
   -3.0400   -1.4460   -1.0080 C   0  0  0  0  0  0  0  0  0  0  0  0
   -4.0940   -2.0400   -0.1340 C   0  0  2  0  0  0  0  0  0  0  0  0
   -4.6230   -3.3520   -0.6230 C   0  0  0  0  0  0  0  0  0  0  0  0
   -5.2510   -3.2540   -1.9930 C   0  0  0  0  0  0  0  0  0  0  0  0
   -5.2670   -1.0790    0.0570 C   0  0  0  0  0  0  0  0  0  0  0  0
   -4.8970    0.0100    1.0480 C   0  0  0  0  0  0  0  0  0  0  0  0
   -5.1870    1.3610    0.5690 C   0  0  0  0  0  0  0  0  0  0  0  0
   -4.4840    2.4120    0.5350 N   0  0  0  0  0  0  0  0  0  0  0  0
  1  2  1  0
  2  3  2  3
  3  4  1  0
  3 31  1  0
  4  5  1  0
  5  6  1  0
  5  8  2  0
  6  7  1  0
  8  9  1  0
  8 22  1  0
  9 10  2  0
  9 21  1  0
 10 11  1  0
 11 12  2  0
 12 13  1  0
 12 20  1  0
 13 14  1  0
 14 15  1  0
 15 16  1  0
 16 17  1  0
 17 18  1  6
 17 19  1  0
 20 21  2  0
 22 23  1  0
 23 24  1  0
 24 25  1  0
 25 26  1  6
 25 28  1  0
 26 27  1  0
 28 29  1  0
 29 30  1  0
 30 31  2  0
M  CHG  2  23   1  31   1
M  END
