
     RDKit          3D

 29 30  0  0  0  0  0  0  0  0999 V2000
    9.5620   -3.0060   -0.2970 C   0  0  0  0  0  0  0  0  0  0  0  0
    9.4490   -1.6960   -0.4110 C   0  0  0  0  0  0  0  0  0  0  0  0
    8.1880   -0.9790   -0.3210 C   0  0  0  0  0  0  0  0  0  0  0  0
    8.1750    0.2640   -0.4400 O   0  0  0  0  0  0  0  0  0  0  0  0
    6.9450   -1.6290   -0.1010 N   0  0  0  0  0  0  0  0  0  0  0  0
    5.7420   -0.8890   -0.0180 N   0  0  0  0  0  0  0  0  0  0  0  0
    5.3950   -0.2670    1.2060 C   0  0  0  0  0  0  0  0  0  0  0  0
    6.2210   -0.4370    2.1640 O   0  0  0  0  0  0  0  0  0  0  0  0
    4.1800    0.5380    1.4370 C   0  0  0  0  0  0  0  0  0  0  0  0
    3.3230    0.6750    0.2990 N   0  0  0  0  0  0  0  0  0  0  0  0
    2.1370    1.4400    0.4110 C   0  0  0  0  0  0  0  0  0  0  0  0
    1.8410    1.9900    1.5020 O   0  0  0  0  0  0  0  0  0  0  0  0
    1.2280    1.6000   -0.7600 C   0  0  1  0  0  0  0  0  0  0  0  0
    0.9190    0.3300   -1.4640 C   0  0  0  0  0  0  0  0  0  0  0  0
   -0.4090   -0.5220   -0.5690 S   0  0  0  0  0  0  0  0  0  0  0  0
   -1.6400    0.7370   -0.3230 C   0  0  0  0  0  0  0  0  0  0  0  0
   -2.8780    0.5250   -0.1880 N   0  0  0  0  0  0  0  0  0  0  0  0
   -3.8760    1.5240    0.0080 C   0  0  0  0  0  0  0  0  0  0  0  0
   -5.1590    1.2090    0.0920 C   0  0  0  0  0  0  0  0  0  0  0  0
   -5.5880   -0.1710   -0.0150 C   0  0  0  0  0  0  0  0  0  0  0  0
   -6.8570   -0.5340    0.0630 C   0  0  0  0  0  0  0  0  0  0  0  0
   -8.0510    0.7150    0.3090 Cl  0  0  0  0  0  0  0  0  0  0  0  0
   -7.1960   -1.9400   -0.0670 C   0  0  0  0  0  0  0  0  0  0  0  0
   -8.4050   -2.4340   -0.0100 C   0  0  0  0  0  0  0  0  0  0  0  0
   -9.5770   -1.6710    0.1880 N   0  0  0  0  0  0  0  0  0  0  0  0
   -3.4690    2.9360    0.1060 C   0  0  0  0  0  0  0  0  0  0  0  0
   -2.0190    3.0870   -0.0660 C   0  0  0  0  0  0  0  0  0  0  0  0
   -1.1590    2.1070   -0.2630 C   0  0  0  0  0  0  0  0  0  0  0  0
    0.1770    2.4210   -0.4030 O   0  0  0  0  0  0  0  0  0  0  0  0
  1  2  2  0
  2  3  1  0
  3  4  2  0
  3  5  1  0
  5  6  1  0
  6  7  1  0
  7  8  2  0
  7  9  1  0
  9 10  1  0
 10 11  1  0
 11 12  2  0
 13 11  1  1
 13 14  1  0
 13 29  1  0
 14 15  1  0
 15 16  1  0
 16 17  2  0
 16 28  1  0
 17 18  1  0
 18 19  2  3
 18 26  1  0
 19 20  1  0
 20 21  2  3
 21 22  1  0
 21 23  1  0
 23 24  2  3
 24 25  1  0
 26 27  1  0
 27 28  2  0
 28 29  1  0
M  CHG  1  25   1
M  END
