
     RDKit          3D

 30 32  0  0  0  0  0  0  0  0999 V2000
   -6.1180    3.5070    0.8210 C   0  0  0  0  0  0  0  0  0  0  0  0
   -6.4370    2.0560    0.6200 C   0  0  0  0  0  0  0  0  0  0  0  0
   -5.3960    1.1620    0.2680 N   0  0  1  0  0  0  0  0  0  0  0  0
   -5.9650    0.1110   -0.5170 C   0  0  0  0  0  0  0  0  0  0  0  0
   -5.9610   -1.1970    0.2570 C   0  0  0  0  0  0  0  0  0  0  0  0
   -4.1680    1.7290   -0.2290 C   0  0  1  0  0  0  0  0  0  0  0  0
   -3.1280    1.8590    0.9090 C   0  0  0  0  0  0  0  0  0  0  0  0
   -2.2120    0.6960    0.9500 C   0  0  0  0  0  0  0  0  0  0  0  0
   -1.2580    0.7040   -0.1790 N   0  0  1  0  0  0  0  0  0  0  0  0
   -0.9080   -0.7040   -0.3880 C   0  0  0  0  0  0  0  0  0  0  0  0
    0.2870   -1.2130    0.2580 C   0  0  0  0  0  0  0  0  0  0  0  0
    1.5730   -1.1780   -0.3130 C   0  0  0  0  0  0  0  0  0  0  0  0
    2.6170   -1.8700    0.1690 C   0  0  0  0  0  0  0  0  0  0  0  0
    3.9130   -2.1670   -0.3780 C   0  0  0  0  0  0  0  0  0  0  0  0
    5.0140   -2.4290   -0.8610 C   0  0  0  0  0  0  0  0  0  0  0  0
    6.2790   -2.7450   -1.3960 C   0  0  0  0  0  0  0  0  0  0  0  0
    7.0370   -1.6760   -1.9830 N   0  0  0  0  0  0  0  0  0  0  0  0
    7.6670   -0.6540   -1.1860 C   0  0  0  0  0  0  0  0  0  0  0  0
    7.6940   -0.7980    0.2000 C   0  0  0  0  0  0  0  0  0  0  0  0
    8.2370    0.2040    0.9840 C   0  0  0  0  0  0  0  0  0  0  0  0
    8.7470    1.3300    0.4640 C   0  0  0  0  0  0  0  0  0  0  0  0
    8.7280    1.4660   -0.9180 C   0  0  0  0  0  0  0  0  0  0  0  0
    8.1890    0.4780   -1.6970 C   0  0  0  0  0  0  0  0  0  0  0  0
    2.3560   -2.6540    1.3190 C   0  0  0  0  0  0  0  0  0  0  0  0
    1.1570   -2.7160    1.9110 C   0  0  0  0  0  0  0  0  0  0  0  0
    0.7600   -3.9180    3.6390 I   0  0  0  0  0  0  0  0  0  0  0  0
    0.0720   -2.0080    1.4090 C   0  0  0  0  0  0  0  0  0  0  0  0
   -1.1540   -2.1360    2.0190 O   0  0  0  0  0  0  0  0  0  0  0  0
   -1.9740    1.2500   -1.3150 C   0  0  0  0  0  0  0  0  0  0  0  0
   -3.4650    0.8820   -1.2800 C   0  0  0  0  0  0  0  0  0  0  0  0
  1  2  1  0
  3  2  1  6
  3  4  1  0
  3  6  1  0
  4  5  1  0
  6  7  1  1
  6 30  1  0
  7  8  1  0
  8  9  1  0
  9 10  1  6
  9 29  1  0
 10 11  1  0
 11 12  2  0
 11 27  1  0
 12 13  1  0
 13 14  1  0
 13 24  2  0
 14 15  3  0
 15 16  1  0
 16 17  1  0
 17 18  1  0
 18 19  2  0
 18 23  1  0
 19 20  1  0
 20 21  2  0
 21 22  1  0
 22 23  2  0
 24 25  1  0
 25 26  1  0
 25 27  2  0
 27 28  1  0
 29 30  1  0
M  CHG  2   3   1   9   1
M  END
