
     RDKit          3D

 31 34  0  0  0  0  0  0  0  0999 V2000
   -3.5200    2.1320   -2.4480 C   0  0  0  0  0  0  0  0  0  0  0  0
   -4.3640    1.5100   -1.3540 C   0  0  0  0  0  0  0  0  0  0  0  0
   -3.7300    1.6130   -0.0270 C   0  0  0  0  0  0  0  0  0  0  0  0
   -3.1350    0.4770    0.5330 C   0  0  0  0  0  0  0  0  0  0  0  0
   -2.5320    0.5200    1.7660 C   0  0  0  0  0  0  0  0  0  0  0  0
   -1.8900   -0.6200    2.3850 C   0  0  0  0  0  0  0  0  0  0  0  0
   -1.1100   -1.4580    1.7790 C   0  0  0  0  0  0  0  0  0  0  0  0
   -0.4890   -2.6000    2.4690 C   0  0  0  0  0  0  0  0  0  0  0  0
    0.3570   -3.4050    1.8490 C   0  0  0  0  0  0  0  0  0  0  0  0
    0.9050   -4.4870    2.6150 N   0  0  0  0  0  0  0  0  0  0  0  0
    1.3910   -5.4860    1.6610 C   0  0  0  0  0  0  0  0  0  0  0  0
    2.5320   -4.8380    0.8950 C   0  0  0  0  0  0  0  0  0  0  0  0
    2.0960   -3.6490    0.0960 C   0  0  0  0  0  0  0  0  0  0  0  0
    0.7100   -3.1840    0.4330 C   0  0  2  0  0  0  0  0  0  0  0  0
    0.6200   -1.7660    0.1540 N   0  0  1  0  0  0  0  0  0  0  0  0
    0.9710   -1.4370   -1.2130 C   0  0  0  0  0  0  0  0  0  0  0  0
    2.1240   -0.4850   -1.1870 C   0  0  0  0  0  0  0  0  0  0  0  0
    2.6230   -0.1140   -0.0980 O   0  0  0  0  0  0  0  0  0  0  0  0
    2.6800    0.0170   -2.3470 O   0  0  0  0  0  0  0  0  0  0  0  0
    3.7680    0.9140   -2.3220 C   0  0  0  0  0  0  0  0  0  0  0  0
    3.4710    2.1710   -1.5940 C   0  0  0  0  0  0  0  0  0  0  0  0
    2.6440    3.1380   -2.1230 C   0  0  0  0  0  0  0  0  0  0  0  0
    2.3550    4.3150   -1.4720 C   0  0  0  0  0  0  0  0  0  0  0  0
    2.8950    4.5780   -0.2350 C   0  0  0  0  0  0  0  0  0  0  0  0
    3.7360    3.6040    0.3090 C   0  0  0  0  0  0  0  0  0  0  0  0
    4.0180    2.4260   -0.3530 C   0  0  0  0  0  0  0  0  0  0  0  0
   -0.7750   -1.3130    0.3470 C   0  0  0  0  0  0  0  0  0  0  0  0
   -2.5500    1.7580    2.4250 C   0  0  0  0  0  0  0  0  0  0  0  0
   -3.1360    2.8680    1.8680 C   0  0  0  0  0  0  0  0  0  0  0  0
   -3.7400    2.8240    0.6310 C   0  0  0  0  0  0  0  0  0  0  0  0
   -4.3690    4.0380    0.0420 C   0  0  0  0  0  0  0  0  0  0  0  0
  1  2  1  0
  2  3  1  0
  3  4  2  0
  3 30  1  0
  4  5  1  0
  5  6  1  0
  5 28  2  0
  6  7  2  3
  7  8  1  0
  7 27  1  0
  8  9  2  0
  9 10  1  0
  9 14  1  0
 10 11  1  0
 11 12  1  0
 12 13  1  0
 14 13  1  1
 14 15  1  0
 15 16  1  6
 15 27  1  0
 16 17  1  0
 17 18  2  0
 17 19  1  0
 19 20  1  0
 20 21  1  0
 21 22  2  0
 21 26  1  0
 22 23  1  0
 23 24  2  0
 24 25  1  0
 25 26  2  0
 28 29  1  0
 29 30  2  0
 30 31  1  0
M  CHG  2  10   1  15   1
M  END
