
     RDKit          3D

 14 14  0  0  0  0  0  0  0  0999 V2000
   -2.1480   -1.0610   -1.1910 C   0  0  0  0  0  0  0  0  0  0  0  0
   -2.0200   -0.2570    0.0910 C   0  0  1  0  0  0  0  0  0  0  0  0
   -2.6160    1.1230   -0.1050 C   0  0  0  0  0  0  0  0  0  0  0  0
   -2.6880   -0.9530    1.2340 C   0  0  0  0  0  0  0  0  0  0  0  0
   -0.5690   -0.1540    0.3880 C   0  0  0  0  0  0  0  0  0  0  0  0
   -0.0780   -0.6000    1.4450 O   0  0  0  0  0  0  0  0  0  0  0  0
    0.2980    0.4500   -0.5140 O   0  0  0  0  0  0  0  0  0  0  0  0
    1.6610    0.5670   -0.2760 C   0  0  0  0  0  0  0  0  0  0  0  0
    2.2180    1.5950    0.3360 C   0  0  0  0  0  0  0  0  0  0  0  0
    3.6570    1.3610    0.3990 C   0  0  0  0  0  0  0  0  0  0  0  0
    4.5500    2.0920    0.8990 O   0  0  0  0  0  0  0  0  0  0  0  0
    3.8860    0.0750   -0.2470 C   0  0  0  0  0  0  0  0  0  0  0  0
    5.0890   -0.5910   -0.4420 O   0  0  0  0  0  0  0  0  0  0  0  0
    2.7250   -0.3830   -0.6380 C   0  0  0  0  0  0  0  0  0  0  0  0
  2  1  1  6
  2  3  1  0
  2  4  1  0
  2  5  1  0
  5  6  2  0
  5  7  1  0
  7  8  1  0
  8  9  2  0
  8 14  1  0
  9 10  1  0
 10 11  2  0
 10 12  1  0
 12 13  1  0
 12 14  2  0
M  END
