
     RDKit          3D

 23 25  0  0  0  0  0  0  0  0999 V2000
    3.8050   -0.9520    1.4170 O   0  0  0  0  0  0  0  0  0  0  0  0
    3.9140   -0.1730    0.4510 C   0  0  0  0  0  0  0  0  0  0  0  0
    2.7790    0.3660   -0.1490 N   0  0  0  0  0  0  0  0  0  0  0  0
    1.4190    0.1630    0.1720 C   0  0  0  0  0  0  0  0  0  0  0  0
    1.0450   -0.8330    1.0420 C   0  0  0  0  0  0  0  0  0  0  0  0
   -0.2860   -1.0060    1.3550 C   0  0  0  0  0  0  0  0  0  0  0  0
   -1.2560   -0.1680    0.7870 C   0  0  0  0  0  0  0  0  0  0  0  0
   -0.8910    0.8240   -0.0800 C   0  0  0  0  0  0  0  0  0  0  0  0
   -1.8690    1.6910   -0.6250 N   0  0  0  0  0  0  0  0  0  0  0  0
   -3.2040    1.0810   -1.4900 S   0  0  2  0  0  0  0  0  0  0  0  0
   -2.7190    0.3620   -2.7570 O   0  0  0  0  0  0  0  0  0  0  0  0
   -4.0080    2.2610   -2.0080 O   0  0  0  0  0  0  0  0  0  0  0  0
   -4.2620    0.0410   -0.6110 C   0  0  0  0  0  0  0  0  0  0  0  0
   -4.2630   -1.2960   -0.5700 C   0  0  0  0  0  0  0  0  0  0  0  0
   -5.3020   -1.7540    0.2730 N   0  0  0  0  0  0  0  0  0  0  0  0
   -5.9550   -0.5910    0.7400 C   0  0  0  0  0  0  0  0  0  0  0  0
   -5.3780    0.4900    0.2500 C   0  0  0  0  0  0  0  0  0  0  0  0
    0.4450    0.9840   -0.3820 C   0  0  0  0  0  0  0  0  0  0  0  0
    5.2830    0.1300   -0.0010 C   0  0  0  0  0  0  0  0  0  0  0  0
    6.4610   -0.3490    0.5210 C   0  0  0  0  0  0  0  0  0  0  0  0
    7.5270    0.1760   -0.1880 C   0  0  0  0  0  0  0  0  0  0  0  0
    6.9670    0.9630   -1.1250 N   0  0  0  0  0  0  0  0  0  0  0  0
    5.6330    0.9360   -1.0160 N   0  0  0  0  0  0  0  0  0  0  0  0
  1  2  2  0
  2  3  1  0
  2 19  1  0
  3  4  1  0
  4  5  2  0
  4 18  1  0
  5  6  1  0
  6  7  2  0
  7  8  1  0
  8  9  1  0
  8 18  2  0
 10  9  1  1
 10 11  2  0
 10 12  2  0
 10 13  1  0
 13 14  2  0
 13 17  1  0
 14 15  1  0
 15 16  1  0
 16 17  2  0
 19 20  2  0
 19 23  1  0
 20 21  1  0
 21 22  2  0
 22 23  1  0
M  CHG  1  15   1
M  END
