
     RDKit          3D

 14 14  0  0  0  0  0  0  0  0999 V2000
    3.9630    0.6190    0.2570 C   0  0  0  0  0  0  0  0  0  0  0  0
    3.3980    0.8500   -1.0840 C   0  0  0  0  0  0  0  0  0  0  0  0
    2.5940   -0.0070   -1.6910 C   0  0  0  0  0  0  0  0  0  0  0  0
    2.2290   -1.2660   -1.0110 C   0  0  0  0  0  0  0  0  0  0  0  0
    0.8630   -1.4320   -0.7940 O   0  0  0  0  0  0  0  0  0  0  0  0
    0.0460   -0.5910   -0.0550 C   0  0  0  0  0  0  0  0  0  0  0  0
    0.5800    0.4070    0.4640 O   0  0  0  0  0  0  0  0  0  0  0  0
   -1.3570   -0.9100    0.0710 C   0  0  0  0  0  0  0  0  0  0  0  0
   -2.2360   -0.2180    0.7310 C   0  0  0  0  0  0  0  0  0  0  0  0
   -3.7090   -0.5800    0.8450 C   0  0  0  0  0  0  0  0  0  0  0  0
   -4.2730    0.8440    0.7310 C   0  0  0  0  0  0  0  0  0  0  0  0
   -3.4660    1.5400    1.6490 O   0  0  0  0  0  0  0  0  0  0  0  0
   -2.1670    1.0080    1.5160 C   0  0  0  0  0  0  0  0  0  0  0  0
   -1.1190    1.5040    1.9950 O   0  0  0  0  0  0  0  0  0  0  0  0
  1  2  1  0
  2  3  2  3
  3  4  1  0
  4  5  1  0
  5  6  1  0
  6  7  2  0
  6  8  1  0
  8  9  2  3
  9 10  1  0
  9 13  1  0
 10 11  1  0
 11 12  1  0
 12 13  1  0
 13 14  2  0
M  END
