
     RDKit          3D

 14 14  0  0  0  0  0  0  0  0999 V2000
    4.7030    0.0060    1.1020 C   0  0  0  0  0  0  0  0  0  0  0  0
    4.4970    0.7250   -0.1920 C   0  0  0  0  0  0  0  0  0  0  0  0
    3.4190    0.2230   -0.9460 O   0  0  0  0  0  0  0  0  0  0  0  0
    2.1310    0.2340   -0.4150 C   0  0  0  0  0  0  0  0  0  0  0  0
    1.9950    0.7030    0.7340 O   0  0  0  0  0  0  0  0  0  0  0  0
    0.9730   -0.2930   -1.1960 C   0  0  0  0  0  0  0  0  0  0  0  0
   -0.1700   -0.1540   -0.4240 O   0  0  0  0  0  0  0  0  0  0  0  0
   -1.2840   -0.6380   -1.1210 C   0  0  0  0  0  0  0  0  0  0  0  0
   -2.4840   -0.4570   -0.2280 C   0  0  0  0  0  0  0  0  0  0  0  0
   -3.2580   -1.4330    0.2000 C   0  0  0  0  0  0  0  0  0  0  0  0
   -4.3130   -0.8440    1.0430 C   0  0  0  0  0  0  0  0  0  0  0  0
   -4.0400    0.6020    1.0400 C   0  0  0  0  0  0  0  0  0  0  0  0
   -2.9750    0.8060    0.2970 C   0  0  0  0  0  0  0  0  0  0  0  0
   -2.4210    2.0770    0.0670 O   0  0  0  0  0  0  0  0  0  0  0  0
  1  2  1  0
  2  3  1  0
  3  4  1  0
  4  5  2  0
  4  6  1  0
  6  7  1  0
  7  8  1  0
  8  9  1  0
  9 10  2  0
  9 13  1  0
 10 11  1  0
 11 12  1  0
 12 13  2  0
 13 14  1  0
M  END
