
     RDKit          3D

 14 14  0  0  0  0  0  0  0  0999 V2000
    5.4160   -0.2970   -0.4570 C   0  0  0  0  0  0  0  0  0  0  0  0
    4.1990   -0.1090    0.0060 C   0  0  0  0  0  0  0  0  0  0  0  0
    2.9590   -0.7860   -0.3860 C   0  0  0  0  0  0  0  0  0  0  0  0
    1.9410   -0.3220    0.3060 C   0  0  0  0  0  0  0  0  0  0  0  0
    0.5370   -0.7650    0.1840 C   0  0  0  0  0  0  0  0  0  0  0  0
   -0.2950    0.4110   -0.2110 C   0  0  0  0  0  0  0  0  0  0  0  0
   -1.7350    0.0690   -0.3600 C   0  0  0  0  0  0  0  0  0  0  0  0
   -2.0900   -1.1190   -0.1490 O   0  0  0  0  0  0  0  0  0  0  0  0
   -2.6960    0.9870   -0.7180 O   0  0  0  0  0  0  0  0  0  0  0  0
   -4.0800    0.6240   -0.8540 C   0  0  0  0  0  0  0  0  0  0  0  0
   -4.5910    0.0920    0.4680 C   0  0  0  0  0  0  0  0  0  0  0  0
    2.4660    0.6910    1.1950 C   0  0  0  0  0  0  0  0  0  0  0  0
    1.8550    1.4030    2.0420 O   0  0  0  0  0  0  0  0  0  0  0  0
    3.8360    0.8080    1.0010 O   0  0  0  0  0  0  0  0  0  0  0  0
  1  2  2  0
  2  3  1  0
  2 14  1  0
  3  4  2  0
  4  5  1  0
  4 12  1  0
  5  6  1  0
  6  7  1  0
  7  8  2  0
  7  9  1  0
  9 10  1  0
 10 11  1  0
 12 13  2  0
 12 14  1  0
M  END
