
     RDKit          3D

 14 14  0  0  0  0  0  0  0  0999 V2000
    4.8520    0.0220   -0.3450 C   0  0  0  0  0  0  0  0  0  0  0  0
    3.6740   -0.0900    0.5570 C   0  0  0  0  0  0  0  0  0  0  0  0
    3.8470   -0.3580    1.7270 O   0  0  0  0  0  0  0  0  0  0  0  0
    2.2800    0.1170    0.0770 C   0  0  0  0  0  0  0  0  0  0  0  0
    1.2890   -0.0550    1.1920 C   0  0  0  0  0  0  0  0  0  0  0  0
   -0.0320    0.1300    0.7890 O   0  0  0  0  0  0  0  0  0  0  0  0
   -0.6790   -0.6130   -0.1710 C   0  0  0  0  0  0  0  0  0  0  0  0
   -0.0800   -1.5260   -0.7490 O   0  0  0  0  0  0  0  0  0  0  0  0
   -2.0850   -0.2770   -0.4720 C   0  0  0  0  0  0  0  0  0  0  0  0
   -2.8600   -0.8800   -1.3590 C   0  0  0  0  0  0  0  0  0  0  0  0
   -4.1970   -0.2550   -1.3650 C   0  0  0  0  0  0  0  0  0  0  0  0
   -4.0970    0.8090   -0.3460 C   0  0  0  0  0  0  0  0  0  0  0  0
   -2.8760    0.7760    0.1510 C   0  0  0  0  0  0  0  0  0  0  0  0
   -2.4090    1.6400    1.1440 O   0  0  0  0  0  0  0  0  0  0  0  0
  1  2  1  0
  2  3  2  0
  2  4  1  0
  4  5  1  0
  5  6  1  0
  6  7  1  0
  7  8  2  0
  7  9  1  0
  9 10  2  0
  9 13  1  0
 10 11  1  0
 11 12  1  0
 12 13  2  0
 13 14  1  0
M  END
