
     RDKit          3D

 14 15  0  0  0  0  0  0  0  0999 V2000
    4.5860   -0.2510   -0.2580 C   0  0  0  0  0  0  0  0  0  0  0  0
    3.2070   -0.4160   -0.8880 C   0  0  0  0  0  0  0  0  0  0  0  0
    2.2720   -0.0510    0.1180 O   0  0  0  0  0  0  0  0  0  0  0  0
    0.9080   -0.0960   -0.1490 C   0  0  0  0  0  0  0  0  0  0  0  0
    0.4590   -0.4950   -1.3930 C   0  0  0  0  0  0  0  0  0  0  0  0
   -0.9000   -0.5310   -1.6340 C   0  0  0  0  0  0  0  0  0  0  0  0
   -1.7850   -0.1670   -0.6260 C   0  0  0  0  0  0  0  0  0  0  0  0
   -1.3080    0.2260    0.6020 C   0  0  0  0  0  0  0  0  0  0  0  0
    0.0470    0.2720    0.8720 C   0  0  0  0  0  0  0  0  0  0  0  0
    0.5330    0.6690    2.1130 O   0  0  0  0  0  0  0  0  0  0  0  0
   -2.2030    0.5940    1.6220 O   0  0  0  0  0  0  0  0  0  0  0  0
   -3.5080    0.0560    1.5730 C   0  0  0  0  0  0  0  0  0  0  0  0
   -4.0880    0.0650    0.1790 C   0  0  0  0  0  0  0  0  0  0  0  0
   -3.1480   -0.1880   -0.8210 O   0  0  0  0  0  0  0  0  0  0  0  0
  1  2  1  0
  2  3  1  0
  3  4  1  0
  4  5  2  0
  4  9  1  0
  5  6  1  0
  6  7  2  0
  7  8  1  0
  7 14  1  0
  8  9  2  0
  8 11  1  0
  9 10  1  0
 11 12  1  0
 12 13  1  0
 13 14  1  0
M  END
