
     RDKit          3D

 14 14  0  0  0  0  0  0  0  0999 V2000
   -4.7420    0.5430   -0.0500 C   0  0  0  0  0  0  0  0  0  0  0  0
   -3.2780    0.6920   -0.3230 C   0  0  0  0  0  0  0  0  0  0  0  0
   -2.4880   -0.2630    0.5360 C   0  0  0  0  0  0  0  0  0  0  0  0
   -0.9630   -0.0150    0.1610 C   0  0  0  0  0  0  0  0  0  0  0  0
   -0.1860   -0.9470    0.9990 C   0  0  0  0  0  0  0  0  0  0  0  0
    1.2230   -1.0130    0.9370 C   0  0  0  0  0  0  0  0  0  0  0  0
    2.2530   -0.4980    0.3410 C   0  0  0  0  0  0  0  0  0  0  0  0
    3.5430   -1.0110    0.7260 O   0  0  0  0  0  0  0  0  0  0  0  0
    4.6830   -0.5440    0.1680 C   0  0  0  0  0  0  0  0  0  0  0  0
    5.7910   -1.1780    0.1740 O   0  0  0  0  0  0  0  0  0  0  0  0
    4.6990    0.7950   -0.5130 C   0  0  0  0  0  0  0  0  0  0  0  0
    3.4830    0.9650   -1.2000 O   0  0  0  0  0  0  0  0  0  0  0  0
    2.2550    0.5250   -0.6600 C   0  0  0  0  0  0  0  0  0  0  0  0
    1.2070    1.0570   -1.0860 O   0  0  0  0  0  0  0  0  0  0  0  0
  1  2  1  0
  2  3  1  0
  3  4  1  0
  4  5  1  0
  5  6  1  0
  6  7  2  3
  7  8  1  0
  7 13  1  0
  8  9  1  0
  9 10  2  0
  9 11  1  0
 11 12  1  0
 12 13  1  0
 13 14  2  0
M  END
