
     RDKit          3D

 14 15  0  0  0  0  0  0  0  0999 V2000
    4.4490    1.4570   -0.0670 O   0  0  0  0  0  0  0  0  0  0  0  0
    3.8470    0.3990   -0.3580 C   0  0  0  0  0  0  0  0  0  0  0  0
    4.5790   -0.7960   -0.3130 O   0  0  0  0  0  0  0  0  0  0  0  0
    2.4030    0.4160   -0.7350 C   0  0  0  0  0  0  0  0  0  0  0  0
    1.6190   -0.2720    0.3440 C   0  0  0  0  0  0  0  0  0  0  0  0
    0.1560   -0.3010    0.0610 C   0  0  0  0  0  0  0  0  0  0  0  0
   -0.4270   -1.3240   -0.6770 C   0  0  0  0  0  0  0  0  0  0  0  0
   -1.7720   -1.3820   -0.9550 C   0  0  0  0  0  0  0  0  0  0  0  0
   -2.6230   -0.4020   -0.5010 C   0  0  0  0  0  0  0  0  0  0  0  0
   -2.0510    0.6300    0.2400 C   0  0  0  0  0  0  0  0  0  0  0  0
   -0.7010    0.6810    0.5150 C   0  0  0  0  0  0  0  0  0  0  0  0
   -3.0430    1.5390    0.6240 O   0  0  0  0  0  0  0  0  0  0  0  0
   -4.2720    0.8360    0.4390 C   0  0  0  0  0  0  0  0  0  0  0  0
   -3.9780   -0.1220   -0.5710 O   0  0  0  0  0  0  0  0  0  0  0  0
  1  2  2  0
  2  3  1  0
  2  4  1  0
  4  5  1  0
  5  6  1  0
  6  7  2  0
  6 11  1  0
  7  8  1  0
  8  9  2  0
  9 10  1  0
  9 14  1  0
 10 11  2  0
 10 12  1  0
 12 13  1  0
 13 14  1  0
M  END
