
     RDKit          3D

 14 14  0  0  0  0  0  0  0  0999 V2000
    3.2270   -1.6690    0.6110 C   0  0  0  0  0  0  0  0  0  0  0  0
    2.6780   -0.8880   -0.5800 C   0  0  0  0  0  0  0  0  0  0  0  0
    1.2630   -0.6060   -0.3750 C   0  0  0  0  0  0  0  0  0  0  0  0
    0.7210    0.5850   -0.3090 C   0  0  0  0  0  0  0  0  0  0  0  0
    1.4030    1.8760   -0.4220 C   0  0  0  0  0  0  0  0  0  0  0  0
    2.6250    2.0870   -0.6020 O   0  0  0  0  0  0  0  0  0  0  0  0
    0.3910    2.8370   -0.2850 O   0  0  0  0  0  0  0  0  0  0  0  0
   -0.8370    2.2300   -0.1000 C   0  0  0  0  0  0  0  0  0  0  0  0
   -2.1410    2.9640    0.0820 C   0  0  0  0  0  0  0  0  0  0  0  0
   -0.6860    0.9140   -0.1070 C   0  0  0  0  0  0  0  0  0  0  0  0
   -1.7580   -0.0490    0.0600 C   0  0  0  0  0  0  0  0  0  0  0  0
   -2.9470    0.3880    0.2280 O   0  0  0  0  0  0  0  0  0  0  0  0
   -1.6350   -1.4120    0.0560 O   0  0  0  0  0  0  0  0  0  0  0  0
   -2.7160   -2.3110    0.2240 C   0  0  0  0  0  0  0  0  0  0  0  0
  1  2  1  0
  2  3  1  0
  3  4  2  3
  4  5  1  0
  4 10  1  0
  5  6  2  0
  5  7  1  0
  7  8  1  0
  8  9  1  0
  8 10  2  0
 10 11  1  0
 11 12  2  0
 11 13  1  0
 13 14  1  0
M  END
