
     RDKit          3D

 17 18  0  0  0  0  0  0  0  0999 V2000
    5.8740   -0.6460    0.0410 C   0  0  0  0  0  0  0  0  0  0  0  0
    4.9480   -0.3620    1.0510 O   0  0  0  0  0  0  0  0  0  0  0  0
    3.6020   -0.3150    0.7380 C   0  0  0  0  0  0  0  0  0  0  0  0
    3.1720   -0.5430   -0.5500 C   0  0  0  0  0  0  0  0  0  0  0  0
    1.8230   -0.4920   -0.8490 C   0  0  0  0  0  0  0  0  0  0  0  0
    0.8720   -0.2090    0.1440 C   0  0  0  0  0  0  0  0  0  0  0  0
   -0.4760   -0.2040   -0.2130 N   0  0  0  0  0  0  0  0  0  0  0  0
   -1.5080    0.5310    0.3900 C   0  0  0  0  0  0  0  0  0  0  0  0
   -1.1510    1.5650    1.6200 S   0  0  0  0  0  0  0  0  0  0  0  0
   -2.9130    0.4410   -0.0630 C   0  0  0  0  0  0  0  0  0  0  0  0
   -3.8560    1.1560    0.5370 C   0  0  0  0  0  0  0  0  0  0  0  0
   -5.2850    1.1280    0.1500 C   0  0  0  0  0  0  0  0  0  0  0  0
   -5.5290    0.2660   -0.9150 O   0  0  0  0  0  0  0  0  0  0  0  0
   -4.5820   -0.4900   -1.5630 C   0  0  0  0  0  0  0  0  0  0  0  0
   -3.3010   -0.4140   -1.1570 C   0  0  0  0  0  0  0  0  0  0  0  0
    1.3270    0.0100    1.4040 C   0  0  0  0  0  0  0  0  0  0  0  0
    2.6910   -0.0370    1.7260 C   0  0  0  0  0  0  0  0  0  0  0  0
  1  2  1  0
  2  3  1  0
  3  4  2  0
  3 17  1  0
  4  5  1  0
  5  6  2  0
  6  7  1  0
  6 16  1  0
  7  8  1  0
  8  9  2  0
  8 10  1  0
 10 11  2  0
 10 15  1  0
 11 12  1  0
 12 13  1  0
 13 14  1  0
 14 15  2  0
 16 17  2  0
M  END
