
     RDKit          3D

 12 13  0  0  0  0  0  0  0  0999 V2000
    3.3510   -0.7080    0.1760 O   0  0  0  0  0  0  0  0  0  0  0  0
    2.3770    0.0760    0.2030 C   0  0  0  0  0  0  0  0  0  0  0  0
    2.6700    1.4500    0.2700 O   0  0  0  0  0  0  0  0  0  0  0  0
    0.9930   -0.3780    0.1680 C   0  0  0  0  0  0  0  0  0  0  0  0
    0.7690   -1.7340    0.1030 C   0  0  0  0  0  0  0  0  0  0  0  0
   -0.5440   -2.1890    0.0690 C   0  0  0  0  0  0  0  0  0  0  0  0
   -1.6030   -1.3040    0.1000 C   0  0  0  0  0  0  0  0  0  0  0  0
   -1.3630    0.0470    0.1660 C   0  0  0  0  0  0  0  0  0  0  0  0
   -2.1520    1.1720    0.2110 C   0  0  0  0  0  0  0  0  0  0  0  0
   -1.3270    2.2710    0.2700 C   0  0  0  0  0  0  0  0  0  0  0  0
   -0.0820    1.8320    0.2620 O   0  0  0  0  0  0  0  0  0  0  0  0
   -0.0490    0.5210    0.2010 C   0  0  0  0  0  0  0  0  0  0  0  0
  1  2  2  0
  2  3  1  0
  2  4  1  0
  4  5  2  0
  4 12  1  0
  5  6  1  0
  6  7  2  0
  7  8  1  0
  8  9  1  0
  8 12  2  0
  9 10  2  0
 10 11  1  0
 11 12  1  0
M  END
