
     RDKit          3D

 17 18  0  0  0  0  0  0  0  0999 V2000
    3.7820   -1.4480   -0.7030 C   0  0  0  0  0  0  0  0  0  0  0  0
    2.9320   -1.4300    0.5270 C   0  0  0  0  0  0  0  0  0  0  0  0
    1.5850   -0.8840    0.3580 C   0  0  0  0  0  0  0  0  0  0  0  0
    0.5000   -1.7470    0.2820 C   0  0  0  0  0  0  0  0  0  0  0  0
   -0.7840   -1.2970    0.1250 C   0  0  0  0  0  0  0  0  0  0  0  0
   -1.0290    0.0480    0.0380 C   0  0  0  0  0  0  0  0  0  0  0  0
    0.0600    0.9040    0.1140 C   0  0  0  0  0  0  0  0  0  0  0  0
    1.3620    0.4760    0.2720 C   0  0  0  0  0  0  0  0  0  0  0  0
    2.6550    1.6400    0.3590 S   0  0  1  0  0  0  0  0  0  0  0  0
    1.9740    3.2440    0.2300 N   0  0  0  0  0  0  0  0  0  0  0  0
    3.3910    1.6070    1.6600 O   0  0  0  0  0  0  0  0  0  0  0  0
    3.5920    1.5360   -0.8340 O   0  0  0  0  0  0  0  0  0  0  0  0
   -2.4920    0.3040   -0.1270 C   0  0  2  0  0  0  0  0  0  0  0  0
   -2.7070    1.4780   -1.0500 C   0  0  0  0  0  0  0  0  0  0  0  0
   -3.1800    0.5050    1.2050 C   0  0  0  0  0  0  0  0  0  0  0  0
   -2.9760   -0.9940   -0.7210 C   0  0  0  0  0  0  0  0  0  0  0  0
   -2.0900   -2.0000    0.0150 C   0  0  0  0  0  0  0  0  0  0  0  0
  1  2  1  0
  2  3  1  0
  3  4  2  0
  3  8  1  0
  4  5  1  0
  5  6  2  0
  5 17  1  0
  6  7  1  0
  6 13  1  0
  7  8  2  0
  8  9  1  0
  9 10  1  6
  9 11  2  0
  9 12  2  0
 13 14  1  6
 13 15  1  0
 13 16  1  0
 16 17  1  0
M  END
