
     RDKit          3D

 17 18  0  0  0  0  0  0  0  0999 V2000
    3.9390    1.1170    0.4550 C   0  0  0  0  0  0  0  0  0  0  0  0
    2.8420    0.2200    0.0050 C   0  0  0  0  0  0  0  0  0  0  0  0
    3.1400   -0.8580   -0.8060 C   0  0  0  0  0  0  0  0  0  0  0  0
    2.1250   -1.7010   -1.2310 C   0  0  0  0  0  0  0  0  0  0  0  0
    0.8290   -1.4340   -0.8270 C   0  0  0  0  0  0  0  0  0  0  0  0
   -0.2100   -2.2470   -1.2230 C   0  0  0  0  0  0  0  0  0  0  0  0
    0.0400   -3.2420   -1.9680 O   0  0  0  0  0  0  0  0  0  0  0  0
   -1.4750   -2.0140   -0.8430 N   0  0  0  0  0  0  0  0  0  0  0  0
   -1.7530   -0.9510   -0.0460 C   0  0  0  0  0  0  0  0  0  0  0  0
   -3.1980   -0.8270    0.3270 C   0  0  0  0  0  0  0  0  0  0  0  0
   -3.9730   -1.8530   -0.2470 O   0  0  0  0  0  0  0  0  0  0  0  0
   -0.7840   -0.0760    0.4040 C   0  0  0  0  0  0  0  0  0  0  0  0
   -1.1200    1.0520    1.2290 C   0  0  0  0  0  0  0  0  0  0  0  0
   -1.6500    2.2780    0.5220 C   0  0  0  0  0  0  0  0  0  0  0  0
   -0.4310    2.9310   -0.6870 S   0  0  0  0  0  0  0  0  0  0  0  0
    0.5270   -0.3590   -0.0180 C   0  0  0  0  0  0  0  0  0  0  0  0
    1.5210    0.4680    0.4000 C   0  0  0  0  0  0  0  0  0  0  0  0
  1  2  1  0
  2  3  2  0
  2 17  1  0
  3  4  1  0
  4  5  2  0
  5  6  1  0
  5 16  1  0
  6  7  2  0
  6  8  1  0
  8  9  1  0
  9 10  1  0
  9 12  2  0
 10 11  1  0
 12 13  1  0
 12 16  1  0
 13 14  1  0
 14 15  1  0
 16 17  2  0
M  END
