
     RDKit          3D

 17 18  0  0  0  0  0  0  0  0999 V2000
    0.2500    0.5080    2.6930 C   0  0  0  0  0  0  0  0  0  0  0  0
    0.0370    0.7760    1.2450 C   0  0  0  0  0  0  0  0  0  0  0  0
   -0.9800    0.2760    0.5510 C   0  0  0  0  0  0  0  0  0  0  0  0
   -1.9640   -0.5900    1.2250 C   0  0  0  0  0  0  0  0  0  0  0  0
   -3.2510   -0.5110    0.3800 C   0  0  0  0  0  0  0  0  0  0  0  0
   -3.3560    0.9430   -0.0930 C   0  0  0  0  0  0  0  0  0  0  0  0
   -2.3590    1.0570   -1.2390 C   0  0  0  0  0  0  0  0  0  0  0  0
   -2.5670    1.4960   -2.4670 C   0  0  0  0  0  0  0  0  0  0  0  0
   -0.9460    1.3340   -3.2990 S   0  0  0  0  0  0  0  0  0  0  0  0
   -0.1480    0.6560   -1.8170 C   0  0  0  0  0  0  0  0  0  0  0  0
    1.2860    0.3140   -1.8190 C   0  0  0  0  0  0  0  0  0  0  0  0
    1.9940    0.7080   -2.8270 O   0  0  0  0  0  0  0  0  0  0  0  0
    1.9720   -0.4010   -0.8560 N   0  0  0  0  0  0  0  0  0  0  0  0
    3.4330   -0.6290   -1.0320 C   0  0  0  0  0  0  0  0  0  0  0  0
    3.9720   -1.4190    0.1150 C   0  0  0  0  0  0  0  0  0  0  0  0
    3.2790   -2.6510    0.1260 O   0  0  0  0  0  0  0  0  0  0  0  0
   -1.1170    0.6250   -0.8950 C   0  0  0  0  0  0  0  0  0  0  0  0
  1  2  1  0
  2  3  2  3
  3  4  1  0
  3 17  1  0
  4  5  1  0
  5  6  1  0
  6  7  1  0
  7  8  2  0
  7 17  1  0
  8  9  1  0
  9 10  1  0
 10 11  1  0
 10 17  2  0
 11 12  2  0
 11 13  1  0
 13 14  1  0
 14 15  1  0
 15 16  1  0
M  END
