
     RDKit          3D

 17 18  0  0  0  0  0  0  0  0999 V2000
   -4.8620   -1.2420   -0.3220 C   0  0  0  0  0  0  0  0  0  0  0  0
   -3.4630   -0.8120   -0.1490 C   0  0  0  0  0  0  0  0  0  0  0  0
   -2.4480   -1.7720   -0.2770 C   0  0  0  0  0  0  0  0  0  0  0  0
   -1.1810   -1.3910   -0.1210 C   0  0  0  0  0  0  0  0  0  0  0  0
    0.4400   -2.2760   -0.1960 S   0  0  0  0  0  0  0  0  0  0  0  0
    1.4830   -0.7370    0.1760 C   0  0  0  0  0  0  0  0  0  0  0  0
    2.8960   -1.0690    0.1980 C   0  0  0  0  0  0  0  0  0  0  0  0
    3.7410    0.1170    0.4870 C   0  0  2  0  0  0  0  0  0  0  0  0
    3.5050    1.1600   -0.5950 C   0  0  0  0  0  0  0  0  0  0  0  0
    5.2030   -0.3060    0.3570 C   0  0  0  0  0  0  0  0  0  0  0  0
    3.5700    0.6430    1.7500 O   0  0  0  0  0  0  0  0  0  0  0  0
    0.5740    0.0430    0.2740 N   0  0  0  0  0  0  0  0  0  0  0  0
   -0.7040   -0.1120    0.1630 C   0  0  0  0  0  0  0  0  0  0  0  0
   -1.7320    0.8430    0.2890 C   0  0  0  0  0  0  0  0  0  0  0  0
   -3.0370    0.4620    0.1310 C   0  0  0  0  0  0  0  0  0  0  0  0
   -4.1430    1.4830    0.2650 C   0  0  0  0  0  0  0  0  0  0  0  0
   -3.5870    2.7410    0.5510 O   0  0  0  0  0  0  0  0  0  0  0  0
  1  2  1  0
  2  3  2  0
  2 15  1  0
  3  4  1  0
  4  5  1  0
  4 13  2  0
  5  6  1  0
  6  7  1  0
  6 12  2  0
  7  8  1  0
  8  9  1  6
  8 10  1  0
  8 11  1  0
 12 13  1  0
 13 14  1  0
 14 15  2  0
 15 16  1  0
 16 17  1  0
M  END
