
     RDKit          3D

 17 18  0  0  0  0  0  0  0  0999 V2000
    5.6240    1.3640   -0.1160 N   0  0  0  0  0  0  0  0  0  0  0  0
    5.2510    0.4160   -1.0970 C   0  0  0  0  0  0  0  0  0  0  0  0
    6.1480   -0.0280   -1.8550 O   0  0  0  0  0  0  0  0  0  0  0  0
    3.8660   -0.0250   -1.2160 C   0  0  0  0  0  0  0  0  0  0  0  0
    2.9500    0.4630   -0.4020 C   0  0  0  0  0  0  0  0  0  0  0  0
    1.5660    0.0270   -0.5150 C   0  0  0  0  0  0  0  0  0  0  0  0
    1.0940   -0.9020   -1.4470 C   0  0  0  0  0  0  0  0  0  0  0  0
   -0.2560   -1.0050   -1.1890 C   0  0  0  0  0  0  0  0  0  0  0  0
   -0.5620   -0.1620   -0.1400 C   0  0  0  0  0  0  0  0  0  0  0  0
   -1.9040   -0.0010    0.4180 C   0  0  0  0  0  0  0  0  0  0  0  0
   -2.1580    0.8550    1.4690 C   0  0  0  0  0  0  0  0  0  0  0  0
   -3.4330    1.0060    1.9960 C   0  0  0  0  0  0  0  0  0  0  0  0
   -4.4990    0.2990    1.4840 C   0  0  0  0  0  0  0  0  0  0  0  0
   -6.1580    0.4920    2.1670 S   0  0  0  0  0  0  0  0  0  0  0  0
   -4.2570   -0.5600    0.4340 C   0  0  0  0  0  0  0  0  0  0  0  0
   -2.9770   -0.7020   -0.0850 C   0  0  0  0  0  0  0  0  0  0  0  0
    0.5480    0.4240    0.2220 O   0  0  0  0  0  0  0  0  0  0  0  0
  1  2  1  0
  2  3  2  0
  2  4  1  0
  4  5  2  3
  5  6  1  0
  6  7  2  0
  6 17  1  0
  7  8  1  0
  8  9  2  0
  9 10  1  0
  9 17  1  0
 10 11  2  0
 10 16  1  0
 11 12  1  0
 12 13  2  0
 13 14  1  0
 13 15  1  0
 15 16  2  0
M  END
