
     RDKit          3D

 16 17  0  0  0  0  0  0  0  0999 V2000
   -2.4340    1.9050    0.1570 C   0  0  0  0  0  0  0  0  0  0  0  0
   -2.9440    0.5020   -0.1210 C   0  0  0  0  0  0  0  0  0  0  0  0
   -2.1940   -0.5300   -0.2500 C   0  0  0  0  0  0  0  0  0  0  0  0
   -0.7140   -0.7040   -0.1790 C   0  0  0  0  0  0  0  0  0  0  0  0
   -0.2520   -1.8930   -0.3560 O   0  0  0  0  0  0  0  0  0  0  0  0
    0.2490    0.2750    0.0580 N   0  0  0  0  0  0  0  0  0  0  0  0
    1.6560    0.0750    0.1090 C   0  0  0  0  0  0  0  0  0  0  0  0
    2.2900   -1.0080   -0.4050 C   0  0  0  0  0  0  0  0  0  0  0  0
    3.6830   -1.1150   -0.2790 C   0  0  0  0  0  0  0  0  0  0  0  0
    4.4470   -0.1760    0.3400 C   0  0  0  0  0  0  0  0  0  0  0  0
    5.8340   -0.3290    0.4390 O   0  0  0  0  0  0  0  0  0  0  0  0
    3.7950    0.9280    0.8610 C   0  0  0  0  0  0  0  0  0  0  0  0
    2.4400    1.0460    0.7470 C   0  0  0  0  0  0  0  0  0  0  0  0
   -2.9430   -1.8340   -0.5430 C   0  0  0  0  0  0  0  0  0  0  0  0
   -4.5340   -1.4350    0.2310 S   0  0  0  0  0  0  0  0  0  0  0  0
   -4.4230    0.3410   -0.2430 C   0  0  0  0  0  0  0  0  0  0  0  0
  1  2  1  0
  2  3  2  0
  2 16  1  0
  3  4  1  0
  3 14  1  0
  4  5  2  0
  4  6  1  0
  6  7  1  0
  7  8  2  0
  7 13  1  0
  8  9  1  0
  9 10  2  0
 10 11  1  0
 10 12  1  0
 12 13  2  0
 14 15  1  0
 15 16  1  0
M  END
