
     RDKit          3D

 12 13  0  0  0  0  0  0  0  0999 V2000
   -2.8140   -0.3510    0.7760 C   0  0  0  0  0  0  0  0  0  0  0  0
   -2.2600   -0.1100   -0.6400 C   0  0  0  0  0  0  0  0  0  0  0  0
   -0.9550    0.5540   -0.5230 C   0  0  0  0  0  0  0  0  0  0  0  0
   -0.7540    1.8410   -0.6880 O   0  0  0  0  0  0  0  0  0  0  0  0
    0.5080    2.1300   -0.5190 C   0  0  0  0  0  0  0  0  0  0  0  0
    1.2070    0.9720   -0.2200 C   0  0  0  0  0  0  0  0  0  0  0  0
    2.5480    0.7430    0.0390 C   0  0  0  0  0  0  0  0  0  0  0  0
    3.3650    1.7130    0.0290 O   0  0  0  0  0  0  0  0  0  0  0  0
    2.9240   -0.5200    0.2950 N   0  0  0  0  0  0  0  0  0  0  0  0
    2.0130   -1.5290    0.2940 C   0  0  0  0  0  0  0  0  0  0  0  0
    0.6820   -1.3230    0.0390 C   0  0  0  0  0  0  0  0  0  0  0  0
    0.2600   -0.0250   -0.2270 C   0  0  0  0  0  0  0  0  0  0  0  0
  1  2  1  0
  2  3  1  0
  3  4  1  0
  3 12  2  0
  4  5  1  0
  5  6  2  0
  6  7  1  0
  6 12  1  0
  7  8  2  0
  7  9  1  0
  9 10  1  0
 10 11  2  0
 11 12  1  0
M  END
