
     RDKit          3D

 12 13  0  0  0  0  0  0  0  0999 V2000
   -0.3410   -2.2300    0.4340 O   0  0  0  0  0  0  0  0  0  0  0  0
   -0.9750   -1.1670    0.2200 C   0  0  0  0  0  0  0  0  0  0  0  0
   -2.3300   -1.2540    0.1600 N   0  0  0  0  0  0  0  0  0  0  0  0
   -3.1060   -0.1670   -0.0660 C   0  0  0  0  0  0  0  0  0  0  0  0
   -2.4940    1.0560   -0.2380 C   0  0  0  0  0  0  0  0  0  0  0  0
   -1.1200    1.1410   -0.1760 C   0  0  0  0  0  0  0  0  0  0  0  0
   -0.3240    0.0290    0.0550 C   0  0  0  0  0  0  0  0  0  0  0  0
    1.1470    0.1600    0.1140 C   0  0  0  0  0  0  0  0  0  0  0  0
    2.0670   -0.8070    0.3270 C   0  0  0  0  0  0  0  0  0  0  0  0
    3.3150   -0.2010    0.2940 C   0  0  0  0  0  0  0  0  0  0  0  0
    3.0760    1.1340    0.0570 C   0  0  0  0  0  0  0  0  0  0  0  0
    1.7970    1.2870   -0.0400 O   0  0  0  0  0  0  0  0  0  0  0  0
  1  2  2  0
  2  3  1  0
  2  7  1  0
  3  4  1  0
  4  5  2  0
  5  6  1  0
  6  7  2  0
  7  8  1  0
  8  9  2  0
  8 12  1  0
  9 10  1  0
 10 11  2  0
 11 12  1  0
M  END
