
     RDKit          3D

 12 13  0  0  0  0  0  0  0  0999 V2000
   -1.3050   -2.2910    1.0590 C   0  0  0  0  0  0  0  0  0  0  0  0
   -1.5590   -1.0540    0.7200 C   0  0  0  0  0  0  0  0  0  0  0  0
   -0.6270   -0.1160    0.1280 C   0  0  0  0  0  0  0  0  0  0  0  0
   -1.0570    1.1770   -0.1780 C   0  0  0  0  0  0  0  0  0  0  0  0
   -2.4090    1.5190    0.1110 N   0  0  0  0  0  0  0  0  0  0  0  0
   -0.2160    2.1140   -0.7430 C   0  0  0  0  0  0  0  0  0  0  0  0
    1.0950    1.8190   -1.0360 C   0  0  0  0  0  0  0  0  0  0  0  0
    1.5280    0.5410   -0.7360 C   0  0  0  0  0  0  0  0  0  0  0  0
    0.6890   -0.4120   -0.1660 C   0  0  0  0  0  0  0  0  0  0  0  0
    1.3900   -1.5950    0.0220 O   0  0  0  0  0  0  0  0  0  0  0  0
    2.7610   -1.2400   -0.0640 C   0  0  0  0  0  0  0  0  0  0  0  0
    2.7720   -0.0750   -0.9010 O   0  0  0  0  0  0  0  0  0  0  0  0
  1  2  2  0
  2  3  1  0
  3  4  2  0
  3  9  1  0
  4  5  1  0
  4  6  1  0
  6  7  2  0
  7  8  1  0
  8  9  2  0
  8 12  1  0
  9 10  1  0
 10 11  1  0
 11 12  1  0
M  END
