
     RDKit          3D

 12 13  0  0  0  0  0  0  0  0999 V2000
    3.2070    1.3620    0.3190 O   0  0  0  0  0  0  0  0  0  0  0  0
    2.0990    0.7520    0.3150 C   0  0  0  0  0  0  0  0  0  0  0  0
    0.9130    1.3830    0.2670 N   0  0  0  0  0  0  0  0  0  0  0  0
   -0.2600    0.7230    0.2630 C   0  0  0  0  0  0  0  0  0  0  0  0
   -1.4380    1.4460    0.2130 C   0  0  0  0  0  0  0  0  0  0  0  0
   -2.6160    0.7290    0.2100 C   0  0  0  0  0  0  0  0  0  0  0  0
   -2.6410   -0.6490    0.2550 C   0  0  0  0  0  0  0  0  0  0  0  0
   -1.4600   -1.3520    0.3050 C   0  0  0  0  0  0  0  0  0  0  0  0
   -0.2520   -0.6540    0.3090 C   0  0  0  0  0  0  0  0  0  0  0  0
    0.9550   -1.3110    0.3570 C   0  0  0  0  0  0  0  0  0  0  0  0
    2.1290   -0.6310    0.3610 C   0  0  0  0  0  0  0  0  0  0  0  0
    3.3480   -1.3070    0.4110 O   0  0  0  0  0  0  0  0  0  0  0  0
  1  2  2  0
  2  3  1  0
  2 11  1  0
  3  4  1  0
  4  5  2  0
  4  9  1  0
  5  6  1  0
  6  7  2  0
  7  8  1  0
  8  9  2  0
  9 10  1  0
 10 11  2  0
 11 12  1  0
M  END
