
     RDKit          3D

 12 13  0  0  0  0  0  0  0  0999 V2000
    4.1870   -0.1340    0.8630 O   0  0  0  0  0  0  0  0  0  0  0  0
    2.9830   -0.0540    0.5040 C   0  0  0  0  0  0  0  0  0  0  0  0
    2.1770   -1.0240   -0.1570 N   0  0  0  0  0  0  0  0  0  0  0  0
    0.8660   -0.4870   -0.3630 C   0  0  0  0  0  0  0  0  0  0  0  0
    0.7860    0.7390    0.1140 C   0  0  0  0  0  0  0  0  0  0  0  0
   -0.3530    1.6960    0.1350 C   0  0  0  0  0  0  0  0  0  0  0  0
   -1.6310    1.0410   -0.2570 C   0  0  0  0  0  0  0  0  0  0  0  0
   -1.8100   -0.2000    0.5940 C   0  0  0  0  0  0  0  0  0  0  0  0
   -1.4000   -1.4390   -0.1220 C   0  0  0  0  0  0  0  0  0  0  0  0
   -0.2110   -1.2560   -1.0290 C   0  0  0  0  0  0  0  0  0  0  0  0
    2.0980    1.1010    0.6900 C   0  0  0  0  0  0  0  0  0  0  0  0
    2.4220    2.1850    1.2400 O   0  0  0  0  0  0  0  0  0  0  0  0
  1  2  2  0
  2  3  1  0
  2 11  1  0
  3  4  1  0
  4  5  2  0
  4 10  1  0
  5  6  1  0
  5 11  1  0
  6  7  1  0
  7  8  1  0
  8  9  1  0
  9 10  1  0
 11 12  2  0
M  END
