
     RDKit          3D

 12 13  0  0  0  0  0  0  0  0999 V2000
    0.4770   -1.7960   -0.7440 O   0  0  0  0  0  0  0  0  0  0  0  0
    0.1680   -0.6930   -0.2270 C   0  0  0  0  0  0  0  0  0  0  0  0
    1.1580    0.2640    0.0170 N   0  0  0  0  0  0  0  0  0  0  0  0
    2.5690    0.0750   -0.2900 C   0  0  1  0  0  0  0  0  0  0  0  0
    3.2230    1.3260   -0.8640 C   0  0  0  0  0  0  0  0  0  0  0  0
    3.6170    0.7640    0.4910 C   0  0  0  0  0  0  0  0  0  0  0  0
   -1.2500   -0.4380    0.1090 C   0  0  0  0  0  0  0  0  0  0  0  0
   -1.7620    0.6490    0.6510 C   0  0  0  0  0  0  0  0  0  0  0  0
   -3.2160    0.5130    0.8290 C   0  0  0  0  0  0  0  0  0  0  0  0
   -3.5050   -0.8370    0.3040 C   0  0  0  0  0  0  0  0  0  0  0  0
   -2.3610   -1.3550   -0.0990 C   0  0  0  0  0  0  0  0  0  0  0  0
   -2.2720   -2.6440   -0.6580 O   0  0  0  0  0  0  0  0  0  0  0  0
  1  2  2  0
  2  3  1  0
  2  7  1  0
  4  3  1  1
  4  5  1  0
  4  6  1  0
  5  6  1  0
  7  8  2  0
  7 11  1  0
  8  9  1  0
  9 10  1  0
 10 11  2  0
 11 12  1  0
M  END
