
     RDKit          3D

 17 19  0  0  0  0  0  0  0  0999 V2000
   -3.3770    0.6810    0.0270 C   0  0  0  0  0  0  0  0  0  0  0  0
   -2.2320   -0.2190    0.0700 N   0  0  0  0  0  0  0  0  0  0  0  0
   -2.4610   -1.6220   -0.0540 C   0  0  0  0  0  0  0  0  0  0  0  0
   -1.2590   -2.4340   -0.4190 C   0  0  0  0  0  0  0  0  0  0  0  0
   -0.1460   -1.6090   -0.9520 C   0  0  0  0  0  0  0  0  0  0  0  0
    0.5420   -1.9250   -1.9490 O   0  0  0  0  0  0  0  0  0  0  0  0
    0.1610   -0.3870   -0.3030 N   0  0  0  0  0  0  0  0  0  0  0  0
    1.5690   -0.1270   -0.2920 C   0  0  0  0  0  0  0  0  0  0  0  0
    2.4710   -0.9390   -0.7650 C   0  0  0  0  0  0  0  0  0  0  0  0
    3.8050   -0.2630   -0.5470 C   0  0  0  0  0  0  0  0  0  0  0  0
    3.4720    1.0000    0.1190 C   0  0  0  0  0  0  0  0  0  0  0  0
    2.1660    1.0840    0.2680 C   0  0  0  0  0  0  0  0  0  0  0  0
    1.4810    2.2070    0.9270 C   0  0  0  0  0  0  0  0  0  0  0  0
    0.1900    2.3680    1.1640 C   0  0  0  0  0  0  0  0  0  0  0  0
   -0.1960    3.8620    1.9810 Cl  0  0  0  0  0  0  0  0  0  0  0  0
   -0.9540    1.5260    0.8470 C   0  0  0  0  0  0  0  0  0  0  0  0
   -0.9460    0.3660    0.2420 C   0  0  0  0  0  0  0  0  0  0  0  0
  1  2  1  0
  2  3  1  0
  2 17  1  0
  3  4  1  0
  4  5  1  0
  5  6  2  0
  5  7  1  0
  7  8  1  0
  7 17  1  0
  8  9  2  0
  8 12  1  0
  9 10  1  0
 10 11  1  0
 11 12  2  0
 12 13  1  0
 13 14  2  0
 14 15  1  0
 14 16  1  0
 16 17  2  0
M  END
