
     RDKit          3D

 23 25  0  0  0  0  0  0  0  0999 V2000
   -6.7740   -0.7410    0.1790 C   0  0  0  0  0  0  0  0  0  0  0  0
   -5.5620   -1.5120    0.3750 N   0  0  0  0  0  0  0  0  0  0  0  0
   -4.3120   -0.8450    0.3510 C   0  0  0  0  0  0  0  0  0  0  0  0
   -3.1830   -1.6230    0.5430 C   0  0  0  0  0  0  0  0  0  0  0  0
   -1.8410   -1.2420    0.5280 C   0  0  0  0  0  0  0  0  0  0  0  0
   -1.3240   -0.0040    0.2180 C   0  0  0  0  0  0  0  0  0  0  0  0
   -0.0540    0.1120    0.3220 N   0  0  0  0  0  0  0  0  0  0  0  0
    1.0220   -1.1670    0.8170 S   0  0  0  0  0  0  0  0  0  0  0  0
    2.6680   -0.9720    0.1360 C   0  0  0  0  0  0  0  0  0  0  0  0
    3.7130   -0.8840    0.9160 C   0  0  0  0  0  0  0  0  0  0  0  0
    5.0550   -0.7250    0.3690 C   0  0  0  0  0  0  0  0  0  0  0  0
    5.3140   -0.6570   -0.9780 C   0  0  0  0  0  0  0  0  0  0  0  0
    6.6400   -0.5040   -1.4010 C   0  0  0  0  0  0  0  0  0  0  0  0
    7.6700   -0.4210   -0.5450 N   0  0  0  0  0  0  0  0  0  0  0  0
    7.4310   -0.4850    0.7590 C   0  0  0  0  0  0  0  0  0  0  0  0
    6.1540   -0.6350    1.2350 C   0  0  0  0  0  0  0  0  0  0  0  0
   -1.9710    1.1400   -0.1910 C   0  0  0  0  0  0  0  0  0  0  0  0
   -1.0960    2.1370   -0.6030 C   0  0  0  0  0  0  0  0  0  0  0  0
   -1.5670    3.3570   -1.0470 C   0  0  0  0  0  0  0  0  0  0  0  0
   -2.9420    3.5220   -1.0560 C   0  0  0  0  0  0  0  0  0  0  0  0
   -3.7810    2.5320   -0.6480 N   0  0  0  0  0  0  0  0  0  0  0  0
   -3.3380    1.3440   -0.2150 C   0  0  0  0  0  0  0  0  0  0  0  0
   -4.3170    0.4930    0.1460 N   0  0  0  0  0  0  0  0  0  0  0  0
  1  2  1  0
  2  3  1  0
  3  4  1  0
  3 23  2  0
  4  5  2  0
  5  6  1  0
  6  7  2  3
  6 17  1  0
  7  8  1  0
  8  9  1  0
  9 10  2  3
 10 11  1  0
 11 12  2  0
 11 16  1  0
 12 13  1  0
 13 14  2  0
 14 15  1  0
 15 16  2  0
 17 18  2  0
 17 22  1  0
 18 19  1  0
 19 20  2  0
 20 21  1  0
 21 22  2  0
 22 23  1  0
M  END
