
     RDKit          3D

 23 25  0  0  0  0  0  0  0  0999 V2000
    4.1010   -1.3170    1.4630 C   0  0  0  0  0  0  0  0  0  0  0  0
    3.6090   -1.6060    0.0720 C   0  0  2  0  0  0  0  0  0  0  0  0
    4.8000   -1.8020   -0.8560 C   0  0  0  0  0  0  0  0  0  0  0  0
    2.7110   -0.5860   -0.4650 N   0  0  0  0  0  0  0  0  0  0  0  0
    1.5240   -0.7990   -1.1140 C   0  0  0  0  0  0  0  0  0  0  0  0
    0.9870   -2.1730   -1.3280 C   0  0  0  0  0  0  0  0  0  0  0  0
   -0.1720   -2.4920    0.0570 S   0  0  0  0  0  0  0  0  0  0  0  0
   -1.6060   -1.4490   -0.2300 C   0  0  0  0  0  0  0  0  0  0  0  0
   -2.6290   -1.1590    0.6210 N   0  0  0  0  0  0  0  0  0  0  0  0
   -3.4940   -0.3020    0.0280 C   0  0  0  0  0  0  0  0  0  0  0  0
   -4.7500    0.2960    0.6040 C   0  0  1  0  0  0  0  0  0  0  0  0
   -4.8670    1.7150    0.1230 C   0  0  0  0  0  0  0  0  0  0  0  0
   -5.9190   -0.5330    0.1530 C   0  0  0  0  0  0  0  0  0  0  0  0
   -4.6690    0.2270    2.1140 C   0  0  0  0  0  0  0  0  0  0  0  0
   -3.0140   -0.0610   -1.1840 N   0  0  0  0  0  0  0  0  0  0  0  0
   -1.8730   -0.7520   -1.3470 N   0  0  0  0  0  0  0  0  0  0  0  0
    1.0000    0.3840   -1.4640 N   0  0  0  0  0  0  0  0  0  0  0  0
    1.8070    1.3860   -1.0630 C   0  0  0  0  0  0  0  0  0  0  0  0
    1.7340    2.7640   -1.1720 C   0  0  0  0  0  0  0  0  0  0  0  0
    2.7510    3.5450   -0.6470 C   0  0  0  0  0  0  0  0  0  0  0  0
    3.8230    2.9470   -0.0220 C   0  0  0  0  0  0  0  0  0  0  0  0
    3.8640    1.5740    0.0680 C   0  0  0  0  0  0  0  0  0  0  0  0
    2.8620    0.7550   -0.4460 C   0  0  0  0  0  0  0  0  0  0  0  0
  2  1  1  1
  2  3  1  0
  2  4  1  0
  4  5  1  0
  4 23  1  0
  5  6  1  0
  5 17  2  0
  6  7  1  0
  7  8  1  0
  8  9  2  0
  8 16  1  0
  9 10  1  0
 10 11  1  0
 10 15  2  0
 11 12  1  1
 11 13  1  0
 11 14  1  0
 15 16  1  0
 17 18  1  0
 18 19  2  0
 18 23  1  0
 19 20  1  0
 20 21  2  0
 21 22  1  0
 22 23  2  0
M  END
