
     RDKit          3D

 23 25  0  0  0  0  0  0  0  0999 V2000
   -3.9150   -1.9370   -1.8190 C   0  0  0  0  0  0  0  0  0  0  0  0
   -2.6700   -2.5390   -1.3350 C   0  0  0  0  0  0  0  0  0  0  0  0
   -1.9450   -2.0080   -0.3810 C   0  0  0  0  0  0  0  0  0  0  0  0
   -2.3650   -0.7640    0.2480 C   0  0  0  0  0  0  0  0  0  0  0  0
   -3.4780   -0.1200   -0.1040 N   0  0  0  0  0  0  0  0  0  0  0  0
   -3.8550    1.0260    0.4830 C   0  0  0  0  0  0  0  0  0  0  0  0
   -5.0550    1.7110    0.0960 N   0  0  0  0  0  0  0  0  0  0  0  0
   -5.4190    2.9430    0.7580 C   0  0  0  0  0  0  0  0  0  0  0  0
   -3.0570    1.5380    1.4780 C   0  0  0  0  0  0  0  0  0  0  0  0
   -1.8900    0.8870    1.8650 C   0  0  0  0  0  0  0  0  0  0  0  0
   -1.5300   -0.2810    1.2490 C   0  0  0  0  0  0  0  0  0  0  0  0
   -0.0400   -1.1020    1.7530 S   0  0  0  0  0  0  0  0  0  0  0  0
    1.3730   -0.5380    0.8010 C   0  0  0  0  0  0  0  0  0  0  0  0
    1.3080    0.4120   -0.1950 C   0  0  0  0  0  0  0  0  0  0  0  0
    2.5860    0.5740   -0.6850 C   0  0  0  0  0  0  0  0  0  0  0  0
    3.3940   -0.2640    0.0070 N   0  0  0  0  0  0  0  0  0  0  0  0
    4.7960   -0.4070   -0.1900 C   0  0  0  0  0  0  0  0  0  0  0  0
    5.7330    0.3450    0.4940 C   0  0  0  0  0  0  0  0  0  0  0  0
    7.0900    0.1900    0.2880 C   0  0  0  0  0  0  0  0  0  0  0  0
    7.5560   -0.7360   -0.6220 C   0  0  0  0  0  0  0  0  0  0  0  0
    6.6360   -1.4620   -1.2810 N   0  0  0  0  0  0  0  0  0  0  0  0
    5.3110   -1.3290   -1.0980 C   0  0  0  0  0  0  0  0  0  0  0  0
    2.6370   -0.9160    0.8900 N   0  0  0  0  0  0  0  0  0  0  0  0
  1  2  1  0
  2  3  2  3
  3  4  1  0
  4  5  2  0
  4 11  1  0
  5  6  1  0
  6  7  1  0
  6  9  2  0
  7  8  1  0
  9 10  1  0
 10 11  2  0
 11 12  1  0
 12 13  1  0
 13 14  1  0
 13 23  2  0
 14 15  2  0
 15 16  1  0
 16 17  1  0
 16 23  1  0
 17 18  2  0
 17 22  1  0
 18 19  1  0
 19 20  2  0
 20 21  1  0
 21 22  2  0
M  END
