
     RDKit          3D

 23 25  0  0  0  0  0  0  0  0999 V2000
   10.1350   -2.6710    1.7980 N   0  0  0  0  0  0  0  0  0  0  0  0
    8.9980   -2.0620    1.3950 C   0  0  0  0  0  0  0  0  0  0  0  0
    7.9380   -1.5010    0.9980 C   0  0  0  0  0  0  0  0  0  0  0  0
    6.6010   -1.5090    1.3870 C   0  0  0  0  0  0  0  0  0  0  0  0
    5.8810   -0.5840    0.4670 C   0  0  0  0  0  0  0  0  0  0  0  0
    4.8190   -0.2000    0.1510 C   0  0  0  0  0  0  0  0  0  0  0  0
    3.4220    0.0010    0.0470 C   0  0  0  0  0  0  0  0  0  0  0  0
    2.3210   -0.5690    0.7060 N   0  0  0  0  0  0  0  0  0  0  0  0
    1.1690    0.0420    0.1150 C   0  0  0  0  0  0  0  0  0  0  0  0
   -0.1490   -0.3170    0.5330 N   0  0  0  0  0  0  0  0  0  0  0  0
   -1.1000    0.4400   -0.2160 C   0  0  0  0  0  0  0  0  0  0  0  0
   -2.4830    0.2750   -0.0120 N   0  0  0  0  0  0  0  0  0  0  0  0
   -2.7350   -1.0810    0.3300 C   0  0  0  0  0  0  0  0  0  0  0  0
   -4.0030   -1.4100    1.0150 C   0  0  0  0  0  0  0  0  0  0  0  0
   -5.0840   -1.6580    0.0290 C   0  0  0  0  0  0  0  0  0  0  0  0
   -4.9580   -0.4360   -1.3190 S   0  0  0  0  0  0  0  0  0  0  0  0
   -5.5540    1.1370   -0.6380 C   0  0  0  0  0  0  0  0  0  0  0  0
   -4.4900    1.7390    0.2780 C   0  0  0  0  0  0  0  0  0  0  0  0
   -3.1300    1.5340   -0.2630 C   0  0  0  0  0  0  0  0  0  0  0  0
   -0.6670    1.3790   -1.2040 C   0  0  0  0  0  0  0  0  0  0  0  0
    0.6030    1.5780   -1.4650 C   0  0  0  0  0  0  0  0  0  0  0  0
    1.5430    0.8190   -0.7150 C   0  0  0  0  0  0  0  0  0  0  0  0
    2.8580    0.8700   -0.8390 N   0  0  0  0  0  0  0  0  0  0  0  0
  1  2  3  0
  2  3  1  0
  3  4  2  3
  4  5  1  0
  5  6  2  3
  6  7  1  0
  7  8  2  0
  7 23  1  0
  8  9  1  0
  9 10  2  0
  9 22  1  0
 10 11  1  0
 11 12  1  0
 11 20  2  0
 12 13  1  0
 12 19  1  0
 13 14  1  0
 14 15  1  0
 15 16  1  0
 16 17  1  0
 17 18  1  0
 18 19  1  0
 20 21  1  0
 21 22  2  0
 22 23  1  0
M  END
