
     RDKit          3D

 23 25  0  0  0  0  0  0  0  0999 V2000
   -3.5490   -1.4690    0.3250 C   0  0  0  0  0  0  0  0  0  0  0  0
   -4.1050   -0.3100   -0.0030 C   0  0  0  0  0  0  0  0  0  0  0  0
   -3.3020    0.8850   -0.1790 C   0  0  0  0  0  0  0  0  0  0  0  0
   -3.8600    2.0380   -0.5050 C   0  0  0  0  0  0  0  0  0  0  0  0
   -5.3180    2.1490   -0.7010 C   0  0  0  0  0  0  0  0  0  0  0  0
   -1.8870    0.8040    0.0030 N   0  0  0  0  0  0  0  0  0  0  0  0
   -1.3580    0.7700    1.3220 C   0  0  0  0  0  0  0  0  0  0  0  0
   -0.1080   -0.0360    1.4770 C   0  0  0  0  0  0  0  0  0  0  0  0
    0.2880   -0.7550    0.3130 N   0  0  0  0  0  0  0  0  0  0  0  0
    1.2500   -1.7880    0.4540 C   0  0  0  0  0  0  0  0  0  0  0  0
    0.8830   -3.0710    0.7290 N   0  0  0  0  0  0  0  0  0  0  0  0
    1.9800   -3.8010    0.8010 N   0  0  0  0  0  0  0  0  0  0  0  0
    3.0210   -2.9820    0.5730 C   0  0  0  0  0  0  0  0  0  0  0  0
    4.5880   -3.4260    0.5590 S   0  0  0  0  0  0  0  0  0  0  0  0
    2.5880   -1.7280    0.3550 N   0  0  0  0  0  0  0  0  0  0  0  0
    3.2990   -0.5310    0.0730 C   0  0  0  0  0  0  0  0  0  0  0  0
    3.6530   -0.1620   -1.2120 C   0  0  0  0  0  0  0  0  0  0  0  0
    4.3450    1.0020   -1.4940 C   0  0  0  0  0  0  0  0  0  0  0  0
    4.7130    1.8510   -0.4700 C   0  0  0  0  0  0  0  0  0  0  0  0
    4.3700    1.5020    0.8200 C   0  0  0  0  0  0  0  0  0  0  0  0
    3.6730    0.3260    1.0880 C   0  0  0  0  0  0  0  0  0  0  0  0
   -0.2040   -0.5300   -1.0290 C   0  0  0  0  0  0  0  0  0  0  0  0
   -0.9920    0.7570   -1.1310 C   0  0  0  0  0  0  0  0  0  0  0  0
  1  2  2  0
  2  3  1  0
  3  4  2  3
  3  6  1  0
  4  5  1  0
  6  7  1  0
  6 23  1  0
  7  8  1  0
  8  9  1  0
  9 10  1  0
  9 22  1  0
 10 11  2  0
 10 15  1  0
 11 12  1  0
 12 13  1  0
 13 14  2  0
 13 15  1  0
 15 16  1  0
 16 17  2  0
 16 21  1  0
 17 18  1  0
 18 19  2  0
 19 20  1  0
 20 21  2  0
 22 23  1  0
M  END
