
     RDKit          3D

 23 25  0  0  0  0  0  0  0  0999 V2000
    6.0550   -1.5240    0.4150 C   0  0  0  0  0  0  0  0  0  0  0  0
    5.0250   -0.9860    1.0160 C   0  0  0  0  0  0  0  0  0  0  0  0
    4.1360   -0.0120    0.3950 C   0  0  0  0  0  0  0  0  0  0  0  0
    3.1200    0.4510    1.1080 C   0  0  0  0  0  0  0  0  0  0  0  0
    4.3650    0.4070   -0.9820 C   0  0  0  0  0  0  0  0  0  0  0  0
    5.5210    0.8610   -1.4830 N   0  0  0  0  0  0  0  0  0  0  0  0
    5.3390    1.1160   -2.7760 N   0  0  0  0  0  0  0  0  0  0  0  0
    4.0580    0.8240   -3.1100 C   0  0  0  0  0  0  0  0  0  0  0  0
    3.4130    0.3650   -1.9640 C   0  0  0  0  0  0  0  0  0  0  0  0
    2.0210   -0.0910   -1.8640 C   0  0  0  0  0  0  0  0  0  0  0  0
    1.2790   -0.5600   -1.0490 N   0  0  0  0  0  0  0  0  0  0  0  0
    0.0380   -0.9130   -1.1790 C   0  0  0  0  0  0  0  0  0  0  0  0
   -0.7960   -1.4880   -0.0930 C   0  0  0  0  0  0  0  0  0  0  0  0
   -1.5160   -0.5120    0.6530 N   0  0  0  0  0  0  0  0  0  0  0  0
   -2.3260   -0.9980    1.6970 C   0  0  0  0  0  0  0  0  0  0  0  0
   -3.7270   -1.2480    1.1830 C   0  0  0  0  0  0  0  0  0  0  0  0
   -4.6300   -0.0660    1.4720 C   0  0  0  0  0  0  0  0  0  0  0  0
   -4.2280    1.0220    0.6460 N   0  0  0  0  0  0  0  0  0  0  0  0
   -5.1670    2.1260    0.6460 C   0  0  0  0  0  0  0  0  0  0  0  0
   -2.8730    1.4510    0.8220 C   0  0  0  0  0  0  0  0  0  0  0  0
   -1.9480    0.6310   -0.0470 C   0  0  0  0  0  0  0  0  0  0  0  0
   -0.4920   -0.7060   -2.4650 C   0  0  0  0  0  0  0  0  0  0  0  0
    0.9000   -0.0090   -3.3620 S   0  0  0  0  0  0  0  0  0  0  0  0
  1  2  2  0
  2  3  1  0
  3  4  2  0
  3  5  1  0
  5  6  1  0
  5  9  2  0
  6  7  1  0
  7  8  2  0
  8  9  1  0
  9 10  1  0
 10 11  2  0
 10 23  1  0
 11 12  1  0
 12 13  1  0
 12 22  2  0
 13 14  1  0
 14 15  1  0
 14 21  1  0
 15 16  1  0
 16 17  1  0
 17 18  1  0
 18 19  1  0
 18 20  1  0
 20 21  1  0
 22 23  1  0
M  END
