
     RDKit          3D

 23 25  0  0  0  0  0  0  0  0999 V2000
    3.4690   -3.8450    0.7370 C   0  0  0  0  0  0  0  0  0  0  0  0
    2.9510   -2.5470    0.3360 C   0  0  0  0  0  0  0  0  0  0  0  0
    1.9940   -1.4020    1.4310 S   0  0  0  0  0  0  0  0  0  0  0  0
    1.7520   -0.1530    0.2810 C   0  0  0  0  0  0  0  0  0  0  0  0
    1.0720    1.0600    0.5610 N   0  0  0  0  0  0  0  0  0  0  0  0
   -0.2880    1.3100    0.5170 N   0  0  0  0  0  0  0  0  0  0  0  0
   -0.8470    2.5000    0.7960 C   0  0  0  0  0  0  0  0  0  0  0  0
   -0.1810    3.7540    1.1810 C   0  0  1  0  0  0  0  0  0  0  0  0
   -0.4810    4.7660    0.0760 C   0  0  0  0  0  0  0  0  0  0  0  0
   -0.7060    4.3240    2.4740 C   0  0  0  0  0  0  0  0  0  0  0  0
   -2.1690    2.3740    0.6650 N   0  0  0  0  0  0  0  0  0  0  0  0
   -2.4510    1.1660    0.3200 N   0  0  0  0  0  0  0  0  0  0  0  0
   -1.2700    0.4710    0.2190 C   0  0  0  0  0  0  0  0  0  0  0  0
   -1.2760   -0.9300   -0.1680 C   0  0  1  0  0  0  0  0  0  0  0  0
   -1.8050   -1.8460    0.9150 C   0  0  0  0  0  0  0  0  0  0  0  0
   -3.2560   -1.6310    1.2040 C   0  0  0  0  0  0  0  0  0  0  0  0
   -4.0190   -1.9260    0.0070 N   0  0  0  0  0  0  0  0  0  0  0  0
   -3.6040   -1.1210   -1.1060 C   0  0  0  0  0  0  0  0  0  0  0  0
   -2.1380   -1.1730   -1.3970 C   0  0  0  0  0  0  0  0  0  0  0  0
    2.3700   -0.6130   -0.8420 C   0  0  0  0  0  0  0  0  0  0  0  0
    2.3450    0.2820   -2.0810 C   0  0  0  0  0  0  0  0  0  0  0  0
    2.9670   -1.8070   -0.8100 C   0  0  0  0  0  0  0  0  0  0  0  0
    3.6870   -2.4170   -2.0240 C   0  0  0  0  0  0  0  0  0  0  0  0
  1  2  1  0
  2  3  1  0
  2 22  2  0
  3  4  1  0
  4  5  1  0
  4 20  2  0
  5  6  1  0
  6  7  1  0
  6 13  1  0
  7  8  1  0
  7 11  2  0
  8  9  1  6
  8 10  1  0
 11 12  1  0
 12 13  2  0
 14 13  1  1
 14 15  1  0
 14 19  1  0
 15 16  1  0
 16 17  1  0
 17 18  1  0
 18 19  1  0
 20 21  1  0
 20 22  1  0
 22 23  1  0
M  END
