
     RDKit          3D

 23 25  0  0  0  0  0  0  0  0999 V2000
   -4.8510    0.6810   -2.7300 C   0  0  0  0  0  0  0  0  0  0  0  0
   -3.7340    0.5760   -1.7770 C   0  0  0  0  0  0  0  0  0  0  0  0
   -2.0050    0.7140   -2.2800 S   0  0  0  0  0  0  0  0  0  0  0  0
   -1.3470    0.4790   -0.6110 C   0  0  0  0  0  0  0  0  0  0  0  0
    0.0250    0.4990   -0.3270 N   0  0  0  0  0  0  0  0  0  0  0  0
    0.8930   -0.4990   -0.0170 N   0  0  0  0  0  0  0  0  0  0  0  0
    0.6440   -1.8060    0.0310 C   0  0  0  0  0  0  0  0  0  0  0  0
   -0.5840   -2.5930   -0.2930 C   0  0  1  0  0  0  0  0  0  0  0  0
   -0.2780   -3.6140   -1.3910 C   0  0  0  0  0  0  0  0  0  0  0  0
   -0.9320   -3.4270    0.9260 C   0  0  0  0  0  0  0  0  0  0  0  0
    1.7650   -2.4870    0.4300 N   0  0  0  0  0  0  0  0  0  0  0  0
    2.6710   -1.5950    0.6170 N   0  0  0  0  0  0  0  0  0  0  0  0
    2.1880   -0.3370    0.3530 C   0  0  0  0  0  0  0  0  0  0  0  0
    3.0600    0.8230    0.4690 C   0  0  2  0  0  0  0  0  0  0  0  0
    2.6410    1.9630    1.3070 C   0  0  0  0  0  0  0  0  0  0  0  0
    3.8920    2.8590    1.4720 C   0  0  0  0  0  0  0  0  0  0  0  0
    5.0400    2.2700    0.7840 N   0  0  0  0  0  0  0  0  0  0  0  0
    4.7790    2.1450   -0.6540 C   0  0  0  0  0  0  0  0  0  0  0  0
    3.4790    1.3790   -0.9040 C   0  0  0  0  0  0  0  0  0  0  0  0
   -2.4420    0.3230    0.1460 C   0  0  0  0  0  0  0  0  0  0  0  0
   -2.2660    0.0390    1.6420 C   0  0  0  0  0  0  0  0  0  0  0  0
   -3.6560    0.3710   -0.4370 C   0  0  0  0  0  0  0  0  0  0  0  0
   -4.9660    0.1850    0.3460 C   0  0  0  0  0  0  0  0  0  0  0  0
  1  2  1  0
  2  3  1  0
  2 22  2  0
  3  4  1  0
  4  5  1  0
  4 20  2  0
  5  6  1  0
  6  7  1  0
  6 13  1  0
  7  8  1  0
  7 11  2  0
  8  9  1  6
  8 10  1  0
 11 12  1  0
 12 13  2  0
 14 13  1  6
 14 15  1  0
 14 19  1  0
 15 16  1  0
 16 17  1  0
 17 18  1  0
 18 19  1  0
 20 21  1  0
 20 22  1  0
 22 23  1  0
M  END
