
     RDKit          3D

 23 25  0  0  0  0  0  0  0  0999 V2000
    5.8990   -1.9350   -0.6910 C   0  0  0  0  0  0  0  0  0  0  0  0
    5.0570   -1.9960    0.4740 N   0  0  0  0  0  0  0  0  0  0  0  0
    3.9900   -1.0740    0.6080 C   0  0  0  0  0  0  0  0  0  0  0  0
    3.1900   -1.1440    1.7310 C   0  0  0  0  0  0  0  0  0  0  0  0
    1.9770   -0.5320    2.0210 C   0  0  0  0  0  0  0  0  0  0  0  0
    1.2990    0.4240    1.2320 C   0  0  0  0  0  0  0  0  0  0  0  0
    0.0830    0.4960    1.2960 N   0  0  0  0  0  0  0  0  0  0  0  0
   -1.2840    1.2850    0.7260 S   0  0  0  0  0  0  0  0  0  0  0  0
   -2.5640    0.2210    0.0980 C   0  0  0  0  0  0  0  0  0  0  0  0
   -3.8170    0.4800    0.3760 C   0  0  0  0  0  0  0  0  0  0  0  0
   -4.9500   -0.3270   -0.0880 C   0  0  0  0  0  0  0  0  0  0  0  0
   -6.2290    0.0340    0.2620 C   0  0  0  0  0  0  0  0  0  0  0  0
   -7.3200   -0.7070   -0.1600 C   0  0  0  0  0  0  0  0  0  0  0  0
   -7.1010   -1.7880   -0.9180 N   0  0  0  0  0  0  0  0  0  0  0  0
   -5.8780   -2.1990   -1.2970 C   0  0  0  0  0  0  0  0  0  0  0  0
   -4.8030   -1.4410   -0.8630 C   0  0  0  0  0  0  0  0  0  0  0  0
    1.9750    1.2840    0.3880 C   0  0  0  0  0  0  0  0  0  0  0  0
    1.3840    2.5390    0.3330 C   0  0  0  0  0  0  0  0  0  0  0  0
    1.9040    3.5320   -0.4600 C   0  0  0  0  0  0  0  0  0  0  0  0
    3.0350    3.2080   -1.1860 C   0  0  0  0  0  0  0  0  0  0  0  0
    3.6070    1.9790   -1.1260 N   0  0  0  0  0  0  0  0  0  0  0  0
    3.1080    1.0000   -0.3550 C   0  0  0  0  0  0  0  0  0  0  0  0
    3.8240   -0.1670   -0.4020 N   0  0  0  0  0  0  0  0  0  0  0  0
  1  2  1  0
  2  3  1  0
  3  4  1  0
  3 23  2  0
  4  5  2  0
  5  6  1  0
  6  7  2  3
  6 17  1  0
  7  8  1  0
  8  9  1  0
  9 10  2  3
 10 11  1  0
 11 12  2  0
 11 16  1  0
 12 13  1  0
 13 14  2  0
 14 15  1  0
 15 16  2  0
 17 18  2  0
 17 22  1  0
 18 19  1  0
 19 20  2  0
 20 21  1  0
 21 22  2  0
 22 23  1  0
M  END
