
     RDKit          3D

 22 24  0  0  0  0  0  0  0  0999 V2000
    7.4890   -1.5900    0.1800 C   0  0  0  0  0  0  0  0  0  0  0  0
    6.5660   -0.4090    0.2970 C   0  0  0  0  0  0  0  0  0  0  0  0
    5.5630   -0.2630   -0.5390 C   0  0  0  0  0  0  0  0  0  0  0  0
    4.6590    0.8960   -0.4220 C   0  0  0  0  0  0  0  0  0  0  0  0
    3.2980    0.3870   -0.1930 C   0  0  0  0  0  0  0  0  0  0  0  0
    2.0260    0.3440   -1.4860 S   0  0  0  0  0  0  0  0  0  0  0  0
    0.7620   -0.4230   -0.2570 C   0  0  0  0  0  0  0  0  0  0  0  0
   -0.5530   -0.7060   -0.7650 N   0  0  0  0  0  0  0  0  0  0  0  0
   -1.5760   -0.0620   -0.2900 C   0  0  0  0  0  0  0  0  0  0  0  0
   -1.5370    0.8800    0.6640 N   0  0  0  0  0  0  0  0  0  0  0  0
   -2.7430    1.3220    0.9020 N   0  0  0  0  0  0  0  0  0  0  0  0
   -3.5740    0.6540    0.0870 C   0  0  0  0  0  0  0  0  0  0  0  0
   -4.9340    0.7690   -0.0300 C   0  0  0  0  0  0  0  0  0  0  0  0
   -5.7320    1.7170    0.7870 C   0  0  0  0  0  0  0  0  0  0  0  0
   -5.5750   -0.0260   -0.9400 C   0  0  0  0  0  0  0  0  0  0  0  0
   -7.0450    0.0540   -1.1120 C   0  0  0  0  0  0  0  0  0  0  0  0
   -4.8210   -0.9170   -1.7070 C   0  0  0  0  0  0  0  0  0  0  0  0
   -3.4530   -0.9960   -1.5520 C   0  0  0  0  0  0  0  0  0  0  0  0
   -2.8420   -0.2060   -0.6520 N   0  0  0  0  0  0  0  0  0  0  0  0
    1.3980   -0.4810    0.6670 N   0  0  0  0  0  0  0  0  0  0  0  0
    2.6480   -0.1320    0.8740 C   0  0  0  0  0  0  0  0  0  0  0  0
    3.3200   -0.2990    2.2150 C   0  0  0  0  0  0  0  0  0  0  0  0
  1  2  1  0
  2  3  2  3
  3  4  1  0
  4  5  1  0
  5  6  1  0
  5 21  2  0
  6  7  1  0
  7  8  1  0
  7 20  2  0
  8  9  2  3
  9 10  1  0
  9 19  1  0
 10 11  1  0
 11 12  2  0
 12 13  1  0
 12 19  1  0
 13 14  1  0
 13 15  2  0
 15 16  1  0
 15 17  1  0
 17 18  2  0
 18 19  1  0
 20 21  1  0
 21 22  1  0
M  END
