
     RDKit          3D

 23 25  0  0  0  0  0  0  0  0999 V2000
   -5.0930    3.6780   -0.6130 C   0  0  0  0  0  0  0  0  0  0  0  0
   -4.5020    2.5160    0.0880 C   0  0  0  0  0  0  0  0  0  0  0  0
   -3.2330    2.2190   -0.0860 C   0  0  0  0  0  0  0  0  0  0  0  0
   -2.6350    1.0610    0.6090 C   0  0  0  0  0  0  0  0  0  0  0  0
   -3.3890    0.3070    1.4220 N   0  0  0  0  0  0  0  0  0  0  0  0
   -2.8250   -0.7620    2.0610 C   0  0  0  0  0  0  0  0  0  0  0  0
   -3.6050   -1.5720    2.9250 N   0  0  0  0  0  0  0  0  0  0  0  0
   -3.0210   -2.7000    3.6020 C   0  0  0  0  0  0  0  0  0  0  0  0
   -1.5080   -1.0610    1.8730 C   0  0  0  0  0  0  0  0  0  0  0  0
   -0.7360   -0.2970    1.0450 C   0  0  0  0  0  0  0  0  0  0  0  0
   -1.3070    0.7780    0.4050 C   0  0  0  0  0  0  0  0  0  0  0  0
   -0.3370    1.8220   -0.6990 S   0  0  0  0  0  0  0  0  0  0  0  0
    1.3440    1.2240   -0.7740 C   0  0  0  0  0  0  0  0  0  0  0  0
    2.3430    1.6450    0.0790 C   0  0  0  0  0  0  0  0  0  0  0  0
    3.5150    0.9840   -0.2560 C   0  0  0  0  0  0  0  0  0  0  0  0
    3.1980    0.1870   -1.2940 N   0  0  0  0  0  0  0  0  0  0  0  0
    4.1540   -0.6620   -1.9270 C   0  0  0  0  0  0  0  0  0  0  0  0
    4.0070   -2.0510   -1.8280 C   0  0  0  0  0  0  0  0  0  0  0  0
    4.9240   -2.8830   -2.4350 C   0  0  0  0  0  0  0  0  0  0  0  0
    5.9930   -2.3840   -3.1450 C   0  0  0  0  0  0  0  0  0  0  0  0
    6.1050   -1.0470   -3.2210 N   0  0  0  0  0  0  0  0  0  0  0  0
    5.2270   -0.2050   -2.6400 C   0  0  0  0  0  0  0  0  0  0  0  0
    1.9110    0.3340   -1.5960 N   0  0  0  0  0  0  0  0  0  0  0  0
  1  2  1  0
  2  3  2  3
  3  4  1  0
  4  5  2  0
  4 11  1  0
  5  6  1  0
  6  7  1  0
  6  9  2  0
  7  8  1  0
  9 10  1  0
 10 11  2  0
 11 12  1  0
 12 13  1  0
 13 14  1  0
 13 23  2  0
 14 15  2  0
 15 16  1  0
 16 17  1  0
 16 23  1  0
 17 18  2  0
 17 22  1  0
 18 19  1  0
 19 20  2  0
 20 21  1  0
 21 22  2  0
M  END
