
     RDKit          3D

 23 25  0  0  0  0  0  0  0  0999 V2000
    8.5910   -3.2000   -1.7690 N   0  0  0  0  0  0  0  0  0  0  0  0
    7.5950   -3.9660   -1.1870 C   0  0  0  0  0  0  0  0  0  0  0  0
    6.3690   -4.9390   -0.4420 C   0  0  0  0  0  0  0  0  0  0  0  0
    5.5630   -4.2460   -0.2810 C   0  0  0  0  0  0  0  0  0  0  0  0
    4.3940   -3.4840    0.0160 C   0  0  0  0  0  0  0  0  0  0  0  0
    4.2890   -2.1740   -0.3010 C   0  0  0  0  0  0  0  0  0  0  0  0
    3.0820   -1.4760   -0.0090 C   0  0  0  0  0  0  0  0  0  0  0  0
    2.7910   -0.1150    0.0190 N   0  0  0  0  0  0  0  0  0  0  0  0
    1.4340    0.0020    0.1930 C   0  0  0  0  0  0  0  0  0  0  0  0
    0.5170    1.0300    0.2060 N   0  0  0  0  0  0  0  0  0  0  0  0
   -0.7920    0.7710    0.3180 C   0  0  0  0  0  0  0  0  0  0  0  0
   -1.8650    1.7920    0.2460 N   0  0  0  0  0  0  0  0  0  0  0  0
   -1.6380    2.8890    1.1130 C   0  0  0  0  0  0  0  0  0  0  0  0
   -2.8650    3.1510    2.0080 C   0  0  0  0  0  0  0  0  0  0  0  0
   -3.7930    1.9680    2.0620 C   0  0  0  0  0  0  0  0  0  0  0  0
   -5.0800    2.0260    0.8130 S   0  0  0  0  0  0  0  0  0  0  0  0
   -4.5670    3.1420   -0.5710 C   0  0  0  0  0  0  0  0  0  0  0  0
   -3.6590    2.3360   -1.4410 C   0  0  0  0  0  0  0  0  0  0  0  0
   -2.8460    1.3150   -0.6770 C   0  0  0  0  0  0  0  0  0  0  0  0
   -1.3400   -0.5210    0.4350 C   0  0  0  0  0  0  0  0  0  0  0  0
   -0.3910   -1.5200    0.4080 C   0  0  0  0  0  0  0  0  0  0  0  0
    0.9140   -1.2950    0.2780 C   0  0  0  0  0  0  0  0  0  0  0  0
    1.9510   -2.1410    0.1520 N   0  0  0  0  0  0  0  0  0  0  0  0
  1  2  3  0
  2  3  1  0
  3  4  2  3
  4  5  1  0
  5  6  2  3
  6  7  1  0
  7  8  2  0
  7 23  1  0
  8  9  1  0
  9 10  2  0
  9 22  1  0
 10 11  1  0
 11 12  1  0
 11 20  2  0
 12 13  1  0
 12 19  1  0
 13 14  1  0
 14 15  1  0
 15 16  1  0
 16 17  1  0
 17 18  1  0
 18 19  1  0
 20 21  1  0
 21 22  2  0
 22 23  1  0
M  END
