
     RDKit          3D

 23 25  0  0  0  0  0  0  0  0999 V2000
   -4.7720    2.3720   -1.5570 C   0  0  0  0  0  0  0  0  0  0  0  0
   -4.2370    1.2190   -0.8100 C   0  0  0  0  0  0  0  0  0  0  0  0
   -2.9260    1.0090   -0.7580 N   0  0  0  0  0  0  0  0  0  0  0  0
   -2.3410   -0.0110   -0.1050 C   0  0  0  0  0  0  0  0  0  0  0  0
   -0.9350   -0.2020   -0.0720 N   0  0  0  0  0  0  0  0  0  0  0  0
   -0.3100   -1.3990   -0.5840 C   0  0  0  0  0  0  0  0  0  0  0  0
   -0.1080    0.8370    0.4910 C   0  0  0  0  0  0  0  0  0  0  0  0
    1.3250    0.5040    0.4590 C   0  0  0  0  0  0  0  0  0  0  0  0
    2.2130    0.7610   -0.4850 C   0  0  0  0  0  0  0  0  0  0  0  0
    3.4990    0.3790   -0.3460 C   0  0  0  0  0  0  0  0  0  0  0  0
    3.8460   -0.2840    0.8090 C   0  0  0  0  0  0  0  0  0  0  0  0
    5.1070   -0.8360    1.3100 C   0  0  0  0  0  0  0  0  0  0  0  0
    6.1740   -0.3740    0.4840 N   0  0  0  0  0  0  0  0  0  0  0  0
    6.3340    1.0420    0.4590 C   0  0  0  0  0  0  0  0  0  0  0  0
    6.3210   -1.0450   -0.7650 C   0  0  0  0  0  0  0  0  0  0  0  0
    2.2620   -0.3420    1.6930 S   0  0  0  0  0  0  0  0  0  0  0  0
   -3.1980   -0.8910    0.5530 C   0  0  0  0  0  0  0  0  0  0  0  0
   -2.9670   -2.0240    1.3070 C   0  0  0  0  0  0  0  0  0  0  0  0
   -4.1440   -2.5210    1.7270 N   0  0  0  0  0  0  0  0  0  0  0  0
   -5.0910   -1.7290    1.2540 N   0  0  0  0  0  0  0  0  0  0  0  0
   -4.5620   -0.7240    0.5340 C   0  0  0  0  0  0  0  0  0  0  0  0
   -5.0730    0.3440   -0.1580 C   0  0  0  0  0  0  0  0  0  0  0  0
   -6.5540    0.5200   -0.1740 C   0  0  0  0  0  0  0  0  0  0  0  0
  1  2  1  0
  2  3  2  0
  2 22  1  0
  3  4  1  0
  4  5  1  0
  4 17  2  0
  5  6  1  0
  5  7  1  0
  7  8  1  0
  8  9  2  0
  8 16  1  0
  9 10  1  0
 10 11  2  0
 11 12  1  0
 11 16  1  0
 12 13  1  0
 13 14  1  0
 13 15  1  0
 17 18  1  0
 17 21  1  0
 18 19  2  0
 19 20  1  0
 20 21  1  0
 21 22  2  0
 22 23  1  0
M  END
