
     RDKit          3D

 19 20  0  0  0  0  0  0  0  0999 V2000
    3.1660   -2.3360    0.3110 C   0  0  0  0  0  0  0  0  0  0  0  0
    3.3260   -0.8460    0.3810 C   0  0  0  0  0  0  0  0  0  0  0  0
    2.2760   -0.0730    0.3590 C   0  0  0  0  0  0  0  0  0  0  0  0
    0.9820   -0.6690    0.2670 N   0  0  0  0  0  0  0  0  0  0  0  0
   -0.2080    0.0750    0.2340 C   0  0  0  0  0  0  0  0  0  0  0  0
   -0.1970    1.3120    0.2830 O   0  0  0  0  0  0  0  0  0  0  0  0
   -1.4730   -0.5720    0.1440 N   0  0  0  0  0  0  0  0  0  0  0  0
   -2.6970    0.1720    0.1080 C   0  0  2  0  0  0  0  0  0  0  0  0
   -3.8690   -0.8090    0.0220 C   0  0  0  0  0  0  0  0  0  0  0  0
   -3.8010   -1.6290   -1.1520 N   0  0  0  0  0  0  0  0  0  0  0  0
   -2.8030    1.1350   -1.0410 C   0  0  0  0  0  0  0  0  0  0  0  0
   -3.5600    2.2790   -0.4460 C   0  0  0  0  0  0  0  0  0  0  0  0
   -3.8730    1.9500    0.8590 O   0  0  0  0  0  0  0  0  0  0  0  0
   -2.9170    1.0440    1.2960 C   0  0  0  0  0  0  0  0  0  0  0  0
    2.4010    1.3820    0.4310 C   0  0  0  0  0  0  0  0  0  0  0  0
    3.6950    1.8220    0.6080 O   0  0  0  0  0  0  0  0  0  0  0  0
    4.6290    1.1250   -0.1500 C   0  0  0  0  0  0  0  0  0  0  0  0
    4.6870   -0.2800    0.4690 C   0  0  2  0  0  0  0  0  0  0  0  0
    5.6360   -1.0430   -0.1680 O   0  0  0  0  0  0  0  0  0  0  0  0
  1  2  1  0
  2  3  2  0
  2 18  1  0
  3  4  1  0
  3 15  1  0
  4  5  1  0
  5  6  2  0
  5  7  1  0
  7  8  1  0
  8  9  1  6
  8 11  1  0
  8 14  1  0
  9 10  1  0
 11 12  1  0
 12 13  1  0
 13 14  1  0
 15 16  1  0
 16 17  1  0
 17 18  1  0
 18 19  1  6
M  CHG  1  10   1
M  END
