
     RDKit          3D

 21 22  0  0  0  0  0  0  0  0999 V2000
   -5.8970    0.0250   -0.5750 C   0  0  0  0  0  0  0  0  0  0  0  0
   -6.2730   -1.0900    0.0150 C   0  0  0  0  0  0  0  0  0  0  0  0
   -6.1540   -1.2760    1.5030 C   0  0  0  0  0  0  0  0  0  0  0  0
   -5.4400    0.2100    2.2010 S   0  0  0  0  0  0  0  0  0  0  0  0
   -3.6640    0.1490    1.4740 C   0  0  0  0  0  0  0  0  0  0  0  0
   -2.9980   -0.4430    0.8300 N   0  0  0  0  0  0  0  0  0  0  0  0
   -1.7280   -0.2150    0.4850 C   0  0  0  0  0  0  0  0  0  0  0  0
   -0.9030   -0.9640   -0.3210 C   0  0  0  0  0  0  0  0  0  0  0  0
    0.3980   -0.5350   -0.5460 C   0  0  0  0  0  0  0  0  0  0  0  0
    0.9590    0.5920   -0.0310 C   0  0  0  0  0  0  0  0  0  0  0  0
    2.2670    1.0720   -0.2030 N   0  0  0  0  0  0  0  0  0  0  0  0
    3.3610    0.4050   -0.7840 C   0  0  0  0  0  0  0  0  0  0  0  0
    3.2040   -0.7490   -1.2060 O   0  0  0  0  0  0  0  0  0  0  0  0
    4.7140    1.0600   -0.9040 C   0  0  0  0  0  0  0  0  0  0  0  0
    5.6720    0.0870   -1.5010 C   0  0  0  0  0  0  0  0  0  0  0  0
    5.7490   -1.0960   -0.5750 C   0  0  0  0  0  0  0  0  0  0  0  0
    6.4660   -2.0890   -0.8550 O   0  0  0  0  0  0  0  0  0  0  0  0
    5.0460   -1.1510    0.6130 O   0  0  0  0  0  0  0  0  0  0  0  0
    0.1060    1.3510    0.7910 C   0  0  0  0  0  0  0  0  0  0  0  0
   -1.1930    0.9190    1.0130 C   0  0  0  0  0  0  0  0  0  0  0  0
   -2.5490    1.5860    1.9730 S   0  0  0  0  0  0  0  0  0  0  0  0
  1  2  2  0
  2  3  1  0
  3  4  1  0
  4  5  1  0
  5  6  2  0
  5 21  1  0
  6  7  1  0
  7  8  2  0
  7 20  1  0
  8  9  1  0
  9 10  2  0
 10 11  1  0
 10 19  1  0
 11 12  1  0
 12 13  2  0
 12 14  1  0
 14 15  1  0
 15 16  1  0
 16 17  2  0
 16 18  1  0
 19 20  2  0
 20 21  1  0
M  END
