
     RDKit          3D

 23 23  0  0  0  0  0  0  0  0999 V2000
    6.2110    0.9830    2.1890 C   0  0  0  0  0  0  0  0  0  0  0  0
    5.2230    1.5300    1.3500 O   0  0  0  0  0  0  0  0  0  0  0  0
    4.0800    0.8850    0.9370 C   0  0  0  0  0  0  0  0  0  0  0  0
    3.8770   -0.2940    1.3230 O   0  0  0  0  0  0  0  0  0  0  0  0
    3.1350    1.5860    0.0650 C   0  0  0  0  0  0  0  0  0  0  0  0
    1.9950    0.8450   -0.2940 O   0  0  0  0  0  0  0  0  0  0  0  0
    2.0370   -0.3660   -1.0150 C   0  0  0  0  0  0  0  0  0  0  0  0
    3.1880   -0.7560   -1.3250 O   0  0  0  0  0  0  0  0  0  0  0  0
    0.7890   -1.0890   -1.3580 C   0  0  2  0  0  0  0  0  0  0  0  0
    0.6080   -1.1160   -2.8370 N   0  0  0  0  0  0  0  0  0  0  0  0
   -0.3580   -0.4450   -0.8470 O   0  0  0  0  0  0  0  0  0  0  0  0
   -1.3040   -1.2430   -0.1640 C   0  0  0  0  0  0  0  0  0  0  0  0
   -1.0380   -2.4630   -0.0820 O   0  0  0  0  0  0  0  0  0  0  0  0
   -2.5240   -0.6100    0.3940 C   0  0  1  0  0  0  0  0  0  0  0  0
   -3.0790    0.8140   -0.5240 S   0  0  0  0  0  0  0  0  0  0  0  0
   -3.6490    0.3840   -2.1780 C   0  0  2  0  0  0  0  0  0  0  0  0
   -2.5560   -0.0740   -2.9090 O   0  0  0  0  0  0  0  0  0  0  0  0
   -4.1340    1.5180   -2.8690 O   0  0  0  0  0  0  0  0  0  0  0  0
   -3.6020   -1.6070    0.5470 N   0  0  0  0  0  0  0  0  0  0  0  0
   -4.7170   -0.6290    1.5560 S   0  0  0  0  0  0  0  0  0  0  0  0
   -3.4430    0.4190    2.3730 C   0  0  0  0  0  0  0  0  0  0  0  0
   -2.1930   -0.2440    1.8570 C   0  0  1  0  0  0  0  0  0  0  0  0
   -2.0040   -1.4520    2.5260 O   0  0  0  0  0  0  0  0  0  0  0  0
  1  2  1  0
  2  3  1  0
  3  4  2  0
  3  5  1  0
  5  6  1  0
  6  7  1  0
  7  8  2  0
  7  9  1  0
  9 10  1  6
  9 11  1  0
 11 12  1  0
 12 13  2  0
 12 14  1  0
 14 15  1  6
 14 19  1  0
 14 22  1  0
 15 16  1  0
 16 17  1  6
 16 18  1  0
 19 20  1  0
 20 21  1  0
 21 22  1  0
 22 23  1  1
M  END
