
     RDKit          3D

 19 20  0  0  0  0  0  0  0  0999 V2000
   -2.6370    3.2780    0.5520 N   0  0  0  0  0  0  0  0  0  0  0  0
   -2.5350    2.0890   -0.2550 C   0  0  0  0  0  0  0  0  0  0  0  0
   -2.9890    2.1610   -1.4260 O   0  0  0  0  0  0  0  0  0  0  0  0
   -1.9160    0.8800    0.3270 C   0  0  0  0  0  0  0  0  0  0  0  0
   -1.9930   -0.2570   -0.6160 C   0  0  2  0  0  0  0  0  0  0  0  0
   -3.3940   -0.6410   -0.9550 C   0  0  0  0  0  0  0  0  0  0  0  0
   -4.0340   -1.1640    0.1950 O   0  0  0  0  0  0  0  0  0  0  0  0
   -1.2950   -1.4420   -0.1550 N   0  0  0  0  0  0  0  0  0  0  0  0
    0.0410   -1.2280    0.1900 C   0  0  0  0  0  0  0  0  0  0  0  0
    0.5890   -1.9020    1.2560 C   0  0  0  0  0  0  0  0  0  0  0  0
    1.8940   -1.7440    1.6550 C   0  0  0  0  0  0  0  0  0  0  0  0
    2.7060   -0.8620    0.9530 C   0  0  0  0  0  0  0  0  0  0  0  0
    2.1660   -0.1790   -0.1210 C   0  0  0  0  0  0  0  0  0  0  0  0
    0.8450   -0.3550   -0.5050 C   0  0  0  0  0  0  0  0  0  0  0  0
    3.0260    0.7270   -0.8310 N   0  0  0  0  0  0  0  0  0  0  0  0
    4.4650    0.5320   -0.7890 C   0  0  0  0  0  0  0  0  0  0  0  0
    4.8180    0.2060    0.6140 C   0  0  0  0  0  0  0  0  0  0  0  0
    5.8430    0.7240    1.1700 O   0  0  0  0  0  0  0  0  0  0  0  0
    4.0240   -0.6690    1.3150 O   0  0  0  0  0  0  0  0  0  0  0  0
  1  2  1  0
  2  3  2  0
  2  4  1  0
  5  4  1  1
  5  6  1  0
  5  8  1  0
  6  7  1  0
  8  9  1  0
  9 10  2  0
  9 14  1  0
 10 11  1  0
 11 12  2  0
 12 13  1  0
 12 19  1  0
 13 14  2  0
 13 15  1  0
 15 16  1  0
 16 17  1  0
 17 18  2  0
 17 19  1  0
M  CHG  1   8   1
M  END
