
     RDKit          3D

 19 20  0  0  0  0  0  0  0  0999 V2000
   -6.4560    0.7940   -0.6640 N   0  0  0  0  0  0  0  0  0  0  0  0
   -5.1450    0.1640   -0.7950 C   0  0  0  0  0  0  0  0  0  0  0  0
   -4.7260    0.0780   -1.9700 O   0  0  0  0  0  0  0  0  0  0  0  0
   -4.5120   -0.2680    0.4090 C   0  0  0  0  0  0  0  0  0  0  0  0
   -3.3510   -0.8480    0.5140 C   0  0  0  0  0  0  0  0  0  0  0  0
   -2.4530   -1.1770   -0.5790 C   0  0  0  0  0  0  0  0  0  0  0  0
   -1.1840   -0.5310   -0.4520 O   0  0  0  0  0  0  0  0  0  0  0  0
   -0.3410   -0.7300    0.6300 C   0  0  0  0  0  0  0  0  0  0  0  0
   -0.7170   -1.5130    1.5290 O   0  0  0  0  0  0  0  0  0  0  0  0
    0.9480   -0.0080    0.6570 C   0  0  2  0  0  0  0  0  0  0  0  0
    1.1260    0.8110   -0.4800 O   0  0  0  0  0  0  0  0  0  0  0  0
    2.3590    1.4260   -0.6430 C   0  0  0  0  0  0  0  0  0  0  0  0
    2.7670    2.5710   -1.3430 C   0  0  0  0  0  0  0  0  0  0  0  0
    4.0900    2.7450   -1.1860 N   0  0  0  0  0  0  0  0  0  0  0  0
    4.5350    1.7450   -0.4080 C   0  0  0  0  0  0  0  0  0  0  0  0
    3.4810    0.9010   -0.0500 C   0  0  0  0  0  0  0  0  0  0  0  0
    3.4160   -0.3310    0.7810 C   0  0  0  0  0  0  0  0  0  0  0  0
    2.0920   -0.9980    0.7340 C   0  0  2  0  0  0  0  0  0  0  0  0
    1.9930   -1.9880   -0.3370 N   0  0  0  0  0  0  0  0  0  0  0  0
  1  2  1  0
  2  3  2  0
  2  4  1  0
  4  5  2  3
  5  6  1  0
  6  7  1  0
  7  8  1  0
  8  9  2  0
 10  8  1  6
 10 11  1  0
 10 18  1  0
 11 12  1  0
 12 13  2  0
 12 16  1  0
 13 14  1  0
 14 15  1  0
 15 16  2  0
 16 17  1  0
 17 18  1  0
 18 19  1  6
M  CHG  1  19   1
M  END
