
     RDKit          3D

 19 20  0  0  0  0  0  0  0  0999 V2000
   -4.5120    2.1620   -0.7460 N   0  0  0  0  0  0  0  0  0  0  0  0
   -3.4090    1.6340    0.0180 C   0  0  0  0  0  0  0  0  0  0  0  0
   -3.4400    0.1380    0.0750 C   0  0  0  0  0  0  0  0  0  0  0  0
   -4.4090   -0.5200   -0.5390 C   0  0  0  0  0  0  0  0  0  0  0  0
   -4.4910   -1.9520   -0.5190 N   0  0  0  0  0  0  0  0  0  0  0  0
   -3.4800   -2.6460    0.1930 C   0  0  0  0  0  0  0  0  0  0  0  0
   -3.2770   -3.8440   -0.0480 O   0  0  0  0  0  0  0  0  0  0  0  0
   -2.6740   -1.9450    1.2140 C   0  0  0  0  0  0  0  0  0  0  0  0
   -2.3580   -0.5200    0.8320 C   0  0  1  0  0  0  0  0  0  0  0  0
   -1.1400   -0.5520    0.0720 O   0  0  0  0  0  0  0  0  0  0  0  0
    0.0340    0.0060    0.5220 C   0  0  0  0  0  0  0  0  0  0  0  0
   -0.0050    0.5650    1.6650 O   0  0  0  0  0  0  0  0  0  0  0  0
    1.2500   -0.0060   -0.1990 N   0  0  0  0  0  0  0  0  0  0  0  0
    2.4530    0.5950    0.3190 C   0  0  0  0  0  0  0  0  0  0  0  0
    3.6220    0.4730   -0.5960 C   0  0  1  0  0  0  0  0  0  0  0  0
    4.8290    1.0730    0.1210 C   0  0  0  0  0  0  0  0  0  0  0  0
    5.9260    0.0360   -0.0150 C   0  0  0  0  0  0  0  0  0  0  0  0
    5.3300   -0.8980   -1.0500 C   0  0  0  0  0  0  0  0  0  0  0  0
    3.9650   -0.8460   -0.8780 O   0  0  0  0  0  0  0  0  0  0  0  0
  1  2  1  0
  2  3  1  0
  3  4  2  0
  3  9  1  0
  4  5  1  0
  5  6  1  0
  6  7  2  0
  6  8  1  0
  8  9  1  0
  9 10  1  6
 10 11  1  0
 11 12  2  0
 11 13  1  0
 13 14  1  0
 15 14  1  1
 15 16  1  0
 15 19  1  0
 16 17  1  0
 17 18  1  0
 18 19  1  0
M  CHG  1   1   1
M  END
