
     RDKit          3D

 24 25  0  0  0  0  0  0  0  0999 V2000
    1.9670    0.1960   -1.4810 C   0  0  0  0  0  0  0  0  0  0  0  0
    1.8710    0.1780    0.0360 C   0  0  1  0  0  0  0  0  0  0  0  0
    3.1570   -0.5350    0.4890 C   0  0  0  0  0  0  0  0  0  0  0  0
    1.9490    1.4530    0.5360 O   0  0  0  0  0  0  0  0  0  0  0  0
    0.6490    2.3420   -0.0350 S   0  0  1  0  0  0  0  0  0  0  0  0
    0.4140    3.4610    0.9410 O   0  0  0  0  0  0  0  0  0  0  0  0
    0.9910    2.9980   -1.3560 O   0  0  0  0  0  0  0  0  0  0  0  0
   -0.7530    1.2830   -0.1610 C   0  0  2  0  0  0  0  0  0  0  0  0
   -1.9060    2.0180    0.4710 C   0  0  0  0  0  0  0  0  0  0  0  0
   -2.3250    3.2710   -0.0600 N   0  0  0  0  0  0  0  0  0  0  0  0
   -2.5010    1.5470    1.4560 O   0  0  0  0  0  0  0  0  0  0  0  0
   -0.6020   -0.0310    0.5210 C   0  0  1  0  0  0  0  0  0  0  0  0
   -1.6320   -0.9750    0.0060 C   0  0  2  0  0  0  0  0  0  0  0  0
   -2.7160   -0.2130   -0.4880 O   0  0  0  0  0  0  0  0  0  0  0  0
   -2.1690   -1.7740    1.0180 O   0  0  0  0  0  0  0  0  0  0  0  0
   -1.1280   -1.8140   -1.0730 C   0  0  1  0  0  0  0  0  0  0  0  0
   -1.7950   -3.0250   -1.1540 O   0  0  0  0  0  0  0  0  0  0  0  0
   -1.0920   -1.2410   -2.3300 O   0  0  0  0  0  0  0  0  0  0  0  0
   -0.6080   -2.1600   -3.1600 O   0  0  0  0  0  0  0  0  0  0  0  0
    0.6140   -2.0970   -0.5760 S   0  0  0  0  0  0  0  0  0  0  0  0
    0.7320   -0.6420    0.5370 C   0  0  1  0  0  0  0  0  0  0  0  0
    1.1060   -1.1740    1.8710 C   0  0  0  0  0  0  0  0  0  0  0  0
    1.4090   -0.2610    2.9160 N   0  0  0  0  0  0  0  0  0  0  0  0
    1.1690   -2.3950    2.1200 O   0  0  0  0  0  0  0  0  0  0  0  0
  2  1  1  6
  2  3  1  0
  2  4  1  0
  2 21  1  0
  5  4  1  1
  5  6  2  0
  5  7  2  0
  5  8  1  0
  8  9  1  1
 12  8  1  6
  9 10  1  0
  9 11  2  0
 12 13  1  0
 12 21  1  0
 13 14  1  6
 13 15  1  0
 13 16  1  0
 16 17  1  6
 16 18  1  0
 16 20  1  0
 18 19  1  0
 20 21  1  0
 21 22  1  1
 22 23  1  0
 22 24  2  0
M  END
