
     RDKit          3D

 24 24  0  0  0  0  0  0  0  0999 V2000
   -4.8870    1.3980    0.2470 C   0  0  0  0  0  0  0  0  0  0  0  0
   -3.7090    0.6150    0.4160 O   0  0  0  0  0  0  0  0  0  0  0  0
   -3.0210    0.0330   -0.6220 C   0  0  0  0  0  0  0  0  0  0  0  0
   -3.4380    0.1860   -1.7890 O   0  0  0  0  0  0  0  0  0  0  0  0
   -1.7730   -0.7810   -0.3890 C   0  0  2  0  0  0  0  0  0  0  0  0
   -1.3000   -1.2720   -1.7010 C   0  0  0  0  0  0  0  0  0  0  0  0
   -2.1860   -1.9360    0.4830 C   0  0  0  0  0  0  0  0  0  0  0  0
   -2.1560   -1.3770    1.7570 O   0  0  0  0  0  0  0  0  0  0  0  0
   -1.0490   -0.5810    1.8320 C   0  0  1  0  0  0  0  0  0  0  0  0
    0.0350   -1.4250    2.1730 O   0  0  0  0  0  0  0  0  0  0  0  0
   -0.8370    0.0100    0.4200 C   0  0  2  0  0  0  0  0  0  0  0  0
   -1.1360    1.3720    0.4770 O   0  0  0  0  0  0  0  0  0  0  0  0
    0.6450   -0.1710    0.1720 C   0  0  1  0  0  0  0  0  0  0  0  0
    1.1580    0.1710   -1.4850 S   0  0  0  0  0  0  0  0  0  0  0  0
    2.9300    0.0950   -1.6330 C   0  0  0  0  0  0  0  0  0  0  0  0
    3.3850   -0.5170   -2.6800 O   0  0  0  0  0  0  0  0  0  0  0  0
    3.8470    0.6220   -0.7180 N   0  0  0  0  0  0  0  0  0  0  0  0
    5.5870    0.4750   -0.8850 S   0  0  2  0  0  0  0  0  0  0  0  0
    6.1250    0.1640    0.5020 O   0  0  0  0  0  0  0  0  0  0  0  0
    6.1980    1.7790   -1.2780 O   0  0  0  0  0  0  0  0  0  0  0  0
    5.9680   -0.7120   -1.9680 O   0  0  0  0  0  0  0  0  0  0  0  0
    1.3020    0.7360    1.1370 C   0  0  0  0  0  0  0  0  0  0  0  0
    1.0520    2.1280    1.0140 N   0  0  0  0  0  0  0  0  0  0  0  0
    2.0750    0.3420    2.0690 O   0  0  0  0  0  0  0  0  0  0  0  0
  1  2  1  0
  2  3  1  0
  3  4  2  0
  3  5  1  0
  5  6  1  6
  5  7  1  0
  5 11  1  0
  7  8  1  0
  8  9  1  0
  9 10  1  6
  9 11  1  0
 11 12  1  1
 11 13  1  0
 13 14  1  6
 13 22  1  0
 14 15  1  0
 15 16  2  0
 15 17  1  0
 17 18  1  0
 18 19  2  0
 18 20  2  0
 18 21  1  6
 22 23  1  0
 22 24  2  0
M  END
