
     RDKit          3D

 19 20  0  0  0  0  0  0  0  0999 V2000
   -4.8250    2.8930    0.5420 N   0  0  0  0  0  0  0  0  0  0  0  0
   -4.1400    1.7140    0.1350 C   0  0  0  0  0  0  0  0  0  0  0  0
   -4.8170    0.7470   -0.6050 C   0  0  0  0  0  0  0  0  0  0  0  0
   -4.1340   -0.3650   -0.9770 C   0  0  0  0  0  0  0  0  0  0  0  0
   -2.7980   -0.5160   -0.6200 C   0  0  0  0  0  0  0  0  0  0  0  0
   -2.1440   -1.6920   -1.0360 N   0  0  0  0  0  0  0  0  0  0  0  0
   -2.1310    0.4340    0.1080 C   0  0  0  0  0  0  0  0  0  0  0  0
   -0.8870    0.3700    0.4810 O   0  0  0  0  0  0  0  0  0  0  0  0
    0.2810   -0.2510    0.5330 C   0  0  2  0  0  0  0  0  0  0  0  0
    0.8420   -0.5470    1.9170 C   0  0  0  0  0  0  0  0  0  0  0  0
    1.9280   -1.5840    1.7220 C   0  0  0  0  0  0  0  0  0  0  0  0
    2.3430   -1.6600    0.4020 O   0  0  0  0  0  0  0  0  0  0  0  0
    2.6400   -0.4090   -0.1350 C   0  0  2  0  0  0  0  0  0  0  0  0
    3.1710   -0.6030   -1.5350 C   0  0  0  0  0  0  0  0  0  0  0  0
    3.4720    0.6420   -2.0760 O   0  0  0  0  0  0  0  0  0  0  0  0
    3.7840    0.1880    0.6800 C   0  0  0  0  0  0  0  0  0  0  0  0
    4.1360    1.4460    0.1980 O   0  0  0  0  0  0  0  0  0  0  0  0
    1.4380    0.5080   -0.1650 C   0  0  0  0  0  0  0  0  0  0  0  0
   -2.8680    1.5370    0.4570 N   0  0  0  0  0  0  0  0  0  0  0  0
  1  2  1  0
  2  3  2  0
  2 19  1  0
  3  4  1  0
  4  5  2  0
  5  6  1  0
  5  7  1  0
  7  8  1  0
  7 19  2  0
  9  8  1  1
  9 10  1  0
  9 18  1  0
 10 11  1  0
 11 12  1  0
 12 13  1  0
 13 14  1  6
 13 16  1  0
 13 18  1  0
 14 15  1  0
 16 17  1  0
M  CHG  1   6   1
M  END
