
     RDKit          3D

 15 15  0  0  0  0  0  0  0  0999 V2000
   -1.8420    0.6200   -2.4130 O   0  0  0  0  0  0  0  0  0  0  0  0
   -2.2760    0.9590   -1.2870 C   0  0  0  0  0  0  0  0  0  0  0  0
   -3.3680    1.8310   -1.1810 O   0  0  0  0  0  0  0  0  0  0  0  0
   -1.6130    0.4200   -0.0770 C   0  0  2  0  0  0  0  0  0  0  0  0
   -0.5690   -0.4120   -0.4580 O   0  0  0  0  0  0  0  0  0  0  0  0
    0.7640   -0.2980   -0.1880 C   0  0  0  0  0  0  0  0  0  0  0  0
    1.5970   -1.2970   -0.7070 C   0  0  0  0  0  0  0  0  0  0  0  0
    2.9550   -1.2840   -0.4980 C   0  0  0  0  0  0  0  0  0  0  0  0
    3.5170   -0.2670    0.2400 C   0  0  0  0  0  0  0  0  0  0  0  0
    5.3990   -0.1700    0.5800 Br  0  0  0  0  0  0  0  0  0  0  0  0
    2.6950    0.7160    0.7510 C   0  0  0  0  0  0  0  0  0  0  0  0
    1.3290    0.7170    0.5500 C   0  0  0  0  0  0  0  0  0  0  0  0
   -2.6780   -0.3510    0.6640 C   0  0  0  0  0  0  0  0  0  0  0  0
   -3.7090    0.2170    1.0940 O   0  0  0  0  0  0  0  0  0  0  0  0
   -2.5630   -1.7120    0.8980 O   0  0  0  0  0  0  0  0  0  0  0  0
  1  2  2  0
  2  3  1  0
  2  4  1  0
  4  5  1  6
  4 13  1  0
  5  6  1  0
  6  7  2  0
  6 12  1  0
  7  8  1  0
  8  9  2  0
  9 10  1  0
  9 11  1  0
 11 12  2  0
 13 14  2  0
 13 15  1  0
M  END
