
     RDKit          3D

 19 21  0  0  0  0  0  0  0  0999 V2000
   -3.4530    0.7160    1.3370 C   0  0  0  0  0  0  0  0  0  0  0  0
   -3.4980   -0.0410    0.2570 C   0  0  0  0  0  0  0  0  0  0  0  0
   -2.6350   -1.1630   -0.0890 C   0  0  0  0  0  0  0  0  0  0  0  0
   -1.2850   -1.4860    0.4200 C   0  0  0  0  0  0  0  0  0  0  0  0
   -0.2500   -0.6160    0.1130 N   0  0  0  0  0  0  0  0  0  0  0  0
   -0.1310    0.6870    0.6460 C   0  0  0  0  0  0  0  0  0  0  0  0
    1.1620    1.2310    0.0900 C   0  0  0  0  0  0  0  0  0  0  0  0
    1.3640    2.3400   -0.5700 N   0  0  0  0  0  0  0  0  0  0  0  0
    2.6880    2.4590   -0.8080 N   0  0  0  0  0  0  0  0  0  0  0  0
    3.3390    1.4020   -0.2910 C   0  0  0  0  0  0  0  0  0  0  0  0
    2.3880    0.6160    0.2810 C   0  0  0  0  0  0  0  0  0  0  0  0
    3.0030   -0.6100    0.8300 C   0  0  0  0  0  0  0  0  0  0  0  0
    4.3850   -0.6360    0.2050 C   0  0  0  0  0  0  0  0  0  0  0  0
    4.6780    0.8090   -0.1460 C   0  0  0  0  0  0  0  0  0  0  0  0
   -3.3140   -1.9270   -0.9770 C   0  0  0  0  0  0  0  0  0  0  0  0
   -4.5820   -1.3640   -1.2290 N   0  0  0  0  0  0  0  0  0  0  0  0
   -4.4410    0.0720   -0.9000 C   0  0  1  0  0  0  0  0  0  0  0  0
   -5.9920    0.7660   -0.4880 Cl  0  0  0  0  0  0  0  0  0  0  0  0
   -3.5880    0.9110   -2.1810 Cl  0  0  0  0  0  0  0  0  0  0  0  0
  1  2  2  0
  2  3  1  0
  2 17  1  0
  3  4  1  0
  3 15  2  0
  4  5  1  0
  5  6  1  0
  6  7  1  0
  7  8  2  0
  7 11  1  0
  8  9  1  0
  9 10  1  0
 10 11  2  0
 10 14  1  0
 11 12  1  0
 12 13  1  0
 13 14  1  0
 15 16  1  0
 16 17  1  0
 17 18  1  1
 17 19  1  0
M  END
