
     RDKit          3D

 19 21  0  0  0  0  0  0  0  0999 V2000
    2.0990    2.7430    0.5290 N   0  0  0  0  0  0  0  0  0  0  0  0
    0.7580    2.3760    0.2640 C   0  0  0  0  0  0  0  0  0  0  0  0
   -0.2130    3.3120    0.1200 N   0  0  0  0  0  0  0  0  0  0  0  0
   -1.4950    3.0030   -0.1320 C   0  0  0  0  0  0  0  0  0  0  0  0
   -1.8070    1.7010   -0.2440 N   0  0  0  0  0  0  0  0  0  0  0  0
   -0.9010    0.7170   -0.1150 C   0  0  0  0  0  0  0  0  0  0  0  0
   -1.2640   -0.6750   -0.2400 N   0  0  0  0  0  0  0  0  0  0  0  0
   -2.6370   -0.9700   -0.5090 C   0  0  2  0  0  0  0  0  0  0  0  0
   -3.5960   -0.4570    0.5740 C   0  0  0  0  0  0  0  0  0  0  0  0
   -3.4300   -1.9260    0.2780 C   0  0  0  0  0  0  0  0  0  0  0  0
    0.3990    1.0640    0.1420 C   0  0  0  0  0  0  0  0  0  0  0  0
    1.3990   -0.0110    0.2850 C   0  0  0  0  0  0  0  0  0  0  0  0
    1.6720   -0.5860    1.5150 C   0  0  0  0  0  0  0  0  0  0  0  0
    2.6070   -1.5870    1.6360 C   0  0  0  0  0  0  0  0  0  0  0  0
    2.9450   -2.3060    3.1920 Cl  0  0  0  0  0  0  0  0  0  0  0  0
    3.3010   -2.0510    0.5420 C   0  0  0  0  0  0  0  0  0  0  0  0
    3.0520   -1.5020   -0.6870 C   0  0  0  0  0  0  0  0  0  0  0  0
    2.1100   -0.4970   -0.7910 C   0  0  0  0  0  0  0  0  0  0  0  0
    1.8000    0.1990   -2.3690 Cl  0  0  0  0  0  0  0  0  0  0  0  0
  1  2  1  0
  2  3  2  0
  2 11  1  0
  3  4  1  0
  4  5  2  0
  5  6  1  0
  6  7  1  0
  6 11  2  0
  8  7  1  1
  8  9  1  0
  8 10  1  0
  9 10  1  0
 11 12  1  0
 12 13  2  0
 12 18  1  0
 13 14  1  0
 14 15  1  0
 14 16  2  0
 16 17  1  0
 17 18  2  0
 18 19  1  0
M  END
