
     RDKit          3D

 19 21  0  0  0  0  0  0  0  0999 V2000
   -5.8010   -0.6500   -0.8790 Cl  0  0  0  0  0  0  0  0  0  0  0  0
   -4.8750    0.8240   -1.1430 C   0  0  0  0  0  0  0  0  0  0  0  0
   -3.4810    0.7840   -0.7060 C   0  0  0  0  0  0  0  0  0  0  0  0
   -2.9220   -0.2600   -0.1530 C   0  0  0  0  0  0  0  0  0  0  0  0
   -3.4650   -1.5820    0.1690 C   0  0  0  0  0  0  0  0  0  0  0  0
   -2.3550   -2.2990    0.7500 N   0  0  0  0  0  0  0  0  0  0  0  0
   -1.2360   -1.4430    0.7830 C   0  0  0  0  0  0  0  0  0  0  0  0
   -1.5010   -0.2690    0.2810 C   0  0  0  0  0  0  0  0  0  0  0  0
   -0.6050    0.8370    0.1560 N   0  0  0  0  0  0  0  0  0  0  0  0
    0.7970    0.6390    0.1280 C   0  0  0  0  0  0  0  0  0  0  0  0
    1.4880   -0.5160    0.2050 N   0  0  0  0  0  0  0  0  0  0  0  0
    2.8130   -0.3000    0.1430 C   0  0  0  0  0  0  0  0  0  0  0  0
    3.9400   -1.1120    0.1770 C   0  0  0  0  0  0  0  0  0  0  0  0
    5.2180   -0.6030    0.0910 C   0  0  0  0  0  0  0  0  0  0  0  0
    5.3630    0.7700   -0.0330 C   0  0  0  0  0  0  0  0  0  0  0  0
    6.9780    1.4620   -0.1450 Cl  0  0  0  0  0  0  0  0  0  0  0  0
    4.2350    1.5840   -0.0660 C   0  0  0  0  0  0  0  0  0  0  0  0
    2.9600    1.0680    0.0200 C   0  0  0  0  0  0  0  0  0  0  0  0
    1.7290    1.6100    0.0130 N   0  0  0  0  0  0  0  0  0  0  0  0
  1  2  1  0
  2  3  1  0
  3  4  2  3
  4  5  1  0
  4  8  1  0
  5  6  1  0
  6  7  1  0
  7  8  2  0
  8  9  1  0
  9 10  1  0
 10 11  2  0
 10 19  1  0
 11 12  1  0
 12 13  2  0
 12 18  1  0
 13 14  1  0
 14 15  2  0
 15 16  1  0
 15 17  1  0
 17 18  2  0
 18 19  1  0
M  END
