
     RDKit          3D

 18 20  0  0  0  0  0  0  0  0999 V2000
   -6.3780    0.5200    0.7540 Cl  0  0  0  0  0  0  0  0  0  0  0  0
   -4.8480    0.9280    1.4040 N   0  0  0  0  0  0  0  0  0  0  0  0
   -3.5850    0.4890    0.9780 C   0  0  0  0  0  0  0  0  0  0  0  0
   -2.4670    0.9300    1.6310 N   0  0  0  0  0  0  0  0  0  0  0  0
   -1.2220    0.5520    1.2780 C   0  0  0  0  0  0  0  0  0  0  0  0
   -0.9920   -0.3040    0.2360 C   0  0  0  0  0  0  0  0  0  0  0  0
    0.2960   -0.6920   -0.1170 N   0  0  0  0  0  0  0  0  0  0  0  0
    1.5080   -0.2310    0.5240 C   0  0  1  0  0  0  0  0  0  0  0  0
    2.6970   -0.9290   -0.0910 C   0  0  0  0  0  0  0  0  0  0  0  0
    3.9440   -0.4590    0.6280 C   0  0  0  0  0  0  0  0  0  0  0  0
    4.1680    0.9740    0.1850 C   0  0  0  0  0  0  0  0  0  0  0  0
    2.9000    1.5800   -0.3760 C   0  0  0  0  0  0  0  0  0  0  0  0
    1.6840    1.2470    0.4440 C   0  0  0  0  0  0  0  0  0  0  0  0
   -2.0900   -0.7710   -0.4480 C   0  0  0  0  0  0  0  0  0  0  0  0
   -2.2200   -1.6310   -1.5290 C   0  0  0  0  0  0  0  0  0  0  0  0
   -3.5530   -1.7600   -1.8140 C   0  0  0  0  0  0  0  0  0  0  0  0
   -4.2300   -0.9880   -0.9190 N   0  0  0  0  0  0  0  0  0  0  0  0
   -3.3870   -0.3730   -0.0750 C   0  0  0  0  0  0  0  0  0  0  0  0
  1  2  1  0
  2  3  1  0
  3  4  2  0
  3 18  1  0
  4  5  1  0
  5  6  2  0
  6  7  1  0
  6 14  1  0
  8  7  1  6
  8  9  1  0
  8 13  1  0
  9 10  1  0
 10 11  1  0
 11 12  1  0
 12 13  1  0
 14 15  1  0
 14 18  2  0
 15 16  2  0
 16 17  1  0
 17 18  1  0
M  END
