
     RDKit          3D

 18 20  0  0  0  0  0  0  0  0999 V2000
   -7.2280   -2.7820   -0.2050 Cl  0  0  0  0  0  0  0  0  0  0  0  0
   -6.0500   -1.5130   -0.4480 C   0  0  0  0  0  0  0  0  0  0  0  0
   -6.2680   -0.3820   -1.0640 C   0  0  0  0  0  0  0  0  0  0  0  0
   -5.2170    0.4090   -1.1140 C   0  0  0  0  0  0  0  0  0  0  0  0
   -4.1280   -0.2900   -0.4340 C   0  0  0  0  0  0  0  0  0  0  0  0
   -2.7560    0.1880   -0.2330 C   0  0  0  0  0  0  0  0  0  0  0  0
   -2.2660    1.3510   -0.6410 N   0  0  0  0  0  0  0  0  0  0  0  0
   -0.9880    1.4050   -0.2650 N   0  0  0  0  0  0  0  0  0  0  0  0
   -0.6380    0.2790    0.3890 C   0  0  0  0  0  0  0  0  0  0  0  0
    0.6090   -0.0760    0.9560 N   0  0  0  0  0  0  0  0  0  0  0  0
    1.7240    0.8230    0.8710 C   0  0  1  0  0  0  0  0  0  0  0  0
    2.9550    0.2780    1.5620 C   0  0  0  0  0  0  0  0  0  0  0  0
    3.4550   -0.9860    0.8990 C   0  0  0  0  0  0  0  0  0  0  0  0
    3.5830   -0.8220   -0.5980 C   0  0  0  0  0  0  0  0  0  0  0  0
    3.3460    0.6070   -1.0290 C   0  0  0  0  0  0  0  0  0  0  0  0
    1.9950    1.1260   -0.5870 C   0  0  0  0  0  0  0  0  0  0  0  0
   -1.7760   -0.4720    0.3940 N   0  0  0  0  0  0  0  0  0  0  0  0
   -4.6480   -1.4470   -0.0390 C   0  0  0  0  0  0  0  0  0  0  0  0
  1  2  1  0
  2  3  2  0
  2 18  1  0
  3  4  2  0
  4  5  1  0
  5  6  1  0
  5 18  2  0
  6  7  2  0
  6 17  1  0
  7  8  1  0
  8  9  1  0
  9 10  1  0
  9 17  2  0
 11 10  1  6
 11 12  1  0
 11 16  1  0
 12 13  1  0
 13 14  1  0
 14 15  1  0
 15 16  1  0
M  END
