
     RDKit          3D

 19 21  0  0  0  0  0  0  0  0999 V2000
   -4.4630    0.4190   -1.2800 C   0  0  0  0  0  0  0  0  0  0  0  0
   -3.2320    0.4580   -0.4500 C   0  0  0  0  0  0  0  0  0  0  0  0
   -2.9780    1.3820    0.4870 N   0  0  0  0  0  0  0  0  0  0  0  0
   -1.7680    1.1330    1.0620 C   0  0  0  0  0  0  0  0  0  0  0  0
   -1.0370    1.7410    2.0530 C   0  0  0  0  0  0  0  0  0  0  0  0
    0.1900    1.2680    2.4590 C   0  0  0  0  0  0  0  0  0  0  0  0
    0.7410    0.1500    1.8800 C   0  0  0  0  0  0  0  0  0  0  0  0
    2.3060   -0.4830    2.3980 Cl  0  0  0  0  0  0  0  0  0  0  0  0
    0.0380   -0.4820    0.8870 C   0  0  0  0  0  0  0  0  0  0  0  0
    0.5660   -1.6350    0.2450 N   0  0  0  0  0  0  0  0  0  0  0  0
    1.3900   -1.6270   -0.9280 C   0  0  0  0  0  0  0  0  0  0  0  0
    2.6880   -0.9080   -0.7560 C   0  0  0  0  0  0  0  0  0  0  0  0
    2.9040    0.4380   -0.9090 C   0  0  0  0  0  0  0  0  0  0  0  0
    4.2410    0.6630   -0.6650 C   0  0  0  0  0  0  0  0  0  0  0  0
    4.7740   -0.5340   -0.3780 N   0  0  0  0  0  0  0  0  0  0  0  0
    3.8540   -1.4650   -0.4320 N   0  0  0  0  0  0  0  0  0  0  0  0
   -1.2150    0.0030    0.4750 C   0  0  0  0  0  0  0  0  0  0  0  0
   -2.1480   -0.3930   -0.4600 C   0  0  0  0  0  0  0  0  0  0  0  0
   -2.0190   -1.7750   -1.5150 Cl  0  0  0  0  0  0  0  0  0  0  0  0
  1  2  1  0
  2  3  1  0
  2 18  2  0
  3  4  1  0
  4  5  2  0
  4 17  1  0
  5  6  1  0
  6  7  2  0
  7  8  1  0
  7  9  1  0
  9 10  1  0
  9 17  2  0
 10 11  1  0
 11 12  1  0
 12 13  2  0
 12 16  1  0
 13 14  1  0
 14 15  2  0
 15 16  1  0
 17 18  1  0
 18 19  1  0
M  END
