
     RDKit          3D

 19 21  0  0  0  0  0  0  0  0999 V2000
   -3.3160   -2.5560   -0.0880 Cl  0  0  0  0  0  0  0  0  0  0  0  0
   -2.6520   -1.0920   -0.9040 C   0  0  0  0  0  0  0  0  0  0  0  0
   -2.1100   -0.2140    0.1660 C   0  0  2  0  0  0  0  0  0  0  0  0
   -3.2890    0.1200    1.0890 C   0  0  0  0  0  0  0  0  0  0  0  0
   -3.6390    1.5320    0.7950 C   0  0  0  0  0  0  0  0  0  0  0  0
   -2.7670    1.9230   -0.3650 C   0  0  0  0  0  0  0  0  0  0  0  0
   -1.6070    1.0590   -0.2350 N   0  0  0  0  0  0  0  0  0  0  0  0
   -0.6940    1.1320   -1.2960 C   0  0  0  0  0  0  0  0  0  0  0  0
    0.4980    0.2710   -1.1350 C   0  0  0  0  0  0  0  0  0  0  0  0
    1.5400    0.4470   -0.2160 C   0  0  0  0  0  0  0  0  0  0  0  0
    2.4770   -0.5410   -0.3640 C   0  0  0  0  0  0  0  0  0  0  0  0
    3.7140   -0.7410    0.3810 C   0  0  0  0  0  0  0  0  0  0  0  0
    4.5920   -1.7430    0.1770 N   0  0  0  0  0  0  0  0  0  0  0  0
    5.6140   -1.6440    1.0170 N   0  0  0  0  0  0  0  0  0  0  0  0
    5.4140   -0.5630    1.7890 C   0  0  0  0  0  0  0  0  0  0  0  0
    4.2100    0.0190    1.3940 C   0  0  0  0  0  0  0  0  0  0  0  0
    3.5110    1.4580    2.1020 Cl  0  0  0  0  0  0  0  0  0  0  0  0
    2.0030   -1.3370   -1.3920 C   0  0  0  0  0  0  0  0  0  0  0  0
    0.8230   -0.8270   -1.8290 N   0  0  0  0  0  0  0  0  0  0  0  0
  1  2  1  0
  3  2  1  6
  3  4  1  0
  3  7  1  0
  4  5  1  0
  5  6  1  0
  6  7  1  0
  7  8  1  0
  8  9  1  0
  9 10  2  0
  9 19  1  0
 10 11  1  0
 11 12  1  0
 11 18  2  0
 12 13  1  0
 12 16  2  0
 13 14  1  0
 14 15  2  0
 15 16  1  0
 16 17  1  0
 18 19  1  0
M  END
