
     RDKit          3D

 28 31  0  0  0  0  0  0  0  0999 V2000
   -5.3950    2.6210   -0.9710 C   0  0  0  0  0  0  0  0  0  0  0  0
   -4.2680    1.7580   -0.5070 C   0  0  0  0  0  0  0  0  0  0  0  0
   -4.1150    0.4760   -0.9580 C   0  0  0  0  0  0  0  0  0  0  0  0
   -3.0420   -0.2960   -0.4950 C   0  0  0  0  0  0  0  0  0  0  0  0
   -2.8820   -1.6540   -0.9730 C   0  0  0  0  0  0  0  0  0  0  0  0
   -3.7080   -2.1910   -1.8260 C   0  0  0  0  0  0  0  0  0  0  0  0
   -3.4030   -3.8940   -2.3470 S   0  0  0  0  0  0  0  0  0  0  0  0
   -2.8790   -4.6440   -1.1320 O   0  0  0  0  0  0  0  0  0  0  0  0
   -2.1460    0.2350    0.4110 C   0  0  0  0  0  0  0  0  0  0  0  0
   -1.0600   -0.5070    0.8960 N   0  0  0  0  0  0  0  0  0  0  0  0
   -0.1550    0.1070    1.8480 C   0  0  0  0  0  0  0  0  0  0  0  0
    0.9490   -0.7950    2.2700 C   0  0  0  0  0  0  0  0  0  0  0  0
    1.8350   -1.2870    1.2190 C   0  0  0  0  0  0  0  0  0  0  0  0
    1.6970   -2.5840    0.7390 C   0  0  0  0  0  0  0  0  0  0  0  0
    2.4950   -3.1160   -0.2480 C   0  0  0  0  0  0  0  0  0  0  0  0
    3.4940   -2.3540   -0.8130 C   0  0  0  0  0  0  0  0  0  0  0  0
    3.6520   -1.0650   -0.3550 C   0  0  0  0  0  0  0  0  0  0  0  0
    2.8470   -0.5300    0.6370 C   0  0  0  0  0  0  0  0  0  0  0  0
    2.9690    0.8590    1.0640 C   0  0  0  0  0  0  0  0  0  0  0  0
    4.2710    1.4830    0.7170 C   0  0  0  0  0  0  0  0  0  0  0  0
    5.0190    0.9300   -0.4170 C   0  0  0  0  0  0  0  0  0  0  0  0
    6.0890    1.4730   -1.1340 C   0  0  0  0  0  0  0  0  0  0  0  0
    6.4340    0.5280   -2.0170 N   0  0  0  0  0  0  0  0  0  0  0  0
    5.6640   -0.5340   -1.8940 N   0  0  0  0  0  0  0  0  0  0  0  0
    4.7700   -0.3110   -0.9040 C   0  0  0  0  0  0  0  0  0  0  0  0
   -2.3410    1.5020    0.8250 N   0  0  0  0  0  0  0  0  0  0  0  0
   -3.3590    2.2610    0.3970 C   0  0  0  0  0  0  0  0  0  0  0  0
   -3.5540    3.6670    0.8730 C   0  0  0  0  0  0  0  0  0  0  0  0
  1  2  1  0
  2  3  2  0
  2 27  1  0
  3  4  1  0
  4  5  1  0
  4  9  2  0
  5  6  2  3
  6  7  1  0
  7  8  2  0
  9 10  1  0
  9 26  1  0
 10 11  1  0
 11 12  1  0
 12 13  1  0
 13 14  2  0
 13 18  1  0
 14 15  1  0
 15 16  2  0
 16 17  1  0
 17 18  2  0
 17 25  1  0
 18 19  1  0
 19 20  1  0
 20 21  1  0
 21 22  1  0
 21 25  2  0
 22 23  2  0
 23 24  1  0
 24 25  1  0
 26 27  2  0
 27 28  1  0
M  END
