
     RDKit          3D

 28 31  0  0  0  0  0  0  0  0999 V2000
    7.8790    0.0090   -1.1190 C   0  0  0  0  0  0  0  0  0  0  0  0
    6.4710    0.0760   -0.4950 C   0  0  0  0  0  0  0  0  0  0  0  0
    6.1860    1.4740   -0.1150 C   0  0  0  0  0  0  0  0  0  0  0  0
    7.0760    2.5120   -0.1940 N   0  0  0  0  0  0  0  0  0  0  0  0
    6.4400    3.5880    0.2330 N   0  0  0  0  0  0  0  0  0  0  0  0
    5.2030    3.2660    0.5700 N   0  0  0  0  0  0  0  0  0  0  0  0
    4.9980    1.9490    0.3690 C   0  0  0  0  0  0  0  0  0  0  0  0
    3.7700    1.2160    0.6060 C   0  0  0  0  0  0  0  0  0  0  0  0
    3.7330    0.0250    1.2630 C   0  0  0  0  0  0  0  0  0  0  0  0
    2.5270   -0.6400    1.4560 C   0  0  0  0  0  0  0  0  0  0  0  0
    1.3190   -0.1530    1.0070 C   0  0  0  0  0  0  0  0  0  0  0  0
    0.0510   -0.8960    1.2260 C   0  0  0  0  0  0  0  0  0  0  0  0
   -0.4880   -1.4270   -0.0000 N   0  0  0  0  0  0  0  0  0  0  0  0
   -1.7720   -2.2460   -0.1280 S   0  0  0  0  0  0  0  0  0  0  0  0
   -1.6870   -2.7900    1.2000 O   0  0  0  0  0  0  0  0  0  0  0  0
   -1.9490   -1.8880   -1.7330 C   0  0  0  0  0  0  0  0  0  0  0  0
   -1.9560   -0.3870   -1.9940 C   0  0  0  0  0  0  0  0  0  0  0  0
   -2.5330    0.4440   -0.9100 C   0  0  0  0  0  0  0  0  0  0  0  0
   -3.6250   -0.2870   -0.2530 C   0  0  0  0  0  0  0  0  0  0  0  0
   -3.3490   -1.5920    0.1600 C   0  0  0  0  0  0  0  0  0  0  0  0
   -4.4010   -2.2470    0.7610 C   0  0  0  0  0  0  0  0  0  0  0  0
   -5.6190   -1.6790    0.9430 C   0  0  0  0  0  0  0  0  0  0  0  0
   -5.8880   -0.3860    0.5320 C   0  0  0  0  0  0  0  0  0  0  0  0
   -7.2470    0.1570    0.7680 C   0  0  0  0  0  0  0  0  0  0  0  0
   -4.8580    0.3000   -0.0730 C   0  0  0  0  0  0  0  0  0  0  0  0
   -5.1600    1.6900   -0.4990 C   0  0  0  0  0  0  0  0  0  0  0  0
    1.3520    1.0580    0.3390 C   0  0  0  0  0  0  0  0  0  0  0  0
    2.5440    1.7220    0.1450 C   0  0  0  0  0  0  0  0  0  0  0  0
  1  2  1  0
  2  3  1  0
  3  4  2  0
  3  7  1  0
  4  5  1  0
  5  6  1  0
  6  7  2  0
  7  8  1  0
  8  9  2  0
  8 28  1  0
  9 10  1  0
 10 11  2  0
 11 12  1  0
 11 27  1  0
 12 13  1  0
 13 14  1  0
 14 15  2  0
 14 16  1  0
 14 20  1  0
 16 17  1  0
 17 18  1  0
 18 19  1  0
 19 20  2  0
 19 25  1  0
 20 21  1  0
 21 22  2  0
 22 23  1  0
 23 24  1  0
 23 25  2  0
 25 26  1  0
 27 28  2  0
M  END
