
     RDKit          3D

 18 18  0  0  0  0  0  0  0  0999 V2000
    3.9010   -2.6050    0.2530 C   0  0  0  0  0  0  0  0  0  0  0  0
    3.5490   -1.2910   -0.0910 O   0  0  0  0  0  0  0  0  0  0  0  0
    2.2940   -0.7560    0.1410 C   0  0  0  0  0  0  0  0  0  0  0  0
    1.3360   -1.5450    0.7390 C   0  0  0  0  0  0  0  0  0  0  0  0
    0.0760   -1.0210    0.9770 C   0  0  0  0  0  0  0  0  0  0  0  0
   -0.2510    0.2730    0.6320 C   0  0  0  0  0  0  0  0  0  0  0  0
   -1.6190    0.7980    0.9050 C   0  0  0  0  0  0  0  0  0  0  0  0
   -2.5610    0.5580   -0.2570 C   0  0  2  0  0  0  0  0  0  0  0  0
   -3.8850    1.1150    0.1160 C   0  0  0  0  0  0  0  0  0  0  0  0
   -4.0810    1.6690    1.2260 O   0  0  0  0  0  0  0  0  0  0  0  0
   -4.9730    1.0420   -0.7680 O   0  0  0  0  0  0  0  0  0  0  0  0
   -2.6810   -0.8860   -0.5760 C   0  0  0  0  0  0  0  0  0  0  0  0
   -2.3530   -1.3490   -1.7170 O   0  0  0  0  0  0  0  0  0  0  0  0
   -3.1530   -1.8270    0.3330 O   0  0  0  0  0  0  0  0  0  0  0  0
    0.7190    1.0660    0.0280 C   0  0  0  0  0  0  0  0  0  0  0  0
    1.9900    0.5400   -0.2130 C   0  0  0  0  0  0  0  0  0  0  0  0
    2.9520    1.3150   -0.8070 O   0  0  0  0  0  0  0  0  0  0  0  0
    2.7250    2.6540   -1.2020 C   0  0  0  0  0  0  0  0  0  0  0  0
  1  2  1  0
  2  3  1  0
  3  4  2  0
  3 16  1  0
  4  5  1  0
  5  6  2  0
  6  7  1  0
  6 15  1  0
  8  7  1  1
  8  9  1  0
  8 12  1  0
  9 10  2  0
  9 11  1  0
 12 13  2  0
 12 14  1  0
 15 16  2  0
 16 17  1  0
 17 18  1  0
M  END
