
     RDKit          3D

 28 31  0  0  0  0  0  0  0  0999 V2000
   -3.4790    0.3230   -2.0520 C   0  0  0  0  0  0  0  0  0  0  0  0
   -3.9170    0.7370   -0.8950 C   0  0  0  0  0  0  0  0  0  0  0  0
   -4.9000    1.8950   -0.9260 C   0  0  0  0  0  0  0  0  0  0  0  0
   -3.5410    0.2290    0.4050 C   0  0  0  0  0  0  0  0  0  0  0  0
   -4.3640    0.6170    1.4760 C   0  0  0  0  0  0  0  0  0  0  0  0
   -4.1130    0.2240    2.7300 N   0  0  0  0  0  0  0  0  0  0  0  0
   -3.0550   -0.5620    3.0060 C   0  0  0  0  0  0  0  0  0  0  0  0
   -2.2070   -0.9830    2.0180 C   0  0  0  0  0  0  0  0  0  0  0  0
   -1.0240   -1.8600    2.3040 C   0  0  0  0  0  0  0  0  0  0  0  0
   -2.4670   -0.5730    0.7000 C   0  0  0  0  0  0  0  0  0  0  0  0
   -1.5890   -1.0140   -0.2830 N   0  0  0  0  0  0  0  0  0  0  0  0
   -0.3200   -0.5150   -0.7170 C   0  0  0  0  0  0  0  0  0  0  0  0
   -0.0980    0.8640   -0.3740 C   0  0  0  0  0  0  0  0  0  0  0  0
   -1.1490    1.8340    0.6640 S   0  0  0  0  0  0  0  0  0  0  0  0
   -0.1510    3.3150    0.6380 C   0  0  0  0  0  0  0  0  0  0  0  0
   -0.4190    4.3820    1.2290 O   0  0  0  0  0  0  0  0  0  0  0  0
    0.8580    2.9600   -0.1290 N   0  0  0  0  0  0  0  0  0  0  0  0
    0.9310    1.7520   -0.6570 C   0  0  0  0  0  0  0  0  0  0  0  0
    2.1140    1.3640   -1.5480 C   0  0  0  0  0  0  0  0  0  0  0  0
    3.1360    0.6350   -0.8560 N   0  0  0  0  0  0  0  0  0  0  0  0
    4.0730    1.2420   -0.0430 C   0  0  0  0  0  0  0  0  0  0  0  0
    4.8990    0.3000    0.5170 C   0  0  0  0  0  0  0  0  0  0  0  0
    4.4860   -0.9210    0.0550 C   0  0  0  0  0  0  0  0  0  0  0  0
    4.9900   -2.1790    0.2980 C   0  0  0  0  0  0  0  0  0  0  0  0
    4.3980   -3.2690   -0.3210 C   0  0  0  0  0  0  0  0  0  0  0  0
    3.3310   -3.0450   -1.1530 C   0  0  0  0  0  0  0  0  0  0  0  0
    2.8480   -1.7760   -1.3780 C   0  0  0  0  0  0  0  0  0  0  0  0
    3.4100   -0.6630   -0.7780 C   0  0  0  0  0  0  0  0  0  0  0  0
  1  2  2  0
  2  3  1  0
  2  4  1  0
  4  5  2  0
  4 10  1  0
  5  6  1  0
  6  7  2  0
  7  8  1  0
  8  9  1  0
  8 10  2  0
 10 11  1  0
 11 12  1  0
 12 13  1  0
 13 14  1  0
 13 18  2  0
 14 15  1  0
 15 16  2  0
 15 17  1  0
 17 18  1  0
 18 19  1  0
 19 20  1  0
 20 21  1  0
 20 28  1  0
 21 22  2  0
 22 23  1  0
 23 24  2  0
 23 28  1  0
 24 25  1  0
 25 26  2  0
 26 27  1  0
 27 28  2  0
M  END
