
     RDKit          3D

 28 31  0  0  0  0  0  0  0  0999 V2000
    4.9450    0.7330   -4.8610 C   0  0  0  0  0  0  0  0  0  0  0  0
    5.2040    0.5620   -3.4290 N   0  0  0  0  0  0  0  0  0  0  0  0
    6.5770    0.4850   -3.0200 C   0  0  0  0  0  0  0  0  0  0  0  0
    4.0810    0.4900   -2.5750 C   0  0  0  0  0  0  0  0  0  0  0  0
    3.8360   -0.5520   -1.7980 C   0  0  0  0  0  0  0  0  0  0  0  0
    2.6480   -0.5760   -0.9250 C   0  0  0  0  0  0  0  0  0  0  0  0
    2.4080   -1.6110   -0.1540 C   0  0  0  0  0  0  0  0  0  0  0  0
    1.2470   -1.7170    0.7480 C   0  0  0  0  0  0  0  0  0  0  0  0
    1.1330   -2.7570    1.4330 O   0  0  0  0  0  0  0  0  0  0  0  0
    0.2770   -0.7270    0.8750 N   0  0  0  0  0  0  0  0  0  0  0  0
   -0.8770   -0.7040    1.7010 C   0  0  0  0  0  0  0  0  0  0  0  0
   -1.1230   -1.6260    2.6770 C   0  0  0  0  0  0  0  0  0  0  0  0
   -2.2600   -1.6220    3.4890 C   0  0  0  0  0  0  0  0  0  0  0  0
   -3.1770   -0.6280    3.2850 C   0  0  0  0  0  0  0  0  0  0  0  0
   -2.9660    0.3300    2.3040 C   0  0  0  0  0  0  0  0  0  0  0  0
   -3.9600    1.3790    2.1070 C   0  0  0  0  0  0  0  0  0  0  0  0
   -3.6170    2.6640    1.9570 N   0  0  0  0  0  0  0  0  0  0  0  0
   -4.6310    3.5360    1.7810 C   0  0  0  0  0  0  0  0  0  0  0  0
   -5.9580    3.1950    1.7460 C   0  0  0  0  0  0  0  0  0  0  0  0
   -6.3280    1.8340    1.9030 C   0  0  0  0  0  0  0  0  0  0  0  0
   -7.5790    1.3530    1.8910 C   0  0  0  0  0  0  0  0  0  0  0  0
   -7.7660   -0.0140    2.0600 C   0  0  0  0  0  0  0  0  0  0  0  0
   -6.0310   -0.5830    2.2410 S   0  0  0  0  0  0  0  0  0  0  0  0
   -5.2890    0.9980    2.0770 C   0  0  0  0  0  0  0  0  0  0  0  0
   -1.8350    0.2870    1.5300 C   0  0  0  0  0  0  0  0  0  0  0  0
    3.3570   -2.7140   -0.2020 C   0  0  0  0  0  0  0  0  0  0  0  0
    4.4280   -2.7530   -0.9550 C   0  0  0  0  0  0  0  0  0  0  0  0
    4.7280   -1.6530   -1.8080 N   0  0  0  0  0  0  0  0  0  0  0  0
  1  2  1  0
  2  3  1  0
  2  4  1  0
  4  5  2  3
  5  6  1  0
  5 28  1  0
  6  7  2  0
  7  8  1  0
  7 26  1  0
  8  9  2  0
  8 10  1  0
 10 11  1  0
 11 12  2  0
 11 25  1  0
 12 13  1  0
 13 14  2  0
 14 15  1  0
 15 16  1  0
 15 25  2  0
 16 17  2  0
 16 24  1  0
 17 18  1  0
 18 19  2  0
 19 20  1  0
 20 21  1  0
 20 24  2  0
 21 22  2  0
 22 23  1  0
 23 24  1  0
 26 27  2  0
 27 28  1  0
M  END
