
     RDKit          3D

 28 31  0  0  0  0  0  0  0  0999 V2000
    6.1240   -3.8500   -0.1240 C   0  0  0  0  0  0  0  0  0  0  0  0
    4.7330   -3.3690    0.2420 C   0  0  0  0  0  0  0  0  0  0  0  0
    4.6210   -3.1050    1.7100 C   0  0  0  0  0  0  0  0  0  0  0  0
    3.2870   -2.6370    2.0520 N   0  0  0  0  0  0  0  0  0  0  0  0
    2.8480   -1.3390    1.6910 C   0  0  0  0  0  0  0  0  0  0  0  0
    3.6890   -0.4130    1.1500 C   0  0  0  0  0  0  0  0  0  0  0  0
    3.2840    0.8660    0.8040 C   0  0  0  0  0  0  0  0  0  0  0  0
    1.9570    1.2670    1.0040 C   0  0  0  0  0  0  0  0  0  0  0  0
    1.5680    2.5250    0.6620 C   0  0  0  0  0  0  0  0  0  0  0  0
    0.2210    2.9300    0.8680 C   0  0  0  0  0  0  0  0  0  0  0  0
   -0.1800    4.1570    0.5330 C   0  0  0  0  0  0  0  0  0  0  0  0
   -0.5610    5.3460    0.1860 N   0  0  0  0  0  0  0  0  0  0  0  0
   -0.6160    1.9590    1.4280 C   0  0  0  0  0  0  0  0  0  0  0  0
   -2.2860    2.4240    1.8120 S   0  0  0  0  0  0  0  0  0  0  0  0
   -3.3420    2.1810    0.4060 C   0  0  0  0  0  0  0  0  0  0  0  0
   -3.7730    3.2750   -0.3620 C   0  0  0  0  0  0  0  0  0  0  0  0
   -4.5940    3.1200   -1.4430 C   0  0  0  0  0  0  0  0  0  0  0  0
   -5.0490    1.8660   -1.8440 C   0  0  0  0  0  0  0  0  0  0  0  0
   -5.8810    1.7580   -2.9520 C   0  0  0  0  0  0  0  0  0  0  0  0
   -6.2630    0.5050   -3.2650 N   0  0  0  0  0  0  0  0  0  0  0  0
   -5.8930   -0.5850   -2.5880 C   0  0  0  0  0  0  0  0  0  0  0  0
   -6.2920   -1.8780   -2.9170 O   0  0  0  0  0  0  0  0  0  0  0  0
   -5.0550   -0.4820   -1.4680 C   0  0  0  0  0  0  0  0  0  0  0  0
   -4.6300    0.7860   -1.0990 C   0  0  0  0  0  0  0  0  0  0  0  0
   -3.7920    0.9380    0.0070 C   0  0  0  0  0  0  0  0  0  0  0  0
   -0.1570    0.7250    1.7400 N   0  0  0  0  0  0  0  0  0  0  0  0
    1.1110    0.3340    1.5500 C   0  0  0  0  0  0  0  0  0  0  0  0
    1.5310   -0.9430    1.8900 C   0  0  0  0  0  0  0  0  0  0  0  0
  1  2  1  0
  2  3  1  0
  3  4  1  0
  4  5  1  0
  5  6  2  0
  5 28  1  0
  6  7  1  0
  7  8  2  0
  8  9  1  0
  8 27  1  0
  9 10  2  0
 10 11  1  0
 10 13  1  0
 11 12  3  0
 13 14  1  0
 13 26  2  0
 14 15  1  0
 15 16  2  0
 15 25  1  0
 16 17  1  0
 17 18  2  0
 18 19  1  0
 18 24  1  0
 19 20  2  0
 20 21  1  0
 21 22  1  0
 21 23  2  0
 23 24  1  0
 24 25  2  0
 26 27  1  0
 27 28  2  0
M  END
