
     RDKit          3D

 18 19  0  0  0  0  0  0  0  0999 V2000
   -2.9880    1.1730   -2.0170 C   0  0  0  0  0  0  0  0  0  0  0  0
   -2.4080    0.5630   -0.7910 C   0  0  0  0  0  0  0  0  0  0  0  0
   -1.0790    0.1860   -0.7510 C   0  0  0  0  0  0  0  0  0  0  0  0
   -0.5830   -0.3800    0.4200 C   0  0  0  0  0  0  0  0  0  0  0  0
    0.7930   -0.7680    0.4540 N   0  0  0  0  0  0  0  0  0  0  0  0
    1.2210   -1.9260    0.8700 N   0  0  0  0  0  0  0  0  0  0  0  0
    2.5310   -2.2740    0.8940 C   0  0  0  0  0  0  0  0  0  0  0  0
    3.4780   -1.3710    0.4590 C   0  0  0  0  0  0  0  0  0  0  0  0
    3.0520   -0.1490    0.0170 C   0  0  0  0  0  0  0  0  0  0  0  0
    4.0670    0.8240   -0.4520 C   0  0  1  0  0  0  0  0  0  0  0  0
    3.8670    1.0890   -1.8110 F   0  0  0  0  0  0  0  0  0  0  0  0
    3.9670    2.0360    0.2160 F   0  0  0  0  0  0  0  0  0  0  0  0
    1.7030    0.1250    0.0260 C   0  0  0  0  0  0  0  0  0  0  0  0
    1.3660    1.2750   -0.3960 O   0  0  0  0  0  0  0  0  0  0  0  0
   -1.4170   -0.5520    1.5060 C   0  0  0  0  0  0  0  0  0  0  0  0
   -2.7440   -0.1790    1.4750 C   0  0  0  0  0  0  0  0  0  0  0  0
   -3.2400    0.3820    0.3190 C   0  0  0  0  0  0  0  0  0  0  0  0
   -4.5630    0.7830    0.2110 O   0  0  0  0  0  0  0  0  0  0  0  0
  1  2  1  0
  2  3  2  0
  2 17  1  0
  3  4  1  0
  4  5  1  0
  4 15  2  0
  5  6  1  0
  5 13  1  0
  6  7  2  0
  7  8  1  0
  8  9  2  0
  9 10  1  0
  9 13  1  0
 10 11  1  6
 10 12  1  0
 13 14  2  0
 15 16  1  0
 16 17  2  0
 17 18  1  0
M  END
