
     RDKit          3D

 20 19  0  0  0  0  0  0  0  0999 V2000
   -3.9490    1.0170   -2.1900 N   0  0  0  0  0  0  0  0  0  0  0  0
   -4.1790    1.0050   -0.7580 C   0  0  1  0  0  0  0  0  0  0  0  0
   -5.1390   -0.1160   -0.4150 C   0  0  0  0  0  0  0  0  0  0  0  0
   -5.4100   -0.1850    0.9890 N   0  0  0  0  0  0  0  0  0  0  0  0
   -2.9230    0.9140    0.0110 C   0  0  0  0  0  0  0  0  0  0  0  0
   -2.6110    1.8700    0.8530 C   0  0  0  0  0  0  0  0  0  0  0  0
   -1.4370    1.8000    1.5820 O   0  0  0  0  0  0  0  0  0  0  0  0
   -2.1050   -0.1560   -0.1620 O   0  0  0  0  0  0  0  0  0  0  0  0
   -0.8560   -0.3960    0.4430 C   0  0  0  0  0  0  0  0  0  0  0  0
   -0.3640   -1.7270   -0.0890 C   0  0  0  0  0  0  0  0  0  0  0  0
    0.8680   -2.1130    0.4150 O   0  0  0  0  0  0  0  0  0  0  0  0
    2.0560   -1.4080    0.2800 C   0  0  0  0  0  0  0  0  0  0  0  0
    2.0110   -0.3410   -0.3460 O   0  0  0  0  0  0  0  0  0  0  0  0
    3.2070   -1.9270    0.8420 O   0  0  0  0  0  0  0  0  0  0  0  0
    4.4480   -1.2640    0.7380 C   0  0  0  0  0  0  0  0  0  0  0  0
    4.8410   -1.1520   -0.6990 C   0  0  0  0  0  0  0  0  0  0  0  0
    6.1210   -0.4750   -0.8360 N   0  0  0  0  0  0  0  0  0  0  0  0
    6.3080    0.8520   -0.3880 C   0  0  0  0  0  0  0  0  0  0  0  0
    5.3790    1.4990    0.1420 O   0  0  0  0  0  0  0  0  0  0  0  0
    7.9310    1.5800   -0.6070 S   0  0  0  0  0  0  0  0  0  0  0  0
  2  1  1  6
  2  3  1  0
  2  5  1  0
  3  4  1  0
  5  6  2  3
  5  8  1  0
  6  7  1  0
  8  9  1  0
  9 10  1  0
 10 11  1  0
 11 12  1  0
 12 13  2  0
 12 14  1  0
 14 15  1  0
 15 16  1  0
 16 17  1  0
 17 18  1  0
 18 19  2  0
 18 20  1  0
M  CHG  1   4   1
M  END
