
     RDKit          3D

 19 18  0  0  0  0  0  0  0  0999 V2000
   -2.3650   -2.1640    0.8330 C   0  0  0  0  0  0  0  0  0  0  0  0
   -1.1340   -1.7000    0.0380 C   0  0  1  0  0  0  0  0  0  0  0  0
   -1.5650   -0.5040   -0.7400 C   0  0  0  0  0  0  0  0  0  0  0  0
   -2.0160    0.5580    0.1110 O   0  0  0  0  0  0  0  0  0  0  0  0
   -2.4590    1.7560   -0.4320 C   0  0  0  0  0  0  0  0  0  0  0  0
   -2.4350    1.8380   -1.6870 O   0  0  0  0  0  0  0  0  0  0  0  0
   -2.9260    2.8640    0.3840 C   0  0  0  0  0  0  0  0  0  0  0  0
   -3.3600    4.0500   -0.2550 N   0  0  0  0  0  0  0  0  0  0  0  0
   -2.9740    2.8050    2.0110 S   0  0  0  0  0  0  0  0  0  0  0  0
   -0.0780   -1.5190    0.9470 N   0  0  0  0  0  0  0  0  0  0  0  0
    0.7820   -0.3860    0.7210 C   0  0  0  0  0  0  0  0  0  0  0  0
    1.8150   -0.6530   -0.3520 C   0  0  0  0  0  0  0  0  0  0  0  0
    2.6080    0.4650   -0.5280 O   0  0  0  0  0  0  0  0  0  0  0  0
    3.3080    0.8770    0.5750 C   0  0  0  0  0  0  0  0  0  0  0  0
    4.1180    2.1120    0.1480 C   0  0  0  0  0  0  0  0  0  0  0  0
    3.3020    3.1280   -0.2920 O   0  0  0  0  0  0  0  0  0  0  0  0
   -0.8210   -2.8060   -0.9020 C   0  0  0  0  0  0  0  0  0  0  0  0
    0.3740   -3.5620   -0.8630 N   0  0  0  0  0  0  0  0  0  0  0  0
   -1.6570   -3.1170   -1.8110 O   0  0  0  0  0  0  0  0  0  0  0  0
  2  1  1  1
  2  3  1  0
  2 10  1  0
  2 17  1  0
  3  4  1  0
  4  5  1  0
  5  6  2  0
  5  7  1  0
  7  8  1  0
  7  9  2  0
 10 11  1  0
 11 12  1  0
 12 13  1  0
 13 14  1  0
 14 15  1  0
 15 16  1  0
 17 18  1  0
 17 19  2  0
M  CHG  1  10   1
M  END
