
     RDKit          3D

 18 19  0  0  0  0  0  0  0  0999 V2000
   -2.1340    0.7410    2.0740 C   0  0  0  0  0  0  0  0  0  0  0  0
   -2.1390   -0.3130    1.0080 C   0  0  0  0  0  0  0  0  0  0  0  0
   -1.7890    0.2000   -0.3550 C   0  0  2  0  0  0  0  0  0  0  0  0
   -2.7780    1.2620   -0.7880 C   0  0  0  0  0  0  0  0  0  0  0  0
   -1.9450   -0.9140   -1.2880 N   0  0  0  0  0  0  0  0  0  0  0  0
   -0.8550   -1.6980   -1.7370 C   0  0  0  0  0  0  0  0  0  0  0  0
   -0.9960   -2.9440   -1.9990 O   0  0  0  0  0  0  0  0  0  0  0  0
    0.4620   -1.0440   -1.9000 C   0  0  0  0  0  0  0  0  0  0  0  0
    0.6950   -0.1220   -0.8010 N   0  0  0  0  0  0  0  0  0  0  0  0
    1.9350   -0.0280   -0.1000 C   0  0  0  0  0  0  0  0  0  0  0  0
    3.0160   -0.7310   -0.4500 C   0  0  0  0  0  0  0  0  0  0  0  0
    4.1450   -0.4240    0.4630 C   0  0  0  0  0  0  0  0  0  0  0  0
    3.5650    0.5540    1.3970 C   0  0  0  0  0  0  0  0  0  0  0  0
    4.1680    1.1720    2.4520 F   0  0  0  0  0  0  0  0  0  0  0  0
    2.3100    0.7580    1.0520 C   0  0  0  0  0  0  0  0  0  0  0  0
    1.4650    1.6080    1.7140 F   0  0  0  0  0  0  0  0  0  0  0  0
   -0.3840    0.7000   -0.4230 C   0  0  0  0  0  0  0  0  0  0  0  0
   -0.1910    1.8990   -0.1280 O   0  0  0  0  0  0  0  0  0  0  0  0
  1  2  1  0
  2  3  1  0
  3  4  1  6
  3  5  1  0
  3 17  1  0
  5  6  1  0
  6  7  2  0
  6  8  1  0
  8  9  1  0
  9 10  1  0
  9 17  1  0
 10 11  2  0
 10 15  1  0
 11 12  1  0
 12 13  1  0
 13 14  1  0
 13 15  2  0
 15 16  1  0
 17 18  2  0
M  END
