
     RDKit          3D

 18 18  0  0  0  0  0  0  0  0999 V2000
   -1.9970    1.2510    0.8560 C   0  0  0  0  0  0  0  0  0  0  0  0
   -1.0700    1.0510   -0.2980 C   0  0  0  0  0  0  0  0  0  0  0  0
   -0.4750    2.0160   -0.8020 N   0  0  0  0  0  0  0  0  0  0  0  0
    0.4120    2.2160   -1.8200 N   0  0  0  0  0  0  0  0  0  0  0  0
    1.8050    1.9690   -1.8590 C   0  0  0  0  0  0  0  0  0  0  0  0
    2.5290    2.7940   -2.5360 O   0  0  0  0  0  0  0  0  0  0  0  0
    2.5060    0.8480   -1.1910 C   0  0  0  0  0  0  0  0  0  0  0  0
    2.3000    0.7690    0.2910 C   0  0  0  0  0  0  0  0  0  0  0  0
    2.2130   -0.6490    0.7270 C   0  0  0  0  0  0  0  0  0  0  0  0
    2.9560   -1.4340    0.0070 O   0  0  0  0  0  0  0  0  0  0  0  0
    1.4610   -1.2510    1.7880 C   0  0  0  0  0  0  0  0  0  0  0  0
    0.2580   -1.6900    1.9520 C   0  0  0  0  0  0  0  0  0  0  0  0
   -0.9660   -1.8410    1.2330 C   0  0  0  0  0  0  0  0  0  0  0  0
   -1.4850   -1.3410    0.1620 C   0  0  0  0  0  0  0  0  0  0  0  0
   -2.8840   -1.7860   -0.2900 C   0  0  2  0  0  0  0  0  0  0  0  0
   -3.7460   -0.7380   -0.3550 F   0  0  0  0  0  0  0  0  0  0  0  0
   -3.3930   -2.7650    0.4920 F   0  0  0  0  0  0  0  0  0  0  0  0
   -0.9170   -0.3390   -0.7840 C   0  0  0  0  0  0  0  0  0  0  0  0
  1  2  1  0
  2  3  2  0
  2 18  1  0
  3  4  1  0
  4  5  1  0
  5  6  2  0
  5  7  1  0
  7  8  1  0
  8  9  1  0
  9 10  2  0
  9 11  1  0
 11 12  2  0
 12 13  1  0
 13 14  2  0
 14 15  1  0
 14 18  1  0
 15 16  1  1
 15 17  1  0
M  END
