
     RDKit          3D

 18 19  0  0  0  0  0  0  0  0999 V2000
    5.9660   -0.3610   -1.3510 O   0  0  0  0  0  0  0  0  0  0  0  0
    4.9390    0.1380   -0.8480 C   0  0  0  0  0  0  0  0  0  0  0  0
    4.8380    1.4480   -0.1880 C   0  0  0  0  0  0  0  0  0  0  0  0
    3.6380    1.5730    0.1790 N   0  0  0  0  0  0  0  0  0  0  0  0
    2.8290    0.4240   -0.1700 C   0  0  0  0  0  0  0  0  0  0  0  0
    1.4120    0.2760    0.1030 C   0  0  0  0  0  0  0  0  0  0  0  0
    0.6080   -0.6840   -0.1480 C   0  0  0  0  0  0  0  0  0  0  0  0
    0.9630   -1.9400   -0.8100 C   0  0  1  0  0  0  0  0  0  0  0  0
    0.5770   -1.9840   -2.1420 F   0  0  0  0  0  0  0  0  0  0  0  0
    2.2380   -2.3710   -0.6270 F   0  0  0  0  0  0  0  0  0  0  0  0
   -0.8510   -0.5340    0.2080 C   0  0  2  0  0  0  0  0  0  0  0  0
   -1.1850   -1.6180    1.0520 O   0  0  0  0  0  0  0  0  0  0  0  0
   -1.7180   -0.5640   -1.0040 C   0  0  0  0  0  0  0  0  0  0  0  0
   -2.7460    0.5440   -1.0610 C   0  0  0  0  0  0  0  0  0  0  0  0
   -3.4490    0.7740    0.2330 C   0  0  0  0  0  0  0  0  0  0  0  0
   -2.5780    0.6200    1.4370 C   0  0  0  0  0  0  0  0  0  0  0  0
   -1.1260    0.7140    0.9970 C   0  0  0  0  0  0  0  0  0  0  0  0
    3.6240   -0.3810   -0.7630 N   0  0  0  0  0  0  0  0  0  0  0  0
  1  2  2  0
  2  3  1  0
  2 18  1  0
  3  4  2  0
  4  5  1  0
  5  6  1  0
  5 18  2  0
  6  7  2  3
  7  8  1  0
  7 11  1  0
  8  9  1  6
  8 10  1  0
 11 12  1  1
 11 13  1  0
 11 17  1  0
 13 14  1  0
 14 15  1  0
 15 16  1  0
 16 17  1  0
M  END
