
     RDKit          3D

 21 22  0  0  0  0  0  0  0  0999 V2000
    6.2110   -1.3570    0.4320 C   0  0  0  0  0  0  0  0  0  0  0  0
    6.1080   -0.0960   -0.4030 C   0  0  0  0  0  0  0  0  0  0  0  0
    4.7340    0.2080   -0.7380 N   0  0  0  0  0  0  0  0  0  0  0  0
    3.9560   -0.7150   -1.4800 C   0  0  0  0  0  0  0  0  0  0  0  0
    4.5220   -1.8040   -1.8290 O   0  0  0  0  0  0  0  0  0  0  0  0
    2.6050   -0.4580   -1.8300 N   0  0  0  0  0  0  0  0  0  0  0  0
    1.8540   -1.4440   -2.5950 C   0  0  0  0  0  0  0  0  0  0  0  0
    0.4330   -0.9290   -2.8390 C   0  0  0  0  0  0  0  0  0  0  0  0
   -0.2380   -0.6980   -1.5090 C   0  0  0  0  0  0  0  0  0  0  0  0
    0.3940   -0.9380   -0.4620 O   0  0  0  0  0  0  0  0  0  0  0  0
   -1.5590   -0.2170   -1.4250 N   0  0  0  0  0  0  0  0  0  0  0  0
   -2.3000    0.0360   -0.2560 C   0  0  0  0  0  0  0  0  0  0  0  0
   -1.9630   -0.3500    1.0050 C   0  0  0  0  0  0  0  0  0  0  0  0
   -2.6900   -0.0770    2.1510 C   0  0  0  0  0  0  0  0  0  0  0  0
   -3.8670    0.6450    2.0640 C   0  0  0  0  0  0  0  0  0  0  0  0
   -4.7110    1.0200    2.9990 N   0  0  0  0  0  0  0  0  0  0  0  0
   -5.6740    1.6070    2.9610 C   0  0  0  0  0  0  0  0  0  0  0  0
   -6.8600    2.2200    3.6760 C   0  0  0  0  0  0  0  0  0  0  0  0
   -5.7670    1.9340    1.0770 S   0  0  0  0  0  0  0  0  0  0  0  0
   -4.2170    1.0390    0.7900 C   0  0  0  0  0  0  0  0  0  0  0  0
   -3.4980    0.7710   -0.3530 C   0  0  0  0  0  0  0  0  0  0  0  0
  1  2  1  0
  2  3  1  0
  3  4  1  0
  4  5  2  0
  4  6  1  0
  6  7  1  0
  7  8  1  0
  8  9  1  0
  9 10  2  0
  9 11  1  0
 11 12  1  0
 12 13  2  0
 12 21  1  0
 13 14  1  0
 14 15  2  0
 15 16  1  0
 15 20  1  0
 16 17  2  0
 17 18  1  0
 17 19  1  0
 19 20  1  0
 20 21  2  0
M  END
