
     RDKit          3D

 20 19  0  0  0  0  0  0  0  0999 V2000
    5.9590   -1.2080    0.5150 C   0  0  0  0  0  0  0  0  0  0  0  0
    5.0480   -0.0490    0.1970 C   0  0  1  0  0  0  0  0  0  0  0  0
    3.7700   -0.4920   -0.0580 O   0  0  0  0  0  0  0  0  0  0  0  0
    3.3550   -0.0970   -1.3420 C   0  0  0  0  0  0  0  0  0  0  0  0
    1.9720   -0.5720   -1.6270 C   0  0  0  0  0  0  0  0  0  0  0  0
    1.0110   -0.0780   -0.7270 O   0  0  0  0  0  0  0  0  0  0  0  0
   -0.2940   -0.4350   -0.8740 C   0  0  0  0  0  0  0  0  0  0  0  0
   -0.6050   -1.2140   -1.8350 O   0  0  0  0  0  0  0  0  0  0  0  0
   -1.3900   -0.0060   -0.0270 C   0  0  0  0  0  0  0  0  0  0  0  0
   -1.1470    0.7630    0.9380 O   0  0  0  0  0  0  0  0  0  0  0  0
   -2.7350   -0.3970   -0.2100 N   0  0  0  0  0  0  0  0  0  0  0  0
   -3.8290    0.0160    0.6160 C   0  0  1  0  0  0  0  0  0  0  0  0
   -4.9420    0.6720   -0.1670 C   0  0  0  0  0  0  0  0  0  0  0  0
   -4.4970    1.8530   -0.8640 N   0  0  0  0  0  0  0  0  0  0  0  0
   -4.4130   -1.2190    1.2300 C   0  0  0  0  0  0  0  0  0  0  0  0
   -5.5250   -1.0440    2.0990 N   0  0  0  0  0  0  0  0  0  0  0  0
   -3.9570   -2.3660    1.0030 O   0  0  0  0  0  0  0  0  0  0  0  0
    5.0140    0.8500    1.3780 C   0  0  0  0  0  0  0  0  0  0  0  0
    4.2450    1.9990    1.3470 O   0  0  0  0  0  0  0  0  0  0  0  0
    5.8550    0.5400    2.7360 S   0  0  0  0  0  0  0  0  0  0  0  0
  2  1  1  1
  2  3  1  0
  2 18  1  0
  3  4  1  0
  4  5  1  0
  5  6  1  0
  6  7  1  0
  7  8  2  0
  7  9  1  0
  9 10  2  0
  9 11  1  0
 11 12  1  0
 12 13  1  6
 12 15  1  0
 13 14  1  0
 15 16  1  0
 15 17  2  0
 18 19  1  0
 18 20  2  0
M  CHG  1  14   1
M  END
