
     RDKit          3D

 20 19  0  0  0  0  0  0  0  0999 V2000
   -4.4410    0.9420   -1.1990 C   0  0  0  0  0  0  0  0  0  0  0  0
   -4.2600   -0.1800   -0.1700 C   0  0  2  0  0  0  0  0  0  0  0  0
   -4.9750   -1.2580   -0.6310 O   0  0  0  0  0  0  0  0  0  0  0  0
   -4.7670    0.3690    1.1410 C   0  0  0  0  0  0  0  0  0  0  0  0
   -4.7390   -0.5740    2.2190 N   0  0  0  0  0  0  0  0  0  0  0  0
   -2.7930   -0.4540   -0.1420 C   0  0  0  0  0  0  0  0  0  0  0  0
   -2.4090   -1.5840   -0.5300 O   0  0  0  0  0  0  0  0  0  0  0  0
   -1.8570    0.4950    0.2950 N   0  0  0  0  0  0  0  0  0  0  0  0
   -0.4580    0.2640    0.3320 N   0  0  0  0  0  0  0  0  0  0  0  0
    0.0860   -0.8680    0.9930 C   0  0  0  0  0  0  0  0  0  0  0  0
   -0.7840   -1.6310    1.5390 O   0  0  0  0  0  0  0  0  0  0  0  0
    1.5260   -1.1900    1.0790 C   0  0  0  0  0  0  0  0  0  0  0  0
    2.3560   -0.3260    0.3510 O   0  0  0  0  0  0  0  0  0  0  0  0
    2.2500   -0.2390   -1.0210 C   0  0  0  0  0  0  0  0  0  0  0  0
    1.4030   -0.9480   -1.6030 O   0  0  0  0  0  0  0  0  0  0  0  0
    3.1100    0.6630   -1.7740 C   0  0  0  0  0  0  0  0  0  0  0  0
    4.6550   -0.0800   -2.3130 S   0  0  0  0  0  0  0  0  0  0  0  0
    5.7460   -0.5000   -0.9530 C   0  0  0  0  0  0  0  0  0  0  0  0
    6.2650    0.7120   -0.2120 C   0  0  0  0  0  0  0  0  0  0  0  0
    6.9860    1.5520   -1.0500 O   0  0  0  0  0  0  0  0  0  0  0  0
  2  1  1  6
  2  3  1  0
  2  4  1  0
  2  6  1  0
  4  5  1  0
  6  7  2  0
  6  8  1  0
  8  9  1  0
  9 10  1  0
 10 11  2  0
 10 12  1  0
 12 13  1  0
 13 14  1  0
 14 15  2  0
 14 16  1  0
 16 17  1  0
 17 18  1  0
 18 19  1  0
 19 20  1  0
M  CHG  1   5   1
M  END
