
     RDKit          3D

 15 14  0  0  0  0  0  0  0  0999 V2000
   -2.5680    3.5380    1.7470 C   0  0  0  0  0  0  0  0  0  0  0  0
   -1.9170    2.4510    2.1080 C   0  0  0  0  0  0  0  0  0  0  0  0
   -0.7640    1.9500    1.2970 C   0  0  0  0  0  0  0  0  0  0  0  0
   -1.0190    0.6610    0.8310 O   0  0  0  0  0  0  0  0  0  0  0  0
   -0.1060   -0.0780    0.0310 C   0  0  0  0  0  0  0  0  0  0  0  0
    1.0030    0.4890   -0.2300 C   0  0  0  0  0  0  0  0  0  0  0  0
    2.2050    0.1480   -0.9790 C   0  0  1  0  0  0  0  0  0  0  0  0
    2.4980    1.3910   -1.8890 C   0  0  0  0  0  0  0  0  0  0  0  0
    3.4440    0.1130   -0.0680 C   0  0  0  0  0  0  0  0  0  0  0  0
    4.5580   -0.2170   -0.8380 O   0  0  0  0  0  0  0  0  0  0  0  0
   -0.5790   -1.3670   -0.3610 C   0  0  0  0  0  0  0  0  0  0  0  0
    0.2600   -2.2720   -1.1560 C   0  0  0  0  0  0  0  0  0  0  0  0
   -1.7970   -1.8170   -0.0050 C   0  0  0  0  0  0  0  0  0  0  0  0
   -2.7520   -1.0460    0.8100 C   0  0  0  0  0  0  0  0  0  0  0  0
   -2.2180   -3.1640   -0.4530 C   0  0  0  0  0  0  0  0  0  0  0  0
  1  2  2  0
  2  3  1  0
  3  4  1  0
  4  5  1  0
  5  6  2  3
  5 11  1  0
  6  7  1  0
  7  8  1  6
  7  9  1  0
  9 10  1  0
 11 12  1  0
 11 13  2  3
 13 14  1  0
 13 15  1  0
M  END
