
     RDKit          3D

 15 14  0  0  0  0  0  0  0  0999 V2000
   -0.0070   -0.6910    2.1890 C   0  0  0  0  0  0  0  0  0  0  0  0
   -0.5580    0.1790    1.3200 C   0  0  0  0  0  0  0  0  0  0  0  0
   -1.9130    0.6430    1.5950 C   0  0  0  0  0  0  0  0  0  0  0  0
   -2.5710   -0.1490    2.7320 C   0  0  0  0  0  0  0  0  0  0  0  0
   -2.8470   -1.5690    2.3540 C   0  0  0  0  0  0  0  0  0  0  0  0
    0.2870    0.5160    0.1720 C   0  0  0  0  0  0  0  0  0  0  0  0
    0.0720    1.3070   -0.7750 C   0  0  0  0  0  0  0  0  0  0  0  0
   -1.0520    2.1640   -1.0750 C   0  0  0  0  0  0  0  0  0  0  0  0
   -1.2730    2.9440   -2.0180 C   0  0  0  0  0  0  0  0  0  0  0  0
   -0.5120    3.3370   -3.2450 C   0  0  0  0  0  0  0  0  0  0  0  0
    1.5500   -0.2280    0.2340 O   0  0  0  0  0  0  0  0  0  0  0  0
    1.7540   -1.0010   -1.0140 C   0  0  0  0  0  0  0  0  0  0  0  0
    2.9790   -1.8420   -0.8330 C   0  0  1  0  0  0  0  0  0  0  0  0
    3.1140   -2.7390   -2.0580 C   0  0  0  0  0  0  0  0  0  0  0  0
    4.1270   -1.1140   -0.5990 O   0  0  0  0  0  0  0  0  0  0  0  0
  1  2  2  0
  2  3  1  0
  2  6  1  0
  3  4  1  0
  4  5  1  0
  6  7  2  3
  6 11  1  0
  7  8  1  0
  8  9  2  3
  9 10  1  0
 11 12  1  0
 12 13  1  0
 13 14  1  6
 13 15  1  0
M  END
