
     RDKit          3D

  7  7  0  0  0  0  0  0  0  0999 V2000
   -1.7460    0.0060    0.1010 C   0  0  0  0  0  0  0  0  0  0  0  0
   -0.2720    0.2320   -0.1070 C   0  0  0  0  0  0  0  0  0  0  0  0
    0.3030    1.3070   -0.6650 N   0  0  0  0  0  0  0  0  0  0  0  0
    1.5860    1.1280   -0.6650 O   0  0  0  0  0  0  0  0  0  0  0  0
    1.8980   -0.0220   -0.1310 C   0  0  0  0  0  0  0  0  0  0  0  0
    3.0730   -0.4630    0.0030 O   0  0  0  0  0  0  0  0  0  0  0  0
    0.7350   -0.5890    0.2210 N   0  0  0  0  0  0  0  0  0  0  0  0
  1  2  1  0
  2  3  2  0
  2  7  1  0
  3  4  1  0
  4  5  1  0
  5  6  2  0
  5  7  1  0
M  END
