
     RDKit          3D

 15 14  0  0  0  0  0  0  0  0999 V2000
    4.3540   -1.2320   -0.4310 C   0  0  0  0  0  0  0  0  0  0  0  0
    4.0790   -0.2880    0.4440 C   0  0  0  0  0  0  0  0  0  0  0  0
    2.7630    0.2700    0.7060 C   0  0  0  0  0  0  0  0  0  0  0  0
    2.6400    1.2240    1.6260 C   0  0  0  0  0  0  0  0  0  0  0  0
    1.5370   -0.1920   -0.0280 C   0  0  1  0  0  0  0  0  0  0  0  0
    1.7680    0.0710   -1.4740 C   0  0  0  0  0  0  0  0  0  0  0  0
    1.4070   -1.6730    0.2090 C   0  0  0  0  0  0  0  0  0  0  0  0
    0.3000    0.5110    0.5000 C   0  0  0  0  0  0  0  0  0  0  0  0
   -0.9420    0.0820   -0.1870 C   0  0  0  0  0  0  0  0  0  0  0  0
   -2.2100    0.7160    0.3280 C   0  0  1  0  0  0  0  0  0  0  0  0
   -2.2580    2.2100    0.2220 C   0  0  0  0  0  0  0  0  0  0  0  0
   -1.2900    2.7760    1.0170 O   0  0  0  0  0  0  0  0  0  0  0  0
   -3.2380    0.1300   -0.4400 O   0  0  0  0  0  0  0  0  0  0  0  0
   -4.1160   -0.5920    0.3270 C   0  0  0  0  0  0  0  0  0  0  0  0
   -3.4840   -1.7320    1.0830 C   0  0  0  0  0  0  0  0  0  0  0  0
  1  2  2  0
  2  3  1  0
  3  4  2  0
  3  5  1  0
  5  6  1  6
  5  7  1  0
  5  8  1  0
  8  9  1  0
 10  9  1  6
 10 11  1  0
 10 13  1  0
 11 12  1  0
 13 14  1  0
 14 15  1  0
M  END
