
     RDKit          3D

  7  7  0  0  0  0  0  0  0  0999 V2000
    1.3860    1.7950   -0.0230 O   0  0  0  0  0  0  0  0  0  0  0  0
    0.6670    0.7790   -0.0100 C   0  0  0  0  0  0  0  0  0  0  0  0
    1.1380   -0.6230    0.0140 C   0  0  0  0  0  0  0  0  0  0  0  0
    0.1250   -1.4150    0.0230 N   0  0  0  0  0  0  0  0  0  0  0  0
   -1.0760   -0.7200    0.0080 N   0  0  0  0  0  0  0  0  0  0  0  0
   -0.7890    0.6620   -0.0130 C   0  0  0  0  0  0  0  0  0  0  0  0
   -1.5960    1.6130   -0.0310 O   0  0  0  0  0  0  0  0  0  0  0  0
  1  2  2  0
  2  3  1  0
  2  6  1  0
  3  4  2  0
  4  5  1  0
  5  6  1  0
  6  7  2  0
M  END
