
     RDKit          3D

  7  7  0  0  0  0  0  0  0  0999 V2000
   -1.8050   -0.3160   -0.1220 N   0  0  0  0  0  0  0  0  0  0  0  0
   -0.4390    0.0030   -0.0170 C   0  0  0  0  0  0  0  0  0  0  0  0
    0.0790    1.2700    0.1860 C   0  0  0  0  0  0  0  0  0  0  0  0
    1.3830    1.1350    0.2240 O   0  0  0  0  0  0  0  0  0  0  0  0
    1.7320   -0.1190    0.0600 C   0  0  0  0  0  0  0  0  0  0  0  0
    2.9050   -0.5850    0.0450 O   0  0  0  0  0  0  0  0  0  0  0  0
    0.6070   -0.8520   -0.0940 N   0  0  0  0  0  0  0  0  0  0  0  0
  1  2  1  0
  2  3  2  0
  2  7  1  0
  3  4  1  0
  4  5  1  0
  5  6  2  0
  5  7  1  0
M  END
