
     RDKit          3D

 20 23  0  0  0  0  0  0  0  0999 V2000
    3.1120    2.7110    1.6150 C   0  0  0  0  0  0  0  0  0  0  0  0
    3.0260    1.3820    1.2550 O   0  0  0  0  0  0  0  0  0  0  0  0
    1.9480    1.1300    0.3750 C   0  0  1  0  0  0  0  0  0  0  0  0
    2.4450    0.6730   -0.9470 C   0  0  0  0  0  0  0  0  0  0  0  0
    1.9930   -0.7070   -1.2860 C   0  0  0  0  0  0  0  0  0  0  0  0
    0.9470   -1.3260   -0.8030 C   0  0  0  0  0  0  0  0  0  0  0  0
    0.2610   -2.6560   -0.9400 C   0  0  0  0  0  0  0  0  0  0  0  0
   -0.0650   -2.9300    0.5340 C   0  0  0  0  0  0  0  0  0  0  0  0
   -0.5090   -1.6420    0.9820 N   0  0  2  0  0  0  0  0  0  0  0  0
   -1.9510   -1.6860    0.9640 C   0  0  0  0  0  0  0  0  0  0  0  0
   -2.4070   -0.2650    1.3530 C   0  0  0  0  0  0  0  0  0  0  0  0
   -2.1010    0.4780    0.0640 C   0  0  0  0  0  0  0  0  0  0  0  0
   -0.9110    0.2520   -0.4400 C   0  0  0  0  0  0  0  0  0  0  0  0
   -0.6150    0.9920   -1.7350 C   0  0  0  0  0  0  0  0  0  0  0  0
   -1.8510    1.1780   -2.4840 C   0  0  0  0  0  0  0  0  0  0  0  0
   -1.8830    0.9530   -3.7170 O   0  0  0  0  0  0  0  0  0  0  0  0
   -2.9990    1.6000   -1.8580 O   0  0  0  0  0  0  0  0  0  0  0  0
   -3.1460    1.3790   -0.4930 C   0  0  0  0  0  0  0  0  0  0  0  0
    0.0950   -0.6110    0.1960 C   0  0  2  0  0  0  0  0  0  0  0  0
    0.9950    0.2580    1.0700 C   0  0  0  0  0  0  0  0  0  0  0  0
  1  2  1  0
  3  2  1  1
  3  4  1  0
  3 20  1  0
  4  5  1  0
  5  6  2  0
  6  7  1  0
  6 19  1  0
  7  8  1  0
  9  8  1  6
  9 10  1  0
  9 19  1  0
 10 11  1  0
 11 12  1  0
 12 13  2  0
 12 18  1  0
 13 14  1  0
 13 19  1  0
 14 15  1  0
 15 16  2  0
 15 17  1  0
 17 18  1  0
 19 20  1  1
M  CHG  1   9   1
M  END
