
     RDKit          3D

 15 14  0  0  0  0  0  0  0  0999 V2000
   -1.5440    2.2450   -1.1820 C   0  0  0  0  0  0  0  0  0  0  0  0
   -2.5280    1.3470   -0.9260 C   0  0  0  0  0  0  0  0  0  0  0  0
   -3.9170    1.8520   -1.2140 C   0  0  0  0  0  0  0  0  0  0  0  0
   -2.2300    0.0360   -0.4220 C   0  0  0  0  0  0  0  0  0  0  0  0
   -0.9580   -0.3330   -0.1890 O   0  0  0  0  0  0  0  0  0  0  0  0
    0.3130   -0.0480   -0.2210 C   0  0  0  0  0  0  0  0  0  0  0  0
    1.2110   -1.2080    0.3040 C   0  0  0  0  0  0  0  0  0  0  0  0
    2.6520   -0.8670    0.2380 C   0  0  2  0  0  0  0  0  0  0  0  0
    3.4020   -1.9480    0.7200 O   0  0  0  0  0  0  0  0  0  0  0  0
    3.0430    0.3820    0.9600 C   0  0  0  0  0  0  0  0  0  0  0  0
    4.5490    0.5850    0.8070 C   0  0  0  0  0  0  0  0  0  0  0  0
    4.9320    0.7140   -0.6360 C   0  0  0  0  0  0  0  0  0  0  0  0
   -3.1800   -0.8740   -0.1620 C   0  0  0  0  0  0  0  0  0  0  0  0
   -4.6030   -0.7830   -0.3050 C   0  0  0  0  0  0  0  0  0  0  0  0
   -2.6760   -2.2290    0.3800 C   0  0  0  0  0  0  0  0  0  0  0  0
  1  2  2  0
  2  3  1  0
  2  4  1  0
  4  5  1  0
  4 13  2  3
  5  6  1  0
  6  7  1  0
  7  8  1  0
  8  9  1  1
  8 10  1  0
 10 11  1  0
 11 12  1  0
 13 14  1  0
 13 15  1  0
M  END
