
     RDKit          3D

 15 16  0  0  0  0  0  0  0  0999 V2000
   -0.5400   -2.3670    0.2010 O   0  0  0  0  0  0  0  0  0  0  0  0
   -1.3450   -1.2480    0.1180 C   0  0  0  0  0  0  0  0  0  0  0  0
   -2.7010   -1.3770    0.0920 C   0  0  0  0  0  0  0  0  0  0  0  0
   -3.5100   -0.2430    0.0020 C   0  0  0  0  0  0  0  0  0  0  0  0
   -2.9260    1.0060   -0.0570 C   0  0  0  0  0  0  0  0  0  0  0  0
   -1.5370    1.0860   -0.0270 C   0  0  0  0  0  0  0  0  0  0  0  0
   -0.9770    2.3550   -0.0870 O   0  0  0  0  0  0  0  0  0  0  0  0
   -0.7220   -0.0100    0.0580 C   0  0  0  0  0  0  0  0  0  0  0  0
    0.7240    0.1260    0.0950 C   0  0  0  0  0  0  0  0  0  0  0  0
    1.4080    0.6500    1.1990 C   0  0  0  0  0  0  0  0  0  0  0  0
    2.7710    0.7530    1.2620 C   0  0  0  0  0  0  0  0  0  0  0  0
    3.5500    0.3190    0.1860 C   0  0  0  0  0  0  0  0  0  0  0  0
    2.8920   -0.2110   -0.9330 C   0  0  0  0  0  0  0  0  0  0  0  0
    3.8000   -0.7890   -2.3350 Cl  0  0  0  0  0  0  0  0  0  0  0  0
    1.5140   -0.2980   -0.9620 C   0  0  0  0  0  0  0  0  0  0  0  0
  1  2  1  0
  2  3  2  0
  2  8  1  0
  3  4  1  0
  4  5  2  0
  5  6  1  0
  6  7  1  0
  6  8  2  0
  8  9  1  0
  9 10  2  0
  9 15  1  0
 10 11  1  0
 11 12  2  0
 12 13  1  0
 13 14  1  0
 13 15  2  0
M  END
