
     RDKit          3D

 15 16  0  0  0  0  0  0  0  0999 V2000
   -3.4030    0.3560    2.4430 O   0  0  0  0  0  0  0  0  0  0  0  0
   -2.7120    0.2460    1.2290 C   0  0  0  0  0  0  0  0  0  0  0  0
   -3.4550    0.2680    0.0650 C   0  0  0  0  0  0  0  0  0  0  0  0
   -2.7650    0.1580   -1.1260 C   0  0  0  0  0  0  0  0  0  0  0  0
   -1.3900    0.0300   -1.1810 C   0  0  0  0  0  0  0  0  0  0  0  0
   -0.6500    0.0080   -0.0270 C   0  0  0  0  0  0  0  0  0  0  0  0
    0.8030   -0.1270   -0.0610 C   0  0  0  0  0  0  0  0  0  0  0  0
    1.4370   -1.0000    0.7990 C   0  0  0  0  0  0  0  0  0  0  0  0
    2.8210   -1.1620    0.8040 C   0  0  0  0  0  0  0  0  0  0  0  0
    3.5930   -0.4420   -0.0650 C   0  0  0  0  0  0  0  0  0  0  0  0
    5.3410   -0.5820   -0.1300 Cl  0  0  0  0  0  0  0  0  0  0  0  0
    2.9960    0.4380   -0.9370 C   0  0  0  0  0  0  0  0  0  0  0  0
    1.6060    0.5870   -0.9270 C   0  0  0  0  0  0  0  0  0  0  0  0
    1.0230    1.4640   -1.7980 O   0  0  0  0  0  0  0  0  0  0  0  0
   -1.3390    0.1180    1.1830 C   0  0  0  0  0  0  0  0  0  0  0  0
  1  2  1  0
  2  3  2  0
  2 15  1  0
  3  4  1  0
  4  5  2  0
  5  6  1  0
  6  7  1  0
  6 15  2  0
  7  8  2  0
  7 13  1  0
  8  9  1  0
  9 10  2  0
 10 11  1  0
 10 12  1  0
 12 13  2  0
 13 14  1  0
M  END
