
     RDKit          3D

 15 16  0  0  0  0  0  0  0  0999 V2000
    4.1980    0.2720   -0.8300 O   0  0  0  0  0  0  0  0  0  0  0  0
    3.0750    0.2500    0.0140 C   0  0  0  0  0  0  0  0  0  0  0  0
    3.0490    0.9270    1.1990 C   0  0  0  0  0  0  0  0  0  0  0  0
    1.9580    0.9050    2.0160 C   0  0  0  0  0  0  0  0  0  0  0  0
    0.8600    0.1780    1.6270 C   0  0  0  0  0  0  0  0  0  0  0  0
    0.8380   -0.5340    0.4220 C   0  0  0  0  0  0  0  0  0  0  0  0
   -0.3560   -1.2740    0.0410 C   0  0  0  0  0  0  0  0  0  0  0  0
   -0.2220   -2.9430   -0.4240 Cl  0  0  0  0  0  0  0  0  0  0  0  0
   -1.5320   -0.7070    0.0670 C   0  0  0  0  0  0  0  0  0  0  0  0
   -2.8480   -1.2740   -0.2730 C   0  0  0  0  0  0  0  0  0  0  0  0
   -3.6010   -0.2850   -0.7680 C   0  0  0  0  0  0  0  0  0  0  0  0
   -2.8040    0.9900   -0.7750 C   0  0  0  0  0  0  0  0  0  0  0  0
   -1.8890    0.7180    0.4330 C   0  0  0  0  0  0  0  0  0  0  0  0
    1.9580   -0.4900   -0.3840 C   0  0  0  0  0  0  0  0  0  0  0  0
    2.0470   -1.1500   -1.5970 O   0  0  0  0  0  0  0  0  0  0  0  0
  1  2  1  0
  2  3  2  0
  2 14  1  0
  3  4  1  0
  4  5  2  0
  5  6  1  0
  6  7  1  0
  6 14  2  0
  7  8  1  0
  7  9  2  3
  9 10  1  0
  9 13  1  0
 10 11  2  0
 11 12  1  0
 12 13  1  0
 14 15  1  0
M  END
