
     RDKit          3D

 27 31  0  0  0  0  0  0  0  0999 V2000
   -7.7270    1.9270   -0.3640 N   0  0  0  0  0  0  0  0  0  0  0  0
   -6.6510    1.7010   -0.7130 C   0  0  0  0  0  0  0  0  0  0  0  0
   -5.3120    1.4030   -1.1310 C   0  0  0  0  0  0  0  0  0  0  0  0
   -4.7800    1.8310   -2.3280 C   0  0  0  0  0  0  0  0  0  0  0  0
   -3.4670    1.5030   -2.6710 C   0  0  0  0  0  0  0  0  0  0  0  0
   -2.6690    0.7560   -1.8470 C   0  0  0  0  0  0  0  0  0  0  0  0
   -1.2910    0.3890   -2.1630 C   0  0  0  0  0  0  0  0  0  0  0  0
   -0.6460    0.7570   -3.3230 C   0  0  0  0  0  0  0  0  0  0  0  0
    0.6230    0.4200   -3.6130 N   0  0  0  0  0  0  0  0  0  0  0  0
    1.3160   -0.3320   -2.7090 C   0  0  0  0  0  0  0  0  0  0  0  0
    2.5740   -0.8090   -2.7300 N   0  0  0  0  0  0  0  0  0  0  0  0
    2.7290   -1.4710   -1.6010 N   0  0  0  0  0  0  0  0  0  0  0  0
    1.6140   -1.4270   -0.8740 C   0  0  0  0  0  0  0  0  0  0  0  0
    1.3250   -2.0260    0.4610 C   0  0  0  0  0  0  0  0  0  0  0  0
    1.6450   -1.1070    1.5740 C   0  0  0  0  0  0  0  0  0  0  0  0
    0.7650   -0.3780    2.3360 C   0  0  0  0  0  0  0  0  0  0  0  0
    1.4280    0.3510    3.2600 N   0  0  0  0  0  0  0  0  0  0  0  0
    2.7520    0.0840    3.0860 C   0  0  0  0  0  0  0  0  0  0  0  0
    3.8450    0.5260    3.7190 N   0  0  0  0  0  0  0  0  0  0  0  0
    5.0850    0.1540    3.4120 C   0  0  0  0  0  0  0  0  0  0  0  0
    5.2620   -0.7430    2.3800 C   0  0  0  0  0  0  0  0  0  0  0  0
    4.1690   -1.2260    1.6980 C   0  0  0  0  0  0  0  0  0  0  0  0
    2.9040   -0.8160    2.0470 C   0  0  0  0  0  0  0  0  0  0  0  0
    0.7050   -0.6980   -1.5780 N   0  0  0  0  0  0  0  0  0  0  0  0
   -0.5580   -0.3550   -1.3040 N   0  0  0  0  0  0  0  0  0  0  0  0
   -3.2160    0.3350   -0.6540 C   0  0  0  0  0  0  0  0  0  0  0  0
   -4.5150    0.6470   -0.2900 C   0  0  0  0  0  0  0  0  0  0  0  0
  1  2  3  0
  2  3  1  0
  3  4  2  0
  3 27  1  0
  4  5  1  0
  5  6  2  0
  6  7  1  0
  6 26  1  0
  7  8  1  0
  7 25  2  0
  8  9  2  0
  9 10  1  0
 10 11  2  0
 10 24  1  0
 11 12  1  0
 12 13  2  0
 13 14  1  0
 13 24  1  0
 14 15  1  0
 15 16  2  0
 15 23  1  0
 16 17  1  0
 17 18  1  0
 18 19  2  0
 18 23  1  0
 19 20  1  0
 20 21  2  0
 21 22  1  0
 22 23  2  0
 24 25  1  0
 26 27  2  0
M  END
