
     RDKit          3D

 15 16  0  0  0  0  0  0  0  0999 V2000
   -2.7900    1.0090    0.4750 C   0  0  0  0  0  0  0  0  0  0  0  0
   -1.6670    0.0420    0.3290 C   0  0  0  0  0  0  0  0  0  0  0  0
   -1.7970   -1.3000    0.4590 C   0  0  0  0  0  0  0  0  0  0  0  0
   -0.6940   -2.1420    0.3060 C   0  0  0  0  0  0  0  0  0  0  0  0
   -0.8940   -3.4940    0.4530 O   0  0  0  0  0  0  0  0  0  0  0  0
    0.5220   -1.6010    0.0230 C   0  0  0  0  0  0  0  0  0  0  0  0
    1.7330   -2.4130   -0.1620 C   0  0  0  0  0  0  0  0  0  0  0  0
    0.7000   -0.2160   -0.1190 C   0  0  0  0  0  0  0  0  0  0  0  0
    1.9180    0.3570   -0.4010 C   0  0  0  0  0  0  0  0  0  0  0  0
    2.0810    1.7340   -0.5380 C   0  0  0  0  0  0  0  0  0  0  0  0
    3.6600    2.4090   -0.8990 Cl  0  0  0  0  0  0  0  0  0  0  0  0
    0.9570    2.5130   -0.3770 C   0  0  0  0  0  0  0  0  0  0  0  0
    1.0970    3.8850   -0.5090 O   0  0  0  0  0  0  0  0  0  0  0  0
   -0.2650    1.9450   -0.0940 C   0  0  0  0  0  0  0  0  0  0  0  0
   -0.4230    0.5700    0.0420 C   0  0  0  0  0  0  0  0  0  0  0  0
  1  2  1  0
  2  3  2  0
  2 15  1  0
  3  4  1  0
  4  5  1  0
  4  6  2  0
  6  7  1  0
  6  8  1  0
  8  9  2  0
  8 15  1  0
  9 10  1  0
 10 11  1  0
 10 12  2  0
 12 13  1  0
 12 14  1  0
 14 15  2  0
M  END
