
     RDKit          3D

 15 16  0  0  0  0  0  0  0  0999 V2000
    0.5270    2.7470    0.0200 C   0  0  0  0  0  0  0  0  0  0  0  0
    0.0910    1.3470    0.1380 C   0  0  0  0  0  0  0  0  0  0  0  0
   -1.2310    0.9560    0.2100 C   0  0  0  0  0  0  0  0  0  0  0  0
   -2.1840    1.9730    0.1660 O   0  0  0  0  0  0  0  0  0  0  0  0
   -1.6120   -0.3670    0.3210 C   0  0  0  0  0  0  0  0  0  0  0  0
   -3.0700   -0.7150    0.3950 C   0  0  0  0  0  0  0  0  0  0  0  0
   -3.2060   -2.0950    0.5020 O   0  0  0  0  0  0  0  0  0  0  0  0
   -0.6740   -1.3550    0.3640 C   0  0  0  0  0  0  0  0  0  0  0  0
    0.6690   -0.9910    0.2940 C   0  0  0  0  0  0  0  0  0  0  0  0
    1.6580   -1.9610    0.3340 C   0  0  0  0  0  0  0  0  0  0  0  0
    2.9980   -1.6470    0.2660 C   0  0  0  0  0  0  0  0  0  0  0  0
    4.2040   -2.9300    0.3230 Cl  0  0  0  0  0  0  0  0  0  0  0  0
    3.3700   -0.3280    0.1560 C   0  0  0  0  0  0  0  0  0  0  0  0
    2.4100    0.6400    0.1150 C   0  0  0  0  0  0  0  0  0  0  0  0
    1.0570    0.3370    0.1820 C   0  0  0  0  0  0  0  0  0  0  0  0
  1  2  1  0
  2  3  2  0
  2 15  1  0
  3  4  1  0
  3  5  1  0
  5  6  1  0
  5  8  2  0
  6  7  1  0
  8  9  1  0
  9 10  2  0
  9 15  1  0
 10 11  1  0
 11 12  1  0
 11 13  2  0
 13 14  1  0
 14 15  2  0
M  END
