
     RDKit          3D

 15 16  0  0  0  0  0  0  0  0999 V2000
   -4.0610   -1.2780   -1.2560 O   0  0  0  0  0  0  0  0  0  0  0  0
   -2.6880   -1.4620   -1.3970 C   0  0  0  0  0  0  0  0  0  0  0  0
   -2.0020   -0.4810   -0.5390 C   0  0  0  0  0  0  0  0  0  0  0  0
   -2.6990    0.4110    0.2230 C   0  0  0  0  0  0  0  0  0  0  0  0
   -1.9740    1.2920    0.9950 C   0  0  0  0  0  0  0  0  0  0  0  0
   -2.8690    2.4340    1.9700 Cl  0  0  0  0  0  0  0  0  0  0  0  0
   -0.6020    1.3090    1.0280 C   0  0  0  0  0  0  0  0  0  0  0  0
    0.1090    0.4010    0.2520 C   0  0  0  0  0  0  0  0  0  0  0  0
    1.5900    0.4060    0.2760 C   0  0  0  0  0  0  0  0  0  0  0  0
    2.2800    1.2520    1.0170 C   0  0  0  0  0  0  0  0  0  0  0  0
    3.7140    0.9760    0.7980 C   0  0  0  0  0  0  0  0  0  0  0  0
    3.7250   -0.1330   -0.1620 C   0  0  0  0  0  0  0  0  0  0  0  0
    2.4640   -0.4740   -0.4740 C   0  0  0  0  0  0  0  0  0  0  0  0
   -0.6050   -0.4790   -0.5190 C   0  0  0  0  0  0  0  0  0  0  0  0
    0.0490   -1.3990   -1.3060 O   0  0  0  0  0  0  0  0  0  0  0  0
  1  2  1  0
  2  3  1  0
  3  4  2  0
  3 14  1  0
  4  5  1  0
  5  6  1  0
  5  7  2  0
  7  8  1  0
  8  9  1  0
  8 14  2  0
  9 10  2  0
  9 13  1  0
 10 11  1  0
 11 12  1  0
 12 13  2  0
 14 15  1  0
M  END
