
     RDKit          3D

 11 10  0  0  0  0  0  0  0  0999 V2000
    2.9320    1.9030   -0.0230 C   0  0  0  0  0  0  0  0  0  0  0  0
    2.0190    0.8740    0.6420 C   0  0  0  0  0  0  0  0  0  0  0  0
    1.0590    0.5870   -0.2950 O   0  0  0  0  0  0  0  0  0  0  0  0
    0.4830   -0.6430   -0.1810 C   0  0  1  0  0  0  0  0  0  0  0  0
    0.8430   -1.2790   -1.5690 C   0  0  0  0  0  0  0  0  0  0  0  0
    1.1350   -1.5410    0.8470 C   0  0  0  0  0  0  0  0  0  0  0  0
   -0.9680   -0.6030   -0.0990 C   0  0  1  0  0  0  0  0  0  0  0  0
   -1.6930   -1.7920    0.1360 N   0  0  0  0  0  0  0  0  0  0  0  0
   -1.4980    0.5340    0.8020 C   0  0  0  0  0  0  0  0  0  0  0  0
   -2.8050    0.7090    0.4070 O   0  0  0  0  0  0  0  0  0  0  0  0
   -3.0380    1.8270   -0.2700 N   0  0  0  0  0  0  0  0  0  0  0  0
  1  2  1  0
  2  3  1  0
  3  4  1  0
  4  5  1  6
  4  6  1  0
  4  7  1  0
  7  8  1  1
  7  9  1  0
  9 10  1  0
 10 11  1  0
M  CHG  2   8   1  11   1
M  END
