
     RDKit          3D

 11 10  0  0  0  0  0  0  0  0999 V2000
   -0.7850   -1.9790   -0.0290 C   0  0  0  0  0  0  0  0  0  0  0  0
   -1.0010   -0.4920   -0.2080 C   0  0  2  0  0  0  0  0  0  0  0  0
   -1.1770    0.1070    1.1440 C   0  0  0  0  0  0  0  0  0  0  0  0
   -1.3940    1.5300    1.1320 N   0  0  0  0  0  0  0  0  0  0  0  0
   -2.3890   -0.3780   -0.8780 C   0  0  0  0  0  0  0  0  0  0  0  0
   -3.3560   -0.9440   -0.0530 O   0  0  0  0  0  0  0  0  0  0  0  0
   -0.0590    0.1550   -1.1270 C   0  0  0  0  0  0  0  0  0  0  0  0
    1.3230    0.1280   -0.8810 N   0  0  0  0  0  0  0  0  0  0  0  0
    1.7910    0.2390    0.4570 C   0  0  0  0  0  0  0  0  0  0  0  0
    3.3000    0.5370    0.3570 C   0  0  0  0  0  0  0  0  0  0  0  0
    3.5130    1.7170   -0.3370 O   0  0  0  0  0  0  0  0  0  0  0  0
  2  1  1  1
  2  3  1  0
  2  5  1  0
  2  7  1  0
  3  4  1  0
  5  6  1  0
  7  8  1  0
  8  9  1  0
  9 10  1  0
 10 11  1  0
M  CHG  2   4   1   8   1
M  END
