
     RDKit          3D

 24 26  0  0  0  0  0  0  0  0999 V2000
   -2.0110    1.3500    1.6900 N   0  0  0  0  0  0  0  0  0  0  0  0
   -1.9640    0.5820    0.6760 C   0  0  0  0  0  0  0  0  0  0  0  0
   -3.0100   -0.3900    0.3180 C   0  0  0  0  0  0  0  0  0  0  0  0
   -3.8130   -1.0760    1.0860 C   0  0  0  0  0  0  0  0  0  0  0  0
   -3.8280   -1.0100    2.4970 N   0  0  0  0  0  0  0  0  0  0  0  0
   -4.7290   -1.9400    0.4900 O   0  0  0  0  0  0  0  0  0  0  0  0
   -2.9400   -0.4480   -1.1740 C   0  0  2  0  0  0  0  0  0  0  0  0
   -3.2280   -1.8110   -1.5810 N   0  0  0  0  0  0  0  0  0  0  0  0
   -1.5000   -0.1000   -1.4970 C   0  0  0  0  0  0  0  0  0  0  0  0
   -0.9380    0.4910   -0.3100 N   0  0  0  0  0  0  0  0  0  0  0  0
    0.4540    0.8800   -0.1800 C   0  0  2  0  0  0  0  0  0  0  0  0
    1.2380   -0.4620   -0.1720 C   0  0  0  0  0  0  0  0  0  0  0  0
    2.6430   -0.2800   -0.0640 N   0  0  0  0  0  0  0  0  0  0  0  0
    3.5090   -1.3990    0.0010 C   0  0  0  0  0  0  0  0  0  0  0  0
    2.9700   -2.6780   -0.0410 C   0  0  0  0  0  0  0  0  0  0  0  0
    3.7940   -3.7370    0.0220 N   0  0  0  0  0  0  0  0  0  0  0  0
    5.1180   -3.5540    0.1230 C   0  0  0  0  0  0  0  0  0  0  0  0
    5.6380   -2.2990    0.1640 C   0  0  0  0  0  0  0  0  0  0  0  0
    4.8310   -1.2290    0.1030 N   0  0  0  0  0  0  0  0  0  0  0  0
    0.7500    1.6000    1.0740 C   0  0  0  0  0  0  0  0  0  0  0  0
    0.3960    3.0520    0.9560 C   0  0  0  0  0  0  0  0  0  0  0  0
    1.4590    3.6220   -0.0090 C   0  0  0  0  0  0  0  0  0  0  0  0
    1.0400    3.0660   -1.3550 C   0  0  0  0  0  0  0  0  0  0  0  0
    0.9400    1.5930   -1.3860 C   0  0  0  0  0  0  0  0  0  0  0  0
  1  2  2  0
  2  3  1  0
  2 10  1  0
  3  4  2  3
  3  7  1  0
  4  5  1  0
  4  6  1  0
  7  8  1  1
  7  9  1  0
  9 10  1  0
 10 11  1  0
 11 12  1  1
 11 20  1  0
 11 24  1  0
 12 13  1  0
 13 14  1  0
 14 15  2  0
 14 19  1  0
 15 16  1  0
 16 17  2  0
 17 18  1  0
 18 19  2  0
 20 21  1  0
 21 22  1  0
 22 23  1  0
 23 24  1  0
M  CHG  2   5   1   8   1
M  END
