
     RDKit          3D

 24 27  0  0  0  0  0  0  0  0999 V2000
    6.6800   -2.2400    0.0420 N   0  0  0  0  0  0  0  0  0  0  0  0
    5.5170   -1.4830    0.3750 C   0  0  0  0  0  0  0  0  0  0  0  0
    4.8280   -1.6730    1.5140 N   0  0  0  0  0  0  0  0  0  0  0  0
    3.7570   -1.0010    1.8570 N   0  0  0  0  0  0  0  0  0  0  0  0
    3.2680   -0.0370    1.0420 C   0  0  0  0  0  0  0  0  0  0  0  0
    3.9100    0.2090   -0.1210 C   0  0  0  0  0  0  0  0  0  0  0  0
    5.0330   -0.5030   -0.4690 C   0  0  0  0  0  0  0  0  0  0  0  0
    5.7320   -0.2580   -1.7020 N   0  0  0  0  0  0  0  0  0  0  0  0
    3.4170    1.2550   -1.0490 C   0  0  0  0  0  0  0  0  0  0  0  0
    2.4820    2.2180   -0.3850 C   0  0  0  0  0  0  0  0  0  0  0  0
    1.4950    1.5630    0.4580 N   0  0  1  0  0  0  0  0  0  0  0  0
    0.4960    0.8750   -0.2710 C   0  0  0  0  0  0  0  0  0  0  0  0
   -0.8120    0.7160    0.3510 C   0  0  0  0  0  0  0  0  0  0  0  0
   -1.0580    1.1370    1.6290 C   0  0  0  0  0  0  0  0  0  0  0  0
   -2.3330    0.9640    2.1850 C   0  0  0  0  0  0  0  0  0  0  0  0
   -3.2930    0.3850    1.4460 N   0  0  0  0  0  0  0  0  0  0  0  0
   -3.1000   -0.0460    0.1880 C   0  0  0  0  0  0  0  0  0  0  0  0
   -4.1460   -0.6480   -0.5410 O   0  0  0  0  0  0  0  0  0  0  0  0
   -5.3880   -0.7850    0.0790 C   0  0  1  0  0  0  0  0  0  0  0  0
   -6.5750   -0.2460   -0.6950 C   0  0  0  0  0  0  0  0  0  0  0  0
   -7.3310   -1.3990   -0.2450 N   0  0  0  0  0  0  0  0  0  0  0  0
   -6.0740   -2.1010   -0.0640 C   0  0  0  0  0  0  0  0  0  0  0  0
   -1.8530    0.1180   -0.3700 C   0  0  0  0  0  0  0  0  0  0  0  0
    2.0490    0.7130    1.4510 C   0  0  0  0  0  0  0  0  0  0  0  0
  1  2  1  0
  2  3  2  0
  2  7  1  0
  3  4  1  0
  4  5  2  0
  5  6  1  0
  5 24  1  0
  6  7  2  0
  6  9  1  0
  7  8  1  0
  9 10  1  0
 10 11  1  0
 11 12  1  6
 11 24  1  0
 12 13  1  0
 13 14  2  0
 13 23  1  0
 14 15  1  0
 15 16  2  0
 16 17  1  0
 17 18  1  0
 17 23  2  0
 19 18  1  6
 19 20  1  0
 19 22  1  0
 20 21  1  0
 21 22  1  0
M  CHG  2  11   1  21   1
M  END
