
     RDKit          3D

 24 26  0  0  0  0  0  0  0  0999 V2000
    2.5670    1.5670    3.3750 C   0  0  0  0  0  0  0  0  0  0  0  0
    3.0320    2.2540    2.1770 N   0  0  0  0  0  0  0  0  0  0  0  0
    3.8150    3.3490    2.1680 C   0  0  0  0  0  0  0  0  0  0  0  0
    4.0120    3.6640    0.8730 N   0  0  0  0  0  0  0  0  0  0  0  0
    3.3700    2.7920    0.0760 C   0  0  0  0  0  0  0  0  0  0  0  0
    2.7510    1.9010    0.9030 C   0  0  0  0  0  0  0  0  0  0  0  0
    1.9610    0.8070    0.5420 N   0  0  0  0  0  0  0  0  0  0  0  0
    2.3380   -0.4020    0.5400 C   0  0  0  0  0  0  0  0  0  0  0  0
    1.6450   -1.6030    0.1990 C   0  0  0  0  0  0  0  0  0  0  0  0
    2.2880   -2.8160    0.2810 C   0  0  0  0  0  0  0  0  0  0  0  0
    3.6430   -2.8440    0.7090 N   0  0  0  0  0  0  0  0  0  0  0  0
    1.7150   -3.9950   -0.0200 N   0  0  0  0  0  0  0  0  0  0  0  0
    0.4520   -3.9860   -0.4200 C   0  0  0  0  0  0  0  0  0  0  0  0
   -0.1040   -5.0770   -0.7070 O   0  0  0  0  0  0  0  0  0  0  0  0
   -0.2910   -2.8220   -0.5400 C   0  0  0  0  0  0  0  0  0  0  0  0
   -1.6010   -2.8440   -0.9580 C   0  0  0  0  0  0  0  0  0  0  0  0
   -2.3180   -1.6730   -1.0680 C   0  0  0  0  0  0  0  0  0  0  0  0
   -1.7480   -0.4590   -0.7650 C   0  0  0  0  0  0  0  0  0  0  0  0
   -2.5010    0.7410   -0.8830 N   0  0  0  0  0  0  0  0  0  0  0  0
   -3.2370    0.8150   -2.1290 C   0  0  0  0  0  0  0  0  0  0  0  0
   -4.6540    1.2360   -1.8600 C   0  0  0  0  0  0  0  0  0  0  0  0
   -4.7380    2.5330   -1.2240 N   0  0  0  0  0  0  0  0  0  0  0  0
   -0.4180   -0.4720   -0.3430 C   0  0  0  0  0  0  0  0  0  0  0  0
    0.3370   -1.6120   -0.2180 C   0  0  0  0  0  0  0  0  0  0  0  0
  1  2  1  0
  2  3  1  0
  2  6  1  0
  3  4  2  0
  4  5  1  0
  5  6  2  0
  6  7  1  0
  7  8  2  3
  8  9  1  0
  9 10  2  0
  9 24  1  0
 10 11  1  0
 10 12  1  0
 12 13  1  0
 13 14  2  0
 13 15  1  0
 15 16  2  0
 15 24  1  0
 16 17  1  0
 17 18  2  0
 18 19  1  0
 18 23  1  0
 19 20  1  0
 20 21  1  0
 21 22  1  0
 23 24  2  0
M  CHG  2  19   1  22   1
M  END
