
     RDKit          3D

 24 26  0  0  0  0  0  0  0  0999 V2000
   -3.4230   -2.1530   -1.1970 N   0  0  0  0  0  0  0  0  0  0  0  0
   -2.4430   -1.7940   -0.2150 C   0  0  0  0  0  0  0  0  0  0  0  0
   -2.0430   -0.3660   -0.2330 C   0  0  2  0  0  0  0  0  0  0  0  0
   -1.0190   -0.0950    0.8260 C   0  0  0  0  0  0  0  0  0  0  0  0
    0.1660   -0.9220    0.5700 N   0  0  0  0  0  0  0  0  0  0  0  0
    1.1530   -0.6370    1.6200 C   0  0  0  0  0  0  0  0  0  0  0  0
    2.3760   -1.4450    1.4160 C   0  0  0  0  0  0  0  0  0  0  0  0
    2.5370   -2.6820    1.9600 N   0  0  0  0  0  0  0  0  0  0  0  0
    3.7390   -3.1590    1.6010 C   0  0  0  0  0  0  0  0  0  0  0  0
    4.3270   -2.1990    0.8220 C   0  0  0  0  0  0  0  0  0  0  0  0
    3.4800   -1.1370    0.7090 N   0  0  0  0  0  0  0  0  0  0  0  0
    3.6670    0.0780    0.0010 C   0  0  0  0  0  0  0  0  0  0  0  0
    3.7300    1.2690    0.7140 C   0  0  0  0  0  0  0  0  0  0  0  0
    3.9130    2.4210   -0.0240 C   0  0  0  0  0  0  0  0  0  0  0  0
    4.0250    2.4050   -1.3680 N   0  0  0  0  0  0  0  0  0  0  0  0
    3.9670    1.2650   -2.0760 C   0  0  0  0  0  0  0  0  0  0  0  0
    3.7850    0.0890   -1.3800 C   0  0  0  0  0  0  0  0  0  0  0  0
   -3.1710    0.5990   -0.0720 C   0  0  0  0  0  0  0  0  0  0  0  0
   -4.4230    0.3040    0.2260 C   0  0  0  0  0  0  0  0  0  0  0  0
   -5.1740    1.4880    0.2830 N   0  0  0  0  0  0  0  0  0  0  0  0
   -4.3440    2.5610    0.0040 N   0  0  0  0  0  0  0  0  0  0  0  0
   -3.0260    2.0250   -0.2350 C   0  0  0  0  0  0  0  0  0  0  0  0
   -2.0010    2.7930   -0.5670 C   0  0  0  0  0  0  0  0  0  0  0  0
   -2.1270    4.1780   -0.6550 O   0  0  0  0  0  0  0  0  0  0  0  0
  1  2  1  0
  3  2  1  1
  3  4  1  0
  3 18  1  0
  4  5  1  0
  5  6  1  0
  6  7  1  0
  7  8  2  0
  7 11  1  0
  8  9  1  0
  9 10  2  0
 10 11  1  0
 11 12  1  0
 12 13  2  0
 12 17  1  0
 13 14  1  0
 14 15  2  0
 15 16  1  0
 16 17  2  0
 18 19  2  0
 18 22  1  0
 19 20  1  0
 20 21  1  0
 21 22  1  0
 22 23  2  3
 23 24  1  0
M  CHG  2   1   1   8   1
M  END
