
     RDKit          3D

 11 10  0  0  0  0  0  0  0  0999 V2000
    3.2550    0.6350    0.2570 C   0  0  0  0  0  0  0  0  0  0  0  0
    3.0230   -0.5740    0.7060 C   0  0  0  0  0  0  0  0  0  0  0  0
    2.0720   -1.4750    0.0330 C   0  0  0  0  0  0  0  0  0  0  0  0
    1.4030   -0.7960   -1.1240 C   0  0  0  0  0  0  0  0  0  0  0  0
    0.6760    0.2800   -0.7130 O   0  0  0  0  0  0  0  0  0  0  0  0
   -0.3730    0.0140    0.1190 C   0  0  1  0  0  0  0  0  0  0  0  0
   -0.2580    0.7740    1.4170 C   0  0  0  0  0  0  0  0  0  0  0  0
   -1.4000    0.4710    2.2850 N   0  0  0  0  0  0  0  0  0  0  0  0
   -1.6790    0.4700   -0.5330 C   0  0  0  0  0  0  0  0  0  0  0  0
   -1.8560   -0.2140   -1.7360 O   0  0  0  0  0  0  0  0  0  0  0  0
   -2.9960    0.1530   -2.3500 N   0  0  0  0  0  0  0  0  0  0  0  0
  1  2  2  0
  2  3  1  0
  3  4  1  0
  4  5  1  0
  5  6  1  0
  6  7  1  1
  6  9  1  0
  7  8  1  0
  9 10  1  0
 10 11  1  0
M  CHG  2   8   1  11   1
M  END
