
     RDKit          3D

 42 46  0  0  0  0  0  0  0  0999 V2000
    6.4000   -1.7020    0.8580 C   0  0  0  0  0  0  0  0  0  0  0  0
    6.1380   -0.3740    0.2510 C   0  0  0  0  0  0  0  0  0  0  0  0
    7.1740    0.4760    0.0650 N   0  0  0  0  0  0  0  0  0  0  0  0
    6.9700    1.6930   -0.4850 C   0  0  0  0  0  0  0  0  0  0  0  0
    8.0810    2.6080   -0.6860 C   0  0  0  0  0  0  0  0  0  0  0  0
    7.8870    3.8490   -1.2440 C   0  0  0  0  0  0  0  0  0  0  0  0
    8.9050    4.7440   -1.4520 C   0  0  0  0  0  0  0  0  0  0  0  0
   10.1930    4.3760   -1.0800 C   0  0  0  0  0  0  0  0  0  0  0  0
   10.4110    3.1370   -0.5190 C   0  0  0  0  0  0  0  0  0  0  0  0
   11.7200    2.7860   -0.1510 O   0  0  0  0  0  0  0  0  0  0  0  0
    9.3580    2.2610   -0.3250 C   0  0  0  0  0  0  0  0  0  0  0  0
    5.7290    2.0790   -0.8580 N   0  0  0  0  0  0  0  0  0  0  0  0
    4.7040    1.2480   -0.6780 C   0  0  0  0  0  0  0  0  0  0  0  0
    3.3360    1.3410   -0.9470 C   0  0  0  0  0  0  0  0  0  0  0  0
    2.7730    0.1550   -0.5400 C   0  0  0  0  0  0  0  0  0  0  0  0
    1.3720   -0.2350   -0.6090 C   0  0  0  0  0  0  0  0  0  0  0  0
    0.5440    0.6060   -1.1050 O   0  0  0  0  0  0  0  0  0  0  0  0
    0.8500   -1.4700   -0.1730 N   0  0  0  0  0  0  0  0  0  0  0  0
    1.5990   -2.5530    0.4130 C   0  0  0  0  0  0  0  0  0  0  0  0
    2.0850   -3.4870   -0.6660 C   0  0  0  0  0  0  0  0  0  0  0  0
    2.8270   -4.5860   -0.1370 N   0  0  1  0  0  0  0  0  0  0  0  0
    3.3890   -4.2380    1.1280 C   0  0  0  0  0  0  0  0  0  0  0  0
    2.0230   -5.7940   -0.0430 C   0  0  0  0  0  0  0  0  0  0  0  0
   -0.5820   -1.7010   -0.3190 C   0  0  0  0  0  0  0  0  0  0  0  0
   -1.2980   -1.2400    0.8980 C   0  0  0  0  0  0  0  0  0  0  0  0
   -0.6360   -0.7440    1.8390 O   0  0  0  0  0  0  0  0  0  0  0  0
   -2.7010   -1.3840    0.9380 N   0  0  0  0  0  0  0  0  0  0  0  0
   -3.5080   -0.9710    2.0710 C   0  0  0  0  0  0  0  0  0  0  0  0
   -4.8790   -0.5490    1.5400 C   0  0  0  0  0  0  0  0  0  0  0  0
   -4.6710    0.1100    0.2530 N   0  0  2  0  0  0  0  0  0  0  0  0
   -5.7870    0.9240   -0.1500 C   0  0  2  0  0  0  0  0  0  0  0  0
   -5.5260    2.3590    0.1220 C   0  0  0  0  0  0  0  0  0  0  0  0
   -6.2890    2.9690    1.2370 C   0  0  0  0  0  0  0  0  0  0  0  0
   -7.7170    3.2630    0.9760 C   0  0  0  0  0  0  0  0  0  0  0  0
   -8.1160    3.3360   -0.4580 C   0  0  0  0  0  0  0  0  0  0  0  0
   -8.2190    2.0410   -1.1670 C   0  0  0  0  0  0  0  0  0  0  0  0
   -8.3050    0.8290   -0.3170 C   0  0  0  0  0  0  0  0  0  0  0  0
   -7.0800    0.4060    0.3870 C   0  0  0  0  0  0  0  0  0  0  0  0
   -4.3200   -0.8940   -0.7280 C   0  0  0  0  0  0  0  0  0  0  0  0
   -3.4320   -1.9650   -0.1740 C   0  0  0  0  0  0  0  0  0  0  0  0
    3.7600   -0.6000   -0.0530 N   0  0  0  0  0  0  0  0  0  0  0  0
    4.9240    0.0350   -0.1270 N   0  0  0  0  0  0  0  0  0  0  0  0
  1  2  1  0
  2  3  2  0
  2 42  1  0
  3  4  1  0
  4  5  1  0
  4 12  2  0
  5  6  2  0
  5 11  1  0
  6  7  1  0
  7  8  2  0
  8  9  1  0
  9 10  1  0
  9 11  2  0
 12 13  1  0
 13 14  2  0
 13 42  1  0
 14 15  1  0
 15 16  1  0
 15 41  2  0
 16 17  2  0
 16 18  1  0
 18 19  1  0
 18 24  1  0
 19 20  1  0
 20 21  1  0
 21 22  1  1
 21 23  1  0
 24 25  1  0
 25 26  2  0
 25 27  1  0
 27 28  1  0
 27 40  1  0
 28 29  1  0
 30 29  1  1
 30 31  1  0
 30 39  1  0
 31 32  1  1
 31 38  1  0
 32 33  1  0
 33 34  1  0
 34 35  1  0
 35 36  1  0
 36 37  1  0
 37 38  1  0
 39 40  1  0
 41 42  1  0
M  CHG  2  21   1  30   1
M  END
