
     RDKit          3D

 41 45  0  0  0  0  0  0  0  0999 V2000
   -9.8050    1.4560    2.1480 C   0  0  0  0  0  0  0  0  0  0  0  0
   -9.7390    0.9980    0.6980 C   0  0  0  0  0  0  0  0  0  0  0  0
   -8.7810    1.8410   -0.0060 C   0  0  0  0  0  0  0  0  0  0  0  0
   -9.3280    2.9900   -0.3820 O   0  0  0  0  0  0  0  0  0  0  0  0
   -7.4340    1.6160   -0.3290 C   0  0  0  0  0  0  0  0  0  0  0  0
   -6.4770    0.7860   -0.2140 C   0  0  0  0  0  0  0  0  0  0  0  0
   -6.2120   -0.4980    0.3710 C   0  0  0  0  0  0  0  0  0  0  0  0
   -6.9710   -1.0160    1.3700 C   0  0  0  0  0  0  0  0  0  0  0  0
   -6.7800   -2.3220    1.8450 C   0  0  0  0  0  0  0  0  0  0  0  0
   -5.7910   -3.0910    1.2770 C   0  0  0  0  0  0  0  0  0  0  0  0
   -5.0150   -2.5820    0.2710 C   0  0  0  0  0  0  0  0  0  0  0  0
   -5.1990   -1.3170   -0.1920 C   0  0  0  0  0  0  0  0  0  0  0  0
   -4.3480   -0.7700   -1.2490 C   0  0  2  0  0  0  0  0  0  0  0  0
   -3.5700   -1.8540   -2.0250 C   0  0  0  0  0  0  0  0  0  0  0  0
   -2.6420   -0.9180   -2.7740 C   0  0  0  0  0  0  0  0  0  0  0  0
   -2.1650   -1.1510   -3.8960 O   0  0  0  0  0  0  0  0  0  0  0  0
   -2.4240    0.2380   -1.9810 N   0  0  0  0  0  0  0  0  0  0  0  0
   -1.7300    1.4460   -2.2670 C   0  0  0  0  0  0  0  0  0  0  0  0
   -0.2610    1.3930   -1.9580 C   0  0  0  0  0  0  0  0  0  0  0  0
    0.3670    2.4970   -2.2050 O   0  0  0  0  0  0  0  0  0  0  0  0
    0.4150    0.3570   -1.4800 N   0  0  0  0  0  0  0  0  0  0  0  0
    1.2210   -0.2010   -0.7570 C   0  0  0  0  0  0  0  0  0  0  0  0
    1.4600   -1.5740   -0.8190 N   0  0  0  0  0  0  0  0  0  0  0  0
    2.3750   -1.8780    0.0440 N   0  0  0  0  0  0  0  0  0  0  0  0
    2.7940   -0.8040    0.7090 C   0  0  0  0  0  0  0  0  0  0  0  0
    2.0600    0.2250    0.1930 N   0  0  0  0  0  0  0  0  0  0  0  0
    2.0750    1.6200    0.5480 C   0  0  0  0  0  0  0  0  0  0  0  0
    3.1870    2.2830   -0.1780 C   0  0  0  0  0  0  0  0  0  0  0  0
    4.5610    1.7950    0.0710 C   0  0  0  0  0  0  0  0  0  0  0  0
    4.8760    1.1030    1.3210 C   0  0  0  0  0  0  0  0  0  0  0  0
    5.0850   -0.2980    1.3330 N   0  0  2  0  0  0  0  0  0  0  0  0
    5.7470   -0.9050    0.2380 C   0  0  0  0  0  0  0  0  0  0  0  0
    7.2150   -0.6500    0.1730 C   0  0  0  0  0  0  0  0  0  0  0  0
    8.0850   -1.2580    1.0540 C   0  0  0  0  0  0  0  0  0  0  0  0
    9.3850   -1.0180    0.9570 N   0  0  0  0  0  0  0  0  0  0  0  0
    9.9470   -0.2030    0.0410 C   0  0  0  0  0  0  0  0  0  0  0  0
   11.4150    0.0460   -0.0420 C   0  0  0  0  0  0  0  0  0  0  0  0
    9.0860    0.3860   -0.8140 N   0  0  0  0  0  0  0  0  0  0  0  0
    7.7600    0.1940   -0.7810 C   0  0  0  0  0  0  0  0  0  0  0  0
    3.8460   -1.0180    1.6910 C   0  0  0  0  0  0  0  0  0  0  0  0
   -3.1170   -0.0220   -0.7100 C   0  0  0  0  0  0  0  0  0  0  0  0
  1  2  1  0
  2  3  1  0
  3  4  2  0
  3  5  1  0
  5  6  2  3
  6  7  1  0
  7  8  2  0
  7 12  1  0
  8  9  1  0
  9 10  2  0
 10 11  1  0
 11 12  2  0
 13 12  1  1
 13 14  1  0
 13 41  1  0
 14 15  1  0
 15 16  2  0
 15 17  1  0
 17 18  1  0
 17 41  1  0
 18 19  1  0
 19 20  2  0
 19 21  1  0
 21 22  2  3
 22 23  1  0
 22 26  1  0
 23 24  1  0
 24 25  2  0
 25 26  1  0
 25 40  1  0
 26 27  1  0
 27 28  1  0
 28 29  1  0
 29 30  1  0
 30 31  1  0
 31 32  1  6
 31 40  1  0
 32 33  1  0
 33 34  2  0
 33 39  1  0
 34 35  1  0
 35 36  2  0
 36 37  1  0
 36 38  1  0
 38 39  2  0
M  CHG  2  31   1  38   1
M  END
