
     RDKit          3D

 42 46  0  0  0  0  0  0  0  0999 V2000
   -8.2100   -4.1760   -0.4970 C   0  0  0  0  0  0  0  0  0  0  0  0
   -8.6130   -3.2040    0.4850 N   0  0  0  0  0  0  0  0  0  0  0  0
   -7.5300   -2.3310    0.8040 C   0  0  0  0  0  0  0  0  0  0  0  0
   -7.5820   -1.2170    1.5270 N   0  0  0  0  0  0  0  0  0  0  0  0
   -6.3310   -0.6860    1.5910 C   0  0  0  0  0  0  0  0  0  0  0  0
   -5.9080    0.5440    2.2900 C   0  0  0  0  0  0  0  0  0  0  0  0
   -5.5540   -1.5150    0.8920 N   0  0  0  0  0  0  0  0  0  0  0  0
   -4.1580   -1.4180    0.6540 C   0  0  0  0  0  0  0  0  0  0  0  0
   -3.2860   -2.4250    1.0870 C   0  0  0  0  0  0  0  0  0  0  0  0
   -1.9380   -2.2960    0.8450 C   0  0  0  0  0  0  0  0  0  0  0  0
   -1.4220   -1.2150    0.1940 N   0  0  0  0  0  0  0  0  0  0  0  0
   -0.0350   -1.0740   -0.0590 C   0  0  0  0  0  0  0  0  0  0  0  0
    0.6420   -2.0830   -0.7040 C   0  0  0  0  0  0  0  0  0  0  0  0
    1.9980   -1.9320   -0.9440 C   0  0  0  0  0  0  0  0  0  0  0  0
    2.6810   -0.8020   -0.5560 C   0  0  0  0  0  0  0  0  0  0  0  0
    4.1060   -0.7110   -0.8400 C   0  0  0  0  0  0  0  0  0  0  0  0
    4.7120   -1.6620   -1.4180 O   0  0  0  0  0  0  0  0  0  0  0  0
    4.9070    0.4090   -0.5070 N   0  0  0  0  0  0  0  0  0  0  0  0
    6.3440    0.4390   -0.8220 C   0  0  0  0  0  0  0  0  0  0  0  0
    6.9760    1.7150   -0.3780 C   0  0  1  0  0  0  0  0  0  0  0  0
    6.8820    1.9880    1.0960 C   0  0  0  0  0  0  0  0  0  0  0  0
    8.4140    1.6910   -0.7720 C   0  0  0  0  0  0  0  0  0  0  0  0
    8.8160    2.5840   -1.5980 O   0  0  0  0  0  0  0  0  0  0  0  0
    9.3120    0.7240   -0.2630 N   0  0  0  0  0  0  0  0  0  0  0  0
   10.7320    0.7020   -0.6650 C   0  0  0  0  0  0  0  0  0  0  0  0
   11.4920    0.0500    0.4410 C   0  0  0  0  0  0  0  0  0  0  0  0
   10.4770   -0.5720    1.3520 C   0  0  0  0  0  0  0  0  0  0  0  0
    9.1270   -0.3590    0.6640 C   0  0  0  0  0  0  0  0  0  0  0  0
    2.0150    0.1930    0.0790 C   0  0  0  0  0  0  0  0  0  0  0  0
    0.6440    0.0600    0.3320 C   0  0  0  0  0  0  0  0  0  0  0  0
   -2.2760   -0.2630   -0.2120 C   0  0  0  0  0  0  0  0  0  0  0  0
   -3.6540   -0.3320    0.0020 C   0  0  0  0  0  0  0  0  0  0  0  0
   -4.5190    0.7380   -0.4720 C   0  0  0  0  0  0  0  0  0  0  0  0
   -5.6740    0.5490   -1.1750 C   0  0  0  0  0  0  0  0  0  0  0  0
   -6.4040    1.6510   -1.5610 C   0  0  0  0  0  0  0  0  0  0  0  0
   -7.6610    1.4040   -2.3280 C   0  0  0  0  0  0  0  0  0  0  0  0
   -6.0700    2.9190   -1.3000 N   0  0  0  0  0  0  0  0  0  0  0  0
   -6.8780    4.0520   -1.7310 C   0  0  0  0  0  0  0  0  0  0  0  0
   -4.9330    3.1070   -0.6080 C   0  0  0  0  0  0  0  0  0  0  0  0
   -4.5850    4.3010   -0.3420 O   0  0  0  0  0  0  0  0  0  0  0  0
   -4.1640    2.0670   -0.1950 C   0  0  0  0  0  0  0  0  0  0  0  0
   -6.2680   -2.5330    0.3980 N   0  0  0  0  0  0  0  0  0  0  0  0
  1  2  1  0
  2  3  1  0
  3  4  1  0
  3 42  2  0
  4  5  2  0
  5  6  1  0
  5  7  1  0
  7  8  1  0
  7 42  1  0
  8  9  2  0
  8 32  1  0
  9 10  1  0
 10 11  2  0
 11 12  1  0
 11 31  1  0
 12 13  2  0
 12 30  1  0
 13 14  1  0
 14 15  2  0
 15 16  1  0
 15 29  1  0
 16 17  2  0
 16 18  1  0
 18 19  1  0
 19 20  1  0
 20 21  1  1
 20 22  1  0
 22 23  2  0
 22 24  1  0
 24 25  1  0
 24 28  1  0
 25 26  1  0
 26 27  1  0
 27 28  1  0
 29 30  2  0
 31 32  2  0
 32 33  1  0
 33 34  1  0
 33 41  2  0
 34 35  2  0
 35 36  1  0
 35 37  1  0
 37 38  1  0
 37 39  1  0
 39 40  2  0
 39 41  1  0
M  CHG  2   2   1  11   1
M  END
