
     RDKit          3D

 41 46  0  0  0  0  0  0  0  0999 V2000
   -4.2670    0.0810    2.0620 C   0  0  0  0  0  0  0  0  0  0  0  0
   -3.7670    0.5510    0.7390 C   0  0  2  0  0  0  0  0  0  0  0  0
   -2.3550    0.1600    0.6400 N   0  0  0  0  0  0  0  0  0  0  0  0
   -2.3170   -1.2100    0.2130 C   0  0  0  0  0  0  0  0  0  0  0  0
   -2.0290   -1.4110   -1.2100 C   0  0  2  0  0  0  0  0  0  0  0  0
   -2.0540   -2.8670   -1.6280 C   0  0  0  0  0  0  0  0  0  0  0  0
   -2.6660   -3.9300   -1.1210 N   0  0  0  0  0  0  0  0  0  0  0  0
   -2.3880   -5.0120   -1.8430 N   0  0  0  0  0  0  0  0  0  0  0  0
   -2.8690   -6.3600   -1.6050 C   0  0  0  0  0  0  0  0  0  0  0  0
   -1.5810   -4.6510   -2.8360 C   0  0  0  0  0  0  0  0  0  0  0  0
   -1.3470   -3.2730   -2.7250 C   0  0  0  0  0  0  0  0  0  0  0  0
   -0.5390   -2.3860   -3.5500 C   0  0  0  0  0  0  0  0  0  0  0  0
   -0.6490   -0.9390   -3.1330 C   0  0  0  0  0  0  0  0  0  0  0  0
   -0.7110   -0.9560   -1.6780 N   0  0  0  0  0  0  0  0  0  0  0  0
    0.3700   -0.6270   -0.8560 C   0  0  0  0  0  0  0  0  0  0  0  0
    0.2320   -0.7380    0.4320 O   0  0  0  0  0  0  0  0  0  0  0  0
    1.6790   -0.1600   -1.2430 C   0  0  0  0  0  0  0  0  0  0  0  0
    1.7660    0.2640   -2.4730 O   0  0  0  0  0  0  0  0  0  0  0  0
    2.8910   -0.0980   -0.4420 C   0  0  0  0  0  0  0  0  0  0  0  0
    3.8670    0.5200   -1.0630 N   0  0  0  0  0  0  0  0  0  0  0  0
    5.1370    0.7610   -0.6230 N   0  0  0  0  0  0  0  0  0  0  0  0
    5.9550   -0.2430   -0.1950 C   0  0  0  0  0  0  0  0  0  0  0  0
    7.1230    0.3070    0.1480 N   0  0  0  0  0  0  0  0  0  0  0  0
    7.0690    1.6300   -0.0510 C   0  0  0  0  0  0  0  0  0  0  0  0
    8.0210    2.6420    0.1510 C   0  0  0  0  0  0  0  0  0  0  0  0
    7.6880    3.9110   -0.1400 N   0  0  0  0  0  0  0  0  0  0  0  0
    6.4720    4.2120   -0.6150 C   0  0  0  0  0  0  0  0  0  0  0  0
    5.5110    3.2110   -0.8220 C   0  0  0  0  0  0  0  0  0  0  0  0
    5.8260    1.9050   -0.5320 C   0  0  0  0  0  0  0  0  0  0  0  0
    3.0440   -0.5920    0.8940 C   0  0  0  0  0  0  0  0  0  0  0  0
    2.4620   -1.7480    1.3660 C   0  0  0  0  0  0  0  0  0  0  0  0
    2.5430   -2.1510    2.6890 C   0  0  0  0  0  0  0  0  0  0  0  0
    3.2300   -1.3910    3.6110 C   0  0  0  0  0  0  0  0  0  0  0  0
    3.8230   -0.2390    3.1820 C   0  0  0  0  0  0  0  0  0  0  0  0
    3.7320    0.1440    1.8760 C   0  0  0  0  0  0  0  0  0  0  0  0
   -3.9630    2.0020    0.4600 C   0  0  2  0  0  0  0  0  0  0  0  0
   -3.2950    2.9280    1.4210 C   0  0  0  0  0  0  0  0  0  0  0  0
   -3.8060    4.3400    1.1020 C   0  0  0  0  0  0  0  0  0  0  0  0
   -5.1460    4.4650    1.4350 O   0  0  0  0  0  0  0  0  0  0  0  0
   -5.7820    3.2530    1.5900 C   0  0  0  0  0  0  0  0  0  0  0  0
   -5.4400    2.2940    0.4680 C   0  0  0  0  0  0  0  0  0  0  0  0
  2  1  1  1
  2  3  1  0
  2 36  1  0
  3  4  1  0
  5  4  1  1
  5  6  1  0
  5 14  1  0
  6  7  2  0
  6 11  1  0
  7  8  1  0
  8  9  1  0
  8 10  1  0
 10 11  2  0
 11 12  1  0
 12 13  1  0
 13 14  1  0
 14 15  1  0
 15 16  2  0
 15 17  1  0
 17 18  2  0
 17 19  1  0
 19 20  2  3
 19 30  1  0
 20 21  1  0
 21 22  1  0
 21 29  1  0
 22 23  2  0
 23 24  1  0
 24 25  2  0
 24 29  1  0
 25 26  1  0
 26 27  2  0
 27 28  1  0
 28 29  2  0
 30 31  2  0
 30 35  1  0
 31 32  1  0
 32 33  2  0
 33 34  1  0
 34 35  2  0
 36 37  1  1
 36 41  1  0
 37 38  1  0
 38 39  1  0
 39 40  1  0
 40 41  1  0
M  CHG  2   3   1  26   1
M  END
