
     RDKit          3D

 42 47  0  0  0  0  0  0  0  0999 V2000
   -3.9090    0.2630    4.1810 C   0  0  0  0  0  0  0  0  0  0  0  0
   -3.5520   -0.2390    2.8750 N   0  0  1  0  0  0  0  0  0  0  0  0
   -4.4280   -1.3540    2.5570 C   0  0  0  0  0  0  0  0  0  0  0  0
   -4.7560   -1.3910    1.0810 C   0  0  0  0  0  0  0  0  0  0  0  0
   -3.5860   -0.9430    0.2790 N   0  0  0  0  0  0  0  0  0  0  0  0
   -3.0590   -1.8680   -0.6210 C   0  0  0  0  0  0  0  0  0  0  0  0
   -3.6760   -3.0040   -0.6490 O   0  0  0  0  0  0  0  0  0  0  0  0
   -1.9690   -1.7800   -1.5050 N   0  0  0  0  0  0  0  0  0  0  0  0
   -1.0070   -0.7340   -1.7980 C   0  0  0  0  0  0  0  0  0  0  0  0
    0.2730   -1.5390   -1.8380 C   0  0  0  0  0  0  0  0  0  0  0  0
    1.6320   -1.4670   -1.6310 C   0  0  0  0  0  0  0  0  0  0  0  0
    2.3660   -0.3190   -1.2180 N   0  0  0  0  0  0  0  0  0  0  0  0
    3.7730   -0.3370   -1.0360 C   0  0  0  0  0  0  0  0  0  0  0  0
    4.3540   -1.4280   -1.2640 O   0  0  0  0  0  0  0  0  0  0  0  0
    4.5420    0.8140   -0.6120 C   0  0  0  0  0  0  0  0  0  0  0  0
    3.9780    1.9970   -0.1990 C   0  0  0  0  0  0  0  0  0  0  0  0
    4.7480    3.0710    0.1920 C   0  0  0  0  0  0  0  0  0  0  0  0
    6.1240    3.0200    0.1920 C   0  0  0  0  0  0  0  0  0  0  0  0
    6.7120    1.8210   -0.2270 C   0  0  0  0  0  0  0  0  0  0  0  0
    8.0940    1.7440   -0.2370 O   0  0  0  0  0  0  0  0  0  0  0  0
    8.7390    1.3050    0.9040 C   0  0  0  0  0  0  0  0  0  0  0  0
    8.0670    0.9400    2.0590 C   0  0  0  0  0  0  0  0  0  0  0  0
    8.7210    0.5000    3.2010 C   0  0  0  0  0  0  0  0  0  0  0  0
   10.0970    0.4390    3.1400 C   0  0  0  0  0  0  0  0  0  0  0  0
   10.8160    0.7920    2.0090 C   0  0  0  0  0  0  0  0  0  0  0  0
   10.1350    1.2240    0.8940 C   0  0  0  0  0  0  0  0  0  0  0  0
    5.9210    0.7610   -0.6130 C   0  0  0  0  0  0  0  0  0  0  0  0
    2.0770   -2.7060   -1.8990 N   0  0  0  0  0  0  0  0  0  0  0  0
    1.1050   -3.5010   -2.2440 N   0  0  0  0  0  0  0  0  0  0  0  0
   -0.0590   -2.8190   -2.2240 C   0  0  0  0  0  0  0  0  0  0  0  0
   -1.5280   -2.8460   -2.4380 C   0  0  1  0  0  0  0  0  0  0  0  0
   -2.1120   -4.1750   -2.1460 C   0  0  0  0  0  0  0  0  0  0  0  0
   -1.8150   -2.4300   -3.8630 C   0  0  0  0  0  0  0  0  0  0  0  0
   -3.1740    0.4000    0.5540 C   0  0  1  0  0  0  0  0  0  0  0  0
   -3.5760    1.4240   -0.4590 C   0  0  0  0  0  0  0  0  0  0  0  0
   -5.0130    1.5690   -0.6780 C   0  0  0  0  0  0  0  0  0  0  0  0
   -5.6410    0.8120   -1.6300 C   0  0  0  0  0  0  0  0  0  0  0  0
   -7.0130    0.9330   -1.8620 C   0  0  0  0  0  0  0  0  0  0  0  0
   -7.7360    1.8310   -1.1150 C   0  0  0  0  0  0  0  0  0  0  0  0
   -7.0890    2.5790   -0.1670 C   0  0  0  0  0  0  0  0  0  0  0  0
   -5.7380    2.4630    0.0640 C   0  0  0  0  0  0  0  0  0  0  0  0
   -3.8680    0.7910    1.8830 C   0  0  0  0  0  0  0  0  0  0  0  0
  2  1  1  1
  2  3  1  0
  2 42  1  0
  3  4  1  0
  4  5  1  0
  5  6  1  0
  5 34  1  0
  6  7  2  0
  6  8  1  0
  8  9  1  0
  8 31  1  0
  9 10  1  0
 10 11  1  0
 10 30  2  0
 11 12  1  0
 11 28  2  0
 12 13  1  0
 13 14  2  0
 13 15  1  0
 15 16  2  0
 15 27  1  0
 16 17  1  0
 17 18  2  0
 18 19  1  0
 19 20  1  0
 19 27  2  0
 20 21  1  0
 21 22  2  0
 21 26  1  0
 22 23  1  0
 23 24  2  0
 24 25  1  0
 25 26  2  0
 28 29  1  0
 29 30  1  0
 30 31  1  0
 31 32  1  1
 31 33  1  0
 34 35  1  6
 34 42  1  0
 35 36  1  0
 36 37  2  0
 36 41  1  0
 37 38  1  0
 38 39  2  0
 39 40  1  0
 40 41  2  0
M  CHG  1   2   1
M  END
