
     RDKit          3D

 42 47  0  0  0  0  0  0  0  0999 V2000
    0.3910   -4.5670   -1.2020 C   0  0  0  0  0  0  0  0  0  0  0  0
    1.1280   -3.3020   -0.9110 C   0  0  0  0  0  0  0  0  0  0  0  0
    0.4820   -2.0620   -0.9880 C   0  0  0  0  0  0  0  0  0  0  0  0
    1.0930   -0.8670   -0.7350 C   0  0  0  0  0  0  0  0  0  0  0  0
    0.4500    0.4490   -0.8230 C   0  0  0  0  0  0  0  0  0  0  0  0
   -0.9300    0.4410   -1.1730 N   0  0  2  0  0  0  0  0  0  0  0  0
   -1.3510    1.6550   -1.8530 C   0  0  0  0  0  0  0  0  0  0  0  0
   -1.5920    2.8080   -0.9590 C   0  0  0  0  0  0  0  0  0  0  0  0
   -3.0420    3.0190   -0.5850 C   0  0  0  0  0  0  0  0  0  0  0  0
   -3.7490    1.6960   -0.6300 C   0  0  0  0  0  0  0  0  0  0  0  0
   -5.0070    1.5210   -0.9110 O   0  0  0  0  0  0  0  0  0  0  0  0
   -5.2990    0.2530   -0.8620 C   0  0  0  0  0  0  0  0  0  0  0  0
   -6.6620   -0.2840   -1.1340 C   0  0  0  0  0  0  0  0  0  0  0  0
   -7.4560   -0.3740    0.0690 N   0  0  1  0  0  0  0  0  0  0  0  0
   -8.3880    0.7250    0.1920 C   0  0  0  0  0  0  0  0  0  0  0  0
   -9.0430    0.6040    1.5740 C   0  0  0  0  0  0  0  0  0  0  0  0
   -9.8740   -0.5800    1.5070 N   0  0  0  0  0  0  0  0  0  0  0  0
   -9.4800   -1.6240    0.6320 C   0  0  0  0  0  0  0  0  0  0  0  0
  -10.3390   -2.5050    0.2180 N   0  0  0  0  0  0  0  0  0  0  0  0
   -8.0610   -1.6670    0.2130 C   0  0  0  0  0  0  0  0  0  0  0  0
   -4.1830   -0.4170   -0.5360 N   0  0  0  0  0  0  0  0  0  0  0  0
   -3.1960    0.4790   -0.3860 C   0  0  0  0  0  0  0  0  0  0  0  0
   -1.7700    0.1740   -0.0190 C   0  0  0  0  0  0  0  0  0  0  0  0
    2.4520   -0.9050   -0.3760 C   0  0  0  0  0  0  0  0  0  0  0  0
    3.0780    0.3230   -0.0950 N   0  0  0  0  0  0  0  0  0  0  0  0
    4.4310    0.5620    0.2420 C   0  0  0  0  0  0  0  0  0  0  0  0
    5.2220   -0.3930    0.3160 O   0  0  0  0  0  0  0  0  0  0  0  0
    4.9600    1.9280    0.5170 C   0  0  0  0  0  0  0  0  0  0  0  0
    6.3660    1.8240    0.8270 N   0  0  0  0  0  0  0  0  0  0  0  0
    7.3230    1.8890   -0.0810 N   0  0  0  0  0  0  0  0  0  0  0  0
    8.6380    1.7930    0.2000 C   0  0  0  0  0  0  0  0  0  0  0  0
    9.5990    1.8700   -0.7970 C   0  0  0  0  0  0  0  0  0  0  0  0
   10.9400    1.7680   -0.4870 C   0  0  0  0  0  0  0  0  0  0  0  0
   11.3480    1.5890    0.8280 C   0  0  0  0  0  0  0  0  0  0  0  0
   10.4110    1.5140    1.8040 C   0  0  0  0  0  0  0  0  0  0  0  0
    9.0690    1.6150    1.4940 C   0  0  0  0  0  0  0  0  0  0  0  0
    8.0890    1.5430    2.4580 C   0  0  0  0  0  0  0  0  0  0  0  0
    6.7700    1.6490    2.0990 C   0  0  0  0  0  0  0  0  0  0  0  0
    5.8860    1.5820    2.9950 O   0  0  0  0  0  0  0  0  0  0  0  0
    3.1080   -2.1080   -0.2930 C   0  0  0  0  0  0  0  0  0  0  0  0
    2.4390   -3.3180   -0.5630 C   0  0  0  0  0  0  0  0  0  0  0  0
    3.2200   -4.5980   -0.4530 C   0  0  0  0  0  0  0  0  0  0  0  0
  1  2  1  0
  2  3  2  0
  2 41  1  0
  3  4  1  0
  4  5  1  0
  4 24  2  0
  6  5  1  1
  6  7  1  0
  6 23  1  0
  7  8  1  0
  8  9  1  0
  9 10  1  0
 10 11  1  0
 10 22  2  0
 11 12  1  0
 12 13  1  0
 12 21  2  0
 14 13  1  6
 14 15  1  0
 14 20  1  0
 15 16  1  0
 16 17  1  0
 17 18  1  0
 18 19  2  0
 18 20  1  0
 21 22  1  0
 22 23  1  0
 24 25  1  0
 24 40  1  0
 25 26  1  0
 26 27  2  0
 26 28  1  0
 28 29  1  0
 29 30  1  0
 29 38  1  0
 30 31  2  0
 31 32  1  0
 31 36  1  0
 32 33  2  0
 33 34  1  0
 34 35  2  0
 35 36  1  0
 36 37  2  0
 37 38  1  0
 38 39  2  0
 40 41  2  0
 41 42  1  0
M  CHG  2   6   1  14   1
M  END
