
     RDKit          3D

 42 47  0  0  0  0  0  0  0  0999 V2000
   12.4980   -0.0160    0.1880 C   0  0  0  0  0  0  0  0  0  0  0  0
   11.3410   -0.0440   -0.7020 C   0  0  0  0  0  0  0  0  0  0  0  0
   10.0770   -0.2750   -0.4370 C   0  0  0  0  0  0  0  0  0  0  0  0
    9.4490   -0.5700    0.8130 C   0  0  0  0  0  0  0  0  0  0  0  0
   10.2820   -0.6460    2.0710 C   0  0  0  0  0  0  0  0  0  0  0  0
    8.1750   -0.7850    0.9780 C   0  0  0  0  0  0  0  0  0  0  0  0
    7.1820   -0.7630   -0.0710 C   0  0  0  0  0  0  0  0  0  0  0  0
    5.8930   -1.0070    0.2430 C   0  0  0  0  0  0  0  0  0  0  0  0
    5.5150   -1.2750    1.5470 C   0  0  0  0  0  0  0  0  0  0  0  0
    4.1750   -1.5270    1.8840 C   0  0  0  0  0  0  0  0  0  0  0  0
    3.2180   -1.5080    0.8990 C   0  0  0  0  0  0  0  0  0  0  0  0
    1.8730   -1.7040    0.9030 N   0  0  0  0  0  0  0  0  0  0  0  0
    1.4780   -1.5570   -0.3460 N   0  0  0  0  0  0  0  0  0  0  0  0
    0.1090   -1.6710   -0.8530 C   0  0  2  0  0  0  0  0  0  0  0  0
   -0.0790   -0.5370   -1.8140 C   0  0  0  0  0  0  0  0  0  0  0  0
   -0.3520    0.7360   -1.0140 C   0  0  0  0  0  0  0  0  0  0  0  0
   -1.6360    0.5420   -0.3960 N   0  0  0  0  0  0  0  0  0  0  0  0
   -2.6120    1.5810   -0.4930 C   0  0  0  0  0  0  0  0  0  0  0  0
   -2.2970    2.6080   -1.1170 O   0  0  0  0  0  0  0  0  0  0  0  0
   -3.8680    1.3980    0.1130 N   0  0  0  0  0  0  0  0  0  0  0  0
   -4.9240    2.3120    0.1090 C   0  0  0  0  0  0  0  0  0  0  0  0
   -4.8660    3.4720   -0.4850 C   0  0  0  0  0  0  0  0  0  0  0  0
   -6.0180    4.4460   -0.4800 C   0  0  0  0  0  0  0  0  0  0  0  0
   -6.9960    4.0140    0.5840 C   0  0  0  0  0  0  0  0  0  0  0  0
   -7.2730    2.6060    0.3310 N   0  0  2  0  0  0  0  0  0  0  0  0
   -8.4740    2.1680    0.9750 C   0  0  0  0  0  0  0  0  0  0  0  0
   -8.8330    0.8240    0.4600 C   0  0  0  0  0  0  0  0  0  0  0  0
   -8.4750   -0.4180    0.9660 C   0  0  0  0  0  0  0  0  0  0  0  0
   -9.0490   -1.3820    0.1460 C   0  0  0  0  0  0  0  0  0  0  0  0
   -8.9530   -2.8670    0.2780 C   0  0  0  0  0  0  0  0  0  0  0  0
   -7.8550   -3.3750   -0.5340 N   0  0  0  0  0  0  0  0  0  0  0  0
   -9.7130   -0.6780   -0.7970 N   0  0  0  0  0  0  0  0  0  0  0  0
   -9.5800    0.5970   -0.6050 O   0  0  0  0  0  0  0  0  0  0  0  0
   -6.1650    1.8700    0.8520 C   0  0  0  0  0  0  0  0  0  0  0  0
   -1.9120   -0.6810    0.3000 C   0  0  0  0  0  0  0  0  0  0  0  0
   -0.8310   -1.6990    0.2970 C   0  0  0  0  0  0  0  0  0  0  0  0
    2.5020   -1.2810   -1.1290 N   0  0  0  0  0  0  0  0  0  0  0  0
    3.6120   -1.2410   -0.3810 C   0  0  0  0  0  0  0  0  0  0  0  0
    4.9420   -0.9860   -0.7470 C   0  0  0  0  0  0  0  0  0  0  0  0
    5.1960   -0.7360   -2.0390 C   0  0  0  0  0  0  0  0  0  0  0  0
    6.5670   -0.4620   -2.4620 C   0  0  0  0  0  0  0  0  0  0  0  0
    7.4270   -0.5130   -1.3850 O   0  0  0  0  0  0  0  0  0  0  0  0
  1  2  1  0
  2  3  2  3
  3  4  1  0
  4  5  1  0
  4  6  2  3
  6  7  1  0
  7  8  2  0
  7 42  1  0
  8  9  1  0
  8 39  1  0
  9 10  2  0
 10 11  1  0
 11 12  2  0
 11 38  1  0
 12 13  1  0
 14 13  1  1
 13 37  1  0
 14 15  1  0
 14 36  1  0
 15 16  1  0
 16 17  1  0
 17 18  1  0
 17 35  1  0
 18 19  2  0
 18 20  1  0
 20 21  1  0
 21 22  2  0
 21 34  1  0
 22 23  1  0
 23 24  1  0
 24 25  1  0
 25 26  1  1
 25 34  1  0
 26 27  1  0
 27 28  2  0
 27 33  1  0
 28 29  1  0
 29 30  1  0
 29 32  2  0
 30 31  1  0
 32 33  1  0
 35 36  1  0
 37 38  2  0
 38 39  1  0
 39 40  2  0
 40 41  1  0
 41 42  1  0
M  CHG  2  25   1  31   1
M  END
