
     RDKit          3D

 27 31  0  0  0  0  0  0  0  0999 V2000
    7.2260   -0.4030    1.5730 C   0  0  0  0  0  0  0  0  0  0  0  0
    6.7460   -1.4880    0.8670 C   0  0  0  0  0  0  0  0  0  0  0  0
    5.5210   -1.4710    0.2340 C   0  0  0  0  0  0  0  0  0  0  0  0
    4.7340   -0.3430    0.2950 C   0  0  0  0  0  0  0  0  0  0  0  0
    3.4610   -0.3670   -0.3790 N   0  0  0  0  0  0  0  0  0  0  0  0
    2.2840    0.0960    0.0690 C   0  0  0  0  0  0  0  0  0  0  0  0
    1.3550   -0.1460   -0.9150 C   0  0  0  0  0  0  0  0  0  0  0  0
   -0.0830    0.2050   -0.8370 C   0  0  1  0  0  0  0  0  0  0  0  0
   -0.4450    1.1150   -1.9590 C   0  0  0  0  0  0  0  0  0  0  0  0
   -1.5150    0.6310   -2.8720 C   0  0  0  0  0  0  0  0  0  0  0  0
   -2.7030   -0.0080   -2.2310 C   0  0  0  0  0  0  0  0  0  0  0  0
   -2.3260   -0.5730   -0.9600 N   0  0  0  0  0  0  0  0  0  0  0  0
   -3.2800   -0.6720    0.0850 C   0  0  0  0  0  0  0  0  0  0  0  0
   -3.7140   -1.9020    0.4990 N   0  0  0  0  0  0  0  0  0  0  0  0
   -4.6250   -2.0580    1.4730 C   0  0  0  0  0  0  0  0  0  0  0  0
   -5.1880   -0.9860    2.1280 C   0  0  0  0  0  0  0  0  0  0  0  0
   -4.7740    0.2750    1.7380 C   0  0  0  0  0  0  0  0  0  0  0  0
   -5.3290    1.3670    2.3920 C   0  0  0  0  0  0  0  0  0  0  0  0
   -4.9180    2.5870    2.0110 N   0  0  0  0  0  0  0  0  0  0  0  0
   -4.0130    2.7220    1.0430 N   0  0  0  0  0  0  0  0  0  0  0  0
   -3.4590    1.6830    0.3920 C   0  0  0  0  0  0  0  0  0  0  0  0
   -3.8250    0.4160    0.7210 C   0  0  0  0  0  0  0  0  0  0  0  0
   -0.9590   -1.0350   -0.8210 C   0  0  0  0  0  0  0  0  0  0  0  0
    2.0050   -0.7450   -1.9180 N   0  0  0  0  0  0  0  0  0  0  0  0
    3.2580   -0.8640   -1.5720 N   0  0  0  0  0  0  0  0  0  0  0  0
    5.1900    0.7530    0.9920 C   0  0  0  0  0  0  0  0  0  0  0  0
    6.4180    0.7290    1.6240 C   0  0  0  0  0  0  0  0  0  0  0  0
  1  2  2  0
  1 27  1  0
  2  3  1  0
  3  4  2  0
  4  5  1  0
  4 26  1  0
  5  6  1  0
  5 25  1  0
  6  7  2  0
  8  7  1  6
  7 24  1  0
  8  9  1  0
  8 23  1  0
  9 10  1  0
 10 11  1  0
 11 12  1  0
 12 13  1  0
 12 23  1  0
 13 14  2  0
 13 22  1  0
 14 15  1  0
 15 16  2  0
 16 17  1  0
 17 18  2  0
 17 22  1  0
 18 19  1  0
 19 20  2  0
 20 21  1  0
 21 22  2  0
 24 25  2  0
 26 27  2  0
M  END
