
     RDKit          3D

 27 31  0  0  0  0  0  0  0  0999 V2000
    7.8430    0.9250    0.4400 C   0  0  0  0  0  0  0  0  0  0  0  0
    7.6000   -0.4910   -0.0660 C   0  0  0  0  0  0  0  0  0  0  0  0
    6.1220   -0.6980   -0.1870 C   0  0  0  0  0  0  0  0  0  0  0  0
    5.6690   -1.8690   -0.6140 N   0  0  0  0  0  0  0  0  0  0  0  0
    4.3390   -2.0470   -0.7210 C   0  0  0  0  0  0  0  0  0  0  0  0
    3.4190   -1.0650   -0.4060 C   0  0  0  0  0  0  0  0  0  0  0  0
    3.9150    0.1360    0.0340 C   0  0  0  0  0  0  0  0  0  0  0  0
    5.2590    0.2700    0.1250 N   0  0  0  0  0  0  0  0  0  0  0  0
    2.9880    1.1810    0.3710 C   0  0  0  0  0  0  0  0  0  0  0  0
    1.6970    0.9880    0.2600 C   0  0  0  0  0  0  0  0  0  0  0  0
    1.1440   -0.2640   -0.1980 N   0  0  0  0  0  0  0  0  0  0  0  0
   -0.3000   -0.4110   -0.2980 C   0  0  2  0  0  0  0  0  0  0  0  0
   -0.8530    0.5980   -1.2490 C   0  0  0  0  0  0  0  0  0  0  0  0
   -2.0850    1.2910   -0.7480 C   0  0  0  0  0  0  0  0  0  0  0  0
   -2.9930    0.3910   -0.0390 N   0  0  0  0  0  0  0  0  0  0  0  0
   -4.3730    0.6090   -0.2260 C   0  0  0  0  0  0  0  0  0  0  0  0
   -4.7910    1.7800   -0.8220 N   0  0  0  0  0  0  0  0  0  0  0  0
   -6.0540    2.0740   -1.0110 C   0  0  0  0  0  0  0  0  0  0  0  0
   -7.0520    1.2150   -0.6180 C   0  0  0  0  0  0  0  0  0  0  0  0
   -6.6920    0.0660   -0.0360 N   0  0  0  0  0  0  0  0  0  0  0  0
   -7.4530   -0.9310    0.4250 C   0  0  0  0  0  0  0  0  0  0  0  0
   -6.6450   -1.8730    0.9130 N   0  0  0  0  0  0  0  0  0  0  0  0
   -5.3420   -1.4880    0.7710 C   0  0  0  0  0  0  0  0  0  0  0  0
   -5.4010   -0.2420    0.1610 C   0  0  0  0  0  0  0  0  0  0  0  0
   -2.4510   -0.6250    0.8170 C   0  0  0  0  0  0  0  0  0  0  0  0
   -0.9640   -0.1910    1.0440 C   0  0  0  0  0  0  0  0  0  0  0  0
    1.9900   -1.3660   -0.5580 C   0  0  0  0  0  0  0  0  0  0  0  0
  1  2  1  0
  2  3  1  0
  3  4  2  0
  3  8  1  0
  4  5  1  0
  5  6  2  0
  6  7  1  0
  6 27  1  0
  7  8  2  0
  7  9  1  0
  9 10  2  0
 10 11  1  0
 12 11  1  1
 11 27  1  0
 12 13  1  0
 12 26  1  0
 13 14  1  0
 14 15  1  0
 15 16  1  0
 15 25  1  0
 16 17  2  0
 16 24  1  0
 17 18  1  0
 18 19  2  0
 19 20  1  0
 20 21  1  0
 20 24  1  0
 21 22  2  0
 22 23  1  0
 23 24  2  0
 25 26  1  0
M  END
