
     RDKit          3D

 27 31  0  0  0  0  0  0  0  0999 V2000
   -4.3260    3.6860   -1.9210 C   0  0  0  0  0  0  0  0  0  0  0  0
   -4.0810    2.2750   -1.5260 C   0  0  0  0  0  0  0  0  0  0  0  0
   -5.0090    1.3130   -1.4210 N   0  0  0  0  0  0  0  0  0  0  0  0
   -4.4530    0.1770   -1.0490 N   0  0  0  0  0  0  0  0  0  0  0  0
   -3.1260    0.3950   -0.9040 C   0  0  0  0  0  0  0  0  0  0  0  0
   -2.9130    1.6830   -1.1990 N   0  0  0  0  0  0  0  0  0  0  0  0
   -1.5230    1.9930   -1.0700 C   0  0  0  0  0  0  0  0  0  0  0  0
   -0.8280    0.6190   -1.1180 C   0  0  0  0  0  0  0  0  0  0  0  0
   -1.8420   -0.2770   -0.5490 C   0  0  0  0  0  0  0  0  0  0  0  0
   -1.8140   -1.3990    0.1470 C   0  0  0  0  0  0  0  0  0  0  0  0
   -3.0960   -2.0140    0.6020 C   0  0  0  0  0  0  0  0  0  0  0  0
   -3.0220   -3.1330    1.2790 C   0  0  0  0  0  0  0  0  0  0  0  0
   -1.7750   -3.7920    1.6020 C   0  0  0  0  0  0  0  0  0  0  0  0
   -0.6680   -3.2820    1.2210 N   0  0  0  0  0  0  0  0  0  0  0  0
   -0.6180   -2.0530    0.4680 N   0  0  0  0  0  0  0  0  0  0  0  0
    0.6640   -1.6020    0.0740 C   0  0  0  0  0  0  0  0  0  0  0  0
    1.0500   -1.7880   -1.2360 C   0  0  0  0  0  0  0  0  0  0  0  0
    2.3130   -1.4010   -1.6970 C   0  0  0  0  0  0  0  0  0  0  0  0
    3.1560   -0.8210   -0.7700 C   0  0  0  0  0  0  0  0  0  0  0  0
    2.7630   -0.6360    0.5470 C   0  0  0  0  0  0  0  0  0  0  0  0
    3.6920   -0.0180    1.4870 C   0  0  0  0  0  0  0  0  0  0  0  0
    3.2980    0.1640    2.7950 C   0  0  0  0  0  0  0  0  0  0  0  0
    4.1440    0.7500    3.7390 C   0  0  0  0  0  0  0  0  0  0  0  0
    5.4070    1.1560    3.3500 C   0  0  0  0  0  0  0  0  0  0  0  0
    5.7740    0.9590    2.0310 C   0  0  0  0  0  0  0  0  0  0  0  0
    4.9180    0.3830    1.1390 N   0  0  0  0  0  0  0  0  0  0  0  0
    1.5400   -1.0230    0.9480 N   0  0  0  0  0  0  0  0  0  0  0  0
  1  2  1  0
  2  3  2  0
  2  6  1  0
  3  4  1  0
  4  5  2  0
  5  6  1  0
  5  9  1  0
  6  7  1  0
  7  8  1  0
  8  9  1  0
  9 10  2  3
 10 11  1  0
 10 15  1  0
 11 12  2  0
 12 13  1  0
 13 14  2  0
 14 15  1  0
 15 16  1  0
 16 17  2  0
 16 27  1  0
 17 18  1  0
 18 19  2  0
 19 20  1  0
 20 21  1  0
 20 27  2  0
 21 22  2  0
 21 26  1  0
 22 23  1  0
 23 24  2  0
 24 25  1  0
 25 26  2  0
M  END
