
     RDKit          3D

 12 12  0  0  0  0  0  0  0  0999 V2000
   -3.7650    0.0100   -0.5720 O   0  0  0  0  0  0  0  0  0  0  0  0
   -2.5770    0.3960   -0.2780 C   0  0  0  0  0  0  0  0  0  0  0  0
   -2.4320    1.2870    0.7470 O   0  0  0  0  0  0  0  0  0  0  0  0
   -1.4980   -0.1850   -1.0970 C   0  0  0  0  0  0  0  0  0  0  0  0
   -0.1710   -0.1940   -0.4950 C   0  0  0  0  0  0  0  0  0  0  0  0
    0.7640    0.7560   -0.8250 C   0  0  0  0  0  0  0  0  0  0  0  0
    2.0280    0.7710   -0.2530 C   0  0  0  0  0  0  0  0  0  0  0  0
    2.9520    1.7630   -0.6190 O   0  0  0  0  0  0  0  0  0  0  0  0
    2.3640   -0.1960    0.6770 C   0  0  0  0  0  0  0  0  0  0  0  0
    1.4310   -1.1400    1.0030 C   0  0  0  0  0  0  0  0  0  0  0  0
    0.1640   -1.1470    0.4240 C   0  0  0  0  0  0  0  0  0  0  0  0
   -0.7660   -2.1150    0.7690 O   0  0  0  0  0  0  0  0  0  0  0  0
  1  2  2  0
  2  3  1  0
  2  4  1  0
  4  5  1  0
  5  6  2  0
  5 11  1  0
  6  7  1  0
  7  8  1  0
  7  9  2  0
  9 10  1  0
 10 11  2  0
 11 12  1  0
M  END
