
     RDKit          3D

 27 31  0  0  0  0  0  0  0  0999 V2000
    7.8310    0.5290    0.3570 C   0  0  0  0  0  0  0  0  0  0  0  0
    6.9530   -0.5440    0.4350 C   0  0  0  0  0  0  0  0  0  0  0  0
    5.6250   -0.3500    0.4530 N   0  0  0  0  0  0  0  0  0  0  0  0
    5.0500    0.8550    0.3990 C   0  0  0  0  0  0  0  0  0  0  0  0
    5.8940    1.9580    0.3200 C   0  0  0  0  0  0  0  0  0  0  0  0
    7.2640    1.7890    0.3000 C   0  0  0  0  0  0  0  0  0  0  0  0
    5.0620    3.0780    0.2760 C   0  0  0  0  0  0  0  0  0  0  0  0
    3.7750    2.6040    0.3300 C   0  0  0  0  0  0  0  0  0  0  0  0
    3.7520    1.2650    0.4040 N   0  0  0  0  0  0  0  0  0  0  0  0
    2.6270    0.4200    0.4750 C   0  0  0  0  0  0  0  0  0  0  0  0
    2.6320   -0.8950    0.0410 C   0  0  0  0  0  0  0  0  0  0  0  0
    1.4990   -1.6770    0.1350 C   0  0  0  0  0  0  0  0  0  0  0  0
    0.3600   -1.1300    0.6690 C   0  0  0  0  0  0  0  0  0  0  0  0
   -0.8700   -1.9450    0.7830 C   0  0  0  0  0  0  0  0  0  0  0  0
   -1.6940   -1.8390   -0.3930 N   0  0  0  0  0  0  0  0  0  0  0  0
   -2.8810   -2.5820   -0.3680 C   0  0  0  0  0  0  0  0  0  0  0  0
   -4.1530   -1.8190   -0.1960 C   0  0  0  0  0  0  0  0  0  0  0  0
   -4.0920   -0.3970   -0.6570 C   0  0  1  0  0  0  0  0  0  0  0  0
   -5.2040    0.3480   -0.0930 N   0  0  0  0  0  0  0  0  0  0  0  0
   -5.1680    1.5630    0.4500 C   0  0  0  0  0  0  0  0  0  0  0  0
   -6.4440    1.8740    0.8510 C   0  0  0  0  0  0  0  0  0  0  0  0
   -7.2330    0.7980    0.5250 C   0  0  0  0  0  0  0  0  0  0  0  0
   -6.4350   -0.1100   -0.0490 N   0  0  0  0  0  0  0  0  0  0  0  0
   -2.7810    0.2780   -0.3730 C   0  0  0  0  0  0  0  0  0  0  0  0
   -1.7130   -0.5750   -1.0120 C   0  0  0  0  0  0  0  0  0  0  0  0
    0.3730    0.1350    1.0820 N   0  0  0  0  0  0  0  0  0  0  0  0
    1.4640    0.8590    0.9820 N   0  0  0  0  0  0  0  0  0  0  0  0
  1  2  2  0
  1  6  1  0
  2  3  1  0
  3  4  2  0
  4  5  1  0
  4  9  1  0
  5  6  2  0
  5  7  1  0
  7  8  2  0
  8  9  1  0
  9 10  1  0
 10 11  2  0
 10 27  1  0
 11 12  1  0
 12 13  2  0
 13 14  1  0
 13 26  1  0
 14 15  1  0
 15 16  1  0
 15 25  1  0
 16 17  1  0
 17 18  1  0
 18 19  1  1
 18 24  1  0
 19 20  1  0
 19 23  1  0
 20 21  2  0
 21 22  1  0
 22 23  2  0
 24 25  1  0
 26 27  2  0
M  END
