
     RDKit          3D

 27 31  0  0  0  0  0  0  0  0999 V2000
   -3.5750    3.8950    1.1400 C   0  0  0  0  0  0  0  0  0  0  0  0
   -4.3450    2.6970    0.7060 C   0  0  0  0  0  0  0  0  0  0  0  0
   -5.6790    2.6520    0.5270 N   0  0  0  0  0  0  0  0  0  0  0  0
   -6.0510    1.4200    0.1330 C   0  0  0  0  0  0  0  0  0  0  0  0
   -4.8740    0.6840    0.0720 C   0  0  0  0  0  0  0  0  0  0  0  0
   -3.8350    1.4700    0.4230 N   0  0  0  0  0  0  0  0  0  0  0  0
   -2.5080    0.9580    0.4450 C   0  0  0  0  0  0  0  0  0  0  0  0
   -2.2540   -0.3000    0.1230 C   0  0  0  0  0  0  0  0  0  0  0  0
   -0.8810   -0.8140    0.1500 C   0  0  0  0  0  0  0  0  0  0  0  0
   -0.0390   -0.2290    0.8910 N   0  0  0  0  0  0  0  0  0  0  0  0
    1.3250   -0.6030    1.0280 C   0  0  0  0  0  0  0  0  0  0  0  0
    1.6160   -1.7310    1.7580 C   0  0  0  0  0  0  0  0  0  0  0  0
    2.9380   -2.0640    1.8720 C   0  0  0  0  0  0  0  0  0  0  0  0
    3.8940   -1.2480    1.2480 C   0  0  0  0  0  0  0  0  0  0  0  0
    3.5910   -0.1290    0.5250 C   0  0  0  0  0  0  0  0  0  0  0  0
    4.5370    0.7440   -0.1420 C   0  0  0  0  0  0  0  0  0  0  0  0
    4.1370    1.8530   -0.8980 C   0  0  0  0  0  0  0  0  0  0  0  0
    5.2610    2.4810   -1.3950 C   0  0  0  0  0  0  0  0  0  0  0  0
    6.2950    1.7750   -0.9540 N   0  0  0  0  0  0  0  0  0  0  0  0
    5.8590    0.7390   -0.2060 N   0  0  0  0  0  0  0  0  0  0  0  0
    6.7830   -0.1860    0.4010 C   0  0  0  0  0  0  0  0  0  0  0  0
    2.2510    0.1520    0.4470 N   0  0  0  0  0  0  0  0  0  0  0  0
   -0.5700   -1.9890   -0.6970 C   0  0  0  0  0  0  0  0  0  0  0  0
   -1.8030   -2.4450   -1.4710 C   0  0  0  0  0  0  0  0  0  0  0  0
   -3.0130   -2.5180   -0.5800 C   0  0  0  0  0  0  0  0  0  0  0  0
   -3.3540   -1.1220   -0.2430 N   0  0  0  0  0  0  0  0  0  0  0  0
   -4.7220   -0.7310   -0.3110 C   0  0  0  0  0  0  0  0  0  0  0  0
  1  2  1  0
  2  3  2  0
  2  6  1  0
  3  4  1  0
  4  5  2  0
  5  6  1  0
  5 27  1  0
  6  7  1  0
  7  8  2  0
  8  9  1  0
  8 26  1  0
  9 10  2  3
  9 23  1  0
 10 11  1  0
 11 12  2  0
 11 22  1  0
 12 13  1  0
 13 14  2  0
 14 15  1  0
 15 16  1  0
 15 22  2  0
 16 17  2  0
 16 20  1  0
 17 18  1  0
 18 19  2  0
 19 20  1  0
 20 21  1  0
 23 24  1  0
 24 25  1  0
 25 26  1  0
 26 27  1  0
M  END
