
     RDKit          3D

 27 30  0  0  0  0  0  0  0  0999 V2000
    7.8080   -1.5550    1.1740 C   0  0  0  0  0  0  0  0  0  0  0  0
    6.8540   -1.3730    0.2710 C   0  0  0  0  0  0  0  0  0  0  0  0
    6.7860   -2.1170   -0.9650 C   0  0  0  0  0  0  0  0  0  0  0  0
    5.8420   -1.8970   -1.7960 N   0  0  0  0  0  0  0  0  0  0  0  0
    4.8350   -0.9040   -1.5110 C   0  0  0  0  0  0  0  0  0  0  0  0
    5.1370    0.4390   -1.5060 C   0  0  0  0  0  0  0  0  0  0  0  0
    4.1950    1.4120   -1.2370 C   0  0  0  0  0  0  0  0  0  0  0  0
    2.9280    1.0040   -0.9700 N   0  0  0  0  0  0  0  0  0  0  0  0
    2.5910   -0.2970   -0.9650 C   0  0  0  0  0  0  0  0  0  0  0  0
    3.5350   -1.2690   -1.2340 C   0  0  0  0  0  0  0  0  0  0  0  0
    1.2810   -0.4120   -0.6730 N   0  0  0  0  0  0  0  0  0  0  0  0
    0.7850    0.7950   -0.4930 N   0  0  0  0  0  0  0  0  0  0  0  0
   -0.3440    1.4870   -0.1970 C   0  0  0  0  0  0  0  0  0  0  0  0
   -1.6260    0.9220    0.0640 N   0  0  0  0  0  0  0  0  0  0  0  0
   -2.6580    1.6590    0.1440 C   0  0  0  0  0  0  0  0  0  0  0  0
   -4.0200    1.2500    0.4010 C   0  0  0  0  0  0  0  0  0  0  0  0
   -4.9290    2.2360    0.4600 C   0  0  0  0  0  0  0  0  0  0  0  0
   -6.3770    2.1100    0.7080 C   0  0  0  0  0  0  0  0  0  0  0  0
   -7.0470    1.0910    1.2380 C   0  0  0  0  0  0  0  0  0  0  0  0
   -6.5270   -0.1850    1.7190 C   0  0  0  0  0  0  0  0  0  0  0  0
   -5.3640   -0.7120    1.4280 C   0  0  0  0  0  0  0  0  0  0  0  0
   -4.3090   -0.1690    0.5640 C   0  0  0  0  0  0  0  0  0  0  0  0
   -3.5820   -1.0060   -0.1310 C   0  0  0  0  0  0  0  0  0  0  0  0
   -3.8220   -2.4670   -0.0090 C   0  0  0  0  0  0  0  0  0  0  0  0
    0.0120    2.7820   -0.2070 N   0  0  0  0  0  0  0  0  0  0  0  0
    1.2940    2.8940   -0.4930 N   0  0  0  0  0  0  0  0  0  0  0  0
    1.7850    1.6710   -0.6730 C   0  0  0  0  0  0  0  0  0  0  0  0
  1  2  2  0
  2  3  1  0
  3  4  2  3
  4  5  1  0
  5  6  1  0
  5 10  2  0
  6  7  2  0
  7  8  1  0
  8  9  1  0
  8 27  1  0
  9 10  1  0
  9 11  2  0
 11 12  1  0
 12 13  1  0
 12 27  1  0
 13 14  1  0
 13 25  2  0
 14 15  2  3
 15 16  1  0
 16 17  2  0
 16 22  1  0
 17 18  1  0
 18 19  2  0
 19 20  1  0
 20 21  2  0
 21 22  1  0
 22 23  2  3
 23 24  1  0
 25 26  1  0
 26 27  2  0
M  END
