
     RDKit          3D

 13 14  0  0  0  0  0  0  0  0999 V2000
    4.9660    0.3910   -0.4060 C   0  0  0  0  0  0  0  0  0  0  0  0
    4.6140   -0.8930   -0.0710 C   0  0  0  0  0  0  0  0  0  0  0  0
    3.2830   -0.9230    0.0340 N   0  0  0  0  0  0  0  0  0  0  0  0
    2.8080    0.2890   -0.2230 C   0  0  0  0  0  0  0  0  0  0  0  0
    1.3910    0.7160   -0.2210 C   0  0  0  0  0  0  0  0  0  0  0  0
    0.5750   -0.4000    0.1060 N   0  0  0  0  0  0  0  0  0  0  0  0
   -0.8400   -0.1900   -0.1970 C   0  0  1  0  0  0  0  0  0  0  0  0
   -1.6230   -1.1660    0.6440 C   0  0  0  0  0  0  0  0  0  0  0  0
   -3.1020   -1.0670    0.4390 C   0  0  0  0  0  0  0  0  0  0  0  0
   -3.5380    0.2270   -0.1770 C   0  0  0  0  0  0  0  0  0  0  0  0
   -2.7130    1.4000    0.2900 C   0  0  0  0  0  0  0  0  0  0  0  0
   -1.2470    1.2330    0.0200 C   0  0  0  0  0  0  0  0  0  0  0  0
    3.8320    1.0990   -0.4920 N   0  0  0  0  0  0  0  0  0  0  0  0
  1  2  2  0
  1 13  1  0
  2  3  1  0
  3  4  1  0
  4  5  1  0
  4 13  2  0
  5  6  1  0
  7  6  1  1
  7  8  1  0
  7 12  1  0
  8  9  1  0
  9 10  1  0
 10 11  1  0
 11 12  1  0
M  CHG  1   6   1
M  END
