
     RDKit          3D

 13 14  0  0  0  0  0  0  0  0999 V2000
    4.4060    0.9150   -0.4720 C   0  0  0  0  0  0  0  0  0  0  0  0
    3.6210   -0.1290    0.3010 C   0  0  0  0  0  0  0  0  0  0  0  0
    2.2280    0.0630   -0.0060 N   0  0  0  0  0  0  0  0  0  0  0  0
    1.3780   -0.8880    0.6830 C   0  0  0  0  0  0  0  0  0  0  0  0
   -0.0410   -0.5990    0.2940 C   0  0  0  0  0  0  0  0  0  0  0  0
   -0.8440    0.2530    0.9610 N   0  0  0  0  0  0  0  0  0  0  0  0
   -2.0590    0.3150    0.3880 C   0  0  0  0  0  0  0  0  0  0  0  0
   -3.2210    1.0090    0.6580 C   0  0  0  0  0  0  0  0  0  0  0  0
   -4.3520    0.8760   -0.1200 C   0  0  0  0  0  0  0  0  0  0  0  0
   -4.2880    0.0120   -1.2000 C   0  0  0  0  0  0  0  0  0  0  0  0
   -3.1250   -0.6800   -1.4670 C   0  0  0  0  0  0  0  0  0  0  0  0
   -2.0030   -0.5440   -0.6900 C   0  0  0  0  0  0  0  0  0  0  0  0
   -0.7550   -1.0820   -0.7130 N   0  0  0  0  0  0  0  0  0  0  0  0
  1  2  1  0
  2  3  1  0
  3  4  1  0
  4  5  1  0
  5  6  1  0
  5 13  2  0
  6  7  1  0
  7  8  2  0
  7 12  1  0
  8  9  1  0
  9 10  2  0
 10 11  1  0
 11 12  2  0
 12 13  1  0
M  CHG  1  13   1
M  END
