
     RDKit          3D

 25 26  0  0  0  0  0  0  0  0999 V2000
   -6.3230   -1.5920    0.6190 C   0  0  0  0  0  0  0  0  0  0  0  0
   -4.9120   -1.0930    0.7440 C   0  0  0  0  0  0  0  0  0  0  0  0
   -4.4310   -0.4560   -0.4640 N   0  0  1  0  0  0  0  0  0  0  0  0
   -4.9240    0.8660   -0.6490 C   0  0  0  0  0  0  0  0  0  0  0  0
   -4.2030    1.7020    0.3650 C   0  0  0  0  0  0  0  0  0  0  0  0
   -2.9810    0.9360    0.7730 C   0  0  0  0  0  0  0  0  0  0  0  0
   -2.9910   -0.2230   -0.2390 C   0  0  2  0  0  0  0  0  0  0  0  0
   -2.3320    0.3050   -1.4700 C   0  0  0  0  0  0  0  0  0  0  0  0
   -0.9020    0.5130   -1.1610 N   0  0  0  0  0  0  0  0  0  0  0  0
   -0.0490   -0.5350   -0.8070 C   0  0  0  0  0  0  0  0  0  0  0  0
   -0.5810   -1.7010   -0.7740 O   0  0  0  0  0  0  0  0  0  0  0  0
    1.3470   -0.4560   -0.4780 C   0  0  0  0  0  0  0  0  0  0  0  0
    2.0310   -1.6220   -0.1500 C   0  0  0  0  0  0  0  0  0  0  0  0
    3.3690   -1.5770    0.1700 C   0  0  0  0  0  0  0  0  0  0  0  0
    3.9830   -2.8370    0.4550 N   0  0  0  0  0  0  0  0  0  0  0  0
    3.5310   -3.8790   -0.0560 O   0  0  0  0  0  0  0  0  0  0  0  0
    5.0550   -2.9440    1.2690 O   0  0  0  0  0  0  0  0  0  0  0  0
    4.0910   -0.4090    0.1850 C   0  0  0  0  0  0  0  0  0  0  0  0
    5.4620   -0.3200    0.5430 N   0  0  0  0  0  0  0  0  0  0  0  0
    5.8500   -0.3670    1.9360 C   0  0  0  0  0  0  0  0  0  0  0  0
    6.4980   -0.1810   -0.4590 C   0  0  0  0  0  0  0  0  0  0  0  0
    3.3770    0.7360   -0.1490 C   0  0  0  0  0  0  0  0  0  0  0  0
    2.0380    0.7250   -0.4740 C   0  0  0  0  0  0  0  0  0  0  0  0
    1.4600    1.9470   -0.7840 O   0  0  0  0  0  0  0  0  0  0  0  0
    2.2040    3.1380   -0.7690 C   0  0  0  0  0  0  0  0  0  0  0  0
  1  2  1  0
  3  2  1  1
  3  4  1  0
  3  7  1  0
  4  5  1  0
  5  6  1  0
  6  7  1  0
  7  8  1  6
  8  9  1  0
  9 10  1  0
 10 11  2  0
 10 12  1  0
 12 13  2  0
 12 23  1  0
 13 14  1  0
 14 15  1  0
 14 18  2  0
 15 16  2  0
 15 17  1  0
 18 19  1  0
 18 22  1  0
 19 20  1  0
 19 21  1  0
 22 23  2  0
 23 24  1  0
 24 25  1  0
M  CHG  3   3   1  15   1  17  -1
M  END
