
     RDKit          3D

 13 13  0  0  0  0  0  0  0  0999 V2000
    2.0000    2.5760   -1.2000 C   0  0  0  0  0  0  0  0  0  0  0  0
    2.7420    1.5100   -1.0320 C   0  0  0  0  0  0  0  0  0  0  0  0
    2.2590    0.3640   -0.2860 C   0  0  0  0  0  0  0  0  0  0  0  0
    3.0220   -0.6920   -0.1310 C   0  0  0  0  0  0  0  0  0  0  0  0
    2.5520   -1.8810    0.6290 C   0  0  0  0  0  0  0  0  0  0  0  0
    0.9680    0.3740    0.2780 N   0  0  0  0  0  0  0  0  0  0  0  0
   -0.0380    0.1620   -0.4960 C   0  0  0  0  0  0  0  0  0  0  0  0
    0.1410   -0.0770   -1.8830 N   0  0  0  0  0  0  0  0  0  0  0  0
   -1.3670    0.1560    0.0020 N   0  0  0  0  0  0  0  0  0  0  0  0
   -2.4490   -0.6570   -0.5160 C   0  0  0  0  0  0  0  0  0  0  0  0
   -3.1210   -1.1200    0.7590 C   0  0  0  0  0  0  0  0  0  0  0  0
   -2.7790   -0.0920    1.8070 C   0  0  0  0  0  0  0  0  0  0  0  0
   -1.9390    0.9230    1.0900 C   0  0  0  0  0  0  0  0  0  0  0  0
  1  2  2  0
  2  3  1  0
  3  4  2  3
  3  6  1  0
  4  5  1  0
  6  7  2  3
  7  8  1  0
  7  9  1  0
  9 10  1  0
  9 13  1  0
 10 11  1  0
 11 12  1  0
 12 13  1  0
M  CHG  1   6   1
M  END
