
     RDKit          3D

 13 14  0  0  0  0  0  0  0  0999 V2000
   -3.8290   -0.1320   -0.4610 C   0  0  0  0  0  0  0  0  0  0  0  0
   -3.1630   -0.1820    0.8130 N   0  0  0  0  0  0  0  0  0  0  0  0
   -1.7530   -0.0750    0.5520 C   0  0  0  0  0  0  0  0  0  0  0  0
   -0.9870   -1.2070    0.4070 C   0  0  0  0  0  0  0  0  0  0  0  0
    0.3620   -1.1080    0.1580 C   0  0  0  0  0  0  0  0  0  0  0  0
    1.0170    0.0960    0.0400 C   0  0  0  0  0  0  0  0  0  0  0  0
    2.4470    0.1820   -0.2250 C   0  0  0  0  0  0  0  0  0  0  0  0
    3.1720    1.3470   -0.3560 C   0  0  0  0  0  0  0  0  0  0  0  0
    4.4640    1.0080   -0.5960 N   0  0  0  0  0  0  0  0  0  0  0  0
    4.5750   -0.3320   -0.6200 C   0  0  0  0  0  0  0  0  0  0  0  0
    3.3380   -0.8080   -0.3930 N   0  0  0  0  0  0  0  0  0  0  0  0
    0.2280    1.2170    0.1890 C   0  0  0  0  0  0  0  0  0  0  0  0
   -1.1270    1.1440    0.4400 C   0  0  0  0  0  0  0  0  0  0  0  0
  1  2  1  0
  2  3  1  0
  3  4  2  0
  3 13  1  0
  4  5  1  0
  5  6  2  0
  6  7  1  0
  6 12  1  0
  7  8  2  0
  7 11  1  0
  8  9  1  0
  9 10  2  0
 10 11  1  0
 12 13  2  0
M  CHG  1   2   1
M  END
