
     RDKit          3D

 13 14  0  0  0  0  0  0  0  0999 V2000
   -0.9720   -0.8190   -1.7940 C   0  0  0  0  0  0  0  0  0  0  0  0
   -0.7530   -0.0150   -0.6090 N   0  0  0  0  0  0  0  0  0  0  0  0
   -1.8540    0.4470    0.1570 C   0  0  0  0  0  0  0  0  0  0  0  0
   -2.3430    0.1410    1.3440 C   0  0  0  0  0  0  0  0  0  0  0  0
   -3.4000    1.1420    1.1560 C   0  0  0  0  0  0  0  0  0  0  0  0
   -2.9020    1.4430   -0.0340 C   0  0  0  0  0  0  0  0  0  0  0  0
    0.5780    0.3240   -0.1950 C   0  0  0  0  0  0  0  0  0  0  0  0
    0.9610    1.6220   -0.1040 N   0  0  0  0  0  0  0  0  0  0  0  0
    2.1980    1.9870    0.2790 C   0  0  0  0  0  0  0  0  0  0  0  0
    3.0890    0.9790    0.5850 C   0  0  0  0  0  0  0  0  0  0  0  0
    2.7280   -0.3500    0.5010 C   0  0  0  0  0  0  0  0  0  0  0  0
    1.4400   -0.7150    0.1010 C   0  0  0  0  0  0  0  0  0  0  0  0
    1.0420   -2.0650    0.0060 N   0  0  0  0  0  0  0  0  0  0  0  0
  1  2  1  0
  2  3  1  0
  2  7  1  0
  3  4  2  0
  3  6  1  0
  4  5  1  0
  5  6  2  0
  7  8  2  0
  7 12  1  0
  8  9  1  0
  9 10  2  0
 10 11  1  0
 11 12  2  0
 12 13  1  0
M  CHG  1  13   1
M  END
