
     RDKit          3D

 13 14  0  0  0  0  0  0  0  0999 V2000
   -0.4220    1.5040    0.6840 C   0  0  0  0  0  0  0  0  0  0  0  0
   -0.5730    0.2840   -0.1300 C   0  0  0  0  0  0  0  0  0  0  0  0
   -1.8040   -0.3540   -0.3690 C   0  0  0  0  0  0  0  0  0  0  0  0
   -3.0800    0.3030   -0.0680 C   0  0  0  0  0  0  0  0  0  0  0  0
   -3.8370   -0.3550    0.9530 N   0  0  0  0  0  0  0  0  0  0  0  0
   -1.4630   -1.4900   -1.0540 C   0  0  0  0  0  0  0  0  0  0  0  0
   -0.1400   -1.5160   -1.2100 N   0  0  0  0  0  0  0  0  0  0  0  0
    0.3900   -0.4370   -0.6470 N   0  0  0  0  0  0  0  0  0  0  0  0
    1.7960   -0.2710   -0.5000 C   0  0  0  0  0  0  0  0  0  0  0  0
    2.7430   -0.6450   -1.3860 C   0  0  0  0  0  0  0  0  0  0  0  0
    4.0300   -0.2560   -0.8360 C   0  0  0  0  0  0  0  0  0  0  0  0
    3.7680    0.3560    0.4820 C   0  0  0  0  0  0  0  0  0  0  0  0
    2.4500    0.3230    0.6200 C   0  0  0  0  0  0  0  0  0  0  0  0
  1  2  1  0
  2  3  2  0
  2  8  1  0
  3  4  1  0
  3  6  1  0
  4  5  1  0
  6  7  2  0
  7  8  1  0
  8  9  1  0
  9 10  2  0
  9 13  1  0
 10 11  1  0
 11 12  1  0
 12 13  2  0
M  CHG  1   5   1
M  END
