
     RDKit          3D

 13 14  0  0  0  0  0  0  0  0999 V2000
   -3.6960   -0.3240   -0.8180 N   0  0  0  0  0  0  0  0  0  0  0  0
   -2.4220   -0.8700   -0.5360 C   0  0  0  0  0  0  0  0  0  0  0  0
   -2.2580   -2.2380   -0.5450 C   0  0  0  0  0  0  0  0  0  0  0  0
   -1.0020   -2.7160   -0.2640 C   0  0  0  0  0  0  0  0  0  0  0  0
    0.0120   -1.8230    0.0080 C   0  0  0  0  0  0  0  0  0  0  0  0
   -0.1560   -0.4640    0.0160 C   0  0  0  0  0  0  0  0  0  0  0  0
    0.8920    0.5080    0.2980 C   0  0  0  0  0  0  0  0  0  0  0  0
    0.5800    1.8470    0.2710 C   0  0  0  0  0  0  0  0  0  0  0  0
    1.5440    2.7880    0.5320 C   0  0  0  0  0  0  0  0  0  0  0  0
    2.8250    2.3650    0.8210 C   0  0  0  0  0  0  0  0  0  0  0  0
    3.1350    1.0220    0.8480 C   0  0  0  0  0  0  0  0  0  0  0  0
    2.1510    0.1510    0.5840 N   0  0  0  0  0  0  0  0  0  0  0  0
   -1.4100   -0.0280   -0.2660 N   0  0  0  0  0  0  0  0  0  0  0  0
  1  2  1  0
  2  3  2  0
  2 13  1  0
  3  4  1  0
  4  5  2  0
  5  6  1  0
  6  7  1  0
  6 13  2  0
  7  8  2  0
  7 12  1  0
  8  9  1  0
  9 10  2  0
 10 11  1  0
 11 12  2  0
M  CHG  1  12   1
M  END
