
     RDKit          3D

 13 13  0  0  0  0  0  0  0  0999 V2000
    3.0370   -1.0560    0.1230 N   0  0  0  0  0  0  0  0  0  0  0  0
    2.4010   -0.2780   -0.8980 C   0  0  0  0  0  0  0  0  0  0  0  0
    0.9260   -0.1440   -0.7410 C   0  0  0  0  0  0  0  0  0  0  0  0
    0.5190    0.5160    0.5540 C   0  0  0  0  0  0  0  0  0  0  0  0
   -0.9830    0.6350    0.6800 C   0  0  2  0  0  0  0  0  0  0  0  0
   -1.2130    1.2650    1.9260 O   0  0  0  0  0  0  0  0  0  0  0  0
   -1.6600   -0.6990    0.7510 C   0  0  0  0  0  0  0  0  0  0  0  0
   -2.5230   -0.9820   -0.4250 C   0  0  0  0  0  0  0  0  0  0  0  0
   -2.4680   -2.1100   -0.9940 O   0  0  0  0  0  0  0  0  0  0  0  0
   -3.3610    0.0430   -0.8370 O   0  0  0  0  0  0  0  0  0  0  0  0
   -2.8750    1.3240   -0.7940 N   0  0  0  0  0  0  0  0  0  0  0  0
   -1.5580    1.5370   -0.3380 C   0  0  0  0  0  0  0  0  0  0  0  0
   -0.8810    2.4790   -0.7870 O   0  0  0  0  0  0  0  0  0  0  0  0
  1  2  1  0
  2  3  1  0
  3  4  1  0
  4  5  1  0
  5  6  1  1
  5  7  1  0
  5 12  1  0
  7  8  1  0
  8  9  2  0
  8 10  1  0
 10 11  1  0
 11 12  1  0
 12 13  2  0
M  CHG  1   1   1
M  END
