
     RDKit          3D

 13 13  0  0  0  0  0  0  0  0999 V2000
    5.2170    0.1310   -0.1070 C   0  0  0  0  0  0  0  0  0  0  0  0
    3.8300    0.3260   -0.3090 O   0  0  0  0  0  0  0  0  0  0  0  0
    2.8650   -0.3070    0.4560 C   0  0  0  0  0  0  0  0  0  0  0  0
    3.2550   -1.0830    1.3630 O   0  0  0  0  0  0  0  0  0  0  0  0
    1.4230   -0.0730    0.2090 C   0  0  0  0  0  0  0  0  0  0  0  0
    0.9340    0.7240   -0.7210 C   0  0  0  0  0  0  0  0  0  0  0  0
   -0.4720    0.7140   -0.6810 N   0  0  0  0  0  0  0  0  0  0  0  0
   -0.8420    0.1040    0.5730 C   0  0  1  0  0  0  0  0  0  0  0  0
   -1.9220   -0.8890    0.3250 C   0  0  2  0  0  0  0  0  0  0  0  0
   -1.4270   -1.8520   -0.5600 O   0  0  0  0  0  0  0  0  0  0  0  0
   -3.1570   -0.3140   -0.3050 C   0  0  0  0  0  0  0  0  0  0  0  0
   -3.7930    0.7020    0.4890 N   0  0  0  0  0  0  0  0  0  0  0  0
    0.3550   -0.6220    0.8760 O   0  0  0  0  0  0  0  0  0  0  0  0
  1  2  1  0
  2  3  1  0
  3  4  2  0
  3  5  1  0
  5  6  2  0
  5 13  1  0
  6  7  1  0
  8  7  1  6
  8  9  1  0
  8 13  1  0
  9 10  1  6
  9 11  1  0
 11 12  1  0
M  CHG  1  12   1
M  END
