
     RDKit          3D

 13 13  0  0  0  0  0  0  0  0999 V2000
    0.3480   -2.1650   -1.7080 O   0  0  0  0  0  0  0  0  0  0  0  0
    0.0390   -1.8910   -0.3630 C   0  0  0  0  0  0  0  0  0  0  0  0
   -0.2680   -0.4270   -0.1450 C   0  0  2  0  0  0  0  0  0  0  0  0
    0.8820    0.3920   -0.6050 C   0  0  0  0  0  0  0  0  0  0  0  0
    2.1600    0.1710    0.0350 C   0  0  0  0  0  0  0  0  0  0  0  0
    2.8770   -1.0180    0.0420 O   0  0  0  0  0  0  0  0  0  0  0  0
    2.7170    1.1490    0.6690 N   0  0  0  0  0  0  0  0  0  0  0  0
    3.9040    1.0930    1.3130 O   0  0  0  0  0  0  0  0  0  0  0  0
   -0.6670   -0.2360    1.2740 C   0  0  0  0  0  0  0  0  0  0  0  0
   -0.8630    1.1210    1.4980 O   0  0  0  0  0  0  0  0  0  0  0  0
   -1.8620    1.5890    0.6880 C   0  0  0  0  0  0  0  0  0  0  0  0
   -2.4550    0.5840   -0.2390 C   0  0  0  0  0  0  0  0  0  0  0  0
   -1.4160   -0.0960   -0.9820 N   0  0  0  0  0  0  0  0  0  0  0  0
  1  2  1  0
  3  2  1  1
  3  4  1  0
  3  9  1  0
  3 13  1  0
  4  5  1  0
  5  6  1  0
  5  7  2  3
  7  8  1  0
  9 10  1  0
 10 11  1  0
 11 12  1  0
 12 13  1  0
M  CHG  1  13   1
M  END
