
     RDKit          3D

 13 13  0  0  0  0  0  0  0  0999 V2000
    2.9110    1.0290    2.4720 N   0  0  0  0  0  0  0  0  0  0  0  0
    1.9650    0.2190    1.8800 O   0  0  0  0  0  0  0  0  0  0  0  0
    1.4880    0.4210    0.6040 C   0  0  0  0  0  0  0  0  0  0  0  0
    1.9050    1.3660   -0.0790 O   0  0  0  0  0  0  0  0  0  0  0  0
    0.4750   -0.5010    0.0600 C   0  0  1  0  0  0  0  0  0  0  0  0
    1.0570   -1.2090   -1.1540 C   0  0  0  0  0  0  0  0  0  0  0  0
    2.1690   -1.9240   -0.7160 O   0  0  0  0  0  0  0  0  0  0  0  0
    0.1300   -1.4960    0.9680 O   0  0  0  0  0  0  0  0  0  0  0  0
   -1.0690   -2.0270    0.4680 C   0  0  0  0  0  0  0  0  0  0  0  0
   -1.7490   -0.7620   -0.0050 C   0  0  0  0  0  0  0  0  0  0  0  0
   -0.8100    0.1430   -0.2450 C   0  0  0  0  0  0  0  0  0  0  0  0
   -1.0900    1.5280   -0.7300 C   0  0  0  0  0  0  0  0  0  0  0  0
   -2.5190    1.7020   -0.8860 N   0  0  0  0  0  0  0  0  0  0  0  0
  1  2  1  0
  2  3  1  0
  3  4  2  0
  3  5  1  0
  5  6  1  6
  5  8  1  0
  5 11  1  0
  6  7  1  0
  8  9  1  0
  9 10  1  0
 10 11  2  0
 11 12  1  0
 12 13  1  0
M  CHG  1  13   1
M  END
