
     RDKit          3D

 12 12  0  0  0  0  0  0  0  0999 V2000
   -2.1690   -2.7810   -0.5320 N   0  0  0  0  0  0  0  0  0  0  0  0
   -1.2270   -1.7320   -0.6780 C   0  0  0  0  0  0  0  0  0  0  0  0
   -1.1070   -0.7490    0.1800 C   0  0  0  0  0  0  0  0  0  0  0  0
   -1.9480   -0.7460    1.2830 O   0  0  0  0  0  0  0  0  0  0  0  0
   -0.1290    0.3510    0.0410 C   0  0  2  0  0  0  0  0  0  0  0  0
   -0.9240    1.6420    0.0310 C   0  0  0  0  0  0  0  0  0  0  0  0
   -0.0310    2.8000   -0.0460 N   0  0  0  0  0  0  0  0  0  0  0  0
    0.6500    0.2300   -1.2370 C   0  0  0  0  0  0  0  0  0  0  0  0
    1.5690   -0.8020   -1.2300 O   0  0  0  0  0  0  0  0  0  0  0  0
    2.0710   -1.0710    0.0370 C   0  0  0  0  0  0  0  0  0  0  0  0
    2.0070    0.2180    0.8210 C   0  0  0  0  0  0  0  0  0  0  0  0
    0.6910    0.4140    1.1640 O   0  0  0  0  0  0  0  0  0  0  0  0
  1  2  1  0
  2  3  2  3
  3  4  1  0
  3  5  1  0
  5  6  1  6
  5  8  1  0
  5 12  1  0
  6  7  1  0
  8  9  1  0
  9 10  1  0
 10 11  1  0
 11 12  1  0
M  CHG  1   7   1
M  END
