
     RDKit          3D

 25 26  0  0  0  0  0  0  0  0999 V2000
   -6.2940   -1.6180   -0.5920 C   0  0  0  0  0  0  0  0  0  0  0  0
   -5.1190   -0.7510   -0.9880 C   0  0  0  0  0  0  0  0  0  0  0  0
   -4.5380   -0.2250    0.2370 N   0  0  2  0  0  0  0  0  0  0  0  0
   -5.3120    0.8460    0.7640 C   0  0  0  0  0  0  0  0  0  0  0  0
   -4.4480    2.0630    0.9370 C   0  0  0  0  0  0  0  0  0  0  0  0
   -3.0450    1.4210    0.9720 C   0  0  0  0  0  0  0  0  0  0  0  0
   -3.1590    0.2750   -0.0030 C   0  0  1  0  0  0  0  0  0  0  0  0
   -2.2780   -0.8700    0.1810 C   0  0  0  0  0  0  0  0  0  0  0  0
   -0.8690   -0.7630   -0.0080 N   0  0  0  0  0  0  0  0  0  0  0  0
    0.0780   -0.0050    0.6510 C   0  0  0  0  0  0  0  0  0  0  0  0
   -0.3640    0.7240    1.5950 O   0  0  0  0  0  0  0  0  0  0  0  0
    1.5010    0.0360    0.3690 C   0  0  0  0  0  0  0  0  0  0  0  0
    2.2760    0.8880    1.1760 C   0  0  0  0  0  0  0  0  0  0  0  0
    3.6380    0.9940    0.9850 C   0  0  0  0  0  0  0  0  0  0  0  0
    4.4110    1.8680    1.8040 N   0  0  0  0  0  0  0  0  0  0  0  0
    3.9580    2.0820    2.9690 O   0  0  0  0  0  0  0  0  0  0  0  0
    5.5700    2.4710    1.4250 O   0  0  0  0  0  0  0  0  0  0  0  0
    4.2800    0.2730    0.0060 C   0  0  0  0  0  0  0  0  0  0  0  0
    5.6690    0.3790   -0.1610 N   0  0  0  0  0  0  0  0  0  0  0  0
    6.5670   -0.0590    0.8660 C   0  0  0  0  0  0  0  0  0  0  0  0
    6.2100    0.9360   -1.3830 C   0  0  0  0  0  0  0  0  0  0  0  0
    3.5020   -0.5510   -0.7670 C   0  0  0  0  0  0  0  0  0  0  0  0
    2.1220   -0.6810   -0.6020 C   0  0  0  0  0  0  0  0  0  0  0  0
    1.4320   -1.5420   -1.4380 O   0  0  0  0  0  0  0  0  0  0  0  0
    1.9850   -2.3130   -2.4570 C   0  0  0  0  0  0  0  0  0  0  0  0
  1  2  1  0
  3  2  1  6
  3  4  1  0
  3  7  1  0
  4  5  1  0
  5  6  1  0
  6  7  1  0
  7  8  1  1
  8  9  1  0
  9 10  1  0
 10 11  2  0
 10 12  1  0
 12 13  2  0
 12 23  1  0
 13 14  1  0
 14 15  1  0
 14 18  2  0
 15 16  2  0
 15 17  1  0
 18 19  1  0
 18 22  1  0
 19 20  1  0
 19 21  1  0
 22 23  2  0
 23 24  1  0
 24 25  1  0
M  CHG  3   3   1  15   1  17  -1
M  END
