
     RDKit          3D

 15 15  0  0  0  0  0  0  0  0999 V2000
   -3.1590    1.9500    0.3800 C   0  0  0  0  0  0  0  0  0  0  0  0
   -2.5770    0.6590    0.2800 O   0  0  0  0  0  0  0  0  0  0  0  0
   -1.1650    0.5530    0.1750 C   0  0  0  0  0  0  0  0  0  0  0  0
   -0.4750    1.5720    0.1730 O   0  0  0  0  0  0  0  0  0  0  0  0
   -0.5720   -0.7690    0.0720 C   0  0  0  0  0  0  0  0  0  0  0  0
   -1.4490   -1.8190    0.0860 C   0  0  0  0  0  0  0  0  0  0  0  0
   -2.8180   -1.5240    0.1960 N   0  0  0  0  0  0  0  0  0  0  0  0
    0.7940   -1.1360   -0.0420 C   0  0  0  0  0  0  0  0  0  0  0  0
    1.8510   -0.3850   -0.0820 C   0  0  0  0  0  0  0  0  0  0  0  0
    2.0940    1.3990   -0.0180 S   0  0  0  0  0  0  0  0  0  0  0  0
    3.7290    1.2820    0.7720 C   0  0  0  0  0  0  0  0  0  0  0  0
    4.2300    2.1070    1.5490 O   0  0  0  0  0  0  0  0  0  0  0  0
    4.2120    0.0480    0.2620 N   0  0  0  0  0  0  0  0  0  0  0  0
    3.2580   -0.8460   -0.1940 C   0  0  0  0  0  0  0  0  0  0  0  0
    3.5340   -1.9980   -0.6830 O   0  0  0  0  0  0  0  0  0  0  0  0
  1  2  1  0
  2  3  1  0
  3  4  2  0
  3  5  1  0
  5  6  2  3
  5  8  1  0
  6  7  1  0
  8  9  2  3
  9 10  1  0
  9 14  1  0
 10 11  1  0
 11 12  2  0
 11 13  1  0
 13 14  1  0
 14 15  2  0
M  END
