
     RDKit          3D

 15 15  0  0  0  0  0  0  0  0999 V2000
    0.3300   -0.9120    0.1560 O   0  0  0  0  0  0  0  0  0  0  0  0
    0.2290    0.3130    0.4110 C   0  0  0  0  0  0  0  0  0  0  0  0
    1.4730    1.0660    0.7110 C   0  0  0  0  0  0  0  0  0  0  0  0
    2.6210    0.2930    0.6680 O   0  0  0  0  0  0  0  0  0  0  0  0
    3.0170   -0.3740   -0.4810 C   0  0  0  0  0  0  0  0  0  0  0  0
    2.2850   -0.2430   -1.4800 O   0  0  0  0  0  0  0  0  0  0  0  0
    4.2460   -1.2090   -0.5500 C   0  0  0  0  0  0  0  0  0  0  0  0
    5.0950   -1.2040    1.0510 S   0  0  0  0  0  0  0  0  0  0  0  0
   -1.0520    0.9030    0.3990 N   0  0  0  0  0  0  0  0  0  0  0  0
   -2.2660    0.2230    0.1180 C   0  0  0  0  0  0  0  0  0  0  0  0
   -2.4870   -1.0990   -0.1930 C   0  0  0  0  0  0  0  0  0  0  0  0
   -3.7930   -1.3260   -0.3860 N   0  0  0  0  0  0  0  0  0  0  0  0
   -4.4410   -0.1610   -0.2030 C   0  0  0  0  0  0  0  0  0  0  0  0
   -3.5120    0.8110    0.1100 C   0  0  0  0  0  0  0  0  0  0  0  0
   -3.8690    2.1290    0.3570 O   0  0  0  0  0  0  0  0  0  0  0  0
  1  2  2  0
  2  3  1  0
  2  9  1  0
  3  4  1  0
  4  5  1  0
  5  6  2  0
  5  7  1  0
  7  8  1  0
  9 10  1  0
 10 11  2  0
 10 14  1  0
 11 12  1  0
 12 13  1  0
 13 14  2  0
 14 15  1  0
M  END
