
     RDKit          3D

 15 15  0  0  0  0  0  0  0  0999 V2000
    0.2430    1.2430    0.5620 O   0  0  0  0  0  0  0  0  0  0  0  0
    0.3100    0.0600    0.1780 C   0  0  0  0  0  0  0  0  0  0  0  0
    1.5800   -0.5540    0.1280 N   0  0  0  0  0  0  0  0  0  0  0  0
    2.7680    0.1790    0.5140 C   0  0  0  0  0  0  0  0  0  0  0  0
    3.9450   -0.7260    0.3560 C   0  0  0  0  0  0  0  0  0  0  0  0
    5.2500   -0.0610    0.7330 C   0  0  0  0  0  0  0  0  0  0  0  0
    5.2330    0.3530    2.0630 O   0  0  0  0  0  0  0  0  0  0  0  0
   -0.9030   -0.5880   -0.1830 N   0  0  0  0  0  0  0  0  0  0  0  0
   -2.1710    0.0290   -0.1310 C   0  0  2  0  0  0  0  0  0  0  0  0
   -3.1730   -0.6300    0.7550 C   0  0  0  0  0  0  0  0  0  0  0  0
   -4.3250    0.3530    0.8430 C   0  0  0  0  0  0  0  0  0  0  0  0
   -4.4050    0.9160   -0.8660 S   0  0  1  0  0  0  0  0  0  0  0  0
   -5.5980    0.3860   -1.5640 O   0  0  0  0  0  0  0  0  0  0  0  0
   -4.2560    2.3940   -0.9430 O   0  0  0  0  0  0  0  0  0  0  0  0
   -2.8910    0.1270   -1.4520 C   0  0  0  0  0  0  0  0  0  0  0  0
  1  2  2  0
  2  3  1  0
  2  8  1  0
  3  4  1  0
  4  5  1  0
  5  6  1  0
  6  7  1  0
  9  8  1  6
  9 10  1  0
  9 15  1  0
 10 11  1  0
 12 11  1  1
 12 13  2  0
 12 14  2  0
 12 15  1  0
M  END
