
     RDKit          3D

 24 25  0  0  0  0  0  0  0  0999 V2000
   -5.7340    1.1520   -0.7390 C   0  0  0  0  0  0  0  0  0  0  0  0
   -4.9200    0.9910    0.5040 C   0  0  0  0  0  0  0  0  0  0  0  0
   -3.4270    0.9320    0.2040 C   0  0  0  0  0  0  0  0  0  0  0  0
   -3.2200   -0.2780   -0.7160 C   0  0  0  0  0  0  0  0  0  0  0  0
   -1.8310   -0.4200   -1.0570 N   0  0  0  0  0  0  0  0  0  0  0  0
   -0.9080   -1.1830   -0.2950 C   0  0  0  0  0  0  0  0  0  0  0  0
   -1.3220   -2.1670    0.4020 N   0  0  0  0  0  0  0  0  0  0  0  0
    0.5530   -0.8040   -0.3340 C   0  0  1  0  0  0  0  0  0  0  0  0
    1.3320   -1.6960    0.4060 N   0  0  0  0  0  0  0  0  0  0  0  0
    1.8650   -2.8340   -0.2400 C   0  0  0  0  0  0  0  0  0  0  0  0
    2.1410   -1.1180    1.7520 S   0  0  2  0  0  0  0  0  0  0  0  0
    2.8280   -2.2560    2.4550 O   0  0  0  0  0  0  0  0  0  0  0  0
    1.1340   -0.5620    2.7460 O   0  0  0  0  0  0  0  0  0  0  0  0
    3.3100    0.1140    1.4560 C   0  0  0  0  0  0  0  0  0  0  0  0
    4.6160   -0.2820    1.1920 C   0  0  0  0  0  0  0  0  0  0  0  0
    5.5960    0.6550    0.9480 C   0  0  0  0  0  0  0  0  0  0  0  0
    5.3300    1.9910    0.9550 C   0  0  0  0  0  0  0  0  0  0  0  0
    4.0180    2.3870    1.2200 C   0  0  0  0  0  0  0  0  0  0  0  0
    3.0240    1.4650    1.4670 C   0  0  0  0  0  0  0  0  0  0  0  0
    0.9060   -0.6720   -1.7580 C   0  0  0  0  0  0  0  0  0  0  0  0
    1.8860   -1.1690   -2.3210 O   0  0  0  0  0  0  0  0  0  0  0  0
    0.0150    0.1150   -2.5670 N   0  0  0  0  0  0  0  0  0  0  0  0
   -1.3590    0.2580   -2.2400 C   0  0  0  0  0  0  0  0  0  0  0  0
   -2.1720    0.9370   -2.9200 O   0  0  0  0  0  0  0  0  0  0  0  0
  1  2  1  0
  2  3  1  0
  3  4  1  0
  4  5  1  0
  5  6  1  0
  5 23  1  0
  6  7  2  0
  6  8  1  0
  8  9  1  6
  8 20  1  0
  9 10  1  0
 11  9  1  6
 11 12  2  0
 11 13  2  0
 11 14  1  0
 14 15  2  0
 14 19  1  0
 15 16  1  0
 16 17  2  0
 17 18  1  0
 18 19  2  0
 20 21  2  0
 20 22  1  0
 22 23  1  0
 23 24  2  0
M  END
