
     RDKit          3D

 15 15  0  0  0  0  0  0  0  0999 V2000
   -4.2250   -0.1880    0.5020 C   0  0  0  0  0  0  0  0  0  0  0  0
   -3.8540   -0.4260   -0.7900 O   0  0  0  0  0  0  0  0  0  0  0  0
   -2.5540   -0.1670   -1.1320 C   0  0  0  0  0  0  0  0  0  0  0  0
   -1.6310   -1.0090   -0.3070 C   0  0  0  0  0  0  0  0  0  0  0  0
   -0.2410   -0.8030   -0.6240 N   0  0  0  0  0  0  0  0  0  0  0  0
    0.3840   -1.5280   -1.5610 C   0  0  0  0  0  0  0  0  0  0  0  0
   -0.2250   -2.4350   -2.2170 O   0  0  0  0  0  0  0  0  0  0  0  0
    1.6920   -1.3010   -1.8270 N   0  0  0  0  0  0  0  0  0  0  0  0
    2.4110   -0.3480   -1.1670 C   0  0  0  0  0  0  0  0  0  0  0  0
    1.7730    0.3990   -0.2050 C   0  0  0  0  0  0  0  0  0  0  0  0
    2.6910    1.6470    0.6660 S   0  0  0  0  0  0  0  0  0  0  0  0
    3.4490    0.9330    2.1430 C   0  0  0  0  0  0  0  0  0  0  0  0
    4.4140    0.0020    1.7910 O   0  0  0  0  0  0  0  0  0  0  0  0
    0.4400    0.1530    0.0510 C   0  0  0  0  0  0  0  0  0  0  0  0
   -0.1260    0.8520    0.9410 O   0  0  0  0  0  0  0  0  0  0  0  0
  1  2  1  0
  2  3  1  0
  3  4  1  0
  4  5  1  0
  5  6  1  0
  5 14  1  0
  6  7  2  0
  6  8  1  0
  8  9  1  0
  9 10  2  0
 10 11  1  0
 10 14  1  0
 11 12  1  0
 12 13  1  0
 14 15  2  0
M  END
