
     RDKit          3D

 15 15  0  0  0  0  0  0  0  0999 V2000
    4.1020   -0.4780    0.4340 C   0  0  0  0  0  0  0  0  0  0  0  0
    3.2120    0.5330    0.6800 O   0  0  0  0  0  0  0  0  0  0  0  0
    2.7810    1.1260   -0.4850 C   0  0  0  0  0  0  0  0  0  0  0  0
    2.0830    0.1970   -1.4200 C   0  0  0  0  0  0  0  0  0  0  0  0
    0.9270   -0.3970   -0.8590 O   0  0  0  0  0  0  0  0  0  0  0  0
   -0.1780    0.3420   -0.4070 C   0  0  0  0  0  0  0  0  0  0  0  0
   -0.0690    1.5670   -0.5350 O   0  0  0  0  0  0  0  0  0  0  0  0
   -1.3270   -0.3530    0.1580 C   0  0  0  0  0  0  0  0  0  0  0  0
   -2.3820    0.2730    0.5950 C   0  0  0  0  0  0  0  0  0  0  0  0
   -2.3390    1.7760    0.4800 C   0  0  0  0  0  0  0  0  0  0  0  0
   -3.5420   -0.2910    1.1550 N   0  0  0  0  0  0  0  0  0  0  0  0
   -3.7450   -1.6520    1.3320 N   0  0  0  0  0  0  0  0  0  0  0  0
   -2.8210   -2.6630    0.9780 C   0  0  0  0  0  0  0  0  0  0  0  0
   -3.0220   -3.8620    1.1420 O   0  0  0  0  0  0  0  0  0  0  0  0
   -1.2850   -2.1570    0.2540 S   0  0  0  0  0  0  0  0  0  0  0  0
  1  2  1  0
  2  3  1  0
  3  4  1  0
  4  5  1  0
  5  6  1  0
  6  7  2  0
  6  8  1  0
  8  9  2  0
  8 15  1  0
  9 10  1  0
  9 11  1  0
 11 12  1  0
 12 13  1  0
 13 14  2  0
 13 15  1  0
M  END
