
     RDKit          3D

 15 15  0  0  0  0  0  0  0  0999 V2000
   -1.5850   -1.2440    0.5800 C   0  0  0  0  0  0  0  0  0  0  0  0
   -1.1970   -0.2940   -0.4820 N   0  0  0  0  0  0  0  0  0  0  0  0
   -0.4790    0.8730   -0.1450 C   0  0  0  0  0  0  0  0  0  0  0  0
   -1.1950    1.9480    0.1450 C   0  0  0  0  0  0  0  0  0  0  0  0
   -2.6360    1.9050    0.1070 C   0  0  0  0  0  0  0  0  0  0  0  0
   -3.2260    0.8460   -0.2070 O   0  0  0  0  0  0  0  0  0  0  0  0
   -3.4330    3.0000    0.4080 O   0  0  0  0  0  0  0  0  0  0  0  0
    0.9480    0.9580   -0.0770 C   0  0  0  0  0  0  0  0  0  0  0  0
    1.8460    0.0650   -0.3250 C   0  0  0  0  0  0  0  0  0  0  0  0
    3.6560    0.3700   -0.1720 S   0  0  0  0  0  0  0  0  0  0  0  0
    3.9990   -1.3690    0.2370 C   0  0  0  0  0  0  0  0  0  0  0  0
    4.9250   -1.7470    0.9660 O   0  0  0  0  0  0  0  0  0  0  0  0
    2.9890   -2.0470   -0.4610 N   0  0  0  0  0  0  0  0  0  0  0  0
    1.8380   -1.3010   -0.7700 C   0  0  0  0  0  0  0  0  0  0  0  0
    0.8390   -1.8060   -1.4150 O   0  0  0  0  0  0  0  0  0  0  0  0
  1  2  1  0
  2  3  1  0
  3  4  2  3
  3  8  1  0
  4  5  1  0
  5  6  2  0
  5  7  1  0
  8  9  2  3
  9 10  1  0
  9 14  1  0
 10 11  1  0
 11 12  2  0
 11 13  1  0
 13 14  1  0
 14 15  2  0
M  END
