
     RDKit          3D

 15 15  0  0  0  0  0  0  0  0999 V2000
   -1.4730   -1.0940   -1.5970 C   0  0  0  0  0  0  0  0  0  0  0  0
   -1.6370   -0.1770   -0.4590 C   0  0  0  0  0  0  0  0  0  0  0  0
   -0.8620    0.2410    0.4720 C   0  0  0  0  0  0  0  0  0  0  0  0
    0.5430   -0.1440    0.6440 C   0  0  0  0  0  0  0  0  0  0  0  0
    1.2110    0.3540    1.6300 O   0  0  0  0  0  0  0  0  0  0  0  0
    1.1990   -1.0300   -0.2120 N   0  0  0  0  0  0  0  0  0  0  0  0
    2.6050   -1.3040    0.1020 C   0  0  0  0  0  0  0  0  0  0  0  0
    3.3690   -0.0610    0.0390 C   0  0  0  0  0  0  0  0  0  0  0  0
    2.8360    1.2110   -0.2840 N   0  0  0  0  0  0  0  0  0  0  0  0
    4.6130   -0.1420    0.2960 O   0  0  0  0  0  0  0  0  0  0  0  0
   -1.4730    1.1690    1.4080 C   0  0  0  0  0  0  0  0  0  0  0  0
   -2.7100    1.4800    1.2190 C   0  0  0  0  0  0  0  0  0  0  0  0
   -3.2210    0.6120   -0.1810 S   0  0  2  0  0  0  0  0  0  0  0  0
   -4.2660   -0.4080    0.1090 O   0  0  0  0  0  0  0  0  0  0  0  0
   -3.5620    1.4900   -1.3370 O   0  0  0  0  0  0  0  0  0  0  0  0
  1  2  1  0
  2  3  2  0
  2 13  1  0
  3  4  1  0
  3 11  1  0
  4  5  2  0
  4  6  1  0
  6  7  1  0
  7  8  1  0
  8  9  1  0
  8 10  2  0
 11 12  2  0
 13 12  1  1
 13 14  2  0
 13 15  2  0
M  END
