
     RDKit          3D

 33 36  0  0  0  0  0  0  0  0999 V2000
    4.3000   -4.2040   -0.5510 C   0  0  0  0  0  0  0  0  0  0  0  0
    3.2880   -3.3950   -0.4290 C   0  0  0  0  0  0  0  0  0  0  0  0
    3.4230   -1.9720   -0.7060 C   0  0  0  0  0  0  0  0  0  0  0  0
    2.4420   -1.1240   -0.6230 C   0  0  0  0  0  0  0  0  0  0  0  0
    2.6490    0.3180   -0.8920 C   0  0  0  0  0  0  0  0  0  0  0  0
    3.6840    0.9300   -0.4120 C   0  0  0  0  0  0  0  0  0  0  0  0
    4.7860    0.4600    0.4220 C   0  0  0  0  0  0  0  0  0  0  0  0
    6.0810    0.5370   -0.2050 N   0  0  0  0  0  0  0  0  0  0  0  0
    6.5330    1.8830   -0.4140 C   0  0  0  0  0  0  0  0  0  0  0  0
    1.5400    0.9650   -1.6650 C   0  0  0  0  0  0  0  0  0  0  0  0
    0.2840    0.6940   -0.9300 C   0  0  0  0  0  0  0  0  0  0  0  0
    0.1710   -0.5140   -0.1890 N   0  0  0  0  0  0  0  0  0  0  0  0
   -0.9330   -0.6020    0.6630 C   0  0  0  0  0  0  0  0  0  0  0  0
   -2.2380   -0.6570   -0.0930 C   0  0  0  0  0  0  0  0  0  0  0  0
   -3.1740    0.2050    0.1640 C   0  0  0  0  0  0  0  0  0  0  0  0
   -2.9990    1.2270    1.1770 C   0  0  0  0  0  0  0  0  0  0  0  0
   -3.1400    2.5620    0.8500 C   0  0  0  0  0  0  0  0  0  0  0  0
   -3.0390    3.5540    1.8310 C   0  0  0  0  0  0  0  0  0  0  0  0
   -2.7960    3.1910    3.1350 C   0  0  0  0  0  0  0  0  0  0  0  0
   -2.6950    4.2840    4.1390 C   0  0  0  0  0  0  0  0  0  0  0  0
   -2.6540    1.8660    3.4750 C   0  0  0  0  0  0  0  0  0  0  0  0
   -2.7580    0.8890    2.4820 C   0  0  0  0  0  0  0  0  0  0  0  0
   -4.7320    0.1630   -0.7060 S   0  0  1  0  0  0  0  0  0  0  0  0
   -5.7420   -0.2940    0.3220 O   0  0  0  0  0  0  0  0  0  0  0  0
   -5.0740    1.4880   -1.2770 O   0  0  0  0  0  0  0  0  0  0  0  0
   -4.5790   -1.0820   -1.8660 N   0  0  0  0  0  0  0  0  0  0  0  0
   -5.6390   -1.3300   -2.7990 C   0  0  0  0  0  0  0  0  0  0  0  0
   -3.4030   -1.8600   -1.8990 C   0  0  0  0  0  0  0  0  0  0  0  0
   -2.3570   -1.6850   -1.1210 C   0  0  0  0  0  0  0  0  0  0  0  0
    1.0310   -1.5610   -0.4790 C   0  0  2  0  0  0  0  0  0  0  0  0
    0.9260   -2.8690    0.1110 C   0  0  0  0  0  0  0  0  0  0  0  0
   -0.1000   -3.3040    0.8270 N   0  0  0  0  0  0  0  0  0  0  0  0
    1.9940   -3.8100   -0.0240 N   0  0  0  0  0  0  0  0  0  0  0  0
  1  2  2  0
  2  3  1  0
  2 33  1  0
  3  4  2  0
  4  5  1  0
  4 30  1  0
  5  6  2  3
  5 10  1  0
  6  7  1  0
  7  8  1  0
  8  9  1  0
 10 11  1  0
 11 12  1  0
 12 13  1  0
 30 12  1  1
 13 14  1  0
 14 15  2  0
 14 29  1  0
 15 16  1  0
 15 23  1  0
 16 17  2  0
 16 22  1  0
 17 18  1  0
 18 19  2  0
 19 20  1  0
 19 21  1  0
 21 22  2  0
 23 24  2  0
 23 25  2  0
 23 26  1  6
 26 27  1  0
 26 28  1  0
 28 29  2  0
 30 31  1  0
 31 32  2  0
 31 33  1  0
M  END
