
     RDKit          3D

 33 35  0  0  0  0  0  0  0  0999 V2000
   -5.4980    0.6910    2.7540 C   0  0  0  0  0  0  0  0  0  0  0  0
   -4.7000    0.0620    1.6320 C   0  0  0  0  0  0  0  0  0  0  0  0
   -3.3710    0.8220    1.4440 C   0  0  1  0  0  0  0  0  0  0  0  0
   -2.6160    0.7300    2.7110 C   0  0  0  0  0  0  0  0  0  0  0  0
   -2.6810    0.3720    0.2450 N   0  0  0  0  0  0  0  0  0  0  0  0
   -2.1450   -0.9240    0.2460 C   0  0  0  0  0  0  0  0  0  0  0  0
   -2.5080   -1.7480    1.1720 O   0  0  0  0  0  0  0  0  0  0  0  0
   -1.1810   -1.5200   -0.6950 C   0  0  0  0  0  0  0  0  0  0  0  0
    0.0910   -2.0430    0.0100 C   0  0  0  0  0  0  0  0  0  0  0  0
    1.1930   -2.0770   -1.0100 C   0  0  0  0  0  0  0  0  0  0  0  0
    2.3400   -2.9310   -0.5940 C   0  0  0  0  0  0  0  0  0  0  0  0
    1.9350   -4.2240   -0.2710 C   0  0  0  0  0  0  0  0  0  0  0  0
    2.8940   -5.1520    0.0700 C   0  0  0  0  0  0  0  0  0  0  0  0
    4.2310   -4.8070    0.0900 C   0  0  0  0  0  0  0  0  0  0  0  0
    4.5740   -3.5300   -0.2340 C   0  0  0  0  0  0  0  0  0  0  0  0
    3.6520   -2.5110   -0.5940 C   0  0  0  0  0  0  0  0  0  0  0  0
    4.1500   -1.2260   -0.8970 N   0  0  0  0  0  0  0  0  0  0  0  0
    4.0430    0.0620   -0.3440 C   0  0  0  0  0  0  0  0  0  0  0  0
    5.0930    0.8740   -0.5370 O   0  0  0  0  0  0  0  0  0  0  0  0
    3.0050    0.7400    0.4210 C   0  0  0  0  0  0  0  0  0  0  0  0
    3.3330    1.0630    1.6970 C   0  0  0  0  0  0  0  0  0  0  0  0
    4.6030    0.7580    2.2270 N   0  0  0  0  0  0  0  0  0  0  0  0
    5.8620    1.9930    2.2250 S   0  0  0  0  0  0  0  0  0  0  0  0
    5.2780    3.5020    1.5260 N   0  0  0  0  0  0  0  0  0  0  0  0
    1.7760    1.1420    0.0030 N   0  0  0  0  0  0  0  0  0  0  0  0
    0.8330    1.4830   -0.6720 C   0  0  0  0  0  0  0  0  0  0  0  0
    0.4400    1.7230   -2.0740 C   0  0  0  0  0  0  0  0  0  0  0  0
   -0.7000    2.6910   -1.9570 C   0  0  0  0  0  0  0  0  0  0  0  0
   -1.4840    2.2360   -0.8090 C   0  0  2  0  0  0  0  0  0  0  0  0
   -0.4200    1.8030    0.1520 C   0  0  0  0  0  0  0  0  0  0  0  0
   -2.6360    1.3340   -0.8920 C   0  0  1  0  0  0  0  0  0  0  0  0
   -3.1040    0.7030   -2.1360 C   0  0  0  0  0  0  0  0  0  0  0  0
   -3.1520    1.5560   -3.3740 C   0  0  0  0  0  0  0  0  0  0  0  0
  1  2  1  0
  2  3  1  0
  3  4  1  1
  3  5  1  0
  5  6  1  0
  5 31  1  0
  6  7  2  0
  6  8  1  0
  8  9  1  0
  9 10  1  0
 10 11  1  0
 11 12  2  0
 11 16  1  0
 12 13  1  0
 13 14  2  0
 14 15  1  0
 15 16  2  0
 16 17  1  0
 17 18  1  0
 18 19  2  0
 18 20  1  0
 20 21  2  3
 20 25  1  0
 21 22  1  0
 22 23  1  0
 23 24  1  0
 25 26  2  0
 26 27  1  0
 26 30  1  0
 27 28  1  0
 29 28  1  6
 29 30  1  0
 29 31  1  0
 31 32  1  6
 32 33  1  0
M  END
