
     RDKit          3D

 33 35  0  0  0  0  0  0  0  0999 V2000
   -7.5470    2.1520   -2.1580 C   0  0  0  0  0  0  0  0  0  0  0  0
   -6.8510    1.7630   -1.1080 C   0  0  0  0  0  0  0  0  0  0  0  0
   -6.7710    0.3290   -0.7580 C   0  0  2  0  0  0  0  0  0  0  0  0
   -7.6440   -0.0750    0.3750 C   0  0  0  0  0  0  0  0  0  0  0  0
   -7.3440    0.4600    1.7220 C   0  0  0  0  0  0  0  0  0  0  0  0
   -6.0650    1.7080    1.8140 S   0  0  0  0  0  0  0  0  0  0  0  0
   -4.4920    1.0720    1.1300 C   0  0  0  0  0  0  0  0  0  0  0  0
   -4.7720   -0.3340    0.6410 C   0  0  2  0  0  0  0  0  0  0  0  0
   -3.5560   -1.1120    0.5890 N   0  0  0  0  0  0  0  0  0  0  0  0
   -3.4800   -2.3690    1.2860 C   0  0  0  0  0  0  0  0  0  0  0  0
   -2.4590   -0.5930   -0.1750 C   0  0  0  0  0  0  0  0  0  0  0  0
   -2.5530    0.5000   -0.8000 O   0  0  0  0  0  0  0  0  0  0  0  0
   -1.2210   -1.2690   -0.2700 N   0  0  0  0  0  0  0  0  0  0  0  0
   -0.1410   -0.6590   -1.0860 C   0  0  2  0  0  0  0  0  0  0  0  0
    0.2570   -1.6770   -2.0660 C   0  0  0  0  0  0  0  0  0  0  0  0
    1.2970   -1.2330   -3.0370 C   0  0  0  0  0  0  0  0  0  0  0  0
    0.8600   -0.0650   -0.1890 C   0  0  0  0  0  0  0  0  0  0  0  0
    0.3330    0.4790    0.8570 O   0  0  0  0  0  0  0  0  0  0  0  0
    2.2420   -0.0010   -0.2940 N   0  0  0  0  0  0  0  0  0  0  0  0
    3.1970    0.5980    0.5660 C   0  0  0  0  0  0  0  0  0  0  0  0
    2.7730    1.4810    1.5480 C   0  0  0  0  0  0  0  0  0  0  0  0
    3.7320    2.1330    2.3450 C   0  0  0  0  0  0  0  0  0  0  0  0
    5.0680    1.9190    2.1780 C   0  0  0  0  0  0  0  0  0  0  0  0
    5.4560    1.0320    1.1890 C   0  0  0  0  0  0  0  0  0  0  0  0
    6.8220    0.7820    0.9870 C   0  0  0  0  0  0  0  0  0  0  0  0
    7.2930   -0.0870    0.0310 C   0  0  0  0  0  0  0  0  0  0  0  0
    8.6890   -0.2670   -0.1140 N   0  0  0  0  0  0  0  0  0  0  0  0
    9.3960    0.3920   -1.1750 C   0  0  0  0  0  0  0  0  0  0  0  0
    9.3710   -1.0750    0.7790 N   0  0  0  0  0  0  0  0  0  0  0  0
    6.3700   -0.7370   -0.7590 C   0  0  0  0  0  0  0  0  0  0  0  0
    4.9820   -0.5070   -0.5810 C   0  0  0  0  0  0  0  0  0  0  0  0
    4.5520    0.3680    0.3820 C   0  0  0  0  0  0  0  0  0  0  0  0
   -5.3680   -0.2200   -0.7430 C   0  0  0  0  0  0  0  0  0  0  0  0
  1  2  2  0
  3  2  1  1
  3  4  1  0
  3 33  1  0
  4  5  1  0
  5  6  1  0
  6  7  1  0
  7  8  1  0
  8  9  1  6
  8 33  1  0
  9 10  1  0
  9 11  1  0
 11 12  2  0
 11 13  1  0
 13 14  1  0
 14 15  1  1
 14 17  1  0
 15 16  1  0
 17 18  2  0
 17 19  1  0
 19 20  1  0
 20 21  2  0
 20 32  1  0
 21 22  1  0
 22 23  2  0
 23 24  1  0
 24 25  2  0
 24 32  1  0
 25 26  1  0
 26 27  1  0
 26 30  2  0
 27 28  1  0
 27 29  1  0
 30 31  1  0
 31 32  2  0
M  END
