
     RDKit          3D

 33 37  0  0  0  0  0  0  0  0999 V2000
   -1.4000    3.4240    1.1320 C   0  0  0  0  0  0  0  0  0  0  0  0
   -1.2580    3.7130   -0.2510 N   0  0  0  0  0  0  0  0  0  0  0  0
   -1.5340    5.1460   -0.6170 C   0  0  0  0  0  0  0  0  0  0  0  0
   -0.8790    2.8410   -1.2500 C   0  0  0  0  0  0  0  0  0  0  0  0
   -0.9080    3.4650   -2.4610 O   0  0  0  0  0  0  0  0  0  0  0  0
   -0.4730    1.4940   -1.3540 C   0  0  0  0  0  0  0  0  0  0  0  0
   -0.2790    0.5090   -0.3980 N   0  0  2  0  0  0  0  0  0  0  0  0
   -1.5560   -0.0630   -0.0160 C   0  0  0  0  0  0  0  0  0  0  0  0
   -2.0770   -1.1210   -0.8740 C   0  0  0  0  0  0  0  0  0  0  0  0
   -1.4790   -1.5860   -2.0070 C   0  0  0  0  0  0  0  0  0  0  0  0
   -2.1130   -2.6100   -2.7170 C   0  0  0  0  0  0  0  0  0  0  0  0
   -3.3090   -3.1500   -2.3070 C   0  0  0  0  0  0  0  0  0  0  0  0
   -3.9170   -2.6820   -1.1640 C   0  0  0  0  0  0  0  0  0  0  0  0
   -5.1140   -3.2380   -0.7790 C   0  0  0  0  0  0  0  0  0  0  0  0
   -5.7520   -2.7900    0.3610 C   0  0  0  0  0  0  0  0  0  0  0  0
   -5.1460   -1.7700    1.0920 C   0  0  0  0  0  0  0  0  0  0  0  0
   -5.7930   -1.3130    2.2480 O   0  0  0  0  0  0  0  0  0  0  0  0
   -3.9450   -1.2240    0.6900 C   0  0  0  0  0  0  0  0  0  0  0  0
   -3.3010   -1.6680   -0.4470 C   0  0  0  0  0  0  0  0  0  0  0  0
    0.4650    0.7030    0.7790 C   0  0  2  0  0  0  0  0  0  0  0  0
    1.6400    1.5790    0.8970 C   0  0  0  0  0  0  0  0  0  0  0  0
    2.5600    0.4340    1.1120 C   0  0  1  0  0  0  0  0  0  0  0  0
    3.5860    0.2010    0.1080 C   0  0  0  0  0  0  0  0  0  0  0  0
    4.9240    0.1020    0.4590 C   0  0  0  0  0  0  0  0  0  0  0  0
    5.9630   -0.1000   -0.4110 C   0  0  0  0  0  0  0  0  0  0  0  0
    5.6640   -0.2180   -1.7640 C   0  0  0  0  0  0  0  0  0  0  0  0
    4.3470   -0.1230   -2.1430 C   0  0  0  0  0  0  0  0  0  0  0  0
    3.3350    0.0800   -1.2380 C   0  0  0  0  0  0  0  0  0  0  0  0
    3.1580    0.1960    2.4130 N   0  0  0  0  0  0  0  0  0  0  0  0
    3.1340   -1.2430    2.5900 C   0  0  0  0  0  0  0  0  0  0  0  0
    2.8220   -2.0780    1.5020 N   0  0  0  0  0  0  0  0  0  0  0  0
    1.6490   -1.6760    0.6910 C   0  0  0  0  0  0  0  0  0  0  0  0
    1.3120   -0.3920    1.2380 C   0  0  2  0  0  0  0  0  0  0  0  0
  1  2  1  0
  2  3  1  0
  2  4  1  0
  4  5  2  0
  4  6  1  0
  7  6  1  1
  7  8  1  0
  7 20  1  0
  8  9  1  0
  9 10  2  0
  9 19  1  0
 10 11  1  0
 11 12  2  0
 12 13  1  0
 13 14  2  0
 13 19  1  0
 14 15  1  0
 15 16  2  0
 16 17  1  0
 16 18  1  0
 18 19  2  0
 20 21  1  6
 20 33  1  0
 21 22  1  0
 22 23  1  6
 22 29  1  0
 22 33  1  0
 23 24  2  0
 23 28  1  0
 24 25  1  0
 25 26  2  0
 26 27  1  0
 27 28  2  0
 29 30  1  0
 30 31  1  0
 31 32  1  0
 33 32  1  6
M  CHG  2   7   1  31   1
M  END
