
     RDKit          3D

 33 35  0  0  0  0  0  0  0  0999 V2000
    8.1100    3.3500   -0.5650 C   0  0  0  0  0  0  0  0  0  0  0  0
    7.0800    2.3730   -1.0230 C   0  0  0  0  0  0  0  0  0  0  0  0
    6.0920    1.9020    0.4890 S   0  0  0  0  0  0  0  0  0  0  0  0
    7.3640    1.4520    1.7030 C   0  0  0  0  0  0  0  0  0  0  0  0
    4.9610    2.9980    0.9960 O   0  0  0  0  0  0  0  0  0  0  0  0
    5.3270    0.3760    0.0250 C   0  0  0  0  0  0  0  0  0  0  0  0
    6.0880   -0.6460   -0.3880 C   0  0  0  0  0  0  0  0  0  0  0  0
    5.4430   -1.8330   -0.7430 C   0  0  0  0  0  0  0  0  0  0  0  0
    4.0710   -1.9190   -0.6620 C   0  0  0  0  0  0  0  0  0  0  0  0
    3.2850   -0.8440   -0.2290 C   0  0  0  0  0  0  0  0  0  0  0  0
    1.8840   -1.0570   -0.2080 N   0  0  0  0  0  0  0  0  0  0  0  0
    1.2950   -1.9900   -1.0650 N   0  0  0  0  0  0  0  0  0  0  0  0
    0.0540   -2.2690   -1.1130 C   0  0  0  0  0  0  0  0  0  0  0  0
   -0.4050   -3.2920   -2.0910 C   0  0  0  0  0  0  0  0  0  0  0  0
   -0.9680   -1.6560   -0.2610 C   0  0  0  0  0  0  0  0  0  0  0  0
   -0.4140   -0.6630    0.6420 N   0  0  0  0  0  0  0  0  0  0  0  0
   -1.3410    0.0120    1.4840 C   0  0  1  0  0  0  0  0  0  0  0  0
   -0.8130    1.0350    2.4190 C   0  0  0  0  0  0  0  0  0  0  0  0
   -2.5490    0.5320    0.7240 C   0  0  0  0  0  0  0  0  0  0  0  0
   -2.5980    1.7290    0.3890 O   0  0  0  0  0  0  0  0  0  0  0  0
   -3.6140   -0.3350    0.3970 N   0  0  0  0  0  0  0  0  0  0  0  0
   -4.7960   -0.0560   -0.2940 C   0  0  0  0  0  0  0  0  0  0  0  0
   -5.0590    1.1280   -0.7770 C   0  0  0  0  0  0  0  0  0  0  0  0
   -6.2430    1.6040   -1.5290 C   0  0  0  0  0  0  0  0  0  0  0  0
   -7.4460    1.0720   -1.5170 C   0  0  0  0  0  0  0  0  0  0  0  0
   -7.9510   -0.0980   -0.7870 C   0  0  2  0  0  0  0  0  0  0  0  0
   -8.2880    0.3950    0.6280 C   0  0  0  0  0  0  0  0  0  0  0  0
   -7.0070   -1.2030   -0.6270 C   0  0  0  0  0  0  0  0  0  0  0  0
   -5.7070   -1.2080   -0.4240 C   0  0  0  0  0  0  0  0  0  0  0  0
   -5.0770   -2.5360   -0.3030 C   0  0  0  0  0  0  0  0  0  0  0  0
    0.9970   -0.3550    0.6940 C   0  0  0  0  0  0  0  0  0  0  0  0
    1.3990    0.4510    1.4830 N   0  0  0  0  0  0  0  0  0  0  0  0
    3.9470    0.2960    0.1080 C   0  0  0  0  0  0  0  0  0  0  0  0
  1  2  1  0
  2  3  1  0
  3  4  1  0
  3  5  2  0
  3  6  1  0
  6  7  2  0
  6 33  1  0
  7  8  1  0
  8  9  2  0
  9 10  1  0
 10 11  1  0
 10 33  2  0
 11 12  1  0
 11 31  1  0
 12 13  2  0
 13 14  1  0
 13 15  1  0
 15 16  1  0
 16 17  1  0
 16 31  1  0
 17 18  1  6
 17 19  1  0
 19 20  2  0
 19 21  1  0
 21 22  1  0
 22 23  2  0
 22 29  1  0
 23 24  1  0
 24 25  2  0
 25 26  1  0
 26 27  1  1
 26 28  1  0
 28 29  2  0
 29 30  1  0
 31 32  2  0
M  END
