
     RDKit          3D

 32 34  0  0  0  0  0  0  0  0999 V2000
    9.7800   -1.3410   -0.6550 C   0  0  0  0  0  0  0  0  0  0  0  0
    8.3620   -1.0040   -0.4590 N   0  0  0  0  0  0  0  0  0  0  0  0
    7.9190    0.3310   -0.6090 C   0  0  0  0  0  0  0  0  0  0  0  0
    8.7310    1.2500   -0.9120 O   0  0  0  0  0  0  0  0  0  0  0  0
    6.5140    0.6360   -0.4100 C   0  0  0  0  0  0  0  0  0  0  0  0
    5.5570   -0.2770   -0.0810 C   0  0  0  0  0  0  0  0  0  0  0  0
    4.2150    0.0320    0.1060 C   0  0  0  0  0  0  0  0  0  0  0  0
    3.2920   -0.9490    0.4400 O   0  0  0  0  0  0  0  0  0  0  0  0
    1.9710   -0.6200    0.6200 C   0  0  0  0  0  0  0  0  0  0  0  0
    1.1400   -0.6670   -0.4750 C   0  0  0  0  0  0  0  0  0  0  0  0
   -0.2170   -0.3400   -0.3440 C   0  0  0  0  0  0  0  0  0  0  0  0
   -0.6970    0.0230    0.8750 C   0  0  0  0  0  0  0  0  0  0  0  0
   -2.0420    0.3480    1.1210 N   0  0  0  0  0  0  0  0  0  0  0  0
   -3.1290    0.0000    0.2760 C   0  0  0  0  0  0  0  0  0  0  0  0
   -2.9080   -0.6440   -0.7610 O   0  0  0  0  0  0  0  0  0  0  0  0
   -4.4560    0.3650    0.5790 N   0  0  0  0  0  0  0  0  0  0  0  0
   -5.6270    0.0980   -0.1590 C   0  0  0  0  0  0  0  0  0  0  0  0
   -5.6160   -0.4020   -1.4330 C   0  0  0  0  0  0  0  0  0  0  0  0
   -6.8460   -0.6480   -2.0740 C   0  0  0  0  0  0  0  0  0  0  0  0
   -8.0460   -0.3960   -1.4490 C   0  0  0  0  0  0  0  0  0  0  0  0
   -9.5560   -0.7210   -2.2960 Cl  0  0  0  0  0  0  0  0  0  0  0  0
   -8.0430    0.1060   -0.1710 C   0  0  0  0  0  0  0  0  0  0  0  0
   -9.3350    0.3740    0.4940 C   0  0  2  0  0  0  0  0  0  0  0  0
  -10.0920   -0.7810    0.6020 F   0  0  0  0  0  0  0  0  0  0  0  0
  -10.0420    1.3140   -0.2700 F   0  0  0  0  0  0  0  0  0  0  0  0
   -9.1020    0.9470    1.7260 F   0  0  0  0  0  0  0  0  0  0  0  0
   -6.8640    0.3530    0.4740 C   0  0  0  0  0  0  0  0  0  0  0  0
    0.1790    0.0620    1.9730 C   0  0  0  0  0  0  0  0  0  0  0  0
    1.5150   -0.2550    1.8660 C   0  0  0  0  0  0  0  0  0  0  0  0
    3.8500    1.3510   -0.0550 C   0  0  0  0  0  0  0  0  0  0  0  0
    4.8230    2.2690   -0.3870 C   0  0  0  0  0  0  0  0  0  0  0  0
    6.1050    1.9250   -0.5580 N   0  0  0  0  0  0  0  0  0  0  0  0
  1  2  1  0
  2  3  1  0
  3  4  2  0
  3  5  1  0
  5  6  2  0
  5 32  1  0
  6  7  1  0
  7  8  1  0
  7 30  2  0
  8  9  1  0
  9 10  2  0
  9 29  1  0
 10 11  1  0
 11 12  2  0
 12 13  1  0
 12 28  1  0
 13 14  1  0
 14 15  2  0
 14 16  1  0
 16 17  1  0
 17 18  2  0
 17 27  1  0
 18 19  1  0
 19 20  2  0
 20 21  1  0
 20 22  1  0
 22 23  1  0
 22 27  2  0
 23 24  1  1
 23 25  1  0
 23 26  1  0
 28 29  2  0
 30 31  1  0
 31 32  2  0
M  END
