
     RDKit          3D

 33 37  0  0  0  0  0  0  0  0999 V2000
   -9.3660    1.0750    0.6130 C   0  0  0  0  0  0  0  0  0  0  0  0
   -7.8730    0.8960    0.4830 C   0  0  0  0  0  0  0  0  0  0  0  0
   -7.2830    0.9510   -0.7670 C   0  0  0  0  0  0  0  0  0  0  0  0
   -5.9450    0.7870   -0.9120 C   0  0  0  0  0  0  0  0  0  0  0  0
   -5.0700    0.5580    0.1810 C   0  0  0  0  0  0  0  0  0  0  0  0
   -3.6500    0.3730   -0.0440 C   0  0  2  0  0  0  0  0  0  0  0  0
   -3.5730   -0.2030   -1.4570 C   0  0  0  0  0  0  0  0  0  0  0  0
   -2.9760   -0.4130    0.9210 N   0  0  1  0  0  0  0  0  0  0  0  0
   -3.6740   -1.7060    0.9920 C   0  0  0  0  0  0  0  0  0  0  0  0
   -2.9150   -2.6630    0.0720 C   0  0  0  0  0  0  0  0  0  0  0  0
   -1.5470   -2.1680    0.0420 C   0  0  0  0  0  0  0  0  0  0  0  0
   -1.6780   -0.7780    0.7330 C   0  0  1  0  0  0  0  0  0  0  0  0
   -0.4740   -0.0130    0.5120 C   0  0  0  0  0  0  0  0  0  0  0  0
    0.4410    0.1300    1.3360 O   0  0  0  0  0  0  0  0  0  0  0  0
   -0.2370    0.6380   -0.7750 N   0  0  0  0  0  0  0  0  0  0  0  0
    1.1230    1.1660   -0.9730 C   0  0  0  0  0  0  0  0  0  0  0  0
    1.9210    1.7200   -0.0780 C   0  0  0  0  0  0  0  0  0  0  0  0
    3.3240    1.6620   -0.1810 C   0  0  0  0  0  0  0  0  0  0  0  0
    3.8570    1.0060   -1.2440 C   0  0  0  0  0  0  0  0  0  0  0  0
    5.1910    0.5030   -1.2910 C   0  0  0  0  0  0  0  0  0  0  0  0
    5.5070   -0.2170   -0.2290 C   0  0  0  0  0  0  0  0  0  0  0  0
    6.5140   -1.3180   -0.5110 C   0  0  0  0  0  0  0  0  0  0  0  0
    7.6800   -0.3550   -0.3780 N   0  0  2  0  0  0  0  0  0  0  0  0
    7.4630    0.5320    0.7120 C   0  0  0  0  0  0  0  0  0  0  0  0
    6.5190    0.0440    1.8600 C   0  0  0  0  0  0  0  0  0  0  0  0
    5.2150   -0.0070    1.1090 N   0  0  0  0  0  0  0  0  0  0  0  0
    7.6590    0.2850   -1.7010 C   0  0  0  0  0  0  0  0  0  0  0  0
    6.2870    0.5940   -2.2290 C   0  0  0  0  0  0  0  0  0  0  0  0
    6.0430    0.8980   -3.3950 O   0  0  0  0  0  0  0  0  0  0  0  0
    3.0200    0.4300   -2.2220 C   0  0  0  0  0  0  0  0  0  0  0  0
    1.6880    0.4940   -2.1190 C   0  0  0  0  0  0  0  0  0  0  0  0
   -5.7070    0.5130    1.4020 C   0  0  0  0  0  0  0  0  0  0  0  0
   -7.0660    0.6790    1.5450 C   0  0  0  0  0  0  0  0  0  0  0  0
  1  2  1  0
  2  3  2  0
  2 33  1  0
  3  4  1  0
  4  5  2  0
  5  6  1  0
  5 32  1  0
  6  7  1  6
  6  8  1  0
  8  9  1  6
  8 12  1  0
  9 10  1  0
 10 11  1  0
 11 12  1  0
 12 13  1  6
 13 14  2  0
 13 15  1  0
 15 16  1  0
 16 17  2  0
 16 31  1  0
 17 18  1  0
 18 19  2  0
 19 20  1  0
 19 30  1  0
 20 21  2  0
 20 28  1  0
 21 22  1  0
 21 26  1  0
 22 23  1  0
 23 24  1  1
 23 27  1  0
 24 25  1  0
 25 26  1  0
 27 28  1  0
 28 29  2  0
 30 31  2  0
 32 33  2  0
M  CHG  2   8   1  23   1
M  END
