
     RDKit          3D

 33 36  0  0  0  0  0  0  0  0999 V2000
   -2.6670    5.2260   -1.3600 C   0  0  0  0  0  0  0  0  0  0  0  0
   -2.8530    3.9280   -0.6200 C   0  0  1  0  0  0  0  0  0  0  0  0
   -1.6140    3.0220   -0.7630 C   0  0  0  0  0  0  0  0  0  0  0  0
   -2.1070    1.7170   -0.3340 N   0  0  0  0  0  0  0  0  0  0  0  0
   -1.1310    0.6510   -0.5310 C   0  0  2  0  0  0  0  0  0  0  0  0
   -0.8020    0.5730   -1.9930 C   0  0  0  0  0  0  0  0  0  0  0  0
    0.1800   -0.4550   -2.3080 N   0  0  0  0  0  0  0  0  0  0  0  0
    1.4910   -0.3100   -1.7630 C   0  0  0  0  0  0  0  0  0  0  0  0
    1.9520    0.6680   -0.9810 N   0  0  0  0  0  0  0  0  0  0  0  0
    3.2130    0.4600   -0.6790 N   0  0  0  0  0  0  0  0  0  0  0  0
    3.5840   -0.6810   -1.2780 C   0  0  0  0  0  0  0  0  0  0  0  0
    4.9280   -1.3260   -1.2260 C   0  0  1  0  0  0  0  0  0  0  0  0
    5.9940   -0.4390   -1.7870 C   0  0  0  0  0  0  0  0  0  0  0  0
    6.6560    0.2590   -0.6430 C   0  0  0  0  0  0  0  0  0  0  0  0
    6.1980   -0.4030    0.6150 C   0  0  0  0  0  0  0  0  0  0  0  0
    5.3750   -1.5920    0.1750 C   0  0  0  0  0  0  0  0  0  0  0  0
    2.5240   -1.1460   -1.9390 N   0  0  0  0  0  0  0  0  0  0  0  0
   -1.8690   -0.6230   -0.1080 C   0  0  1  0  0  0  0  0  0  0  0  0
   -3.0760   -0.8170   -0.9720 C   0  0  0  0  0  0  0  0  0  0  0  0
   -1.0120   -1.7830    0.1610 C   0  0  0  0  0  0  0  0  0  0  0  0
   -1.7640   -2.9710    0.5710 C   0  0  0  0  0  0  0  0  0  0  0  0
   -1.5740   -3.3930    1.8220 C   0  0  0  0  0  0  0  0  0  0  0  0
   -2.1750   -4.5420    2.5360 C   0  0  0  0  0  0  0  0  0  0  0  0
   -3.5410   -4.3760    2.7230 O   0  0  0  0  0  0  0  0  0  0  0  0
   -4.3810   -4.9750    1.3840 S   0  0  0  0  0  0  0  0  0  0  0  0
   -3.6210   -4.5040   -0.1430 C   0  0  0  0  0  0  0  0  0  0  0  0
   -2.5970   -3.7130   -0.3680 C   0  0  0  0  0  0  0  0  0  0  0  0
   -2.1620   -3.5720   -1.7530 C   0  0  0  0  0  0  0  0  0  0  0  0
   -1.8170   -3.4500   -2.8490 N   0  0  0  0  0  0  0  0  0  0  0  0
   -2.5150    1.7960    1.0640 C   0  0  0  0  0  0  0  0  0  0  0  0
   -2.6740    3.1870    1.5860 C   0  0  1  0  0  0  0  0  0  0  0  0
   -1.4400    3.6560    2.3470 C   0  0  0  0  0  0  0  0  0  0  0  0
   -3.0520    4.1480    0.7060 O   0  0  0  0  0  0  0  0  0  0  0  0
  2  1  1  6
  2  3  1  0
  2 33  1  0
  3  4  1  0
  4  5  1  0
  4 30  1  0
  5  6  1  6
  5 18  1  0
  6  7  1  0
  7  8  1  0
  8  9  2  0
  8 17  1  0
  9 10  1  0
 10 11  1  0
 12 11  1  1
 11 17  2  0
 12 13  1  0
 12 16  1  0
 13 14  1  0
 14 15  1  0
 15 16  1  0
 18 19  1  6
 18 20  1  0
 20 21  1  0
 21 22  2  0
 21 27  1  0
 22 23  1  0
 23 24  1  0
 24 25  1  0
 25 26  1  0
 26 27  2  0
 27 28  1  0
 28 29  3  0
 30 31  1  0
 31 32  1  6
 31 33  1  0
M  END
