
     RDKit          3D

 33 35  0  0  0  0  0  0  0  0999 V2000
   -5.8720   -1.6980   -4.1010 C   0  0  0  0  0  0  0  0  0  0  0  0
   -5.1030   -1.1760   -3.0090 N   0  0  0  0  0  0  0  0  0  0  0  0
   -3.8830   -0.9570   -3.0730 C   0  0  0  0  0  0  0  0  0  0  0  0
   -2.9700   -0.4520   -2.1180 C   0  0  0  0  0  0  0  0  0  0  0  0
   -2.9580   -0.0640   -0.8920 C   0  0  0  0  0  0  0  0  0  0  0  0
   -4.0870   -0.0420    0.0260 C   0  0  0  0  0  0  0  0  0  0  0  0
   -5.3270   -0.8110   -0.2400 C   0  0  0  0  0  0  0  0  0  0  0  0
   -3.9660    0.4610    1.2330 C   0  0  0  0  0  0  0  0  0  0  0  0
   -4.9720    0.5890    2.2700 C   0  0  0  0  0  0  0  0  0  0  0  0
   -4.6530    1.0850    3.4850 C   0  0  0  0  0  0  0  0  0  0  0  0
   -5.8510    1.1160    4.3470 C   0  0  0  0  0  0  0  0  0  0  0  0
   -6.9340    0.6210    3.4950 C   0  0  0  0  0  0  0  0  0  0  0  0
   -6.3790    0.3250    2.3070 C   0  0  0  0  0  0  0  0  0  0  0  0
   -1.6380    0.4490   -0.3380 C   0  0  2  0  0  0  0  0  0  0  0  0
   -1.6200    1.9250   -0.1840 C   0  0  0  0  0  0  0  0  0  0  0  0
   -0.5440   -0.1180   -1.0830 N   0  0  0  0  0  0  0  0  0  0  0  0
    0.5980   -0.0860   -0.1610 C   0  0  0  0  0  0  0  0  0  0  0  0
    1.8330   -0.7570   -0.6820 C   0  0  2  0  0  0  0  0  0  0  0  0
    1.5570   -2.1250   -0.9360 N   0  0  2  0  0  0  0  0  0  0  0  0
    0.9660   -2.8210    0.1900 C   0  0  0  0  0  0  0  0  0  0  0  0
    2.6480   -2.9320   -1.4150 C   0  0  0  0  0  0  0  0  0  0  0  0
    2.9040   -0.5350    0.3600 C   0  0  0  0  0  0  0  0  0  0  0  0
    3.3970    0.8770    0.4150 C   0  0  1  0  0  0  0  0  0  0  0  0
    4.4910    0.9220    1.3680 N   0  0  0  0  0  0  0  0  0  0  0  0
    5.6120    0.0960    0.9630 C   0  0  0  0  0  0  0  0  0  0  0  0
    6.8560    0.5320    1.7100 C   0  0  0  0  0  0  0  0  0  0  0  0
    6.4990    1.0200    2.9540 O   0  0  0  0  0  0  0  0  0  0  0  0
    5.9220    2.2840    2.7440 C   0  0  0  0  0  0  0  0  0  0  0  0
    4.9810    2.2710    1.5630 C   0  0  0  0  0  0  0  0  0  0  0  0
    3.7360    1.4990   -0.8930 C   0  0  0  0  0  0  0  0  0  0  0  0
    2.4610    1.4260   -1.7460 C   0  0  0  0  0  0  0  0  0  0  0  0
    2.2510   -0.0790   -1.9630 C   0  0  1  0  0  0  0  0  0  0  0  0
    3.5170   -0.5250   -2.3900 O   0  0  0  0  0  0  0  0  0  0  0  0
  1  2  1  0
  2  3  2  3
  3  4  1  0
  4  5  2  3
  5  6  1  0
  5 14  1  0
  6  7  1  0
  6  8  2  3
  8  9  1  0
  9 10  2  0
  9 13  1  0
 10 11  1  0
 11 12  1  0
 12 13  2  0
 14 15  1  6
 14 16  1  0
 16 17  1  0
 18 17  1  1
 18 19  1  0
 18 22  1  0
 18 32  1  0
 19 20  1  1
 19 21  1  0
 22 23  1  0
 23 24  1  1
 23 30  1  0
 24 25  1  0
 24 29  1  0
 25 26  1  0
 26 27  1  0
 27 28  1  0
 28 29  1  0
 30 31  1  0
 31 32  1  0
 32 33  1  1
M  CHG  2  16   1  19   1
M  END
