
     RDKit          3D

 32 36  0  0  0  0  0  0  0  0999 V2000
    6.4180    0.4270   -1.7660 C   0  0  0  0  0  0  0  0  0  0  0  0
    5.0250   -0.0730   -1.5140 C   0  0  0  0  0  0  0  0  0  0  0  0
    4.4150   -0.9460   -2.3920 C   0  0  0  0  0  0  0  0  0  0  0  0
    5.1170   -1.3420   -3.4820 F   0  0  0  0  0  0  0  0  0  0  0  0
    3.1150   -1.4060   -2.1650 C   0  0  0  0  0  0  0  0  0  0  0  0
    2.3900   -1.0020   -1.0490 C   0  0  0  0  0  0  0  0  0  0  0  0
    0.9990   -1.4880   -0.9080 C   0  0  0  0  0  0  0  0  0  0  0  0
    0.8140   -2.7050   -1.1920 O   0  0  0  0  0  0  0  0  0  0  0  0
   -0.0620   -0.6820   -0.4940 N   0  0  0  0  0  0  0  0  0  0  0  0
   -1.3980   -1.1010   -0.2990 C   0  0  0  0  0  0  0  0  0  0  0  0
   -1.8300   -2.3980   -0.3540 C   0  0  0  0  0  0  0  0  0  0  0  0
   -3.1620   -2.7590   -0.1240 C   0  0  0  0  0  0  0  0  0  0  0  0
   -4.1080   -1.8230    0.1710 C   0  0  0  0  0  0  0  0  0  0  0  0
   -5.4710   -2.1850    0.4320 N   0  0  0  0  0  0  0  0  0  0  0  0
   -5.9530   -2.4530    1.6530 C   0  0  0  0  0  0  0  0  0  0  0  0
   -7.2730   -2.7680    1.5480 N   0  0  0  0  0  0  0  0  0  0  0  0
   -7.5770   -2.6850    0.2410 C   0  0  0  0  0  0  0  0  0  0  0  0
   -6.4300   -2.3210   -0.4220 N   0  0  0  0  0  0  0  0  0  0  0  0
   -3.7020   -0.5100    0.2320 C   0  0  0  0  0  0  0  0  0  0  0  0
   -2.3600   -0.1520   -0.0000 C   0  0  0  0  0  0  0  0  0  0  0  0
   -2.0170    1.2050    0.1160 N   0  0  0  0  0  0  0  0  0  0  0  0
   -1.4550    1.9280    1.2050 C   0  0  0  0  0  0  0  0  0  0  0  0
   -1.9580    3.3560    1.0460 C   0  0  0  0  0  0  0  0  0  0  0  0
   -2.5260    3.4530   -0.3370 C   0  0  0  0  0  0  0  0  0  0  0  0
   -2.2350    2.1330   -1.0190 C   0  0  0  0  0  0  0  0  0  0  0  0
    2.9990   -0.1400   -0.1840 C   0  0  0  0  0  0  0  0  0  0  0  0
    4.3080    0.3140   -0.4260 C   0  0  0  0  0  0  0  0  0  0  0  0
    4.8510    1.2210    0.6120 C   0  0  0  0  0  0  0  0  0  0  0  0
    4.6660    0.4790    1.8740 N   0  0  0  0  0  0  0  0  0  0  0  0
    5.0670   -0.7980    1.5820 F   0  0  0  0  0  0  0  0  0  0  0  0
    3.2760    0.5200    2.2170 C   0  0  0  0  0  0  0  0  0  0  0  0
    2.3250    0.3050    1.0480 C   0  0  0  0  0  0  0  0  0  0  0  0
  1  2  1  0
  2  3  2  0
  2 27  1  0
  3  4  1  0
  3  5  1  0
  5  6  2  0
  6  7  1  0
  6 26  1  0
  7  8  2  0
  7  9  1  0
  9 10  1  0
 10 11  2  0
 10 20  1  0
 11 12  1  0
 12 13  2  0
 13 14  1  0
 13 19  1  0
 14 15  1  0
 14 18  1  0
 15 16  2  0
 16 17  1  0
 17 18  2  0
 19 20  2  0
 20 21  1  0
 21 22  1  0
 21 25  1  0
 22 23  1  0
 23 24  1  0
 24 25  1  0
 26 27  2  0
 26 32  1  0
 27 28  1  0
 28 29  1  0
 29 30  1  0
 29 31  1  0
 31 32  1  0
M  END
