
     RDKit          3D

 32 36  0  0  0  0  0  0  0  0999 V2000
   -5.5670   -1.3610   -1.7240 C   0  0  0  0  0  0  0  0  0  0  0  0
   -4.4630   -0.5880   -1.1010 C   0  0  0  0  0  0  0  0  0  0  0  0
   -4.7630    0.3460   -0.1040 C   0  0  0  0  0  0  0  0  0  0  0  0
   -6.1650    0.5300    0.2940 C   0  0  0  0  0  0  0  0  0  0  0  0
   -7.2250   -0.1260   -0.2200 N   0  0  0  0  0  0  0  0  0  0  0  0
   -8.3470    0.2930    0.3770 C   0  0  0  0  0  0  0  0  0  0  0  0
   -8.0040    1.2480    1.3050 C   0  0  0  0  0  0  0  0  0  0  0  0
   -8.8280    1.9390    2.1360 F   0  0  0  0  0  0  0  0  0  0  0  0
   -6.6500    1.3610    1.2190 N   0  0  0  0  0  0  0  0  0  0  0  0
   -3.7170    1.0310    0.4360 C   0  0  0  0  0  0  0  0  0  0  0  0
   -3.9150    1.8800    1.3310 O   0  0  0  0  0  0  0  0  0  0  0  0
   -2.3960    0.8450    0.0480 C   0  0  0  0  0  0  0  0  0  0  0  0
   -1.4230    1.5260    0.5950 C   0  0  0  0  0  0  0  0  0  0  0  0
   -0.0470    1.4410    0.3010 N   0  0  0  0  0  0  0  0  0  0  0  0
    0.6620    2.4520   -0.4570 C   0  0  0  0  0  0  0  0  0  0  0  0
    1.2670    1.8230   -1.6500 C   0  0  0  0  0  0  0  0  0  0  0  0
    2.0600    0.5890   -1.3970 C   0  0  0  0  0  0  0  0  0  0  0  0
    1.8530   -0.1080   -0.1240 C   0  0  1  0  0  0  0  0  0  0  0  0
    3.1270   -0.1620    0.6780 C   0  0  0  0  0  0  0  0  0  0  0  0
    4.2010   -0.8150    0.0760 N   0  0  0  0  0  0  0  0  0  0  0  0
    4.2050   -2.1800   -0.1520 C   0  0  0  0  0  0  0  0  0  0  0  0
    5.4050   -2.5380   -0.7730 F   0  0  0  0  0  0  0  0  0  0  0  0
    5.4560   -0.1750    0.1200 C   0  0  0  0  0  0  0  0  0  0  0  0
    6.0560   -0.0830    1.4830 C   0  0  1  0  0  0  0  0  0  0  0  0
    6.3330   -1.3410    2.2160 C   0  0  0  0  0  0  0  0  0  0  0  0
    7.4680   -0.4280    1.7560 C   0  0  0  0  0  0  0  0  0  0  0  0
    0.7550    0.3390    0.7680 C   0  0  0  0  0  0  0  0  0  0  0  0
   -2.1480   -0.0790   -0.9300 C   0  0  0  0  0  0  0  0  0  0  0  0
   -1.0440   -0.5230   -1.5480 N   0  0  0  0  0  0  0  0  0  0  0  0
   -1.3110   -1.4540   -2.4560 C   0  0  0  0  0  0  0  0  0  0  0  0
   -2.6900   -1.6190   -2.4170 C   0  0  0  0  0  0  0  0  0  0  0  0
   -3.1820   -0.7800   -1.4890 N   0  0  0  0  0  0  0  0  0  0  0  0
  1  2  1  0
  2  3  2  0
  2 32  1  0
  3  4  1  0
  3 10  1  0
  4  5  2  0
  4  9  1  0
  5  6  1  0
  6  7  2  0
  7  8  1  0
  7  9  1  0
 10 11  2  0
 10 12  1  0
 12 13  2  3
 12 28  1  0
 13 14  1  0
 14 15  1  0
 14 27  1  0
 15 16  1  0
 16 17  1  0
 17 18  1  0
 18 19  1  1
 18 27  1  0
 19 20  1  0
 20 21  1  0
 20 23  1  0
 21 22  1  0
 24 23  1  6
 24 25  1  0
 24 26  1  0
 25 26  1  0
 28 29  2  0
 28 32  1  0
 29 30  1  0
 30 31  2  0
 31 32  1  0
M  END
