
     RDKit          3D

 32 36  0  0  0  0  0  0  0  0999 V2000
    7.9170   -0.9990    2.1820 C   0  0  0  0  0  0  0  0  0  0  0  0
    6.8020   -0.1330    1.6560 C   0  0  0  0  0  0  0  0  0  0  0  0
    5.9450   -0.5870    0.6800 C   0  0  0  0  0  0  0  0  0  0  0  0
    4.9320    0.2690    0.2370 C   0  0  0  0  0  0  0  0  0  0  0  0
    4.7910    1.5360    0.7610 C   0  0  0  0  0  0  0  0  0  0  0  0
    5.6570    1.9210    1.7080 N   0  0  0  0  0  0  0  0  0  0  0  0
    6.6290    1.1070    2.1370 N   0  0  0  0  0  0  0  0  0  0  0  0
    3.6880    2.3830    0.2380 C   0  0  0  0  0  0  0  0  0  0  0  0
    2.4680    1.4520    0.1910 C   0  0  0  0  0  0  0  0  0  0  0  0
    2.7130    0.4570   -0.7920 N   0  0  0  0  0  0  0  0  0  0  0  0
    1.6260   -0.4550   -1.0000 C   0  0  1  0  0  0  0  0  0  0  0  0
    1.2750   -1.2640    0.2020 C   0  0  0  0  0  0  0  0  0  0  0  0
    0.3450   -2.3800   -0.1630 C   0  0  0  0  0  0  0  0  0  0  0  0
   -0.8470   -1.9550   -0.9410 C   0  0  0  0  0  0  0  0  0  0  0  0
   -0.7620   -0.5810   -1.4900 C   0  0  0  0  0  0  0  0  0  0  0  0
    0.3960    0.1620   -1.5350 C   0  0  0  0  0  0  0  0  0  0  0  0
    0.0620    1.3640   -2.1110 C   0  0  0  0  0  0  0  0  0  0  0  0
   -1.2450    1.3090   -2.3860 N   0  0  0  0  0  0  0  0  0  0  0  0
   -1.7490    0.1440   -2.0170 N   0  0  0  0  0  0  0  0  0  0  0  0
   -3.1600   -0.2300   -2.1820 C   0  0  0  0  0  0  0  0  0  0  0  0
   -3.9620    0.1680   -0.9740 C   0  0  0  0  0  0  0  0  0  0  0  0
   -3.3980    0.7410   -0.0410 O   0  0  0  0  0  0  0  0  0  0  0  0
   -5.3250   -0.1440   -0.9890 N   0  0  0  0  0  0  0  0  0  0  0  0
   -6.2240    0.1610    0.0660 C   0  0  0  0  0  0  0  0  0  0  0  0
   -5.8670    0.8100    1.2130 C   0  0  0  0  0  0  0  0  0  0  0  0
   -6.8080    1.0760    2.2030 C   0  0  0  0  0  0  0  0  0  0  0  0
   -6.3930    1.7280    3.3300 F   0  0  0  0  0  0  0  0  0  0  0  0
   -8.1150    0.6890    2.0440 C   0  0  0  0  0  0  0  0  0  0  0  0
   -8.4580    0.0350    0.8830 C   0  0  0  0  0  0  0  0  0  0  0  0
   -7.5530   -0.2350   -0.0980 C   0  0  0  0  0  0  0  0  0  0  0  0
   -7.9000   -0.8850   -1.2470 F   0  0  0  0  0  0  0  0  0  0  0  0
    3.9930   -0.1580   -0.8000 C   0  0  0  0  0  0  0  0  0  0  0  0
  1  2  1  0
  2  3  2  0
  2  7  1  0
  3  4  1  0
  4  5  2  0
  4 32  1  0
  5  6  1  0
  5  8  1  0
  6  7  2  0
  8  9  1  0
  9 10  1  0
 11 10  1  1
 10 32  1  0
 11 12  1  0
 11 16  1  0
 12 13  1  0
 13 14  1  0
 14 15  1  0
 15 16  2  0
 15 19  1  0
 16 17  1  0
 17 18  2  0
 18 19  1  0
 19 20  1  0
 20 21  1  0
 21 22  2  0
 21 23  1  0
 23 24  1  0
 24 25  2  0
 24 30  1  0
 25 26  1  0
 26 27  1  0
 26 28  2  0
 28 29  1  0
 29 30  2  0
 30 31  1  0
M  END
