
     RDKit          3D

 32 36  0  0  0  0  0  0  0  0999 V2000
    4.1300   -2.9040    0.8950 C   0  0  0  0  0  0  0  0  0  0  0  0
    3.1970   -1.8210    0.4840 C   0  0  0  0  0  0  0  0  0  0  0  0
    1.8370   -2.1190    0.5770 C   0  0  0  0  0  0  0  0  0  0  0  0
    0.8850   -1.1540    0.3400 C   0  0  0  0  0  0  0  0  0  0  0  0
   -0.2900   -1.4650    0.4190 O   0  0  0  0  0  0  0  0  0  0  0  0
    1.2040    0.1450    0.0050 C   0  0  0  0  0  0  0  0  0  0  0  0
    0.3930    1.3180    0.1350 C   0  0  0  0  0  0  0  0  0  0  0  0
   -0.7640    1.6650   -0.4940 N   0  0  0  0  0  0  0  0  0  0  0  0
   -2.1030    1.1270   -0.4190 C   0  0  0  0  0  0  0  0  0  0  0  0
   -2.4530   -0.0790    0.0070 N   0  0  0  0  0  0  0  0  0  0  0  0
   -3.6390   -0.6150    0.0330 C   0  0  0  0  0  0  0  0  0  0  0  0
   -3.8030   -2.0800    0.5180 C   0  0  2  0  0  0  0  0  0  0  0  0
   -5.1860   -2.5410    0.4770 C   0  0  0  0  0  0  0  0  0  0  0  0
   -5.3180   -2.3470    1.9330 N   0  0  0  0  0  0  0  0  0  0  0  0
   -3.8990   -2.1610    2.0260 C   0  0  0  0  0  0  0  0  0  0  0  0
   -4.6900    0.0570   -0.3970 N   0  0  0  0  0  0  0  0  0  0  0  0
   -4.4480    1.3310   -0.8570 C   0  0  0  0  0  0  0  0  0  0  0  0
   -5.5390    2.1140   -1.1950 C   0  0  0  0  0  0  0  0  0  0  0  0
   -5.3370    3.4310   -1.5460 C   0  0  0  0  0  0  0  0  0  0  0  0
   -4.0870    3.9970   -1.5780 C   0  0  0  0  0  0  0  0  0  0  0  0
   -3.8670    5.2880   -1.8930 F   0  0  0  0  0  0  0  0  0  0  0  0
   -3.0170    3.1790   -1.2360 C   0  0  0  0  0  0  0  0  0  0  0  0
   -3.1880    1.8840   -0.8850 C   0  0  0  0  0  0  0  0  0  0  0  0
    2.5920    0.3530   -0.0740 N   0  0  0  0  0  0  0  0  0  0  0  0
    3.5020   -0.5790    0.1560 N   0  0  0  0  0  0  0  0  0  0  0  0
    4.8740   -0.1420    0.1010 C   0  0  0  0  0  0  0  0  0  0  0  0
    5.9370   -0.9400   -0.1440 C   0  0  0  0  0  0  0  0  0  0  0  0
    7.2320   -0.4600   -0.1160 C   0  0  0  0  0  0  0  0  0  0  0  0
    7.4320    0.8980    0.1780 C   0  0  0  0  0  0  0  0  0  0  0  0
    8.6820    1.3850    0.1680 F   0  0  0  0  0  0  0  0  0  0  0  0
    6.3640    1.7330    0.4320 C   0  0  0  0  0  0  0  0  0  0  0  0
    5.1150    1.2200    0.3960 C   0  0  0  0  0  0  0  0  0  0  0  0
  1  2  1  0
  2  3  2  0
  2 25  1  0
  3  4  1  0
  4  5  2  0
  4  6  1  0
  6  7  1  0
  6 24  2  0
  7  8  1  0
  8  9  1  0
  9 10  2  0
  9 23  1  0
 10 11  1  0
 12 11  1  1
 11 16  2  0
 12 13  1  0
 12 15  1  0
 13 14  1  0
 14 15  1  0
 16 17  1  0
 17 18  2  0
 17 23  1  0
 18 19  1  0
 19 20  2  0
 20 21  1  0
 20 22  1  0
 22 23  2  0
 24 25  1  0
 25 26  1  0
 26 27  2  0
 26 32  1  0
 27 28  1  0
 28 29  2  0
 29 30  1  0
 29 31  1  0
 31 32  2  0
M  END
