
     RDKit          3D

 32 36  0  0  0  0  0  0  0  0999 V2000
   -4.9920   -0.1250    0.0400 C   0  0  0  0  0  0  0  0  0  0  0  0
   -3.8090    0.7730   -0.0220 C   0  0  0  0  0  0  0  0  0  0  0  0
   -2.5480    0.3060    0.0170 N   0  0  0  0  0  0  0  0  0  0  0  0
   -1.4500    1.0670   -0.0350 C   0  0  0  0  0  0  0  0  0  0  0  0
   -1.6030    2.4470   -0.1370 C   0  0  0  0  0  0  0  0  0  0  0  0
   -0.5050    3.2520   -0.1870 C   0  0  0  0  0  0  0  0  0  0  0  0
    0.6960    2.6900   -0.1340 N   0  0  0  0  0  0  0  0  0  0  0  0
    0.9160    1.3700   -0.0350 C   0  0  0  0  0  0  0  0  0  0  0  0
    2.1740    0.8940    0.0200 N   0  0  0  0  0  0  0  0  0  0  0  0
    2.3770   -0.4260    0.1270 C   0  0  0  0  0  0  0  0  0  0  0  0
    3.7530   -0.9480    0.1970 C   0  0  0  0  0  0  0  0  0  0  0  0
    4.5930   -0.0450    0.9130 N   0  0  0  0  0  0  0  0  0  0  0  0
    4.7740    1.2470    0.3700 C   0  0  0  0  0  0  0  0  0  0  0  0
    6.1540    1.6670    0.8690 C   0  0  0  0  0  0  0  0  0  0  0  0
    6.9140    0.3780    0.9080 C   0  0  0  0  0  0  0  0  0  0  0  0
    5.8590   -0.6370    1.2270 C   0  0  0  0  0  0  0  0  0  0  0  0
    1.3110   -1.3260    0.1830 C   0  0  0  0  0  0  0  0  0  0  0  0
    0.0220   -0.8440    0.1260 C   0  0  0  0  0  0  0  0  0  0  0  0
   -1.1630   -1.7470    0.1970 C   0  0  0  0  0  0  0  0  0  0  0  0
   -0.7080   -3.1670    0.2620 N   0  0  0  0  0  0  0  0  0  0  0  0
   -1.9450   -3.9670    0.5360 C   0  0  0  0  0  0  0  0  0  0  0  0
   -0.2900   -3.5420   -1.1040 C   0  0  0  0  0  0  0  0  0  0  0  0
    0.2750   -4.9140   -1.1600 C   0  0  2  0  0  0  0  0  0  0  0  0
   -0.6270   -5.8870   -0.7480 F   0  0  0  0  0  0  0  0  0  0  0  0
    1.4820   -5.0320   -0.4870 F   0  0  0  0  0  0  0  0  0  0  0  0
   -0.1920    0.5140    0.0170 C   0  0  0  0  0  0  0  0  0  0  0  0
   -2.9040    2.9530   -0.1800 C   0  0  0  0  0  0  0  0  0  0  0  0
   -4.0110    2.1370   -0.1240 C   0  0  0  0  0  0  0  0  0  0  0  0
   -5.3590    2.7500   -0.1700 C   0  0  0  0  0  0  0  0  0  0  0  0
   -5.2430    4.1780   -0.6550 C   0  0  0  0  0  0  0  0  0  0  0  0
   -4.2110    4.8970    0.1040 N   0  0  0  0  0  0  0  0  0  0  0  0
   -3.0140    4.3420   -0.2830 O   0  0  0  0  0  0  0  0  0  0  0  0
  1  2  1  0
  2  3  2  0
  2 28  1  0
  3  4  1  0
  4  5  2  0
  4 26  1  0
  5  6  1  0
  5 27  1  0
  6  7  2  0
  7  8  1  0
  8  9  2  0
  8 26  1  0
  9 10  1  0
 10 11  1  0
 10 17  2  0
 11 12  1  0
 12 13  1  0
 12 16  1  0
 13 14  1  0
 14 15  1  0
 15 16  1  0
 17 18  1  0
 18 19  1  0
 18 26  2  0
 19 20  1  0
 20 21  1  0
 20 22  1  0
 22 23  1  0
 23 24  1  1
 23 25  1  0
 27 28  2  0
 27 32  1  0
 28 29  1  0
 29 30  1  0
 30 31  1  0
 31 32  1  0
M  END
