
     RDKit          3D

 32 35  0  0  0  0  0  0  0  0999 V2000
   -7.2410    0.7960   -2.6370 C   0  0  0  0  0  0  0  0  0  0  0  0
   -7.8980    0.6150   -1.3090 C   0  0  0  0  0  0  0  0  0  0  0  0
   -6.9740    0.1410   -0.2390 C   0  0  0  0  0  0  0  0  0  0  0  0
   -5.7080   -0.0720   -0.5290 C   0  0  0  0  0  0  0  0  0  0  0  0
   -4.7500   -0.5450    0.5020 C   0  0  1  0  0  0  0  0  0  0  0  0
   -3.3760   -0.2040    0.2140 N   0  0  0  0  0  0  0  0  0  0  0  0
   -2.3570   -1.2180    0.1080 C   0  0  0  0  0  0  0  0  0  0  0  0
   -2.7180   -2.4020    0.2760 O   0  0  0  0  0  0  0  0  0  0  0  0
   -1.0120   -0.9340   -0.1700 N   0  0  0  0  0  0  0  0  0  0  0  0
   -0.5720    0.4180   -0.3650 C   0  0  0  0  0  0  0  0  0  0  0  0
    0.9080    0.4830   -0.7210 C   0  0  0  0  0  0  0  0  0  0  0  0
    1.7130   -0.3330    0.0830 N   0  0  0  0  0  0  0  0  0  0  0  0
    3.0680   -0.0550    0.2760 C   0  0  0  0  0  0  0  0  0  0  0  0
    3.9840   -0.2900   -0.8410 C   0  0  0  0  0  0  0  0  0  0  0  0
    3.6760   -0.8010   -2.0040 C   0  0  0  0  0  0  0  0  0  0  0  0
    4.6440   -0.9970   -3.0580 N   0  0  0  0  0  0  0  0  0  0  0  0
    5.8700   -0.6770   -2.9090 C   0  0  0  0  0  0  0  0  0  0  0  0
    6.3580   -0.1090   -1.6990 N   0  0  0  0  0  0  0  0  0  0  0  0
    7.7210    0.2440   -1.5430 C   0  0  0  0  0  0  0  0  0  0  0  0
    8.1420    0.7750   -0.3910 C   0  0  0  0  0  0  0  0  0  0  0  0
    7.1840    0.9770    0.6760 C   0  0  0  0  0  0  0  0  0  0  0  0
    7.5020    1.4970    1.8500 C   0  0  0  0  0  0  0  0  0  0  0  0
    8.8880    1.9170    2.1650 C   0  0  2  0  0  0  0  0  0  0  0  0
    9.3010    2.8210    1.1990 F   0  0  0  0  0  0  0  0  0  0  0  0
    9.7430    0.8340    2.2460 F   0  0  0  0  0  0  0  0  0  0  0  0
    5.8350    0.5960    0.4350 N   0  0  0  0  0  0  0  0  0  0  0  0
    5.4070    0.0830   -0.6630 C   0  0  0  0  0  0  0  0  0  0  0  0
    1.2000   -1.5920    0.4610 C   0  0  0  0  0  0  0  0  0  0  0  0
   -0.0490   -2.0040   -0.2680 C   0  0  0  0  0  0  0  0  0  0  0  0
   -5.1980    0.0200    1.8310 C   0  0  0  0  0  0  0  0  0  0  0  0
   -6.5840   -0.4950    2.1370 C   0  0  0  0  0  0  0  0  0  0  0  0
   -7.5910   -0.0550    1.1040 C   0  0  0  0  0  0  0  0  0  0  0  0
  1  2  1  0
  2  3  1  0
  3  4  2  0
  3 32  1  0
  4  5  1  0
  5  6  1  6
  5 30  1  0
  6  7  1  0
  7  8  2  0
  7  9  1  0
  9 10  1  0
  9 29  1  0
 10 11  1  0
 11 12  1  0
 12 13  1  0
 12 28  1  0
 13 14  1  0
 14 15  2  0
 14 27  1  0
 15 16  1  0
 16 17  2  0
 17 18  1  0
 18 19  1  0
 18 27  1  0
 19 20  2  0
 20 21  1  0
 21 22  2  3
 21 26  1  0
 22 23  1  0
 23 24  1  6
 23 25  1  0
 26 27  2  0
 28 29  1  0
 30 31  1  0
 31 32  1  0
M  END
