
     RDKit          3D

 32 36  0  0  0  0  0  0  0  0999 V2000
   -1.8040    1.6980   -3.8630 C   0  0  0  0  0  0  0  0  0  0  0  0
   -2.2980    1.8490   -2.4120 C   0  0  0  0  0  0  0  0  0  0  0  0
   -1.2680    2.0350   -1.4450 C   0  0  0  0  0  0  0  0  0  0  0  0
   -1.1510    3.1250   -0.7050 N   0  0  0  0  0  0  0  0  0  0  0  0
   -0.1510    3.3340    0.2420 N   0  0  0  0  0  0  0  0  0  0  0  0
    0.8250    2.3390    0.4500 C   0  0  0  0  0  0  0  0  0  0  0  0
    1.3820    2.1790    1.6120 C   0  0  0  0  0  0  0  0  0  0  0  0
    0.9980    3.0550    2.7650 C   0  0  2  0  0  0  0  0  0  0  0  0
    1.7320    4.2320    2.6290 F   0  0  0  0  0  0  0  0  0  0  0  0
    1.3370    2.4880    3.9640 F   0  0  0  0  0  0  0  0  0  0  0  0
    1.1290    1.5110   -0.7710 C   0  0  2  0  0  0  0  0  0  0  0  0
   -0.2520    1.0170   -1.1860 C   0  0  0  0  0  0  0  0  0  0  0  0
   -0.5920   -0.2350   -1.2660 C   0  0  0  0  0  0  0  0  0  0  0  0
   -1.9250   -0.6790   -1.5980 C   0  0  0  0  0  0  0  0  0  0  0  0
   -2.6330   -1.4340   -0.4850 C   0  0  0  0  0  0  0  0  0  0  0  0
   -2.8450   -0.7420    0.7480 N   0  0  0  0  0  0  0  0  0  0  0  0
   -3.4440   -1.6150    1.7510 C   0  0  0  0  0  0  0  0  0  0  0  0
   -3.8350   -0.5850    2.8160 C   0  0  0  0  0  0  0  0  0  0  0  0
   -4.3020    0.6120    2.0470 C   0  0  0  0  0  0  0  0  0  0  0  0
   -3.8860    0.2630    0.6240 C   0  0  0  0  0  0  0  0  0  0  0  0
    0.4490   -1.2060   -0.9810 N   0  0  0  0  0  0  0  0  0  0  0  0
    1.6480   -0.8800   -0.6620 C   0  0  0  0  0  0  0  0  0  0  0  0
    2.8080   -1.7270   -0.3510 C   0  0  0  0  0  0  0  0  0  0  0  0
    3.3020   -3.0170   -0.2220 C   0  0  0  0  0  0  0  0  0  0  0  0
    2.4910   -4.2460   -0.4440 C   0  0  0  0  0  0  0  0  0  0  0  0
    4.6200   -2.9570    0.1330 N   0  0  0  0  0  0  0  0  0  0  0  0
    4.9990   -1.6820    0.2390 C   0  0  0  0  0  0  0  0  0  0  0  0
    6.3670   -1.2430    0.6090 C   0  0  0  0  0  0  0  0  0  0  0  0
    3.8930   -0.9190   -0.0570 C   0  0  0  0  0  0  0  0  0  0  0  0
    3.4200    0.4640   -0.1810 C   0  0  0  0  0  0  0  0  0  0  0  0
    4.1880    1.4650    0.0260 O   0  0  0  0  0  0  0  0  0  0  0  0
    2.0520    0.4730   -0.5480 N   0  0  0  0  0  0  0  0  0  0  0  0
  1  2  1  0
  2  3  1  0
  3  4  2  0
  3 12  1  0
  4  5  1  0
  5  6  1  0
  6  7  2  3
  6 11  1  0
  7  8  1  0
  8  9  1  6
  8 10  1  0
 11 12  1  0
 11 32  1  1
 12 13  2  0
 13 14  1  0
 13 21  1  0
 14 15  1  0
 15 16  1  0
 16 17  1  0
 16 20  1  0
 17 18  1  0
 18 19  1  0
 19 20  1  0
 21 22  2  0
 22 23  1  0
 22 32  1  0
 23 24  2  0
 23 29  1  0
 24 25  1  0
 24 26  1  0
 26 27  1  0
 27 28  1  0
 27 29  2  0
 29 30  1  0
 30 31  2  0
 30 32  1  0
M  END
