
     RDKit          3D

 32 35  0  0  0  0  0  0  0  0999 V2000
    7.1610    1.3600   -0.2360 C   0  0  0  0  0  0  0  0  0  0  0  0
    7.1380    0.0590   -0.3920 C   0  0  0  0  0  0  0  0  0  0  0  0
    8.3960   -0.7250   -0.6600 C   0  0  0  0  0  0  0  0  0  0  0  0
    7.8530   -2.0430   -1.1480 C   0  0  0  0  0  0  0  0  0  0  0  0
    6.6400   -2.1970   -0.2190 C   0  0  0  0  0  0  0  0  0  0  0  0
    6.0420   -0.8400   -0.3560 N   0  0  0  0  0  0  0  0  0  0  0  0
    4.6640   -0.5790   -0.4480 C   0  0  0  0  0  0  0  0  0  0  0  0
    3.8780   -1.5950   -0.4310 O   0  0  0  0  0  0  0  0  0  0  0  0
    4.0330    0.7270   -0.5630 C   0  0  0  0  0  0  0  0  0  0  0  0
    2.5810    0.5670   -0.7900 N   0  0  0  0  0  0  0  0  0  0  0  0
    1.9700    0.4650   -1.9860 C   0  0  0  0  0  0  0  0  0  0  0  0
    0.6460    0.3330   -1.8030 N   0  0  0  0  0  0  0  0  0  0  0  0
    0.4140    0.3520   -0.4690 C   0  0  0  0  0  0  0  0  0  0  0  0
   -0.8630    0.2400    0.1460 N   0  0  0  0  0  0  0  0  0  0  0  0
   -2.0300    0.0920   -0.6680 C   0  0  0  0  0  0  0  0  0  0  0  0
   -3.3020   -0.0070    0.1760 C   0  0  2  0  0  0  0  0  0  0  0  0
   -3.2570   -1.1070    1.0450 N   0  0  0  0  0  0  0  0  0  0  0  0
   -3.1800   -2.3970    0.4620 C   0  0  0  0  0  0  0  0  0  0  0  0
   -4.5200   -3.0410    0.3680 C   0  0  0  0  0  0  0  0  0  0  0  0
   -5.1970   -3.1060    1.5150 C   0  0  0  0  0  0  0  0  0  0  0  0
   -4.4430   -2.5010    2.6790 C   0  0  0  0  0  0  0  0  0  0  0  0
   -4.0320   -1.0920    2.2230 C   0  0  0  0  0  0  0  0  0  0  0  0
   -4.5290    0.0530   -0.7110 C   0  0  0  0  0  0  0  0  0  0  0  0
   -4.4280    1.1410   -1.7400 C   0  0  0  0  0  0  0  0  0  0  0  0
   -4.1420    2.4960   -1.1470 C   0  0  1  0  0  0  0  0  0  0  0  0
   -3.4610    3.2940   -2.0490 F   0  0  0  0  0  0  0  0  0  0  0  0
   -5.3190    3.1690   -0.8450 F   0  0  0  0  0  0  0  0  0  0  0  0
   -3.3470    2.4350    0.0970 C   0  0  0  0  0  0  0  0  0  0  0  0
   -2.5760    3.4530    0.4010 C   0  0  0  0  0  0  0  0  0  0  0  0
   -1.7680    3.4180    1.6440 C   0  0  0  0  0  0  0  0  0  0  0  0
   -3.3820    1.2760    1.0160 C   0  0  0  0  0  0  0  0  0  0  0  0
    1.6170    0.4960    0.1060 N   0  0  0  0  0  0  0  0  0  0  0  0
  1  2  2  0
  2  3  1  0
  2  6  1  0
  3  4  1  0
  4  5  1  0
  5  6  1  0
  6  7  1  0
  7  8  2  0
  7  9  1  0
  9 10  1  0
 10 11  1  0
 10 32  1  0
 11 12  2  0
 12 13  1  0
 13 14  1  0
 13 32  2  0
 14 15  1  0
 16 15  1  6
 16 17  1  0
 16 23  1  0
 16 31  1  0
 17 18  1  0
 17 22  1  0
 18 19  1  0
 19 20  2  0
 20 21  1  0
 21 22  1  0
 23 24  1  0
 24 25  1  0
 25 26  1  6
 25 27  1  0
 25 28  1  0
 28 29  2  3
 28 31  1  0
 29 30  1  0
M  END
