
     RDKit          3D

 27 29  0  0  0  0  0  0  0  0999 V2000
   -6.7190    1.6160   -2.3900 C   0  0  0  0  0  0  0  0  0  0  0  0
   -6.1740    0.2210   -2.0000 C   0  0  0  0  0  0  0  0  0  0  0  0
   -6.0580    0.1920   -0.5610 C   0  0  0  0  0  0  0  0  0  0  0  0
   -5.0090    0.0010    0.1720 C   0  0  0  0  0  0  0  0  0  0  0  0
   -5.1510    0.0170    1.6880 C   0  0  0  0  0  0  0  0  0  0  0  0
   -4.2620    1.1320    2.1870 C   0  0  0  0  0  0  0  0  0  0  0  0
   -3.6870   -0.2310   -0.3550 C   0  0  0  0  0  0  0  0  0  0  0  0
   -3.4180   -0.2710   -1.5750 O   0  0  0  0  0  0  0  0  0  0  0  0
   -2.6010   -0.4300    0.5940 N   0  0  0  0  0  0  0  0  0  0  0  0
   -1.6220   -1.1110    0.3360 C   0  0  0  0  0  0  0  0  0  0  0  0
   -1.1320   -1.8500   -0.6760 N   0  0  0  0  0  0  0  0  0  0  0  0
   -0.0360   -2.4500   -0.5990 N   0  0  0  0  0  0  0  0  0  0  0  0
    0.7330   -2.4090    0.4800 C   0  0  0  0  0  0  0  0  0  0  0  0
    2.0390   -3.0810    0.6690 C   0  0  0  0  0  0  0  0  0  0  0  0
    3.1170   -2.2340    0.3160 O   0  0  0  0  0  0  0  0  0  0  0  0
    3.3480   -1.0180    0.9450 C   0  0  0  0  0  0  0  0  0  0  0  0
    2.5350   -0.7110    1.8550 O   0  0  0  0  0  0  0  0  0  0  0  0
    4.4560   -0.1400    0.5880 C   0  0  0  0  0  0  0  0  0  0  0  0
    5.3070   -0.4440   -0.3520 C   0  0  0  0  0  0  0  0  0  0  0  0
    6.4280    0.4160   -0.7330 C   0  0  0  0  0  0  0  0  0  0  0  0
    7.4540    0.3680   -1.6490 C   0  0  0  0  0  0  0  0  0  0  0  0
    8.2190    1.4550   -1.5690 N   0  0  0  0  0  0  0  0  0  0  0  0
    7.7000    2.2280   -0.5950 C   0  0  0  0  0  0  0  0  0  0  0  0
    6.5730    1.6020   -0.0500 C   0  0  0  0  0  0  0  0  0  0  0  0
    5.6820    1.9160    0.9320 O   0  0  0  0  0  0  0  0  0  0  0  0
    4.6090    1.1330    1.3240 C   0  0  0  0  0  0  0  0  0  0  0  0
   -0.2070   -1.3950    1.5250 S   0  0  0  0  0  0  0  0  0  0  0  0
  1  2  1  0
  2  3  1  0
  3  4  2  3
  4  5  1  0
  4  7  1  0
  5  6  1  0
  7  8  2  0
  7  9  1  0
  9 10  2  3
 10 11  1  0
 10 27  1  0
 11 12  1  0
 12 13  2  0
 13 14  1  0
 13 27  1  0
 14 15  1  0
 15 16  1  0
 16 17  2  0
 16 18  1  0
 18 19  2  0
 18 26  1  0
 19 20  1  0
 20 21  2  0
 20 24  1  0
 21 22  1  0
 22 23  1  0
 23 24  2  0
 24 25  1  0
 25 26  1  0
M  END
