
     RDKit          3D

 27 29  0  0  0  0  0  0  0  0999 V2000
   -2.3200   -1.1940    2.0800 C   0  0  0  0  0  0  0  0  0  0  0  0
   -1.4240   -0.5490    1.1460 N   0  0  0  0  0  0  0  0  0  0  0  0
   -0.0640   -1.0160    1.2730 C   0  0  2  0  0  0  0  0  0  0  0  0
    0.8820   -0.0890    0.6130 C   0  0  0  0  0  0  0  0  0  0  0  0
    1.1480    1.0690    1.1160 N   0  0  0  0  0  0  0  0  0  0  0  0
    1.5090   -0.4920   -0.6110 N   0  0  0  0  0  0  0  0  0  0  0  0
    2.2140    0.5140   -1.3570 C   0  0  0  0  0  0  0  0  0  0  0  0
    3.5710    0.6930   -0.8410 C   0  0  0  0  0  0  0  0  0  0  0  0
    4.5600   -0.2360   -1.0270 C   0  0  0  0  0  0  0  0  0  0  0  0
    5.8590   -0.0680   -0.5430 C   0  0  0  0  0  0  0  0  0  0  0  0
    6.1810    1.0680    0.1510 C   0  0  0  0  0  0  0  0  0  0  0  0
    5.2090    2.0130    0.3510 C   0  0  0  0  0  0  0  0  0  0  0  0
    3.9440    1.8390   -0.1260 C   0  0  0  0  0  0  0  0  0  0  0  0
    1.4430   -1.8340   -1.0550 C   0  0  0  0  0  0  0  0  0  0  0  0
    1.9910   -2.1610   -2.1240 O   0  0  0  0  0  0  0  0  0  0  0  0
    0.7570   -2.7990   -0.2950 N   0  0  0  0  0  0  0  0  0  0  0  0
    0.1260   -2.4250    0.9280 C   0  0  0  0  0  0  0  0  0  0  0  0
   -0.2540   -3.3520    1.6860 O   0  0  0  0  0  0  0  0  0  0  0  0
   -2.0110   -0.5740   -0.4590 S   0  0  2  0  0  0  0  0  0  0  0  0
   -2.2840   -1.9310   -0.9850 O   0  0  0  0  0  0  0  0  0  0  0  0
   -1.0600    0.2170   -1.3160 O   0  0  0  0  0  0  0  0  0  0  0  0
   -3.5340    0.3150   -0.4710 C   0  0  0  0  0  0  0  0  0  0  0  0
   -4.7250   -0.3420   -0.2440 C   0  0  0  0  0  0  0  0  0  0  0  0
   -5.9350    0.3270   -0.2470 C   0  0  0  0  0  0  0  0  0  0  0  0
   -5.9990    1.6850   -0.4790 C   0  0  0  0  0  0  0  0  0  0  0  0
   -4.8110    2.3470   -0.7070 C   0  0  0  0  0  0  0  0  0  0  0  0
   -3.5890    1.6730   -0.7030 C   0  0  0  0  0  0  0  0  0  0  0  0
  1  2  1  0
  3  2  1  6
 19  2  1  1
  3  4  1  0
  3 17  1  0
  4  5  2  0
  4  6  1  0
  6  7  1  0
  6 14  1  0
  7  8  1  0
  8  9  2  0
  8 13  1  0
  9 10  1  0
 10 11  2  0
 11 12  1  0
 12 13  2  0
 14 15  2  0
 14 16  1  0
 16 17  1  0
 17 18  2  0
 19 20  2  0
 19 21  2  0
 19 22  1  0
 22 23  2  0
 22 27  1  0
 23 24  1  0
 24 25  2  0
 25 26  1  0
 26 27  2  0
M  END
