
     RDKit          3D

 27 29  0  0  0  0  0  0  0  0999 V2000
    6.5450   -2.8330    3.2040 C   0  0  0  0  0  0  0  0  0  0  0  0
    6.9890   -2.1830    1.8880 C   0  0  0  0  0  0  0  0  0  0  0  0
    6.1630   -1.0300    1.5900 N   0  0  0  0  0  0  0  0  0  0  0  0
    4.7560   -1.1140    1.4350 C   0  0  0  0  0  0  0  0  0  0  0  0
    3.9810   -2.1700    1.5260 O   0  0  0  0  0  0  0  0  0  0  0  0
    2.7340   -1.8790    1.3250 C   0  0  0  0  0  0  0  0  0  0  0  0
    1.5390   -2.7850    1.3380 C   0  0  0  0  0  0  0  0  0  0  0  0
    2.6220   -0.5270    1.0760 C   0  0  0  0  0  0  0  0  0  0  0  0
    1.4110    0.2360    0.7960 C   0  0  0  0  0  0  0  0  0  0  0  0
    0.7970    0.7250    1.7780 O   0  0  0  0  0  0  0  0  0  0  0  0
    0.9070    0.4480   -0.4600 O   0  0  0  0  0  0  0  0  0  0  0  0
   -0.2730    1.1880   -0.7590 C   0  0  1  0  0  0  0  0  0  0  0  0
    0.0710    2.4110   -1.5760 C   0  0  0  0  0  0  0  0  0  0  0  0
   -1.2980    0.3420   -1.3760 C   0  0  0  0  0  0  0  0  0  0  0  0
   -1.0470   -0.8670   -1.6070 O   0  0  0  0  0  0  0  0  0  0  0  0
   -2.5640    0.8510   -1.7150 N   0  0  0  0  0  0  0  0  0  0  0  0
   -2.9680    2.2250   -1.4980 C   0  0  0  0  0  0  0  0  0  0  0  0
   -4.4730    2.2160   -1.2230 C   0  0  0  0  0  0  0  0  0  0  0  0
   -4.8110    1.0070   -0.5590 N   0  0  0  0  0  0  0  0  0  0  0  0
   -5.9730    1.0370    0.2530 C   0  0  0  0  0  0  0  0  0  0  0  0
   -7.1920    0.1840   -0.8260 S   0  0  0  0  0  0  0  0  0  0  0  0
   -5.9760   -0.4870   -2.0310 C   0  0  0  0  0  0  0  0  0  0  0  0
   -4.6960   -0.1950   -1.2890 C   0  0  1  0  0  0  0  0  0  0  0  0
   -3.5970    0.0010   -2.3290 C   0  0  0  0  0  0  0  0  0  0  0  0
    3.9220   -0.0570    1.1500 C   0  0  0  0  0  0  0  0  0  0  0  0
    4.2550    1.3370    0.9440 C   0  0  0  0  0  0  0  0  0  0  0  0
    4.5250    2.4420    0.7630 N   0  0  0  0  0  0  0  0  0  0  0  0
  1  2  1  0
  2  3  1  0
  3  4  1  0
  4  5  1  0
  4 25  2  0
  5  6  1  0
  6  7  1  0
  6  8  2  0
  8  9  1  0
  8 25  1  0
  9 10  2  0
  9 11  1  0
 11 12  1  0
 12 13  1  6
 12 14  1  0
 14 15  2  0
 14 16  1  0
 16 17  1  0
 16 24  1  0
 17 18  1  0
 18 19  1  0
 19 20  1  0
 19 23  1  0
 20 21  1  0
 21 22  1  0
 23 22  1  6
 23 24  1  0
 25 26  1  0
 26 27  3  0
M  END
