
     RDKit          3D

 27 29  0  0  0  0  0  0  0  0999 V2000
    4.9480   -1.4320   -1.2180 C   0  0  0  0  0  0  0  0  0  0  0  0
    4.0030   -1.4700   -0.0300 C   0  0  2  0  0  0  0  0  0  0  0  0
    2.7960   -2.0190   -0.4350 O   0  0  0  0  0  0  0  0  0  0  0  0
    1.5560   -1.4010   -0.2460 C   0  0  0  0  0  0  0  0  0  0  0  0
    1.4900   -0.2330    0.3150 C   0  0  0  0  0  0  0  0  0  0  0  0
    0.1870    0.4540    0.5300 C   0  0  0  0  0  0  0  0  0  0  0  0
   -0.8590   -0.3150    0.0650 O   0  0  0  0  0  0  0  0  0  0  0  0
   -0.8390   -1.5460   -0.5320 C   0  0  0  0  0  0  0  0  0  0  0  0
   -1.9770   -2.2810   -0.9930 C   0  0  0  0  0  0  0  0  0  0  0  0
   -3.2120   -1.9820   -0.9550 C   0  0  0  0  0  0  0  0  0  0  0  0
   -3.7920   -0.7650   -0.4100 C   0  0  0  0  0  0  0  0  0  0  0  0
   -3.1490    0.1750    0.1040 O   0  0  0  0  0  0  0  0  0  0  0  0
   -5.2140   -0.5640   -0.4340 N   0  0  0  0  0  0  0  0  0  0  0  0
   -5.9180    0.5580    0.0450 C   0  0  0  0  0  0  0  0  0  0  0  0
   -7.3080    0.4680    0.2510 C   0  0  0  0  0  0  0  0  0  0  0  0
   -8.0780    1.4980    0.6930 C   0  0  0  0  0  0  0  0  0  0  0  0
   -7.5070    2.6790    0.9560 N   0  0  0  0  0  0  0  0  0  0  0  0
   -6.1860    2.8280    0.7790 C   0  0  0  0  0  0  0  0  0  0  0  0
   -5.3690    1.7810    0.3230 C   0  0  0  0  0  0  0  0  0  0  0  0
    0.3670   -2.1070   -0.6970 C   0  0  0  0  0  0  0  0  0  0  0  0
    0.4850   -3.3730   -1.3030 O   0  0  0  0  0  0  0  0  0  0  0  0
    2.7030    0.4040    0.7480 N   0  0  0  0  0  0  0  0  0  0  0  0
    3.8600   -0.1360    0.6030 C   0  0  0  0  0  0  0  0  0  0  0  0
    5.0120    0.5450    1.0510 N   0  0  0  0  0  0  0  0  0  0  0  0
    5.0620    1.9990    0.9950 C   0  0  0  0  0  0  0  0  0  0  0  0
    5.1160    2.4190   -0.4670 C   0  0  0  0  0  0  0  0  0  0  0  0
    6.6180    1.7090   -1.2420 S   0  0  0  0  0  0  0  0  0  0  0  0
  2  1  1  6
  2  3  1  0
  2 23  1  0
  3  4  1  0
  4  5  2  0
  4 20  1  0
  5  6  1  0
  5 22  1  0
  6  7  1  0
  7  8  1  0
  8  9  1  0
  8 20  2  0
  9 10  2  3
 10 11  1  0
 11 12  2  0
 11 13  1  0
 13 14  1  0
 14 15  2  0
 14 19  1  0
 15 16  1  0
 16 17  2  0
 17 18  1  0
 18 19  2  0
 20 21  1  0
 22 23  2  0
 23 24  1  0
 24 25  1  0
 25 26  1  0
 26 27  1  0
M  END
