
     RDKit          3D

 27 29  0  0  0  0  0  0  0  0999 V2000
   -2.0990    2.8020   -0.6270 C   0  0  0  0  0  0  0  0  0  0  0  0
   -2.5270    1.4230   -0.9950 C   0  0  1  0  0  0  0  0  0  0  0  0
   -2.2070    1.0300   -2.4230 C   0  0  0  0  0  0  0  0  0  0  0  0
   -2.0530    0.3810   -0.1130 N   0  0  0  0  0  0  0  0  0  0  0  0
   -0.7250    0.0570    0.1890 C   0  0  0  0  0  0  0  0  0  0  0  0
   -0.5670   -0.9170    1.0200 O   0  0  0  0  0  0  0  0  0  0  0  0
    0.5120    0.7210   -0.3510 C   0  0  2  0  0  0  0  0  0  0  0  0
    0.9170    0.1330   -1.6410 C   0  0  0  0  0  0  0  0  0  0  0  0
    2.3670   -0.1810   -1.8500 C   0  0  0  0  0  0  0  0  0  0  0  0
    3.1450    0.8520   -1.0030 C   0  0  0  0  0  0  0  0  0  0  0  0
    2.8830    0.4710    0.3300 N   0  0  0  0  0  0  0  0  0  0  0  0
    3.7120   -0.1450    1.2450 C   0  0  0  0  0  0  0  0  0  0  0  0
    3.2290   -0.3520    2.4620 O   0  0  0  0  0  0  0  0  0  0  0  0
    5.0740   -0.6350    1.1290 C   0  0  0  0  0  0  0  0  0  0  0  0
    5.8520   -1.1780    2.1640 C   0  0  0  0  0  0  0  0  0  0  0  0
    7.0920   -1.5120    1.7040 C   0  0  0  0  0  0  0  0  0  0  0  0
    7.0980   -1.1900    0.4130 N   0  0  0  0  0  0  0  0  0  0  0  0
    5.8930   -0.6690    0.0760 N   0  0  0  0  0  0  0  0  0  0  0  0
    1.4930    0.7390    0.7680 C   0  0  0  0  0  0  0  0  0  0  0  0
   -3.1410   -0.3840    0.4990 C   0  0  0  0  0  0  0  0  0  0  0  0
   -3.2330   -1.6620    0.2990 C   0  0  0  0  0  0  0  0  0  0  0  0
   -4.2450   -2.5970    0.8220 C   0  0  0  0  0  0  0  0  0  0  0  0
   -5.4510   -1.8180    1.8390 S   0  0  1  0  0  0  0  0  0  0  0  0
   -6.8410   -2.0700    1.3240 O   0  0  0  0  0  0  0  0  0  0  0  0
   -5.3230   -2.3730    3.2490 O   0  0  0  0  0  0  0  0  0  0  0  0
   -5.0910   -0.1240    1.9350 C   0  0  0  0  0  0  0  0  0  0  0  0
   -4.0560    0.3980    1.3100 C   0  0  0  0  0  0  0  0  0  0  0  0
  2  1  1  1
  2  3  1  0
  2  4  1  0
  4  5  1  0
  4 20  1  0
  5  6  2  0
  7  5  1  1
  7  8  1  0
  7 19  1  0
  8  9  1  0
  9 10  1  0
 10 11  1  0
 11 12  1  0
 11 19  1  0
 12 13  2  0
 12 14  1  0
 14 15  2  0
 14 18  1  0
 15 16  1  0
 16 17  2  0
 17 18  1  0
 20 21  2  0
 20 27  1  0
 21 22  1  0
 23 22  1  6
 23 24  2  0
 23 25  2  0
 23 26  1  0
 26 27  2  0
M  END
