
     RDKit          3D

 27 29  0  0  0  0  0  0  0  0999 V2000
    6.0210   -1.0780   -2.3630 C   0  0  0  0  0  0  0  0  0  0  0  0
    5.7670   -0.8240   -1.0240 O   0  0  0  0  0  0  0  0  0  0  0  0
    4.9070    0.2150   -0.7870 C   0  0  0  0  0  0  0  0  0  0  0  0
    3.5610    0.0600   -1.3630 C   0  0  0  0  0  0  0  0  0  0  0  0
    2.3930    0.0090   -0.8380 C   0  0  0  0  0  0  0  0  0  0  0  0
    1.9100    0.0640    0.5010 C   0  0  0  0  0  0  0  0  0  0  0  0
    2.5710   -0.4480    1.5730 C   0  0  0  0  0  0  0  0  0  0  0  0
    3.7290   -1.4020    1.5020 C   0  0  0  0  0  0  0  0  0  0  0  0
    2.0710   -0.1920    2.8250 N   0  0  0  0  0  0  0  0  0  0  0  0
    0.9590    0.5370    2.9800 C   0  0  0  0  0  0  0  0  0  0  0  0
    0.5710    0.7220    4.1730 O   0  0  0  0  0  0  0  0  0  0  0  0
    0.2860    1.0490    1.9360 N   0  0  0  0  0  0  0  0  0  0  0  0
   -0.9020    1.8140    2.2690 C   0  0  2  0  0  0  0  0  0  0  0  0
   -2.1840    0.6720    2.9330 S   0  0  0  0  0  0  0  0  0  0  0  0
   -3.1310    0.5250    1.4210 C   0  0  0  0  0  0  0  0  0  0  0  0
   -4.1800   -0.2020    1.3390 N   0  0  0  0  0  0  0  0  0  0  0  0
   -4.9770   -0.3740    0.2040 C   0  0  0  0  0  0  0  0  0  0  0  0
   -5.6190    0.6860   -0.4020 C   0  0  0  0  0  0  0  0  0  0  0  0
   -6.3840    0.4260   -1.5160 C   0  0  0  0  0  0  0  0  0  0  0  0
   -6.5450   -0.8300   -2.0590 C   0  0  0  0  0  0  0  0  0  0  0  0
   -5.9030   -1.8860   -1.4520 C   0  0  0  0  0  0  0  0  0  0  0  0
   -5.1210   -1.6430   -0.3190 C   0  0  0  0  0  0  0  0  0  0  0  0
   -2.4560    1.3410    0.4810 N   0  0  0  0  0  0  0  0  0  0  0  0
   -1.6140    2.3060    1.0650 C   0  0  0  0  0  0  0  0  0  0  0  0
   -1.4620    3.4750    0.6310 O   0  0  0  0  0  0  0  0  0  0  0  0
    0.7240    0.8340    0.7280 C   0  0  0  0  0  0  0  0  0  0  0  0
    0.1280    1.2920   -0.2640 O   0  0  0  0  0  0  0  0  0  0  0  0
  1  2  1  0
  2  3  1  0
  3  4  1  0
  4  5  2  3
  5  6  1  0
  6  7  2  0
  6 26  1  0
  7  8  1  0
  7  9  1  0
  9 10  1  0
 10 11  2  0
 10 12  1  0
 13 12  1  6
 12 26  1  0
 13 14  1  0
 13 24  1  0
 14 15  1  0
 15 16  2  3
 15 23  1  0
 16 17  1  0
 17 18  2  0
 17 22  1  0
 18 19  1  0
 19 20  2  0
 20 21  1  0
 21 22  2  0
 23 24  1  0
 24 25  2  0
 26 27  2  0
M  END
