
     RDKit          3D

 27 28  0  0  0  0  0  0  0  0999 V2000
    8.5580   -1.1740   -0.2060 C   0  0  0  0  0  0  0  0  0  0  0  0
    8.0320   -0.2710    0.5430 N   0  0  0  0  0  0  0  0  0  0  0  0
    6.6510    0.1050    0.3380 C   0  0  0  0  0  0  0  0  0  0  0  0
    6.2050    0.2920   -0.8880 C   0  0  0  0  0  0  0  0  0  0  0  0
    5.8340    0.2280    1.5540 C   0  0  0  0  0  0  0  0  0  0  0  0
    4.4990    0.5570    1.2770 O   0  0  0  0  0  0  0  0  0  0  0  0
    3.6610   -0.3050    0.6010 C   0  0  0  0  0  0  0  0  0  0  0  0
    4.1260   -1.4380    0.2360 O   0  0  0  0  0  0  0  0  0  0  0  0
    2.3320    0.0460    0.3170 N   0  0  0  0  0  0  0  0  0  0  0  0
    1.4750   -0.8610   -0.3900 C   0  0  0  0  0  0  0  0  0  0  0  0
    1.0470   -0.1090   -1.6590 C   0  0  0  0  0  0  0  0  0  0  0  0
    0.2320    1.0580   -1.2150 C   0  0  1  0  0  0  0  0  0  0  0  0
   -0.8520    0.7120   -0.3850 O   0  0  0  0  0  0  0  0  0  0  0  0
   -2.1710    1.0570   -0.6760 C   0  0  0  0  0  0  0  0  0  0  0  0
   -2.3770    1.6960   -1.7100 O   0  0  0  0  0  0  0  0  0  0  0  0
   -3.1990    0.6480    0.2470 C   0  0  0  0  0  0  0  0  0  0  0  0
   -4.6080    0.9190   -0.3180 C   0  0  2  0  0  0  0  0  0  0  0  0
   -5.5420    0.5020    0.7850 C   0  0  0  0  0  0  0  0  0  0  0  0
   -6.0380   -0.6950    0.7900 C   0  0  0  0  0  0  0  0  0  0  0  0
   -6.9480   -1.1090    1.9000 C   0  0  0  0  0  0  0  0  0  0  0  0
   -5.9280   -1.6360   -0.3260 C   0  0  0  0  0  0  0  0  0  0  0  0
   -6.4210   -2.8120   -0.2380 N   0  0  0  0  0  0  0  0  0  0  0  0
   -5.2630   -1.2060   -1.4980 N   0  0  0  0  0  0  0  0  0  0  0  0
   -4.7540    0.1210   -1.5410 C   0  0  0  0  0  0  0  0  0  0  0  0
   -4.4070    0.7310   -3.0500 S   0  0  0  0  0  0  0  0  0  0  0  0
    1.1150    2.0000   -0.4290 C   0  0  0  0  0  0  0  0  0  0  0  0
    1.8120    1.3160    0.7290 C   0  0  0  0  0  0  0  0  0  0  0  0
  1  2  2  0
  2  3  1  0
  3  4  2  0
  3  5  1  0
  5  6  1  0
  6  7  1  0
  7  8  2  0
  7  9  1  0
  9 10  1  0
  9 27  1  0
 10 11  1  0
 11 12  1  0
 12 13  1  1
 12 26  1  0
 13 14  1  0
 14 15  2  0
 14 16  1  0
 17 16  1  1
 17 18  1  0
 17 24  1  0
 18 19  2  0
 19 20  1  0
 19 21  1  0
 21 22  2  0
 21 23  1  0
 23 24  1  0
 24 25  2  0
 26 27  1  0
M  END
