
     RDKit          3D

 27 29  0  0  0  0  0  0  0  0999 V2000
   -3.5000    2.2550    0.2230 C   0  0  0  0  0  0  0  0  0  0  0  0
   -3.5930    1.0070    0.5730 C   0  0  0  0  0  0  0  0  0  0  0  0
   -4.5600    0.6250    1.6780 C   0  0  0  0  0  0  0  0  0  0  0  0
   -2.7940   -0.0550    0.0450 C   0  0  0  0  0  0  0  0  0  0  0  0
   -3.0660   -1.2900    0.4670 C   0  0  0  0  0  0  0  0  0  0  0  0
   -2.4700   -2.6140    0.1470 C   0  0  0  0  0  0  0  0  0  0  0  0
   -1.7810   -2.6720   -1.1700 C   0  0  0  0  0  0  0  0  0  0  0  0
   -2.1830   -1.7070   -2.2130 C   0  0  1  0  0  0  0  0  0  0  0  0
   -3.6430   -1.4100   -2.3060 C   0  0  0  0  0  0  0  0  0  0  0  0
   -1.4080   -0.4110   -2.1150 C   0  0  0  0  0  0  0  0  0  0  0  0
   -1.7130    0.2290   -0.8520 N   0  0  0  0  0  0  0  0  0  0  0  0
   -0.8220    1.2810   -0.4520 C   0  0  0  0  0  0  0  0  0  0  0  0
    0.5740    0.7610   -0.1530 C   0  0  0  0  0  0  0  0  0  0  0  0
    0.7690   -0.4570   -0.2710 O   0  0  0  0  0  0  0  0  0  0  0  0
    1.5840    1.6750    0.2430 N   0  0  0  0  0  0  0  0  0  0  0  0
    2.8740    1.2590    0.5270 C   0  0  0  0  0  0  0  0  0  0  0  0
    3.9740    1.8250    0.8970 N   0  0  0  0  0  0  0  0  0  0  0  0
    5.0880    1.2530    1.1130 C   0  0  0  0  0  0  0  0  0  0  0  0
    5.1600   -0.1660    0.9340 C   0  0  0  0  0  0  0  0  0  0  0  0
    3.4510   -0.4700    0.4390 S   0  0  0  0  0  0  0  0  0  0  0  0
    6.3130   -0.9520    1.1300 C   0  0  0  0  0  0  0  0  0  0  0  0
    6.2590   -2.2000    0.9420 O   0  0  0  0  0  0  0  0  0  0  0  0
    7.5710   -0.3680    1.5450 N   0  0  0  0  0  0  0  0  0  0  0  0
    7.5290    1.0400    1.7300 C   0  0  0  0  0  0  0  0  0  0  0  0
    8.6320    1.5640    2.0960 O   0  0  0  0  0  0  0  0  0  0  0  0
    6.3830    1.8830    1.5440 C   0  0  0  0  0  0  0  0  0  0  0  0
    6.4810    3.1080    1.7410 O   0  0  0  0  0  0  0  0  0  0  0  0
  1  2  2  0
  2  3  1  0
  2  4  1  0
  4  5  2  0
  4 11  1  0
  5  6  1  0
  6  7  1  0
  7  8  1  0
  8  9  1  1
  8 10  1  0
 10 11  1  0
 11 12  1  0
 12 13  1  0
 13 14  2  0
 13 15  1  0
 15 16  1  0
 16 17  2  0
 16 20  1  0
 17 18  1  0
 18 19  2  0
 18 26  1  0
 19 20  1  0
 19 21  1  0
 21 22  2  0
 21 23  1  0
 23 24  1  0
 24 25  2  0
 24 26  1  0
 26 27  2  0
M  END
