
     RDKit          3D

 27 29  0  0  0  0  0  0  0  0999 V2000
    7.8020   -0.9000    0.8110 C   0  0  0  0  0  0  0  0  0  0  0  0
    6.7780   -0.2540   -0.1380 C   0  0  0  0  0  0  0  0  0  0  0  0
    7.1850    0.2750   -1.3390 C   0  0  0  0  0  0  0  0  0  0  0  0
    5.5970    0.8860   -2.0240 S   0  0  0  0  0  0  0  0  0  0  0  0
    4.6540    0.3380   -0.6010 C   0  0  0  0  0  0  0  0  0  0  0  0
    3.1800    0.5650   -0.5540 N   0  0  0  0  0  0  0  0  0  0  0  0
    2.4810    0.1270    0.5650 C   0  0  0  0  0  0  0  0  0  0  0  0
    3.1080   -0.4420    1.4920 O   0  0  0  0  0  0  0  0  0  0  0  0
    1.0480    0.2990    0.7080 N   0  0  0  0  0  0  0  0  0  0  0  0
    0.4440   -0.1940    1.9040 C   0  0  0  0  0  0  0  0  0  0  0  0
   -1.0160   -0.0230    2.0600 C   0  0  0  0  0  0  0  0  0  0  0  0
   -1.8620   -0.6310    1.0840 N   0  0  0  0  0  0  0  0  0  0  0  0
   -2.1750   -1.9430    1.2170 C   0  0  0  0  0  0  0  0  0  0  0  0
   -2.9640   -2.6430    0.3380 C   0  0  0  0  0  0  0  0  0  0  0  0
   -3.2610   -4.0650    0.5470 C   0  0  0  0  0  0  0  0  0  0  0  0
   -3.9810   -4.7050   -0.2540 O   0  0  0  0  0  0  0  0  0  0  0  0
   -3.4550   -1.9460   -0.7380 C   0  0  0  0  0  0  0  0  0  0  0  0
   -4.1770   -2.5430   -1.5630 O   0  0  0  0  0  0  0  0  0  0  0  0
   -3.1380   -0.5980   -0.8810 C   0  0  0  0  0  0  0  0  0  0  0  0
   -2.3320    0.0510    0.0470 C   0  0  0  0  0  0  0  0  0  0  0  0
   -2.2220    1.4790   -0.4120 C   0  0  0  0  0  0  0  0  0  0  0  0
   -3.5060    1.6770   -1.2390 C   0  0  1  0  0  0  0  0  0  0  0  0
   -4.6950    1.8560   -0.3470 C   0  0  0  0  0  0  0  0  0  0  0  0
   -3.3030    2.7840   -2.2220 C   0  0  0  0  0  0  0  0  0  0  0  0
   -3.5530    0.3510   -1.9150 C   0  0  0  0  0  0  0  0  0  0  0  0
   -3.8780    0.1440   -3.0950 O   0  0  0  0  0  0  0  0  0  0  0  0
    5.4840   -0.1510    0.0980 N   0  0  0  0  0  0  0  0  0  0  0  0
  1  2  1  0
  2  3  2  0
  2 27  1  0
  3  4  1  0
  4  5  1  0
  5  6  1  0
  5 27  2  0
  6  7  1  0
  7  8  2  0
  7  9  1  0
  9 10  1  0
 10 11  1  0
 11 12  1  0
 12 13  1  0
 12 20  1  0
 13 14  2  0
 14 15  1  0
 14 17  1  0
 15 16  2  0
 17 18  2  0
 17 19  1  0
 19 20  2  0
 19 25  1  0
 20 21  1  0
 21 22  1  0
 22 23  1  1
 22 24  1  0
 22 25  1  0
 25 26  2  0
M  END
