
     RDKit          3D

 24 26  0  0  0  0  0  0  0  0999 V2000
   -1.5630   -2.4720    0.5990 C   0  0  0  0  0  0  0  0  0  0  0  0
   -0.9120   -1.0020    0.7970 S   0  0  0  0  0  0  0  0  0  0  0  0
   -0.8400   -0.0260    2.0560 O   0  0  0  0  0  0  0  0  0  0  0  0
    0.5010   -1.5060    1.1270 N   0  0  0  0  0  0  0  0  0  0  0  0
    1.7490   -1.4450    0.4470 C   0  0  0  0  0  0  0  0  0  0  0  0
    2.2440   -2.4480   -0.3380 C   0  0  0  0  0  0  0  0  0  0  0  0
    3.4550   -2.3140   -0.9760 C   0  0  0  0  0  0  0  0  0  0  0  0
    4.2330   -1.1940   -0.8750 C   0  0  0  0  0  0  0  0  0  0  0  0
    5.4890   -1.0650   -1.5410 N   0  0  0  0  0  0  0  0  0  0  0  0
    3.7530   -0.1320   -0.0710 C   0  0  0  0  0  0  0  0  0  0  0  0
    4.5630    1.0180    0.0100 N   0  0  0  0  0  0  0  0  0  0  0  0
    4.3130    2.1700    0.7570 C   0  0  0  0  0  0  0  0  0  0  0  0
    5.2200    3.2920    0.7580 N   0  0  0  0  0  0  0  0  0  0  0  0
    3.2880    2.2840    1.4620 O   0  0  0  0  0  0  0  0  0  0  0  0
    2.5470   -0.2890    0.5540 C   0  0  0  0  0  0  0  0  0  0  0  0
   -0.2520   -0.2900   -0.8340 S   0  0  0  0  0  0  0  0  0  0  0  0
   -0.6660    1.4100   -0.3660 C   0  0  0  0  0  0  0  0  0  0  0  0
   -2.1120    1.0970   -0.0670 C   0  0  0  0  0  0  0  0  0  0  0  0
   -2.1990   -0.1080    0.5110 C   0  0  0  0  0  0  0  0  0  0  0  0
   -3.6190   -0.5280    0.9020 C   0  0  0  0  0  0  0  0  0  0  0  0
   -4.4510   -0.7050   -0.3270 C   0  0  0  0  0  0  0  0  0  0  0  0
   -5.1790    0.6250   -0.5560 C   0  0  0  0  0  0  0  0  0  0  0  0
   -4.2160    1.5110   -1.3410 C   0  0  0  0  0  0  0  0  0  0  0  0
   -3.1460    2.1190   -0.4470 C   0  0  0  0  0  0  0  0  0  0  0  0
  1  2  1  0
  2  3  2  0
  2  4  1  0
  2 16  1  0
  2 19  1  0
  4  5  1  0
  5  6  2  0
  5 15  1  0
  6  7  1  0
  7  8  2  0
  8  9  1  0
  8 10  1  0
 10 11  1  0
 10 15  2  0
 11 12  1  0
 12 13  1  0
 12 14  2  0
 16 17  1  0
 17 18  1  0
 18 19  2  0
 18 24  1  0
 19 20  1  0
 20 21  1  0
 21 22  1  0
 22 23  1  0
 23 24  1  0
M  END
