
     RDKit          3D

 24 25  0  0  0  0  0  0  0  0999 V2000
   -1.8160   -3.6460   -1.4480 C   0  0  0  0  0  0  0  0  0  0  0  0
   -0.7310   -2.6240   -1.4250 C   0  0  0  0  0  0  0  0  0  0  0  0
   -0.7130   -1.6490   -0.4860 C   0  0  0  0  0  0  0  0  0  0  0  0
   -1.8840   -1.7400    0.4720 C   0  0  0  0  0  0  0  0  0  0  0  0
    0.3780   -0.7410   -0.3120 C   0  0  0  0  0  0  0  0  0  0  0  0
    0.1990    0.5400    0.2240 C   0  0  0  0  0  0  0  0  0  0  0  0
   -1.1810    1.0320    0.3580 C   0  0  0  0  0  0  0  0  0  0  0  0
   -1.9540    0.8700   -0.7340 C   0  0  0  0  0  0  0  0  0  0  0  0
   -3.3210    1.2410   -0.8800 C   0  0  0  0  0  0  0  0  0  0  0  0
   -4.0210    1.9270    0.4310 S   0  0  0  0  0  0  0  0  0  0  0  0
   -2.8860    2.0710    1.8210 C   0  0  0  0  0  0  0  0  0  0  0  0
   -1.6660    1.6180    1.5970 C   0  0  0  0  0  0  0  0  0  0  0  0
    1.2610    1.3370    0.5160 C   0  0  0  0  0  0  0  0  0  0  0  0
    1.2200    2.7090    0.9450 C   0  0  0  0  0  0  0  0  0  0  0  0
    0.1000    3.5370    1.1260 N   0  0  0  0  0  0  0  0  0  0  0  0
    2.3210    3.3410    1.2060 O   0  0  0  0  0  0  0  0  0  0  0  0
    2.5630    0.8410    0.2740 C   0  0  0  0  0  0  0  0  0  0  0  0
    3.6950    1.6560    0.5830 N   0  0  0  0  0  0  0  0  0  0  0  0
    2.6980   -0.3790   -0.2350 N   0  0  0  0  0  0  0  0  0  0  0  0
    4.0350   -0.8210   -0.4570 C   0  0  0  0  0  0  0  0  0  0  0  0
    4.2840   -2.1010   -0.9950 N   0  0  0  0  0  0  0  0  0  0  0  0
    5.0220   -0.0990   -0.1880 O   0  0  0  0  0  0  0  0  0  0  0  0
    1.6530   -1.1810   -0.5350 C   0  0  0  0  0  0  0  0  0  0  0  0
    2.0360   -2.6800   -1.1110 S   0  0  0  0  0  0  0  0  0  0  0  0
  1  2  1  0
  2  3  2  3
  3  4  1  0
  3  5  1  0
  5  6  2  0
  5 23  1  0
  6  7  1  0
  6 13  1  0
  7  8  2  0
  7 12  1  0
  8  9  1  0
  9 10  2  0
 10 11  1  0
 11 12  2  0
 13 14  1  0
 13 17  2  0
 14 15  1  0
 14 16  2  0
 17 18  1  0
 17 19  1  0
 19 20  1  0
 19 23  1  0
 20 21  1  0
 20 22  2  0
 23 24  2  0
M  END
