
     RDKit          3D

 23 25  0  0  0  0  0  0  0  0999 V2000
    5.6180   -1.0270    0.2940 C   0  0  0  0  0  0  0  0  0  0  0  0
    5.1970    0.2570    0.9920 C   0  0  0  0  0  0  0  0  0  0  0  0
    3.8390    0.6630    0.5400 C   0  0  0  0  0  0  0  0  0  0  0  0
    3.6870    1.9380    0.2410 C   0  0  0  0  0  0  0  0  0  0  0  0
    2.4150    2.5000   -0.2460 C   0  0  0  0  0  0  0  0  0  0  0  0
    1.3520    1.7810   -0.4650 C   0  0  0  0  0  0  0  0  0  0  0  0
    0.0460    2.2410   -0.9350 C   0  0  0  0  0  0  0  0  0  0  0  0
   -0.9950    1.6320   -0.1030 C   0  0  0  0  0  0  0  0  0  0  0  0
   -1.1400    0.1310   -0.1930 C   0  0  0  0  0  0  0  0  0  0  0  0
   -0.0180   -0.6200    0.0800 C   0  0  0  0  0  0  0  0  0  0  0  0
   -0.2070   -1.9700    0.3860 C   0  0  0  0  0  0  0  0  0  0  0  0
   -1.5180   -2.4710    0.3700 C   0  0  0  0  0  0  0  0  0  0  0  0
   -2.6130   -1.7090    0.0680 C   0  0  0  0  0  0  0  0  0  0  0  0
   -3.9290   -2.2900   -0.2130 C   0  0  0  0  0  0  0  0  0  0  0  0
   -4.7180   -2.6540    0.9470 N   0  0  0  0  0  0  0  0  0  0  0  0
   -2.4630   -0.3600   -0.2270 C   0  0  0  0  0  0  0  0  0  0  0  0
   -3.7460    0.7090   -0.6850 S   0  0  1  0  0  0  0  0  0  0  0  0
   -4.3260    1.5710    0.6790 N   0  0  0  0  0  0  0  0  0  0  0  0
   -3.1410    1.7190   -1.6670 O   0  0  0  0  0  0  0  0  0  0  0  0
   -4.8510    0.0810   -1.4530 O   0  0  0  0  0  0  0  0  0  0  0  0
    1.5290    0.0350   -0.3070 S   0  0  1  0  0  0  0  0  0  0  0  0
    1.8380   -0.4730   -1.8330 N   0  0  0  0  0  0  0  0  0  0  0  0
    2.7470   -0.2440    0.5350 N   0  0  0  0  0  0  0  0  0  0  0  0
  1  2  1  0
  2  3  1  0
  3  4  2  0
  3 23  1  0
  4  5  1  0
  5  6  2  0
  6  7  1  0
  6 21  1  0
  7  8  1  0
  8  9  1  0
  9 10  2  0
  9 16  1  0
 10 11  1  0
 21 10  1  1
 11 12  2  0
 12 13  1  0
 13 14  1  0
 13 16  2  0
 14 15  1  0
 16 17  1  0
 17 18  1  1
 17 19  2  0
 17 20  2  0
 21 22  2  0
 21 23  2  0
M  END
