
     RDKit          3D

 24 25  0  0  0  0  0  0  0  0999 V2000
    5.3120    1.3640   -1.0690 C   0  0  0  0  0  0  0  0  0  0  0  0
    4.8580    0.4770    0.0160 C   0  0  0  0  0  0  0  0  0  0  0  0
    5.9010    0.2450    1.1190 C   0  0  0  0  0  0  0  0  0  0  0  0
    3.7220   -0.1300    0.1790 C   0  0  0  0  0  0  0  0  0  0  0  0
    2.5840   -0.0910   -0.6860 C   0  0  0  0  0  0  0  0  0  0  0  0
    1.4060   -0.7460   -0.4630 C   0  0  0  0  0  0  0  0  0  0  0  0
    1.2110   -1.5950    0.7610 C   0  0  0  0  0  0  0  0  0  0  0  0
    0.4790   -1.0200    1.8800 C   0  0  0  0  0  0  0  0  0  0  0  0
   -0.8980   -0.5280    1.7520 C   0  0  1  0  0  0  0  0  0  0  0  0
   -1.1420    0.8440    0.5890 S   0  0  0  0  0  0  0  0  0  0  0  0
   -2.7590    0.3010    0.0730 C   0  0  0  0  0  0  0  0  0  0  0  0
   -3.7090    0.9990   -0.4630 C   0  0  0  0  0  0  0  0  0  0  0  0
   -5.0160    0.3440   -0.8310 C   0  0  0  0  0  0  0  0  0  0  0  0
   -3.5970    2.4600   -0.7520 C   0  0  0  0  0  0  0  0  0  0  0  0
   -4.6080    3.2100   -0.0380 N   0  0  0  0  0  0  0  0  0  0  0  0
   -2.7620   -1.1070    0.3960 C   0  0  0  0  0  0  0  0  0  0  0  0
   -3.7400   -2.0370   -0.1690 N   0  0  0  0  0  0  0  0  0  0  0  0
   -1.8580   -1.5180    1.2120 C   0  0  0  0  0  0  0  0  0  0  0  0
   -1.7260   -2.9140    1.6370 N   0  0  0  0  0  0  0  0  0  0  0  0
    0.4340   -0.5830   -1.4770 C   0  0  0  0  0  0  0  0  0  0  0  0
    0.6990    0.1310   -2.4830 N   0  0  0  0  0  0  0  0  0  0  0  0
    2.3330    0.7040   -2.2120 S   0  0  2  0  0  0  0  0  0  0  0  0
    3.2150    0.1480   -3.3010 O   0  0  0  0  0  0  0  0  0  0  0  0
    2.3340    2.1910   -2.1450 O   0  0  0  0  0  0  0  0  0  0  0  0
  1  2  1  0
  2  3  1  0
  2  4  2  3
  4  5  1  0
  5  6  2  0
  5 22  1  0
  6  7  1  0
  6 20  1  0
  7  8  1  0
  9  8  1  6
  9 10  1  0
  9 18  1  0
 10 11  1  0
 11 12  2  3
 11 16  1  0
 12 13  1  0
 12 14  1  0
 14 15  1  0
 16 17  1  0
 16 18  2  0
 18 19  1  0
 20 21  2  0
 22 21  1  6
 22 23  2  0
 22 24  2  0
M  END
