
     RDKit          3D

 24 26  0  0  0  0  0  0  0  0999 V2000
    1.9340   -1.8180   -0.1640 C   0  0  0  0  0  0  0  0  0  0  0  0
    2.0390   -0.3810    0.0610 C   0  0  0  0  0  0  0  0  0  0  0  0
    0.8780    0.3780    0.1760 C   0  0  0  0  0  0  0  0  0  0  0  0
   -0.4140   -0.1840    0.0320 N   0  0  0  0  0  0  0  0  0  0  0  0
   -1.6370    0.5070   -0.0690 C   0  0  0  0  0  0  0  0  0  0  0  0
   -1.6550    1.7430   -0.0490 O   0  0  0  0  0  0  0  0  0  0  0  0
   -2.9510   -0.2120   -0.2100 C   0  0  1  0  0  0  0  0  0  0  0  0
   -3.4040   -0.4790    1.2380 C   0  0  0  0  0  0  0  0  0  0  0  0
   -4.7170    0.7260    1.7110 S   0  0  0  0  0  0  0  0  0  0  0  0
   -6.0170    0.4900    0.4330 C   0  0  0  0  0  0  0  0  0  0  0  0
   -5.2270   -0.0560   -0.7720 C   0  0  1  0  0  0  0  0  0  0  0  0
   -6.0310    0.2190   -1.9960 C   0  0  0  0  0  0  0  0  0  0  0  0
   -3.9350    0.6650   -0.8170 N   0  0  0  0  0  0  0  0  0  0  0  0
    1.0100    1.7100    0.4380 C   0  0  0  0  0  0  0  0  0  0  0  0
    2.2340    2.3360    0.5910 C   0  0  0  0  0  0  0  0  0  0  0  0
    3.3700    1.5640    0.4670 C   0  0  0  0  0  0  0  0  0  0  0  0
    4.6540    2.1810    0.5980 N   0  0  0  0  0  0  0  0  0  0  0  0
    3.2970    0.2150    0.2050 C   0  0  0  0  0  0  0  0  0  0  0  0
    4.5060   -0.5930   -0.0060 C   0  0  0  0  0  0  0  0  0  0  0  0
    5.7830   -0.3980    0.3290 C   0  0  0  0  0  0  0  0  0  0  0  0
    6.6900   -1.2880    0.0470 N   0  0  0  0  0  0  0  0  0  0  0  0
    6.3740   -2.4190   -0.5790 C   0  0  0  0  0  0  0  0  0  0  0  0
    7.0140   -3.4200   -0.9660 O   0  0  0  0  0  0  0  0  0  0  0  0
    4.5670   -2.1780   -0.7910 S   0  0  0  0  0  0  0  0  0  0  0  0
  1  2  1  0
  2  3  2  0
  2 18  1  0
  3  4  1  0
  3 14  1  0
  4  5  1  0
  5  6  2  0
  7  5  1  1
  7  8  1  0
  7 13  1  0
  8  9  1  0
  9 10  1  0
 10 11  1  0
 11 12  1  6
 11 13  1  0
 14 15  2  0
 15 16  1  0
 16 17  1  0
 16 18  2  0
 18 19  1  0
 19 20  2  0
 19 24  1  0
 20 21  1  0
 21 22  1  0
 22 23  2  0
 22 24  1  0
M  END
