
     RDKit          3D

 24 26  0  0  0  0  0  0  0  0999 V2000
   -4.6550   -1.5830    1.3400 C   0  0  0  0  0  0  0  0  0  0  0  0
   -3.8380   -0.4510    0.8450 C   0  0  0  0  0  0  0  0  0  0  0  0
   -2.7440   -0.6510   -0.0110 C   0  0  0  0  0  0  0  0  0  0  0  0
   -1.9860    0.3990   -0.4690 C   0  0  0  0  0  0  0  0  0  0  0  0
   -0.8580    0.2670   -1.3310 N   0  0  0  0  0  0  0  0  0  0  0  0
   -0.2330   -0.9370   -1.6890 C   0  0  0  0  0  0  0  0  0  0  0  0
   -0.6420   -2.0310   -1.2500 O   0  0  0  0  0  0  0  0  0  0  0  0
    0.9640   -0.9130   -2.6290 C   0  0  2  0  0  0  0  0  0  0  0  0
    1.4110   -2.3220   -2.8170 C   0  0  0  0  0  0  0  0  0  0  0  0
    2.2430    0.2000   -2.0460 S   0  0  0  0  0  0  0  0  0  0  0  0
    2.9910   -0.3300   -0.5390 C   0  0  0  0  0  0  0  0  0  0  0  0
    2.6100   -1.4670    0.0810 N   0  0  0  0  0  0  0  0  0  0  0  0
    3.1850   -1.8630    1.2300 C   0  0  0  0  0  0  0  0  0  0  0  0
    4.1750   -1.0740    1.7560 C   0  0  0  0  0  0  0  0  0  0  0  0
    4.5970    0.0890    1.1660 C   0  0  0  0  0  0  0  0  0  0  0  0
    5.6280    0.8730    1.7530 N   0  0  0  0  0  0  0  0  0  0  0  0
    3.9920    0.4680   -0.0060 C   0  0  0  0  0  0  0  0  0  0  0  0
    4.4260    1.6690   -0.6230 N   0  0  0  0  0  0  0  0  0  0  0  0
   -2.3470    1.6740   -0.0490 C   0  0  0  0  0  0  0  0  0  0  0  0
   -3.4310    1.9170    0.8040 C   0  0  0  0  0  0  0  0  0  0  0  0
   -4.1480    0.8240    1.2250 C   0  0  0  0  0  0  0  0  0  0  0  0
   -5.4530    1.5410    2.2590 S   0  0  0  0  0  0  0  0  0  0  0  0
   -5.2440    3.2240    1.5010 C   0  0  0  0  0  0  0  0  0  0  0  0
   -3.8550    3.1260    1.2660 O   0  0  0  0  0  0  0  0  0  0  0  0
  1  2  1  0
  2  3  2  0
  2 21  1  0
  3  4  1  0
  4  5  1  0
  4 19  2  0
  5  6  1  0
  6  7  2  0
  6  8  1  0
  8  9  1  1
  8 10  1  0
 10 11  1  0
 11 12  2  0
 11 17  1  0
 12 13  1  0
 13 14  2  0
 14 15  1  0
 15 16  1  0
 15 17  2  0
 17 18  1  0
 19 20  1  0
 20 21  2  0
 20 24  1  0
 21 22  1  0
 22 23  1  0
 23 24  1  0
M  END
