
     RDKit          3D

 23 24  0  0  0  0  0  0  0  0999 V2000
    6.3800    0.9900   -0.9880 C   0  0  0  0  0  0  0  0  0  0  0  0
    5.2420    0.0040   -0.8790 C   0  0  0  0  0  0  0  0  0  0  0  0
    3.9460    0.7200   -0.4750 C   0  0  2  0  0  0  0  0  0  0  0  0
    4.2200    1.3640    0.8610 C   0  0  0  0  0  0  0  0  0  0  0  0
    2.9940    1.7050    1.6340 C   0  0  0  0  0  0  0  0  0  0  0  0
    1.8960    1.1130    1.0130 O   0  0  0  0  0  0  0  0  0  0  0  0
    2.2660   -0.2140    0.7550 C   0  0  1  0  0  0  0  0  0  0  0  0
    1.1780   -1.1600    0.8460 C   0  0  0  0  0  0  0  0  0  0  0  0
   -0.0890   -0.8120    0.7010 C   0  0  0  0  0  0  0  0  0  0  0  0
   -0.3420    0.5270    0.4500 O   0  0  0  0  0  0  0  0  0  0  0  0
   -0.3620    0.9790   -0.8850 C   0  0  0  0  0  0  0  0  0  0  0  0
   -1.1570   -1.8260    0.8100 C   0  0  0  0  0  0  0  0  0  0  0  0
   -0.6710   -3.1370    1.0620 O   0  0  0  0  0  0  0  0  0  0  0  0
   -2.4270   -1.5970    0.6960 C   0  0  0  0  0  0  0  0  0  0  0  0
   -3.4170   -2.6020    0.8100 O   0  0  0  0  0  0  0  0  0  0  0  0
   -4.6000   -2.0410    1.3460 C   0  0  0  0  0  0  0  0  0  0  0  0
   -4.3010   -0.5910    1.5270 C   0  0  2  0  0  0  0  0  0  0  0  0
   -5.3850    0.2230    1.4320 O   0  0  0  0  0  0  0  0  0  0  0  0
   -3.2340   -0.3520    0.4360 C   0  0  2  0  0  0  0  0  0  0  0  0
   -3.9030   -0.4230   -0.8920 C   0  0  0  0  0  0  0  0  0  0  0  0
   -4.6870    0.7930   -1.2370 C   0  0  0  0  0  0  0  0  0  0  0  0
   -3.8530    1.9290   -1.2360 O   0  0  0  0  0  0  0  0  0  0  0  0
    2.9590   -0.2260   -0.4440 O   0  0  0  0  0  0  0  0  0  0  0  0
  1  2  1  0
  3  2  1  1
  3  4  1  0
  3 23  1  0
  4  5  1  0
  5  6  1  0
  6  7  1  0
  7  8  1  6
  7 23  1  0
  8  9  2  3
  9 10  1  0
  9 12  1  0
 10 11  1  0
 12 13  1  0
 12 14  2  3
 14 15  1  0
 14 19  1  0
 15 16  1  0
 16 17  1  0
 17 18  1  6
 17 19  1  0
 19 20  1  6
 20 21  1  0
 21 22  1  0
M  END
