
     RDKit          3D

 23 24  0  0  0  0  0  0  0  0999 V2000
    5.5540    1.4950    2.8790 C   0  0  0  0  0  0  0  0  0  0  0  0
    4.5420    0.7270    3.4860 O   0  0  0  0  0  0  0  0  0  0  0  0
    3.1870    0.9500    3.1130 C   0  0  0  0  0  0  0  0  0  0  0  0
    2.2210    0.1470    3.7510 C   0  0  0  0  0  0  0  0  0  0  0  0
    0.9200    0.3820    3.3840 C   0  0  0  0  0  0  0  0  0  0  0  0
    0.6040    1.3570    2.4390 C   0  0  0  0  0  0  0  0  0  0  0  0
   -0.8130    1.2380    1.9030 C   0  0  0  0  0  0  0  0  0  0  0  0
   -1.8630    1.1560    1.4970 C   0  0  0  0  0  0  0  0  0  0  0  0
   -3.2970    1.0640    0.9430 C   0  0  0  0  0  0  0  0  0  0  0  0
   -3.1860    0.0630    0.0090 O   0  0  0  0  0  0  0  0  0  0  0  0
   -2.4060    0.4630   -1.0960 C   0  0  1  0  0  0  0  0  0  0  0  0
   -1.1490    0.0060   -0.8650 O   0  0  0  0  0  0  0  0  0  0  0  0
   -0.6420   -1.1410   -1.2790 C   0  0  2  0  0  0  0  0  0  0  0  0
    0.6900   -0.8470   -1.9960 C   0  0  0  0  0  0  0  0  0  0  0  0
    1.5390   -0.1980   -1.0760 O   0  0  0  0  0  0  0  0  0  0  0  0
   -1.5530   -1.8490   -2.2410 C   0  0  1  0  0  0  0  0  0  0  0  0
   -2.5960   -2.5000   -1.5530 O   0  0  0  0  0  0  0  0  0  0  0  0
   -2.1120   -0.8370   -3.1880 C   0  0  2  0  0  0  0  0  0  0  0  0
   -1.2300   -0.2020   -4.0100 O   0  0  0  0  0  0  0  0  0  0  0  0
   -2.9990    0.1000   -2.3770 C   0  0  2  0  0  0  0  0  0  0  0  0
   -3.3030    1.1270   -3.2500 O   0  0  0  0  0  0  0  0  0  0  0  0
    1.3890    2.1090    1.8240 C   0  0  0  0  0  0  0  0  0  0  0  0
    2.8650    1.8430    2.2370 C   0  0  0  0  0  0  0  0  0  0  0  0
  1  2  1  0
  2  3  1  0
  3  4  2  0
  3 23  1  0
  4  5  1  0
  5  6  2  0
  6  7  1  0
  6 22  1  0
  7  8  3  0
  8  9  1  0
  9 10  1  0
 11 10  1  1
 11 12  1  0
 11 20  1  0
 12 13  1  0
 13 14  1  6
 13 16  1  0
 14 15  1  0
 16 17  1  1
 16 18  1  0
 18 19  1  1
 18 20  1  0
 20 21  1  6
 22 23  2  0
M  END
