
     RDKit          3D

 23 24  0  0  0  0  0  0  0  0999 V2000
   -3.7690    0.5590    2.5450 C   0  0  0  0  0  0  0  0  0  0  0  0
   -4.6220    0.7790    1.3420 C   0  0  0  0  0  0  0  0  0  0  0  0
   -4.3380    0.1280    0.2020 O   0  0  0  0  0  0  0  0  0  0  0  0
   -3.1470    0.3640   -0.3970 C   0  0  2  0  0  0  0  0  0  0  0  0
   -2.9280    1.8440   -0.7120 C   0  0  0  0  0  0  0  0  0  0  0  0
   -3.1190   -0.3080   -1.7900 C   0  0  0  0  0  0  0  0  0  0  0  0
   -1.6420   -0.5180   -1.9790 C   0  0  0  0  0  0  0  0  0  0  0  0
   -1.1930   -1.0200   -0.6480 C   0  0  1  0  0  0  0  0  0  0  0  0
   -1.5730   -2.4810   -0.5120 C   0  0  0  0  0  0  0  0  0  0  0  0
   -0.8800   -3.3160   -1.3710 O   0  0  0  0  0  0  0  0  0  0  0  0
    0.1550   -0.7600   -0.3780 O   0  0  0  0  0  0  0  0  0  0  0  0
    1.2490   -1.1520   -1.0840 C   0  0  0  0  0  0  0  0  0  0  0  0
    1.0920   -1.8330   -2.1230 O   0  0  0  0  0  0  0  0  0  0  0  0
    2.5990   -0.7500   -0.5860 C   0  0  2  0  0  0  0  0  0  0  0  0
    3.5970   -1.2310   -1.4200 O   0  0  0  0  0  0  0  0  0  0  0  0
    2.7860   -1.2430    0.8550 C   0  0  0  0  0  0  0  0  0  0  0  0
    3.9290   -0.5400    1.5190 C   0  0  0  0  0  0  0  0  0  0  0  0
    4.7670    0.0040    0.5540 O   0  0  0  0  0  0  0  0  0  0  0  0
    4.1920    1.0380   -0.1560 C   0  0  2  0  0  0  0  0  0  0  0  0
    4.3370    2.3190    0.6240 C   0  0  0  0  0  0  0  0  0  0  0  0
    5.7010    2.5420    0.8000 O   0  0  0  0  0  0  0  0  0  0  0  0
    2.7420    0.7610   -0.5240 C   0  0  0  0  0  0  0  0  0  0  0  0
   -1.9990   -0.1910    0.3480 C   0  0  0  0  0  0  0  0  0  0  0  0
  1  2  1  0
  2  3  1  0
  3  4  1  0
  4  5  1  6
  4  6  1  0
  4 23  1  0
  6  7  1  0
  7  8  1  0
  8  9  1  6
  8 11  1  0
  8 23  1  0
  9 10  1  0
 11 12  1  0
 12 13  2  0
 12 14  1  0
 14 15  1  6
 14 16  1  0
 14 22  1  0
 16 17  1  0
 17 18  1  0
 18 19  1  0
 19 20  1  1
 19 22  1  0
 20 21  1  0
M  END
