
     RDKit          3D

 23 24  0  0  0  0  0  0  0  0999 V2000
   -2.5320   -1.9140    1.6550 C   0  0  0  0  0  0  0  0  0  0  0  0
   -2.2830   -1.0030    0.4760 C   0  0  1  0  0  0  0  0  0  0  0  0
   -3.6040   -0.9260   -0.2980 C   0  0  0  0  0  0  0  0  0  0  0  0
   -2.0610    0.2940    0.9840 O   0  0  0  0  0  0  0  0  0  0  0  0
   -1.3370    1.2670    0.3540 C   0  0  0  0  0  0  0  0  0  0  0  0
   -1.4520    2.5560    0.6170 C   0  0  0  0  0  0  0  0  0  0  0  0
   -0.7060    3.6300   -0.0250 C   0  0  0  0  0  0  0  0  0  0  0  0
   -1.0850    4.8000    0.4950 C   0  0  0  0  0  0  0  0  0  0  0  0
   -2.0550    4.5800    1.4620 O   0  0  0  0  0  0  0  0  0  0  0  0
   -2.3200    3.2210    1.5800 C   0  0  0  0  0  0  0  0  0  0  0  0
   -3.1340    2.6540    2.3480 O   0  0  0  0  0  0  0  0  0  0  0  0
   -0.3580    0.8000   -0.7010 C   0  0  2  0  0  0  0  0  0  0  0  0
   -1.1040    0.8280   -1.8900 O   0  0  0  0  0  0  0  0  0  0  0  0
    0.0380   -0.5780   -0.3050 C   0  0  2  0  0  0  0  0  0  0  0  0
    1.1200   -1.1380   -0.9010 O   0  0  0  0  0  0  0  0  0  0  0  0
    2.1420   -1.5790   -0.1270 C   0  0  0  0  0  0  0  0  0  0  0  0
    2.8120   -0.4390    0.5890 C   0  0  0  0  0  0  0  0  0  0  0  0
    3.4460    0.5380   -0.3630 C   0  0  0  0  0  0  0  0  0  0  0  0
    4.5260   -0.1170   -1.2230 C   0  0  0  0  0  0  0  0  0  0  0  0
    5.0340    0.9090   -2.0560 O   0  0  0  0  0  0  0  0  0  0  0  0
   -1.2050   -1.4790   -0.4330 C   0  0  1  0  0  0  0  0  0  0  0  0
   -0.7380   -2.8710   -0.0810 C   0  0  0  0  0  0  0  0  0  0  0  0
   -1.6630   -1.5020   -1.7410 O   0  0  0  0  0  0  0  0  0  0  0  0
  2  1  1  1
  2  3  1  0
  2  4  1  0
  2 21  1  0
  4  5  1  0
  5  6  2  3
  5 12  1  0
  6  7  1  0
  6 10  1  0
  7  8  2  0
  8  9  1  0
  9 10  1  0
 10 11  2  0
 12 13  1  6
 12 14  1  0
 14 15  1  6
 14 21  1  0
 15 16  1  0
 16 17  1  0
 17 18  1  0
 18 19  1  0
 19 20  1  0
 21 22  1  1
 21 23  1  0
M  END
