
     RDKit          3D

 22 23  0  0  0  0  0  0  0  0999 V2000
   -4.1070    1.2050   -1.7350 C   0  0  0  0  0  0  0  0  0  0  0  0
   -4.1670    0.7420   -0.3100 C   0  0  0  0  0  0  0  0  0  0  0  0
   -3.1190   -0.3650   -0.0990 C   0  0  2  0  0  0  0  0  0  0  0  0
   -3.3840   -1.5090   -0.9880 C   0  0  0  0  0  0  0  0  0  0  0  0
   -3.0320   -0.6510    1.3820 C   0  0  2  0  0  0  0  0  0  0  0  0
   -4.2250   -0.3680    2.0700 O   0  0  0  0  0  0  0  0  0  0  0  0
   -1.9970    0.4560    1.4500 C   0  0  0  0  0  0  0  0  0  0  0  0
   -1.7430    0.2210   -0.0130 C   0  0  2  0  0  0  0  0  0  0  0  0
   -1.7300    1.4360   -0.7430 O   0  0  0  0  0  0  0  0  0  0  0  0
   -0.5640   -0.5810   -0.3810 C   0  0  2  0  0  0  0  0  0  0  0  0
   -0.4330   -1.9170    0.3030 C   0  0  0  0  0  0  0  0  0  0  0  0
    0.5990    0.2270   -0.1150 O   0  0  0  0  0  0  0  0  0  0  0  0
    1.4970    0.5860   -1.0950 C   0  0  0  0  0  0  0  0  0  0  0  0
    1.2180    0.1370   -2.2630 O   0  0  0  0  0  0  0  0  0  0  0  0
    2.7090    1.4210   -0.8770 C   0  0  0  0  0  0  0  0  0  0  0  0
    3.8440    0.6620   -0.3450 C   0  0  0  0  0  0  0  0  0  0  0  0
    3.8020   -0.6250   -0.0790 C   0  0  0  0  0  0  0  0  0  0  0  0
    4.9320   -1.3980    0.4550 C   0  0  0  0  0  0  0  0  0  0  0  0
    6.0880   -0.6380    0.6490 O   0  0  0  0  0  0  0  0  0  0  0  0
    6.1650    0.7100    0.3820 C   0  0  0  0  0  0  0  0  0  0  0  0
    7.3500    1.4390    0.6020 O   0  0  0  0  0  0  0  0  0  0  0  0
    5.1050    1.3430   -0.0920 C   0  0  0  0  0  0  0  0  0  0  0  0
  1  2  1  0
  2  3  1  0
  3  4  1  6
  3  5  1  0
  3  8  1  0
  5  6  1  1
  5  7  1  0
  7  8  1  0
  8  9  1  6
  8 10  1  0
 10 11  1  1
 10 12  1  0
 12 13  1  0
 13 14  2  0
 13 15  1  0
 15 16  1  0
 16 17  2  0
 16 22  1  0
 17 18  1  0
 18 19  1  0
 19 20  1  0
 20 21  1  0
 20 22  2  0
M  END
