
     RDKit          3D

 22 23  0  0  0  0  0  0  0  0999 V2000
    2.2180    3.2120   -1.4690 C   0  0  0  0  0  0  0  0  0  0  0  0
    1.5590    2.1820   -0.7680 O   0  0  0  0  0  0  0  0  0  0  0  0
    1.5950    0.8580   -1.1280 C   0  0  0  0  0  0  0  0  0  0  0  0
    2.2360    0.4980   -2.1270 O   0  0  0  0  0  0  0  0  0  0  0  0
    0.8630   -0.1250   -0.3130 C   0  0  1  0  0  0  0  0  0  0  0  0
   -0.5980    0.2630   -0.3690 C   0  0  1  0  0  0  0  0  0  0  0  0
   -0.6970    1.5510    0.1550 O   0  0  0  0  0  0  0  0  0  0  0  0
   -1.1710    0.2580   -1.7430 C   0  0  0  0  0  0  0  0  0  0  0  0
   -2.6400   -0.1890   -1.7460 C   0  0  0  0  0  0  0  0  0  0  0  0
   -3.3090    0.3500   -0.6680 O   0  0  0  0  0  0  0  0  0  0  0  0
   -2.8840   -0.1710    0.5490 C   0  0  1  0  0  0  0  0  0  0  0  0
   -3.1390    0.8360    1.6230 C   0  0  0  0  0  0  0  0  0  0  0  0
   -3.7360   -1.3910    0.8380 C   0  0  0  0  0  0  0  0  0  0  0  0
   -5.0650   -0.9320    0.8920 O   0  0  0  0  0  0  0  0  0  0  0  0
   -1.4490   -0.6350    0.5000 C   0  0  0  0  0  0  0  0  0  0  0  0
    1.0890   -1.5470   -0.7120 C   0  0  0  0  0  0  0  0  0  0  0  0
    2.5280   -1.9360   -0.5550 C   0  0  0  0  0  0  0  0  0  0  0  0
    2.8100   -2.2850    0.7620 O   0  0  0  0  0  0  0  0  0  0  0  0
    3.4580   -1.2800    1.4560 C   0  0  0  0  0  0  0  0  0  0  0  0
    2.8330    0.0750    1.2590 C   0  0  1  0  0  0  0  0  0  0  0  0
    3.5010    0.7180    0.2460 O   0  0  0  0  0  0  0  0  0  0  0  0
    1.3510    0.0360    1.1170 C   0  0  0  0  0  0  0  0  0  0  0  0
  1  2  1  0
  2  3  1  0
  3  4  2  0
  5  3  1  6
  5  6  1  0
  5 16  1  0
  5 22  1  0
  6  7  1  1
  6  8  1  0
  6 15  1  0
  8  9  1  0
  9 10  1  0
 10 11  1  0
 11 12  1  1
 11 13  1  0
 11 15  1  0
 13 14  1  0
 16 17  1  0
 17 18  1  0
 18 19  1  0
 19 20  1  0
 20 21  1  6
 20 22  1  0
M  END
