
     RDKit          3D

 28 29  0  0  0  0  0  0  0  0999 V2000
    4.1240   -5.1400   -1.8710 C   0  0  0  0  0  0  0  0  0  0  0  0
    3.2980   -4.1230   -1.7460 C   0  0  0  0  0  0  0  0  0  0  0  0
    3.7990   -2.7720   -1.6380 C   0  0  0  0  0  0  0  0  0  0  0  0
    3.0360   -1.7140   -1.5110 C   0  0  0  0  0  0  0  0  0  0  0  0
    1.5890   -1.7720   -1.4630 C   0  0  0  0  0  0  0  0  0  0  0  0
    0.8570   -0.6620   -1.3320 C   0  0  0  0  0  0  0  0  0  0  0  0
    1.5420    0.6070   -1.2390 C   0  0  0  0  0  0  0  0  0  0  0  0
    1.3020    1.5840   -0.3830 C   0  0  0  0  0  0  0  0  0  0  0  0
    2.0880    2.8300   -0.4080 C   0  0  0  0  0  0  0  0  0  0  0  0
    3.1030    3.0640   -1.3030 C   0  0  0  0  0  0  0  0  0  0  0  0
    3.6050    4.3230   -1.0270 C   0  0  0  0  0  0  0  0  0  0  0  0
    2.8570    4.7820    0.0300 C   0  0  0  0  0  0  0  0  0  0  0  0
    1.9810    3.8720    0.3580 O   0  0  0  0  0  0  0  0  0  0  0  0
    0.2450    1.5280    0.6770 C   0  0  0  0  0  0  0  0  0  0  0  0
   -0.8250    2.4330    0.3580 N   0  0  0  0  0  0  0  0  0  0  0  0
   -1.8070    2.8520    1.2700 C   0  0  0  0  0  0  0  0  0  0  0  0
   -2.7050    3.6550    0.8940 O   0  0  0  0  0  0  0  0  0  0  0  0
   -1.8820    2.4140    2.6960 C   0  0  0  0  0  0  0  0  0  0  0  0
   -3.0780    1.4550    2.7540 C   0  0  0  0  0  0  0  0  0  0  0  0
   -2.6900    0.1630    2.0270 C   0  0  0  0  0  0  0  0  0  0  0  0
   -3.8690   -0.7450    2.0650 C   0  0  0  0  0  0  0  0  0  0  0  0
   -3.6370   -2.0850    1.6540 N   0  0  0  0  0  0  0  0  0  0  0  0
   -3.4790   -2.5700    0.3270 C   0  0  0  0  0  0  0  0  0  0  0  0
   -4.2140   -3.5540   -0.0760 O   0  0  0  0  0  0  0  0  0  0  0  0
   -2.5530   -2.0420   -0.6130 N   0  0  0  0  0  0  0  0  0  0  0  0
   -1.1250   -1.8650   -0.3710 C   0  0  0  0  0  0  0  0  0  0  0  0
   -0.6180   -0.8350   -1.3160 C   0  0  2  0  0  0  0  0  0  0  0  0
   -0.9700   -1.2600   -2.6090 O   0  0  0  0  0  0  0  0  0  0  0  0
  1  2  2  0
  2  3  1  0
  3  4  2  3
  4  5  1  0
  5  6  2  3
  6  7  1  0
  6 27  1  0
  7  8  2  0
  8  9  1  0
  8 14  1  0
  9 10  2  0
  9 13  1  0
 10 11  1  0
 11 12  2  0
 12 13  1  0
 14 15  1  0
 15 16  1  0
 16 17  2  0
 16 18  1  0
 18 19  1  0
 19 20  1  0
 20 21  1  0
 21 22  1  0
 22 23  1  0
 23 24  2  0
 23 25  1  0
 25 26  1  0
 26 27  1  0
 27 28  1  6
M  END
