
     RDKit          3D

 28 29  0  0  0  0  0  0  0  0999 V2000
    9.7990   -0.1660    0.7020 C   0  0  0  0  0  0  0  0  0  0  0  0
    8.7300   -0.2260   -0.3740 C   0  0  0  0  0  0  0  0  0  0  0  0
    7.7800    0.8730   -0.1990 C   0  0  0  0  0  0  0  0  0  0  0  0
    6.4860    0.7580    0.0140 C   0  0  0  0  0  0  0  0  0  0  0  0
    5.7680   -0.5050    0.1130 C   0  0  0  0  0  0  0  0  0  0  0  0
    4.4730   -0.5080    0.3270 C   0  0  0  0  0  0  0  0  0  0  0  0
    3.7740    0.7920    0.4630 C   0  0  0  0  0  0  0  0  0  0  0  0
    2.3820    0.5160    0.9190 C   0  0  0  0  0  0  0  0  0  0  0  0
    1.7070   -0.4420   -0.0250 C   0  0  2  0  0  0  0  0  0  0  0  0
    0.3340   -0.5870    0.4150 N   0  0  0  0  0  0  0  0  0  0  0  0
   -0.7540   -0.1520   -0.3720 C   0  0  0  0  0  0  0  0  0  0  0  0
   -0.5240    0.3780   -1.4880 O   0  0  0  0  0  0  0  0  0  0  0  0
   -2.1400   -0.2950    0.0620 C   0  0  0  0  0  0  0  0  0  0  0  0
   -2.3280   -0.8260    1.1760 O   0  0  0  0  0  0  0  0  0  0  0  0
   -3.2030    0.1520   -0.7490 N   0  0  0  0  0  0  0  0  0  0  0  0
   -4.5760    0.0700   -0.4420 C   0  0  0  0  0  0  0  0  0  0  0  0
   -5.4790    0.5820   -1.3680 C   0  0  0  0  0  0  0  0  0  0  0  0
   -6.8510    0.5410   -1.1450 C   0  0  0  0  0  0  0  0  0  0  0  0
   -7.4140    0.0080   -0.0260 C   0  0  0  0  0  0  0  0  0  0  0  0
   -8.7900   -0.0820    0.2830 N   0  0  0  0  0  0  0  0  0  0  0  0
   -9.8440    0.2890   -0.5590 C   0  0  0  0  0  0  0  0  0  0  0  0
  -11.2870    0.1430   -0.1020 C   0  0  0  0  0  0  0  0  0  0  0  0
   -9.6230    0.7470   -1.7000 O   0  0  0  0  0  0  0  0  0  0  0  0
   -6.5040   -0.5060    0.9040 C   0  0  0  0  0  0  0  0  0  0  0  0
   -5.1330   -0.4690    0.6890 C   0  0  0  0  0  0  0  0  0  0  0  0
    2.3750   -1.7760   -0.1070 C   0  0  1  0  0  0  0  0  0  0  0  0
    2.3510   -2.1950   -1.4370 O   0  0  0  0  0  0  0  0  0  0  0  0
    3.7730   -1.8070    0.4220 C   0  0  0  0  0  0  0  0  0  0  0  0
  1  2  1  0
  2  3  1  0
  3  4  2  3
  4  5  1  0
  5  6  2  3
  6  7  1  0
  6 28  1  0
  7  8  1  0
  8  9  1  0
  9 10  1  1
  9 26  1  0
 10 11  1  0
 11 12  2  0
 11 13  1  0
 13 14  2  0
 13 15  1  0
 15 16  1  0
 16 17  2  0
 16 25  1  0
 17 18  1  0
 18 19  2  0
 19 20  1  0
 19 24  1  0
 20 21  1  0
 21 22  1  0
 21 23  2  0
 24 25  2  0
 26 27  1  6
 26 28  1  0
M  END
