
     RDKit          3D

 28 29  0  0  0  0  0  0  0  0999 V2000
   -4.2990    1.6590    1.0780 C   0  0  0  0  0  0  0  0  0  0  0  0
   -4.2000    0.2870    0.5640 C   0  0  0  0  0  0  0  0  0  0  0  0
   -3.1170   -0.2610    0.0930 C   0  0  0  0  0  0  0  0  0  0  0  0
   -1.8150    0.3610   -0.0080 C   0  0  0  0  0  0  0  0  0  0  0  0
   -0.7000   -0.2400   -0.5140 C   0  0  0  0  0  0  0  0  0  0  0  0
   -0.7840   -1.5380   -0.9700 C   0  0  0  0  0  0  0  0  0  0  0  0
   -0.6990   -2.8350   -1.0850 C   0  0  0  0  0  0  0  0  0  0  0  0
   -0.1910   -3.8990   -0.2850 N   0  0  0  0  0  0  0  0  0  0  0  0
    0.9930   -4.6620   -0.2820 C   0  0  0  0  0  0  0  0  0  0  0  0
    0.9690   -5.7080    0.5320 O   0  0  0  0  0  0  0  0  0  0  0  0
    2.2300   -4.5820   -0.9540 N   0  0  0  0  0  0  0  0  0  0  0  0
    3.1800   -3.5380   -0.9490 C   0  0  0  0  0  0  0  0  0  0  0  0
    3.9560   -3.3800   -1.9260 O   0  0  0  0  0  0  0  0  0  0  0  0
    3.3600   -2.5590    0.1600 C   0  0  0  0  0  0  0  0  0  0  0  0
    2.7270   -1.2590   -0.2610 C   0  0  0  0  0  0  0  0  0  0  0  0
    2.0610   -0.6680    0.9410 C   0  0  0  0  0  0  0  0  0  0  0  0
    2.1260   -1.1520    2.0830 O   0  0  0  0  0  0  0  0  0  0  0  0
    1.2830    0.5650    0.7550 C   0  0  0  0  0  0  0  0  0  0  0  0
    1.3550    1.4520    1.7330 C   0  0  0  0  0  0  0  0  0  0  0  0
    2.1800    1.2120    2.9710 C   0  0  0  0  0  0  0  0  0  0  0  0
    0.6970    2.6860    1.5940 N   0  0  0  0  0  0  0  0  0  0  0  0
   -0.0440    3.0210    0.4350 C   0  0  0  0  0  0  0  0  0  0  0  0
   -0.7410    4.3600    0.3940 C   0  0  0  0  0  0  0  0  0  0  0  0
   -0.1110    2.1440   -0.5330 C   0  0  0  0  0  0  0  0  0  0  0  0
   -0.8650    2.4820   -1.7360 C   0  0  0  0  0  0  0  0  0  0  0  0
   -0.9300    1.5040   -2.8630 C   0  0  0  0  0  0  0  0  0  0  0  0
   -1.4660    3.5950   -1.8410 O   0  0  0  0  0  0  0  0  0  0  0  0
    0.4740    0.7550   -0.4720 C   0  0  2  0  0  0  0  0  0  0  0  0
  1  2  1  0
  2  3  2  3
  3  4  1  0
  4  5  2  3
  5  6  1  0
 28  5  1  1
  6  7  2  0
  7  8  1  0
  8  9  1  0
  9 10  2  0
  9 11  1  0
 11 12  1  0
 12 13  2  0
 12 14  1  0
 14 15  1  0
 15 16  1  0
 16 17  2  0
 16 18  1  0
 18 19  2  0
 18 28  1  0
 19 20  1  0
 19 21  1  0
 21 22  1  0
 22 23  1  0
 22 24  2  0
 24 25  1  0
 24 28  1  0
 25 26  1  0
 25 27  2  0
M  END
