
     RDKit          3D

 28 28  0  0  0  0  0  0  0  0999 V2000
   -3.0070    1.3920   -2.8380 C   0  0  0  0  0  0  0  0  0  0  0  0
   -1.9360    1.5640   -1.7850 C   0  0  0  0  0  0  0  0  0  0  0  0
   -2.2090    1.6200   -0.5020 C   0  0  0  0  0  0  0  0  0  0  0  0
   -3.6200    1.5110   -0.0800 C   0  0  0  0  0  0  0  0  0  0  0  0
   -4.0220    0.9350    1.0310 C   0  0  0  0  0  0  0  0  0  0  0  0
   -3.3180    0.2870    2.0910 C   0  0  0  0  0  0  0  0  0  0  0  0
   -2.7740   -0.9260    2.1830 C   0  0  0  0  0  0  0  0  0  0  0  0
   -2.7260   -1.9950    1.1880 C   0  0  0  0  0  0  0  0  0  0  0  0
   -3.6250   -2.9970    1.3170 C   0  0  0  0  0  0  0  0  0  0  0  0
   -4.6110   -3.0510    2.3890 C   0  0  0  0  0  0  0  0  0  0  0  0
   -1.7750   -2.1090    0.1160 N   0  0  0  0  0  0  0  0  0  0  0  0
   -0.3660   -2.3910    0.1440 C   0  0  0  0  0  0  0  0  0  0  0  0
    0.0620   -3.2080   -0.8280 O   0  0  0  0  0  0  0  0  0  0  0  0
    0.6820   -1.9680    1.0210 C   0  0  0  0  0  0  0  0  0  0  0  0
    1.6100   -1.0570    1.0110 C   0  0  0  0  0  0  0  0  0  0  0  0
    1.9800   -0.0310    0.0180 C   0  0  2  0  0  0  0  0  0  0  0  0
    1.1540   -0.0920   -1.2260 C   0  0  0  0  0  0  0  0  0  0  0  0
    3.3880   -0.4170   -0.4720 C   0  0  0  0  0  0  0  0  0  0  0  0
    3.9200   -1.4300   -0.0170 O   0  0  0  0  0  0  0  0  0  0  0  0
    3.9760    0.4380   -1.4270 N   0  0  0  0  0  0  0  0  0  0  0  0
    5.2770    0.2340   -1.9860 C   0  0  0  0  0  0  0  0  0  0  0  0
    6.4110    0.2810   -1.0080 C   0  0  0  0  0  0  0  0  0  0  0  0
    6.3180   -0.6730   -0.0230 O   0  0  0  0  0  0  0  0  0  0  0  0
    2.1060    1.3260    0.5170 C   0  0  0  0  0  0  0  0  0  0  0  0
    3.3220    1.7630    0.6940 O   0  0  0  0  0  0  0  0  0  0  0  0
    1.1400    2.2700    0.8520 N   0  0  0  0  0  0  0  0  0  0  0  0
   -0.0170    2.6940    0.1040 C   0  0  0  0  0  0  0  0  0  0  0  0
   -1.1290    1.7900    0.4950 C   0  0  0  0  0  0  0  0  0  0  0  0
  1  2  1  0
  2  3  2  3
  3  4  1  0
  3 28  1  0
  4  5  2  0
  5  6  1  0
  6  7  2  0
  7  8  1  0
  8  9  2  3
  8 11  1  0
  9 10  1  0
 11 12  1  0
 12 13  2  0
 12 14  1  0
 14 15  2  0
 15 16  1  0
 16 17  1  6
 16 18  1  0
 16 24  1  0
 18 19  2  0
 18 20  1  0
 20 21  1  0
 21 22  1  0
 22 23  1  0
 24 25  2  0
 24 26  1  0
 26 27  1  0
 27 28  1  0
M  END
