
     RDKit          3D

 28 28  0  0  0  0  0  0  0  0999 V2000
    1.2340    0.0350   -7.2110 C   0  0  0  0  0  0  0  0  0  0  0  0
    0.3450   -0.4930   -6.3460 C   0  0  0  0  0  0  0  0  0  0  0  0
    0.7760   -0.8800   -4.9760 C   0  0  0  0  0  0  0  0  0  0  0  0
    0.0070   -0.1180   -4.0040 N   0  0  0  0  0  0  0  0  0  0  0  0
    0.2310   -0.2910   -2.6040 C   0  0  0  0  0  0  0  0  0  0  0  0
    1.1200   -1.1250   -2.2570 O   0  0  0  0  0  0  0  0  0  0  0  0
   -0.5430    0.4690   -1.6540 C   0  0  0  0  0  0  0  0  0  0  0  0
   -0.3060    0.2890   -0.3510 C   0  0  0  0  0  0  0  0  0  0  0  0
    0.6580   -0.6030    0.0490 O   0  0  0  0  0  0  0  0  0  0  0  0
    0.9220   -0.8030    1.3830 C   0  0  0  0  0  0  0  0  0  0  0  0
    1.9570   -1.7680    1.8260 C   0  0  0  0  0  0  0  0  0  0  0  0
    2.6330   -2.4440    0.9280 C   0  0  0  0  0  0  0  0  0  0  0  0
    3.6660   -3.4120    1.2690 C   0  0  0  0  0  0  0  0  0  0  0  0
    4.3130   -4.0580    0.3350 C   0  0  0  0  0  0  0  0  0  0  0  0
    5.3700   -5.0490    0.6540 C   0  0  0  0  0  0  0  0  0  0  0  0
    2.2300   -1.9770    3.1620 O   0  0  0  0  0  0  0  0  0  0  0  0
    1.5070   -3.0040    3.8140 C   0  0  0  0  0  0  0  0  0  0  0  0
    0.2470   -0.1300    2.2700 C   0  0  0  0  0  0  0  0  0  0  0  0
   -0.8140    0.8670    2.0320 C   0  0  1  0  0  0  0  0  0  0  0  0
   -0.3810    2.0910    2.6850 N   0  0  0  0  0  0  0  0  0  0  0  0
   -1.1300    1.0950    0.5980 C   0  0  0  0  0  0  0  0  0  0  0  0
   -1.9570    1.8320    0.1180 N   0  0  0  0  0  0  0  0  0  0  0  0
   -2.9280    2.7180    0.0030 C   0  0  0  0  0  0  0  0  0  0  0  0
   -3.3070    3.0500   -1.1970 O   0  0  0  0  0  0  0  0  0  0  0  0
   -3.6920    3.4320    1.0420 C   0  0  0  0  0  0  0  0  0  0  0  0
   -3.4400    3.2150    2.4740 C   0  0  0  0  0  0  0  0  0  0  0  0
   -4.6530    4.3070    0.7100 C   0  0  0  0  0  0  0  0  0  0  0  0
   -5.4270    5.0290    1.7420 C   0  0  0  0  0  0  0  0  0  0  0  0
  1  2  2  0
  2  3  1  0
  3  4  1  0
  4  5  1  0
  5  6  2  0
  5  7  1  0
  7  8  2  3
  8  9  1  0
  8 21  1  0
  9 10  1  0
 10 11  1  0
 10 18  2  0
 11 12  2  3
 11 16  1  0
 12 13  1  0
 13 14  2  3
 14 15  1  0
 16 17  1  0
 18 19  1  0
 19 20  1  6
 19 21  1  0
 21 22  2  3
 22 23  1  0
 23 24  2  0
 23 25  1  0
 25 26  1  0
 25 27  2  3
 27 28  1  0
M  END
