
     RDKit          3D

 28 29  0  0  0  0  0  0  0  0999 V2000
    6.5160    2.0340    2.0520 C   0  0  0  0  0  0  0  0  0  0  0  0
    5.4180    1.5810    1.2900 O   0  0  0  0  0  0  0  0  0  0  0  0
    5.4220    0.2480    0.8430 C   0  0  0  0  0  0  0  0  0  0  0  0
    6.4780   -0.5750    1.1500 C   0  0  0  0  0  0  0  0  0  0  0  0
    6.5100   -1.8710    0.7310 C   0  0  0  0  0  0  0  0  0  0  0  0
    5.4870   -2.3970   -0.0140 C   0  0  0  0  0  0  0  0  0  0  0  0
    4.4200   -1.5640   -0.3250 C   0  0  0  0  0  0  0  0  0  0  0  0
    4.3650   -0.2600    0.0850 C   0  0  0  0  0  0  0  0  0  0  0  0
    3.3200    0.6090   -0.2070 N   0  0  0  0  0  0  0  0  0  0  0  0
    2.1300    0.3020   -0.9440 C   0  0  0  0  0  0  0  0  0  0  0  0
    1.9420   -0.8290   -1.3940 O   0  0  0  0  0  0  0  0  0  0  0  0
    1.1820    1.4270   -1.1070 C   0  0  0  0  0  0  0  0  0  0  0  0
   -0.1020    1.0920   -1.7740 C   0  0  0  0  0  0  0  0  0  0  0  0
   -0.9500    0.0580   -1.0240 C   0  0  1  0  0  0  0  0  0  0  0  0
   -1.2700    0.5630    0.3050 C   0  0  0  0  0  0  0  0  0  0  0  0
   -1.7140   -0.0830    1.3710 C   0  0  0  0  0  0  0  0  0  0  0  0
   -2.0180   -1.4950    1.5220 C   0  0  0  0  0  0  0  0  0  0  0  0
   -3.1090   -2.1550    1.2320 C   0  0  0  0  0  0  0  0  0  0  0  0
   -4.3720   -1.5900    0.6520 C   0  0  2  0  0  0  0  0  0  0  0  0
   -4.4370   -1.7860   -0.6950 O   0  0  0  0  0  0  0  0  0  0  0  0
   -4.5880   -0.2050    1.1260 C   0  0  0  0  0  0  0  0  0  0  0  0
   -4.8590    0.8640    0.4330 C   0  0  0  0  0  0  0  0  0  0  0  0
   -5.0190    2.0980    1.1770 N   0  0  0  0  0  0  0  0  0  0  0  0
   -5.0260    1.0210   -1.0120 C   0  0  0  0  0  0  0  0  0  0  0  0
   -3.7610    1.6200   -1.6550 C   0  0  0  0  0  0  0  0  0  0  0  0
   -3.0430    0.5820   -2.3860 C   0  0  0  0  0  0  0  0  0  0  0  0
   -3.3660    0.4140   -3.6180 O   0  0  0  0  0  0  0  0  0  0  0  0
   -2.0310   -0.2630   -1.8910 N   0  0  0  0  0  0  0  0  0  0  0  0
  1  2  1  0
  2  3  1  0
  3  4  2  0
  3  8  1  0
  4  5  1  0
  5  6  2  0
  6  7  1  0
  7  8  2  0
  8  9  1  0
  9 10  1  0
 10 11  2  0
 10 12  1  0
 12 13  1  0
 14 13  1  6
 14 15  1  0
 14 28  1  0
 15 16  2  0
 16 17  1  0
 17 18  2  0
 18 19  1  0
 19 20  1  6
 19 21  1  0
 21 22  2  0
 22 23  1  0
 22 24  1  0
 24 25  1  0
 25 26  1  0
 26 27  2  0
 26 28  1  0
M  END
