
     RDKit          3D

 28 29  0  0  0  0  0  0  0  0999 V2000
    8.6390   -0.1870    0.9270 C   0  0  0  0  0  0  0  0  0  0  0  0
    7.1960    0.1890    0.6270 C   0  0  2  0  0  0  0  0  0  0  0  0
    7.0320    1.7010    0.6080 C   0  0  0  0  0  0  0  0  0  0  0  0
    6.3290   -0.2930    1.5750 O   0  0  0  0  0  0  0  0  0  0  0  0
    6.8690   -0.2980   -0.7540 C   0  0  0  0  0  0  0  0  0  0  0  0
    5.5700    0.1210   -1.1670 N   0  0  0  0  0  0  0  0  0  0  0  0
    4.3460   -0.2300   -0.5940 C   0  0  0  0  0  0  0  0  0  0  0  0
    4.2860   -0.9950    0.3800 O   0  0  0  0  0  0  0  0  0  0  0  0
    3.0860    0.3160   -1.1510 C   0  0  0  0  0  0  0  0  0  0  0  0
    1.9290   -0.1650   -0.4230 N   0  0  0  0  0  0  0  0  0  0  0  0
    0.6040    0.1930   -0.7340 C   0  0  0  0  0  0  0  0  0  0  0  0
    0.4020    0.9750   -1.6970 O   0  0  0  0  0  0  0  0  0  0  0  0
   -0.5790   -0.3020    0.0140 C   0  0  2  0  0  0  0  0  0  0  0  0
   -0.6590   -1.8030   -0.1710 C   0  0  0  0  0  0  0  0  0  0  0  0
   -1.8060   -2.3450    0.6050 C   0  0  2  0  0  0  0  0  0  0  0  0
   -1.2380   -3.0340    1.8440 C   0  0  0  0  0  0  0  0  0  0  0  0
   -2.5160   -3.4010   -0.2400 C   0  0  0  0  0  0  0  0  0  0  0  0
   -2.8250   -1.3530    1.0540 C   0  0  0  0  0  0  0  0  0  0  0  0
   -3.0050   -0.2100    0.1580 C   0  0  0  0  0  0  0  0  0  0  0  0
   -4.1400    0.3980   -0.0400 C   0  0  0  0  0  0  0  0  0  0  0  0
   -4.3460    1.5760   -0.9590 C   0  0  0  0  0  0  0  0  0  0  0  0
   -5.7470    2.0420   -0.5840 C   0  0  1  0  0  0  0  0  0  0  0  0
   -5.7530    2.8540    0.6710 C   0  0  0  0  0  0  0  0  0  0  0  0
   -6.4620    2.7100   -1.7120 C   0  0  0  0  0  0  0  0  0  0  0  0
   -6.4560    0.7190   -0.2840 C   0  0  0  0  0  0  0  0  0  0  0  0
   -5.4190    0.0680    0.5770 C   0  0  0  0  0  0  0  0  0  0  0  0
   -5.6460   -0.6130    1.6080 O   0  0  0  0  0  0  0  0  0  0  0  0
   -1.8130    0.2350   -0.5230 N   0  0  0  0  0  0  0  0  0  0  0  0
  2  1  1  1
  2  3  1  0
  2  4  1  0
  2  5  1  0
  5  6  1  0
  6  7  1  0
  7  8  2  0
  7  9  1  0
  9 10  1  0
 10 11  1  0
 11 12  2  0
 13 11  1  6
 13 14  1  0
 13 28  1  0
 14 15  1  0
 15 16  1  1
 15 17  1  0
 15 18  1  0
 18 19  1  0
 19 20  2  3
 19 28  1  0
 20 21  1  0
 20 26  1  0
 21 22  1  0
 22 23  1  1
 22 24  1  0
 22 25  1  0
 25 26  1  0
 26 27  2  0
M  END
