
     RDKit          3D

 16 17  0  0  0  0  0  0  0  0999 V2000
    1.6240   -2.8130    0.4180 C   0  0  0  0  0  0  0  0  0  0  0  0
    0.8180   -1.6060    0.2310 C   0  0  0  0  0  0  0  0  0  0  0  0
   -0.4500   -1.6860    0.1260 N   0  0  0  0  0  0  0  0  0  0  0  0
   -1.3410   -0.6210   -0.0550 C   0  0  0  0  0  0  0  0  0  0  0  0
   -1.4850   -0.0320   -1.2940 C   0  0  0  0  0  0  0  0  0  0  0  0
   -2.3440    1.0190   -1.5340 C   0  0  0  0  0  0  0  0  0  0  0  0
   -2.4740    1.5970   -2.7920 O   0  0  0  0  0  0  0  0  0  0  0  0
   -3.0870    1.4860   -0.4620 C   0  0  0  0  0  0  0  0  0  0  0  0
   -2.9470    0.9030    0.7740 C   0  0  0  0  0  0  0  0  0  0  0  0
   -2.0900   -0.1460    1.0160 C   0  0  0  0  0  0  0  0  0  0  0  0
   -1.9800   -0.7080    2.2900 O   0  0  0  0  0  0  0  0  0  0  0  0
    1.5230   -0.3090    0.1690 C   0  0  0  0  0  0  0  0  0  0  0  0
    2.9000   -0.0790    0.2690 C   0  0  0  0  0  0  0  0  0  0  0  0
    3.3280    1.1770    0.1870 C   0  0  0  0  0  0  0  0  0  0  0  0
    2.5000    2.2190    0.0130 C   0  0  0  0  0  0  0  0  0  0  0  0
    0.8750    1.2820   -0.0410 S   0  0  0  0  0  0  0  0  0  0  0  0
  1  2  1  0
  2  3  2  3
  2 12  1  0
  3  4  1  0
  4  5  2  0
  4 10  1  0
  5  6  1  0
  6  7  1  0
  6  8  2  0
  8  9  1  0
  9 10  2  0
 10 11  1  0
 12 13  2  0
 12 16  1  0
 13 14  1  0
 14 15  2  0
 15 16  1  0
M  END
