
     RDKit          3D

 16 18  0  0  0  0  0  0  0  0999 V2000
    1.5710   -0.7010    2.4520 O   0  0  0  0  0  0  0  0  0  0  0  0
    1.4080   -0.2680    1.2750 C   0  0  0  0  0  0  0  0  0  0  0  0
    2.5720    0.1870    0.5310 C   0  0  0  0  0  0  0  0  0  0  0  0
    2.7680    0.2220   -0.8400 C   0  0  0  0  0  0  0  0  0  0  0  0
    4.0130    0.7260   -1.1470 C   0  0  0  0  0  0  0  0  0  0  0  0
    4.5900    1.0060    0.0820 C   0  0  0  0  0  0  0  0  0  0  0  0
    3.7240    0.6820    1.0520 N   0  0  0  0  0  0  0  0  0  0  0  0
    0.0510   -0.2600    0.7510 C   0  0  0  0  0  0  0  0  0  0  0  0
   -0.4350    0.5080   -0.2610 N   0  0  0  0  0  0  0  0  0  0  0  0
   -1.7390    0.2360   -0.4580 C   0  0  0  0  0  0  0  0  0  0  0  0
   -2.7010    0.7210   -1.3350 C   0  0  0  0  0  0  0  0  0  0  0  0
   -3.9860    0.2430   -1.2930 C   0  0  0  0  0  0  0  0  0  0  0  0
   -4.3270   -0.7230   -0.3760 C   0  0  0  0  0  0  0  0  0  0  0  0
   -3.3640   -1.2130    0.5090 C   0  0  0  0  0  0  0  0  0  0  0  0
   -2.0820   -0.7190    0.4480 C   0  0  0  0  0  0  0  0  0  0  0  0
   -0.9820   -1.0070    1.1720 N   0  0  0  0  0  0  0  0  0  0  0  0
  1  2  2  0
  2  3  1  0
  2  8  1  0
  3  4  2  0
  3  7  1  0
  4  5  1  0
  5  6  2  0
  6  7  1  0
  8  9  2  0
  8 16  1  0
  9 10  1  0
 10 11  2  0
 10 15  1  0
 11 12  1  0
 12 13  2  0
 13 14  1  0
 14 15  2  0
 15 16  1  0
M  END
