
     RDKit          3D

 16 17  0  0  0  0  0  0  0  0999 V2000
   -1.3010   -1.8200   -1.2290 C   0  0  0  0  0  0  0  0  0  0  0  0
   -1.4290   -0.4470   -0.5440 C   0  0  2  0  0  0  0  0  0  0  0  0
   -2.4000   -0.6510    0.5760 C   0  0  0  0  0  0  0  0  0  0  0  0
   -1.9380    0.4770   -1.6300 C   0  0  0  0  0  0  0  0  0  0  0  0
   -0.0500   -0.0720   -0.0790 C   0  0  0  0  0  0  0  0  0  0  0  0
    1.0170   -0.9090   -0.3140 C   0  0  0  0  0  0  0  0  0  0  0  0
    2.3280   -0.5930    0.0970 C   0  0  0  0  0  0  0  0  0  0  0  0
    3.3860   -1.3190   -0.0810 N   0  0  0  0  0  0  0  0  0  0  0  0
    4.5970   -0.9420    0.3430 C   0  0  0  0  0  0  0  0  0  0  0  0
    5.7030   -1.4070    0.3090 O   0  0  0  0  0  0  0  0  0  0  0  0
    4.1710    0.6990    1.1150 S   0  0  0  0  0  0  0  0  0  0  0  0
    2.4200    0.6070    0.7380 C   0  0  0  0  0  0  0  0  0  0  0  0
    1.3740    1.4600    0.9850 C   0  0  0  0  0  0  0  0  0  0  0  0
    0.0800    1.1250    0.5670 C   0  0  0  0  0  0  0  0  0  0  0  0
   -1.0140    2.0520    0.8520 C   0  0  0  0  0  0  0  0  0  0  0  0
   -0.4780    3.1860    1.5310 O   0  0  0  0  0  0  0  0  0  0  0  0
  2  1  1  6
  2  3  1  0
  2  4  1  0
  2  5  1  0
  5  6  2  0
  5 14  1  0
  6  7  1  0
  7  8  1  0
  7 12  2  0
  8  9  1  0
  9 10  2  0
  9 11  1  0
 11 12  1  0
 12 13  1  0
 13 14  2  0
 14 15  1  0
 15 16  1  0
M  END
