
     RDKit          3D

 15 16  0  0  0  0  0  0  0  0999 V2000
    4.5610   -0.4640    0.6280 C   0  0  0  0  0  0  0  0  0  0  0  0
    3.0830   -0.2410    0.5760 C   0  0  0  0  0  0  0  0  0  0  0  0
    2.4880   -0.0270    1.6160 O   0  0  0  0  0  0  0  0  0  0  0  0
    2.3200   -0.2710   -0.6860 C   0  0  0  0  0  0  0  0  0  0  0  0
    0.8950   -0.0130   -0.3640 C   0  0  0  0  0  0  0  0  0  0  0  0
    0.0410   -1.0960   -0.3770 C   0  0  0  0  0  0  0  0  0  0  0  0
   -1.2930   -0.9100   -0.0850 C   0  0  0  0  0  0  0  0  0  0  0  0
   -1.8000    0.3430    0.2230 C   0  0  0  0  0  0  0  0  0  0  0  0
   -0.9100    1.3950    0.2230 C   0  0  0  0  0  0  0  0  0  0  0  0
    0.4340    1.2550   -0.0630 C   0  0  0  0  0  0  0  0  0  0  0  0
    1.3310    2.3580   -0.0560 N   0  0  0  0  0  0  0  0  0  0  0  0
   -3.2550    0.5350    0.5400 C   0  0  0  0  0  0  0  0  0  0  0  0
   -4.0990    0.0650   -0.6440 C   0  0  0  0  0  0  0  0  0  0  0  0
   -3.6450   -1.6300   -1.1150 S   0  0  0  0  0  0  0  0  0  0  0  0
   -2.2330   -2.0900   -0.0960 C   0  0  0  0  0  0  0  0  0  0  0  0
  1  2  1  0
  2  3  2  0
  2  4  1  0
  4  5  1  0
  5  6  2  0
  5 10  1  0
  6  7  1  0
  7  8  2  0
  7 15  1  0
  8  9  1  0
  8 12  1  0
  9 10  2  0
 10 11  1  0
 12 13  1  0
 13 14  1  0
 14 15  1  0
M  END
