
     RDKit          3D

 16 17  0  0  0  0  0  0  0  0999 V2000
    1.7970    2.6770   -0.1550 O   0  0  0  0  0  0  0  0  0  0  0  0
    1.6610    1.4790   -1.0520 S   0  0  2  0  0  0  0  0  0  0  0  0
    2.0720    1.9690   -2.4360 O   0  0  0  0  0  0  0  0  0  0  0  0
    0.0690    0.9100   -1.1650 N   0  0  0  0  0  0  0  0  0  0  0  0
   -0.5120    0.4730    0.0550 C   0  0  2  0  0  0  0  0  0  0  0  0
   -0.9210   -0.9780   -0.0930 C   0  0  0  0  0  0  0  0  0  0  0  0
   -1.7220   -1.4680    1.0740 C   0  0  0  0  0  0  0  0  0  0  0  0
   -3.1480   -1.0450    1.0690 C   0  0  0  0  0  0  0  0  0  0  0  0
   -3.5860   -0.3740   -0.2050 C   0  0  0  0  0  0  0  0  0  0  0  0
   -2.8480    0.8720   -0.5290 C   0  0  0  0  0  0  0  0  0  0  0  0
   -1.7650    1.2330    0.4400 C   0  0  0  0  0  0  0  0  0  0  0  0
    2.7950    0.2800   -0.4950 C   0  0  0  0  0  0  0  0  0  0  0  0
    3.1260    0.0410    0.7530 C   0  0  0  0  0  0  0  0  0  0  0  0
    4.1230   -1.0550    0.8430 C   0  0  0  0  0  0  0  0  0  0  0  0
    4.3270   -1.4250   -0.5760 C   0  0  0  0  0  0  0  0  0  0  0  0
    3.5530   -0.6440   -1.3190 C   0  0  0  0  0  0  0  0  0  0  0  0
  1  2  2  0
  2  3  2  0
  2  4  1  6
  2 12  1  0
  5  4  1  6
  5  6  1  0
  5 11  1  0
  6  7  1  0
  7  8  1  0
  8  9  1  0
  9 10  1  0
 10 11  1  0
 12 13  2  0
 12 16  1  0
 13 14  1  0
 14 15  1  0
 15 16  2  0
M  END
