
     RDKit          3D

 28 30  0  0  0  0  0  0  0  0999 V2000
    3.8540   -3.0500    0.2230 C   0  0  0  0  0  0  0  0  0  0  0  0
    5.0000   -2.4920   -0.0210 C   0  0  0  0  0  0  0  0  0  0  0  0
    6.5060   -3.3720    0.3420 S   0  0  0  0  0  0  0  0  0  0  0  0
    7.8380   -2.3030   -0.1890 C   0  0  0  0  0  0  0  0  0  0  0  0
    7.5350   -1.1260   -0.7030 C   0  0  0  0  0  0  0  0  0  0  0  0
    6.2220   -0.5840   -0.8960 C   0  0  0  0  0  0  0  0  0  0  0  0
    5.0920   -1.1680   -0.6000 C   0  0  0  0  0  0  0  0  0  0  0  0
    3.8880   -0.4080   -0.8760 N   0  0  0  0  0  0  0  0  0  0  0  0
    3.0560   -0.0190    0.1810 C   0  0  0  0  0  0  0  0  0  0  0  0
    3.3670   -0.3300    1.3590 O   0  0  0  0  0  0  0  0  0  0  0  0
    1.8120    0.7500   -0.0080 C   0  0  0  0  0  0  0  0  0  0  0  0
    1.4380    1.1090   -1.1590 O   0  0  0  0  0  0  0  0  0  0  0  0
    0.9950    1.1110    1.0920 N   0  0  0  0  0  0  0  0  0  0  0  0
   -0.1820    1.8390    0.9270 N   0  0  0  0  0  0  0  0  0  0  0  0
   -0.2090    3.0980    0.2850 C   0  0  0  0  0  0  0  0  0  0  0  0
    0.8620    3.5670   -0.1430 O   0  0  0  0  0  0  0  0  0  0  0  0
   -1.4450    3.8930    0.0940 C   0  0  0  0  0  0  0  0  0  0  0  0
   -2.6180    3.2330    0.6160 N   0  0  0  0  0  0  0  0  0  0  0  0
   -3.1240    2.0270    0.0930 C   0  0  0  0  0  0  0  0  0  0  0  0
   -2.7060    1.3270   -1.0150 C   0  0  0  0  0  0  0  0  0  0  0  0
   -3.4540    0.2570   -1.1290 O   0  0  0  0  0  0  0  0  0  0  0  0
   -4.3480    0.1820   -0.1760 C   0  0  0  0  0  0  0  0  0  0  0  0
   -5.3390   -0.9000   -0.0220 C   0  0  0  0  0  0  0  0  0  0  0  0
   -5.5120   -1.9770   -0.7990 N   0  0  0  0  0  0  0  0  0  0  0  0
   -6.5160   -2.7380   -0.3320 C   0  0  0  0  0  0  0  0  0  0  0  0
   -7.0050   -2.1040    0.8040 C   0  0  0  0  0  0  0  0  0  0  0  0
   -6.2580   -0.9800    0.9620 N   0  0  0  0  0  0  0  0  0  0  0  0
   -4.1740    1.2820    0.6190 C   0  0  0  0  0  0  0  0  0  0  0  0
  1  2  2  0
  2  3  1  0
  2  7  1  0
  3  4  1  0
  4  5  2  0
  5  6  1  0
  6  7  2  0
  7  8  1  0
  8  9  1  0
  9 10  2  0
  9 11  1  0
 11 12  2  0
 11 13  1  0
 13 14  1  0
 14 15  1  0
 15 16  2  0
 15 17  1  0
 17 18  1  0
 18 19  1  0
 19 20  2  0
 19 28  1  0
 20 21  1  0
 21 22  1  0
 22 23  1  0
 22 28  2  0
 23 24  1  0
 23 27  2  0
 24 25  1  0
 25 26  2  0
 26 27  1  0
M  CHG  1  27   1
M  END
