
     RDKit          3D

 16 17  0  0  0  0  0  0  0  0999 V2000
   -1.4830    2.0070    0.4880 N   0  0  0  0  0  0  0  0  0  0  0  0
   -2.1220    0.8090    0.1030 C   0  0  0  0  0  0  0  0  0  0  0  0
   -3.5200    0.7490    0.0010 C   0  0  0  0  0  0  0  0  0  0  0  0
   -4.1440   -0.4040   -0.3680 C   0  0  0  0  0  0  0  0  0  0  0  0
   -3.3770   -1.5170   -0.6410 C   0  0  0  0  0  0  0  0  0  0  0  0
   -1.9830   -1.4590   -0.5400 C   0  0  0  0  0  0  0  0  0  0  0  0
   -1.3460   -0.2960   -0.1670 C   0  0  0  0  0  0  0  0  0  0  0  0
    0.1050   -0.2190   -0.0600 C   0  0  0  0  0  0  0  0  0  0  0  0
    0.7980    0.8550   -0.6150 C   0  0  0  0  0  0  0  0  0  0  0  0
    2.1670    0.9280   -0.5110 C   0  0  0  0  0  0  0  0  0  0  0  0
    2.8990   -0.0240    0.1240 C   0  0  0  0  0  0  0  0  0  0  0  0
    4.6270   -0.0040    0.2970 S   0  0  1  0  0  0  0  0  0  0  0  0
    5.2960    0.8290   -0.7510 O   0  0  0  0  0  0  0  0  0  0  0  0
    5.0660    0.4630    1.6570 O   0  0  0  0  0  0  0  0  0  0  0  0
    2.2170   -1.0970    0.6790 C   0  0  0  0  0  0  0  0  0  0  0  0
    0.8510   -1.1800    0.5820 C   0  0  0  0  0  0  0  0  0  0  0  0
  1  2  1  0
  2  3  2  0
  2  7  1  0
  3  4  1  0
  4  5  2  0
  5  6  1  0
  6  7  2  0
  7  8  1  0
  8  9  2  0
  8 16  1  0
  9 10  1  0
 10 11  2  0
 12 11  1  1
 11 15  1  0
 12 13  2  0
 12 14  2  0
 15 16  2  0
M  END
