
     RDKit          3D

 28 31  0  0  0  0  0  0  0  0999 V2000
    6.8910    0.7460    1.6240 C   0  0  0  0  0  0  0  0  0  0  0  0
    6.1500   -0.3170    0.9200 N   0  0  0  0  0  0  0  0  0  0  0  0
    4.7730   -0.2370    1.1930 C   0  0  0  0  0  0  0  0  0  0  0  0
    4.3280   -0.1330    2.4820 N   0  0  0  0  0  0  0  0  0  0  0  0
    3.0270   -0.0580    2.7900 C   0  0  0  0  0  0  0  0  0  0  0  0
    2.5680    0.0300    4.1430 N   0  0  0  0  0  0  0  0  0  0  0  0
    2.0830   -0.0810    1.8280 N   0  0  0  0  0  0  0  0  0  0  0  0
    2.4850   -0.1830    0.5500 C   0  0  0  0  0  0  0  0  0  0  0  0
    1.4870   -0.2200   -0.4290 C   0  0  0  0  0  0  0  0  0  0  0  0
    0.1900   -0.1330   -0.0150 N   0  0  0  0  0  0  0  0  0  0  0  0
   -1.0290   -0.2250   -0.8490 C   0  0  0  0  0  0  0  0  0  0  0  0
   -0.9160   -0.3890   -1.9990 O   0  0  0  0  0  0  0  0  0  0  0  0
   -2.1550   -0.0820    0.0170 N   0  0  0  0  0  0  0  0  0  0  0  0
   -3.3700   -0.3690   -1.1950 C   0  0  0  0  0  0  0  0  0  0  0  0
   -2.9500   -0.6280   -2.2290 O   0  0  0  0  0  0  0  0  0  0  0  0
   -4.6860   -0.2200   -0.6450 C   0  0  0  0  0  0  0  0  0  0  0  0
   -5.1020   -0.2450    0.6710 C   0  0  0  0  0  0  0  0  0  0  0  0
   -6.3730   -0.0400    0.6840 O   0  0  0  0  0  0  0  0  0  0  0  0
   -6.8800    0.1280   -0.5310 C   0  0  0  0  0  0  0  0  0  0  0  0
   -5.8380    0.0180   -1.3830 C   0  0  0  0  0  0  0  0  0  0  0  0
   -6.4650    0.2230   -3.0230 S   0  0  0  0  0  0  0  0  0  0  0  0
   -8.1210    0.8780   -2.5260 C   0  0  0  0  0  0  0  0  0  0  0  0
   -8.1640    0.3780   -1.1300 C   0  0  0  0  0  0  0  0  0  0  0  0
   -9.3150    0.2110   -0.5790 O   0  0  0  0  0  0  0  0  0  0  0  0
    1.8640   -0.3370   -1.7490 C   0  0  0  0  0  0  0  0  0  0  0  0
    3.1880   -0.4160   -2.1010 C   0  0  0  0  0  0  0  0  0  0  0  0
    4.1300   -0.3790   -1.1340 C   0  0  0  0  0  0  0  0  0  0  0  0
    3.8040   -0.2610    0.2080 C   0  0  0  0  0  0  0  0  0  0  0  0
  1  2  1  0
  2  3  1  0
  3  4  2  0
  3 28  1  0
  4  5  1  0
  5  6  1  0
  5  7  2  0
  7  8  1  0
  8  9  2  0
  8 28  1  0
  9 10  1  0
  9 25  1  0
 10 11  1  0
 11 12  2  0
 11 13  1  0
 13 14  1  0
 14 15  2  0
 14 16  1  0
 16 17  2  0
 16 20  1  0
 17 18  1  0
 18 19  1  0
 19 20  2  0
 19 23  1  0
 20 21  1  0
 21 22  1  0
 22 23  1  0
 23 24  2  0
 25 26  2  0
 26 27  1  0
 27 28  2  0
M  CHG  1   2   1
M  END
