
     RDKit          3D

 18 19  0  0  0  0  0  0  0  0999 V2000
   -0.6000    3.5430   -0.0660 C   0  0  0  0  0  0  0  0  0  0  0  0
   -1.3320    2.6580   -1.1010 C   0  0  0  0  0  0  0  0  0  0  0  0
   -1.9950    1.6000   -0.2960 C   0  0  0  0  0  0  0  0  0  0  0  0
   -3.1990    1.6650    0.1450 O   0  0  0  0  0  0  0  0  0  0  0  0
   -3.4800    0.5860    0.7910 N   0  0  0  0  0  0  0  0  0  0  0  0
   -2.3750   -0.2460    0.7730 C   0  0  0  0  0  0  0  0  0  0  0  0
   -2.5380   -1.6070    1.3540 C   0  0  0  0  0  0  0  0  0  0  0  0
   -3.1670   -2.4590    0.2610 C   0  0  0  0  0  0  0  0  0  0  0  0
   -2.4200   -2.6080   -0.8660 O   0  0  0  0  0  0  0  0  0  0  0  0
   -1.3840    0.3850    0.0740 C   0  0  0  0  0  0  0  0  0  0  0  0
   -0.1140   -0.1610   -0.4040 C   0  0  0  0  0  0  0  0  0  0  0  0
    1.0030    0.0690    0.4910 N   0  0  0  0  0  0  0  0  0  0  0  0
    2.3260   -0.3920    0.1800 C   0  0  0  0  0  0  0  0  0  0  0  0
    3.3660    0.1010    0.8090 C   0  0  0  0  0  0  0  0  0  0  0  0
    4.8000   -0.2030    0.6810 C   0  0  0  0  0  0  0  0  0  0  0  0
    5.1080   -1.2420   -0.7530 S   0  0  0  0  0  0  0  0  0  0  0  0
    3.5830   -1.7500   -1.3990 N   0  0  0  0  0  0  0  0  0  0  0  0
    2.5290   -1.3340   -0.9430 C   0  0  0  0  0  0  0  0  0  0  0  0
  1  2  1  0
  2  3  1  0
  3  4  1  0
  3 10  2  0
  4  5  1  0
  5  6  2  0
  6  7  1  0
  6 10  1  0
  7  8  1  0
  8  9  1  0
 10 11  1  0
 11 12  1  0
 12 13  1  0
 13 14  2  0
 13 18  1  0
 14 15  1  0
 15 16  1  0
 16 17  1  0
 17 18  2  0
M  CHG  1  17   1
M  END
