
     RDKit          3D

 23 25  0  0  0  0  0  0  0  0999 V2000
    6.6890   -0.1060   -1.2920 C   0  0  0  0  0  0  0  0  0  0  0  0
    6.0750   -0.7170   -0.0450 C   0  0  0  0  0  0  0  0  0  0  0  0
    4.6450   -0.3270    0.0680 C   0  0  0  0  0  0  0  0  0  0  0  0
    3.6370   -1.2150   -0.2370 C   0  0  0  0  0  0  0  0  0  0  0  0
    2.2800   -0.8850   -0.1430 C   0  0  0  0  0  0  0  0  0  0  0  0
    1.9310    0.3590    0.2650 C   0  0  0  0  0  0  0  0  0  0  0  0
    0.6260    0.8750    0.4260 N   0  0  0  0  0  0  0  0  0  0  0  0
   -0.6020    0.1890    0.2370 C   0  0  0  0  0  0  0  0  0  0  0  0
   -0.5300   -1.0130   -0.1100 O   0  0  0  0  0  0  0  0  0  0  0  0
   -1.9020    0.8400    0.4360 C   0  0  0  0  0  0  0  0  0  0  0  0
   -2.0750    2.1280    0.7450 N   0  0  0  0  0  0  0  0  0  0  0  0
   -3.2920    2.6930    0.9200 C   0  0  0  0  0  0  0  0  0  0  0  0
   -3.3200    3.9140    1.2090 O   0  0  0  0  0  0  0  0  0  0  0  0
   -4.4240    1.9250    0.7780 C   0  0  0  0  0  0  0  0  0  0  0  0
   -4.3030    0.6070    0.4630 C   0  0  0  0  0  0  0  0  0  0  0  0
   -3.0510    0.0490    0.2890 C   0  0  0  0  0  0  0  0  0  0  0  0
   -3.2230   -1.3570   -0.0380 C   0  0  2  0  0  0  0  0  0  0  0  0
   -3.3170   -1.4710   -1.5600 C   0  0  0  0  0  0  0  0  0  0  0  0
   -4.5450   -1.7020    0.4470 N   0  0  0  0  0  0  0  0  0  0  0  0
   -5.3140   -0.4680    0.2480 C   0  0  0  0  0  0  0  0  0  0  0  0
    2.9680    1.2540    0.5730 C   0  0  0  0  0  0  0  0  0  0  0  0
    4.2970    0.9430    0.4840 C   0  0  0  0  0  0  0  0  0  0  0  0
    5.2700    1.8360    0.7910 F   0  0  0  0  0  0  0  0  0  0  0  0
  1  2  1  0
  2  3  1  0
  3  4  2  0
  3 22  1  0
  4  5  1  0
  5  6  2  0
  6  7  1  0
  6 21  1  0
  7  8  1  0
  8  9  2  0
  8 10  1  0
 10 11  1  0
 10 16  2  0
 11 12  1  0
 12 13  2  0
 12 14  1  0
 14 15  2  0
 15 16  1  0
 15 20  1  0
 16 17  1  0
 17 18  1  6
 17 19  1  0
 19 20  1  0
 21 22  2  0
 22 23  1  0
M  CHG  1  19   1
M  END
