
     RDKit          3D

 18 19  0  0  0  0  0  0  0  0999 V2000
   -4.3050    1.4120   -1.0400 C   0  0  0  0  0  0  0  0  0  0  0  0
   -4.6300    0.0610   -0.4580 C   0  0  0  0  0  0  0  0  0  0  0  0
   -3.3480   -0.6540   -0.1520 C   0  0  2  0  0  0  0  0  0  0  0  0
   -3.5950   -2.0300    0.4390 C   0  0  0  0  0  0  0  0  0  0  0  0
   -2.5830    0.1540    0.7730 N   0  0  0  0  0  0  0  0  0  0  0  0
   -1.3030    0.6270    0.4160 C   0  0  0  0  0  0  0  0  0  0  0  0
   -0.7780    0.3730   -0.6990 O   0  0  0  0  0  0  0  0  0  0  0  0
   -0.5720    1.4530    1.4150 C   0  0  0  0  0  0  0  0  0  0  0  0
    1.0380    1.9370    0.7260 S   0  0  0  0  0  0  0  0  0  0  0  0
    2.0300    0.4510    0.5340 C   0  0  0  0  0  0  0  0  0  0  0  0
    1.6750   -0.8500    0.8440 C   0  0  0  0  0  0  0  0  0  0  0  0
    2.7370   -1.6060    0.5260 N   0  0  0  0  0  0  0  0  0  0  0  0
    3.7280   -0.8420    0.0370 C   0  0  0  0  0  0  0  0  0  0  0  0
    3.3330    0.4760    0.0200 C   0  0  0  0  0  0  0  0  0  0  0  0
    4.1640    1.4630   -0.4350 O   0  0  0  0  0  0  0  0  0  0  0  0
    5.4480    1.2230   -0.9100 C   0  0  0  0  0  0  0  0  0  0  0  0
    5.8000   -0.1940   -0.8620 C   0  0  0  0  0  0  0  0  0  0  0  0
    5.0460   -1.1130   -0.4450 N   0  0  0  0  0  0  0  0  0  0  0  0
  1  2  1  0
  2  3  1  0
  3  4  1  1
  3  5  1  0
  5  6  1  0
  6  7  2  0
  6  8  1  0
  8  9  1  0
  9 10  1  0
 10 11  2  0
 10 14  1  0
 11 12  1  0
 12 13  1  0
 13 14  2  0
 13 18  1  0
 14 15  1  0
 15 16  1  0
 16 17  1  0
 17 18  2  0
M  CHG  1  18   1
M  END
