
     RDKit          3D

 18 19  0  0  0  0  0  0  0  0999 V2000
    5.5330    1.3680   -0.7670 O   0  0  0  0  0  0  0  0  0  0  0  0
    4.9920    1.9610    0.4970 S   0  0  2  0  0  0  0  0  0  0  0  0
    6.0910    2.1380    1.5030 O   0  0  0  0  0  0  0  0  0  0  0  0
    3.7500    1.0280    1.1860 N   0  0  0  0  0  0  0  0  0  0  0  0
    3.0140    0.2940    0.1830 C   0  0  0  0  0  0  0  0  0  0  0  0
    1.8990   -0.5400    0.8260 C   0  0  0  0  0  0  0  0  0  0  0  0
    1.1590   -1.2920   -0.2600 C   0  0  0  0  0  0  0  0  0  0  0  0
    0.5510   -0.4630   -1.2320 N   0  0  0  0  0  0  0  0  0  0  0  0
    1.2220   -0.0070   -2.3310 C   0  0  0  0  0  0  0  0  0  0  0  0
    0.3340    0.7750   -3.0270 C   0  0  0  0  0  0  0  0  0  0  0  0
   -0.8110    0.7670   -2.3490 N   0  0  0  0  0  0  0  0  0  0  0  0
   -0.7060    0.0020   -1.2240 C   0  0  0  0  0  0  0  0  0  0  0  0
   -1.7940   -0.2130   -0.2970 C   0  0  2  0  0  0  0  0  0  0  0  0
   -1.5570    0.2310    1.1280 C   0  0  0  0  0  0  0  0  0  0  0  0
   -2.9110    0.4910    1.7630 C   0  0  0  0  0  0  0  0  0  0  0  0
   -4.0350   -0.0930    0.9760 C   0  0  0  0  0  0  0  0  0  0  0  0
   -3.7600   -1.4440    0.4140 C   0  0  0  0  0  0  0  0  0  0  0  0
   -2.3850   -1.5810   -0.2340 C   0  0  0  0  0  0  0  0  0  0  0  0
  1  2  2  0
  2  3  2  0
  2  4  1  1
  4  5  1  0
  5  6  1  0
  6  7  1  0
  7  8  1  0
  8  9  1  0
  8 12  1  0
  9 10  2  0
 10 11  1  0
 11 12  2  0
 13 12  1  6
 13 14  1  0
 13 18  1  0
 14 15  1  0
 15 16  1  0
 16 17  1  0
 17 18  1  0
M  CHG  1  11   1
M  END
