
     RDKit          3D

 23 25  0  0  0  0  0  0  0  0999 V2000
   -3.9950    2.7140   -0.1350 C   0  0  0  0  0  0  0  0  0  0  0  0
   -3.7500    1.8260    1.0840 C   0  0  0  0  0  0  0  0  0  0  0  0
   -2.3110    1.4020    1.1070 C   0  0  0  0  0  0  0  0  0  0  0  0
   -1.8860    0.6370   -0.0880 C   0  0  1  0  0  0  0  0  0  0  0  0
   -0.4940    0.2800   -0.0010 O   0  0  0  0  0  0  0  0  0  0  0  0
    0.4630    0.7330   -0.8630 C   0  0  0  0  0  0  0  0  0  0  0  0
    0.1330    1.5020   -1.7860 O   0  0  0  0  0  0  0  0  0  0  0  0
    1.8540    0.2890   -0.6620 C   0  0  0  0  0  0  0  0  0  0  0  0
    2.1870   -0.5630    0.3680 C   0  0  0  0  0  0  0  0  0  0  0  0
    3.4840   -0.9800    0.5590 C   0  0  0  0  0  0  0  0  0  0  0  0
    3.9330   -2.0600    1.8590 Cl  0  0  0  0  0  0  0  0  0  0  0  0
    4.4950   -0.5490   -0.2880 C   0  0  0  0  0  0  0  0  0  0  0  0
    4.1620    0.2960   -1.3090 C   0  0  0  0  0  0  0  0  0  0  0  0
    2.8670    0.7050   -1.4900 C   0  0  0  0  0  0  0  0  0  0  0  0
    5.4070    0.5740   -2.0200 C   0  0  0  0  0  0  0  0  0  0  0  0
    6.3920   -0.0380   -1.4860 N   0  0  0  0  0  0  0  0  0  0  0  0
    5.9490   -0.7990   -0.3600 C   0  0  1  0  0  0  0  0  0  0  0  0
    6.6080   -0.4090    0.8720 N   0  0  0  0  0  0  0  0  0  0  0  0
   -2.6030   -0.6290   -0.3930 C   0  0  1  0  0  0  0  0  0  0  0  0
   -2.3370   -1.7230    0.6200 C   0  0  0  0  0  0  0  0  0  0  0  0
   -3.7100   -2.1030    1.1370 C   0  0  0  0  0  0  0  0  0  0  0  0
   -4.5590   -1.8500   -0.1070 C   0  0  0  0  0  0  0  0  0  0  0  0
   -4.0090   -0.5810   -0.5550 N   0  0  0  0  0  0  0  0  0  0  0  0
  1  2  1  0
  2  3  1  0
  4  3  1  1
  4  5  1  0
  4 19  1  0
  5  6  1  0
  6  7  2  0
  6  8  1  0
  8  9  2  0
  8 14  1  0
  9 10  1  0
 10 11  1  0
 10 12  2  0
 12 13  1  0
 12 17  1  0
 13 14  2  0
 13 15  1  0
 15 16  2  0
 16 17  1  0
 17 18  1  1
 19 20  1  1
 19 23  1  0
 20 21  1  0
 21 22  1  0
 22 23  1  0
M  CHG  1  18   1
M  END
