
     RDKit          3D

 24 25  0  0  0  0  0  0  0  0999 V2000
   -3.0530    0.7910   -2.6050 N   0  0  0  0  0  0  0  0  0  0  0  0
   -2.3700    0.2490   -1.4120 C   0  0  0  0  0  0  0  0  0  0  0  0
   -2.7260    0.8080   -0.3140 C   0  0  0  0  0  0  0  0  0  0  0  0
   -3.7570    1.9100   -0.4190 C   0  0  0  0  0  0  0  0  0  0  0  0
   -4.3820    2.3690    0.6450 C   0  0  0  0  0  0  0  0  0  0  0  0
   -4.1880    1.9070    2.0270 C   0  0  0  0  0  0  0  0  0  0  0  0
   -3.6780    0.4870    1.9430 C   0  0  0  0  0  0  0  0  0  0  0  0
   -2.3810    0.5740    1.0990 C   0  0  0  0  0  0  0  0  0  0  0  0
   -1.3660   -0.7520   -1.7660 C   0  0  0  0  0  0  0  0  0  0  0  0
   -1.2710   -1.1720   -2.9990 C   0  0  0  0  0  0  0  0  0  0  0  0
   -0.3610   -2.0920   -3.3760 F   0  0  0  0  0  0  0  0  0  0  0  0
   -2.3450   -0.5850   -4.3050 Cl  0  0  0  0  0  0  0  0  0  0  0  0
   -0.4230   -1.3270   -0.7310 C   0  0  1  0  0  0  0  0  0  0  0  0
    0.3690   -2.4770   -1.3000 C   0  0  0  0  0  0  0  0  0  0  0  0
    1.2570   -3.1350   -0.3360 N   0  0  0  0  0  0  0  0  0  0  0  0
    0.4810   -0.2060   -0.2710 C   0  0  0  0  0  0  0  0  0  0  0  0
    1.3360   -0.5920    0.8400 C   0  0  0  0  0  0  0  0  0  0  0  0
    0.9330   -1.3160    1.7780 O   0  0  0  0  0  0  0  0  0  0  0  0
    2.7140   -0.1730    0.9520 N   0  0  0  0  0  0  0  0  0  0  0  0
    3.6770   -0.4620    1.9670 C   0  0  0  0  0  0  0  0  0  0  0  0
    4.9600    0.1370    1.5050 C   0  0  0  0  0  0  0  0  0  0  0  0
    4.5480    1.2570    0.5970 C   0  0  2  0  0  0  0  0  0  0  0  0
    4.2250    2.3990    1.3220 O   0  0  0  0  0  0  0  0  0  0  0  0
    3.3150    0.6840   -0.0740 C   0  0  0  0  0  0  0  0  0  0  0  0
  1  2  1  0
  2  3  2  3
  2  9  1  0
  3  4  1  0
  3  8  1  0
  4  5  2  0
  5  6  1  0
  6  7  1  0
  7  8  1  0
  9 10  2  3
  9 13  1  0
 10 11  1  0
 10 12  1  0
 13 14  1  6
 13 16  1  0
 14 15  1  0
 16 17  1  0
 17 18  2  0
 17 19  1  0
 19 20  1  0
 19 24  1  0
 20 21  1  0
 21 22  1  0
 22 23  1  1
 22 24  1  0
M  CHG  1  15   1
M  END
