
     RDKit          3D

 24 26  0  0  0  0  0  0  0  0999 V2000
   -4.9860   -1.0750   -0.4430 N   0  0  0  0  0  0  0  0  0  0  0  0
   -3.8290   -0.8510   -1.2180 C   0  0  0  0  0  0  0  0  0  0  0  0
   -3.6070   -1.8270   -2.1800 F   0  0  0  0  0  0  0  0  0  0  0  0
   -2.9930    0.1530   -1.1060 C   0  0  0  0  0  0  0  0  0  0  0  0
   -1.8340    0.1380   -2.0710 C   0  0  0  0  0  0  0  0  0  0  0  0
   -0.6230    0.0720   -1.2050 N   0  0  0  0  0  0  0  0  0  0  0  0
    0.2600   -0.9640   -1.4570 C   0  0  0  0  0  0  0  0  0  0  0  0
    0.0010   -1.7700   -2.4610 O   0  0  0  0  0  0  0  0  0  0  0  0
    1.4780   -1.2770   -0.7170 C   0  0  1  0  0  0  0  0  0  0  0  0
    2.7190   -1.1800   -1.6480 C   0  0  0  0  0  0  0  0  0  0  0  0
    3.9410   -1.5050   -0.8290 C   0  0  0  0  0  0  0  0  0  0  0  0
    4.0200   -0.6690    0.3740 C   0  0  0  0  0  0  0  0  0  0  0  0
    5.2600   -0.3890    0.9260 C   0  0  0  0  0  0  0  0  0  0  0  0
    5.3480    0.3900    2.0540 C   0  0  0  0  0  0  0  0  0  0  0  0
    4.2030    0.8810    2.6190 C   0  0  0  0  0  0  0  0  0  0  0  0
    4.2940    1.8740    4.0540 Cl  0  0  0  0  0  0  0  0  0  0  0  0
    2.9640    0.6180    2.0900 C   0  0  0  0  0  0  0  0  0  0  0  0
    2.8780   -0.1700    0.9510 C   0  0  0  0  0  0  0  0  0  0  0  0
    1.6570   -0.4560    0.3900 O   0  0  0  0  0  0  0  0  0  0  0  0
   -0.4010    1.0330   -0.1800 C   0  0  0  0  0  0  0  0  0  0  0  0
   -1.0630    0.5220    1.0760 C   0  0  0  0  0  0  0  0  0  0  0  0
   -2.5060    0.9130    1.2160 C   0  0  0  0  0  0  0  0  0  0  0  0
   -3.2150    1.1860   -0.0890 C   0  0  2  0  0  0  0  0  0  0  0  0
   -4.6140    1.4200    0.2360 N   0  0  0  0  0  0  0  0  0  0  0  0
  1  2  1  0
  2  3  1  0
  2  4  2  3
  4  5  1  0
  4 23  1  0
  5  6  1  0
  6  7  1  0
  6 20  1  0
  7  8  2  0
  9  7  1  6
  9 10  1  0
  9 19  1  0
 10 11  1  0
 11 12  1  0
 12 13  2  0
 12 18  1  0
 13 14  1  0
 14 15  2  0
 15 16  1  0
 15 17  1  0
 17 18  2  0
 18 19  1  0
 20 21  1  0
 21 22  1  0
 22 23  1  0
 23 24  1  1
M  CHG  1  24   1
M  END
