
     RDKit          3D

 17 19  0  0  0  0  0  0  0  0999 V2000
    4.4160    0.2060    1.4870 C   0  0  0  0  0  0  0  0  0  0  0  0
    3.2920   -0.1120    0.5780 C   0  0  0  0  0  0  0  0  0  0  0  0
    1.9800    0.2090    0.9140 C   0  0  0  0  0  0  0  0  0  0  0  0
    0.9620   -0.1100    0.0300 C   0  0  0  0  0  0  0  0  0  0  0  0
   -0.3450    0.2000    0.3430 C   0  0  0  0  0  0  0  0  0  0  0  0
   -1.3820   -0.1030   -0.5130 C   0  0  0  0  0  0  0  0  0  0  0  0
   -2.7720    0.2420   -0.1470 C   0  0  0  0  0  0  0  0  0  0  0  0
   -3.8570    0.0140   -0.8650 C   0  0  0  0  0  0  0  0  0  0  0  0
   -5.0430    0.5160   -0.1350 C   0  0  0  0  0  0  0  0  0  0  0  0
   -4.4760    1.0710    1.1170 C   0  0  0  0  0  0  0  0  0  0  0  0
   -3.1670    0.8950    1.0730 C   0  0  0  0  0  0  0  0  0  0  0  0
   -1.0790   -0.7260   -1.6970 C   0  0  0  0  0  0  0  0  0  0  0  0
    0.1960   -1.0340   -2.0150 N   0  0  0  0  0  0  0  0  0  0  0  0
    1.2170   -0.7370   -1.1720 C   0  0  0  0  0  0  0  0  0  0  0  0
    2.5170   -1.0500   -1.4950 C   0  0  0  0  0  0  0  0  0  0  0  0
    3.5560   -0.7380   -0.6190 C   0  0  0  0  0  0  0  0  0  0  0  0
    4.8520   -1.0660   -0.9720 O   0  0  0  0  0  0  0  0  0  0  0  0
  1  2  1  0
  2  3  2  0
  2 16  1  0
  3  4  1  0
  4  5  2  0
  4 14  1  0
  5  6  1  0
  6  7  1  0
  6 12  2  0
  7  8  2  0
  7 11  1  0
  8  9  1  0
  9 10  1  0
 10 11  2  0
 12 13  1  0
 13 14  2  0
 14 15  1  0
 15 16  2  0
 16 17  1  0
M  END
