
     RDKit          3D

 17 18  0  0  0  0  0  0  0  0999 V2000
    4.4520   -1.3750   -0.8730 C   0  0  0  0  0  0  0  0  0  0  0  0
    3.2280   -0.8870   -0.6300 C   0  0  0  0  0  0  0  0  0  0  0  0
    2.6180    0.0880   -1.4810 C   0  0  0  0  0  0  0  0  0  0  0  0
    1.4850    0.6570   -1.4500 C   0  0  0  0  0  0  0  0  0  0  0  0
    0.3410    0.5720   -0.5910 C   0  0  0  0  0  0  0  0  0  0  0  0
   -0.3120    1.8110   -0.3350 C   0  0  0  0  0  0  0  0  0  0  0  0
    0.2960    3.0320   -0.9160 C   0  0  0  0  0  0  0  0  0  0  0  0
   -1.4430    1.8310    0.4180 C   0  0  0  0  0  0  0  0  0  0  0  0
   -2.0160    0.7070    0.9640 C   0  0  0  0  0  0  0  0  0  0  0  0
   -3.1580    0.7610    1.7330 C   0  0  0  0  0  0  0  0  0  0  0  0
   -3.6550   -0.4360    2.2490 C   0  0  0  0  0  0  0  0  0  0  0  0
   -3.0260   -1.6330    1.9990 C   0  0  0  0  0  0  0  0  0  0  0  0
   -3.5190   -2.6770    2.4910 O   0  0  0  0  0  0  0  0  0  0  0  0
   -1.8950   -1.6360    1.2310 N   0  0  0  0  0  0  0  0  0  0  0  0
   -1.3990   -0.5000    0.7230 C   0  0  0  0  0  0  0  0  0  0  0  0
   -0.2250   -0.5500   -0.0580 C   0  0  0  0  0  0  0  0  0  0  0  0
    0.2850   -1.8890   -0.4320 C   0  0  0  0  0  0  0  0  0  0  0  0
  1  2  2  0
  2  3  1  0
  3  4  2  3
  4  5  1  0
  5  6  2  0
  5 16  1  0
  6  7  1  0
  6  8  1  0
  8  9  2  0
  9 10  1  0
  9 15  1  0
 10 11  2  0
 11 12  1  0
 12 13  2  0
 12 14  1  0
 14 15  1  0
 15 16  2  0
 16 17  1  0
M  END
