
     RDKit          3D

 17 19  0  0  0  0  0  0  0  0999 V2000
   -3.5460    2.3230    0.8090 O   0  0  0  0  0  0  0  0  0  0  0  0
   -2.3950    1.8360    0.6750 C   0  0  0  0  0  0  0  0  0  0  0  0
   -1.3280    2.5460    1.0700 N   0  0  0  0  0  0  0  0  0  0  0  0
   -0.1170    1.9960    0.9140 C   0  0  0  0  0  0  0  0  0  0  0  0
    0.0490    0.7170    0.3560 C   0  0  0  0  0  0  0  0  0  0  0  0
    1.3650    0.1330    0.2370 C   0  0  0  0  0  0  0  0  0  0  0  0
    2.3570    0.7870   -0.4620 C   0  0  0  0  0  0  0  0  0  0  0  0
    3.6470    0.3170   -0.5960 C   0  0  0  0  0  0  0  0  0  0  0  0
    3.9370   -0.8890    0.0200 C   0  0  0  0  0  0  0  0  0  0  0  0
    2.9600   -1.5590    0.7240 C   0  0  0  0  0  0  0  0  0  0  0  0
    1.6810   -1.0610    0.8390 C   0  0  0  0  0  0  0  0  0  0  0  0
   -1.0450   -0.0210   -0.0550 C   0  0  0  0  0  0  0  0  0  0  0  0
   -0.9500   -1.2760   -0.6220 C   0  0  0  0  0  0  0  0  0  0  0  0
   -2.0860   -1.9260   -1.0050 C   0  0  0  0  0  0  0  0  0  0  0  0
   -3.3330   -1.3740   -0.8480 C   0  0  0  0  0  0  0  0  0  0  0  0
   -3.4170   -0.1240   -0.2850 C   0  0  0  0  0  0  0  0  0  0  0  0
   -2.2990    0.5590    0.1120 C   0  0  0  0  0  0  0  0  0  0  0  0
  1  2  2  0
  2  3  1  0
  2 17  1  0
  3  4  1  0
  4  5  2  0
  5  6  1  0
  5 12  1  0
  6  7  2  0
  6 11  1  0
  7  8  1  0
  8  9  2  0
  9 10  1  0
 10 11  2  0
 12 13  2  0
 12 17  1  0
 13 14  1  0
 14 15  2  0
 15 16  1  0
 16 17  2  0
M  END
