
     RDKit          3D

 17 19  0  0  0  0  0  0  0  0999 V2000
   -3.9480   -0.8970   -0.2570 C   0  0  0  0  0  0  0  0  0  0  0  0
   -3.1650   -0.4690    0.9430 C   0  0  0  0  0  0  0  0  0  0  0  0
   -1.8030   -0.0270    0.5630 C   0  0  0  0  0  0  0  0  0  0  0  0
   -1.6120    1.3040    0.2560 C   0  0  0  0  0  0  0  0  0  0  0  0
   -0.3650    1.7430   -0.0990 C   0  0  0  0  0  0  0  0  0  0  0  0
   -0.1460    3.0740   -0.4120 O   0  0  0  0  0  0  0  0  0  0  0  0
   -1.2460    3.9570   -0.3530 C   0  0  0  0  0  0  0  0  0  0  0  0
    0.7010    0.8230   -0.1440 C   0  0  0  0  0  0  0  0  0  0  0  0
    0.5320   -0.5060    0.1580 C   0  0  0  0  0  0  0  0  0  0  0  0
   -0.7580   -0.9220    0.5180 C   0  0  0  0  0  0  0  0  0  0  0  0
    1.6200   -1.4830    0.1200 C   0  0  0  0  0  0  0  0  0  0  0  0
    1.7190   -2.7720    0.3560 C   0  0  0  0  0  0  0  0  0  0  0  0
    3.1200   -3.2320    0.1480 C   0  0  0  0  0  0  0  0  0  0  0  0
    3.7980   -1.9580   -0.2520 C   0  0  0  0  0  0  0  0  0  0  0  0
    2.9240   -0.9610   -0.2640 C   0  0  0  0  0  0  0  0  0  0  0  0
    3.0970    0.4140   -0.5760 N   0  0  0  0  0  0  0  0  0  0  0  0
    2.0050    1.3480   -0.5290 C   0  0  0  0  0  0  0  0  0  0  0  0
  1  2  1  0
  2  3  1  0
  3  4  2  0
  3 10  1  0
  4  5  1  0
  5  6  1  0
  5  8  2  0
  6  7  1  0
  8  9  1  0
  8 17  1  0
  9 10  2  0
  9 11  1  0
 11 12  2  0
 11 15  1  0
 12 13  1  0
 13 14  1  0
 14 15  2  0
 15 16  1  0
 16 17  1  0
M  END
