
     RDKit          3D

 17 19  0  0  0  0  0  0  0  0999 V2000
   -5.1990   -0.4870    0.4790 C   0  0  0  0  0  0  0  0  0  0  0  0
   -4.5030    0.7220    0.3790 O   0  0  0  0  0  0  0  0  0  0  0  0
   -3.1210    0.6940    0.2780 C   0  0  0  0  0  0  0  0  0  0  0  0
   -2.4740    1.9140    0.1810 C   0  0  0  0  0  0  0  0  0  0  0  0
   -1.0990    1.9050    0.0800 C   0  0  0  0  0  0  0  0  0  0  0  0
   -0.3910    0.7090    0.0760 C   0  0  0  0  0  0  0  0  0  0  0  0
   -1.0350   -0.5090    0.1720 C   0  0  0  0  0  0  0  0  0  0  0  0
   -2.4100   -0.4960    0.2730 C   0  0  0  0  0  0  0  0  0  0  0  0
   -0.3030   -1.6790    0.1650 C   0  0  0  0  0  0  0  0  0  0  0  0
    1.0730   -1.6990    0.0640 C   0  0  0  0  0  0  0  0  0  0  0  0
    1.8040   -2.9940    0.0620 C   0  0  0  0  0  0  0  0  0  0  0  0
    1.7210   -0.4810   -0.0330 C   0  0  0  0  0  0  0  0  0  0  0  0
    3.0180   -0.2000   -0.1400 N   0  0  0  0  0  0  0  0  0  0  0  0
    3.1700    1.1320   -0.2040 C   0  0  0  0  0  0  0  0  0  0  0  0
    4.4510    1.8750   -0.3290 C   0  0  0  0  0  0  0  0  0  0  0  0
    1.9210    1.7130   -0.1350 C   0  0  0  0  0  0  0  0  0  0  0  0
    0.9850    0.6890   -0.0250 C   0  0  0  0  0  0  0  0  0  0  0  0
  1  2  1  0
  2  3  1  0
  3  4  2  0
  3  8  1  0
  4  5  1  0
  5  6  2  0
  6  7  1  0
  6 17  1  0
  7  8  2  0
  7  9  1  0
  9 10  2  0
 10 11  1  0
 10 12  1  0
 12 13  1  0
 12 17  2  0
 13 14  1  0
 14 15  1  0
 14 16  2  0
 16 17  1  0
M  END
