
     RDKit          3D

 17 19  0  0  0  0  0  0  0  0999 V2000
   -4.8190   -1.1370   -1.5010 C   0  0  0  0  0  0  0  0  0  0  0  0
   -3.7650   -0.3890   -0.7850 C   0  0  0  0  0  0  0  0  0  0  0  0
   -3.8970    0.8790   -0.2960 C   0  0  0  0  0  0  0  0  0  0  0  0
   -2.8580    1.4920    0.3680 C   0  0  0  0  0  0  0  0  0  0  0  0
   -1.6860    0.7990    0.5260 C   0  0  0  0  0  0  0  0  0  0  0  0
   -0.4810    1.1050    1.1210 C   0  0  0  0  0  0  0  0  0  0  0  0
   -0.0910    2.3620    1.8020 C   0  0  0  0  0  0  0  0  0  0  0  0
    0.4120    0.0330    1.0100 C   0  0  0  0  0  0  0  0  0  0  0  0
    1.7830   -0.0200    1.5470 C   0  0  0  0  0  0  0  0  0  0  0  0
    2.7880   -0.4420    0.7710 C   0  0  0  0  0  0  0  0  0  0  0  0
    2.7510   -0.8960   -0.6540 C   0  0  0  0  0  0  0  0  0  0  0  0
    4.2110   -0.9410   -1.0430 C   0  0  0  0  0  0  0  0  0  0  0  0
    4.9000   -0.1910    0.0640 C   0  0  0  0  0  0  0  0  0  0  0  0
    4.1080   -0.5270    1.2050 O   0  0  0  0  0  0  0  0  0  0  0  0
   -0.2510   -0.9180    0.3480 N   0  0  0  0  0  0  0  0  0  0  0  0
   -1.5120   -0.4930    0.0420 C   0  0  0  0  0  0  0  0  0  0  0  0
   -2.5660   -1.0650   -0.6090 C   0  0  0  0  0  0  0  0  0  0  0  0
  1  2  1  0
  2  3  2  0
  2 17  1  0
  3  4  1  0
  4  5  2  0
  5  6  1  0
  5 16  1  0
  6  7  1  0
  6  8  2  0
  8  9  1  0
  8 15  1  0
  9 10  2  3
 10 11  1  0
 10 14  1  0
 11 12  1  0
 12 13  1  0
 13 14  1  0
 15 16  1  0
 16 17  2  0
M  END
