
     RDKit          3D

 17 19  0  0  0  0  0  0  0  0999 V2000
   -2.4910   -0.9690   -1.6570 O   0  0  0  0  0  0  0  0  0  0  0  0
   -2.8110   -0.4400   -0.3990 C   0  0  0  0  0  0  0  0  0  0  0  0
   -4.1180   -0.3500    0.0340 C   0  0  0  0  0  0  0  0  0  0  0  0
   -4.4250    0.1700    1.2690 C   0  0  0  0  0  0  0  0  0  0  0  0
   -3.3780    0.5990    2.0590 C   0  0  0  0  0  0  0  0  0  0  0  0
   -2.0640    0.5060    1.6160 C   0  0  0  0  0  0  0  0  0  0  0  0
   -1.7540   -0.0160    0.3780 C   0  0  0  0  0  0  0  0  0  0  0  0
   -0.3910   -0.1230   -0.1060 C   0  0  0  0  0  0  0  0  0  0  0  0
    0.6880    0.2800    0.6190 C   0  0  0  0  0  0  0  0  0  0  0  0
    1.9910    0.1640    0.1260 C   0  0  0  0  0  0  0  0  0  0  0  0
    3.0730    0.5870    0.8940 C   0  0  0  0  0  0  0  0  0  0  0  0
    4.3360    0.4480    0.3570 C   0  0  0  0  0  0  0  0  0  0  0  0
    4.4940   -0.0920   -0.8960 C   0  0  0  0  0  0  0  0  0  0  0  0
    3.4230   -0.5090   -1.6550 C   0  0  0  0  0  0  0  0  0  0  0  0
    2.1580   -0.3710   -1.1170 C   0  0  0  0  0  0  0  0  0  0  0  0
    1.0730   -0.7710   -1.8350 C   0  0  0  0  0  0  0  0  0  0  0  0
   -0.1620   -0.6430   -1.3260 N   0  0  0  0  0  0  0  0  0  0  0  0
  1  2  1  0
  2  3  2  0
  2  7  1  0
  3  4  1  0
  4  5  2  0
  5  6  1  0
  6  7  2  0
  7  8  1  0
  8  9  2  0
  8 17  1  0
  9 10  1  0
 10 11  2  0
 10 15  1  0
 11 12  1  0
 12 13  2  0
 13 14  1  0
 14 15  2  0
 15 16  1  0
 16 17  2  0
M  END
