
     RDKit          3D

 27 30  0  0  0  0  0  0  0  0999 V2000
   -3.2730    3.9080   -0.4990 C   0  0  0  0  0  0  0  0  0  0  0  0
   -4.0860    2.7820   -0.6320 O   0  0  0  0  0  0  0  0  0  0  0  0
   -3.6060    1.4820   -0.5360 C   0  0  0  0  0  0  0  0  0  0  0  0
   -2.2440    1.2530   -0.2920 C   0  0  0  0  0  0  0  0  0  0  0  0
   -1.7370   -0.0190   -0.1910 C   0  0  0  0  0  0  0  0  0  0  0  0
   -0.4330   -0.3010    0.0420 O   0  0  0  0  0  0  0  0  0  0  0  0
    0.6580    0.5330    0.2280 C   0  0  1  0  0  0  0  0  0  0  0  0
    1.2220    0.2920    1.6010 C   0  0  0  0  0  0  0  0  0  0  0  0
    2.5330    0.9210    1.8780 C   0  0  1  0  0  0  0  0  0  0  0  0
    3.3940   -0.0330    2.6770 C   0  0  0  0  0  0  0  0  0  0  0  0
    3.2250    1.4550    0.6710 C   0  0  1  0  0  0  0  0  0  0  0  0
    4.6070    1.4890    0.9750 O   0  0  0  0  0  0  0  0  0  0  0  0
    3.0680    0.5400   -0.4970 C   0  0  1  0  0  0  0  0  0  0  0  0
    1.6440    0.2730   -0.8740 C   0  0  0  0  0  0  0  0  0  0  0  0
    3.9550    0.8690   -1.6870 C   0  0  1  0  0  0  0  0  0  0  0  0
    5.2020    1.3730   -1.2970 O   0  0  0  0  0  0  0  0  0  0  0  0
    4.0940   -0.6470   -1.8870 C   0  0  0  0  0  0  0  0  0  0  0  0
    3.8360   -0.7600   -0.3780 C   0  0  1  0  0  0  0  0  0  0  0  0
    5.0610   -0.6630    0.2750 O   0  0  0  0  0  0  0  0  0  0  0  0
   -2.6370   -1.0730   -0.3410 C   0  0  0  0  0  0  0  0  0  0  0  0
   -3.9780   -0.8570   -0.5800 C   0  0  0  0  0  0  0  0  0  0  0  0
   -4.4770    0.4250   -0.6800 C   0  0  0  0  0  0  0  0  0  0  0  0
   -5.8240    0.6540   -0.9210 O   0  0  0  0  0  0  0  0  0  0  0  0
   -4.9210   -1.9900   -0.7370 C   0  0  0  0  0  0  0  0  0  0  0  0
   -4.5700   -3.1940    0.0630 C   0  0  0  0  0  0  0  0  0  0  0  0
   -3.1880   -3.2110    0.6190 C   0  0  0  0  0  0  0  0  0  0  0  0
   -2.1780   -2.4900   -0.2470 C   0  0  0  0  0  0  0  0  0  0  0  0
  1  2  1  0
  2  3  1  0
  3  4  2  0
  3 22  1  0
  4  5  1  0
  5  6  1  0
  5 20  2  0
  7  6  1  6
  7  8  1  0
  7 14  1  0
  8  9  1  0
  9 10  1  6
  9 11  1  0
 11 12  1  1
 11 13  1  0
 13 14  1  6
 13 15  1  0
 13 18  1  0
 15 16  1  1
 15 17  1  0
 17 18  1  0
 18 19  1  1
 20 21  1  0
 20 27  1  0
 21 22  2  0
 21 24  1  0
 22 23  1  0
 24 25  1  0
 25 26  1  0
 26 27  1  0
M  END
