
     RDKit          3D

 27 28  0  0  0  0  0  0  0  0999 V2000
   -3.7880    1.8840    0.5540 C   0  0  0  0  0  0  0  0  0  0  0  0
   -2.5020    2.5210    0.1790 C   0  0  0  0  0  0  0  0  0  0  0  0
   -1.4640    1.6870    0.0250 C   0  0  0  0  0  0  0  0  0  0  0  0
   -0.1890    2.2790   -0.3390 C   0  0  0  0  0  0  0  0  0  0  0  0
   -0.0240    3.5740   -0.5230 C   0  0  0  0  0  0  0  0  0  0  0  0
   -1.1150    4.5480   -0.3780 C   0  0  2  0  0  0  0  0  0  0  0  0
   -0.7710    5.5180    0.5860 O   0  0  0  0  0  0  0  0  0  0  0  0
   -2.4290    3.9970   -0.0010 C   0  0  0  0  0  0  0  0  0  0  0  0
    1.0510    1.4210   -0.4700 C   0  0  0  0  0  0  0  0  0  0  0  0
    0.8220    0.3290    0.5710 C   0  0  2  0  0  0  0  0  0  0  0  0
    0.5380    0.9510    1.7770 O   0  0  0  0  0  0  0  0  0  0  0  0
    2.1040   -0.4710    0.7780 C   0  0  2  0  0  0  0  0  0  0  0  0
    1.9170   -1.4230    1.9450 C   0  0  0  0  0  0  0  0  0  0  0  0
    3.1490    0.5290    1.2040 C   0  0  0  0  0  0  0  0  0  0  0  0
    2.4400   -1.0810   -0.3720 O   0  0  0  0  0  0  0  0  0  0  0  0
    3.4830   -1.9000   -0.4820 C   0  0  0  0  0  0  0  0  0  0  0  0
    4.8650   -1.3870   -0.2140 C   0  0  0  0  0  0  0  0  0  0  0  0
    5.8970   -2.5090   -0.4390 C   0  0  0  0  0  0  0  0  0  0  0  0
    7.1810   -2.0310   -0.1890 O   0  0  0  0  0  0  0  0  0  0  0  0
   -0.3120   -0.4750    0.0800 C   0  0  0  0  0  0  0  0  0  0  0  0
   -1.6180    0.2670    0.1830 C   0  0  2  0  0  0  0  0  0  0  0  0
   -2.6250   -0.3650   -0.7100 C   0  0  0  0  0  0  0  0  0  0  0  0
   -3.1500    0.2970   -1.6060 O   0  0  0  0  0  0  0  0  0  0  0  0
   -2.9750   -1.6750   -0.5510 O   0  0  0  0  0  0  0  0  0  0  0  0
   -3.9100   -2.3710   -1.3370 C   0  0  2  0  0  0  0  0  0  0  0  0
   -5.1000   -2.8550   -0.5500 C   0  0  0  0  0  0  0  0  0  0  0  0
   -3.2730   -3.5040   -2.1050 C   0  0  0  0  0  0  0  0  0  0  0  0
  1  2  1  0
  2  3  2  0
  2  8  1  0
  3  4  1  0
  3 21  1  0
  4  5  2  0
  4  9  1  0
  5  6  1  0
  6  7  1  1
  6  8  1  0
  9 10  1  0
 10 11  1  1
 10 12  1  0
 10 20  1  0
 12 13  1  1
 12 14  1  0
 12 15  1  0
 15 16  1  0
 16 17  1  0
 17 18  1  0
 18 19  1  0
 20 21  1  0
 21 22  1  6
 22 23  2  0
 22 24  1  0
 24 25  1  0
 25 26  1  1
 25 27  1  0
M  END
