
     RDKit          3D

 26 28  0  0  0  0  0  0  0  0999 V2000
   -2.3830   -2.8660   -0.3780 C   0  0  0  0  0  0  0  0  0  0  0  0
   -1.6170   -2.2130    0.6770 C   0  0  2  0  0  0  0  0  0  0  0  0
   -0.5930   -3.2190    1.2250 C   0  0  0  0  0  0  0  0  0  0  0  0
   -2.4610   -2.0190    1.7790 O   0  0  0  0  0  0  0  0  0  0  0  0
   -0.8910   -0.8980    0.3670 C   0  0  2  0  0  0  0  0  0  0  0  0
    0.1620   -0.9660   -0.6500 C   0  0  1  0  0  0  0  0  0  0  0  0
    1.1110    0.0880   -0.7010 O   0  0  0  0  0  0  0  0  0  0  0  0
    2.1160    0.3920    0.1540 C   0  0  0  0  0  0  0  0  0  0  0  0
    2.3540   -0.3120    1.1540 O   0  0  0  0  0  0  0  0  0  0  0  0
    3.0000    1.5810   -0.0420 C   0  0  0  0  0  0  0  0  0  0  0  0
    4.3380    1.1640   -0.6200 C   0  0  1  0  0  0  0  0  0  0  0  0
    4.0430    0.4910   -1.9630 C   0  0  0  0  0  0  0  0  0  0  0  0
    5.1800    2.2500   -0.8040 O   0  0  0  0  0  0  0  0  0  0  0  0
    5.0370    0.1550    0.2370 C   0  0  0  0  0  0  0  0  0  0  0  0
    5.3940    0.6170    1.4850 O   0  0  0  0  0  0  0  0  0  0  0  0
    0.6370   -2.1860   -1.3150 C   0  0  0  0  0  0  0  0  0  0  0  0
   -0.3240   -1.3280   -2.0700 C   0  0  0  0  0  0  0  0  0  0  0  0
   -0.6110   -0.3160    1.7040 C   0  0  0  0  0  0  0  0  0  0  0  0
   -0.4190    1.1280    1.8630 C   0  0  0  0  0  0  0  0  0  0  0  0
   -0.7750    2.0130    0.7260 C   0  0  0  0  0  0  0  0  0  0  0  0
   -1.3580    1.3780   -0.4760 C   0  0  2  0  0  0  0  0  0  0  0  0
   -2.3390    2.3920   -1.0950 C   0  0  0  0  0  0  0  0  0  0  0  0
   -3.5790    2.5230   -0.2490 C   0  0  0  0  0  0  0  0  0  0  0  0
   -4.1560    1.1530   -0.0980 C   0  0  0  0  0  0  0  0  0  0  0  0
   -3.1780    0.2010    0.6230 C   0  0  0  0  0  0  0  0  0  0  0  0
   -1.9880    0.0420   -0.2230 C   0  0  2  0  0  0  0  0  0  0  0  0
  2  1  1  6
  2  3  1  0
  2  4  1  0
  2  5  1  0
  5  6  1  0
  5 18  1  1
  5 26  1  0
  6  7  1  6
  6 16  1  0
  6 17  1  0
  7  8  1  0
  8  9  2  0
  8 10  1  0
 10 11  1  0
 11 12  1  6
 11 13  1  0
 11 14  1  0
 14 15  1  0
 16 17  1  0
 18 19  1  0
 19 20  1  0
 21 20  1  1
 21 22  1  0
 21 26  1  0
 22 23  1  0
 23 24  1  0
 24 25  1  0
 26 25  1  1
M  END
