
     RDKit          3D

 24 26  0  0  0  0  0  0  0  0999 V2000
   -4.2140    1.8310    1.3960 C   0  0  0  0  0  0  0  0  0  0  0  0
   -3.2740    1.4470    0.3420 C   0  0  0  0  0  0  0  0  0  0  0  0
   -2.2200    2.0830    0.1590 O   0  0  0  0  0  0  0  0  0  0  0  0
   -3.5600    0.2950   -0.5220 C   0  0  0  0  0  0  0  0  0  0  0  0
   -4.6700   -0.3020   -0.3070 N   0  0  0  0  0  0  0  0  0  0  0  0
   -5.1660   -1.3940   -1.0040 N   0  0  0  0  0  0  0  0  0  0  0  0
   -4.3670   -1.8730   -2.0740 C   0  0  0  0  0  0  0  0  0  0  0  0
   -4.7450   -2.8740   -2.7520 O   0  0  0  0  0  0  0  0  0  0  0  0
   -3.1510   -1.2130   -2.3620 N   0  0  0  0  0  0  0  0  0  0  0  0
   -2.6010   -0.2450   -1.4610 C   0  0  2  0  0  0  0  0  0  0  0  0
   -1.3340   -0.7580   -0.8660 C   0  0  0  0  0  0  0  0  0  0  0  0
   -0.5640   -1.3560   -1.6920 O   0  0  0  0  0  0  0  0  0  0  0  0
   -0.9060   -0.6660    0.4550 N   0  0  0  0  0  0  0  0  0  0  0  0
    0.3540   -1.1910    0.9440 C   0  0  0  0  0  0  0  0  0  0  0  0
    1.5430   -0.5800    0.2590 C   0  0  1  0  0  0  0  0  0  0  0  0
    1.5260    0.8660    0.2710 N   0  0  0  0  0  0  0  0  0  0  0  0
    2.7030    1.5070   -0.2170 C   0  0  0  0  0  0  0  0  0  0  0  0
    2.7280    2.6800   -0.5810 O   0  0  0  0  0  0  0  0  0  0  0  0
    3.8750    0.6020   -0.2320 C   0  0  1  0  0  0  0  0  0  0  0  0
    5.1800    1.2170    0.1030 C   0  0  0  0  0  0  0  0  0  0  0  0
    5.8940    0.3330    0.8930 O   0  0  0  0  0  0  0  0  0  0  0  0
    5.0370   -0.7110    1.2730 C   0  0  0  0  0  0  0  0  0  0  0  0
    3.6580   -0.2390    1.0460 C   0  0  2  0  0  0  0  0  0  0  0  0
    2.6910   -1.1460    0.7960 O   0  0  0  0  0  0  0  0  0  0  0  0
  1  2  1  0
  2  3  2  0
  2  4  1  0
  4  5  2  0
  4 10  1  0
  5  6  1  0
  6  7  1  0
  7  8  2  0
  7  9  1  0
  9 10  1  0
 10 11  1  1
 11 12  2  0
 11 13  1  0
 13 14  1  0
 15 14  1  1
 15 16  1  0
 15 24  1  0
 16 17  1  0
 17 18  2  0
 17 19  1  0
 19 20  1  1
 19 23  1  0
 20 21  1  0
 21 22  1  0
 23 22  1  6
 23 24  1  0
M  END
