
     RDKit          3D

 27 29  0  0  0  0  0  0  0  0999 V2000
    7.1100   -2.3350   -0.9590 C   0  0  0  0  0  0  0  0  0  0  0  0
    6.8930   -0.8360   -0.9360 C   0  0  1  0  0  0  0  0  0  0  0  0
    5.4970   -0.5870   -1.4810 C   0  0  0  0  0  0  0  0  0  0  0  0
    4.7140   -0.3270   -0.2660 C   0  0  0  0  0  0  0  0  0  0  0  0
    3.3470   -0.2320   -0.0950 C   0  0  0  0  0  0  0  0  0  0  0  0
    2.8180    0.0210    1.1480 C   0  0  0  0  0  0  0  0  0  0  0  0
    1.3020    0.1090    1.2410 C   0  0  2  0  0  0  0  0  0  0  0  0
    0.9050   -1.0220    0.4800 O   0  0  0  0  0  0  0  0  0  0  0  0
    0.8360    1.4010    0.6230 C   0  0  0  0  0  0  0  0  0  0  0  0
   -0.5890    1.7030    0.6340 C   0  0  2  0  0  0  0  0  0  0  0  0
   -1.0790    1.7700    1.9360 O   0  0  0  0  0  0  0  0  0  0  0  0
   -1.5250    1.0480   -0.3270 C   0  0  1  0  0  0  0  0  0  0  0  0
   -0.9650    0.7870   -1.6750 C   0  0  0  0  0  0  0  0  0  0  0  0
   -1.9680   -0.2620    0.2870 C   0  0  0  0  0  0  0  0  0  0  0  0
   -3.4940   -0.1630    0.3860 C   0  0  2  0  0  0  0  0  0  0  0  0
   -3.7770    0.1570    1.7190 O   0  0  0  0  0  0  0  0  0  0  0  0
   -4.0380   -1.4880    0.0900 C   0  0  0  0  0  0  0  0  0  0  0  0
   -5.5390   -1.6360    0.1460 C   0  0  0  0  0  0  0  0  0  0  0  0
   -6.2400   -0.8420   -0.7180 O   0  0  0  0  0  0  0  0  0  0  0  0
   -3.7710    0.9810   -0.5060 C   0  0  1  0  0  0  0  0  0  0  0  0
   -4.1330    0.7040   -1.9150 C   0  0  0  0  0  0  0  0  0  0  0  0
   -4.9250    1.7560    0.1040 C   0  0  0  0  0  0  0  0  0  0  0  0
   -2.6710    1.8240   -0.4560 O   0  0  0  0  0  0  0  0  0  0  0  0
    3.6240    0.1820    2.2270 C   0  0  0  0  0  0  0  0  0  0  0  0
    4.9900    0.0850    2.0410 C   0  0  0  0  0  0  0  0  0  0  0  0
    5.5600   -0.1690    0.8100 C   0  0  0  0  0  0  0  0  0  0  0  0
    6.8880   -0.3110    0.3700 O   0  0  0  0  0  0  0  0  0  0  0  0
  2  1  1  1
  2  3  1  0
  2 27  1  0
  3  4  1  0
  4  5  2  0
  4 26  1  0
  5  6  1  0
  6  7  1  0
  6 24  2  0
  7  8  1  6
  7  9  1  0
  9 10  1  0
 10 11  1  1
 10 12  1  0
 12 13  1  6
 12 14  1  0
 12 23  1  0
 14 15  1  0
 15 16  1  1
 15 17  1  0
 15 20  1  0
 17 18  1  0
 18 19  1  0
 20 21  1  6
 20 22  1  0
 20 23  1  0
 24 25  1  0
 25 26  2  0
 26 27  1  0
M  END
