
     RDKit          3D

 27 29  0  0  0  0  0  0  0  0999 V2000
   -4.9710   -1.1630   -0.6230 C   0  0  0  0  0  0  0  0  0  0  0  0
   -4.8510   -0.0320   -0.8900 C   0  0  0  0  0  0  0  0  0  0  0  0
   -3.7000    0.8380   -1.2830 C   0  0  0  0  0  0  0  0  0  0  0  0
   -4.1410    2.1260   -1.4010 C   0  0  0  0  0  0  0  0  0  0  0  0
   -2.3030    0.6490   -1.1010 C   0  0  0  0  0  0  0  0  0  0  0  0
   -1.6260   -0.4350   -1.2100 C   0  0  0  0  0  0  0  0  0  0  0  0
   -2.1930   -1.7020   -1.6580 C   0  0  0  0  0  0  0  0  0  0  0  0
   -1.5930   -2.8820   -1.5280 C   0  0  0  0  0  0  0  0  0  0  0  0
   -2.4290   -3.9720   -2.0840 C   0  0  0  0  0  0  0  0  0  0  0  0
   -3.0320   -3.2910   -3.1520 O   0  0  0  0  0  0  0  0  0  0  0  0
   -3.1600   -1.9470   -2.7600 C   0  0  0  0  0  0  0  0  0  0  0  0
   -3.9470   -1.1380   -3.2880 O   0  0  0  0  0  0  0  0  0  0  0  0
   -0.1690   -0.4840   -0.8350 C   0  0  0  0  0  0  0  0  0  0  0  0
    0.4330    0.5580   -0.3850 C   0  0  0  0  0  0  0  0  0  0  0  0
    1.8730    0.4620   -0.0320 C   0  0  0  0  0  0  0  0  0  0  0  0
    2.4500   -0.6250   -0.1600 O   0  0  0  0  0  0  0  0  0  0  0  0
    2.5880    1.5490    0.4280 O   0  0  0  0  0  0  0  0  0  0  0  0
    3.9380    1.5660    0.7820 C   0  0  0  0  0  0  0  0  0  0  0  0
    4.2700    0.7040    1.9650 C   0  0  0  0  0  0  0  0  0  0  0  0
    3.4590   -0.0330    2.6910 C   0  0  0  0  0  0  0  0  0  0  0  0
    4.2300   -0.7080    3.7520 C   0  0  0  0  0  0  0  0  0  0  0  0
    5.6250   -0.2710    3.5380 C   0  0  0  0  0  0  0  0  0  0  0  0
    5.6280    0.5420    2.5100 C   0  0  0  0  0  0  0  0  0  0  0  0
    6.7660    1.1750    1.9940 O   0  0  0  0  0  0  0  0  0  0  0  0
   -0.2720    1.8290   -0.1500 C   0  0  1  0  0  0  0  0  0  0  0  0
    0.5680    2.9240   -0.4840 O   0  0  0  0  0  0  0  0  0  0  0  0
   -1.5730    1.9820   -0.8000 C   0  0  0  0  0  0  0  0  0  0  0  0
  1  2  2  0
  2  3  1  0
  3  4  2  0
  3  5  1  0
  5  6  2  0
  5 27  1  0
  6  7  1  0
  6 13  1  0
  7  8  2  0
  7 11  1  0
  8  9  1  0
  9 10  1  0
 10 11  1  0
 11 12  2  0
 13 14  2  0
 14 15  1  0
 14 25  1  0
 15 16  2  0
 15 17  1  0
 17 18  1  0
 18 19  1  0
 19 20  2  0
 19 23  1  0
 20 21  1  0
 21 22  1  0
 22 23  2  0
 23 24  1  0
 25 26  1  6
 25 27  1  0
M  END
