
     RDKit          3D

 27 29  0  0  0  0  0  0  0  0999 V2000
    0.3120   -0.3520    4.3560 C   0  0  0  0  0  0  0  0  0  0  0  0
    0.9640    0.0630    3.1750 O   0  0  0  0  0  0  0  0  0  0  0  0
    0.1930    0.0990    1.9600 C   0  0  0  0  0  0  0  0  0  0  0  0
   -0.9630   -0.2520    2.1500 O   0  0  0  0  0  0  0  0  0  0  0  0
    0.9200    0.5350    0.7970 C   0  0  0  0  0  0  0  0  0  0  0  0
    0.3560    0.6520   -0.3730 C   0  0  0  0  0  0  0  0  0  0  0  0
   -1.0620    0.3610   -0.6880 C   0  0  0  0  0  0  0  0  0  0  0  0
   -1.5200    0.4820   -1.9380 C   0  0  0  0  0  0  0  0  0  0  0  0
   -2.9060    0.2210   -2.3490 C   0  0  2  0  0  0  0  0  0  0  0  0
   -2.9970   -0.8280   -3.4420 C   0  0  0  0  0  0  0  0  0  0  0  0
   -3.4940    1.3820   -2.9100 O   0  0  0  0  0  0  0  0  0  0  0  0
   -3.8160   -0.2050   -1.2730 C   0  0  0  0  0  0  0  0  0  0  0  0
   -5.0870   -0.4840   -1.4580 C   0  0  0  0  0  0  0  0  0  0  0  0
   -5.9560   -0.8830   -0.4730 O   0  0  0  0  0  0  0  0  0  0  0  0
   -5.5640   -1.0310    0.8430 C   0  0  0  0  0  0  0  0  0  0  0  0
   -4.1360   -0.7120    1.0130 C   0  0  0  0  0  0  0  0  0  0  0  0
   -3.3040   -0.3310    0.0690 C   0  0  0  0  0  0  0  0  0  0  0  0
   -1.9640   -0.0390    0.2680 O   0  0  0  0  0  0  0  0  0  0  0  0
    1.1120    1.2110   -1.5540 C   0  0  0  0  0  0  0  0  0  0  0  0
    2.2020    2.1220   -1.2120 C   0  0  0  0  0  0  0  0  0  0  0  0
    2.7100    2.0250    0.1600 C   0  0  0  0  0  0  0  0  0  0  0  0
    2.4020    0.7990    0.9280 C   0  0  2  0  0  0  0  0  0  0  0  0
    3.3140   -0.3080    0.6720 C   0  0  2  0  0  0  0  0  0  0  0  0
    4.7440    0.2490    0.8970 C   0  0  0  0  0  0  0  0  0  0  0  0
    3.3830   -0.8100   -0.7730 C   0  0  0  0  0  0  0  0  0  0  0  0
    3.2290   -1.5310    1.5110 C   0  0  0  0  0  0  0  0  0  0  0  0
    1.9910   -2.1260    1.3940 O   0  0  0  0  0  0  0  0  0  0  0  0
  1  2  1  0
  2  3  1  0
  3  4  2  0
  3  5  1  0
  5  6  2  0
  5 22  1  0
  6  7  1  0
  6 19  1  0
  7  8  2  0
  7 18  1  0
  8  9  1  0
  9 10  1  6
  9 11  1  0
  9 12  1  0
 12 13  2  0
 12 17  1  0
 13 14  1  0
 14 15  1  0
 15 16  1  0
 16 17  2  0
 17 18  1  0
 19 20  1  0
 20 21  1  0
 22 21  1  6
 22 23  1  0
 23 24  1  1
 23 25  1  0
 23 26  1  0
 26 27  1  0
M  END
