
     RDKit          3D

 18 18  0  0  0  0  0  0  0  0999 V2000
    6.1180    1.0250   -0.1180 O   0  0  0  0  0  0  0  0  0  0  0  0
    5.4150   -0.1730    0.1270 C   0  0  0  0  0  0  0  0  0  0  0  0
    4.2500    0.1930    1.0240 C   0  0  2  0  0  0  0  0  0  0  0  0
    3.4860   -0.9060    1.3370 O   0  0  0  0  0  0  0  0  0  0  0  0
    3.4300    1.2080    0.2650 C   0  0  0  0  0  0  0  0  0  0  0  0
    2.8660    0.4680   -1.2760 S   0  0  0  0  0  0  0  0  0  0  0  0
    1.6710   -0.8330   -0.9400 C   0  0  0  0  0  0  0  0  0  0  0  0
    0.4240   -0.1460   -0.3620 C   0  0  1  0  0  0  0  0  0  0  0  0
   -0.0500    0.7270   -1.2880 O   0  0  0  0  0  0  0  0  0  0  0  0
   -0.4630   -1.2250    0.1280 C   0  0  0  0  0  0  0  0  0  0  0  0
   -1.5940   -0.7490    0.7270 O   0  0  0  0  0  0  0  0  0  0  0  0
   -2.4270   -0.1140   -0.1620 C   0  0  2  0  0  0  0  0  0  0  0  0
   -2.7830    1.3070    0.2380 C   0  0  0  0  0  0  0  0  0  0  0  0
   -4.2530    1.5540   -0.1070 C   0  0  0  0  0  0  0  0  0  0  0  0
   -4.5240    0.9150   -1.2970 O   0  0  0  0  0  0  0  0  0  0  0  0
   -4.7520   -0.4470   -1.0790 C   0  0  0  0  0  0  0  0  0  0  0  0
   -3.7250   -0.9740   -0.1350 C   0  0  2  0  0  0  0  0  0  0  0  0
   -4.1270   -0.9880    1.1930 O   0  0  0  0  0  0  0  0  0  0  0  0
  1  2  1  0
  2  3  1  0
  3  4  1  6
  3  5  1  0
  5  6  1  0
  6  7  1  0
  7  8  1  0
  8  9  1  6
  8 10  1  0
 10 11  1  0
 12 11  1  1
 12 13  1  0
 12 17  1  0
 13 14  1  0
 14 15  1  0
 15 16  1  0
 16 17  1  0
 17 18  1  1
M  END
