
     RDKit          3D

 19 19  0  0  0  0  0  0  0  0999 V2000
   -4.0460    1.7930   -0.8230 C   0  0  0  0  0  0  0  0  0  0  0  0
   -3.5060    0.3600   -0.5130 C   0  0  0  0  0  0  0  0  0  0  0  0
   -2.3570    0.0740   -1.0420 C   0  0  0  0  0  0  0  0  0  0  0  0
   -1.7600    1.1160   -1.8210 O   0  0  0  0  0  0  0  0  0  0  0  0
   -1.6180   -1.1530   -0.9520 C   0  0  0  0  0  0  0  0  0  0  0  0
    0.0020   -1.0640   -0.1470 S   0  0  0  0  0  0  0  0  0  0  0  0
    1.1340   -0.1380   -1.1950 C   0  0  1  0  0  0  0  0  0  0  0  0
    0.7760    1.1960   -1.2660 O   0  0  0  0  0  0  0  0  0  0  0  0
    1.4290    1.3950   -0.0530 C   0  0  0  0  0  0  0  0  0  0  0  0
    2.3950    0.2900   -0.4700 C   0  0  2  0  0  0  0  0  0  0  0  0
    3.4550    0.8170   -1.3720 C   0  0  0  0  0  0  0  0  0  0  0  0
    4.1660   -0.1790   -2.0360 O   0  0  0  0  0  0  0  0  0  0  0  0
    2.7890   -0.5410    0.5530 O   0  0  0  0  0  0  0  0  0  0  0  0
    3.9390   -0.1120    1.1720 C   0  0  0  0  0  0  0  0  0  0  0  0
    4.3530   -1.0440    2.3050 C   0  0  0  0  0  0  0  0  0  0  0  0
    5.5130   -0.5440    2.8730 O   0  0  0  0  0  0  0  0  0  0  0  0
   -4.4260   -0.3660    0.3450 C   0  0  2  0  0  0  0  0  0  0  0  0
   -4.0970   -1.6960    0.8750 C   0  0  0  0  0  0  0  0  0  0  0  0
   -5.6850   -0.3590   -0.3180 O   0  0  0  0  0  0  0  0  0  0  0  0
  1  2  1  0
  2  3  2  3
  2 17  1  0
  3  4  1  0
  3  5  1  0
  5  6  1  0
  7  6  1  1
  7  8  1  0
  7 10  1  0
  8  9  1  0
  9 10  1  0
 10 11  1  6
 10 13  1  0
 11 12  1  0
 13 14  1  0
 14 15  1  0
 15 16  1  0
 17 18  1  6
 17 19  1  0
M  END
