
     RDKit          3D

 19 19  0  0  0  0  0  0  0  0999 V2000
   -4.5910    2.9030    0.1860 O   0  0  0  0  0  0  0  0  0  0  0  0
   -5.1480    1.6500    0.0150 C   0  0  0  0  0  0  0  0  0  0  0  0
   -4.1140    0.5680   -0.2140 C   0  0  0  0  0  0  0  0  0  0  0  0
   -3.2180    0.5360    0.9940 C   0  0  0  0  0  0  0  0  0  0  0  0
   -2.1390   -0.5010    0.9040 C   0  0  2  0  0  0  0  0  0  0  0  0
   -1.2390   -0.2570   -0.2890 C   0  0  0  0  0  0  0  0  0  0  0  0
    0.0860   -0.9710    0.0920 C   0  0  1  0  0  0  0  0  0  0  0  0
    0.7260   -1.4930   -1.1590 C   0  0  0  0  0  0  0  0  0  0  0  0
    1.2120   -0.4770   -1.9670 O   0  0  0  0  0  0  0  0  0  0  0  0
    0.8600    0.0700    0.8300 C   0  0  0  0  0  0  0  0  0  0  0  0
    2.4570   -0.3780    1.4440 S   0  0  0  0  0  0  0  0  0  0  0  0
    3.7320   -0.6660    0.2350 C   0  0  0  0  0  0  0  0  0  0  0  0
    4.1210    0.5820   -0.5310 C   0  0  2  0  0  0  0  0  0  0  0  0
    5.1230    0.1980   -1.4370 O   0  0  0  0  0  0  0  0  0  0  0  0
    4.8050    1.5690    0.4160 C   0  0  0  0  0  0  0  0  0  0  0  0
    5.8710    0.9220    1.0560 O   0  0  0  0  0  0  0  0  0  0  0  0
   -0.3540   -2.0310    0.8870 O   0  0  0  0  0  0  0  0  0  0  0  0
   -1.5390   -2.6010    0.4480 C   0  0  0  0  0  0  0  0  0  0  0  0
   -2.6470   -1.7940    0.7640 O   0  0  0  0  0  0  0  0  0  0  0  0
  1  2  1  0
  2  3  1  0
  3  4  1  0
  5  4  1  6
  5  6  1  0
  5 19  1  0
  6  7  1  0
  7  8  1  6
  7 10  1  0
  7 17  1  0
  8  9  1  0
 10 11  1  0
 11 12  1  0
 12 13  1  0
 13 14  1  6
 13 15  1  0
 15 16  1  0
 17 18  1  0
 18 19  1  0
M  END
