
     RDKit          3D

 19 19  0  0  0  0  0  0  0  0999 V2000
   -4.5110   -3.7220    0.1530 O   0  0  0  0  0  0  0  0  0  0  0  0
   -3.4110   -2.9920   -0.2840 C   0  0  0  0  0  0  0  0  0  0  0  0
   -3.5110   -1.5350    0.1200 C   0  0  0  0  0  0  0  0  0  0  0  0
   -2.3840   -0.8660   -0.3470 O   0  0  0  0  0  0  0  0  0  0  0  0
   -2.3830    0.4710   -0.0350 C   0  0  2  0  0  0  0  0  0  0  0  0
   -2.5240    1.2800   -1.1850 O   0  0  0  0  0  0  0  0  0  0  0  0
   -3.0690    2.5160   -0.7800 C   0  0  0  0  0  0  0  0  0  0  0  0
   -2.2090    3.1370    0.3110 C   0  0  0  0  0  0  0  0  0  0  0  0
   -0.9260    2.3710    0.3820 C   0  0  0  0  0  0  0  0  0  0  0  0
   -1.2470    0.9380    0.8100 C   0  0  1  0  0  0  0  0  0  0  0  0
   -1.6270    0.9850    2.1720 O   0  0  0  0  0  0  0  0  0  0  0  0
    0.0000    0.0960    0.7010 C   0  0  0  0  0  0  0  0  0  0  0  0
    0.5680    0.1050   -1.0120 S   0  0  0  0  0  0  0  0  0  0  0  0
    2.0740   -0.8730   -1.2270 C   0  0  0  0  0  0  0  0  0  0  0  0
    3.2530   -0.2570   -0.5060 C   0  0  1  0  0  0  0  0  0  0  0  0
    2.9980   -0.1640    0.8620 O   0  0  0  0  0  0  0  0  0  0  0  0
    4.4490   -1.1490   -0.7820 C   0  0  0  0  0  0  0  0  0  0  0  0
    5.7060   -0.6360   -0.1130 C   0  0  0  0  0  0  0  0  0  0  0  0
    6.0460    0.6410   -0.5520 O   0  0  0  0  0  0  0  0  0  0  0  0
  1  2  1  0
  2  3  1  0
  3  4  1  0
  5  4  1  6
  5  6  1  0
  5 10  1  0
  6  7  1  0
  7  8  1  0
  8  9  1  0
  9 10  1  0
 10 11  1  1
 10 12  1  0
 12 13  1  0
 13 14  1  0
 14 15  1  0
 15 16  1  1
 15 17  1  0
 17 18  1  0
 18 19  1  0
M  END
