
     RDKit          3D

 19 19  0  0  0  0  0  0  0  0999 V2000
    5.5140    1.5650   -0.5550 O   0  0  0  0  0  0  0  0  0  0  0  0
    5.5440    0.2980    0.0710 C   0  0  0  0  0  0  0  0  0  0  0  0
    4.6430   -0.6000   -0.7710 C   0  0  1  0  0  0  0  0  0  0  0  0
    4.6130   -1.8810   -0.2240 O   0  0  0  0  0  0  0  0  0  0  0  0
    3.2180   -0.0410   -0.5960 C   0  0  0  0  0  0  0  0  0  0  0  0
    3.0090   -0.0530    0.7740 O   0  0  0  0  0  0  0  0  0  0  0  0
    1.7990    0.4240    1.1930 C   0  0  0  0  0  0  0  0  0  0  0  0
    0.6940   -0.3930    0.6090 C   0  0  0  0  0  0  0  0  0  0  0  0
   -0.5740    0.0740    1.0300 O   0  0  0  0  0  0  0  0  0  0  0  0
   -1.5150   -0.7510    0.4320 C   0  0  1  0  0  0  0  0  0  0  0  0
   -2.3000   -1.5060    1.5030 C   0  0  0  0  0  0  0  0  0  0  0  0
   -3.3090   -2.3600    0.7730 C   0  0  0  0  0  0  0  0  0  0  0  0
   -4.6110   -1.5560    0.7410 C   0  0  0  0  0  0  0  0  0  0  0  0
   -4.1130    0.1580    0.3250 S   0  0  0  0  0  0  0  0  0  0  0  0
   -2.4630    0.0110   -0.4610 C   0  0  1  0  0  0  0  0  0  0  0  0
   -1.9930    1.4160   -0.7390 C   0  0  2  0  0  0  0  0  0  0  0  0
   -1.8750    2.1300    0.4570 O   0  0  0  0  0  0  0  0  0  0  0  0
   -3.0620    2.0520   -1.6350 C   0  0  0  0  0  0  0  0  0  0  0  0
   -2.7630    3.3530   -1.9560 O   0  0  0  0  0  0  0  0  0  0  0  0
  1  2  1  0
  2  3  1  0
  3  4  1  1
  3  5  1  0
  5  6  1  0
  6  7  1  0
  7  8  1  0
  8  9  1  0
 10  9  1  1
 10 11  1  0
 10 15  1  0
 11 12  1  0
 12 13  1  0
 13 14  1  0
 15 14  1  1
 15 16  1  0
 16 17  1  1
 16 18  1  0
 18 19  1  0
M  END
