
     RDKit          3D

 19 19  0  0  0  0  0  0  0  0999 V2000
   -2.9940    1.7770   -0.1780 C   0  0  0  0  0  0  0  0  0  0  0  0
   -2.5650    1.0030    0.9980 C   0  0  1  0  0  0  0  0  0  0  0  0
   -2.2740    1.9630    2.0110 O   0  0  0  0  0  0  0  0  0  0  0  0
   -3.7930    0.2720    1.5700 C   0  0  0  0  0  0  0  0  0  0  0  0
   -4.3070   -1.1190    0.5820 S   0  0  0  0  0  0  0  0  0  0  0  0
   -2.8760   -2.0910    0.0300 C   0  0  0  0  0  0  0  0  0  0  0  0
   -2.1470   -1.3050   -0.9940 C   0  0  2  0  0  0  0  0  0  0  0  0
   -1.5880   -2.1200   -2.0000 O   0  0  0  0  0  0  0  0  0  0  0  0
   -1.0160   -0.4330   -0.4330 C   0  0  2  0  0  0  0  0  0  0  0  0
    0.1460   -1.0540   -0.3680 O   0  0  0  0  0  0  0  0  0  0  0  0
    1.3080   -0.9070   -0.9000 C   0  0  0  0  0  0  0  0  0  0  0  0
    2.0990    0.3090   -0.5200 C   0  0  2  0  0  0  0  0  0  0  0  0
    1.4530    1.5650   -0.9870 C   0  0  0  0  0  0  0  0  0  0  0  0
    1.1350    1.5850   -2.3420 O   0  0  0  0  0  0  0  0  0  0  0  0
    3.3460    0.1380   -1.1910 O   0  0  0  0  0  0  0  0  0  0  0  0
    4.4040    0.1070   -0.3270 C   0  0  0  0  0  0  0  0  0  0  0  0
    4.3730   -0.9980    0.6910 C   0  0  0  0  0  0  0  0  0  0  0  0
    5.5390   -0.8570    1.4770 O   0  0  0  0  0  0  0  0  0  0  0  0
   -1.3860    0.1350    0.9060 C   0  0  0  0  0  0  0  0  0  0  0  0
  2  1  1  6
  2  3  1  0
  2  4  1  0
  2 19  1  0
  4  5  1  0
  5  6  1  0
  6  7  1  0
  7  8  1  6
  7  9  1  0
  9 10  1  1
  9 19  1  0
 10 11  1  0
 12 11  1  6
 12 13  1  0
 12 15  1  0
 13 14  1  0
 15 16  1  0
 16 17  1  0
 17 18  1  0
M  END
