
     RDKit          3D

 19 19  0  0  0  0  0  0  0  0999 V2000
    6.0580   -1.2710    0.1040 C   0  0  0  0  0  0  0  0  0  0  0  0
    5.0450   -0.3100    0.2680 O   0  0  0  0  0  0  0  0  0  0  0  0
    3.9200   -0.2470   -0.5420 C   0  0  0  0  0  0  0  0  0  0  0  0
    3.7880   -1.0800   -1.4690 O   0  0  0  0  0  0  0  0  0  0  0  0
    2.9370    0.8250   -0.2440 C   0  0  2  0  0  0  0  0  0  0  0  0
    2.3620    0.7540    1.1110 C   0  0  0  0  0  0  0  0  0  0  0  0
    1.0110    1.3190    1.1800 C   0  0  0  0  0  0  0  0  0  0  0  0
    0.2970    1.3750   -0.0800 C   0  0  2  0  0  0  0  0  0  0  0  0
   -1.0590    0.8650   -0.2490 C   0  0  1  0  0  0  0  0  0  0  0  0
   -1.3600    1.1880   -1.6360 O   0  0  0  0  0  0  0  0  0  0  0  0
   -1.4880   -0.4880   -0.0760 C   0  0  1  0  0  0  0  0  0  0  0  0
   -0.9860   -1.2660   -1.1660 O   0  0  0  0  0  0  0  0  0  0  0  0
   -0.7420   -1.2050    1.1150 C   0  0  0  0  0  0  0  0  0  0  0  0
   -1.2050   -2.5430    1.0080 O   0  0  0  0  0  0  0  0  0  0  0  0
   -2.8720   -0.8180    0.2070 C   0  0  0  0  0  0  0  0  0  0  0  0
   -4.0750   -0.5240   -0.5400 C   0  0  0  0  0  0  0  0  0  0  0  0
   -4.6310    0.8390   -0.6660 C   0  0  0  0  0  0  0  0  0  0  0  0
   -3.9480    1.8420   -1.2580 O   0  0  0  0  0  0  0  0  0  0  0  0
    1.4760    0.7060   -1.3090 S   0  0  0  0  0  0  0  0  0  0  0  0
  1  2  1  0
  2  3  1  0
  3  4  2  0
  5  3  1  6
  5  6  1  0
  5 19  1  0
  6  7  1  0
  8  7  1  1
  8  9  1  0
  8 19  1  0
  9 10  1  6
  9 11  1  0
 11 12  1  6
 11 13  1  0
 11 15  1  0
 13 14  1  0
 15 16  1  0
 16 17  1  0
 17 18  1  0
M  END
