
     RDKit          3D

 19 19  0  0  0  0  0  0  0  0999 V2000
    6.4840    0.8880    0.2230 C   0  0  0  0  0  0  0  0  0  0  0  0
    5.2010    1.6570    0.4770 C   0  0  0  0  0  0  0  0  0  0  0  0
    4.0590    0.6620    0.5860 C   0  0  0  0  0  0  0  0  0  0  0  0
    3.9910   -0.2370   -1.0080 S   0  0  0  0  0  0  0  0  0  0  0  0
    2.6390   -1.4410   -0.9350 C   0  0  0  0  0  0  0  0  0  0  0  0
    1.2940   -0.7310   -0.8480 C   0  0  0  0  0  0  0  0  0  0  0  0
    0.2370   -1.8020   -0.7930 C   0  0  0  0  0  0  0  0  0  0  0  0
   -1.0400   -1.3070   -0.7120 O   0  0  0  0  0  0  0  0  0  0  0  0
   -1.2980   -0.5290    0.4110 C   0  0  1  0  0  0  0  0  0  0  0  0
   -1.5650    0.7530   -0.0000 O   0  0  0  0  0  0  0  0  0  0  0  0
   -2.7970    0.7790   -0.6290 C   0  0  2  0  0  0  0  0  0  0  0  0
   -3.0100    2.0220   -1.4520 C   0  0  0  0  0  0  0  0  0  0  0  0
   -4.2720    1.9480   -2.0380 O   0  0  0  0  0  0  0  0  0  0  0  0
   -3.8270    0.6710    0.4910 C   0  0  1  0  0  0  0  0  0  0  0  0
   -5.0830    1.0320    0.0750 O   0  0  0  0  0  0  0  0  0  0  0  0
   -3.7520   -0.7960    0.9290 C   0  0  2  0  0  0  0  0  0  0  0  0
   -4.6110   -1.0490    1.9820 O   0  0  0  0  0  0  0  0  0  0  0  0
   -2.3530   -1.1680    1.2460 C   0  0  2  0  0  0  0  0  0  0  0  0
   -2.1530   -0.9870    2.6200 O   0  0  0  0  0  0  0  0  0  0  0  0
  1  2  1  0
  2  3  1  0
  3  4  1  0
  4  5  1  0
  5  6  1  0
  6  7  1  0
  7  8  1  0
  9  8  1  6
  9 10  1  0
  9 18  1  0
 10 11  1  0
 11 12  1  1
 11 14  1  0
 12 13  1  0
 14 15  1  6
 14 16  1  0
 16 17  1  1
 16 18  1  0
 18 19  1  1
M  END
