
     RDKit          3D

 10 10  0  0  0  0  0  0  0  0999 V2000
   -3.2820   -0.2620    0.1650 C   0  0  0  0  0  0  0  0  0  0  0  0
   -1.7890   -0.3790    0.3410 C   0  0  0  0  0  0  0  0  0  0  0  0
   -1.1040    0.3400   -0.7110 N   0  0  0  0  0  0  0  0  0  0  0  0
    0.3210    0.3350   -0.5730 C   0  0  1  0  0  0  0  0  0  0  0  0
    0.7950    1.0540    0.6610 C   0  0  0  0  0  0  0  0  0  0  0  0
    2.3110    1.0090    0.5700 C   0  0  0  0  0  0  0  0  0  0  0  0
    2.5400   -0.7140    0.1030 S   0  0  1  0  0  0  0  0  0  0  0  0
    3.5140   -0.8800   -0.9970 O   0  0  0  0  0  0  0  0  0  0  0  0
    2.9380   -1.5310    1.2920 O   0  0  0  0  0  0  0  0  0  0  0  0
    0.8550   -1.0830   -0.4110 C   0  0  0  0  0  0  0  0  0  0  0  0
  1  2  1  0
  2  3  1  0
  4  3  1  1
  4  5  1  0
  4 10  1  0
  5  6  1  0
  7  6  1  1
  7  8  2  0
  7  9  2  0
  7 10  1  0
M  END
