
     RDKit          3D

 22 25  0  0  0  0  0  0  0  0999 V2000
    5.7340   -2.3790   -0.9000 C   0  0  0  0  0  0  0  0  0  0  0  0
    4.4080   -2.0250   -0.3280 C   0  0  0  0  0  0  0  0  0  0  0  0
    3.7480   -0.9630   -0.9510 N   0  0  0  0  0  0  0  0  0  0  0  0
    2.5910   -0.6730   -0.4320 C   0  0  0  0  0  0  0  0  0  0  0  0
    1.7470    0.6230   -1.1690 N   0  0  0  0  0  0  0  0  0  0  0  0
    0.6230    0.5100   -0.3640 C   0  0  0  0  0  0  0  0  0  0  0  0
    0.2970   -0.1290    0.6000 O   0  0  0  0  0  0  0  0  0  0  0  0
   -0.4140    1.4460   -0.9150 N   0  0  0  0  0  0  0  0  0  0  0  0
   -1.6810    1.5330   -0.3880 C   0  0  0  0  0  0  0  0  0  0  0  0
   -2.2060    0.6970    0.5630 C   0  0  0  0  0  0  0  0  0  0  0  0
   -3.5440    0.7760    0.9930 C   0  0  0  0  0  0  0  0  0  0  0  0
   -4.3420    1.7250    0.4370 C   0  0  0  0  0  0  0  0  0  0  0  0
   -3.8490    2.5800   -0.5170 C   0  0  0  0  0  0  0  0  0  0  0  0
   -2.5550    2.4990   -0.9270 C   0  0  0  0  0  0  0  0  0  0  0  0
   -2.0230    3.3840   -1.9130 N   0  0  0  0  0  0  0  0  0  0  0  0
   -5.6180    1.5900    1.0460 O   0  0  0  0  0  0  0  0  0  0  0  0
   -5.6870    0.2670    1.5800 C   0  0  0  0  0  0  0  0  0  0  0  0
   -4.2980    0.0680    1.9090 O   0  0  0  0  0  0  0  0  0  0  0  0
    2.0690   -1.2390    0.5220 N   0  0  0  0  0  0  0  0  0  0  0  0
    2.5920   -2.3110    1.2590 C   0  0  0  0  0  0  0  0  0  0  0  0
    3.8730   -2.6590    0.7040 C   0  0  0  0  0  0  0  0  0  0  0  0
    3.3200   -3.4130    1.8700 C   0  0  0  0  0  0  0  0  0  0  0  0
  1  2  1  0
  2  3  2  0
  2 21  1  0
  3  4  1  0
  4  5  1  0
  4 19  2  0
  5  6  1  0
  6  7  2  0
  6  8  1  0
  8  9  1  0
  9 10  2  0
  9 14  1  0
 10 11  1  0
 11 12  2  0
 11 18  1  0
 12 13  1  0
 12 16  1  0
 13 14  2  0
 14 15  1  0
 16 17  1  0
 17 18  1  0
 19 20  1  0
 20 21  2  0
 20 22  1  0
 21 22  1  0
M  END
