
     RDKit          3D

 21 24  0  0  0  0  0  0  0  0999 V2000
    2.5840   -2.1710   -1.7670 C   0  0  0  0  0  0  0  0  0  0  0  0
    3.5360   -1.3100   -1.1740 O   0  0  0  0  0  0  0  0  0  0  0  0
    3.1410   -0.1060   -0.5690 C   0  0  0  0  0  0  0  0  0  0  0  0
    1.8250    0.2920   -0.5230 C   0  0  0  0  0  0  0  0  0  0  0  0
    1.4610    1.4980    0.0860 C   0  0  0  0  0  0  0  0  0  0  0  0
    0.2460    2.1130    0.2640 C   0  0  0  0  0  0  0  0  0  0  0  0
   -1.0040    1.5980   -0.1780 N   0  0  0  0  0  0  0  0  0  0  0  0
   -1.4450    0.4890    0.3460 C   0  0  0  0  0  0  0  0  0  0  0  0
   -0.8830   -0.2880    1.2850 N   0  0  0  0  0  0  0  0  0  0  0  0
   -1.6610   -1.3250    1.5360 N   0  0  0  0  0  0  0  0  0  0  0  0
   -2.7720   -1.2680    0.7650 C   0  0  0  0  0  0  0  0  0  0  0  0
   -2.6510   -0.1290    0.0080 C   0  0  0  0  0  0  0  0  0  0  0  0
   -3.8280    0.0190   -0.8740 C   0  0  0  0  0  0  0  0  0  0  0  0
   -4.8430   -0.9140   -0.2770 C   0  0  0  0  0  0  0  0  0  0  0  0
   -4.0580   -1.9860    0.4480 C   0  0  0  0  0  0  0  0  0  0  0  0
    0.4860    3.2690    0.9250 N   0  0  0  0  0  0  0  0  0  0  0  0
    1.7880    3.3950    1.1620 N   0  0  0  0  0  0  0  0  0  0  0  0
    2.4130    2.3040    0.6490 C   0  0  0  0  0  0  0  0  0  0  0  0
    3.7290    1.9030    0.6010 C   0  0  0  0  0  0  0  0  0  0  0  0
    4.0920    0.7140    0.0000 C   0  0  0  0  0  0  0  0  0  0  0  0
    5.4120    0.2910   -0.0590 O   0  0  0  0  0  0  0  0  0  0  0  0
  1  2  1  0
  2  3  1  0
  3  4  2  0
  3 20  1  0
  4  5  1  0
  5  6  1  0
  5 18  2  0
  6  7  1  0
  6 16  2  0
  7  8  2  3
  8  9  1  0
  8 12  1  0
  9 10  1  0
 10 11  1  0
 11 12  2  0
 11 15  1  0
 12 13  1  0
 13 14  1  0
 14 15  1  0
 16 17  1  0
 17 18  1  0
 18 19  1  0
 19 20  2  0
 20 21  1  0
M  END
