
     RDKit          3D

 22 24  0  0  0  0  0  0  0  0999 V2000
   -5.6760   -0.6370   -0.0010 C   0  0  0  0  0  0  0  0  0  0  0  0
   -4.9500    0.6630   -0.1020 C   0  0  0  0  0  0  0  0  0  0  0  0
   -5.5340    1.7930   -0.2270 N   0  0  0  0  0  0  0  0  0  0  0  0
   -4.5760    2.8540   -0.2990 C   0  0  0  0  0  0  0  0  0  0  0  0
   -3.2900    2.1240   -0.1900 C   0  0  0  0  0  0  0  0  0  0  0  0
   -3.4870    0.8350   -0.0740 C   0  0  0  0  0  0  0  0  0  0  0  0
   -2.5920   -0.2500    0.0570 N   0  0  0  0  0  0  0  0  0  0  0  0
   -1.1650   -0.0970    0.0860 C   0  0  0  0  0  0  0  0  0  0  0  0
   -0.7190    1.0450   -0.0090 O   0  0  0  0  0  0  0  0  0  0  0  0
   -0.2940   -1.1840    0.2160 N   0  0  0  0  0  0  0  0  0  0  0  0
    1.1200   -1.1320    0.2540 C   0  0  0  0  0  0  0  0  0  0  0  0
    1.8360   -2.3240    0.3890 C   0  0  0  0  0  0  0  0  0  0  0  0
    3.2010   -2.3990    0.4380 C   0  0  0  0  0  0  0  0  0  0  0  0
    3.9600   -1.2510    0.3530 C   0  0  0  0  0  0  0  0  0  0  0  0
    5.3370   -1.2630    0.3960 C   0  0  0  0  0  0  0  0  0  0  0  0
    5.9190   -2.3670    0.5180 O   0  0  0  0  0  0  0  0  0  0  0  0
    6.0090   -0.1030    0.3070 N   0  0  0  0  0  0  0  0  0  0  0  0
    5.3720    1.0610    0.1770 C   0  0  0  0  0  0  0  0  0  0  0  0
    6.0520    2.1300    0.0960 O   0  0  0  0  0  0  0  0  0  0  0  0
    4.0330    1.0610    0.1360 N   0  0  0  0  0  0  0  0  0  0  0  0
    3.2890   -0.0540    0.2190 C   0  0  0  0  0  0  0  0  0  0  0  0
    1.8900   -0.0040    0.1710 C   0  0  0  0  0  0  0  0  0  0  0  0
  1  2  1  0
  2  3  2  0
  2  6  1  0
  3  4  1  0
  4  5  1  0
  5  6  2  0
  6  7  1  0
  7  8  1  0
  8  9  2  0
  8 10  1  0
 10 11  1  0
 11 12  2  0
 11 22  1  0
 12 13  1  0
 13 14  2  0
 14 15  1  0
 14 21  1  0
 15 16  2  0
 15 17  1  0
 17 18  1  0
 18 19  2  0
 18 20  1  0
 20 21  1  0
 21 22  2  0
M  END
