
     RDKit          3D

 22 24  0  0  0  0  0  0  0  0999 V2000
   -5.1170   -1.1730    1.4340 C   0  0  0  0  0  0  0  0  0  0  0  0
   -4.6240   -0.1710    0.3970 C   0  0  2  0  0  0  0  0  0  0  0  0
   -5.1780    1.1750    0.7250 C   0  0  0  0  0  0  0  0  0  0  0  0
   -5.2010   -0.6090   -0.9310 C   0  0  0  0  0  0  0  0  0  0  0  0
   -3.2200   -0.2310    0.4170 O   0  0  0  0  0  0  0  0  0  0  0  0
   -2.4080    0.5330   -0.3850 C   0  0  0  0  0  0  0  0  0  0  0  0
   -2.9330    1.3250   -1.1800 O   0  0  0  0  0  0  0  0  0  0  0  0
   -0.9470    0.3740   -0.2660 C   0  0  0  0  0  0  0  0  0  0  0  0
    0.0250    1.0460   -0.9800 C   0  0  0  0  0  0  0  0  0  0  0  0
    1.2670    0.5930   -0.5520 C   0  0  0  0  0  0  0  0  0  0  0  0
    2.5700    0.8970   -0.9000 C   0  0  0  0  0  0  0  0  0  0  0  0
    2.7830    1.8790   -1.9090 N   0  0  0  0  0  0  0  0  0  0  0  0
    3.5920    0.2780   -0.2980 N   0  0  0  0  0  0  0  0  0  0  0  0
    4.8930    0.4310   -0.4910 N   0  0  0  0  0  0  0  0  0  0  0  0
    5.5720   -0.3880    0.3260 C   0  0  0  0  0  0  0  0  0  0  0  0
    7.0480   -0.5340    0.4320 C   0  0  0  0  0  0  0  0  0  0  0  0
    7.3770   -1.4730    1.3820 O   0  0  0  0  0  0  0  0  0  0  0  0
    4.6180   -1.0740    1.0540 C   0  0  0  0  0  0  0  0  0  0  0  0
    3.3540   -0.6360    0.6420 C   0  0  0  0  0  0  0  0  0  0  0  0
    2.1000   -0.9620    1.0120 N   0  0  0  0  0  0  0  0  0  0  0  0
    1.0310   -0.3530    0.4210 C   0  0  0  0  0  0  0  0  0  0  0  0
   -0.2960   -0.4580    0.5650 N   0  0  0  0  0  0  0  0  0  0  0  0
  2  1  1  1
  2  3  1  0
  2  4  1  0
  2  5  1  0
  5  6  1  0
  6  7  2  0
  6  8  1  0
  8  9  2  0
  8 22  1  0
  9 10  1  0
 10 11  2  0
 10 21  1  0
 11 12  1  0
 11 13  1  0
 13 14  1  0
 13 19  1  0
 14 15  2  0
 15 16  1  0
 15 18  1  0
 16 17  1  0
 18 19  2  0
 19 20  1  0
 20 21  2  0
 21 22  1  0
M  END
