
     RDKit          3D

 22 24  0  0  0  0  0  0  0  0999 V2000
    5.7280   -1.9270    0.9750 C   0  0  0  0  0  0  0  0  0  0  0  0
    4.3840   -1.2150    1.1010 C   0  0  0  0  0  0  0  0  0  0  0  0
    3.9950   -0.5410   -0.1800 C   0  0  0  0  0  0  0  0  0  0  0  0
    2.6700    0.1470   -0.0110 C   0  0  2  0  0  0  0  0  0  0  0  0
    1.5920   -0.8180    0.3380 C   0  0  0  0  0  0  0  0  0  0  0  0
    0.4140   -0.6980   -0.6630 C   0  0  0  0  0  0  0  0  0  0  0  0
   -0.0120    0.6980   -0.6610 C   0  0  0  0  0  0  0  0  0  0  0  0
    0.9730    1.5820   -0.9510 C   0  0  0  0  0  0  0  0  0  0  0  0
    2.3120    1.0010   -1.2200 C   0  0  0  0  0  0  0  0  0  0  0  0
    0.4050    2.9050   -0.9110 C   0  0  0  0  0  0  0  0  0  0  0  0
    1.0230    3.9860   -1.1290 O   0  0  0  0  0  0  0  0  0  0  0  0
   -0.9920    2.7600   -0.5780 C   0  0  0  0  0  0  0  0  0  0  0  0
   -1.2220    1.4280   -0.4310 C   0  0  0  0  0  0  0  0  0  0  0  0
   -2.5170    0.9970   -0.0730 C   0  0  0  0  0  0  0  0  0  0  0  0
   -3.5090    1.8400    0.0950 O   0  0  0  0  0  0  0  0  0  0  0  0
   -2.9490   -0.2940    0.1670 N   0  0  0  0  0  0  0  0  0  0  0  0
   -4.3240   -0.5220    0.4870 C   0  0  0  0  0  0  0  0  0  0  0  0
   -4.6730   -1.3960    1.2310 N   0  0  0  0  0  0  0  0  0  0  0  0
   -6.0800   -1.3940    1.4200 N   0  0  0  0  0  0  0  0  0  0  0  0
   -6.6350   -0.6470    0.3920 N   0  0  0  0  0  0  0  0  0  0  0  0
   -7.4830   -1.4370   -0.3280 O   0  0  0  0  0  0  0  0  0  0  0  0
   -5.5360   -0.3740   -0.3860 N   0  0  0  0  0  0  0  0  0  0  0  0
  1  2  1  0
  2  3  1  0
  4  3  1  6
  4  5  1  0
  4  9  1  0
  5  6  1  0
  6  7  1  0
  7  8  2  0
  7 13  1  0
  8  9  1  0
  8 10  1  0
 10 11  2  0
 10 12  1  0
 12 13  2  0
 13 14  1  0
 14 15  2  0
 14 16  1  0
 16 17  1  0
 17 18  2  0
 17 22  1  0
 18 19  1  0
 19 20  1  0
 20 21  1  0
 20 22  1  0
M  END
