
     RDKit          3D

 22 24  0  0  0  0  0  0  0  0999 V2000
   -3.9600   -2.1970    1.7970 N   0  0  0  0  0  0  0  0  0  0  0  0
   -3.2440   -1.2280    1.0460 C   0  0  0  0  0  0  0  0  0  0  0  0
   -3.6000    0.0540    1.2130 N   0  0  0  0  0  0  0  0  0  0  0  0
   -2.9360    0.9710    0.5140 C   0  0  0  0  0  0  0  0  0  0  0  0
   -3.3020    2.1770    0.6990 O   0  0  0  0  0  0  0  0  0  0  0  0
   -1.9240    0.6600   -0.3520 N   0  0  0  0  0  0  0  0  0  0  0  0
   -1.5160   -0.6040   -0.5670 C   0  0  0  0  0  0  0  0  0  0  0  0
   -2.2160   -1.5690    0.1690 C   0  0  0  0  0  0  0  0  0  0  0  0
   -1.9590   -2.9630    0.0930 N   0  0  0  0  0  0  0  0  0  0  0  0
   -0.5170   -0.9980   -1.4110 O   0  0  0  0  0  0  0  0  0  0  0  0
    0.7790   -0.5550   -1.5820 C   0  0  0  0  0  0  0  0  0  0  0  0
    1.6480   -1.3620   -0.6510 C   0  0  0  0  0  0  0  0  0  0  0  0
    1.6410   -2.6970   -0.3770 C   0  0  0  0  0  0  0  0  0  0  0  0
    2.6140   -2.9350    0.5280 N   0  0  0  0  0  0  0  0  0  0  0  0
    3.2300   -1.7850    0.8280 C   0  0  0  0  0  0  0  0  0  0  0  0
    2.6440   -0.7740    0.1010 C   0  0  0  0  0  0  0  0  0  0  0  0
    2.9180    0.6710    0.0370 C   0  0  0  0  0  0  0  0  0  0  0  0
    1.9010    1.4610    0.5380 O   0  0  0  0  0  0  0  0  0  0  0  0
    1.9980    2.7720    0.0740 C   0  0  0  0  0  0  0  0  0  0  0  0
    0.7000    3.2350   -0.5850 C   0  0  0  0  0  0  0  0  0  0  0  0
   -0.4670    2.4890    0.0180 C   0  0  0  0  0  0  0  0  0  0  0  0
   -1.3590    1.8360   -1.0030 C   0  0  0  0  0  0  0  0  0  0  0  0
  1  2  1  0
  2  3  2  0
  2  8  1  0
  3  4  1  0
  4  5  2  0
  4  6  1  0
  6  7  1  0
  6 22  1  0
  7  8  2  0
  7 10  1  0
  8  9  1  0
 10 11  1  0
 11 12  1  0
 12 13  2  0
 12 16  1  0
 13 14  1  0
 14 15  1  0
 15 16  2  0
 16 17  1  0
 17 18  1  0
 18 19  1  0
 19 20  1  0
 20 21  1  0
 21 22  1  0
M  END
