
     RDKit          3D

 25 27  0  0  0  0  0  0  0  0999 V2000
    6.8380   -2.0360    1.0720 N   0  0  0  0  0  0  0  0  0  0  0  0
    5.9030   -1.4990    0.1250 C   0  0  0  0  0  0  0  0  0  0  0  0
    5.0150   -0.4530    0.7370 C   0  0  0  0  0  0  0  0  0  0  0  0
    4.9650    0.7770    0.3120 C   0  0  0  0  0  0  0  0  0  0  0  0
    4.1610    1.8770    0.8010 C   0  0  0  0  0  0  0  0  0  0  0  0
    3.1680    1.6810    1.8690 C   0  0  0  0  0  0  0  0  0  0  0  0
    2.0160    0.8210    1.4940 C   0  0  0  0  0  0  0  0  0  0  0  0
    0.9020    1.4150    0.8650 C   0  0  0  0  0  0  0  0  0  0  0  0
   -0.1970    0.6660    0.5300 C   0  0  0  0  0  0  0  0  0  0  0  0
   -1.2950    1.2680   -0.0940 N   0  0  0  0  0  0  0  0  0  0  0  0
   -2.5090    0.6770   -0.5150 C   0  0  0  0  0  0  0  0  0  0  0  0
   -2.8340   -0.6510   -0.3770 C   0  0  0  0  0  0  0  0  0  0  0  0
   -4.0560   -1.1850   -0.8130 C   0  0  0  0  0  0  0  0  0  0  0  0
   -4.3480   -2.5230   -0.6590 C   0  0  0  0  0  0  0  0  0  0  0  0
   -5.5550   -3.0610   -1.0870 C   0  0  0  0  0  0  0  0  0  0  0  0
   -5.8390   -4.3740   -0.9340 F   0  0  0  0  0  0  0  0  0  0  0  0
   -6.5060   -2.2620   -1.6870 C   0  0  0  0  0  0  0  0  0  0  0  0
   -6.1980   -0.9260   -1.8340 C   0  0  0  0  0  0  0  0  0  0  0  0
   -5.0010   -0.3890   -1.4100 C   0  0  0  0  0  0  0  0  0  0  0  0
   -4.6870    0.9410   -1.5520 C   0  0  0  0  0  0  0  0  0  0  0  0
   -3.4910    1.4720   -1.1270 C   0  0  0  0  0  0  0  0  0  0  0  0
   -3.1950    2.8510   -1.2880 N   0  0  0  0  0  0  0  0  0  0  0  0
   -0.1960   -0.6280    0.8070 N   0  0  0  0  0  0  0  0  0  0  0  0
    0.8330   -1.2210    1.3970 C   0  0  0  0  0  0  0  0  0  0  0  0
    1.8990   -0.4870    1.7210 N   0  0  0  0  0  0  0  0  0  0  0  0
  1  2  1  0
  2  3  1  0
  3  4  2  3
  4  5  1  0
  5  6  1  0
  6  7  1  0
  7  8  2  0
  7 25  1  0
  8  9  1  0
  9 10  1  0
  9 23  2  0
 10 11  1  0
 11 12  2  0
 11 21  1  0
 12 13  1  0
 13 14  2  0
 13 19  1  0
 14 15  1  0
 15 16  1  0
 15 17  2  0
 17 18  1  0
 18 19  2  0
 19 20  1  0
 20 21  2  0
 21 22  1  0
 23 24  1  0
 24 25  2  0
M  END
