
     RDKit          3D

 25 27  0  0  0  0  0  0  0  0999 V2000
    6.8150   -1.6890   -1.4140 C   0  0  0  0  0  0  0  0  0  0  0  0
    5.7480   -0.7880   -0.9940 N   0  0  0  0  0  0  0  0  0  0  0  0
    4.6870   -1.2280   -0.1630 C   0  0  0  0  0  0  0  0  0  0  0  0
    4.6880   -2.4250    0.2050 O   0  0  0  0  0  0  0  0  0  0  0  0
    3.6430   -0.2770    0.2280 C   0  0  0  0  0  0  0  0  0  0  0  0
    3.6650    0.9220   -0.1550 O   0  0  0  0  0  0  0  0  0  0  0  0
    2.5540   -0.6590    1.0580 N   0  0  0  0  0  0  0  0  0  0  0  0
    1.5230    0.2520    1.4550 C   0  0  2  0  0  0  0  0  0  0  0  0
    1.3070    0.3270    2.9290 C   0  0  0  0  0  0  0  0  0  0  0  0
    2.4020    0.7310    3.6530 O   0  0  0  0  0  0  0  0  0  0  0  0
    2.8620    1.9880    3.3330 C   0  0  0  0  0  0  0  0  0  0  0  0
    0.2090   -0.2070    0.8660 C   0  0  0  0  0  0  0  0  0  0  0  0
   -0.2650   -1.4650    0.8530 N   0  0  0  0  0  0  0  0  0  0  0  0
   -1.4590   -1.4930    0.2480 N   0  0  0  0  0  0  0  0  0  0  0  0
   -1.7560   -0.2410   -0.1310 C   0  0  0  0  0  0  0  0  0  0  0  0
   -2.9800    0.1890   -0.8350 C   0  0  0  0  0  0  0  0  0  0  0  0
   -3.1710    1.5130   -1.1730 C   0  0  0  0  0  0  0  0  0  0  0  0
   -4.2960    1.9220   -1.8220 C   0  0  0  0  0  0  0  0  0  0  0  0
   -5.2600    1.0040   -2.1480 C   0  0  0  0  0  0  0  0  0  0  0  0
   -5.0710   -0.3230   -1.8100 C   0  0  0  0  0  0  0  0  0  0  0  0
   -3.9320   -0.7440   -1.1510 C   0  0  0  0  0  0  0  0  0  0  0  0
   -6.2070   -1.0190   -2.2640 N   0  0  0  0  0  0  0  0  0  0  0  0
   -7.2010   -0.0310   -2.6130 C   0  0  0  0  0  0  0  0  0  0  0  0
   -6.4720    1.1670   -2.7970 O   0  0  0  0  0  0  0  0  0  0  0  0
   -0.7260    0.5330    0.2540 N   0  0  0  0  0  0  0  0  0  0  0  0
  1  2  1  0
  2  3  1  0
  3  4  2  0
  3  5  1  0
  5  6  2  0
  5  7  1  0
  7  8  1  0
  8  9  1  1
  8 12  1  0
  9 10  1  0
 10 11  1  0
 12 13  1  0
 12 25  2  0
 13 14  1  0
 14 15  2  0
 15 16  1  0
 15 25  1  0
 16 17  2  0
 16 21  1  0
 17 18  1  0
 18 19  2  0
 19 20  1  0
 19 24  1  0
 20 21  2  0
 20 22  1  0
 22 23  1  0
 23 24  1  0
M  CHG  1  25   1
M  END
