
     RDKit          3D

 26 28  0  0  0  0  0  0  0  0999 V2000
    5.9600   -0.3310    0.9650 N   0  0  0  0  0  0  0  0  0  0  0  0
    5.3800    0.5700    0.3180 C   0  0  0  0  0  0  0  0  0  0  0  0
    6.1960    1.6390   -0.2290 N   0  0  0  0  0  0  0  0  0  0  0  0
    3.9700    0.6320    0.0730 C   0  0  0  0  0  0  0  0  0  0  0  0
    3.1080   -0.2770    0.5140 C   0  0  0  0  0  0  0  0  0  0  0  0
    3.5080   -1.3400    1.2340 F   0  0  0  0  0  0  0  0  0  0  0  0
    1.6680   -0.1450    0.2390 C   0  0  0  0  0  0  0  0  0  0  0  0
    0.7860   -0.8400    0.9750 C   0  0  0  0  0  0  0  0  0  0  0  0
   -0.6340   -0.7620    0.7670 C   0  0  0  0  0  0  0  0  0  0  0  0
   -1.6010   -1.3690    1.3920 C   0  0  0  0  0  0  0  0  0  0  0  0
   -1.3530   -2.2920    2.4860 C   0  0  0  0  0  0  0  0  0  0  0  0
   -0.1210   -2.5920    2.9380 F   0  0  0  0  0  0  0  0  0  0  0  0
   -2.4320   -2.8620    3.0580 C   0  0  0  0  0  0  0  0  0  0  0  0
   -3.7900   -2.5840    2.6220 C   0  0  0  0  0  0  0  0  0  0  0  0
   -4.0500   -1.7450    1.6240 C   0  0  0  0  0  0  0  0  0  0  0  0
   -2.9550   -1.1080    0.9760 N   0  0  0  0  0  0  0  0  0  0  0  0
   -3.1590   -0.2090   -0.0870 C   0  0  0  0  0  0  0  0  0  0  0  0
   -3.3260    1.1390    0.1430 C   0  0  0  0  0  0  0  0  0  0  0  0
   -3.5270    2.0370   -0.8960 C   0  0  0  0  0  0  0  0  0  0  0  0
   -3.5620    1.5750   -2.1900 C   0  0  0  0  0  0  0  0  0  0  0  0
   -3.3940    0.2260   -2.4140 C   0  0  0  0  0  0  0  0  0  0  0  0
   -3.4180   -0.3180   -3.7180 N   0  0  0  0  0  0  0  0  0  0  0  0
   -3.2000   -0.6090   -1.3620 N   0  0  0  0  0  0  0  0  0  0  0  0
    1.2320    0.7490   -0.8390 C   0  0  0  0  0  0  0  0  0  0  0  0
    2.4220    1.1460   -1.6760 C   0  0  0  0  0  0  0  0  0  0  0  0
    3.4410    1.7880   -0.7430 C   0  0  0  0  0  0  0  0  0  0  0  0
  1  2  2  0
  2  3  1  0
  2  4  1  0
  4  5  2  0
  4 26  1  0
  5  6  1  0
  5  7  1  0
  7  8  2  3
  7 24  1  0
  8  9  1  0
  9 10  2  3
 10 11  1  0
 10 16  1  0
 11 12  1  0
 11 13  2  0
 13 14  1  0
 14 15  2  0
 15 16  1  0
 16 17  1  0
 17 18  2  0
 17 23  1  0
 18 19  1  0
 19 20  2  0
 20 21  1  0
 21 22  1  0
 21 23  2  0
 24 25  1  0
 25 26  1  0
M  END
