
     RDKit          3D

 26 28  0  0  0  0  0  0  0  0999 V2000
    5.1940   -1.9070    1.4700 C   0  0  0  0  0  0  0  0  0  0  0  0
    4.7500   -1.2300    0.4430 C   0  0  0  0  0  0  0  0  0  0  0  0
    5.5470   -1.1160   -0.7600 N   0  0  0  0  0  0  0  0  0  0  0  0
    6.6650   -0.1930   -0.7590 C   0  0  2  0  0  0  0  0  0  0  0  0
    7.5870   -0.5660    0.2130 F   0  0  0  0  0  0  0  0  0  0  0  0
    6.2010    1.0840   -0.5300 F   0  0  0  0  0  0  0  0  0  0  0  0
    3.4670   -0.5350    0.4280 C   0  0  0  0  0  0  0  0  0  0  0  0
    2.7820   -0.3590    1.6250 C   0  0  0  0  0  0  0  0  0  0  0  0
    1.5510    0.2880    1.6460 C   0  0  0  0  0  0  0  0  0  0  0  0
    0.9560    0.7800    0.5080 C   0  0  0  0  0  0  0  0  0  0  0  0
   -0.2790    1.4240    0.5680 N   0  0  0  0  0  0  0  0  0  0  0  0
   -1.4110    0.9500    0.2500 C   0  0  0  0  0  0  0  0  0  0  0  0
   -1.8240   -0.3490   -0.2600 C   0  0  0  0  0  0  0  0  0  0  0  0
   -3.1510   -0.3700   -0.4440 C   0  0  0  0  0  0  0  0  0  0  0  0
   -3.9320   -1.5200   -0.9520 C   0  0  0  0  0  0  0  0  0  0  0  0
   -4.8810   -1.9900    0.1170 C   0  0  0  0  0  0  0  0  0  0  0  0
   -3.7340    0.9200   -0.0710 C   0  0  0  0  0  0  0  0  0  0  0  0
   -2.6540    1.7040    0.3480 C   0  0  0  0  0  0  0  0  0  0  0  0
   -2.9580    2.9990    0.7570 C   0  0  0  0  0  0  0  0  0  0  0  0
   -4.2430    3.4760    0.7480 C   0  0  0  0  0  0  0  0  0  0  0  0
   -5.2230    2.6730    0.3350 N   0  0  0  0  0  0  0  0  0  0  0  0
   -5.0160    1.4160   -0.0740 C   0  0  0  0  0  0  0  0  0  0  0  0
   -6.1250    0.6590   -0.4990 N   0  0  0  0  0  0  0  0  0  0  0  0
    1.6540    0.5930   -0.6620 C   0  0  0  0  0  0  0  0  0  0  0  0
    2.8830   -0.0490   -0.7120 C   0  0  0  0  0  0  0  0  0  0  0  0
    3.5500   -0.2210   -1.9520 N   0  0  0  0  0  0  0  0  0  0  0  0
  1  2  2  0
  2  3  1  0
  2  7  1  0
  3  4  1  0
  4  5  1  1
  4  6  1  0
  7  8  2  0
  7 25  1  0
  8  9  1  0
  9 10  2  0
 10 11  1  0
 10 24  1  0
 11 12  2  3
 12 13  1  0
 12 18  1  0
 13 14  2  0
 14 15  1  0
 14 17  1  0
 15 16  1  0
 17 18  2  0
 17 22  1  0
 18 19  1  0
 19 20  2  0
 20 21  1  0
 21 22  2  0
 22 23  1  0
 24 25  2  0
 25 26  1  0
M  END
