
     RDKit          3D

 11 11  0  0  0  0  0  0  0  0999 V2000
    4.5840   -0.4220   -0.0290 C   0  0  0  0  0  0  0  0  0  0  0  0
    3.3320   -0.0860    0.5390 O   0  0  0  0  0  0  0  0  0  0  0  0
    2.1440   -0.2300   -0.1570 C   0  0  0  0  0  0  0  0  0  0  0  0
    2.2250   -0.6760   -1.3270 O   0  0  0  0  0  0  0  0  0  0  0  0
    0.8070    0.1070    0.3890 C   0  0  0  0  0  0  0  0  0  0  0  0
   -0.2230   -0.1500   -0.5690 N   0  0  0  0  0  0  0  0  0  0  0  0
   -1.6000    0.0680   -0.3490 C   0  0  0  0  0  0  0  0  0  0  0  0
   -2.3060    1.1620   -0.5800 C   0  0  0  0  0  0  0  0  0  0  0  0
   -3.7320    0.8800   -0.1740 C   0  0  0  0  0  0  0  0  0  0  0  0
   -3.7780   -0.5000   -0.3750 O   0  0  0  0  0  0  0  0  0  0  0  0
   -2.5690   -0.9110    0.2020 C   0  0  0  0  0  0  0  0  0  0  0  0
  1  2  1  0
  2  3  1  0
  3  4  2  0
  3  5  1  0
  5  6  1  0
  6  7  1  0
  7  8  2  0
  7 11  1  0
  8  9  1  0
  9 10  1  0
 10 11  1  0
M  END
