
     RDKit          3D

 11 11  0  0  0  0  0  0  0  0999 V2000
    2.6640    1.2550   -0.3020 C   0  0  0  0  0  0  0  0  0  0  0  0
    1.2180    1.1540   -0.6590 C   0  0  0  0  0  0  0  0  0  0  0  0
    0.7190    2.0010   -1.4370 O   0  0  0  0  0  0  0  0  0  0  0  0
    0.3990    0.1280   -0.1440 N   0  0  0  0  0  0  0  0  0  0  0  0
    0.8850   -0.9120    0.7640 C   0  0  0  0  0  0  0  0  0  0  0  0
   -0.1210   -2.0410    0.5450 C   0  0  0  0  0  0  0  0  0  0  0  0
   -1.3930   -1.2410    0.4290 C   0  0  0  0  0  0  0  0  0  0  0  0
   -0.9850   -0.0750   -0.4050 C   0  0  1  0  0  0  0  0  0  0  0  0
   -1.8170    1.1280   -0.1510 C   0  0  0  0  0  0  0  0  0  0  0  0
   -1.2340    2.1500    0.2910 O   0  0  0  0  0  0  0  0  0  0  0  0
   -3.1800    1.1000   -0.3980 O   0  0  0  0  0  0  0  0  0  0  0  0
  1  2  1  0
  2  3  2  0
  2  4  1  0
  4  5  1  0
  4  8  1  0
  5  6  1  0
  6  7  1  0
  7  8  1  0
  8  9  1  1
  9 10  2  0
  9 11  1  0
M  END
