
     RDKit          3D

 11 11  0  0  0  0  0  0  0  0999 V2000
    4.2080   -0.1870   -0.6240 C   0  0  0  0  0  0  0  0  0  0  0  0
    3.0130    0.0340    0.1100 O   0  0  0  0  0  0  0  0  0  0  0  0
    1.7680    0.0830   -0.5510 C   0  0  0  0  0  0  0  0  0  0  0  0
    1.7670   -0.1100   -1.7930 O   0  0  0  0  0  0  0  0  0  0  0  0
    0.5160    0.3840    0.1700 C   0  0  1  0  0  0  0  0  0  0  0  0
   -0.6100    0.1950   -0.8760 C   0  0  0  0  0  0  0  0  0  0  0  0
   -1.2190   -1.0570   -0.6460 O   0  0  0  0  0  0  0  0  0  0  0  0
   -2.0800   -0.8780    0.4660 C   0  0  2  0  0  0  0  0  0  0  0  0
   -3.2530   -0.1480    0.0350 C   0  0  0  0  0  0  0  0  0  0  0  0
   -1.2140   -0.1450    1.5380 C   0  0  0  0  0  0  0  0  0  0  0  0
    0.1960   -0.4990    1.2180 N   0  0  0  0  0  0  0  0  0  0  0  0
  1  2  1  0
  2  3  1  0
  3  4  2  0
  5  3  1  6
  5  6  1  0
  5 11  1  0
  6  7  1  0
  7  8  1  0
  8  9  1  6
  8 10  1  0
 10 11  1  0
M  END
