
     RDKit          3D

 11 11  0  0  0  0  0  0  0  0999 V2000
    3.9840   -0.1470   -0.6710 C   0  0  0  0  0  0  0  0  0  0  0  0
    2.7380    0.3170   -0.2260 O   0  0  0  0  0  0  0  0  0  0  0  0
    1.7500   -0.5810    0.1590 C   0  0  0  0  0  0  0  0  0  0  0  0
    2.0110   -1.8060    0.0940 O   0  0  0  0  0  0  0  0  0  0  0  0
    0.4170   -0.1440    0.6360 C   0  0  1  0  0  0  0  0  0  0  0  0
   -0.1760    0.7530   -0.4140 C   0  0  0  0  0  0  0  0  0  0  0  0
   -1.5530    1.1000   -0.1590 N   0  0  0  0  0  0  0  0  0  0  0  0
   -2.3560    0.8710   -1.3490 C   0  0  0  0  0  0  0  0  0  0  0  0
   -2.1140    0.2660    0.8920 C   0  0  0  0  0  0  0  0  0  0  0  0
   -1.6540   -1.1560    0.5650 C   0  0  0  0  0  0  0  0  0  0  0  0
   -0.3340   -1.2410    0.9390 O   0  0  0  0  0  0  0  0  0  0  0  0
  1  2  1  0
  2  3  1  0
  3  4  2  0
  5  3  1  6
  5  6  1  0
  5 11  1  0
  6  7  1  0
  7  8  1  0
  7  9  1  0
  9 10  1  0
 10 11  1  0
M  END
