
     RDKit          3D

 11 11  0  0  0  0  0  0  0  0999 V2000
    4.1820    0.0520   -0.0290 C   0  0  0  0  0  0  0  0  0  0  0  0
    2.8200    0.1980   -0.4130 O   0  0  0  0  0  0  0  0  0  0  0  0
    1.7590   -0.0540    0.4140 C   0  0  0  0  0  0  0  0  0  0  0  0
    1.9800   -0.4360    1.5830 O   0  0  0  0  0  0  0  0  0  0  0  0
    0.3500    0.1210   -0.0610 C   0  0  1  0  0  0  0  0  0  0  0  0
    0.0730   -0.7410   -1.2750 C   0  0  0  0  0  0  0  0  0  0  0  0
   -1.3680   -0.9670   -1.3090 N   0  0  0  0  0  0  0  0  0  0  0  0
   -1.9970    0.2670   -0.8730 C   0  0  0  0  0  0  0  0  0  0  0  0
   -1.7440    0.5350    0.6050 C   0  0  1  0  0  0  0  0  0  0  0  0
   -2.8940    0.1660    1.4720 C   0  0  0  0  0  0  0  0  0  0  0  0
   -0.5670   -0.1830    0.9210 O   0  0  0  0  0  0  0  0  0  0  0  0
  1  2  1  0
  2  3  1  0
  3  4  2  0
  5  3  1  1
  5  6  1  0
  5 11  1  0
  6  7  1  0
  7  8  1  0
  8  9  1  0
  9 10  1  1
  9 11  1  0
M  END
