
     RDKit          3D

 11 11  0  0  0  0  0  0  0  0999 V2000
    3.8630   -0.4700   -0.2410 C   0  0  0  0  0  0  0  0  0  0  0  0
    2.4430   -0.2090    0.3240 C   0  0  0  0  0  0  0  0  0  0  0  0
    1.8540    0.7090   -0.4520 O   0  0  0  0  0  0  0  0  0  0  0  0
    0.6300    1.2000   -0.2640 C   0  0  0  0  0  0  0  0  0  0  0  0
   -0.5400    0.2850   -0.2760 C   0  0  2  0  0  0  0  0  0  0  0  0
   -1.7600    1.1640   -0.1710 N   0  0  0  0  0  0  0  0  0  0  0  0
   -2.8460    0.3060   -0.5320 C   0  0  0  0  0  0  0  0  0  0  0  0
   -3.0180   -0.9340    0.2650 C   0  0  0  0  0  0  0  0  0  0  0  0
   -1.8200   -1.4370    0.8450 O   0  0  0  0  0  0  0  0  0  0  0  0
   -0.6920   -0.5850    0.9120 C   0  0  0  0  0  0  0  0  0  0  0  0
    0.0220   -0.6390    1.9020 O   0  0  0  0  0  0  0  0  0  0  0  0
  1  2  1  0
  2  3  1  0
  3  4  1  0
  5  4  1  1
  5  6  1  0
  5 10  1  0
  6  7  1  0
  7  8  1  0
  8  9  1  0
  9 10  1  0
 10 11  2  0
M  END
