
     RDKit          3D

 11 11  0  0  0  0  0  0  0  0999 V2000
    3.8440    0.9940    0.2950 O   0  0  0  0  0  0  0  0  0  0  0  0
    2.6320    0.7350   -0.0930 O   0  0  0  0  0  0  0  0  0  0  0  0
    2.4880   -0.6420   -0.2330 C   0  0  0  0  0  0  0  0  0  0  0  0
    1.1310   -1.0770   -0.6780 C   0  0  0  0  0  0  0  0  0  0  0  0
    0.0520   -0.7030    0.2150 N   0  0  0  0  0  0  0  0  0  0  0  0
   -1.1530   -1.2270   -0.3850 C   0  0  0  0  0  0  0  0  0  0  0  0
   -1.6410   -0.2080   -1.3920 C   0  0  0  0  0  0  0  0  0  0  0  0
   -2.6570    0.6680   -0.6950 C   0  0  0  0  0  0  0  0  0  0  0  0
   -2.4160    0.6240    0.6650 O   0  0  0  0  0  0  0  0  0  0  0  0
   -1.2550    1.2250    1.0440 C   0  0  0  0  0  0  0  0  0  0  0  0
    0.0060    0.6650    0.5550 C   0  0  0  0  0  0  0  0  0  0  0  0
  1  2  1  0
  2  3  1  0
  3  4  1  0
  4  5  1  0
  5  6  1  0
  5 11  1  0
  6  7  1  0
  7  8  1  0
  8  9  1  0
  9 10  1  0
 10 11  1  0
M  END
