
     RDKit          3D

 11 11  0  0  0  0  0  0  0  0999 V2000
    3.8860    0.8810   -0.4820 C   0  0  0  0  0  0  0  0  0  0  0  0
    2.7820    0.3560    0.2040 O   0  0  0  0  0  0  0  0  0  0  0  0
    1.7920   -0.3230   -0.4910 C   0  0  0  0  0  0  0  0  0  0  0  0
    1.9310   -0.4410   -1.7310 O   0  0  0  0  0  0  0  0  0  0  0  0
    0.5980   -0.9000    0.1980 C   0  0  1  0  0  0  0  0  0  0  0  0
   -0.0730    0.1660    1.0240 C   0  0  0  0  0  0  0  0  0  0  0  0
   -1.3540   -0.3590    1.4540 N   0  0  0  0  0  0  0  0  0  0  0  0
   -2.1970   -0.4620    0.2780 C   0  0  1  0  0  0  0  0  0  0  0  0
   -2.9210    0.8540    0.1280 C   0  0  0  0  0  0  0  0  0  0  0  0
   -1.4010   -0.8020   -0.9580 C   0  0  0  0  0  0  0  0  0  0  0  0
   -0.2550   -1.5280   -0.6660 O   0  0  0  0  0  0  0  0  0  0  0  0
  1  2  1  0
  2  3  1  0
  3  4  2  0
  5  3  1  6
  5  6  1  0
  5 11  1  0
  6  7  1  0
  7  8  1  0
  8  9  1  6
  8 10  1  0
 10 11  1  0
M  END
