
     RDKit          3D

 11 11  0  0  0  0  0  0  0  0999 V2000
   -3.1750    0.4880   -0.5750 C   0  0  0  0  0  0  0  0  0  0  0  0
   -1.9600    1.2490   -0.1780 C   0  0  0  0  0  0  0  0  0  0  0  0
   -1.8630    2.4370   -0.4580 O   0  0  0  0  0  0  0  0  0  0  0  0
   -0.8830    0.5500    0.5500 C   0  0  2  0  0  0  0  0  0  0  0  0
    0.4350    0.7720   -0.1520 C   0  0  0  0  0  0  0  0  0  0  0  0
    1.4040   -0.1200    0.4470 N   0  0  0  0  0  0  0  0  0  0  0  0
    2.7000    0.1330   -0.1540 C   0  0  0  0  0  0  0  0  0  0  0  0
    3.0570    1.4670    0.0850 O   0  0  0  0  0  0  0  0  0  0  0  0
    1.0190   -1.4750    0.1170 C   0  0  0  0  0  0  0  0  0  0  0  0
   -0.4640   -1.6660    0.0250 C   0  0  0  0  0  0  0  0  0  0  0  0
   -1.1970   -0.7540    0.7530 O   0  0  0  0  0  0  0  0  0  0  0  0
  1  2  1  0
  2  3  2  0
  4  2  1  6
  4  5  1  0
  4 11  1  0
  5  6  1  0
  6  7  1  0
  6  9  1  0
  7  8  1  0
  9 10  1  0
 10 11  1  0
M  END
