
     RDKit          3D

 37 41  0  0  0  0  0  0  0  0999 V2000
    5.9680   -3.5450    3.1960 C   0  0  0  0  0  0  0  0  0  0  0  0
    4.6620   -2.9790    2.6670 C   0  0  0  0  0  0  0  0  0  0  0  0
    4.4220   -3.5980    1.3110 C   0  0  0  0  0  0  0  0  0  0  0  0
    3.2190   -3.1560    0.6860 N   0  0  0  0  0  0  0  0  0  0  0  0
    2.9530   -1.7970    0.3620 C   0  0  0  0  0  0  0  0  0  0  0  0
    3.8100   -0.9430    0.6340 O   0  0  0  0  0  0  0  0  0  0  0  0
    1.7340   -1.3960   -0.2650 N   0  0  0  0  0  0  0  0  0  0  0  0
    1.4880   -0.0310   -0.5830 C   0  0  0  0  0  0  0  0  0  0  0  0
    2.3400    1.0090   -0.3800 N   0  0  0  0  0  0  0  0  0  0  0  0
    1.8060    2.1310   -0.8080 N   0  0  0  0  0  0  0  0  0  0  0  0
    2.3460    3.4460   -0.7900 C   0  0  0  0  0  0  0  0  0  0  0  0
    2.5270    4.1010    0.3990 C   0  0  0  0  0  0  0  0  0  0  0  0
    3.0510    5.3850    0.4630 C   0  0  0  0  0  0  0  0  0  0  0  0
    3.3970    6.0150   -0.7040 C   0  0  0  0  0  0  0  0  0  0  0  0
    3.2220    5.3710   -1.9100 C   0  0  0  0  0  0  0  0  0  0  0  0
    2.6940    4.0790   -1.9620 C   0  0  0  0  0  0  0  0  0  0  0  0
    3.6890    6.3170   -2.9530 C   0  0  0  0  0  0  0  0  0  0  0  0
    4.5320    7.1710   -2.2350 O   0  0  0  0  0  0  0  0  0  0  0  0
    3.9360    7.2660   -1.0280 O   0  0  0  0  0  0  0  0  0  0  0  0
    0.5920    1.8560   -1.3020 C   0  0  0  0  0  0  0  0  0  0  0  0
    0.3550    0.4860   -1.1740 C   0  0  0  0  0  0  0  0  0  0  0  0
   -0.8960   -0.2100   -1.5850 C   0  0  0  0  0  0  0  0  0  0  0  0
   -1.8260   -0.4770   -0.4530 C   0  0  2  0  0  0  0  0  0  0  0  0
   -1.2940   -1.2570    0.5270 O   0  0  0  0  0  0  0  0  0  0  0  0
   -3.1580   -1.0110   -0.9840 C   0  0  1  0  0  0  0  0  0  0  0  0
   -3.5420   -0.0850   -1.9850 O   0  0  0  0  0  0  0  0  0  0  0  0
   -3.0110   -2.3490   -1.6160 C   0  0  0  0  0  0  0  0  0  0  0  0
   -3.8550   -3.4410   -1.0320 C   0  0  0  0  0  0  0  0  0  0  0  0
   -3.8600   -3.3750    0.5020 C   0  0  0  0  0  0  0  0  0  0  0  0
   -4.4930   -2.0600    0.8110 C   0  0  0  0  0  0  0  0  0  0  0  0
   -5.4300   -1.9250    1.8120 C   0  0  0  0  0  0  0  0  0  0  0  0
   -6.0200   -0.7060    2.0980 C   0  0  0  0  0  0  0  0  0  0  0  0
   -5.6980    0.4320    1.3940 C   0  0  0  0  0  0  0  0  0  0  0  0
   -6.3210    1.7230    1.6970 C   0  0  0  0  0  0  0  0  0  0  0  0
   -6.0520    2.7730    1.0790 O   0  0  0  0  0  0  0  0  0  0  0  0
   -4.7610    0.3020    0.3920 C   0  0  0  0  0  0  0  0  0  0  0  0
   -4.1600   -0.9310    0.0990 C   0  0  0  0  0  0  0  0  0  0  0  0
  1  2  1  0
  2  3  1  0
  3  4  1  0
  4  5  1  0
  5  6  2  0
  5  7  1  0
  7  8  1  0
  8  9  2  0
  8 21  1  0
  9 10  1  0
 10 11  1  0
 10 20  1  0
 11 12  2  0
 11 16  1  0
 12 13  1  0
 13 14  2  0
 14 15  1  0
 14 19  1  0
 15 16  2  0
 15 17  1  0
 17 18  1  0
 18 19  1  0
 20 21  2  0
 21 22  1  0
 22 23  1  0
 23 24  1  1
 23 25  1  0
 25 26  1  6
 25 27  1  0
 25 37  1  0
 27 28  1  0
 28 29  1  0
 29 30  1  0
 30 31  2  0
 30 37  1  0
 31 32  1  0
 32 33  2  0
 33 34  1  0
 33 36  1  0
 34 35  2  0
 36 37  2  0
M  END
