
     RDKit          3D

 37 41  0  0  0  0  0  0  0  0999 V2000
    6.4430    3.1560   -1.2860 C   0  0  0  0  0  0  0  0  0  0  0  0
    7.1030    1.9860   -0.9220 O   0  0  0  0  0  0  0  0  0  0  0  0
    6.5970    0.9060   -0.2590 C   0  0  0  0  0  0  0  0  0  0  0  0
    6.6640    0.8910    1.1270 C   0  0  0  0  0  0  0  0  0  0  0  0
    7.2660    2.0070    1.9020 C   0  0  0  0  0  0  0  0  0  0  0  0
    6.1340   -0.2370    1.7460 C   0  0  0  0  0  0  0  0  0  0  0  0
    5.5790   -1.2700    1.0430 C   0  0  0  0  0  0  0  0  0  0  0  0
    5.5230   -1.2340   -0.3290 C   0  0  0  0  0  0  0  0  0  0  0  0
    6.0350   -0.1370   -0.9880 C   0  0  0  0  0  0  0  0  0  0  0  0
    5.8460   -0.3770   -2.3300 C   0  0  0  0  0  0  0  0  0  0  0  0
    5.2320   -1.5920   -2.4970 C   0  0  0  0  0  0  0  0  0  0  0  0
    5.0420   -2.1030   -1.2660 N   0  0  0  0  0  0  0  0  0  0  0  0
    4.4390   -3.3790   -0.9970 C   0  0  0  0  0  0  0  0  0  0  0  0
    2.9830   -3.3650   -0.8190 C   0  0  0  0  0  0  0  0  0  0  0  0
    2.3750   -4.4610   -0.6070 O   0  0  0  0  0  0  0  0  0  0  0  0
    2.1690   -2.2050   -0.8630 N   0  0  0  0  0  0  0  0  0  0  0  0
    0.7760   -2.2930   -0.6800 N   0  0  0  0  0  0  0  0  0  0  0  0
   -0.0650   -1.1700   -0.5150 C   0  0  0  0  0  0  0  0  0  0  0  0
    0.4200   -0.0090   -0.5280 O   0  0  0  0  0  0  0  0  0  0  0  0
   -1.4740   -1.3580   -0.3330 N   0  0  0  0  0  0  0  0  0  0  0  0
   -2.3240   -0.2160   -0.1630 C   0  0  0  0  0  0  0  0  0  0  0  0
   -3.7480   -0.5530    0.0120 C   0  0  0  0  0  0  0  0  0  0  0  0
   -4.3030   -1.8040    0.0170 C   0  0  0  0  0  0  0  0  0  0  0  0
   -5.6770   -2.0220    0.1930 C   0  0  0  0  0  0  0  0  0  0  0  0
   -6.5090   -0.9430    0.3680 C   0  0  0  0  0  0  0  0  0  0  0  0
   -5.9480    0.3170    0.3620 C   0  0  0  0  0  0  0  0  0  0  0  0
   -4.6040    0.5500    0.1910 C   0  0  0  0  0  0  0  0  0  0  0  0
   -4.0580    1.8190    0.1890 O   0  0  0  0  0  0  0  0  0  0  0  0
   -4.8950    2.9140    0.3640 C   0  0  0  0  0  0  0  0  0  0  0  0
   -5.0290    3.6640    1.4600 C   0  0  0  0  0  0  0  0  0  0  0  0
   -6.0130    4.7040    1.2020 C   0  0  0  0  0  0  0  0  0  0  0  0
   -6.5640    5.6440    2.0420 O   0  0  0  0  0  0  0  0  0  0  0  0
   -6.3060    4.5800   -0.0620 C   0  0  0  0  0  0  0  0  0  0  0  0
   -5.8190    3.4900   -0.6250 C   0  0  0  0  0  0  0  0  0  0  0  0
   -7.9070   -1.4430    0.5380 C   0  0  0  0  0  0  0  0  0  0  0  0
   -7.7810   -2.9380    0.2770 C   0  0  0  0  0  0  0  0  0  0  0  0
   -6.3920   -3.2070    0.2240 O   0  0  0  0  0  0  0  0  0  0  0  0
  1  2  1  0
  2  3  1  0
  3  4  2  0
  3  9  1  0
  4  5  1  0
  4  6  1  0
  6  7  2  0
  7  8  1  0
  8  9  2  0
  8 12  1  0
  9 10  1  0
 10 11  2  0
 11 12  1  0
 12 13  1  0
 13 14  1  0
 14 15  2  0
 14 16  1  0
 16 17  1  0
 17 18  1  0
 18 19  2  0
 18 20  1  0
 20 21  1  0
 21 22  1  0
 22 23  2  0
 22 27  1  0
 23 24  1  0
 24 25  2  0
 24 37  1  0
 25 26  1  0
 25 35  1  0
 26 27  2  0
 27 28  1  0
 28 29  1  0
 29 30  2  0
 29 34  1  0
 30 31  1  0
 31 32  1  0
 31 33  2  0
 33 34  2  0
 35 36  1  0
 36 37  1  0
M  END
