
     RDKit          3D

 37 41  0  0  0  0  0  0  0  0999 V2000
    4.5410   -4.7080   -0.8670 C   0  0  0  0  0  0  0  0  0  0  0  0
    3.8980   -4.6300    0.3340 O   0  0  0  0  0  0  0  0  0  0  0  0
    2.7810   -3.8590    0.4090 C   0  0  0  0  0  0  0  0  0  0  0  0
    2.9640   -2.4180    0.1280 C   0  0  0  0  0  0  0  0  0  0  0  0
    4.1120   -1.9830   -0.1290 O   0  0  0  0  0  0  0  0  0  0  0  0
    1.8260   -1.5290    0.1510 N   0  0  0  0  0  0  0  0  0  0  0  0
    2.0560   -0.1770   -0.1110 C   0  0  0  0  0  0  0  0  0  0  0  0
    3.3090    0.2790   -0.4100 N   0  0  0  0  0  0  0  0  0  0  0  0
    3.5900    1.5400   -0.7080 C   0  0  0  0  0  0  0  0  0  0  0  0
    2.5940    2.4600   -0.7290 C   0  0  0  0  0  0  0  0  0  0  0  0
    1.2820    2.0520   -0.4310 C   0  0  0  0  0  0  0  0  0  0  0  0
    0.2980    3.1370   -0.4800 C   0  0  0  0  0  0  0  0  0  0  0  0
   -0.8070    3.1070   -1.2570 C   0  0  0  0  0  0  0  0  0  0  0  0
   -1.6310    4.2140   -1.3300 C   0  0  0  0  0  0  0  0  0  0  0  0
   -1.3630    5.3610   -0.6340 C   0  0  0  0  0  0  0  0  0  0  0  0
   -1.9660    6.5240   -0.5300 O   0  0  0  0  0  0  0  0  0  0  0  0
   -1.3100    7.3090    0.2720 C   0  0  0  0  0  0  0  0  0  0  0  0
   -0.2070    6.6370    0.7320 C   0  0  0  0  0  0  0  0  0  0  0  0
   -0.2340    5.3700    0.1480 C   0  0  0  0  0  0  0  0  0  0  0  0
    0.5570    4.2960    0.2150 N   0  0  0  0  0  0  0  0  0  0  0  0
    1.0130    0.7380   -0.1180 C   0  0  0  0  0  0  0  0  0  0  0  0
   -0.3190    0.3250    0.3180 C   0  0  2  0  0  0  0  0  0  0  0  0
   -0.5250    0.3030    1.8030 C   0  0  0  0  0  0  0  0  0  0  0  0
   -1.5560    0.9030    2.4280 C   0  0  0  0  0  0  0  0  0  0  0  0
   -2.5910    1.6390    1.7980 N   0  0  0  0  0  0  0  0  0  0  0  0
   -1.5040    0.7190    3.8020 O   0  0  0  0  0  0  0  0  0  0  0  0
   -0.7820   -0.5010    3.9850 C   0  0  0  0  0  0  0  0  0  0  0  0
    0.2130   -0.3190    2.8700 C   0  0  0  0  0  0  0  0  0  0  0  0
    1.4050   -0.6440    2.8970 O   0  0  0  0  0  0  0  0  0  0  0  0
   -0.9690   -0.7700   -0.3980 C   0  0  0  0  0  0  0  0  0  0  0  0
   -0.7880   -0.9680   -1.7470 C   0  0  0  0  0  0  0  0  0  0  0  0
   -1.4260   -1.9870   -2.4310 C   0  0  0  0  0  0  0  0  0  0  0  0
   -2.2770   -2.8550   -1.7890 C   0  0  0  0  0  0  0  0  0  0  0  0
   -2.9220   -3.8890   -2.4890 O   0  0  0  0  0  0  0  0  0  0  0  0
   -3.7880   -4.7850   -1.8810 C   0  0  0  0  0  0  0  0  0  0  0  0
   -2.4680   -2.6690   -0.4390 C   0  0  0  0  0  0  0  0  0  0  0  0
   -1.8310   -1.6470    0.2540 C   0  0  0  0  0  0  0  0  0  0  0  0
  1  2  1  0
  2  3  1  0
  3  4  1  0
  4  5  2  0
  4  6  1  0
  6  7  1  0
  7  8  2  0
  7 21  1  0
  8  9  1  0
  9 10  2  0
 10 11  1  0
 11 12  1  0
 11 21  2  0
 12 13  2  0
 12 20  1  0
 13 14  1  0
 14 15  2  0
 15 16  1  0
 15 19  1  0
 16 17  1  0
 17 18  2  0
 18 19  1  0
 19 20  2  0
 22 21  1  1
 22 23  1  0
 22 30  1  0
 23 24  2  0
 23 28  1  0
 24 25  1  0
 24 26  1  0
 26 27  1  0
 27 28  1  0
 28 29  2  0
 30 31  2  0
 30 37  1  0
 31 32  1  0
 32 33  2  0
 33 34  1  0
 33 36  1  0
 34 35  1  0
 36 37  2  0
M  END
