
     RDKit          3D

 39 42  0  0  0  0  0  0  0  0999 V2000
    3.3880   -5.0890   -0.7500 N   0  0  0  0  0  0  0  0  0  0  0  0
    4.2010   -4.0180   -1.1830 C   0  0  0  0  0  0  0  0  0  0  0  0
    5.2080   -4.2470   -2.1440 N   0  0  0  0  0  0  0  0  0  0  0  0
    4.0220   -2.8450   -0.6990 N   0  0  0  0  0  0  0  0  0  0  0  0
    4.8650   -1.7830   -1.1590 C   0  0  0  0  0  0  0  0  0  0  0  0
    4.5240   -0.4140   -0.7070 C   0  0  0  0  0  0  0  0  0  0  0  0
    3.3990   -0.2850    0.2570 C   0  0  0  0  0  0  0  0  0  0  0  0
    2.3240   -1.3290    0.0600 C   0  0  1  0  0  0  0  0  0  0  0  0
    1.6960   -1.2470   -1.2970 C   0  0  0  0  0  0  0  0  0  0  0  0
    1.0910    0.0570   -1.4860 N   0  0  0  0  0  0  0  0  0  0  0  0
    0.0510    0.5790   -0.6770 C   0  0  0  0  0  0  0  0  0  0  0  0
   -0.3630   -0.1460    0.2530 O   0  0  0  0  0  0  0  0  0  0  0  0
   -0.5280    1.9470   -0.9320 C   0  0  0  0  0  0  0  0  0  0  0  0
   -1.6720    2.2460   -0.0500 C   0  0  2  0  0  0  0  0  0  0  0  0
   -2.7970    1.4130   -0.1270 N   0  0  0  0  0  0  0  0  0  0  0  0
   -3.5780    0.6250    1.0340 S   0  0  2  0  0  0  0  0  0  0  0  0
   -5.0790    0.9150    0.9150 O   0  0  0  0  0  0  0  0  0  0  0  0
   -3.2630    0.9030    2.4690 O   0  0  0  0  0  0  0  0  0  0  0  0
   -3.4780   -1.1210    0.8550 C   0  0  0  0  0  0  0  0  0  0  0  0
   -4.3180   -1.7800   -0.0420 C   0  0  0  0  0  0  0  0  0  0  0  0
   -4.2690   -3.1480   -0.1800 C   0  0  0  0  0  0  0  0  0  0  0  0
   -3.3990   -3.9330    0.5480 C   0  0  0  0  0  0  0  0  0  0  0  0
   -3.3680   -5.3100    0.3900 C   0  0  0  0  0  0  0  0  0  0  0  0
   -2.4970   -6.0950    1.1170 C   0  0  0  0  0  0  0  0  0  0  0  0
   -1.6660   -5.4420    2.0040 C   0  0  0  0  0  0  0  0  0  0  0  0
   -1.6940   -4.0700    2.1640 C   0  0  0  0  0  0  0  0  0  0  0  0
   -2.5670   -3.2820    1.4360 C   0  0  0  0  0  0  0  0  0  0  0  0
   -2.6130   -1.9110    1.5770 C   0  0  0  0  0  0  0  0  0  0  0  0
   -2.1620    3.6200   -0.3790 C   0  0  0  0  0  0  0  0  0  0  0  0
   -3.1020    3.6510   -1.2630 O   0  0  0  0  0  0  0  0  0  0  0  0
   -1.7470    4.8460    0.1360 N   0  0  0  0  0  0  0  0  0  0  0  0
   -0.6960    4.9260    1.1120 C   0  0  0  0  0  0  0  0  0  0  0  0
    0.6540    5.1170    0.5930 C   0  0  0  0  0  0  0  0  0  0  0  0
    0.9370    5.2410   -0.6180 O   0  0  0  0  0  0  0  0  0  0  0  0
    1.7140    5.1670    1.4970 O   0  0  0  0  0  0  0  0  0  0  0  0
   -2.4300    6.0490   -0.3440 C   0  0  2  0  0  0  0  0  0  0  0  0
   -1.6560    7.3240   -0.5460 C   0  0  0  0  0  0  0  0  0  0  0  0
   -2.7010    7.1730    0.5720 C   0  0  0  0  0  0  0  0  0  0  0  0
    2.9780   -2.6660    0.2880 C   0  0  0  0  0  0  0  0  0  0  0  0
  1  2  1  0
  2  3  1  0
  2  4  2  3
  4  5  1  0
  4 39  1  0
  5  6  1  0
  6  7  1  0
  7  8  1  0
  8  9  1  6
  8 39  1  0
  9 10  1  0
 10 11  1  0
 11 12  2  0
 11 13  1  0
 14 13  1  6
 14 15  1  0
 14 29  1  0
 16 15  1  6
 16 17  2  0
 16 18  2  0
 16 19  1  0
 19 20  2  0
 19 28  1  0
 20 21  1  0
 21 22  2  0
 22 23  1  0
 22 27  1  0
 23 24  2  0
 24 25  1  0
 25 26  2  0
 26 27  1  0
 27 28  2  0
 29 30  2  0
 29 31  1  0
 31 32  1  0
 36 31  1  1
 32 33  1  0
 33 34  2  0
 33 35  1  0
 36 37  1  0
 36 38  1  0
 37 38  1  0
M  CHG  1   4   1
M  END
