
     RDKit          3D

 37 41  0  0  0  0  0  0  0  0999 V2000
   -7.6850   -0.0840   -0.7170 C   0  0  0  0  0  0  0  0  0  0  0  0
   -6.8350    1.0090   -1.0750 N   0  0  0  0  0  0  0  0  0  0  0  0
   -5.4340    0.7520   -0.9750 C   0  0  0  0  0  0  0  0  0  0  0  0
   -4.9730    0.5760    0.4660 C   0  0  0  0  0  0  0  0  0  0  0  0
   -3.5260    0.3130    0.4970 C   0  0  0  0  0  0  0  0  0  0  0  0
   -2.9590   -0.9170    0.3110 C   0  0  0  0  0  0  0  0  0  0  0  0
   -3.7790   -2.1140    0.1930 C   0  0  0  0  0  0  0  0  0  0  0  0
   -3.5430   -2.8240   -0.8390 O   0  0  0  0  0  0  0  0  0  0  0  0
   -4.7620   -2.5650    1.0690 N   0  0  0  0  0  0  0  0  0  0  0  0
   -5.4810   -3.7990    0.7540 C   0  0  0  0  0  0  0  0  0  0  0  0
   -1.6300   -1.0650    0.2390 O   0  0  0  0  0  0  0  0  0  0  0  0
   -0.7840   -0.0900    0.3400 C   0  0  0  0  0  0  0  0  0  0  0  0
    0.6060   -0.3300    0.2520 C   0  0  0  0  0  0  0  0  0  0  0  0
    1.0480   -1.6770    0.0140 C   0  0  0  0  0  0  0  0  0  0  0  0
    2.1760   -2.2440   -0.0130 C   0  0  0  0  0  0  0  0  0  0  0  0
    3.4490   -1.6890    0.2070 N   0  0  0  0  0  0  0  0  0  0  0  0
    4.4230   -1.6180   -0.8640 C   0  0  0  0  0  0  0  0  0  0  0  0
    4.0780   -2.0680   -1.9700 O   0  0  0  0  0  0  0  0  0  0  0  0
    5.7440   -1.0410   -0.6410 C   0  0  0  0  0  0  0  0  0  0  0  0
    6.7290   -0.8930   -1.6130 C   0  0  0  0  0  0  0  0  0  0  0  0
    7.8260   -0.3120   -1.0170 C   0  0  0  0  0  0  0  0  0  0  0  0
    9.0710    0.0680   -1.4690 C   0  0  0  0  0  0  0  0  0  0  0  0
    9.9930    0.6410   -0.6200 C   0  0  0  0  0  0  0  0  0  0  0  0
    9.6350    0.8260    0.7030 C   0  0  0  0  0  0  0  0  0  0  0  0
    8.4030    0.4550    1.1680 C   0  0  0  0  0  0  0  0  0  0  0  0
    7.4760   -0.1240    0.3050 C   0  0  0  0  0  0  0  0  0  0  0  0
    6.2500   -0.5690    0.4660 O   0  0  0  0  0  0  0  0  0  0  0  0
    1.3730    0.7880    0.3740 C   0  0  0  0  0  0  0  0  0  0  0  0
    2.6310    0.7390    0.3120 O   0  0  0  0  0  0  0  0  0  0  0  0
    0.8630    2.0500    0.5660 C   0  0  0  0  0  0  0  0  0  0  0  0
   -0.5010    2.3280    0.6590 C   0  0  0  0  0  0  0  0  0  0  0  0
   -1.3280    1.2400    0.5430 C   0  0  0  0  0  0  0  0  0  0  0  0
   -2.7140    1.4430    0.6220 C   0  0  0  0  0  0  0  0  0  0  0  0
   -3.2840    2.7250    0.8070 N   0  0  0  0  0  0  0  0  0  0  0  0
   -2.4070    3.8430    0.9180 C   0  0  0  0  0  0  0  0  0  0  0  0
   -2.9720    4.9790    1.0730 O   0  0  0  0  0  0  0  0  0  0  0  0
   -0.9430    3.7280    0.8610 C   0  0  0  0  0  0  0  0  0  0  0  0
  1  2  1  0
  2  3  1  0
  3  4  1  0
  4  5  1  0
  5  6  2  0
  5 33  1  0
  6  7  1  0
  6 11  1  0
  7  8  2  0
  7  9  1  0
  9 10  1  0
 11 12  1  0
 12 13  2  0
 12 32  1  0
 13 14  1  0
 13 28  1  0
 14 15  2  3
 15 16  1  0
 16 17  1  0
 17 18  2  0
 17 19  1  0
 19 20  2  0
 19 27  1  0
 20 21  1  0
 21 22  2  0
 21 26  1  0
 22 23  1  0
 23 24  2  0
 24 25  1  0
 25 26  2  0
 26 27  1  0
 28 29  2  0
 28 30  1  0
 30 31  2  0
 31 32  1  0
 31 37  1  0
 32 33  2  0
 33 34  1  0
 34 35  1  0
 35 36  2  0
 35 37  1  0
M  END
