
     RDKit          3D

 37 41  0  0  0  0  0  0  0  0999 V2000
   -1.5080    3.0490    1.1490 C   0  0  0  0  0  0  0  0  0  0  0  0
   -1.8170    2.0040    0.0230 C   0  0  0  0  0  0  0  0  0  0  0  0
   -3.0220    1.2950    0.4680 C   0  0  1  0  0  0  0  0  0  0  0  0
   -4.1920    2.1340    0.6830 C   0  0  0  0  0  0  0  0  0  0  0  0
   -4.2340    3.3570    0.3480 O   0  0  0  0  0  0  0  0  0  0  0  0
   -5.3510    1.5200    1.3110 C   0  0  0  0  0  0  0  0  0  0  0  0
   -5.4960    0.2060    1.3140 C   0  0  0  0  0  0  0  0  0  0  0  0
   -6.6510   -0.4210    1.9170 C   0  0  0  0  0  0  0  0  0  0  0  0
   -6.7900   -1.7310    1.8500 C   0  0  0  0  0  0  0  0  0  0  0  0
   -5.8450   -2.5480    1.2060 N   0  0  0  0  0  0  0  0  0  0  0  0
   -4.6770   -1.9940    0.5970 C   0  0  0  0  0  0  0  0  0  0  0  0
   -3.7840   -2.7880   -0.0760 C   0  0  0  0  0  0  0  0  0  0  0  0
   -2.6940   -2.2200   -0.6970 C   0  0  0  0  0  0  0  0  0  0  0  0
   -2.4390   -0.8410   -0.6720 C   0  0  0  0  0  0  0  0  0  0  0  0
   -1.4350   -0.2900   -1.4670 N   0  0  0  0  0  0  0  0  0  0  0  0
   -0.2500   -0.9650   -1.8280 C   0  0  0  0  0  0  0  0  0  0  0  0
   -0.0390   -2.1290   -1.4260 O   0  0  0  0  0  0  0  0  0  0  0  0
    0.7850   -0.2880   -2.7110 C   0  0  0  0  0  0  0  0  0  0  0  0
    1.8790   -1.1810   -2.9240 N   0  0  0  0  0  0  0  0  0  0  0  0
    1.8050   -2.0490   -4.0630 C   0  0  0  0  0  0  0  0  0  0  0  0
    0.7570   -2.1180   -4.7440 O   0  0  0  0  0  0  0  0  0  0  0  0
    2.9950   -2.8570   -4.4110 C   0  0  0  0  0  0  0  0  0  0  0  0
    3.9320   -2.9090   -3.3820 O   0  0  0  0  0  0  0  0  0  0  0  0
    4.0090   -2.0850   -2.2920 C   0  0  0  0  0  0  0  0  0  0  0  0
    5.0720   -2.0940   -1.4230 C   0  0  0  0  0  0  0  0  0  0  0  0
    5.1350   -1.2460   -0.3130 C   0  0  0  0  0  0  0  0  0  0  0  0
    4.1170   -0.3730   -0.0660 C   0  0  0  0  0  0  0  0  0  0  0  0
    4.1000    0.5390    1.0300 N   0  0  0  0  0  0  0  0  0  0  0  0
    5.1480    0.8660    1.8920 C   0  0  0  0  0  0  0  0  0  0  0  0
    6.2700    0.3160    1.7410 O   0  0  0  0  0  0  0  0  0  0  0  0
    5.0870    1.8290    3.0220 C   0  0  0  0  0  0  0  0  0  0  0  0
    3.9900    2.6290    3.0760 O   0  0  0  0  0  0  0  0  0  0  0  0
    3.9460    3.5300    2.0230 C   0  0  0  0  0  0  0  0  0  0  0  0
    3.0190   -0.3460   -0.9410 C   0  0  0  0  0  0  0  0  0  0  0  0
    2.9810   -1.1830   -2.0160 C   0  0  0  0  0  0  0  0  0  0  0  0
   -3.3470   -0.0630    0.0200 C   0  0  0  0  0  0  0  0  0  0  0  0
   -4.4840   -0.6020    0.6550 C   0  0  0  0  0  0  0  0  0  0  0  0
  1  2  1  0
  3  2  1  6
  3  4  1  0
  3 36  1  0
  4  5  2  0
  4  6  1  0
  6  7  2  0
  7  8  1  0
  7 37  1  0
  8  9  2  0
  9 10  1  0
 10 11  1  0
 11 12  1  0
 11 37  2  0
 12 13  2  0
 13 14  1  0
 14 15  1  0
 14 36  2  0
 15 16  1  0
 16 17  2  0
 16 18  1  0
 18 19  1  0
 19 20  1  0
 19 35  1  0
 20 21  2  0
 20 22  1  0
 22 23  1  0
 23 24  1  0
 24 25  2  0
 24 35  1  0
 25 26  1  0
 26 27  2  0
 27 28  1  0
 27 34  1  0
 28 29  1  0
 29 30  2  0
 29 31  1  0
 31 32  1  0
 32 33  1  0
 34 35  2  0
 36 37  1  0
M  END
