
     RDKit          3D

 31 32  0  0  0  0  0  0  0  0999 V2000
    2.5570   -2.1570    2.0010 N   0  0  0  0  0  0  0  0  0  0  0  0
    2.5640   -1.4660    0.8790 C   0  0  0  0  0  0  0  0  0  0  0  0
    3.6130   -1.7230   -0.0430 N   0  0  0  0  0  0  0  0  0  0  0  0
    4.5210   -0.4370   -0.9380 P   0  0  0  0  0  0  0  0  0  0  0  0
    5.2870   -1.0950   -2.3230 O   0  0  0  0  0  0  0  0  0  0  0  0
    5.7210    0.3650    0.1010 N   0  0  0  0  0  0  0  0  0  0  0  0
    5.4830    1.6540    0.3460 O   0  0  0  0  0  0  0  0  0  0  0  0
    4.3490    2.1660   -0.2720 C   0  0  0  0  0  0  0  0  0  0  0  0
    3.2740    1.9180    0.5400 O   0  0  0  0  0  0  0  0  0  0  0  0
    2.0740    2.4410    0.0640 C   0  0  0  0  0  0  0  0  0  0  0  0
    1.6940    1.7800   -1.1830 C   0  0  0  0  0  0  0  0  0  0  0  0
    2.1660    2.2760   -2.2680 O   0  0  0  0  0  0  0  0  0  0  0  0
    0.8650    0.6540   -1.3380 N   0  0  0  0  0  0  0  0  0  0  0  0
    0.6200   -0.4090   -0.4160 C   0  0  1  0  0  0  0  0  0  0  0  0
   -0.8160   -0.1630    0.0930 C   0  0  0  0  0  0  0  0  0  0  0  0
   -1.7480   -1.2760   -0.2560 C   0  0  2  0  0  0  0  0  0  0  0  0
   -2.9750   -1.1230    0.4540 N   0  0  0  0  0  0  0  0  0  0  0  0
   -3.7320    0.0470    0.1760 C   0  0  1  0  0  0  0  0  0  0  0  0
   -4.2270    0.1880   -1.1920 C   0  0  0  0  0  0  0  0  0  0  0  0
   -3.9960   -0.6960   -2.0470 O   0  0  0  0  0  0  0  0  0  0  0  0
   -4.9590    1.2970   -1.5720 O   0  0  0  0  0  0  0  0  0  0  0  0
   -5.4330    1.4810   -2.8000 O   0  0  0  0  0  0  0  0  0  0  0  0
   -6.4340    2.3580   -2.7670 O   0  0  0  0  0  0  0  0  0  0  0  0
   -5.2160    0.1180    1.3100 P   0  0  0  0  0  0  0  0  0  0  0  0
   -5.7550   -1.4630    1.7500 O   0  0  0  0  0  0  0  0  0  0  0  0
   -4.9420    1.1300    2.6700 O   0  0  0  0  0  0  0  0  0  0  0  0
   -1.1620   -2.6370    0.1570 C   0  0  0  0  0  0  0  0  0  0  0  0
    0.0290   -2.7900   -0.6270 O   0  0  0  0  0  0  0  0  0  0  0  0
    0.5350   -1.6590   -1.2300 C   0  0  0  0  0  0  0  0  0  0  0  0
    0.9010   -1.7250   -2.4290 O   0  0  0  0  0  0  0  0  0  0  0  0
    1.5160   -0.5230    0.6820 N   0  0  0  0  0  0  0  0  0  0  0  0
  1  2  2  0
  2  3  1  0
  2 31  1  0
  3  4  1  0
  4  5  1  0
  4  6  1  0
  6  7  1  0
  7  8  1  0
  8  9  1  0
  9 10  1  0
 10 11  1  0
 11 12  2  0
 11 13  1  0
 13 14  1  0
 14 15  1  1
 14 29  1  0
 14 31  1  0
 15 16  1  0
 16 17  1  1
 16 27  1  0
 18 17  1  6
 18 19  1  0
 18 24  1  0
 19 20  2  0
 19 21  1  0
 21 22  1  0
 22 23  1  0
 24 25  1  0
 24 26  1  0
 27 28  1  0
 28 29  1  0
 29 30  2  0
M  END
