
     RDKit          3D

 31 32  0  0  0  0  0  0  0  0999 V2000
   -5.6530    4.1970    0.3430 O   0  0  0  0  0  0  0  0  0  0  0  0
   -4.5200    4.6310    0.0290 C   0  0  0  0  0  0  0  0  0  0  0  0
   -4.3760    6.0060   -0.1360 O   0  0  0  0  0  0  0  0  0  0  0  0
   -3.3980    3.6850   -0.1530 C   0  0  0  0  0  0  0  0  0  0  0  0
   -3.8820    2.3500    0.0900 N   0  0  0  0  0  0  0  0  0  0  0  0
   -3.0160    1.2040   -0.0110 C   0  0  0  0  0  0  0  0  0  0  0  0
   -1.7790    1.4650    0.0340 N   0  0  0  0  0  0  0  0  0  0  0  0
   -0.7660    0.3880   -0.0620 C   0  0  0  0  0  0  0  0  0  0  0  0
    0.5330    0.7820    0.2780 N   0  0  0  0  0  0  0  0  0  0  0  0
    1.6620    0.0520    0.6320 C   0  0  0  0  0  0  0  0  0  0  0  0
    1.7450   -1.1540    0.7690 O   0  0  0  0  0  0  0  0  0  0  0  0
    2.8780    0.7570    0.8710 O   0  0  0  0  0  0  0  0  0  0  0  0
    4.0280    0.0610    1.2270 C   0  0  1  0  0  0  0  0  0  0  0  0
    5.0350    0.2210    0.1000 C   0  0  0  0  0  0  0  0  0  0  0  0
    6.2200   -0.4560    0.3910 O   0  0  0  0  0  0  0  0  0  0  0  0
    7.0920   -0.3320   -0.5580 O   0  0  0  0  0  0  0  0  0  0  0  0
    6.6250   -0.5980   -1.7500 O   0  0  0  0  0  0  0  0  0  0  0  0
    7.3070   -0.0210   -2.7000 O   0  0  0  0  0  0  0  0  0  0  0  0
    4.6030    0.5220    2.5220 C   0  0  0  0  0  0  0  0  0  0  0  0
    4.0990    1.4420    3.2130 O   0  0  0  0  0  0  0  0  0  0  0  0
    5.7540   -0.0800    3.0100 O   0  0  0  0  0  0  0  0  0  0  0  0
   -1.2230   -0.8010   -0.2050 C   0  0  0  0  0  0  0  0  0  0  0  0
   -0.3200   -1.9330   -0.3270 N   0  0  0  0  0  0  0  0  0  0  0  0
   -0.6280   -3.1740    0.2910 C   0  0  0  0  0  0  0  0  0  0  0  0
   -2.1220   -3.4150    0.4090 C   0  0  0  0  0  0  0  0  0  0  0  0
   -2.8330   -2.2010    0.7490 N   0  0  0  0  0  0  0  0  0  0  0  0
   -2.6560   -1.1870   -0.2800 C   0  0  2  0  0  0  0  0  0  0  0  0
   -3.0560   -1.8960   -1.9650 P   0  0  0  0  0  0  0  0  0  0  0  0
   -1.8320   -2.9420   -2.5370 O   0  0  0  0  0  0  0  0  0  0  0  0
   -4.6200   -2.5980   -1.9310 O   0  0  0  0  0  0  0  0  0  0  0  0
   -3.5530   -0.1000   -0.1030 N   0  0  0  0  0  0  0  0  0  0  0  0
  1  2  2  0
  2  3  1  0
  2  4  1  0
  4  5  1  0
  5  6  1  0
  6  7  2  0
  6 31  1  0
  7  8  1  0
  8  9  1  0
  8 22  2  0
  9 10  1  0
 10 11  2  0
 10 12  1  0
 12 13  1  0
 13 14  1  6
 13 19  1  0
 14 15  1  0
 15 16  1  0
 16 17  1  0
 17 18  1  0
 19 20  2  0
 19 21  1  0
 22 23  1  0
 22 27  1  0
 23 24  1  0
 24 25  1  0
 25 26  1  0
 26 27  1  0
 27 28  1  6
 27 31  1  0
 28 29  1  0
 28 30  1  0
M  END
