
     RDKit          3D

 31 32  0  0  0  0  0  0  0  0999 V2000
    1.0850   -5.2210    1.1580 N   0  0  0  0  0  0  0  0  0  0  0  0
    0.6090   -3.9830    0.9990 O   0  0  0  0  0  0  0  0  0  0  0  0
    0.7760   -3.4960   -0.2780 C   0  0  0  0  0  0  0  0  0  0  0  0
    0.2060   -2.0690   -0.3720 C   0  0  2  0  0  0  0  0  0  0  0  0
    0.9800   -1.1330    0.5180 C   0  0  0  0  0  0  0  0  0  0  0  0
    2.0660   -0.4180   -0.2110 C   0  0  0  0  0  0  0  0  0  0  0  0
    2.3420   -0.9140   -1.3330 O   0  0  0  0  0  0  0  0  0  0  0  0
    2.7640    0.7200    0.2580 N   0  0  0  0  0  0  0  0  0  0  0  0
    4.1630    0.8050    0.1050 C   0  0  0  0  0  0  0  0  0  0  0  0
    4.8010    1.8230    0.4970 O   0  0  0  0  0  0  0  0  0  0  0  0
    4.9160   -0.2250   -0.4830 N   0  0  0  0  0  0  0  0  0  0  0  0
    6.2830   -0.1330   -0.6330 O   0  0  0  0  0  0  0  0  0  0  0  0
    6.6090    1.0840   -0.2620 O   0  0  0  0  0  0  0  0  0  0  0  0
    7.4930    1.6170   -1.1000 O   0  0  0  0  0  0  0  0  0  0  0  0
    8.5780    1.8900   -0.4060 O   0  0  0  0  0  0  0  0  0  0  0  0
    2.0700    1.8260    0.8940 C   0  0  0  0  0  0  0  0  0  0  0  0
    2.8080    2.6340    1.5130 O   0  0  0  0  0  0  0  0  0  0  0  0
    0.7300    2.0290    0.8610 O   0  0  0  0  0  0  0  0  0  0  0  0
   -0.2020    2.2450   -0.1250 C   0  0  0  0  0  0  0  0  0  0  0  0
   -1.5840    1.7840    0.2970 C   0  0  0  0  0  0  0  0  0  0  0  0
   -2.2150    1.1290   -0.8010 N   0  0  0  0  0  0  0  0  0  0  0  0
   -1.6000   -0.1130   -1.1580 C   0  0  0  0  0  0  0  0  0  0  0  0
   -1.9440   -1.1530   -0.1440 C   0  0  1  0  0  0  0  0  0  0  0  0
   -3.3220   -1.7140   -0.5430 C   0  0  0  0  0  0  0  0  0  0  0  0
   -4.3910   -0.8060   -0.2290 N   0  0  0  0  0  0  0  0  0  0  0  0
   -3.9700    0.8870   -0.5610 P   0  0  0  0  0  0  0  0  0  0  0  0
   -4.5130    1.9910    0.7450 N   0  0  0  0  0  0  0  0  0  0  0  0
   -5.2400    3.4330   -0.0190 P   0  0  0  0  0  0  0  0  0  0  0  0
   -6.9600    3.3220    0.2060 O   0  0  0  0  0  0  0  0  0  0  0  0
   -4.6250    4.8740    0.7340 O   0  0  0  0  0  0  0  0  0  0  0  0
   -1.1060   -2.2120   -0.0580 O   0  0  0  0  0  0  0  0  0  0  0  0
  1  2  1  0
  2  3  1  0
  4  3  1  1
  4  5  1  0
  4 31  1  0
  5  6  1  0
  6  7  2  0
  6  8  1  0
  8  9  1  0
  8 16  1  0
  9 10  2  0
  9 11  1  0
 11 12  1  0
 12 13  1  0
 13 14  1  0
 14 15  1  0
 16 17  2  0
 16 18  1  0
 18 19  1  0
 19 20  1  0
 20 21  1  0
 21 22  1  0
 21 26  1  0
 22 23  1  0
 23 24  1  6
 23 31  1  0
 24 25  1  0
 25 26  1  0
 26 27  1  0
 27 28  1  0
 28 29  1  0
 28 30  1  0
M  END
