
     RDKit          3D

 31 32  0  0  0  0  0  0  0  0999 V2000
   -0.3220    0.1680    4.1300 O   0  0  0  0  0  0  0  0  0  0  0  0
   -1.3610   -0.5600    4.2690 C   0  0  0  0  0  0  0  0  0  0  0  0
   -1.6940   -1.0870    5.5470 N   0  0  0  0  0  0  0  0  0  0  0  0
   -0.9490   -0.8530    6.6500 O   0  0  0  0  0  0  0  0  0  0  0  0
   -2.1050   -0.7860    3.1400 O   0  0  0  0  0  0  0  0  0  0  0  0
   -1.8400   -0.3160    1.9210 O   0  0  0  0  0  0  0  0  0  0  0  0
   -2.7310    0.7220    1.6680 C   0  0  1  0  0  0  0  0  0  0  0  0
   -2.1240    1.9260    1.2070 N   0  0  0  0  0  0  0  0  0  0  0  0
   -1.3570    1.9460    0.0270 C   0  0  0  0  0  0  0  0  0  0  0  0
   -0.0060    1.7140    0.0500 C   0  0  0  0  0  0  0  0  0  0  0  0
    0.5970    1.4510    1.2870 O   0  0  0  0  0  0  0  0  0  0  0  0
    2.0360    1.2060    1.2810 C   0  0  0  0  0  0  0  0  0  0  0  0
    2.3490    0.0080    0.5070 C   0  0  0  0  0  0  0  0  0  0  0  0
    2.5300   -1.2580    1.0780 C   0  0  0  0  0  0  0  0  0  0  0  0
    2.8060   -2.0990    0.0810 N   0  0  0  0  0  0  0  0  0  0  0  0
    2.8130   -1.4550   -1.0920 C   0  0  0  0  0  0  0  0  0  0  0  0
    3.0520   -1.9580   -2.3560 O   0  0  0  0  0  0  0  0  0  0  0  0
    3.0080   -1.1030   -3.4800 C   0  0  0  0  0  0  0  0  0  0  0  0
    3.3670   -2.0410   -5.0390 P   0  0  0  0  0  0  0  0  0  0  0  0
    4.6680   -3.1640   -4.8050 O   0  0  0  0  0  0  0  0  0  0  0  0
    3.7340   -0.9300   -6.3250 O   0  0  0  0  0  0  0  0  0  0  0  0
    2.5310   -0.1750   -0.7960 N   0  0  0  0  0  0  0  0  0  0  0  0
    0.6660    1.7510   -1.1140 N   0  0  0  0  0  0  0  0  0  0  0  0
    0.0600    2.0070   -2.2880 C   0  0  0  0  0  0  0  0  0  0  0  0
    0.6730    2.0460   -3.3850 O   0  0  0  0  0  0  0  0  0  0  0  0
   -1.2780    2.2360   -2.3000 N   0  0  0  0  0  0  0  0  0  0  0  0
   -2.0220    2.2170   -1.1790 C   0  0  0  0  0  0  0  0  0  0  0  0
   -3.3900    2.4490   -1.1730 O   0  0  0  0  0  0  0  0  0  0  0  0
   -3.9550    0.0290    0.4230 P   0  0  0  0  0  0  0  0  0  0  0  0
   -5.4820    0.8300    0.6980 O   0  0  0  0  0  0  0  0  0  0  0  0
   -4.1300   -1.6670    0.7380 O   0  0  0  0  0  0  0  0  0  0  0  0
  1  2  2  0
  2  3  1  0
  2  5  1  0
  3  4  1  0
  5  6  1  0
  6  7  1  0
  7  8  1  6
  7 29  1  0
  8  9  1  0
  9 10  1  0
  9 27  2  0
 10 11  1  0
 10 23  2  0
 11 12  1  0
 12 13  1  0
 13 14  2  0
 13 22  1  0
 14 15  1  0
 15 16  1  0
 16 17  1  0
 16 22  2  0
 17 18  1  0
 18 19  1  0
 19 20  1  0
 19 21  1  0
 23 24  1  0
 24 25  2  0
 24 26  1  0
 26 27  1  0
 27 28  1  0
 29 30  1  0
 29 31  1  0
M  END
