
     RDKit          3D

 31 33  0  0  0  0  0  0  0  0999 V2000
    2.2690    2.0090    0.1130 N   0  0  0  0  0  0  0  0  0  0  0  0
    2.5380    0.7720    0.0570 C   0  0  0  0  0  0  0  0  0  0  0  0
    1.6660   -0.2690    0.2540 N   0  0  0  0  0  0  0  0  0  0  0  0
    0.3440    0.1480    0.6720 C   0  0  1  0  0  0  0  0  0  0  0  0
   -0.6830   -0.8320    0.7350 N   0  0  0  0  0  0  0  0  0  0  0  0
   -0.7080   -1.8080    1.7600 C   0  0  0  0  0  0  0  0  0  0  0  0
   -0.0650   -1.6420    2.8570 O   0  0  0  0  0  0  0  0  0  0  0  0
   -1.4710   -2.9880    1.5480 N   0  0  0  0  0  0  0  0  0  0  0  0
   -2.2260   -3.1490    0.3200 C   0  0  0  0  0  0  0  0  0  0  0  0
   -2.8300   -1.7950    0.0270 C   0  0  2  0  0  0  0  0  0  0  0  0
   -3.7050   -1.8300   -1.0820 O   0  0  0  0  0  0  0  0  0  0  0  0
   -4.2240   -0.5990   -1.4650 C   0  0  0  0  0  0  0  0  0  0  0  0
   -5.2590   -0.5240   -2.2130 O   0  0  0  0  0  0  0  0  0  0  0  0
   -3.6200    0.6580   -1.0360 C   0  0  1  0  0  0  0  0  0  0  0  0
   -4.4530    1.2060   -0.0480 O   0  0  0  0  0  0  0  0  0  0  0  0
   -5.0280    2.3100   -0.4100 O   0  0  0  0  0  0  0  0  0  0  0  0
   -4.2510    3.3580   -0.3470 O   0  0  0  0  0  0  0  0  0  0  0  0
   -2.2250    0.5680   -0.5340 C   0  0  0  0  0  0  0  0  0  0  0  0
   -1.7300   -0.8310   -0.2780 C   0  0  1  0  0  0  0  0  0  0  0  0
    0.4900    1.0470    2.2770 P   0  0  0  0  0  0  0  0  0  0  0  0
    2.1200    1.4050    2.7200 O   0  0  0  0  0  0  0  0  0  0  0  0
   -0.4360    2.4990    2.3530 O   0  0  0  0  0  0  0  0  0  0  0  0
    2.0520   -1.5150    0.0940 C   0  0  0  0  0  0  0  0  0  0  0  0
    1.2680   -2.4640    0.2620 O   0  0  0  0  0  0  0  0  0  0  0  0
    3.3450   -1.7680   -0.2700 N   0  0  0  0  0  0  0  0  0  0  0  0
    4.2340   -0.7850   -0.4720 C   0  0  0  0  0  0  0  0  0  0  0  0
    5.4250   -1.0340   -0.8070 O   0  0  0  0  0  0  0  0  0  0  0  0
    3.8280    0.4780   -0.3080 N   0  0  0  0  0  0  0  0  0  0  0  0
    5.0250    1.7770   -0.5810 P   0  0  0  0  0  0  0  0  0  0  0  0
    6.1290    1.3980   -1.8560 O   0  0  0  0  0  0  0  0  0  0  0  0
    5.8410    2.2320    0.8780 O   0  0  0  0  0  0  0  0  0  0  0  0
  1  2  2  0
  2  3  1  0
  2 28  1  0
  3  4  1  0
  3 23  1  0
  4  5  1  0
  4 20  1  1
  5  6  1  0
  5 19  1  0
  6  7  2  0
  6  8  1  0
  8  9  1  0
 10  9  1  6
 10 11  1  0
 10 19  1  0
 11 12  1  0
 12 13  2  0
 12 14  1  0
 14 15  1  1
 14 18  1  0
 15 16  1  0
 16 17  1  0
 19 18  1  1
 20 21  1  0
 20 22  1  0
 23 24  2  0
 23 25  1  0
 25 26  1  0
 26 27  2  0
 26 28  1  0
 28 29  1  0
 29 30  1  0
 29 31  1  0
M  END
