
     RDKit          3D

 31 31  0  0  0  0  0  0  0  0999 V2000
   -2.6010    1.9550   -1.8760 N   0  0  0  0  0  0  0  0  0  0  0  0
   -2.2860    1.8960   -0.6120 C   0  0  0  0  0  0  0  0  0  0  0  0
   -1.5560    2.9730   -0.0770 N   0  0  0  0  0  0  0  0  0  0  0  0
   -0.2060    3.1560    0.3170 C   0  0  0  0  0  0  0  0  0  0  0  0
   -0.0770    3.5750    1.5440 O   0  0  0  0  0  0  0  0  0  0  0  0
    1.0230    2.9840   -0.3500 N   0  0  0  0  0  0  0  0  0  0  0  0
    1.7440    1.8310   -0.7330 C   0  0  0  0  0  0  0  0  0  0  0  0
    1.7090    1.4630   -1.9670 O   0  0  0  0  0  0  0  0  0  0  0  0
    2.5890    0.9290    0.1170 C   0  0  2  0  0  0  0  0  0  0  0  0
    2.3010    1.1180    1.4420 O   0  0  0  0  0  0  0  0  0  0  0  0
    4.4060    1.4430   -0.0610 P   0  0  0  0  0  0  0  0  0  0  0  0
    5.2900    1.0670    1.3510 O   0  0  0  0  0  0  0  0  0  0  0  0
    5.0700    0.7730   -1.4960 O   0  0  0  0  0  0  0  0  0  0  0  0
    2.5210   -0.7760   -0.4980 P   0  0  0  0  0  0  0  0  0  0  0  0
    3.9930   -1.3460   -1.2190 O   0  0  0  0  0  0  0  0  0  0  0  0
    4.8680   -1.6770   -0.2630 N   0  0  0  0  0  0  0  0  0  0  0  0
    1.9150   -1.9500    0.5400 O   0  0  0  0  0  0  0  0  0  0  0  0
    0.8220   -1.6540    1.2720 C   0  0  0  0  0  0  0  0  0  0  0  0
   -0.5140   -1.7600    0.5160 C   0  0  2  0  0  0  0  0  0  0  0  0
   -0.8360   -3.2900    0.6870 C   0  0  0  0  0  0  0  0  0  0  0  0
   -2.0910   -3.5680    0.1710 O   0  0  0  0  0  0  0  0  0  0  0  0
   -0.3520   -1.6630   -0.9430 C   0  0  0  0  0  0  0  0  0  0  0  0
   -0.9520   -0.8090   -1.5980 O   0  0  0  0  0  0  0  0  0  0  0  0
    0.4770   -2.5320   -1.6180 O   0  0  0  0  0  0  0  0  0  0  0  0
   -1.4080   -0.9530    1.1620 N   0  0  0  0  0  0  0  0  0  0  0  0
   -2.2780   -0.0500    1.0870 C   0  0  0  0  0  0  0  0  0  0  0  0
   -2.8240    0.6970    0.0180 N   0  0  0  0  0  0  0  0  0  0  0  0
   -4.1370    0.2040   -0.5080 C   0  0  0  0  0  0  0  0  0  0  0  0
   -5.1500    0.4250    0.5460 C   0  0  0  0  0  0  0  0  0  0  0  0
   -4.8920    1.0110    1.6150 O   0  0  0  0  0  0  0  0  0  0  0  0
   -6.4690   -0.0240    0.3860 O   0  0  0  0  0  0  0  0  0  0  0  0
  1  2  2  0
  2  3  1  0
  2 27  1  0
  3  4  1  0
  4  5  2  0
  4  6  1  0
  6  7  1  0
  7  8  2  0
  7  9  1  0
  9 10  1  1
  9 11  1  0
  9 14  1  0
 11 12  1  0
 11 13  1  0
 14 15  1  0
 14 17  1  0
 15 16  1  0
 17 18  1  0
 18 19  1  0
 19 20  1  6
 19 22  1  0
 19 25  1  0
 20 21  1  0
 22 23  2  0
 22 24  1  0
 25 26  2  0
 26 27  1  0
 27 28  1  0
 28 29  1  0
 29 30  2  0
 29 31  1  0
M  END
