
     RDKit          3D

 31 31  0  0  0  0  0  0  0  0999 V2000
   -5.2260   -2.8060    0.7590 N   0  0  0  0  0  0  0  0  0  0  0  0
   -4.3700   -2.3890   -0.3270 C   0  0  2  0  0  0  0  0  0  0  0  0
   -4.4400   -3.3810   -1.4800 C   0  0  0  0  0  0  0  0  0  0  0  0
   -4.0210   -4.6050   -0.9900 O   0  0  0  0  0  0  0  0  0  0  0  0
   -3.0510   -2.2810    0.1220 O   0  0  0  0  0  0  0  0  0  0  0  0
   -2.3530   -1.0940    0.1060 N   0  0  0  0  0  0  0  0  0  0  0  0
   -1.0800   -1.0250    0.1640 C   0  0  0  0  0  0  0  0  0  0  0  0
   -0.2440   -2.1050    0.2500 C   0  0  0  0  0  0  0  0  0  0  0  0
   -0.8250   -3.4180    0.2770 N   0  0  0  0  0  0  0  0  0  0  0  0
   -0.7130   -4.0640   -0.8030 O   0  0  0  0  0  0  0  0  0  0  0  0
    1.1140   -1.8940    0.3070 C   0  0  0  0  0  0  0  0  0  0  0  0
    1.6860   -0.6820    0.2830 N   0  0  0  0  0  0  0  0  0  0  0  0
    3.1010   -0.4880    0.3430 C   0  0  0  0  0  0  0  0  0  0  0  0
    3.8440   -0.8830    1.2910 N   0  0  0  0  0  0  0  0  0  0  0  0
    3.3320   -1.7530    2.7430 P   0  0  0  0  0  0  0  0  0  0  0  0
    1.8470   -1.1310    3.3490 O   0  0  0  0  0  0  0  0  0  0  0  0
    3.3060   -3.4600    2.5550 O   0  0  0  0  0  0  0  0  0  0  0  0
    3.7370    0.1890   -0.7150 O   0  0  0  0  0  0  0  0  0  0  0  0
    4.9850   -0.1760   -1.0990 O   0  0  0  0  0  0  0  0  0  0  0  0
    5.8910    0.5710   -0.5390 O   0  0  0  0  0  0  0  0  0  0  0  0
    6.9470    1.2910   -1.6900 P   0  0  0  0  0  0  0  0  0  0  0  0
    6.9250    0.4440   -3.2110 O   0  0  0  0  0  0  0  0  0  0  0  0
    6.5510    2.9810   -1.9220 O   0  0  0  0  0  0  0  0  0  0  0  0
    0.8620    0.3790    0.1990 C   0  0  0  0  0  0  0  0  0  0  0  0
   -0.5170    0.2450    0.1380 C   0  0  0  0  0  0  0  0  0  0  0  0
   -1.3460    1.3970    0.0500 N   0  0  0  0  0  0  0  0  0  0  0  0
   -0.7480    2.7080    0.0230 C   0  0  0  0  0  0  0  0  0  0  0  0
   -1.8250    3.7470   -0.0720 C   0  0  2  0  0  0  0  0  0  0  0  0
   -2.5360    3.5240   -1.2380 O   0  0  0  0  0  0  0  0  0  0  0  0
   -1.2430    5.1430   -0.1480 C   0  0  0  0  0  0  0  0  0  0  0  0
   -0.5040    5.4740    0.9800 O   0  0  0  0  0  0  0  0  0  0  0  0
  2  1  1  1
  2  3  1  0
  2  5  1  0
  3  4  1  0
  5  6  1  0
  6  7  2  3
  7  8  1  0
  7 25  1  0
  8  9  1  0
  8 11  2  0
  9 10  2  0
 11 12  1  0
 12 13  1  0
 12 24  1  0
 13 14  2  3
 13 18  1  0
 14 15  1  0
 15 16  1  0
 15 17  1  0
 18 19  1  0
 19 20  1  0
 20 21  1  0
 21 22  1  0
 21 23  1  0
 24 25  2  0
 25 26  1  0
 26 27  1  0
 27 28  1  0
 28 29  1  6
 28 30  1  0
 30 31  1  0
M  END
