
     RDKit          3D

 16 15  0  0  0  0  0  0  0  0999 V2000
   -3.6220    1.3000    0.7540 C   0  0  0  0  0  0  0  0  0  0  0  0
   -4.0420    0.1060    0.4510 C   0  0  0  0  0  0  0  0  0  0  0  0
   -3.2730   -0.7610   -0.4040 C   0  0  0  0  0  0  0  0  0  0  0  0
   -3.7450   -1.9710   -0.6980 C   0  0  0  0  0  0  0  0  0  0  0  0
   -1.9760   -0.2930   -0.9550 C   0  0  0  0  0  0  0  0  0  0  0  0
   -1.0740   -0.0440    0.1270 N   0  0  0  0  0  0  0  0  0  0  0  0
    0.2620    0.4110   -0.0470 C   0  0  0  0  0  0  0  0  0  0  0  0
    0.6300    0.5950   -1.2440 O   0  0  0  0  0  0  0  0  0  0  0  0
    1.1340    0.6430    1.0440 N   0  0  0  0  0  0  0  0  0  0  0  0
    2.4830    1.0970    0.8190 C   0  0  0  0  0  0  0  0  0  0  0  0
    3.2180    0.0820   -0.0180 C   0  0  0  0  0  0  0  0  0  0  0  0
    2.6210   -0.9680   -0.4000 O   0  0  0  0  0  0  0  0  0  0  0  0
    4.5540    0.2550   -0.3970 N   0  0  0  0  0  0  0  0  0  0  0  0
    5.1840   -0.7280   -1.1790 N   0  0  0  0  0  0  0  0  0  0  0  0
    4.9350   -0.9000   -2.3890 O   0  0  0  0  0  0  0  0  0  0  0  0
    6.1420   -1.5810   -0.6400 O   0  0  0  0  0  0  0  0  0  0  0  0
  1  2  2  0
  2  3  1  0
  3  4  2  0
  3  5  1  0
  5  6  1  0
  6  7  1  0
  7  8  2  0
  7  9  1  0
  9 10  1  0
 10 11  1  0
 11 12  2  0
 11 13  1  0
 13 14  1  0
 14 15  2  0
 14 16  1  0
M  CHG  2  14   1  16  -1
M  END
