
     RDKit          3D

 15 15  0  0  0  0  0  0  0  0999 V2000
   -3.7930   -0.3900   -2.1990 N   0  0  0  0  0  0  0  0  0  0  0  0
   -3.0070   -0.3680   -1.0100 C   0  0  0  0  0  0  0  0  0  0  0  0
   -3.5440   -0.6900    0.2240 C   0  0  0  0  0  0  0  0  0  0  0  0
   -2.7930   -0.6720    1.3810 C   0  0  0  0  0  0  0  0  0  0  0  0
   -1.4600   -0.3290    1.3540 C   0  0  0  0  0  0  0  0  0  0  0  0
   -0.6920   -0.3130    2.5580 N   0  0  0  0  0  0  0  0  0  0  0  0
   -0.9040   -0.0040    0.1350 C   0  0  0  0  0  0  0  0  0  0  0  0
    0.4190    0.3380    0.1020 O   0  0  0  0  0  0  0  0  0  0  0  0
    1.1190    0.6930   -1.0760 C   0  0  0  0  0  0  0  0  0  0  0  0
    2.5720    1.0100   -0.7250 C   0  0  0  0  0  0  0  0  0  0  0  0
    3.2480   -0.1790   -0.1000 C   0  0  0  0  0  0  0  0  0  0  0  0
    4.6050    0.1750    0.2090 N   0  0  0  0  0  0  0  0  0  0  0  0
    5.0290    0.1330    1.3760 O   0  0  0  0  0  0  0  0  0  0  0  0
    5.4250    0.5630   -0.8220 O   0  0  0  0  0  0  0  0  0  0  0  0
   -1.6690   -0.0240   -1.0290 C   0  0  0  0  0  0  0  0  0  0  0  0
  1  2  1  0
  2  3  2  0
  2 15  1  0
  3  4  1  0
  4  5  2  0
  5  6  1  0
  5  7  1  0
  7  8  1  0
  7 15  2  0
  8  9  1  0
  9 10  1  0
 10 11  1  0
 11 12  1  0
 12 13  2  0
 12 14  1  0
M  CHG  2  12   1  14  -1
M  END
