
     RDKit          3D

 16 15  0  0  0  0  0  0  0  0999 V2000
   -5.1610   -1.0780    0.9540 C   0  0  0  0  0  0  0  0  0  0  0  0
   -4.8270    0.1630    0.7900 C   0  0  0  0  0  0  0  0  0  0  0  0
   -3.4740    0.5600    0.4470 C   0  0  0  0  0  0  0  0  0  0  0  0
   -3.2640    1.8450    0.3100 C   0  0  0  0  0  0  0  0  0  0  0  0
   -2.4810   -0.3960    0.2800 N   0  0  0  0  0  0  0  0  0  0  0  0
   -1.1350   -0.1800   -0.0490 C   0  0  0  0  0  0  0  0  0  0  0  0
   -0.6690    0.9400   -0.2350 O   0  0  0  0  0  0  0  0  0  0  0  0
   -0.2260   -1.2860   -0.1850 N   0  0  0  0  0  0  0  0  0  0  0  0
    1.1200   -1.1290   -0.5110 N   0  0  0  0  0  0  0  0  0  0  0  0
    2.0300   -0.3740    0.2700 C   0  0  0  0  0  0  0  0  0  0  0  0
    1.5760    0.1760    1.3100 O   0  0  0  0  0  0  0  0  0  0  0  0
    3.4740   -0.2340   -0.1230 C   0  0  0  0  0  0  0  0  0  0  0  0
    4.2280    0.6090    0.8560 C   0  0  0  0  0  0  0  0  0  0  0  0
    5.5980    0.7020    0.4190 N   0  0  0  0  0  0  0  0  0  0  0  0
    6.0310    0.1540   -0.6120 O   0  0  0  0  0  0  0  0  0  0  0  0
    6.5140    1.4340    1.1600 O   0  0  0  0  0  0  0  0  0  0  0  0
  1  2  2  0
  2  3  1  0
  3  4  2  0
  3  5  1  0
  5  6  1  0
  6  7  2  0
  6  8  1  0
  8  9  1  0
  9 10  1  0
 10 11  2  0
 10 12  1  0
 12 13  1  0
 13 14  1  0
 14 15  2  0
 14 16  1  0
M  CHG  2  14   1  16  -1
M  END
