
     RDKit          3D

 16 16  0  0  0  0  0  0  0  0999 V2000
   -4.4650    0.6540    1.1730 C   0  0  0  0  0  0  0  0  0  0  0  0
   -3.9740   -0.4730    0.4860 O   0  0  0  0  0  0  0  0  0  0  0  0
   -2.6130   -0.5520    0.2240 C   0  0  0  0  0  0  0  0  0  0  0  0
   -1.7410    0.4460    0.6230 C   0  0  0  0  0  0  0  0  0  0  0  0
   -0.3960    0.4020    0.3820 C   0  0  0  0  0  0  0  0  0  0  0  0
    0.1460   -0.6700   -0.2830 C   0  0  0  0  0  0  0  0  0  0  0  0
    1.5450   -0.7490   -0.5510 N   0  0  0  0  0  0  0  0  0  0  0  0
    2.4580    0.2590   -0.1540 C   0  0  0  0  0  0  0  0  0  0  0  0
    3.4820   -0.0300    0.6320 C   0  0  0  0  0  0  0  0  0  0  0  0
    4.4180    0.9300    1.0580 N   0  0  0  0  0  0  0  0  0  0  0  0
    2.2810    1.6030   -0.5980 N   0  0  0  0  0  0  0  0  0  0  0  0
    2.6020    2.5590    0.1150 O   0  0  0  0  0  0  0  0  0  0  0  0
    1.7410    1.7850   -1.8510 O   0  0  0  0  0  0  0  0  0  0  0  0
   -0.6940   -1.6770   -0.6920 C   0  0  0  0  0  0  0  0  0  0  0  0
   -0.2340   -2.8110   -1.3780 O   0  0  0  0  0  0  0  0  0  0  0  0
   -2.0720   -1.6280   -0.4440 C   0  0  0  0  0  0  0  0  0  0  0  0
  1  2  1  0
  2  3  1  0
  3  4  2  0
  3 16  1  0
  4  5  1  0
  5  6  2  0
  6  7  1  0
  6 14  1  0
  7  8  1  0
  8  9  2  3
  8 11  1  0
  9 10  1  0
 11 12  2  0
 11 13  1  0
 14 15  1  0
 14 16  2  0
M  CHG  2  11   1  13  -1
M  END
