
     RDKit          3D

 16 16  0  0  0  0  0  0  0  0999 V2000
   -1.8660    2.3730   -2.4940 O   0  0  0  0  0  0  0  0  0  0  0  0
   -2.3410    1.2990   -2.9030 N   0  0  0  0  0  0  0  0  0  0  0  0
   -3.2250    0.6100   -2.0770 N   0  0  0  0  0  0  0  0  0  0  0  0
   -2.7350   -0.0430   -0.9120 C   0  0  0  0  0  0  0  0  0  0  0  0
   -3.5950   -0.7300   -0.0830 C   0  0  0  0  0  0  0  0  0  0  0  0
   -3.0610   -1.3380    1.0260 C   0  0  0  0  0  0  0  0  0  0  0  0
   -1.6940   -1.2660    1.3090 C   0  0  0  0  0  0  0  0  0  0  0  0
   -1.2420   -1.8930    2.4230 O   0  0  0  0  0  0  0  0  0  0  0  0
   -0.8050   -0.5750    0.4820 C   0  0  0  0  0  0  0  0  0  0  0  0
    0.5740   -0.5280    0.8070 N   0  0  0  0  0  0  0  0  0  0  0  0
    1.5630    0.1320    0.0570 C   0  0  0  0  0  0  0  0  0  0  0  0
    1.3070    0.7480   -0.9830 O   0  0  0  0  0  0  0  0  0  0  0  0
    3.0020    0.1310    0.4750 C   0  0  0  0  0  0  0  0  0  0  0  0
    3.8640    0.8960   -0.4760 C   0  0  0  0  0  0  0  0  0  0  0  0
    5.1830    0.8550   -0.0300 O   0  0  0  0  0  0  0  0  0  0  0  0
   -1.3620    0.0240   -0.6190 C   0  0  0  0  0  0  0  0  0  0  0  0
  1  2  2  0
  2  3  1  0
  3  4  1  0
  4  5  2  0
  4 16  1  0
  5  6  1  0
  6  7  2  0
  7  8  1  0
  7  9  1  0
  9 10  1  0
  9 16  2  0
 10 11  1  0
 11 12  2  0
 11 13  1  0
 13 14  1  0
 14 15  1  0
M  END
