
     RDKit          3D

 16 16  0  0  0  0  0  0  0  0999 V2000
   -0.1350   -2.9500    0.0920 N   0  0  0  0  0  0  0  0  0  0  0  0
    0.4880   -1.6790    0.0700 C   0  0  0  0  0  0  0  0  0  0  0  0
    1.8270   -1.5180   -0.1460 C   0  0  0  0  0  0  0  0  0  0  0  0
    2.4680   -0.2820   -0.1730 C   0  0  0  0  0  0  0  0  0  0  0  0
    3.8540   -0.2490   -0.4140 N   0  0  0  0  0  0  0  0  0  0  0  0
    4.6680    0.8890   -0.3300 C   0  0  0  0  0  0  0  0  0  0  0  0
    4.2180    2.0120   -0.0190 O   0  0  0  0  0  0  0  0  0  0  0  0
    1.6810    0.8030    0.0330 C   0  0  0  0  0  0  0  0  0  0  0  0
    0.3030    0.6960    0.2600 C   0  0  0  0  0  0  0  0  0  0  0  0
   -0.3110   -0.5350    0.2810 C   0  0  0  0  0  0  0  0  0  0  0  0
   -1.6310   -0.7420    0.4940 O   0  0  0  0  0  0  0  0  0  0  0  0
   -2.6810    0.1290    0.7110 C   0  0  0  0  0  0  0  0  0  0  0  0
   -3.0250    1.0700   -0.4020 C   0  0  0  0  0  0  0  0  0  0  0  0
   -4.1390    1.8930    0.0220 N   0  0  0  0  0  0  0  0  0  0  0  0
   -4.0220    3.1090    0.0780 O   0  0  0  0  0  0  0  0  0  0  0  0
   -5.3110    1.2870    0.3550 O   0  0  0  0  0  0  0  0  0  0  0  0
  1  2  1  0
  2  3  2  0
  2 10  1  0
  3  4  1  0
  4  5  1  0
  4  8  2  0
  5  6  1  0
  6  7  2  0
  8  9  1  0
  9 10  2  0
 10 11  1  0
 11 12  1  0
 12 13  1  0
 13 14  1  0
 14 15  2  0
 14 16  1  0
M  CHG  2  14   1  16  -1
M  END
