
     RDKit          3D

 24 25  0  0  0  0  0  0  0  0999 V2000
   -1.2510   -1.6840   -3.0400 C   0  0  0  0  0  0  0  0  0  0  0  0
   -2.1690   -1.2980   -2.0700 O   0  0  0  0  0  0  0  0  0  0  0  0
   -1.6930   -0.2670   -1.2620 C   0  0  1  0  0  0  0  0  0  0  0  0
   -2.4400    0.8630   -1.4170 O   0  0  0  0  0  0  0  0  0  0  0  0
   -3.6500    0.9020   -0.8060 C   0  0  2  0  0  0  0  0  0  0  0  0
   -3.7640    2.2360   -0.0800 C   0  0  0  0  0  0  0  0  0  0  0  0
   -3.6530    3.2880   -1.0020 O   0  0  0  0  0  0  0  0  0  0  0  0
   -3.9770   -0.2120    0.1090 C   0  0  1  0  0  0  0  0  0  0  0  0
   -4.6550   -1.2330   -0.5880 O   0  0  0  0  0  0  0  0  0  0  0  0
   -2.8340   -0.7390    0.9170 C   0  0  2  0  0  0  0  0  0  0  0  0
   -2.7570   -0.0140    2.1260 O   0  0  0  0  0  0  0  0  0  0  0  0
   -1.5290   -0.7030    0.1730 C   0  0  2  0  0  0  0  0  0  0  0  0
   -0.4360    0.4520    1.0160 S   0  0  0  0  0  0  0  0  0  0  0  0
    1.2680    0.3630    0.3260 C   0  0  1  0  0  0  0  0  0  0  0  0
    1.9990    1.2520    1.0190 O   0  0  0  0  0  0  0  0  0  0  0  0
    3.2670    1.0310    1.3480 C   0  0  2  0  0  0  0  0  0  0  0  0
    4.1830    2.1830    0.9280 C   0  0  0  0  0  0  0  0  0  0  0  0
    4.1700    2.4050   -0.4300 O   0  0  0  0  0  0  0  0  0  0  0  0
    3.9090   -0.2320    0.8670 C   0  0  1  0  0  0  0  0  0  0  0  0
    5.0780   -0.5060    1.5780 O   0  0  0  0  0  0  0  0  0  0  0  0
    2.9210   -1.3510    1.1150 C   0  0  2  0  0  0  0  0  0  0  0  0
    3.4300   -2.5850    0.6570 O   0  0  0  0  0  0  0  0  0  0  0  0
    1.7370   -1.0290    0.2180 C   0  0  2  0  0  0  0  0  0  0  0  0
    2.1820   -1.3120   -1.0950 O   0  0  0  0  0  0  0  0  0  0  0  0
  1  2  1  0
  3  2  1  6
  3  4  1  0
  3 12  1  0
  4  5  1  0
  5  6  1  1
  5  8  1  0
  6  7  1  0
  8  9  1  6
  8 10  1  0
 10 11  1  1
 10 12  1  0
 12 13  1  1
 14 13  1  1
 14 15  1  0
 14 23  1  0
 15 16  1  0
 16 17  1  6
 16 19  1  0
 17 18  1  0
 19 20  1  1
 19 21  1  0
 21 22  1  6
 21 23  1  0
 23 24  1  6
M  END
