
     RDKit          3D

 26 27  0  0  0  0  0  0  0  0999 V2000
   -1.2380    1.0840   -1.2200 C   0  0  0  0  0  0  0  0  0  0  0  0
   -0.6870    0.3390   -0.3330 C   0  0  0  0  0  0  0  0  0  0  0  0
    0.6630    0.7190    0.1820 C   0  0  0  0  0  0  0  0  0  0  0  0
    0.8020    1.9060    0.6060 C   0  0  0  0  0  0  0  0  0  0  0  0
   -0.4880    3.1350    0.6230 S   0  0  0  0  0  0  0  0  0  0  0  0
    0.1920    4.7630    0.2450 C   0  0  0  0  0  0  0  0  0  0  0  0
    1.8220   -0.2460    0.1630 C   0  0  0  0  0  0  0  0  0  0  0  0
    3.0880    0.3680   -0.0500 C   0  0  0  0  0  0  0  0  0  0  0  0
    3.2430    1.6270   -0.2400 O   0  0  0  0  0  0  0  0  0  0  0  0
    4.2910   -0.3850   -0.0670 N   0  0  0  0  0  0  0  0  0  0  0  0
    5.5510    0.2700   -0.2860 C   0  0  0  0  0  0  0  0  0  0  0  0
    5.6070    1.8660   -0.5140 S   0  0  0  0  0  0  0  0  0  0  0  0
    6.7090   -0.4700   -0.3010 O   0  0  0  0  0  0  0  0  0  0  0  0
    6.7390   -1.6930   -0.9750 C   0  0  0  0  0  0  0  0  0  0  0  0
    1.7420   -1.5530    0.3140 C   0  0  0  0  0  0  0  0  0  0  0  0
    0.5360   -2.3970    0.5340 C   0  0  0  0  0  0  0  0  0  0  0  0
   -0.7550   -2.1130    0.4070 C   0  0  0  0  0  0  0  0  0  0  0  0
   -1.5870   -3.2100    0.7260 N   0  0  0  0  0  0  0  0  0  0  0  0
   -2.8570   -3.0510    0.7490 C   0  0  0  0  0  0  0  0  0  0  0  0
   -3.4940   -1.7390    0.4510 C   0  0  0  0  0  0  0  0  0  0  0  0
   -4.9640   -1.8280    0.3200 C   0  0  0  0  0  0  0  0  0  0  0  0
   -5.2640   -3.3450   -0.7140 Cl  0  0  0  0  0  0  0  0  0  0  0  0
   -2.7950   -0.6660    0.1380 C   0  0  0  0  0  0  0  0  0  0  0  0
   -3.3210    0.6610   -0.1290 C   0  0  0  0  0  0  0  0  0  0  0  0
   -4.6150    0.8250    0.5380 N   0  0  0  0  0  0  0  0  0  0  0  0
   -1.3460   -0.8350    0.1030 N   0  0  0  0  0  0  0  0  0  0  0  0
  1  2  2  0
  2  3  1  0
  2 26  1  0
  3  4  2  3
  3  7  1  0
  4  5  1  0
  5  6  1  0
  7  8  1  0
  7 15  2  0
  8  9  2  0
  8 10  1  0
 10 11  1  0
 11 12  2  0
 11 13  1  0
 13 14  1  0
 15 16  1  0
 16 17  2  0
 17 18  1  0
 17 26  1  0
 18 19  2  0
 19 20  1  0
 20 21  1  0
 20 23  2  0
 21 22  1  0
 23 24  1  0
 23 26  1  0
 24 25  1  0
M  CHG  1  25   1
M  END
