
     RDKit          3D

 14 14  0  0  0  0  0  0  0  0999 V2000
    3.6080    1.2000    1.4020 N   0  0  0  0  0  0  0  0  0  0  0  0
    3.4280    0.0360    0.9010 C   0  0  0  0  0  0  0  0  0  0  0  0
    2.4290   -0.1640   -0.1170 C   0  0  0  0  0  0  0  0  0  0  0  0
    2.2620   -1.3870   -0.6210 C   0  0  0  0  0  0  0  0  0  0  0  0
    3.0210   -2.4510   -0.1880 O   0  0  0  0  0  0  0  0  0  0  0  0
    1.6620    0.8910   -0.5600 O   0  0  0  0  0  0  0  0  0  0  0  0
    0.4910    1.3390    0.0580 C   0  0  0  0  0  0  0  0  0  0  0  0
   -0.5480    0.2520    0.1010 C   0  0  2  0  0  0  0  0  0  0  0  0
   -0.8940   -0.1890   -1.1630 O   0  0  0  0  0  0  0  0  0  0  0  0
   -1.7550   -1.2780   -1.0030 C   0  0  0  0  0  0  0  0  0  0  0  0
   -3.0220   -0.7280   -0.3650 C   0  0  0  0  0  0  0  0  0  0  0  0
   -2.7070   -0.3060    0.9080 O   0  0  0  0  0  0  0  0  0  0  0  0
   -1.7220    0.6540    0.9370 C   0  0  2  0  0  0  0  0  0  0  0  0
   -2.2460    1.9570    0.5870 N   0  0  0  0  0  0  0  0  0  0  0  0
  1  2  2  0
  2  3  1  0
  3  4  2  3
  3  6  1  0
  4  5  1  0
  6  7  1  0
  8  7  1  6
  8  9  1  0
  8 13  1  0
  9 10  1  0
 10 11  1  0
 11 12  1  0
 12 13  1  0
 13 14  1  6
M  END
