
     RDKit          3D

 14 14  0  0  0  0  0  0  0  0999 V2000
    3.3260    0.1140    1.4970 C   0  0  0  0  0  0  0  0  0  0  0  0
    2.1950    0.3670    0.6680 O   0  0  0  0  0  0  0  0  0  0  0  0
    1.6980   -0.6020   -0.2020 C   0  0  0  0  0  0  0  0  0  0  0  0
    2.2960   -1.7050   -0.2170 O   0  0  0  0  0  0  0  0  0  0  0  0
    0.5270   -0.3840   -1.0810 C   0  0  1  0  0  0  0  0  0  0  0  0
    0.2940   -1.5790   -1.8380 N   0  0  0  0  0  0  0  0  0  0  0  0
   -0.6840    0.0350   -0.3260 C   0  0  2  0  0  0  0  0  0  0  0  0
   -1.0990   -0.8690    0.5780 O   0  0  0  0  0  0  0  0  0  0  0  0
   -1.4790   -2.1100    0.2410 C   0  0  0  0  0  0  0  0  0  0  0  0
   -1.7970    0.4770   -1.2870 C   0  0  0  0  0  0  0  0  0  0  0  0
   -2.6540    1.0960   -0.3780 O   0  0  0  0  0  0  0  0  0  0  0  0
   -1.8170    2.0570    0.1770 C   0  0  0  0  0  0  0  0  0  0  0  0
   -0.4580    1.4120    0.3400 C   0  0  1  0  0  0  0  0  0  0  0  0
   -0.0950    1.2550    1.7300 N   0  0  0  0  0  0  0  0  0  0  0  0
  1  2  1  0
  2  3  1  0
  3  4  2  0
  3  5  1  0
  5  6  1  1
  5  7  1  0
  7  8  1  1
  7 10  1  0
  7 13  1  0
  8  9  1  0
 10 11  1  0
 11 12  1  0
 12 13  1  0
 13 14  1  1
M  END
