
     RDKit          3D

 14 14  0  0  0  0  0  0  0  0999 V2000
    3.9730    1.7850    0.5030 N   0  0  0  0  0  0  0  0  0  0  0  0
    3.0330    0.7290    0.6650 C   0  0  0  0  0  0  0  0  0  0  0  0
    3.2260   -0.0720    1.6160 O   0  0  0  0  0  0  0  0  0  0  0  0
    1.9400    0.5280   -0.1370 O   0  0  0  0  0  0  0  0  0  0  0  0
    1.0080   -0.5050    0.0100 C   0  0  2  0  0  0  0  0  0  0  0  0
    1.0540   -1.3550   -1.2500 C   0  0  0  0  0  0  0  0  0  0  0  0
    2.3350   -1.8740   -1.4020 O   0  0  0  0  0  0  0  0  0  0  0  0
   -0.4120   -0.0100    0.1740 C   0  0  2  0  0  0  0  0  0  0  0  0
   -1.2630   -1.2290    0.4710 C   0  0  0  0  0  0  0  0  0  0  0  0
   -2.3940   -0.7300    1.2710 N   0  0  0  0  0  0  0  0  0  0  0  0
   -3.0200    0.5460    1.1260 C   0  0  0  0  0  0  0  0  0  0  0  0
   -2.8470    1.3670    0.1030 C   0  0  0  0  0  0  0  0  0  0  0  0
   -2.0100    1.1760   -1.0770 C   0  0  0  0  0  0  0  0  0  0  0  0
   -0.7550    0.7040   -0.9170 O   0  0  0  0  0  0  0  0  0  0  0  0
  1  2  1  0
  2  3  2  0
  2  4  1  0
  4  5  1  0
  5  6  1  6
  5  8  1  0
  6  7  1  0
  8  9  1  6
  8 14  1  0
  9 10  1  0
 10 11  1  0
 11 12  2  0
 12 13  1  0
 13 14  1  0
M  END
