
     RDKit          3D

 14 15  0  0  0  0  0  0  0  0999 V2000
    3.5600    0.9370   -0.3270 N   0  0  0  0  0  0  0  0  0  0  0  0
    2.3240    0.3630   -0.6270 N   0  0  0  0  0  0  0  0  0  0  0  0
    1.4920   -0.0530    0.2560 C   0  0  0  0  0  0  0  0  0  0  0  0
    1.8470    0.0770    1.5790 O   0  0  0  0  0  0  0  0  0  0  0  0
    0.2350   -0.6330   -0.1680 C   0  0  1  0  0  0  0  0  0  0  0  0
    0.1020   -0.6830   -1.5600 O   0  0  0  0  0  0  0  0  0  0  0  0
    0.1490   -2.0550    0.4140 C   0  0  0  0  0  0  0  0  0  0  0  0
   -1.3340   -2.2860    0.1920 C   0  0  0  0  0  0  0  0  0  0  0  0
   -1.8980   -1.1110    0.6160 O   0  0  0  0  0  0  0  0  0  0  0  0
   -1.0200   -0.0630    0.3880 C   0  0  2  0  0  0  0  0  0  0  0  0
   -1.7080    0.8940   -0.5770 C   0  0  0  0  0  0  0  0  0  0  0  0
   -1.5000    2.2320    0.1050 C   0  0  0  0  0  0  0  0  0  0  0  0
   -0.4790    2.0090    1.0320 O   0  0  0  0  0  0  0  0  0  0  0  0
   -0.8890    0.7970    1.5910 C   0  0  0  0  0  0  0  0  0  0  0  0
  1  2  1  0
  2  3  2  3
  3  4  1  0
  3  5  1  0
  5  6  1  6
  5  7  1  0
  5 10  1  0
  7  8  1  0
  8  9  1  0
  9 10  1  0
 10 11  1  6
 10 14  1  0
 11 12  1  0
 12 13  1  0
 13 14  1  0
M  END
