
     RDKit          3D

 14 15  0  0  0  0  0  0  0  0999 V2000
   -1.2780   -1.5940    1.3860 N   0  0  0  0  0  0  0  0  0  0  0  0
   -1.5620   -0.5970    0.4250 C   0  0  0  0  0  0  0  0  0  0  0  0
   -2.8640   -0.3990    0.0880 C   0  0  0  0  0  0  0  0  0  0  0  0
   -3.2730    0.5920   -0.8820 C   0  0  0  0  0  0  0  0  0  0  0  0
   -2.3390    1.3350   -1.4630 C   0  0  0  0  0  0  0  0  0  0  0  0
   -1.0370    1.1600   -1.1480 O   0  0  0  0  0  0  0  0  0  0  0  0
   -0.5500    0.2070   -0.2040 C   0  0  0  0  0  0  0  0  0  0  0  0
    0.7340    0.1540   -0.0040 C   0  0  0  0  0  0  0  0  0  0  0  0
    1.6490    0.9900   -0.6750 O   0  0  0  0  0  0  0  0  0  0  0  0
    2.9360    0.4150   -0.6360 C   0  0  1  0  0  0  0  0  0  0  0  0
    3.9440    1.3500   -0.7290 O   0  0  0  0  0  0  0  0  0  0  0  0
    2.9250   -0.2660    0.6460 N   0  0  0  0  0  0  0  0  0  0  0  0
    1.5370   -0.6560    0.8460 C   0  0  0  0  0  0  0  0  0  0  0  0
    1.2470   -1.5600    1.6540 O   0  0  0  0  0  0  0  0  0  0  0  0
  1  2  1  0
  2  3  2  0
  2  7  1  0
  3  4  1  0
  4  5  2  0
  5  6  1  0
  6  7  1  0
  7  8  2  3
  8  9  1  0
  8 13  1  0
  9 10  1  0
 10 11  1  1
 10 12  1  0
 12 13  1  0
 13 14  2  0
M  END
