
     RDKit          3D

  8  8  0  0  0  0  0  0  0  0999 V2000
    2.4850    0.0970   -0.2870 N   0  0  0  0  0  0  0  0  0  0  0  0
    1.5840   -0.0370    0.8370 C   0  0  0  0  0  0  0  0  0  0  0  0
    0.1710    0.0020    0.3550 C   0  0  0  0  0  0  0  0  0  0  0  0
   -0.6800   -0.9900    0.5360 C   0  0  0  0  0  0  0  0  0  0  0  0
   -2.0260   -0.9400    0.0700 N   0  0  0  0  0  0  0  0  0  0  0  0
   -2.5170    0.2210   -0.6310 C   0  0  0  0  0  0  0  0  0  0  0  0
   -1.5330    1.2500   -0.7860 N   0  0  0  0  0  0  0  0  0  0  0  0
   -0.3160    1.1750   -0.3510 C   0  0  0  0  0  0  0  0  0  0  0  0
  1  2  1  0
  2  3  1  0
  3  4  2  0
  3  8  1  0
  4  5  1  0
  5  6  1  0
  6  7  1  0
  7  8  2  0
M  CHG  1   1   1
M  END
