
     RDKit          3D

  8  8  0  0  0  0  0  0  0  0999 V2000
   -2.5020    0.4760    0.0350 N   0  0  0  0  0  0  0  0  0  0  0  0
   -1.6370   -0.6400   -0.1580 C   0  0  0  0  0  0  0  0  0  0  0  0
   -0.1850   -0.2370   -0.0440 C   0  0  0  0  0  0  0  0  0  0  0  0
    0.0290    0.9900    0.1980 N   0  0  0  0  0  0  0  0  0  0  0  0
    1.2980    1.5600    0.3390 C   0  0  0  0  0  0  0  0  0  0  0  0
    2.3500    0.7540    0.2100 C   0  0  0  0  0  0  0  0  0  0  0  0
    2.1780   -0.6170   -0.0590 N   0  0  0  0  0  0  0  0  0  0  0  0
    0.8850   -1.2020   -0.2040 C   0  0  0  0  0  0  0  0  0  0  0  0
  1  2  1  0
  2  3  1  0
  3  4  2  0
  3  8  1  0
  4  5  1  0
  5  6  2  0
  6  7  1  0
  7  8  1  0
M  CHG  1   1   1
M  END
