
     RDKit          3D

  8  8  0  0  0  0  0  0  0  0999 V2000
   -1.2930   -1.8570   -0.0340 C   0  0  0  0  0  0  0  0  0  0  0  0
   -1.1840   -0.5500    0.1370 C   0  0  0  0  0  0  0  0  0  0  0  0
   -2.2840    0.2870    0.4190 N   0  0  0  0  0  0  0  0  0  0  0  0
    0.1500    0.0780    0.0290 C   0  0  0  0  0  0  0  0  0  0  0  0
    1.3330   -0.5880   -0.2410 C   0  0  0  0  0  0  0  0  0  0  0  0
    2.3180    0.3360   -0.2550 N   0  0  0  0  0  0  0  0  0  0  0  0
    1.7770    1.5390   -0.0030 C   0  0  0  0  0  0  0  0  0  0  0  0
    0.4500    1.3810    0.1710 N   0  0  0  0  0  0  0  0  0  0  0  0
  1  2  2  0
  2  3  1  0
  2  4  1  0
  4  5  2  0
  4  8  1  0
  5  6  1  0
  6  7  2  0
  7  8  1  0
M  CHG  1   6   1
M  END
