
     RDKit          3D

  8  8  0  0  0  0  0  0  0  0999 V2000
    2.9920    0.3540   -0.1900 N   0  0  0  0  0  0  0  0  0  0  0  0
    2.2610   -0.4140    0.5030 N   0  0  0  0  0  0  0  0  0  0  0  0
    1.1370   -1.0500   -0.0640 C   0  0  0  0  0  0  0  0  0  0  0  0
   -0.0590   -0.5180    0.0040 C   0  0  0  0  0  0  0  0  0  0  0  0
   -1.3060   -1.0810   -0.5460 C   0  0  0  0  0  0  0  0  0  0  0  0
   -2.2670   -0.2230   -0.2510 C   0  0  0  0  0  0  0  0  0  0  0  0
   -1.7650    0.9390    0.4920 C   0  0  0  0  0  0  0  0  0  0  0  0
   -0.3440    0.7210    0.6410 N   0  0  0  0  0  0  0  0  0  0  0  0
  1  2  2  0
  2  3  1  0
  3  4  2  3
  4  5  1  0
  4  8  1  0
  5  6  2  0
  6  7  1  0
  7  8  1  0
M  CHG  1   1   1
M  END
