
     RDKit          3D

  8  8  0  0  0  0  0  0  0  0999 V2000
    2.6510    0.9300    0.0490 C   0  0  0  0  0  0  0  0  0  0  0  0
    1.4460    0.0920    0.2070 C   0  0  0  0  0  0  0  0  0  0  0  0
    1.3660   -1.2540    0.5110 C   0  0  0  0  0  0  0  0  0  0  0  0
    0.0830   -1.5760    0.5490 N   0  0  0  0  0  0  0  0  0  0  0  0
   -0.6700   -0.4700    0.2760 C   0  0  0  0  0  0  0  0  0  0  0  0
   -2.1530   -0.4020    0.2190 C   0  0  0  0  0  0  0  0  0  0  0  0
   -2.5350    0.9280   -0.0950 N   0  0  0  0  0  0  0  0  0  0  0  0
    0.1980    0.5410    0.0700 N   0  0  0  0  0  0  0  0  0  0  0  0
  1  2  1  0
  2  3  2  0
  2  8  1  0
  3  4  1  0
  4  5  2  0
  5  6  1  0
  5  8  1  0
  6  7  1  0
M  CHG  1   4   1
M  END
