
     RDKit          3D

 13 14  0  0  0  0  0  0  0  0999 V2000
    3.9820   -0.6490    0.6420 O   0  0  0  0  0  0  0  0  0  0  0  0
    2.9990   -0.8820   -0.2940 C   0  0  0  0  0  0  0  0  0  0  0  0
    1.7520   -0.0190   -0.0300 C   0  0  1  0  0  0  0  0  0  0  0  0
    2.2110    1.4400   -0.0810 C   0  0  0  0  0  0  0  0  0  0  0  0
    0.7460    2.4620   -0.2140 S   0  0  0  0  0  0  0  0  0  0  0  0
   -0.7040    1.4550   -0.4920 C   0  0  2  0  0  0  0  0  0  0  0  0
   -1.5810    1.3760    0.7490 C   0  0  0  0  0  0  0  0  0  0  0  0
   -1.4250    0.0590    1.2860 N   0  0  0  0  0  0  0  0  0  0  0  0
   -1.2260   -0.7640    0.1230 C   0  0  1  0  0  0  0  0  0  0  0  0
   -2.6240   -1.0500   -0.4470 C   0  0  0  0  0  0  0  0  0  0  0  0
   -2.5580   -1.8410   -1.5800 O   0  0  0  0  0  0  0  0  0  0  0  0
   -0.4270    0.0470   -0.8690 C   0  0  2  0  0  0  0  0  0  0  0  0
    0.8680   -0.3210   -0.9890 O   0  0  0  0  0  0  0  0  0  0  0  0
  1  2  1  0
  3  2  1  6
  3  4  1  0
  3 13  1  0
  4  5  1  0
  5  6  1  0
  6  7  1  1
  6 12  1  0
  7  8  1  0
  8  9  1  0
  9 10  1  6
  9 12  1  0
 10 11  1  0
 12 13  1  1
M  CHG  1   8   1
M  END
