
     RDKit          3D

 14 14  0  0  0  0  0  0  0  0999 V2000
    4.2860    0.2030   -0.6040 C   0  0  0  0  0  0  0  0  0  0  0  0
    3.0320   -0.1440   -1.0970 O   0  0  0  0  0  0  0  0  0  0  0  0
    2.0650   -0.0270   -0.0800 C   0  0  0  0  0  0  0  0  0  0  0  0
    0.7360   -0.4160   -0.6780 C   0  0  0  0  0  0  0  0  0  0  0  0
   -0.3850   -0.3440    0.3010 C   0  0  1  0  0  0  0  0  0  0  0  0
   -0.1410   -1.2100    1.3880 O   0  0  0  0  0  0  0  0  0  0  0  0
   -0.6090    1.0510    0.7970 C   0  0  0  0  0  0  0  0  0  0  0  0
   -1.2450    1.9440   -0.2310 C   0  0  2  0  0  0  0  0  0  0  0  0
   -0.7890    3.2550    0.0070 O   0  0  0  0  0  0  0  0  0  0  0  0
   -2.6200    1.9830   -0.1660 O   0  0  0  0  0  0  0  0  0  0  0  0
   -3.2720    1.0040    1.0780 S   0  0  0  0  0  0  0  0  0  0  0  0
   -2.7420   -0.6860    0.8100 C   0  0  0  0  0  0  0  0  0  0  0  0
   -1.6990   -0.8200   -0.2800 C   0  0  2  0  0  0  0  0  0  0  0  0
   -1.6620   -2.2190   -0.6530 N   0  0  0  0  0  0  0  0  0  0  0  0
  1  2  1  0
  2  3  1  0
  3  4  1  0
  4  5  1  0
  5  6  1  1
  5  7  1  0
  5 13  1  0
  7  8  1  0
  8  9  1  1
  8 10  1  0
 10 11  1  0
 11 12  1  0
 12 13  1  0
 13 14  1  1
M  CHG  1  14   1
M  END
