
     RDKit          3D

 14 15  0  0  0  0  0  0  0  0999 V2000
   -3.8660    0.1280   -0.4510 C   0  0  0  0  0  0  0  0  0  0  0  0
   -2.6860    0.9090    0.0100 C   0  0  1  0  0  0  0  0  0  0  0  0
   -1.6920    0.1260    0.7000 N   0  0  0  0  0  0  0  0  0  0  0  0
   -0.8690   -0.5270   -0.2800 C   0  0  1  0  0  0  0  0  0  0  0  0
   -0.2480    0.5300   -1.1520 C   0  0  2  0  0  0  0  0  0  0  0  0
    0.6940    1.2940   -0.5240 O   0  0  0  0  0  0  0  0  0  0  0  0
    1.6960    0.5970    0.0930 C   0  0  2  0  0  0  0  0  0  0  0  0
    3.0780    0.9880   -0.3790 C   0  0  0  0  0  0  0  0  0  0  0  0
    3.2630    2.3270   -0.1160 O   0  0  0  0  0  0  0  0  0  0  0  0
    1.5400   -0.8870   -0.1690 C   0  0  1  0  0  0  0  0  0  0  0  0
    2.5920   -1.6090    0.3700 O   0  0  0  0  0  0  0  0  0  0  0  0
    0.2070   -1.2870    0.4630 C   0  0  2  0  0  0  0  0  0  0  0  0
    0.0670   -2.6550    0.3780 O   0  0  0  0  0  0  0  0  0  0  0  0
   -1.7310    1.5920   -1.4020 S   0  0  0  0  0  0  0  0  0  0  0  0
  2  1  1  6
  2  3  1  0
  2 14  1  0
  4  3  1  1
  4  5  1  0
  4 12  1  0
  5  6  1  1
  5 14  1  0
  6  7  1  0
  7  8  1  6
  7 10  1  0
  8  9  1  0
 10 11  1  1
 10 12  1  0
 12 13  1  6
M  CHG  1   3   1
M  END
