
     RDKit          3D

 14 14  0  0  0  0  0  0  0  0999 V2000
    1.8010   -1.4090   -1.1880 C   0  0  0  0  0  0  0  0  0  0  0  0
    2.0460   -0.3140   -0.1650 C   0  0  2  0  0  0  0  0  0  0  0  0
    2.3270   -1.0220    1.4830 S   0  0  0  0  0  0  0  0  0  0  0  0
    3.7820   -1.9280    1.5300 O   0  0  0  0  0  0  0  0  0  0  0  0
    0.9500    0.7040   -0.1430 C   0  0  2  0  0  0  0  0  0  0  0  0
    1.2590    1.7030    0.8450 N   0  0  0  0  0  0  0  0  0  0  0  0
   -0.4010    0.1080    0.1400 C   0  0  2  0  0  0  0  0  0  0  0  0
   -0.7210   -0.8880   -0.7900 O   0  0  0  0  0  0  0  0  0  0  0  0
   -2.1020   -0.9190   -0.8980 C   0  0  1  0  0  0  0  0  0  0  0  0
   -2.5340   -2.2260   -0.2240 C   0  0  0  0  0  0  0  0  0  0  0  0
   -2.6090    0.1790   -0.2700 O   0  0  0  0  0  0  0  0  0  0  0  0
   -1.5510    1.0550   -0.0750 C   0  0  1  0  0  0  0  0  0  0  0  0
   -1.8060    1.9560    1.1190 C   0  0  0  0  0  0  0  0  0  0  0  0
   -1.4070    1.7960   -1.2490 O   0  0  0  0  0  0  0  0  0  0  0  0
  2  1  1  6
  2  3  1  0
  2  5  1  0
  3  4  1  0
  5  6  1  1
  5  7  1  0
  7  8  1  6
  7 12  1  0
  8  9  1  0
  9 10  1  1
  9 11  1  0
 11 12  1  0
 12 13  1  1
 12 14  1  0
M  CHG  1   6   1
M  END
