
     RDKit          3D

 13 14  0  0  0  0  0  0  0  0999 V2000
   -1.7370   -1.5700   -0.5260 N   0  0  0  0  0  0  0  0  0  0  0  0
   -1.3050   -0.1800   -0.7030 C   0  0  2  0  0  0  0  0  0  0  0  0
    0.1350   -0.0690   -1.0340 C   0  0  0  0  0  0  0  0  0  0  0  0
    1.0420    0.2640    0.0950 C   0  0  2  0  0  0  0  0  0  0  0  0
    2.2360    1.0000   -0.4250 C   0  0  0  0  0  0  0  0  0  0  0  0
    3.1750    0.0550   -1.0730 C   0  0  0  0  0  0  0  0  0  0  0  0
    2.8600   -1.5340   -0.2240 S   0  0  0  0  0  0  0  0  0  0  0  0
    1.5190   -0.9210    0.8730 C   0  0  0  0  0  0  0  0  0  0  0  0
    0.4420    1.1360    1.0350 O   0  0  0  0  0  0  0  0  0  0  0  0
   -0.7110    0.5690    1.5730 C   0  0  0  0  0  0  0  0  0  0  0  0
   -1.7550    0.5980    0.4820 C   0  0  2  0  0  0  0  0  0  0  0  0
   -2.9330    0.0490    1.0160 O   0  0  0  0  0  0  0  0  0  0  0  0
   -3.8960    0.9430    1.0350 O   0  0  0  0  0  0  0  0  0  0  0  0
  2  1  1  1
  2  3  1  0
  2 11  1  0
  4  3  1  6
  4  5  1  0
  4  8  1  0
  4  9  1  0
  5  6  1  0
  6  7  1  0
  7  8  1  0
  9 10  1  0
 10 11  1  0
 11 12  1  1
 12 13  1  0
M  CHG  1   1   1
M  END
