
     RDKit          3D

 14 14  0  0  0  0  0  0  0  0999 V2000
   -4.1250    0.2590   -0.9900 C   0  0  0  0  0  0  0  0  0  0  0  0
   -3.1180   -0.3380   -0.1250 N   0  0  1  0  0  0  0  0  0  0  0  0
   -1.9350   -0.7250   -0.8880 C   0  0  0  0  0  0  0  0  0  0  0  0
   -0.8980    0.3480   -0.5580 C   0  0  2  0  0  0  0  0  0  0  0  0
    0.7680   -0.0360   -0.8870 S   0  0  0  0  0  0  0  0  0  0  0  0
    1.7930   -0.1390    0.5920 C   0  0  0  0  0  0  0  0  0  0  0  0
    3.1890   -0.6230    0.2830 C   0  0  2  0  0  0  0  0  0  0  0  0
    3.9560   -0.6730    1.4150 O   0  0  0  0  0  0  0  0  0  0  0  0
    3.8220    0.2590   -0.7420 C   0  0  2  0  0  0  0  0  0  0  0  0
    2.9880    0.3380   -1.8830 O   0  0  0  0  0  0  0  0  0  0  0  0
    5.0450   -0.3550   -1.0940 O   0  0  0  0  0  0  0  0  0  0  0  0
   -1.1790    0.3490    0.9780 C   0  0  2  0  0  0  0  0  0  0  0  0
   -1.0910   -0.9070    1.5090 O   0  0  0  0  0  0  0  0  0  0  0  0
   -2.6900    0.6600    0.8480 C   0  0  0  0  0  0  0  0  0  0  0  0
  2  1  1  6
  2  3  1  0
  2 14  1  0
  3  4  1  0
  4  5  1  1
  4 12  1  0
  5  6  1  0
  6  7  1  0
  7  8  1  1
  7  9  1  0
  9 10  1  6
  9 11  1  0
 12 13  1  6
 12 14  1  0
M  CHG  1   2   1
M  END
