
     RDKit          3D

 14 15  0  0  0  0  0  0  0  0999 V2000
   -0.1670   -1.5720   -1.0490 N   0  0  0  0  0  0  0  0  0  0  0  0
   -0.0960   -0.1200   -0.6300 C   0  0  2  0  0  0  0  0  0  0  0  0
    1.0470   -0.0090    0.2360 C   0  0  2  0  0  0  0  0  0  0  0  0
    2.4530   -0.0790   -0.0980 C   0  0  0  0  0  0  0  0  0  0  0  0
    2.9780    1.0360   -0.7310 O   0  0  0  0  0  0  0  0  0  0  0  0
    4.4160    1.4490    0.1730 S   0  0  0  0  0  0  0  0  0  0  0  0
    4.9760    0.1970    0.7850 O   0  0  0  0  0  0  0  0  0  0  0  0
    0.6360   -0.6740    1.5080 C   0  0  0  0  0  0  0  0  0  0  0  0
   -0.7320   -0.8990    1.3950 O   0  0  0  0  0  0  0  0  0  0  0  0
   -1.2190   -0.0600    0.4170 C   0  0  2  0  0  0  0  0  0  0  0  0
   -2.4750   -0.5330   -0.2260 C   0  0  0  0  0  0  0  0  0  0  0  0
   -3.4090    0.6550   -0.0010 C   0  0  0  0  0  0  0  0  0  0  0  0
   -2.5690    1.7620    0.0750 O   0  0  0  0  0  0  0  0  0  0  0  0
   -1.5450    1.2950    0.8800 C   0  0  0  0  0  0  0  0  0  0  0  0
  2  1  1  1
  2  3  1  0
  2 10  1  0
  3  4  1  6
  3  8  1  0
  4  5  1  0
  5  6  1  0
  6  7  2  0
  8  9  1  0
  9 10  1  0
 10 11  1  6
 10 14  1  0
 11 12  1  0
 12 13  1  0
 13 14  1  0
M  CHG  1   1   1
M  END
