
     RDKit          3D

 14 14  0  0  0  0  0  0  0  0999 V2000
   -5.4090    0.5830    1.1890 C   0  0  0  0  0  0  0  0  0  0  0  0
   -4.3460   -0.1080    0.6210 O   0  0  0  0  0  0  0  0  0  0  0  0
   -3.1150    0.4520    0.9690 C   0  0  0  0  0  0  0  0  0  0  0  0
   -2.0480   -0.3670    0.3050 C   0  0  0  0  0  0  0  0  0  0  0  0
   -0.7700    0.0710    0.5600 O   0  0  0  0  0  0  0  0  0  0  0  0
    0.1250   -0.7580   -0.1020 C   0  0  2  0  0  0  0  0  0  0  0  0
    0.8570   -1.4190    0.8620 O   0  0  0  0  0  0  0  0  0  0  0  0
    2.2140   -1.4220    0.6440 C   0  0  0  0  0  0  0  0  0  0  0  0
    2.6840    0.0340    0.6800 C   0  0  1  0  0  0  0  0  0  0  0  0
    4.4890    0.0080    0.6840 S   0  0  0  0  0  0  0  0  0  0  0  0
    2.1400    0.6660   -0.5910 C   0  0  1  0  0  0  0  0  0  0  0  0
    3.2380    0.6040   -1.5670 N   0  0  0  0  0  0  0  0  0  0  0  0
    0.9490   -0.0410   -1.1220 C   0  0  1  0  0  0  0  0  0  0  0  0
    1.3220   -0.9200   -2.1380 O   0  0  0  0  0  0  0  0  0  0  0  0
  1  2  1  0
  2  3  1  0
  3  4  1  0
  4  5  1  0
  6  5  1  1
  6  7  1  0
  6 13  1  0
  7  8  1  0
  8  9  1  0
  9 10  1  6
  9 11  1  0
 11 12  1  6
 11 13  1  0
 13 14  1  6
M  CHG  1  12   1
M  END
