
     RDKit          3D

 25 26  0  0  0  0  0  0  0  0999 V2000
    4.0090    2.1140    1.6020 C   0  0  0  0  0  0  0  0  0  0  0  0
    3.2170    1.0130    1.0130 C   0  0  0  0  0  0  0  0  0  0  0  0
    2.8880    1.0510   -0.2600 C   0  0  0  0  0  0  0  0  0  0  0  0
    3.2840    2.1470   -1.1010 C   0  0  0  0  0  0  0  0  0  0  0  0
    2.9240    2.1220   -2.3560 N   0  0  0  0  0  0  0  0  0  0  0  0
    4.0130    3.2270   -0.6950 O   0  0  0  0  0  0  0  0  0  0  0  0
    2.1010   -0.0490   -0.8370 C   0  0  0  0  0  0  0  0  0  0  0  0
    1.7920   -0.0030   -2.0560 O   0  0  0  0  0  0  0  0  0  0  0  0
    1.6560   -1.1770   -0.1080 N   0  0  0  0  0  0  0  0  0  0  0  0
    0.8790   -2.2120   -0.7830 C   0  0  1  0  0  0  0  0  0  0  0  0
    1.5890   -3.5270   -0.5280 C   0  0  0  0  0  0  0  0  0  0  0  0
    1.2870   -3.7540    0.8410 O   0  0  0  0  0  0  0  0  0  0  0  0
    0.0960   -3.1360    1.1830 C   0  0  0  0  0  0  0  0  0  0  0  0
   -0.4110   -3.1510    2.3290 O   0  0  0  0  0  0  0  0  0  0  0  0
   -0.4240   -2.4880   -0.0230 C   0  0  1  0  0  0  0  0  0  0  0  0
   -1.1610   -1.2940    0.2310 N   0  0  0  0  0  0  0  0  0  0  0  0
   -2.4800   -1.0910   -0.2440 C   0  0  0  0  0  0  0  0  0  0  0  0
   -2.9810   -2.0350   -0.9150 O   0  0  0  0  0  0  0  0  0  0  0  0
   -3.2650    0.1050   -0.0090 C   0  0  0  0  0  0  0  0  0  0  0  0
   -2.8180    1.1360    0.6810 C   0  0  0  0  0  0  0  0  0  0  0  0
   -3.6300    2.3610    0.9180 C   0  0  0  0  0  0  0  0  0  0  0  0
   -4.8990    2.3160    0.3450 O   0  0  0  0  0  0  0  0  0  0  0  0
   -5.3800    1.2540   -0.3750 C   0  0  0  0  0  0  0  0  0  0  0  0
   -4.6090    0.1740   -0.5590 C   0  0  0  0  0  0  0  0  0  0  0  0
   -5.1790   -0.8530   -1.3000 O   0  0  0  0  0  0  0  0  0  0  0  0
  1  2  1  0
  2  3  2  3
  3  4  1  0
  3  7  1  0
  4  5  2  0
  4  6  1  0
  7  8  2  0
  7  9  1  0
 10  9  1  1
 10 11  1  0
 10 15  1  0
 11 12  1  0
 12 13  1  0
 13 14  2  0
 13 15  1  0
 15 16  1  1
 16 17  1  0
 17 18  2  0
 17 19  1  0
 19 20  2  0
 19 24  1  0
 20 21  1  0
 21 22  1  0
 22 23  1  0
 23 24  2  0
 24 25  1  0
M  END
