
     RDKit          3D

 25 26  0  0  0  0  0  0  0  0999 V2000
   -4.8690    1.3440    0.6820 C   0  0  0  0  0  0  0  0  0  0  0  0
   -4.6170    0.2410   -0.3190 C   0  0  1  0  0  0  0  0  0  0  0  0
   -3.7040    0.7250   -1.2780 O   0  0  0  0  0  0  0  0  0  0  0  0
   -2.4370    0.6270   -0.7490 C   0  0  0  0  0  0  0  0  0  0  0  0
   -1.2480    1.3930   -1.2020 C   0  0  1  0  0  0  0  0  0  0  0  0
   -1.5090    2.8760   -1.0390 C   0  0  0  0  0  0  0  0  0  0  0  0
   -1.7240    3.1370    0.3150 O   0  0  0  0  0  0  0  0  0  0  0  0
   -0.0710    1.0410   -0.4230 N   0  0  0  0  0  0  0  0  0  0  0  0
    1.1040    0.5600   -1.0620 C   0  0  0  0  0  0  0  0  0  0  0  0
    1.1390    0.4340   -2.3090 O   0  0  0  0  0  0  0  0  0  0  0  0
    2.3030    0.2000   -0.2760 C   0  0  0  0  0  0  0  0  0  0  0  0
    2.3020    0.3140    0.9740 O   0  0  0  0  0  0  0  0  0  0  0  0
    3.4680   -0.2780   -0.9280 N   0  0  0  0  0  0  0  0  0  0  0  0
    4.6600   -0.6440   -0.2330 C   0  0  0  0  0  0  0  0  0  0  0  0
    5.1780   -1.8610   -0.2830 C   0  0  0  0  0  0  0  0  0  0  0  0
    6.3840   -2.1250    0.4550 C   0  0  0  0  0  0  0  0  0  0  0  0
    6.8470   -3.2840    0.5350 O   0  0  0  0  0  0  0  0  0  0  0  0
    7.0790   -0.9980    1.1270 C   0  0  0  0  0  0  0  0  0  0  0  0
    6.1260   -0.1100    1.5800 O   0  0  0  0  0  0  0  0  0  0  0  0
    5.3270    0.4100    0.5730 C   0  0  0  0  0  0  0  0  0  0  0  0
   -2.4200   -0.2550    0.2310 C   0  0  0  0  0  0  0  0  0  0  0  0
   -3.7730   -0.7830    0.3670 C   0  0  0  0  0  0  0  0  0  0  0  0
   -4.2190   -1.8750    0.9340 C   0  0  0  0  0  0  0  0  0  0  0  0
   -5.6080   -2.1760    0.9370 N   0  0  0  0  0  0  0  0  0  0  0  0
   -5.9880   -3.3970    0.5070 O   0  0  0  0  0  0  0  0  0  0  0  0
  2  1  1  1
  2  3  1  0
  2 22  1  0
  3  4  1  0
  4  5  1  0
  4 21  2  0
  5  6  1  1
  5  8  1  0
  6  7  1  0
  8  9  1  0
  9 10  2  0
  9 11  1  0
 11 12  2  0
 11 13  1  0
 13 14  1  0
 14 15  2  0
 14 20  1  0
 15 16  1  0
 16 17  2  0
 16 18  1  0
 18 19  1  0
 19 20  1  0
 21 22  1  0
 22 23  2  3
 23 24  1  0
 24 25  1  0
M  END
