
     RDKit          3D

 25 26  0  0  0  0  0  0  0  0999 V2000
    8.4490    0.4570    1.0300 C   0  0  0  0  0  0  0  0  0  0  0  0
    7.4480    1.0760    0.0780 C   0  0  0  0  0  0  0  0  0  0  0  0
    6.3710    0.1700   -0.0810 O   0  0  0  0  0  0  0  0  0  0  0  0
    5.2810    0.4090   -0.8780 C   0  0  0  0  0  0  0  0  0  0  0  0
    5.2170    1.4910   -1.5130 O   0  0  0  0  0  0  0  0  0  0  0  0
    4.1590   -0.5470   -1.0360 C   0  0  1  0  0  0  0  0  0  0  0  0
    3.5730   -0.8970    0.2820 C   0  0  0  0  0  0  0  0  0  0  0  0
    2.0640   -0.8720   -0.0690 C   0  0  0  0  0  0  0  0  0  0  0  0
    2.0260    0.1960   -1.0810 C   0  0  2  0  0  0  0  0  0  0  0  0
    0.8880    0.1370   -1.9960 C   0  0  0  0  0  0  0  0  0  0  0  0
   -0.4230    0.3940   -1.6420 N   0  0  0  0  0  0  0  0  0  0  0  0
   -1.2240   -0.3240   -0.7520 C   0  0  0  0  0  0  0  0  0  0  0  0
   -0.7760   -1.3350   -0.1980 O   0  0  0  0  0  0  0  0  0  0  0  0
   -2.5680    0.0360   -0.4240 N   0  0  0  0  0  0  0  0  0  0  0  0
   -3.3340   -0.7690    0.5150 C   0  0  0  0  0  0  0  0  0  0  0  0
   -4.6850   -0.2130    0.7000 C   0  0  0  0  0  0  0  0  0  0  0  0
   -5.0730    0.1680    1.8880 C   0  0  0  0  0  0  0  0  0  0  0  0
   -6.4080    0.7310    2.1320 C   0  0  2  0  0  0  0  0  0  0  0  0
   -7.0330   -0.1310    3.1440 N   0  0  0  0  0  0  0  0  0  0  0  0
   -7.1880    0.8090    0.9920 O   0  0  0  0  0  0  0  0  0  0  0  0
   -6.7840    0.4120   -0.2500 C   0  0  0  0  0  0  0  0  0  0  0  0
   -7.6200    0.5140   -1.3790 O   0  0  0  0  0  0  0  0  0  0  0  0
   -5.5740   -0.0920   -0.4410 C   0  0  0  0  0  0  0  0  0  0  0  0
   -5.1400   -0.5030   -1.6930 O   0  0  0  0  0  0  0  0  0  0  0  0
    3.1800   -0.1190   -1.8700 O   0  0  0  0  0  0  0  0  0  0  0  0
  1  2  1  0
  2  3  1  0
  3  4  1  0
  4  5  2  0
  6  4  1  1
  6  7  1  0
  6 25  1  0
  7  8  1  0
  8  9  1  0
  9 10  1  6
  9 25  1  0
 10 11  1  0
 11 12  1  0
 12 13  2  0
 12 14  1  0
 14 15  1  0
 15 16  1  0
 16 17  2  0
 16 23  1  0
 17 18  1  0
 18 19  1  1
 18 20  1  0
 20 21  1  0
 21 22  1  0
 21 23  2  0
 23 24  1  0
M  END
