
     RDKit          3D

 25 26  0  0  0  0  0  0  0  0999 V2000
    1.2810    2.6480   -2.9980 C   0  0  0  0  0  0  0  0  0  0  0  0
    1.3210    2.2630   -1.7110 C   0  0  0  0  0  0  0  0  0  0  0  0
    0.3520    2.8160   -0.7230 C   0  0  0  0  0  0  0  0  0  0  0  0
   -0.4440    1.6270   -0.1510 C   0  0  0  0  0  0  0  0  0  0  0  0
   -1.7220    1.7170   -0.3910 C   0  0  0  0  0  0  0  0  0  0  0  0
   -2.2170    2.8650   -1.1320 O   0  0  0  0  0  0  0  0  0  0  0  0
   -2.8470    0.8670   -0.0630 C   0  0  0  0  0  0  0  0  0  0  0  0
   -3.6510    0.6930   -1.0980 O   0  0  0  0  0  0  0  0  0  0  0  0
   -3.2500    0.2350    1.0250 O   0  0  0  0  0  0  0  0  0  0  0  0
   -3.0310   -0.7580    1.8980 C   0  0  0  0  0  0  0  0  0  0  0  0
   -3.5710   -2.0760    1.3140 C   0  0  0  0  0  0  0  0  0  0  0  0
   -2.6120   -2.7690    0.6370 O   0  0  0  0  0  0  0  0  0  0  0  0
   -2.6160   -2.5770   -0.7520 C   0  0  0  0  0  0  0  0  0  0  0  0
   -1.3150   -1.8410   -1.1640 C   0  0  0  0  0  0  0  0  0  0  0  0
   -0.7470   -1.4260   -0.0160 O   0  0  0  0  0  0  0  0  0  0  0  0
    0.1740   -0.6960    0.6170 C   0  0  0  0  0  0  0  0  0  0  0  0
    0.3230    0.6200    0.5710 C   0  0  0  0  0  0  0  0  0  0  0  0
    1.5220    0.8950    1.4230 C   0  0  0  0  0  0  0  0  0  0  0  0
    1.8920    1.9550    1.9710 O   0  0  0  0  0  0  0  0  0  0  0  0
    2.2900   -0.3620    1.5500 C   0  0  2  0  0  0  0  0  0  0  0  0
    3.2440   -0.5430    0.4900 N   0  0  0  0  0  0  0  0  0  0  0  0
    4.6270   -0.7470    0.7680 C   0  0  0  0  0  0  0  0  0  0  0  0
    5.6060   -0.9300   -0.2450 N   0  0  0  0  0  0  0  0  0  0  0  0
    4.9530   -0.7570    1.9890 O   0  0  0  0  0  0  0  0  0  0  0  0
    1.1900   -1.2830    1.4960 N   0  0  0  0  0  0  0  0  0  0  0  0
  1  2  2  0
  2  3  1  0
  3  4  1  0
  4  5  2  0
  4 17  1  0
  5  6  1  0
  5  7  1  0
  7  8  2  0
  7  9  1  0
  9 10  1  0
 10 11  1  0
 11 12  1  0
 12 13  1  0
 13 14  1  0
 14 15  1  0
 15 16  1  0
 16 17  2  0
 16 25  1  0
 17 18  1  0
 18 19  2  0
 18 20  1  0
 20 21  1  6
 20 25  1  0
 21 22  1  0
 22 23  1  0
 22 24  2  0
M  END
