
     RDKit          3D

 25 26  0  0  0  0  0  0  0  0999 V2000
    6.2930    0.0290    0.7360 C   0  0  0  0  0  0  0  0  0  0  0  0
    5.1040   -0.1250   -0.1560 C   0  0  0  0  0  0  0  0  0  0  0  0
    4.1260    1.0360    0.0660 C   0  0  2  0  0  0  0  0  0  0  0  0
    3.7470    0.9860    1.3940 O   0  0  0  0  0  0  0  0  0  0  0  0
    2.9920    0.7990   -0.8580 C   0  0  0  0  0  0  0  0  0  0  0  0
    3.2390    0.8240   -2.0910 O   0  0  0  0  0  0  0  0  0  0  0  0
    1.6680    0.5480   -0.4580 N   0  0  0  0  0  0  0  0  0  0  0  0
    0.5990    0.3230   -1.4060 C   0  0  0  0  0  0  0  0  0  0  0  0
   -0.7060    0.0810   -0.7360 C   0  0  0  0  0  0  0  0  0  0  0  0
   -1.3660   -1.0490   -0.9170 C   0  0  0  0  0  0  0  0  0  0  0  0
   -0.8030   -2.1280   -1.8150 C   0  0  0  0  0  0  0  0  0  0  0  0
   -2.6680   -1.2910   -0.2490 C   0  0  2  0  0  0  0  0  0  0  0  0
   -3.1320   -0.1910    0.6010 C   0  0  0  0  0  0  0  0  0  0  0  0
   -2.4560    0.9140    0.7580 C   0  0  0  0  0  0  0  0  0  0  0  0
   -2.9970    1.9670    1.6300 C   0  0  0  0  0  0  0  0  0  0  0  0
   -4.0670    1.8750    2.2340 O   0  0  0  0  0  0  0  0  0  0  0  0
   -2.2490    3.1250    1.7710 O   0  0  0  0  0  0  0  0  0  0  0  0
   -2.6860    4.1760    2.5780 C   0  0  0  0  0  0  0  0  0  0  0  0
   -1.2570    1.0410    0.0940 O   0  0  0  0  0  0  0  0  0  0  0  0
   -2.6990   -2.5520    0.4490 N   0  0  0  0  0  0  0  0  0  0  0  0
   -3.7540   -3.3850   -0.0020 C   0  0  0  0  0  0  0  0  0  0  0  0
   -4.0900   -4.5230    0.4610 O   0  0  0  0  0  0  0  0  0  0  0  0
   -4.3850   -2.7050   -1.0910 N   0  0  0  0  0  0  0  0  0  0  0  0
   -3.7270   -1.4650   -1.3100 C   0  0  0  0  0  0  0  0  0  0  0  0
   -4.0180   -0.6800   -2.2480 O   0  0  0  0  0  0  0  0  0  0  0  0
  1  2  1  0
  2  3  1  0
  3  4  1  1
  3  5  1  0
  5  6  2  0
  5  7  1  0
  7  8  1  0
  8  9  1  0
  9 10  2  0
  9 19  1  0
 10 11  1  0
 10 12  1  0
 12 13  1  0
 12 20  1  1
 12 24  1  0
 13 14  2  0
 14 15  1  0
 14 19  1  0
 15 16  2  0
 15 17  1  0
 17 18  1  0
 20 21  1  0
 21 22  2  0
 21 23  1  0
 23 24  1  0
 24 25  2  0
M  END
