
     RDKit          3D

 25 26  0  0  0  0  0  0  0  0999 V2000
   -6.3930   -1.4910   -1.1960 C   0  0  0  0  0  0  0  0  0  0  0  0
   -5.5740   -0.9380   -0.0680 C   0  0  1  0  0  0  0  0  0  0  0  0
   -5.8830   -1.5990    1.1340 O   0  0  0  0  0  0  0  0  0  0  0  0
   -4.1150   -1.1020   -0.4000 C   0  0  0  0  0  0  0  0  0  0  0  0
   -3.5820    0.1240   -1.1150 C   0  0  0  0  0  0  0  0  0  0  0  0
   -3.5590    1.3260   -0.1650 C   0  0  2  0  0  0  0  0  0  0  0  0
   -2.4520    1.1110    0.7840 C   0  0  0  0  0  0  0  0  0  0  0  0
   -2.6130    1.0240    2.0110 O   0  0  0  0  0  0  0  0  0  0  0  0
   -1.1510    0.9960    0.2870 O   0  0  0  0  0  0  0  0  0  0  0  0
   -0.0670    0.7880    1.1600 C   0  0  0  0  0  0  0  0  0  0  0  0
    1.1470    0.6960    0.3630 C   0  0  0  0  0  0  0  0  0  0  0  0
    1.4280    0.7270   -0.7680 O   0  0  0  0  0  0  0  0  0  0  0  0
    2.5190    0.4740    1.4120 N   0  0  0  0  0  0  0  0  0  0  0  0
    3.4920    0.3810    0.4080 C   0  0  0  0  0  0  0  0  0  0  0  0
    3.5220    0.3930   -0.7770 O   0  0  0  0  0  0  0  0  0  0  0  0
    4.8450    0.2130    1.0580 N   0  0  0  0  0  0  0  0  0  0  0  0
    5.9560    0.0490    0.2640 C   0  0  0  0  0  0  0  0  0  0  0  0
    6.6380   -1.0980    0.3630 C   0  0  0  0  0  0  0  0  0  0  0  0
    7.8390   -1.4120   -0.4240 C   0  0  0  0  0  0  0  0  0  0  0  0
    8.2160   -0.3760   -1.2730 O   0  0  0  0  0  0  0  0  0  0  0  0
    7.4870    0.8120   -1.3560 C   0  0  0  0  0  0  0  0  0  0  0  0
    6.4130    1.0730   -0.6580 C   0  0  0  0  0  0  0  0  0  0  0  0
   -4.8400    1.3800    0.4930 N   0  0  0  0  0  0  0  0  0  0  0  0
   -5.9060    0.5170    0.1520 C   0  0  0  0  0  0  0  0  0  0  0  0
   -7.0980    0.9280    0.0310 O   0  0  0  0  0  0  0  0  0  0  0  0
  2  1  1  6
  2  3  1  0
  2  4  1  0
  2 24  1  0
  4  5  1  0
  5  6  1  0
  6  7  1  1
  6 23  1  0
  7  8  2  0
  7  9  1  0
  9 10  1  0
 10 11  1  0
 11 12  2  0
 11 13  1  0
 13 14  1  0
 14 15  2  0
 14 16  1  0
 16 17  1  0
 17 18  2  0
 17 22  1  0
 18 19  1  0
 19 20  1  0
 20 21  1  0
 21 22  2  0
 23 24  1  0
 24 25  2  0
M  END
