
     RDKit          3D

 25 26  0  0  0  0  0  0  0  0999 V2000
    4.8280   -0.4540    0.8340 C   0  0  0  0  0  0  0  0  0  0  0  0
    5.2910    0.5760   -0.1730 C   0  0  0  0  0  0  0  0  0  0  0  0
    4.1280    1.4270   -0.6590 C   0  0  2  0  0  0  0  0  0  0  0  0
    3.5970    2.0590    0.4490 O   0  0  0  0  0  0  0  0  0  0  0  0
    3.1100    0.5700   -1.3270 C   0  0  0  0  0  0  0  0  0  0  0  0
    3.4620   -0.0640   -2.3520 O   0  0  0  0  0  0  0  0  0  0  0  0
    1.7940    0.4780   -0.8180 N   0  0  0  0  0  0  0  0  0  0  0  0
    0.8550   -0.3620   -1.5010 C   0  0  0  0  0  0  0  0  0  0  0  0
   -0.4860   -0.3410   -0.8270 C   0  0  0  0  0  0  0  0  0  0  0  0
   -0.9780   -1.4700   -0.3690 C   0  0  0  0  0  0  0  0  0  0  0  0
   -0.2080   -2.7280   -0.5230 C   0  0  0  0  0  0  0  0  0  0  0  0
   -2.2720   -1.4930    0.2890 C   0  0  2  0  0  0  0  0  0  0  0  0
   -2.9330   -0.1840    0.3790 C   0  0  0  0  0  0  0  0  0  0  0  0
   -2.3940    0.9030   -0.0950 C   0  0  0  0  0  0  0  0  0  0  0  0
   -3.1270    2.1840    0.0370 C   0  0  0  0  0  0  0  0  0  0  0  0
   -4.2500    2.2160    0.5980 O   0  0  0  0  0  0  0  0  0  0  0  0
   -2.6160    3.3800   -0.4430 O   0  0  0  0  0  0  0  0  0  0  0  0
   -3.3090    4.6080   -0.3210 C   0  0  0  0  0  0  0  0  0  0  0  0
   -1.1470    0.8750   -0.7190 O   0  0  0  0  0  0  0  0  0  0  0  0
   -2.2430   -2.1650    1.5810 N   0  0  0  0  0  0  0  0  0  0  0  0
   -3.5600   -2.6640    1.7870 C   0  0  0  0  0  0  0  0  0  0  0  0
   -4.0750   -2.9320    2.9180 O   0  0  0  0  0  0  0  0  0  0  0  0
   -4.2140   -2.8160    0.5230 N   0  0  0  0  0  0  0  0  0  0  0  0
   -3.2520   -2.3950   -0.4320 C   0  0  0  0  0  0  0  0  0  0  0  0
   -3.2440   -2.7230   -1.6260 O   0  0  0  0  0  0  0  0  0  0  0  0
  1  2  1  0
  2  3  1  0
  3  4  1  1
  3  5  1  0
  5  6  2  0
  5  7  1  0
  7  8  1  0
  8  9  1  0
  9 10  2  0
  9 19  1  0
 10 11  1  0
 10 12  1  0
 12 13  1  0
 12 20  1  1
 12 24  1  0
 13 14  2  0
 14 15  1  0
 14 19  1  0
 15 16  2  0
 15 17  1  0
 17 18  1  0
 20 21  1  0
 21 22  2  0
 21 23  1  0
 23 24  1  0
 24 25  2  0
M  END
