
     RDKit          3D

 25 26  0  0  0  0  0  0  0  0999 V2000
   -8.0000   -1.7380    0.9600 C   0  0  0  0  0  0  0  0  0  0  0  0
   -6.8210   -1.0790    0.6150 O   0  0  0  0  0  0  0  0  0  0  0  0
   -6.7550   -0.3660   -0.5690 C   0  0  0  0  0  0  0  0  0  0  0  0
   -7.7750   -0.3380   -1.2980 O   0  0  0  0  0  0  0  0  0  0  0  0
   -5.5670    0.3430   -0.9950 C   0  0  0  0  0  0  0  0  0  0  0  0
   -4.4820    0.3430   -0.2680 C   0  0  0  0  0  0  0  0  0  0  0  0
   -4.4720   -0.3500    0.9310 O   0  0  0  0  0  0  0  0  0  0  0  0
   -3.2540    1.0680   -0.6940 C   0  0  0  0  0  0  0  0  0  0  0  0
   -2.1810    1.0590    0.0380 C   0  0  0  0  0  0  0  0  0  0  0  0
   -0.9390    1.7440   -0.3100 C   0  0  1  0  0  0  0  0  0  0  0  0
    0.1820    0.8270   -0.4580 N   0  0  0  0  0  0  0  0  0  0  0  0
    1.3440    0.9500    0.3370 C   0  0  0  0  0  0  0  0  0  0  0  0
    1.3990    1.8700    1.1780 O   0  0  0  0  0  0  0  0  0  0  0  0
    2.4580    0.0740    0.2230 N   0  0  0  0  0  0  0  0  0  0  0  0
    3.6580    0.1880    1.0310 C   0  0  1  0  0  0  0  0  0  0  0  0
    3.8800   -1.0920    1.8030 C   0  0  0  0  0  0  0  0  0  0  0  0
    5.3170   -1.4280    2.0050 C   0  0  0  0  0  0  0  0  0  0  0  0
    6.0830   -1.4280    0.8710 O   0  0  0  0  0  0  0  0  0  0  0  0
    5.3150   -1.0560   -0.2140 C   0  0  2  0  0  0  0  0  0  0  0  0
    6.0560   -1.1640   -1.5200 C   0  0  0  0  0  0  0  0  0  0  0  0
    4.8150    0.3520    0.0570 C   0  0  0  0  0  0  0  0  0  0  0  0
   -1.0430    2.4380   -1.5730 N   0  0  0  0  0  0  0  0  0  0  0  0
   -2.2230    2.4350   -2.3570 C   0  0  0  0  0  0  0  0  0  0  0  0
   -2.2980    3.0470   -3.4620 O   0  0  0  0  0  0  0  0  0  0  0  0
   -3.3220    1.7400   -1.8970 O   0  0  0  0  0  0  0  0  0  0  0  0
  1  2  1  0
  2  3  1  0
  3  4  2  0
  3  5  1  0
  5  6  2  3
  6  7  1  0
  6  8  1  0
  8  9  2  0
  8 25  1  0
  9 10  1  0
 10 11  1  6
 10 22  1  0
 11 12  1  0
 12 13  2  0
 12 14  1  0
 15 14  1  6
 15 16  1  0
 15 21  1  0
 16 17  1  0
 17 18  1  0
 18 19  1  0
 19 20  1  6
 19 21  1  0
 22 23  1  0
 23 24  2  0
 23 25  1  0
M  END
