
     RDKit          3D

 25 26  0  0  0  0  0  0  0  0999 V2000
   -2.8110    0.6820    3.1600 C   0  0  0  0  0  0  0  0  0  0  0  0
   -3.4230    1.5310    2.0910 C   0  0  1  0  0  0  0  0  0  0  0  0
   -2.4630    2.0480    1.1880 O   0  0  0  0  0  0  0  0  0  0  0  0
   -2.4410    1.3130    0.0250 C   0  0  0  0  0  0  0  0  0  0  0  0
   -1.4400    1.4250   -1.0460 C   0  0  1  0  0  0  0  0  0  0  0  0
   -1.4170    2.8420   -1.6400 C   0  0  0  0  0  0  0  0  0  0  0  0
   -1.0190    3.7810   -0.7230 O   0  0  0  0  0  0  0  0  0  0  0  0
   -0.1060    1.1490   -0.6170 N   0  0  0  0  0  0  0  0  0  0  0  0
    0.6900    0.1830   -1.2720 C   0  0  0  0  0  0  0  0  0  0  0  0
    0.1870   -0.4260   -2.2440 O   0  0  0  0  0  0  0  0  0  0  0  0
    2.0520   -0.0760   -0.8090 C   0  0  0  0  0  0  0  0  0  0  0  0
    2.4690    0.5760    0.1630 O   0  0  0  0  0  0  0  0  0  0  0  0
    2.9010   -1.0140   -1.4010 N   0  0  0  0  0  0  0  0  0  0  0  0
    4.2100   -1.3750   -1.0820 C   0  0  0  0  0  0  0  0  0  0  0  0
    4.8740   -0.8290   -0.0950 C   0  0  0  0  0  0  0  0  0  0  0  0
    6.2640   -1.3180    0.1240 C   0  0  0  0  0  0  0  0  0  0  0  0
    7.1520   -0.5670    0.5810 O   0  0  0  0  0  0  0  0  0  0  0  0
    6.5570   -2.7310   -0.2210 C   0  0  0  0  0  0  0  0  0  0  0  0
    5.5020   -3.3110   -0.8980 O   0  0  0  0  0  0  0  0  0  0  0  0
    4.9670   -2.4230   -1.8500 C   0  0  0  0  0  0  0  0  0  0  0  0
   -3.4640    0.4740    0.0010 C   0  0  0  0  0  0  0  0  0  0  0  0
   -4.2290    0.6410    1.2120 C   0  0  0  0  0  0  0  0  0  0  0  0
   -5.4100    0.1200    1.5030 C   0  0  0  0  0  0  0  0  0  0  0  0
   -6.0280   -0.7100    0.5300 N   0  0  0  0  0  0  0  0  0  0  0  0
   -5.4010   -1.8270    0.1110 O   0  0  0  0  0  0  0  0  0  0  0  0
  2  1  1  1
  2  3  1  0
  2 22  1  0
  3  4  1  0
  4  5  1  0
  4 21  2  0
  5  6  1  1
  5  8  1  0
  6  7  1  0
  8  9  1  0
  9 10  2  0
  9 11  1  0
 11 12  2  0
 11 13  1  0
 13 14  1  0
 14 15  2  0
 14 20  1  0
 15 16  1  0
 16 17  2  0
 16 18  1  0
 18 19  1  0
 19 20  1  0
 21 22  1  0
 22 23  2  3
 23 24  1  0
 24 25  1  0
M  END
