
     RDKit          3D

 25 26  0  0  0  0  0  0  0  0999 V2000
    8.3620    0.3060   -0.4550 C   0  0  0  0  0  0  0  0  0  0  0  0
    7.6340   -0.4590    0.6310 C   0  0  0  0  0  0  0  0  0  0  0  0
    6.2390   -0.1230    0.6390 O   0  0  0  0  0  0  0  0  0  0  0  0
    5.4950   -0.3630   -0.4860 C   0  0  0  0  0  0  0  0  0  0  0  0
    6.0520   -0.8670   -1.4860 O   0  0  0  0  0  0  0  0  0  0  0  0
    4.0460   -0.0490   -0.5730 C   0  0  1  0  0  0  0  0  0  0  0  0
    3.2260   -1.3010   -0.8410 C   0  0  0  0  0  0  0  0  0  0  0  0
    1.8230   -0.6110   -0.6290 C   0  0  0  0  0  0  0  0  0  0  0  0
    2.1580    0.1500    0.6010 C   0  0  2  0  0  0  0  0  0  0  0  0
    1.3610    1.3960    0.8530 C   0  0  0  0  0  0  0  0  0  0  0  0
   -0.0290    1.2350    1.0290 N   0  0  0  0  0  0  0  0  0  0  0  0
   -0.9980    0.7940    0.1310 C   0  0  0  0  0  0  0  0  0  0  0  0
   -0.7160    0.4930   -1.0390 O   0  0  0  0  0  0  0  0  0  0  0  0
   -2.4030    0.6570    0.5090 N   0  0  0  0  0  0  0  0  0  0  0  0
   -3.3310    0.2020   -0.4610 C   0  0  0  0  0  0  0  0  0  0  0  0
   -4.7320    0.0840   -0.0240 C   0  0  0  0  0  0  0  0  0  0  0  0
   -5.1530    0.3670    1.1720 C   0  0  0  0  0  0  0  0  0  0  0  0
   -6.5630    0.2410    1.5850 C   0  0  2  0  0  0  0  0  0  0  0  0
   -6.6790   -0.5920    2.7860 N   0  0  0  0  0  0  0  0  0  0  0  0
   -7.3770   -0.2090    0.5660 O   0  0  0  0  0  0  0  0  0  0  0  0
   -6.9420   -0.5100   -0.6950 C   0  0  0  0  0  0  0  0  0  0  0  0
   -7.8480   -0.9670   -1.6840 O   0  0  0  0  0  0  0  0  0  0  0  0
   -5.6880   -0.3980   -1.0670 C   0  0  0  0  0  0  0  0  0  0  0  0
   -5.2450   -0.7030   -2.3470 O   0  0  0  0  0  0  0  0  0  0  0  0
    3.5140    0.4870    0.5300 O   0  0  0  0  0  0  0  0  0  0  0  0
  1  2  1  0
  2  3  1  0
  3  4  1  0
  4  5  2  0
  6  4  1  1
  6  7  1  0
  6 25  1  0
  7  8  1  0
  8  9  1  0
  9 10  1  6
  9 25  1  0
 10 11  1  0
 11 12  1  0
 12 13  2  0
 12 14  1  0
 14 15  1  0
 15 16  1  0
 16 17  2  0
 16 23  1  0
 17 18  1  0
 18 19  1  1
 18 20  1  0
 20 21  1  0
 21 22  1  0
 21 23  2  0
 23 24  1  0
M  END
