
     RDKit          3D

 25 26  0  0  0  0  0  0  0  0999 V2000
    1.2620    3.5910   -0.2170 C   0  0  0  0  0  0  0  0  0  0  0  0
    0.9100    3.2270   -1.4370 C   0  0  0  0  0  0  0  0  0  0  0  0
   -0.0180    2.0830   -1.6820 C   0  0  0  0  0  0  0  0  0  0  0  0
   -0.2860    1.3010   -0.4080 C   0  0  0  0  0  0  0  0  0  0  0  0
   -1.3150    1.6940    0.3280 C   0  0  0  0  0  0  0  0  0  0  0  0
   -2.0410    2.8100   -0.1920 O   0  0  0  0  0  0  0  0  0  0  0  0
   -1.8340    1.1970    1.5800 C   0  0  0  0  0  0  0  0  0  0  0  0
   -1.8170    2.0700    2.5800 O   0  0  0  0  0  0  0  0  0  0  0  0
   -2.3390   -0.0060    1.9220 O   0  0  0  0  0  0  0  0  0  0  0  0
   -3.4460   -0.7390    1.5250 C   0  0  0  0  0  0  0  0  0  0  0  0
   -4.0840   -0.3630    0.2400 C   0  0  0  0  0  0  0  0  0  0  0  0
   -4.3050   -1.4100   -0.6270 O   0  0  0  0  0  0  0  0  0  0  0  0
   -3.2030   -2.2120   -0.8540 C   0  0  0  0  0  0  0  0  0  0  0  0
   -1.9550   -1.4020   -1.1680 C   0  0  0  0  0  0  0  0  0  0  0  0
   -1.0270   -1.6220   -0.1440 O   0  0  0  0  0  0  0  0  0  0  0  0
    0.2500   -1.1250   -0.0370 C   0  0  0  0  0  0  0  0  0  0  0  0
    0.5970    0.1700   -0.1580 C   0  0  0  0  0  0  0  0  0  0  0  0
    2.0870    0.2510   -0.0890 C   0  0  0  0  0  0  0  0  0  0  0  0
    2.8890    1.0330   -0.5790 O   0  0  0  0  0  0  0  0  0  0  0  0
    2.4700   -0.9230    0.7730 C   0  0  2  0  0  0  0  0  0  0  0  0
    3.7620   -1.4370    0.3900 N   0  0  0  0  0  0  0  0  0  0  0  0
    4.7920   -1.6780    1.3550 C   0  0  0  0  0  0  0  0  0  0  0  0
    6.0530   -2.1840    0.9500 N   0  0  0  0  0  0  0  0  0  0  0  0
    4.5400   -1.4280    2.5670 O   0  0  0  0  0  0  0  0  0  0  0  0
    1.4560   -1.8440    0.2240 N   0  0  0  0  0  0  0  0  0  0  0  0
  1  2  2  0
  2  3  1  0
  3  4  1  0
  4  5  2  0
  4 17  1  0
  5  6  1  0
  5  7  1  0
  7  8  2  0
  7  9  1  0
  9 10  1  0
 10 11  1  0
 11 12  1  0
 12 13  1  0
 13 14  1  0
 14 15  1  0
 15 16  1  0
 16 17  2  0
 16 25  1  0
 17 18  1  0
 18 19  2  0
 18 20  1  0
 20 21  1  6
 20 25  1  0
 21 22  1  0
 22 23  1  0
 22 24  2  0
M  END
