
     RDKit          3D

 25 26  0  0  0  0  0  0  0  0999 V2000
   -6.3560    1.5140   -0.7000 C   0  0  0  0  0  0  0  0  0  0  0  0
   -5.5230    0.3460   -0.1410 C   0  0  1  0  0  0  0  0  0  0  0  0
   -6.3390   -0.7830   -0.2520 O   0  0  0  0  0  0  0  0  0  0  0  0
   -4.2950    0.2260   -1.0140 C   0  0  0  0  0  0  0  0  0  0  0  0
   -3.1750    1.0310   -0.4240 C   0  0  0  0  0  0  0  0  0  0  0  0
   -2.6860    0.3640    0.8380 C   0  0  2  0  0  0  0  0  0  0  0  0
   -2.0760   -0.9490    0.5980 C   0  0  0  0  0  0  0  0  0  0  0  0
   -2.7410   -2.0010    0.4520 O   0  0  0  0  0  0  0  0  0  0  0  0
   -0.6940   -1.0550    0.5360 O   0  0  0  0  0  0  0  0  0  0  0  0
   -0.0540   -2.3170    0.3490 C   0  0  0  0  0  0  0  0  0  0  0  0
    1.3840   -2.1870    0.4130 C   0  0  0  0  0  0  0  0  0  0  0  0
    2.3080   -2.7920    0.7620 O   0  0  0  0  0  0  0  0  0  0  0  0
    1.8730   -0.6280   -0.2610 N   0  0  0  0  0  0  0  0  0  0  0  0
    3.2010   -0.6900    0.1100 C   0  0  0  0  0  0  0  0  0  0  0  0
    3.8380   -1.4290    0.8210 O   0  0  0  0  0  0  0  0  0  0  0  0
    3.9690    0.4290   -0.5680 N   0  0  0  0  0  0  0  0  0  0  0  0
    5.3260    0.4890   -0.2900 C   0  0  0  0  0  0  0  0  0  0  0  0
    6.2400    0.0580   -1.1620 C   0  0  0  0  0  0  0  0  0  0  0  0
    7.6840    0.1050   -0.8930 C   0  0  0  0  0  0  0  0  0  0  0  0
    7.9840    0.9010    0.2240 O   0  0  0  0  0  0  0  0  0  0  0  0
    7.0540    1.3270    1.1260 C   0  0  0  0  0  0  0  0  0  0  0  0
    5.7560    1.1680    0.9510 C   0  0  0  0  0  0  0  0  0  0  0  0
   -3.8430    0.2540    1.7060 N   0  0  0  0  0  0  0  0  0  0  0  0
   -5.1210    0.6100    1.2570 C   0  0  0  0  0  0  0  0  0  0  0  0
   -5.9730    1.1710    2.0500 O   0  0  0  0  0  0  0  0  0  0  0  0
  2  1  1  6
  2  3  1  0
  2  4  1  0
  2 24  1  0
  4  5  1  0
  5  6  1  0
  6  7  1  6
  6 23  1  0
  7  8  2  0
  7  9  1  0
  9 10  1  0
 10 11  1  0
 11 12  2  0
 11 13  1  0
 13 14  1  0
 14 15  2  0
 14 16  1  0
 16 17  1  0
 17 18  2  0
 17 22  1  0
 18 19  1  0
 19 20  1  0
 20 21  1  0
 21 22  2  0
 23 24  1  0
 24 25  2  0
M  END
