
     RDKit          3D

 25 26  0  0  0  0  0  0  0  0999 V2000
    2.8550   -4.1870   -0.8880 C   0  0  0  0  0  0  0  0  0  0  0  0
    2.6070   -2.7760   -0.8900 O   0  0  0  0  0  0  0  0  0  0  0  0
    1.5320   -2.2280   -0.2010 C   0  0  0  0  0  0  0  0  0  0  0  0
    0.8030   -3.0460    0.4140 O   0  0  0  0  0  0  0  0  0  0  0  0
    1.2250   -0.7990   -0.1640 C   0  0  1  0  0  0  0  0  0  0  0  0
    0.0420   -0.5880    0.6430 N   0  0  0  0  0  0  0  0  0  0  0  0
   -1.1100    0.0790    0.1950 C   0  0  0  0  0  0  0  0  0  0  0  0
   -1.1570    0.5310   -0.9620 O   0  0  0  0  0  0  0  0  0  0  0  0
   -2.2070    0.2230    1.0820 N   0  0  0  0  0  0  0  0  0  0  0  0
   -3.4190    0.8460    0.7420 C   0  0  0  0  0  0  0  0  0  0  0  0
   -3.7380    1.9930    1.3140 C   0  0  0  0  0  0  0  0  0  0  0  0
   -4.9960    2.7230    1.0180 C   0  0  0  0  0  0  0  0  0  0  0  0
   -5.7930    2.0680    0.0760 O   0  0  0  0  0  0  0  0  0  0  0  0
   -5.4890    0.8750   -0.5280 C   0  0  0  0  0  0  0  0  0  0  0  0
   -4.3360    0.2680   -0.2130 C   0  0  0  0  0  0  0  0  0  0  0  0
   -4.0900   -0.9970   -0.8510 C   0  0  0  0  0  0  0  0  0  0  0  0
   -4.9350   -1.4830   -1.6840 O   0  0  0  0  0  0  0  0  0  0  0  0
   -2.9780   -1.8090   -0.6600 O   0  0  0  0  0  0  0  0  0  0  0  0
    2.3650   -0.0520    0.5420 C   0  0  2  0  0  0  0  0  0  0  0  0
    2.1180    1.4160    0.6170 C   0  0  0  0  0  0  0  0  0  0  0  0
    3.4250    2.1740    0.5470 C   0  0  0  0  0  0  0  0  0  0  0  0
    3.9860    1.9180   -0.8560 C   0  0  0  0  0  0  0  0  0  0  0  0
    4.2740    0.4740   -0.9290 C   0  0  0  0  0  0  0  0  0  0  0  0
    5.0700    0.0250   -1.7770 O   0  0  0  0  0  0  0  0  0  0  0  0
    3.6410   -0.4100   -0.0300 N   0  0  0  0  0  0  0  0  0  0  0  0
  1  2  1  0
  2  3  1  0
  3  4  2  0
  3  5  1  0
  5  6  1  1
  5 19  1  0
  6  7  1  0
  7  8  2  0
  7  9  1  0
  9 10  1  0
 10 11  2  0
 10 15  1  0
 11 12  1  0
 12 13  1  0
 13 14  1  0
 14 15  2  0
 15 16  1  0
 16 17  2  0
 16 18  1  0
 19 20  1  6
 19 25  1  0
 20 21  1  0
 21 22  1  0
 22 23  1  0
 23 24  2  0
 23 25  1  0
M  END
