
     RDKit          3D

 25 26  0  0  0  0  0  0  0  0999 V2000
   -6.7710   -0.0410    1.2140 C   0  0  0  0  0  0  0  0  0  0  0  0
   -5.7900   -0.3480    0.3930 O   0  0  0  0  0  0  0  0  0  0  0  0
   -4.6000    0.1600    0.2310 C   0  0  0  0  0  0  0  0  0  0  0  0
   -4.4140    1.5900   -0.2750 C   0  0  2  0  0  0  0  0  0  0  0  0
   -3.0420    1.9430   -0.3090 N   0  0  0  0  0  0  0  0  0  0  0  0
   -1.9060    1.0430   -0.5340 C   0  0  0  0  0  0  0  0  0  0  0  0
   -2.1380   -0.1160   -0.6230 O   0  0  0  0  0  0  0  0  0  0  0  0
   -0.7200    1.7860   -0.5970 N   0  0  0  0  0  0  0  0  0  0  0  0
    0.3810    0.4440   -0.5570 C   0  0  0  0  0  0  0  0  0  0  0  0
   -0.1040   -0.5930   -0.5290 O   0  0  0  0  0  0  0  0  0  0  0  0
    1.7570    0.8910   -0.5580 C   0  0  0  0  0  0  0  0  0  0  0  0
    2.6350   -0.2670   -0.2370 C   0  0  1  0  0  0  0  0  0  0  0  0
    2.5240   -1.3930   -1.2230 C   0  0  0  0  0  0  0  0  0  0  0  0
    3.8730   -2.0720   -1.1500 C   0  0  0  0  0  0  0  0  0  0  0  0
    4.6950   -1.1630   -0.3170 C   0  0  0  0  0  0  0  0  0  0  0  0
    5.8400   -1.4570    0.2700 C   0  0  0  0  0  0  0  0  0  0  0  0
    6.6640   -0.6820    1.0580 O   0  0  0  0  0  0  0  0  0  0  0  0
    7.7790   -1.4170    1.4610 C   0  0  0  0  0  0  0  0  0  0  0  0
    7.7230   -2.6370    0.9710 C   0  0  0  0  0  0  0  0  0  0  0  0
    6.5170   -2.7740    0.1900 C   0  0  0  0  0  0  0  0  0  0  0  0
    6.0480   -3.7470   -0.4560 O   0  0  0  0  0  0  0  0  0  0  0  0
    4.0080    0.0750   -0.2780 O   0  0  0  0  0  0  0  0  0  0  0  0
   -5.0980    2.5720    0.5450 C   0  0  0  0  0  0  0  0  0  0  0  0
   -6.3050    3.1670    0.1750 N   0  0  0  0  0  0  0  0  0  0  0  0
   -4.5570    2.8960    1.6390 O   0  0  0  0  0  0  0  0  0  0  0  0
  1  2  1  0
  2  3  1  0
  4  3  1  1
  4  5  1  0
  4 23  1  0
  5  6  1  0
  6  7  2  0
  6  8  1  0
  8  9  1  0
  9 10  2  0
  9 11  1  0
 12 11  1  6
 12 13  1  0
 12 22  1  0
 13 14  1  0
 14 15  1  0
 15 16  2  3
 15 22  1  0
 16 17  1  0
 16 20  1  0
 17 18  1  0
 18 19  2  0
 19 20  1  0
 20 21  2  0
 23 24  1  0
 23 25  2  0
M  END
