
     RDKit          3D

 14 14  0  0  0  0  0  0  0  0999 V2000
   -4.0070    1.0720    0.2660 C   0  0  0  0  0  0  0  0  0  0  0  0
   -2.9970    0.1260   -0.0990 N   0  0  1  0  0  0  0  0  0  0  0  0
   -1.6490    0.6530    0.0430 C   0  0  0  0  0  0  0  0  0  0  0  0
   -0.7890   -0.4840    0.5500 C   0  0  2  0  0  0  0  0  0  0  0  0
    0.8370   -0.5690   -0.1560 S   0  0  0  0  0  0  0  0  0  0  0  0
    1.7420    0.9040    0.4110 C   0  0  0  0  0  0  0  0  0  0  0  0
    3.1480    0.9400   -0.1280 C   0  0  2  0  0  0  0  0  0  0  0  0
    3.0890    0.9620   -1.5070 O   0  0  0  0  0  0  0  0  0  0  0  0
    3.9800   -0.2240    0.3690 C   0  0  2  0  0  0  0  0  0  0  0  0
    5.2630   -0.0610   -0.1580 O   0  0  0  0  0  0  0  0  0  0  0  0
    3.4310   -1.4440   -0.0300 O   0  0  0  0  0  0  0  0  0  0  0  0
   -1.6640   -1.6720    0.3080 C   0  0  2  0  0  0  0  0  0  0  0  0
   -1.7880   -2.0140   -1.0340 O   0  0  0  0  0  0  0  0  0  0  0  0
   -3.0110   -1.0640    0.7340 C   0  0  0  0  0  0  0  0  0  0  0  0
  2  1  1  1
  2  3  1  0
  2 14  1  0
  3  4  1  0
  4  5  1  6
  4 12  1  0
  5  6  1  0
  6  7  1  0
  7  8  1  6
  7  9  1  0
  9 10  1  6
  9 11  1  0
 12 13  1  6
 12 14  1  0
M  CHG  1   2   1
M  END
