
     RDKit          3D

 14 14  0  0  0  0  0  0  0  0999 V2000
    4.4180    0.6420   -1.5860 C   0  0  0  0  0  0  0  0  0  0  0  0
    3.9510    0.1860   -0.3610 O   0  0  0  0  0  0  0  0  0  0  0  0
    2.5500    0.1060   -0.4610 C   0  0  0  0  0  0  0  0  0  0  0  0
    2.0610   -0.3920    0.8820 C   0  0  0  0  0  0  0  0  0  0  0  0
    0.7090   -0.5330    0.9700 O   0  0  0  0  0  0  0  0  0  0  0  0
   -0.0500    0.5840    0.7800 C   0  0  2  0  0  0  0  0  0  0  0  0
   -0.8960    0.9170    1.7960 O   0  0  0  0  0  0  0  0  0  0  0  0
   -1.9860    0.1510    2.0010 C   0  0  0  0  0  0  0  0  0  0  0  0
   -2.6200   -0.4970    0.8420 C   0  0  1  0  0  0  0  0  0  0  0  0
   -3.8800    0.6120    0.1270 S   0  0  0  0  0  0  0  0  0  0  0  0
   -1.6300   -0.9030   -0.2080 C   0  0  1  0  0  0  0  0  0  0  0  0
   -2.2170   -1.4870   -1.3670 N   0  0  0  0  0  0  0  0  0  0  0  0
   -0.8290    0.3490   -0.5250 C   0  0  1  0  0  0  0  0  0  0  0  0
   -1.6870    1.4210   -0.7670 O   0  0  0  0  0  0  0  0  0  0  0  0
  1  2  1  0
  2  3  1  0
  3  4  1  0
  4  5  1  0
  6  5  1  1
  6  7  1  0
  6 13  1  0
  7  8  1  0
  8  9  1  0
  9 10  1  6
  9 11  1  0
 11 12  1  6
 11 13  1  0
 13 14  1  1
M  CHG  1  12   1
M  END
