
     RDKit          3D

 13 14  0  0  0  0  0  0  0  0999 V2000
   -1.9540    1.2780   -1.7140 O   0  0  0  0  0  0  0  0  0  0  0  0
   -1.8390    0.8460   -0.4120 C   0  0  1  0  0  0  0  0  0  0  0  0
   -3.0290    0.2640    0.0630 O   0  0  0  0  0  0  0  0  0  0  0  0
   -2.6270   -0.2490    1.2870 C   0  0  0  0  0  0  0  0  0  0  0  0
   -1.2460   -0.8760    1.0460 C   0  0  0  0  0  0  0  0  0  0  0  0
   -0.8980   -0.3400   -0.2950 C   0  0  1  0  0  0  0  0  0  0  0  0
   -1.2280   -1.2060   -1.3370 O   0  0  0  0  0  0  0  0  0  0  0  0
    0.4990    0.1020   -0.4950 C   0  0  2  0  0  0  0  0  0  0  0  0
    0.5650    0.7540   -1.7390 O   0  0  0  0  0  0  0  0  0  0  0  0
    1.5010   -1.0160   -0.5380 C   0  0  0  0  0  0  0  0  0  0  0  0
    2.6860   -0.5130    0.2830 C   0  0  0  0  0  0  0  0  0  0  0  0
    2.5090    0.9260    0.2170 N   0  0  0  0  0  0  0  0  0  0  0  0
    1.0680    1.0290    0.5150 C   0  0  0  0  0  0  0  0  0  0  0  0
  2  1  1  6
  2  3  1  0
  2  6  1  0
  3  4  1  0
  4  5  1  0
  5  6  1  0
  6  7  1  6
  6  8  1  0
  8  9  1  6
  8 10  1  0
  8 13  1  0
 10 11  1  0
 11 12  1  0
 12 13  1  0
M  CHG  1  12   1
M  END
