
     RDKit          3D

 13 14  0  0  0  0  0  0  0  0999 V2000
    1.8760    1.8840    0.1500 N   0  0  0  0  0  0  0  0  0  0  0  0
    1.0960    0.8410   -0.4620 C   0  0  2  0  0  0  0  0  0  0  0  0
   -0.2810    0.8260    0.1470 C   0  0  0  0  0  0  0  0  0  0  0  0
   -1.0650   -0.3770   -0.3600 C   0  0  2  0  0  0  0  0  0  0  0  0
   -2.2980    0.0720   -1.0590 C   0  0  0  0  0  0  0  0  0  0  0  0
   -3.2970    0.5150   -0.0260 C   0  0  0  0  0  0  0  0  0  0  0  0
   -3.1630   -0.9000    1.1360 S   0  0  0  0  0  0  0  0  0  0  0  0
   -1.4230   -1.3300    0.7270 C   0  0  0  0  0  0  0  0  0  0  0  0
   -0.2870   -1.0730   -1.2980 O   0  0  0  0  0  0  0  0  0  0  0  0
    0.8680   -1.5860   -0.7190 C   0  0  0  0  0  0  0  0  0  0  0  0
    1.8050   -0.4830   -0.2730 C   0  0  2  0  0  0  0  0  0  0  0  0
    2.0870   -0.6680    1.0640 O   0  0  0  0  0  0  0  0  0  0  0  0
    3.3940   -0.7450    1.2430 O   0  0  0  0  0  0  0  0  0  0  0  0
  2  1  1  1
  2  3  1  0
  2 11  1  0
  4  3  1  1
  4  5  1  0
  4  8  1  0
  4  9  1  0
  5  6  1  0
  6  7  1  0
  7  8  1  0
  9 10  1  0
 10 11  1  0
 11 12  1  1
 12 13  1  0
M  CHG  1   1   1
M  END
