
     RDKit          3D

 14 15  0  0  0  0  0  0  0  0999 V2000
    0.3480    0.5930    1.4550 N   0  0  0  0  0  0  0  0  0  0  0  0
   -0.0110   -0.5290    0.6540 C   0  0  2  0  0  0  0  0  0  0  0  0
    0.9200   -0.9160   -0.4140 C   0  0  2  0  0  0  0  0  0  0  0  0
    2.3220   -0.4740   -0.3250 C   0  0  0  0  0  0  0  0  0  0  0  0
    2.5230    0.8880   -0.2950 O   0  0  0  0  0  0  0  0  0  0  0  0
    4.1720    1.2800   -0.1910 S   0  0  0  0  0  0  0  0  0  0  0  0
    4.7300    0.7150    1.1070 O   0  0  0  0  0  0  0  0  0  0  0  0
    0.2040   -0.4340   -1.6620 C   0  0  0  0  0  0  0  0  0  0  0  0
   -1.0940   -0.8590   -1.3750 O   0  0  0  0  0  0  0  0  0  0  0  0
   -1.3170   -0.3500   -0.0940 C   0  0  2  0  0  0  0  0  0  0  0  0
   -1.7570    1.0570   -0.2280 C   0  0  0  0  0  0  0  0  0  0  0  0
   -3.2710    0.9370   -0.0540 C   0  0  0  0  0  0  0  0  0  0  0  0
   -3.4650   -0.1400    0.7920 O   0  0  0  0  0  0  0  0  0  0  0  0
   -2.4560   -1.0420    0.6050 C   0  0  0  0  0  0  0  0  0  0  0  0
  2  1  1  6
  2  3  1  0
  2 10  1  0
  3  4  1  1
  3  8  1  0
  4  5  1  0
  5  6  1  0
  6  7  2  0
  8  9  1  0
  9 10  1  0
 10 11  1  6
 10 14  1  0
 11 12  1  0
 12 13  1  0
 13 14  1  0
M  CHG  1   1   1
M  END
