
     RDKit          3D

 14 14  0  0  0  0  0  0  0  0999 V2000
    2.4550   -1.2550    0.4900 C   0  0  0  0  0  0  0  0  0  0  0  0
    2.1370    0.0280   -0.2330 C   0  0  2  0  0  0  0  0  0  0  0  0
    2.1970    1.4610    0.8710 S   0  0  0  0  0  0  0  0  0  0  0  0
    3.8190    1.6810    1.3900 O   0  0  0  0  0  0  0  0  0  0  0  0
    0.8600   -0.0390   -1.0410 C   0  0  2  0  0  0  0  0  0  0  0  0
    0.6360    1.2060   -1.6870 N   0  0  0  0  0  0  0  0  0  0  0  0
   -0.2990   -0.6290   -0.3260 C   0  0  2  0  0  0  0  0  0  0  0  0
   -1.3450   -0.8530   -1.2370 O   0  0  0  0  0  0  0  0  0  0  0  0
   -2.4280   -0.1200   -0.8090 C   0  0  1  0  0  0  0  0  0  0  0  0
   -3.7240   -0.7670   -1.2370 C   0  0  0  0  0  0  0  0  0  0  0  0
   -2.2920   -0.1010    0.5640 O   0  0  0  0  0  0  0  0  0  0  0  0
   -0.9090    0.1270    0.7630 C   0  0  1  0  0  0  0  0  0  0  0  0
   -0.6280   -0.4580    2.1450 C   0  0  0  0  0  0  0  0  0  0  0  0
   -0.6800    1.4770    0.7970 O   0  0  0  0  0  0  0  0  0  0  0  0
  2  1  1  1
  2  3  1  0
  2  5  1  0
  3  4  1  0
  5  6  1  1
  5  7  1  0
  7  8  1  6
  7 12  1  0
  8  9  1  0
  9 10  1  1
  9 11  1  0
 11 12  1  0
 12 13  1  1
 12 14  1  0
M  CHG  1   6   1
M  END
