
     RDKit          3D

 14 14  0  0  0  0  0  0  0  0999 V2000
    3.3120   -1.9360    0.6960 C   0  0  0  0  0  0  0  0  0  0  0  0
    2.9390   -0.7990    0.0180 O   0  0  0  0  0  0  0  0  0  0  0  0
    1.6730   -0.3180    0.4330 C   0  0  1  0  0  0  0  0  0  0  0  0
    1.9860    0.9920    1.1760 C   0  0  0  0  0  0  0  0  0  0  0  0
    0.3170    1.4850    1.7790 S   0  0  0  0  0  0  0  0  0  0  0  0
   -0.6940    1.4370    0.2530 C   0  0  1  0  0  0  0  0  0  0  0  0
   -0.4050    2.7760   -0.4430 C   0  0  0  0  0  0  0  0  0  0  0  0
   -1.0910    2.9140   -1.6250 O   0  0  0  0  0  0  0  0  0  0  0  0
   -0.3290    0.3110   -0.6570 C   0  0  2  0  0  0  0  0  0  0  0  0
   -1.3840   -0.7920   -0.6960 C   0  0  2  0  0  0  0  0  0  0  0  0
   -2.7060   -0.1600   -0.6820 N   0  0  0  0  0  0  0  0  0  0  0  0
   -1.3320   -1.7380    0.4480 C   0  0  0  0  0  0  0  0  0  0  0  0
   -2.3700   -2.6900    0.2730 O   0  0  0  0  0  0  0  0  0  0  0  0
    0.9420   -0.1280   -0.6660 O   0  0  0  0  0  0  0  0  0  0  0  0
  1  2  1  0
  3  2  1  6
  3  4  1  0
  3 14  1  0
  4  5  1  0
  5  6  1  0
  6  7  1  6
  6  9  1  0
  7  8  1  0
  9 10  1  0
  9 14  1  1
 10 11  1  1
 10 12  1  0
 12 13  1  0
M  CHG  1  11   1
M  END
