
     RDKit          3D

 14 15  0  0  0  0  0  0  0  0999 V2000
   -3.8510    0.6630    0.3100 C   0  0  0  0  0  0  0  0  0  0  0  0
   -2.5480   -0.0600    0.6120 C   0  0  1  0  0  0  0  0  0  0  0  0
   -1.8260   -0.2690   -0.6000 N   0  0  0  0  0  0  0  0  0  0  0  0
   -0.4490   -0.1150   -0.4510 C   0  0  1  0  0  0  0  0  0  0  0  0
   -0.0750    1.0270    0.4070 C   0  0  2  0  0  0  0  0  0  0  0  0
    1.0330    0.8330    1.1930 O   0  0  0  0  0  0  0  0  0  0  0  0
    2.0950    0.2400    0.5360 C   0  0  2  0  0  0  0  0  0  0  0  0
    2.6320    1.2100   -0.5000 C   0  0  0  0  0  0  0  0  0  0  0  0
    3.0450    2.3580    0.2050 O   0  0  0  0  0  0  0  0  0  0  0  0
    1.7700   -1.1030   -0.0350 C   0  0  1  0  0  0  0  0  0  0  0  0
    2.4080   -2.0930    0.7160 O   0  0  0  0  0  0  0  0  0  0  0  0
    0.2770   -1.3940   -0.0110 C   0  0  2  0  0  0  0  0  0  0  0  0
    0.0220   -2.3390   -1.0030 O   0  0  0  0  0  0  0  0  0  0  0  0
   -1.5080    1.1200    1.5530 S   0  0  0  0  0  0  0  0  0  0  0  0
  2  1  1  6
  2  3  1  0
  2 14  1  0
  4  3  1  1
  4  5  1  0
  4 12  1  0
  5  6  1  1
  5 14  1  0
  6  7  1  0
  7  8  1  6
  7 10  1  0
  8  9  1  0
 10 11  1  1
 10 12  1  0
 12 13  1  6
M  CHG  1   3   1
M  END
