
     RDKit          3D

 13 14  0  0  0  0  0  0  0  0999 V2000
    2.5200    1.6870    0.9760 O   0  0  0  0  0  0  0  0  0  0  0  0
    2.5470    0.3210    0.7050 C   0  0  0  0  0  0  0  0  0  0  0  0
    1.9930    0.0330   -0.6620 C   0  0  1  0  0  0  0  0  0  0  0  0
    2.1930   -1.4130   -1.0590 C   0  0  0  0  0  0  0  0  0  0  0  0
    0.9320   -2.3990   -0.2640 S   0  0  0  0  0  0  0  0  0  0  0  0
   -0.3910   -1.3790    0.3230 C   0  0  2  0  0  0  0  0  0  0  0  0
   -1.7140   -1.6190   -0.4170 C   0  0  0  0  0  0  0  0  0  0  0  0
   -2.4560   -0.4520    0.0910 N   0  0  0  0  0  0  0  0  0  0  0  0
   -1.5430    0.5860   -0.3450 C   0  0  1  0  0  0  0  0  0  0  0  0
   -1.8930    1.9540    0.1490 C   0  0  0  0  0  0  0  0  0  0  0  0
   -1.9150    2.0760    1.5180 O   0  0  0  0  0  0  0  0  0  0  0  0
   -0.1890    0.0990    0.1300 C   0  0  2  0  0  0  0  0  0  0  0  0
    0.7080    0.4190   -0.8580 O   0  0  0  0  0  0  0  0  0  0  0  0
  1  2  1  0
  3  2  1  1
  3  4  1  0
  3 13  1  0
  4  5  1  0
  5  6  1  0
  6  7  1  6
  6 12  1  0
  7  8  1  0
  8  9  1  0
  9 10  1  1
  9 12  1  0
 10 11  1  0
 12 13  1  6
M  CHG  1   8   1
M  END
