
     RDKit          3D

 25 26  0  0  0  0  0  0  0  0999 V2000
   -5.9710   -0.4820   -0.7700 C   0  0  0  0  0  0  0  0  0  0  0  0
   -4.5160   -0.8820   -0.8320 C   0  0  1  0  0  0  0  0  0  0  0  0
   -3.7730    0.0110   -1.6490 O   0  0  0  0  0  0  0  0  0  0  0  0
   -2.5030    0.1380   -1.1240 C   0  0  0  0  0  0  0  0  0  0  0  0
   -1.3300    0.6640   -1.8590 C   0  0  1  0  0  0  0  0  0  0  0  0
   -1.6250    2.0900   -2.3000 C   0  0  0  0  0  0  0  0  0  0  0  0
   -2.7320    2.1710   -3.1130 O   0  0  0  0  0  0  0  0  0  0  0  0
   -0.1480    0.7230   -1.0140 N   0  0  0  0  0  0  0  0  0  0  0  0
    1.0590    0.0710   -1.3200 C   0  0  0  0  0  0  0  0  0  0  0  0
    1.1470   -0.6060   -2.3760 O   0  0  0  0  0  0  0  0  0  0  0  0
    2.2440    0.1340   -0.4670 C   0  0  0  0  0  0  0  0  0  0  0  0
    2.2160    0.8010    0.6100 O   0  0  0  0  0  0  0  0  0  0  0  0
    3.4530   -0.5220   -0.7790 N   0  0  0  0  0  0  0  0  0  0  0  0
    4.6200   -0.4810    0.0280 C   0  0  0  0  0  0  0  0  0  0  0  0
    5.1940   -1.5490    0.5570 C   0  0  0  0  0  0  0  0  0  0  0  0
    6.3930   -1.4480    1.3790 C   0  0  0  0  0  0  0  0  0  0  0  0
    6.9630   -2.4490    1.8800 O   0  0  0  0  0  0  0  0  0  0  0  0
    6.9250   -0.0800    1.6050 C   0  0  0  0  0  0  0  0  0  0  0  0
    6.6560    0.6650    0.4400 O   0  0  0  0  0  0  0  0  0  0  0  0
    5.2570    0.8310    0.3100 C   0  0  0  0  0  0  0  0  0  0  0  0
   -2.4680   -0.2780    0.1390 C   0  0  0  0  0  0  0  0  0  0  0  0
   -3.8320   -0.7160    0.4760 C   0  0  0  0  0  0  0  0  0  0  0  0
   -4.3080   -0.9090    1.6920 C   0  0  0  0  0  0  0  0  0  0  0  0
   -3.5480   -0.7150    2.8670 N   0  0  0  0  0  0  0  0  0  0  0  0
   -3.6880    0.4020    3.6070 O   0  0  0  0  0  0  0  0  0  0  0  0
  2  1  1  1
  2  3  1  0
  2 22  1  0
  3  4  1  0
  4  5  1  0
  4 21  2  0
  5  6  1  1
  5  8  1  0
  6  7  1  0
  8  9  1  0
  9 10  2  0
  9 11  1  0
 11 12  2  0
 11 13  1  0
 13 14  1  0
 14 15  2  0
 14 20  1  0
 15 16  1  0
 16 17  2  0
 16 18  1  0
 18 19  1  0
 19 20  1  0
 21 22  1  0
 22 23  2  3
 23 24  1  0
 24 25  1  0
M  END
