
     RDKit          3D

 25 26  0  0  0  0  0  0  0  0999 V2000
   -2.9400   -0.2850   -2.8430 C   0  0  0  0  0  0  0  0  0  0  0  0
   -2.8260    0.4810   -1.6820 O   0  0  0  0  0  0  0  0  0  0  0  0
   -3.3990   -0.0550   -0.5840 C   0  0  1  0  0  0  0  0  0  0  0  0
   -2.6800   -1.2920   -0.1290 C   0  0  0  0  0  0  0  0  0  0  0  0
   -1.3910   -1.1680    0.4110 N   0  0  0  0  0  0  0  0  0  0  0  0
   -0.2460   -0.6400   -0.2090 C   0  0  0  0  0  0  0  0  0  0  0  0
   -0.3160   -0.2180   -1.3610 O   0  0  0  0  0  0  0  0  0  0  0  0
    0.9990   -0.5820    0.4690 N   0  0  0  0  0  0  0  0  0  0  0  0
    2.2110   -0.0720   -0.0580 C   0  0  0  0  0  0  0  0  0  0  0  0
    2.3550    0.4260   -1.2710 C   0  0  0  0  0  0  0  0  0  0  0  0
    3.6140    0.9670   -1.8500 C   0  0  2  0  0  0  0  0  0  0  0  0
    4.2590   -0.0850   -2.5370 O   0  0  0  0  0  0  0  0  0  0  0  0
    4.5560    1.4300   -0.7850 C   0  0  0  0  0  0  0  0  0  0  0  0
    4.5940    0.4250    0.2350 O   0  0  0  0  0  0  0  0  0  0  0  0
    3.4180   -0.0820    0.7780 C   0  0  0  0  0  0  0  0  0  0  0  0
    3.4230   -0.5480    2.0040 C   0  0  0  0  0  0  0  0  0  0  0  0
    4.6690   -0.5360    2.8080 C   0  0  0  0  0  0  0  0  0  0  0  0
    4.6470   -0.9820    3.9660 O   0  0  0  0  0  0  0  0  0  0  0  0
    5.8220   -0.0330    2.2610 O   0  0  0  0  0  0  0  0  0  0  0  0
    7.0250    0.0120    2.9500 N   0  0  0  0  0  0  0  0  0  0  0  0
   -3.1760    0.9510    0.5470 C   0  0  0  0  0  0  0  0  0  0  0  0
   -4.2480    1.9570    0.7090 C   0  0  0  0  0  0  0  0  0  0  0  0
   -5.4350    1.6870    0.0370 O   0  0  0  0  0  0  0  0  0  0  0  0
   -5.7080    0.3260    0.3110 C   0  0  0  0  0  0  0  0  0  0  0  0
   -4.8520   -0.4310   -0.7020 C   0  0  0  0  0  0  0  0  0  0  0  0
  1  2  1  0
  2  3  1  0
  3  4  1  1
  3 21  1  0
  3 25  1  0
  4  5  1  0
  5  6  1  0
  6  7  2  0
  6  8  1  0
  8  9  1  0
  9 10  2  0
  9 15  1  0
 10 11  1  0
 11 12  1  1
 11 13  1  0
 13 14  1  0
 14 15  1  0
 15 16  2  3
 16 17  1  0
 17 18  2  0
 17 19  1  0
 19 20  1  0
 21 22  1  0
 22 23  1  0
 23 24  1  0
 24 25  1  0
M  END
