
     RDKit          3D

 25 26  0  0  0  0  0  0  0  0999 V2000
    7.3530    1.1130    2.1210 C   0  0  0  0  0  0  0  0  0  0  0  0
    6.6490    0.5630    1.0760 O   0  0  0  0  0  0  0  0  0  0  0  0
    5.3330    0.4750    1.3550 C   0  0  0  0  0  0  0  0  0  0  0  0
    4.5160   -0.0940    0.1870 C   0  0  2  0  0  0  0  0  0  0  0  0
    3.1370   -0.2280    0.6670 N   0  0  0  0  0  0  0  0  0  0  0  0
    2.1960    0.6120    0.0860 C   0  0  0  0  0  0  0  0  0  0  0  0
    2.6710    1.5800   -0.6670 O   0  0  0  0  0  0  0  0  0  0  0  0
    0.8800    0.6740    0.0830 N   0  0  0  0  0  0  0  0  0  0  0  0
   -0.4640    0.7200    0.0920 C   0  0  0  0  0  0  0  0  0  0  0  0
   -0.8850    1.8060   -0.4370 O   0  0  0  0  0  0  0  0  0  0  0  0
   -1.3720   -0.2710    0.5710 C   0  0  0  0  0  0  0  0  0  0  0  0
   -2.4150   -0.5370   -0.5260 C   0  0  1  0  0  0  0  0  0  0  0  0
   -3.2870   -1.6220    0.0000 C   0  0  0  0  0  0  0  0  0  0  0  0
   -4.4940   -0.8440    0.5790 C   0  0  0  0  0  0  0  0  0  0  0  0
   -4.5510    0.1680   -0.5520 C   0  0  0  0  0  0  0  0  0  0  0  0
   -5.5860    0.5280   -1.2340 C   0  0  0  0  0  0  0  0  0  0  0  0
   -5.6260    1.4680   -2.2810 O   0  0  0  0  0  0  0  0  0  0  0  0
   -6.9390    1.5710   -2.7660 C   0  0  0  0  0  0  0  0  0  0  0  0
   -7.7390    0.7710   -2.1130 C   0  0  0  0  0  0  0  0  0  0  0  0
   -6.9620    0.0540   -1.1000 C   0  0  0  0  0  0  0  0  0  0  0  0
   -7.3850   -0.7770   -0.2940 O   0  0  0  0  0  0  0  0  0  0  0  0
   -3.2220    0.5970   -0.6780 O   0  0  0  0  0  0  0  0  0  0  0  0
    5.0050   -1.4180   -0.1830 C   0  0  0  0  0  0  0  0  0  0  0  0
    4.4940   -1.8810   -1.5250 N   0  0  0  0  0  0  0  0  0  0  0  0
    5.6890   -2.1970    0.3600 O   0  0  0  0  0  0  0  0  0  0  0  0
  1  2  1  0
  2  3  1  0
  4  3  1  1
  4  5  1  0
  4 23  1  0
  5  6  1  0
  6  7  2  0
  6  8  1  0
  8  9  1  0
  9 10  2  0
  9 11  1  0
 12 11  1  1
 12 13  1  0
 12 22  1  0
 13 14  1  0
 14 15  1  0
 15 16  2  3
 15 22  1  0
 16 17  1  0
 16 20  1  0
 17 18  1  0
 18 19  2  0
 19 20  1  0
 20 21  2  0
 23 24  1  0
 23 25  2  0
M  END
