
     RDKit          3D

 25 26  0  0  0  0  0  0  0  0999 V2000
   -3.5960    3.2590   -1.1530 C   0  0  0  0  0  0  0  0  0  0  0  0
   -2.8600    2.0430   -1.2430 O   0  0  0  0  0  0  0  0  0  0  0  0
   -1.8010    1.7950   -0.4030 C   0  0  0  0  0  0  0  0  0  0  0  0
   -1.4810    2.6450    0.4500 O   0  0  0  0  0  0  0  0  0  0  0  0
   -1.0500    0.5360   -0.5080 C   0  0  1  0  0  0  0  0  0  0  0  0
    0.0050    0.5430    0.4810 N   0  0  0  0  0  0  0  0  0  0  0  0
    1.3890    0.4390    0.0980 C   0  0  0  0  0  0  0  0  0  0  0  0
    1.6630    0.3410   -1.1280 O   0  0  0  0  0  0  0  0  0  0  0  0
    2.4440    0.4440    1.0490 N   0  0  0  0  0  0  0  0  0  0  0  0
    3.8110    0.3170    0.7240 C   0  0  0  0  0  0  0  0  0  0  0  0
    4.6580    1.3570    0.8690 C   0  0  0  0  0  0  0  0  0  0  0  0
    6.0930    1.2780    0.5450 C   0  0  0  0  0  0  0  0  0  0  0  0
    6.4730    0.0160    0.0760 O   0  0  0  0  0  0  0  0  0  0  0  0
    5.6370   -1.0580   -0.0730 C   0  0  0  0  0  0  0  0  0  0  0  0
    4.3510   -0.9360    0.2320 C   0  0  0  0  0  0  0  0  0  0  0  0
    3.4970   -2.0980    0.1050 C   0  0  0  0  0  0  0  0  0  0  0  0
    2.2710   -2.1460    0.3720 O   0  0  0  0  0  0  0  0  0  0  0  0
    4.0940   -3.2910   -0.3630 O   0  0  0  0  0  0  0  0  0  0  0  0
   -1.9280   -0.7000   -0.2890 C   0  0  2  0  0  0  0  0  0  0  0  0
   -3.0370   -0.8080   -1.2930 C   0  0  0  0  0  0  0  0  0  0  0  0
   -4.4180   -0.7340   -0.6610 C   0  0  0  0  0  0  0  0  0  0  0  0
   -4.5530   -1.8460    0.3620 C   0  0  0  0  0  0  0  0  0  0  0  0
   -3.4990   -1.6100    1.3720 C   0  0  0  0  0  0  0  0  0  0  0  0
   -3.5020   -2.1690    2.5140 O   0  0  0  0  0  0  0  0  0  0  0  0
   -2.4280   -0.7250    1.0740 N   0  0  0  0  0  0  0  0  0  0  0  0
  1  2  1  0
  2  3  1  0
  3  4  2  0
  3  5  1  0
  5  6  1  1
  5 19  1  0
  6  7  1  0
  7  8  2  0
  7  9  1  0
  9 10  1  0
 10 11  2  0
 10 15  1  0
 11 12  1  0
 12 13  1  0
 13 14  1  0
 14 15  2  0
 15 16  1  0
 16 17  2  0
 16 18  1  0
 19 20  1  6
 19 25  1  0
 20 21  1  0
 21 22  1  0
 22 23  1  0
 23 24  2  0
 23 25  1  0
M  END
