
     RDKit          3D

 25 26  0  0  0  0  0  0  0  0999 V2000
    5.0560   -0.2340   -0.4420 C   0  0  0  0  0  0  0  0  0  0  0  0
    4.3760    0.5270   -1.5610 C   0  0  0  0  0  0  0  0  0  0  0  0
    3.2430    1.3740   -0.9930 C   0  0  2  0  0  0  0  0  0  0  0  0
    3.7000    2.2870   -0.0710 O   0  0  0  0  0  0  0  0  0  0  0  0
    2.2660    0.4260   -0.3630 C   0  0  0  0  0  0  0  0  0  0  0  0
    1.7520   -0.4700   -1.0630 O   0  0  0  0  0  0  0  0  0  0  0  0
    1.9110    0.5180    1.0060 N   0  0  0  0  0  0  0  0  0  0  0  0
    0.9940   -0.3340    1.7010 C   0  0  0  0  0  0  0  0  0  0  0  0
   -0.3770   -0.2810    1.0740 C   0  0  0  0  0  0  0  0  0  0  0  0
   -0.9300   -1.3700    0.6220 C   0  0  0  0  0  0  0  0  0  0  0  0
   -0.1890   -2.6780    0.7320 C   0  0  0  0  0  0  0  0  0  0  0  0
   -2.2740   -1.3530    0.0020 C   0  0  2  0  0  0  0  0  0  0  0  0
   -2.8810   -0.0200   -0.0400 C   0  0  0  0  0  0  0  0  0  0  0  0
   -2.2900    1.0560    0.4270 C   0  0  0  0  0  0  0  0  0  0  0  0
   -2.9840    2.3310    0.3340 C   0  0  0  0  0  0  0  0  0  0  0  0
   -4.1220    2.4200   -0.1780 O   0  0  0  0  0  0  0  0  0  0  0  0
   -2.4240    3.5180    0.8070 O   0  0  0  0  0  0  0  0  0  0  0  0
   -3.1290    4.7420    0.7000 C   0  0  0  0  0  0  0  0  0  0  0  0
   -1.0280    0.9490    0.9940 O   0  0  0  0  0  0  0  0  0  0  0  0
   -3.1440   -2.2480    0.7500 N   0  0  0  0  0  0  0  0  0  0  0  0
   -3.2230   -3.4880    0.0850 C   0  0  0  0  0  0  0  0  0  0  0  0
   -3.7050   -4.5850    0.5450 O   0  0  0  0  0  0  0  0  0  0  0  0
   -2.6710   -3.3290   -1.2120 N   0  0  0  0  0  0  0  0  0  0  0  0
   -2.2500   -1.9880   -1.3480 C   0  0  0  0  0  0  0  0  0  0  0  0
   -1.9050   -1.3850   -2.3900 O   0  0  0  0  0  0  0  0  0  0  0  0
  1  2  1  0
  2  3  1  0
  3  4  1  1
  3  5  1  0
  5  6  2  0
  5  7  1  0
  7  8  1  0
  8  9  1  0
  9 10  2  0
  9 19  1  0
 10 11  1  0
 10 12  1  0
 12 13  1  0
 12 20  1  1
 12 24  1  0
 13 14  2  0
 14 15  1  0
 14 19  1  0
 15 16  2  0
 15 17  1  0
 17 18  1  0
 20 21  1  0
 21 22  2  0
 21 23  1  0
 23 24  1  0
 24 25  2  0
M  END
