
     RDKit          3D

 25 26  0  0  0  0  0  0  0  0999 V2000
    8.5420    0.5590    1.0350 C   0  0  0  0  0  0  0  0  0  0  0  0
    7.7030   -0.5590    0.9190 O   0  0  0  0  0  0  0  0  0  0  0  0
    6.3530   -0.3770    0.4800 C   0  0  0  0  0  0  0  0  0  0  0  0
    6.0810    0.8050    0.2450 O   0  0  0  0  0  0  0  0  0  0  0  0
    5.5400   -1.5460    0.3790 C   0  0  0  0  0  0  0  0  0  0  0  0
    4.3110   -1.6380    0.0120 C   0  0  0  0  0  0  0  0  0  0  0  0
    3.7170   -2.9440   -0.0050 O   0  0  0  0  0  0  0  0  0  0  0  0
    3.4410   -0.5550   -0.3940 C   0  0  0  0  0  0  0  0  0  0  0  0
    2.1650   -0.7960   -0.7570 C   0  0  0  0  0  0  0  0  0  0  0  0
    1.1670    0.1610   -1.1860 C   0  0  1  0  0  0  0  0  0  0  0  0
    0.0060    0.2030   -0.2810 N   0  0  0  0  0  0  0  0  0  0  0  0
   -1.2790    0.0040   -0.8140 C   0  0  0  0  0  0  0  0  0  0  0  0
   -1.4840   -0.2140   -2.0540 O   0  0  0  0  0  0  0  0  0  0  0  0
   -2.4670    0.0270   -0.0110 N   0  0  0  0  0  0  0  0  0  0  0  0
   -3.7970   -0.1780   -0.5480 C   0  0  1  0  0  0  0  0  0  0  0  0
   -4.3860   -1.4740   -0.0140 C   0  0  0  0  0  0  0  0  0  0  0  0
   -4.6840   -1.1900    1.4430 C   0  0  0  0  0  0  0  0  0  0  0  0
   -5.7400   -0.3160    1.4870 O   0  0  0  0  0  0  0  0  0  0  0  0
   -5.5440    0.9030    0.9170 C   0  0  2  0  0  0  0  0  0  0  0  0
   -6.9200    1.4590    0.5500 C   0  0  0  0  0  0  0  0  0  0  0  0
   -4.6550    1.0010   -0.2430 C   0  0  0  0  0  0  0  0  0  0  0  0
    1.6810    1.5050   -1.1990 N   0  0  0  0  0  0  0  0  0  0  0  0
    3.0110    1.7920   -0.8260 C   0  0  0  0  0  0  0  0  0  0  0  0
    3.4730    2.9820   -0.8350 O   0  0  0  0  0  0  0  0  0  0  0  0
    3.8230    0.7640   -0.4450 O   0  0  0  0  0  0  0  0  0  0  0  0
  1  2  1  0
  2  3  1  0
  3  4  2  0
  3  5  1  0
  5  6  2  3
  6  7  1  0
  6  8  1  0
  8  9  2  0
  8 25  1  0
  9 10  1  0
 10 11  1  1
 10 22  1  0
 11 12  1  0
 12 13  2  0
 12 14  1  0
 15 14  1  1
 15 16  1  0
 15 21  1  0
 16 17  1  0
 17 18  1  0
 18 19  1  0
 19 20  1  6
 19 21  1  0
 22 23  1  0
 23 24  2  0
 23 25  1  0
M  END
