
     RDKit          3D

 25 26  0  0  0  0  0  0  0  0999 V2000
   -3.6030   -4.2030    0.6100 C   0  0  0  0  0  0  0  0  0  0  0  0
   -3.5120   -2.7350    0.6330 C   0  0  0  0  0  0  0  0  0  0  0  0
   -4.3630   -2.1050    1.3260 O   0  0  0  0  0  0  0  0  0  0  0  0
   -2.5170   -2.0030   -0.0860 N   0  0  0  0  0  0  0  0  0  0  0  0
   -2.5340   -0.5720    0.0170 C   0  0  1  0  0  0  0  0  0  0  0  0
   -1.2720   -0.0050    0.5270 C   0  0  0  0  0  0  0  0  0  0  0  0
   -0.4220   -0.7810    1.1140 N   0  0  0  0  0  0  0  0  0  0  0  0
    0.7720   -0.3220    1.6130 O   0  0  0  0  0  0  0  0  0  0  0  0
    1.9510   -0.4170    0.8570 C   0  0  0  0  0  0  0  0  0  0  0  0
    1.8650   -0.9260   -0.2620 O   0  0  0  0  0  0  0  0  0  0  0  0
    3.1880    0.0440    1.3420 N   0  0  0  0  0  0  0  0  0  0  0  0
    4.4340    0.0010    0.6760 C   0  0  0  0  0  0  0  0  0  0  0  0
    4.6690   -0.5030   -0.5670 C   0  0  0  0  0  0  0  0  0  0  0  0
    5.9510   -0.4910   -1.1300 C   0  0  0  0  0  0  0  0  0  0  0  0
    7.0210    0.0260   -0.4550 C   0  0  0  0  0  0  0  0  0  0  0  0
    6.8080    0.5410    0.8020 C   0  0  0  0  0  0  0  0  0  0  0  0
    5.5500    0.5240    1.3420 C   0  0  0  0  0  0  0  0  0  0  0  0
   -1.0650    1.3550    0.3450 O   0  0  0  0  0  0  0  0  0  0  0  0
   -1.8100    2.1700   -0.5030 C   0  0  2  0  0  0  0  0  0  0  0  0
   -2.1650    3.4910    0.1720 C   0  0  0  0  0  0  0  0  0  0  0  0
   -2.9190    3.2480    1.3260 O   0  0  0  0  0  0  0  0  0  0  0  0
   -3.0650    1.5520   -1.0260 C   0  0  1  0  0  0  0  0  0  0  0  0
   -3.5040    2.1850   -2.1650 O   0  0  0  0  0  0  0  0  0  0  0  0
   -2.7760    0.0860   -1.3480 C   0  0  2  0  0  0  0  0  0  0  0  0
   -3.8210   -0.5140   -2.0180 O   0  0  0  0  0  0  0  0  0  0  0  0
  1  2  1  0
  2  3  2  0
  2  4  1  0
  5  4  1  6
  5  6  1  0
  5 24  1  0
  6  7  2  3
  6 18  1  0
  7  8  1  0
  8  9  1  0
  9 10  2  0
  9 11  1  0
 11 12  1  0
 12 13  2  0
 12 17  1  0
 13 14  1  0
 14 15  2  0
 15 16  1  0
 16 17  2  0
 18 19  1  0
 19 20  1  1
 19 22  1  0
 20 21  1  0
 22 23  1  6
 22 24  1  0
 24 25  1  1
M  END
