
     RDKit          3D

 25 26  0  0  0  0  0  0  0  0999 V2000
    1.2110    3.6720    0.2950 C   0  0  0  0  0  0  0  0  0  0  0  0
    0.5250    3.6070    1.4100 C   0  0  0  0  0  0  0  0  0  0  0  0
   -0.4450    2.4910    1.6410 C   0  0  0  0  0  0  0  0  0  0  0  0
   -0.2980    1.4510    0.5540 C   0  0  0  0  0  0  0  0  0  0  0  0
   -1.0540    1.6260   -0.5190 C   0  0  0  0  0  0  0  0  0  0  0  0
   -1.9220    2.7840   -0.5130 O   0  0  0  0  0  0  0  0  0  0  0  0
   -1.1680    0.8620   -1.7200 C   0  0  0  0  0  0  0  0  0  0  0  0
   -0.7480    1.4900   -2.8000 O   0  0  0  0  0  0  0  0  0  0  0  0
   -1.6180   -0.3840   -2.0070 O   0  0  0  0  0  0  0  0  0  0  0  0
   -2.8550   -0.9870   -1.8290 C   0  0  0  0  0  0  0  0  0  0  0  0
   -2.8110   -2.4010   -1.3070 C   0  0  0  0  0  0  0  0  0  0  0  0
   -3.6420   -2.4540   -0.2030 O   0  0  0  0  0  0  0  0  0  0  0  0
   -2.9490   -2.4610    0.9830 C   0  0  0  0  0  0  0  0  0  0  0  0
   -2.0730   -1.2330    1.1730 C   0  0  0  0  0  0  0  0  0  0  0  0
   -0.8540   -1.5010    0.5830 O   0  0  0  0  0  0  0  0  0  0  0  0
    0.3880   -0.9390    0.8080 C   0  0  0  0  0  0  0  0  0  0  0  0
    0.6480    0.3520    0.8030 C   0  0  0  0  0  0  0  0  0  0  0  0
    2.0910    0.4930    1.1960 C   0  0  0  0  0  0  0  0  0  0  0  0
    2.6430    1.4280    1.8030 O   0  0  0  0  0  0  0  0  0  0  0  0
    2.7400   -0.7670    0.6900 C   0  0  2  0  0  0  0  0  0  0  0  0
    2.9970   -0.7630   -0.7000 N   0  0  0  0  0  0  0  0  0  0  0  0
    4.2690   -1.0290   -1.2770 C   0  0  0  0  0  0  0  0  0  0  0  0
    4.5070   -1.0200   -2.6760 N   0  0  0  0  0  0  0  0  0  0  0  0
    5.2080   -1.2820   -0.4520 O   0  0  0  0  0  0  0  0  0  0  0  0
    1.6150   -1.6460    1.0780 N   0  0  0  0  0  0  0  0  0  0  0  0
  1  2  2  0
  2  3  1  0
  3  4  1  0
  4  5  2  0
  4 17  1  0
  5  6  1  0
  5  7  1  0
  7  8  2  0
  7  9  1  0
  9 10  1  0
 10 11  1  0
 11 12  1  0
 12 13  1  0
 13 14  1  0
 14 15  1  0
 15 16  1  0
 16 17  2  0
 16 25  1  0
 17 18  1  0
 18 19  2  0
 18 20  1  0
 20 21  1  6
 20 25  1  0
 21 22  1  0
 22 23  1  0
 22 24  2  0
M  END
