
     RDKit          3D

 25 26  0  0  0  0  0  0  0  0999 V2000
    7.2030    1.3090    0.1050 C   0  0  0  0  0  0  0  0  0  0  0  0
    6.4540    0.2630   -0.4730 O   0  0  0  0  0  0  0  0  0  0  0  0
    5.2080    0.7270   -0.9180 C   0  0  0  0  0  0  0  0  0  0  0  0
    4.4330   -0.3870   -1.5690 C   0  0  2  0  0  0  0  0  0  0  0  0
    3.1790    0.0480   -2.0040 N   0  0  0  0  0  0  0  0  0  0  0  0
    2.0760    0.2060   -0.9820 C   0  0  0  0  0  0  0  0  0  0  0  0
    2.3320   -0.0210    0.1700 O   0  0  0  0  0  0  0  0  0  0  0  0
    0.9380    0.5980   -1.6670 N   0  0  0  0  0  0  0  0  0  0  0  0
   -0.2080    0.2960   -0.3840 C   0  0  0  0  0  0  0  0  0  0  0  0
    0.2820   -0.1640    0.5660 O   0  0  0  0  0  0  0  0  0  0  0  0
   -1.5450    0.6910   -0.7930 C   0  0  0  0  0  0  0  0  0  0  0  0
   -2.5550   -0.0450    0.0200 C   0  0  1  0  0  0  0  0  0  0  0  0
   -2.4940    0.1410    1.5190 C   0  0  0  0  0  0  0  0  0  0  0  0
   -3.7490   -0.6970    1.8740 C   0  0  0  0  0  0  0  0  0  0  0  0
   -4.6780   -0.1490    0.8290 C   0  0  0  0  0  0  0  0  0  0  0  0
   -5.9820   -0.1780    0.8200 C   0  0  0  0  0  0  0  0  0  0  0  0
   -6.8380   -0.7360    1.7890 O   0  0  0  0  0  0  0  0  0  0  0  0
   -8.1720   -0.5550    1.4080 C   0  0  0  0  0  0  0  0  0  0  0  0
   -8.2570    0.0890    0.2490 C   0  0  0  0  0  0  0  0  0  0  0  0
   -6.8900    0.3650   -0.1960 C   0  0  0  0  0  0  0  0  0  0  0  0
   -6.5310    0.9630   -1.2660 O   0  0  0  0  0  0  0  0  0  0  0  0
   -3.9050    0.4290   -0.1980 O   0  0  0  0  0  0  0  0  0  0  0  0
    4.3380   -1.5720   -0.6880 C   0  0  0  0  0  0  0  0  0  0  0  0
    5.5580   -2.0320   -0.1010 N   0  0  0  0  0  0  0  0  0  0  0  0
    3.3110   -2.2220   -0.3930 O   0  0  0  0  0  0  0  0  0  0  0  0
  1  2  1  0
  2  3  1  0
  4  3  1  1
  4  5  1  0
  4 23  1  0
  5  6  1  0
  6  7  2  0
  6  8  1  0
  8  9  1  0
  9 10  2  0
  9 11  1  0
 12 11  1  6
 12 13  1  0
 12 22  1  0
 13 14  1  0
 14 15  1  0
 15 16  2  3
 15 22  1  0
 16 17  1  0
 16 20  1  0
 17 18  1  0
 18 19  2  0
 19 20  1  0
 20 21  2  0
 23 24  1  0
 23 25  2  0
M  END
