
     RDKit          3D

 25 26  0  0  0  0  0  0  0  0999 V2000
   -0.8340    3.2800   -1.1210 C   0  0  0  0  0  0  0  0  0  0  0  0
   -1.0100    1.8080   -1.1080 C   0  0  0  0  0  0  0  0  0  0  0  0
   -0.4970    1.1640   -2.0680 O   0  0  0  0  0  0  0  0  0  0  0  0
   -1.7130    1.1090   -0.0890 N   0  0  0  0  0  0  0  0  0  0  0  0
   -1.8790   -0.3370   -0.0870 C   0  0  1  0  0  0  0  0  0  0  0  0
   -1.1800   -0.9460    1.0510 C   0  0  0  0  0  0  0  0  0  0  0  0
    0.0680   -1.2860    0.9710 N   0  0  0  0  0  0  0  0  0  0  0  0
    0.7480   -1.0770   -0.1820 O   0  0  0  0  0  0  0  0  0  0  0  0
    2.0520   -0.6000   -0.1200 C   0  0  0  0  0  0  0  0  0  0  0  0
    2.5520   -0.3810    0.9900 O   0  0  0  0  0  0  0  0  0  0  0  0
    2.7760   -0.3760   -1.3090 N   0  0  0  0  0  0  0  0  0  0  0  0
    4.1050    0.1020   -1.3890 C   0  0  0  0  0  0  0  0  0  0  0  0
    4.6150    0.3870   -2.6580 C   0  0  0  0  0  0  0  0  0  0  0  0
    5.8900    0.8500   -2.8650 C   0  0  0  0  0  0  0  0  0  0  0  0
    6.7180    1.0470   -1.7710 C   0  0  0  0  0  0  0  0  0  0  0  0
    6.2690    0.7840   -0.4990 C   0  0  0  0  0  0  0  0  0  0  0  0
    4.9580    0.3130   -0.3430 C   0  0  0  0  0  0  0  0  0  0  0  0
   -1.8320   -1.1800    2.2510 O   0  0  0  0  0  0  0  0  0  0  0  0
   -3.2290   -0.9710    2.2950 C   0  0  2  0  0  0  0  0  0  0  0  0
   -3.7800   -1.8480    3.3990 C   0  0  0  0  0  0  0  0  0  0  0  0
   -3.2010   -1.5030    4.6290 O   0  0  0  0  0  0  0  0  0  0  0  0
   -3.9070   -1.3530    1.0090 C   0  0  1  0  0  0  0  0  0  0  0  0
   -5.2480   -0.9850    1.1050 O   0  0  0  0  0  0  0  0  0  0  0  0
   -3.3260   -0.7340   -0.2070 C   0  0  2  0  0  0  0  0  0  0  0  0
   -3.5030   -1.6500   -1.2700 O   0  0  0  0  0  0  0  0  0  0  0  0
  1  2  1  0
  2  3  2  0
  2  4  1  0
  5  4  1  1
  5  6  1  0
  5 24  1  0
  6  7  2  3
  6 18  1  0
  7  8  1  0
  8  9  1  0
  9 10  2  0
  9 11  1  0
 11 12  1  0
 12 13  2  0
 12 17  1  0
 13 14  1  0
 14 15  2  0
 15 16  1  0
 16 17  2  0
 18 19  1  0
 19 20  1  1
 19 22  1  0
 20 21  1  0
 22 23  1  1
 22 24  1  0
 24 25  1  6
M  END
