
     RDKit          3D

 25 26  0  0  0  0  0  0  0  0999 V2000
   -3.2640   -1.9120    3.0000 C   0  0  0  0  0  0  0  0  0  0  0  0
   -2.8560   -1.1510    1.8590 O   0  0  0  0  0  0  0  0  0  0  0  0
   -1.5480   -1.1380    1.4020 C   0  0  0  0  0  0  0  0  0  0  0  0
   -0.7530   -1.8660    2.0950 O   0  0  0  0  0  0  0  0  0  0  0  0
   -1.0850   -0.3700    0.2350 C   0  0  1  0  0  0  0  0  0  0  0  0
    0.3390   -0.5400   -0.0020 N   0  0  0  0  0  0  0  0  0  0  0  0
    1.2570    0.5650    0.0790 C   0  0  0  0  0  0  0  0  0  0  0  0
    0.8350    1.7160    0.3610 O   0  0  0  0  0  0  0  0  0  0  0  0
    2.6520    0.4070   -0.1510 N   0  0  0  0  0  0  0  0  0  0  0  0
    3.5480    1.4900   -0.0420 C   0  0  0  0  0  0  0  0  0  0  0  0
    4.1450    2.0260   -1.1120 C   0  0  0  0  0  0  0  0  0  0  0  0
    5.0850    3.1580   -1.0230 C   0  0  0  0  0  0  0  0  0  0  0  0
    5.3190    3.6310    0.2710 O   0  0  0  0  0  0  0  0  0  0  0  0
    4.7240    3.0890    1.3630 C   0  0  0  0  0  0  0  0  0  0  0  0
    3.8770    2.0700    1.2420 C   0  0  0  0  0  0  0  0  0  0  0  0
    3.3050    1.5010    2.4500 C   0  0  0  0  0  0  0  0  0  0  0  0
    2.5200    0.5410    2.4980 O   0  0  0  0  0  0  0  0  0  0  0  0
    3.6640    2.0810    3.6780 O   0  0  0  0  0  0  0  0  0  0  0  0
   -1.8770   -0.6360   -1.0290 C   0  0  2  0  0  0  0  0  0  0  0  0
   -3.3360   -0.2960   -0.8960 C   0  0  0  0  0  0  0  0  0  0  0  0
   -4.2180   -1.5200   -1.0460 C   0  0  0  0  0  0  0  0  0  0  0  0
   -3.9660   -2.0130   -2.4770 C   0  0  0  0  0  0  0  0  0  0  0  0
   -2.5530   -2.4560   -2.5220 C   0  0  0  0  0  0  0  0  0  0  0  0
   -2.1860   -3.2550   -3.4180 O   0  0  0  0  0  0  0  0  0  0  0  0
   -1.6600   -1.9570   -1.5420 N   0  0  0  0  0  0  0  0  0  0  0  0
  1  2  1  0
  2  3  1  0
  3  4  2  0
  3  5  1  0
  5  6  1  6
  5 19  1  0
  6  7  1  0
  7  8  2  0
  7  9  1  0
  9 10  1  0
 10 11  2  0
 10 15  1  0
 11 12  1  0
 12 13  1  0
 13 14  1  0
 14 15  2  0
 15 16  1  0
 16 17  2  0
 16 18  1  0
 19 20  1  1
 19 25  1  0
 20 21  1  0
 21 22  1  0
 22 23  1  0
 23 24  2  0
 23 25  1  0
M  END
