
     RDKit          3D

 25 26  0  0  0  0  0  0  0  0999 V2000
   -6.5640   -0.7410   -0.5740 C   0  0  0  0  0  0  0  0  0  0  0  0
   -6.0560    0.4350    0.2370 C   0  0  1  0  0  0  0  0  0  0  0  0
   -7.1070    1.1030    0.8190 O   0  0  0  0  0  0  0  0  0  0  0  0
   -5.1090   -0.0710    1.2840 C   0  0  0  0  0  0  0  0  0  0  0  0
   -4.0420   -0.9160    0.6300 C   0  0  0  0  0  0  0  0  0  0  0  0
   -3.2110   -0.0400   -0.2690 C   0  0  2  0  0  0  0  0  0  0  0  0
   -1.8320    0.1630    0.3070 C   0  0  0  0  0  0  0  0  0  0  0  0
   -1.3820    1.3230    0.4260 O   0  0  0  0  0  0  0  0  0  0  0  0
   -1.0740   -0.8950    0.6940 O   0  0  0  0  0  0  0  0  0  0  0  0
    0.2020   -0.8760    1.2190 C   0  0  0  0  0  0  0  0  0  0  0  0
    1.2250   -0.3170    0.3920 C   0  0  0  0  0  0  0  0  0  0  0  0
    1.2470    0.2350   -0.6070 O   0  0  0  0  0  0  0  0  0  0  0  0
    2.8010   -0.5590    1.0990 N   0  0  0  0  0  0  0  0  0  0  0  0
    3.5320   -0.0460    0.0970 C   0  0  0  0  0  0  0  0  0  0  0  0
    3.3310    0.5360   -0.9240 O   0  0  0  0  0  0  0  0  0  0  0  0
    4.9930   -0.3090    0.3690 N   0  0  0  0  0  0  0  0  0  0  0  0
    5.9660    0.0170   -0.5390 C   0  0  0  0  0  0  0  0  0  0  0  0
    6.8490    0.9620   -0.2900 C   0  0  0  0  0  0  0  0  0  0  0  0
    7.9080    1.3360   -1.2410 C   0  0  0  0  0  0  0  0  0  0  0  0
    7.9970    0.4620   -2.3510 O   0  0  0  0  0  0  0  0  0  0  0  0
    7.1000   -0.5290   -2.6600 C   0  0  0  0  0  0  0  0  0  0  0  0
    6.1320   -0.7460   -1.8040 C   0  0  0  0  0  0  0  0  0  0  0  0
   -3.8000    1.2440   -0.5250 N   0  0  0  0  0  0  0  0  0  0  0  0
   -5.2480    1.3470   -0.6410 C   0  0  0  0  0  0  0  0  0  0  0  0
   -5.7070    2.1650   -1.4390 O   0  0  0  0  0  0  0  0  0  0  0  0
  2  1  1  6
  2  3  1  0
  2  4  1  0
  2 24  1  0
  4  5  1  0
  5  6  1  0
  6  7  1  1
  6 23  1  0
  7  8  2  0
  7  9  1  0
  9 10  1  0
 10 11  1  0
 11 12  2  0
 11 13  1  0
 13 14  1  0
 14 15  2  0
 14 16  1  0
 16 17  1  0
 17 18  2  0
 17 22  1  0
 18 19  1  0
 19 20  1  0
 20 21  1  0
 21 22  2  0
 23 24  1  0
 24 25  2  0
M  END
