
     RDKit          3D

 25 26  0  0  0  0  0  0  0  0999 V2000
    6.5120    1.2040    0.2670 C   0  0  0  0  0  0  0  0  0  0  0  0
    5.3810    0.2310    0.0880 C   0  0  0  0  0  0  0  0  0  0  0  0
    4.2530    0.8300   -0.7390 C   0  0  2  0  0  0  0  0  0  0  0  0
    3.7620    1.9510   -0.1130 O   0  0  0  0  0  0  0  0  0  0  0  0
    3.2220   -0.2010   -0.9790 C   0  0  0  0  0  0  0  0  0  0  0  0
    3.5910   -1.2650   -1.5520 O   0  0  0  0  0  0  0  0  0  0  0  0
    1.8680   -0.0550   -0.6050 N   0  0  0  0  0  0  0  0  0  0  0  0
    0.9510   -1.1550   -0.9030 C   0  0  0  0  0  0  0  0  0  0  0  0
   -0.4290   -0.8220   -0.4380 C   0  0  0  0  0  0  0  0  0  0  0  0
   -1.0690   -1.5500    0.4540 C   0  0  0  0  0  0  0  0  0  0  0  0
   -0.3400   -2.7380    0.9840 C   0  0  0  0  0  0  0  0  0  0  0  0
   -2.4130   -1.1940    0.8840 C   0  0  2  0  0  0  0  0  0  0  0  0
   -2.9480    0.0220    0.2320 C   0  0  0  0  0  0  0  0  0  0  0  0
   -2.2720    0.7210   -0.6560 C   0  0  0  0  0  0  0  0  0  0  0  0
   -2.8670    1.9280   -1.2700 C   0  0  0  0  0  0  0  0  0  0  0  0
   -2.1880    2.5650   -2.1130 O   0  0  0  0  0  0  0  0  0  0  0  0
   -4.1210    2.3740   -0.9580 O   0  0  0  0  0  0  0  0  0  0  0  0
   -4.7080    3.5340   -1.5390 C   0  0  0  0  0  0  0  0  0  0  0  0
   -1.0090    0.3100   -1.0020 O   0  0  0  0  0  0  0  0  0  0  0  0
   -2.5210   -1.0080    2.3190 N   0  0  0  0  0  0  0  0  0  0  0  0
   -3.8780   -1.1950    2.6640 C   0  0  0  0  0  0  0  0  0  0  0  0
   -4.5020   -0.7310    3.6800 O   0  0  0  0  0  0  0  0  0  0  0  0
   -4.4400   -2.0280    1.6320 N   0  0  0  0  0  0  0  0  0  0  0  0
   -3.3910   -2.3100    0.7000 C   0  0  0  0  0  0  0  0  0  0  0  0
   -3.3770   -3.2870   -0.0560 O   0  0  0  0  0  0  0  0  0  0  0  0
  1  2  1  0
  2  3  1  0
  3  4  1  1
  3  5  1  0
  5  6  2  0
  5  7  1  0
  7  8  1  0
  8  9  1  0
  9 10  2  0
  9 19  1  0
 10 11  1  0
 10 12  1  0
 12 13  1  0
 12 20  1  1
 12 24  1  0
 13 14  2  0
 14 15  1  0
 14 19  1  0
 15 16  2  0
 15 17  1  0
 17 18  1  0
 20 21  1  0
 21 22  2  0
 21 23  1  0
 23 24  1  0
 24 25  2  0
M  END
