
     RDKit          3D

 25 26  0  0  0  0  0  0  0  0999 V2000
   -2.9440    2.4500   -0.6450 C   0  0  0  0  0  0  0  0  0  0  0  0
   -3.3750    1.1580   -0.9290 O   0  0  0  0  0  0  0  0  0  0  0  0
   -3.2970    0.3150    0.1680 C   0  0  2  0  0  0  0  0  0  0  0  0
   -1.9120    0.1710    0.7060 C   0  0  0  0  0  0  0  0  0  0  0  0
   -1.0030   -0.3750   -0.2980 N   0  0  0  0  0  0  0  0  0  0  0  0
    0.3750   -0.5900    0.0230 C   0  0  0  0  0  0  0  0  0  0  0  0
    0.7890   -0.3070    1.1630 O   0  0  0  0  0  0  0  0  0  0  0  0
    1.2640   -1.1140   -0.9290 N   0  0  0  0  0  0  0  0  0  0  0  0
    2.6540   -1.3520   -0.7070 C   0  0  0  0  0  0  0  0  0  0  0  0
    3.1550   -2.5720   -0.7580 C   0  0  0  0  0  0  0  0  0  0  0  0
    4.5630   -2.9380   -0.5480 C   0  0  2  0  0  0  0  0  0  0  0  0
    4.5750   -4.1080    0.2460 O   0  0  0  0  0  0  0  0  0  0  0  0
    5.3430   -1.8470    0.1520 C   0  0  0  0  0  0  0  0  0  0  0  0
    4.9030   -0.5630   -0.2220 O   0  0  0  0  0  0  0  0  0  0  0  0
    3.5490   -0.2460   -0.4260 C   0  0  0  0  0  0  0  0  0  0  0  0
    3.1670    1.0190   -0.3540 C   0  0  0  0  0  0  0  0  0  0  0  0
    4.1140    2.0790   -0.0670 C   0  0  0  0  0  0  0  0  0  0  0  0
    5.3190    1.7690    0.1140 O   0  0  0  0  0  0  0  0  0  0  0  0
    3.7660    3.4030    0.0170 O   0  0  0  0  0  0  0  0  0  0  0  0
    4.6960    4.3780    0.2920 N   0  0  0  0  0  0  0  0  0  0  0  0
   -3.7930   -1.0480   -0.2680 C   0  0  0  0  0  0  0  0  0  0  0  0
   -5.2240   -0.8500   -0.7620 C   0  0  0  0  0  0  0  0  0  0  0  0
   -5.6990    0.4210   -0.4800 O   0  0  0  0  0  0  0  0  0  0  0  0
   -5.6290    0.7390    0.8710 C   0  0  0  0  0  0  0  0  0  0  0  0
   -4.1980    0.7680    1.2990 C   0  0  0  0  0  0  0  0  0  0  0  0
  1  2  1  0
  2  3  1  0
  3  4  1  1
  3 21  1  0
  3 25  1  0
  4  5  1  0
  5  6  1  0
  6  7  2  0
  6  8  1  0
  8  9  1  0
  9 10  2  0
  9 15  1  0
 10 11  1  0
 11 12  1  1
 11 13  1  0
 13 14  1  0
 14 15  1  0
 15 16  2  3
 16 17  1  0
 17 18  2  0
 17 19  1  0
 19 20  1  0
 21 22  1  0
 22 23  1  0
 23 24  1  0
 24 25  1  0
M  END
