
     RDKit          3D

 25 26  0  0  0  0  0  0  0  0999 V2000
    7.9510   -0.1390   -0.1490 C   0  0  0  0  0  0  0  0  0  0  0  0
    7.4150    0.2360    1.1940 C   0  0  0  0  0  0  0  0  0  0  0  0
    6.0790    0.7010    1.1530 O   0  0  0  0  0  0  0  0  0  0  0  0
    5.0340   -0.0810    0.6840 C   0  0  0  0  0  0  0  0  0  0  0  0
    5.3170   -1.2400    0.2860 O   0  0  0  0  0  0  0  0  0  0  0  0
    3.6480    0.4650    0.6660 C   0  0  1  0  0  0  0  0  0  0  0  0
    3.6300    1.6890   -0.2210 C   0  0  0  0  0  0  0  0  0  0  0  0
    2.4190    1.3960   -1.1020 C   0  0  0  0  0  0  0  0  0  0  0  0
    2.4770   -0.1090   -1.1440 C   0  0  2  0  0  0  0  0  0  0  0  0
    1.2170   -0.7330   -1.6480 C   0  0  0  0  0  0  0  0  0  0  0  0
    0.0480   -0.3100   -0.8850 N   0  0  0  0  0  0  0  0  0  0  0  0
   -1.2210   -0.8280   -1.2560 C   0  0  0  0  0  0  0  0  0  0  0  0
   -1.2850   -1.6290   -2.2270 O   0  0  0  0  0  0  0  0  0  0  0  0
   -2.4210   -0.4710   -0.5680 N   0  0  0  0  0  0  0  0  0  0  0  0
   -3.6730   -1.0750   -1.0480 C   0  0  0  0  0  0  0  0  0  0  0  0
   -4.8260   -0.6440   -0.2790 C   0  0  0  0  0  0  0  0  0  0  0  0
   -5.8300   -0.0110   -0.8470 C   0  0  0  0  0  0  0  0  0  0  0  0
   -7.0280    0.4450   -0.0900 C   0  0  2  0  0  0  0  0  0  0  0  0
   -7.1440    1.8840   -0.2760 N   0  0  0  0  0  0  0  0  0  0  0  0
   -7.0000    0.1480    1.2680 O   0  0  0  0  0  0  0  0  0  0  0  0
   -5.9630   -0.5090    1.8710 C   0  0  0  0  0  0  0  0  0  0  0  0
   -6.0250   -0.7630    3.2400 O   0  0  0  0  0  0  0  0  0  0  0  0
   -4.9010   -0.9030    1.1480 C   0  0  0  0  0  0  0  0  0  0  0  0
   -3.9020   -1.5600    1.8420 O   0  0  0  0  0  0  0  0  0  0  0  0
    2.7340   -0.4290    0.1750 O   0  0  0  0  0  0  0  0  0  0  0  0
  1  2  1  0
  2  3  1  0
  3  4  1  0
  4  5  2  0
  6  4  1  6
  6  7  1  0
  6 25  1  0
  7  8  1  0
  8  9  1  0
  9 10  1  1
  9 25  1  0
 10 11  1  0
 11 12  1  0
 12 13  2  0
 12 14  1  0
 14 15  1  0
 15 16  1  0
 16 17  2  0
 16 23  1  0
 17 18  1  0
 18 19  1  1
 18 20  1  0
 20 21  1  0
 21 22  1  0
 21 23  2  0
 23 24  1  0
M  END
