
     RDKit          3D

 25 26  0  0  0  0  0  0  0  0999 V2000
   -2.4410    1.5190   -2.4900 C   0  0  0  0  0  0  0  0  0  0  0  0
   -2.4840    2.3020   -1.1930 C   0  0  1  0  0  0  0  0  0  0  0  0
   -1.8480    1.6100   -0.1620 O   0  0  0  0  0  0  0  0  0  0  0  0
   -0.8840    2.3490    0.4850 C   0  0  0  0  0  0  0  0  0  0  0  0
   -0.1030    1.9970    1.7240 C   0  0  1  0  0  0  0  0  0  0  0  0
   -1.0540    1.8700    2.8740 C   0  0  0  0  0  0  0  0  0  0  0  0
   -1.9240    0.8160    2.7470 O   0  0  0  0  0  0  0  0  0  0  0  0
    0.7070    0.8330    1.5640 N   0  0  0  0  0  0  0  0  0  0  0  0
    0.2990   -0.4290    1.1030 C   0  0  0  0  0  0  0  0  0  0  0  0
   -0.8940   -0.6130    0.7920 O   0  0  0  0  0  0  0  0  0  0  0  0
    1.2170   -1.5780    0.9610 C   0  0  0  0  0  0  0  0  0  0  0  0
    2.4000   -1.3390    1.2360 O   0  0  0  0  0  0  0  0  0  0  0  0
    0.8190   -2.8420    0.5530 N   0  0  0  0  0  0  0  0  0  0  0  0
    1.6290   -3.9670    0.3860 C   0  0  0  0  0  0  0  0  0  0  0  0
    2.9340   -3.9770    0.5460 C   0  0  0  0  0  0  0  0  0  0  0  0
    3.6090   -5.2500    0.3260 C   0  0  0  0  0  0  0  0  0  0  0  0
    4.7940   -5.2320   -0.0970 O   0  0  0  0  0  0  0  0  0  0  0  0
    2.8670   -6.4910    0.6120 C   0  0  0  0  0  0  0  0  0  0  0  0
    1.5050   -6.3360    0.7010 O   0  0  0  0  0  0  0  0  0  0  0  0
    1.0000   -5.2600    0.0130 C   0  0  0  0  0  0  0  0  0  0  0  0
   -0.7370    3.5010   -0.1960 C   0  0  0  0  0  0  0  0  0  0  0  0
   -1.6290    3.5130   -1.3170 C   0  0  0  0  0  0  0  0  0  0  0  0
   -1.7340    4.3990   -2.3150 C   0  0  0  0  0  0  0  0  0  0  0  0
   -0.8770    5.5270   -2.3570 N   0  0  0  0  0  0  0  0  0  0  0  0
   -1.2200    6.7240   -1.8300 O   0  0  0  0  0  0  0  0  0  0  0  0
  2  1  1  6
  2  3  1  0
  2 22  1  0
  3  4  1  0
  4  5  1  0
  4 21  2  0
  5  6  1  1
  5  8  1  0
  6  7  1  0
  8  9  1  0
  9 10  2  0
  9 11  1  0
 11 12  2  0
 11 13  1  0
 13 14  1  0
 14 15  2  0
 14 20  1  0
 15 16  1  0
 16 17  2  0
 16 18  1  0
 18 19  1  0
 19 20  1  0
 21 22  1  0
 22 23  2  3
 23 24  1  0
 24 25  1  0
M  END
