
     RDKit          3D

 25 26  0  0  0  0  0  0  0  0999 V2000
   -0.2080    5.2440    0.1720 C   0  0  0  0  0  0  0  0  0  0  0  0
   -0.2420    4.2610   -0.7070 C   0  0  0  0  0  0  0  0  0  0  0  0
    0.5320    3.0240   -0.6240 C   0  0  0  0  0  0  0  0  0  0  0  0
   -0.2580    1.7620   -0.4360 C   0  0  0  0  0  0  0  0  0  0  0  0
   -1.5540    1.9300   -0.2410 C   0  0  0  0  0  0  0  0  0  0  0  0
   -2.1130    3.2390   -0.2190 O   0  0  0  0  0  0  0  0  0  0  0  0
   -2.5770    0.9130   -0.0270 C   0  0  0  0  0  0  0  0  0  0  0  0
   -3.8090    1.2740   -0.2160 O   0  0  0  0  0  0  0  0  0  0  0  0
   -2.4330   -0.3600    0.3390 O   0  0  0  0  0  0  0  0  0  0  0  0
   -1.9030   -1.0980    1.3550 C   0  0  0  0  0  0  0  0  0  0  0  0
   -1.6750   -2.4960    0.7480 C   0  0  0  0  0  0  0  0  0  0  0  0
   -1.3030   -2.3310   -0.5570 O   0  0  0  0  0  0  0  0  0  0  0  0
   -2.3150   -2.1710   -1.4800 C   0  0  0  0  0  0  0  0  0  0  0  0
   -1.7940   -1.1080   -2.4620 C   0  0  0  0  0  0  0  0  0  0  0  0
   -0.5100   -0.7190   -2.2310 O   0  0  0  0  0  0  0  0  0  0  0  0
    0.4050   -0.5410   -1.2600 C   0  0  0  0  0  0  0  0  0  0  0  0
    0.5300    0.5400   -0.4630 C   0  0  0  0  0  0  0  0  0  0  0  0
    1.7060    0.2480    0.4290 C   0  0  0  0  0  0  0  0  0  0  0  0
    2.4810    1.0490    0.9940 O   0  0  0  0  0  0  0  0  0  0  0  0
    1.7800   -1.2130    0.5160 C   0  0  2  0  0  0  0  0  0  0  0  0
    3.1840   -1.5650    0.7860 N   0  0  0  0  0  0  0  0  0  0  0  0
    3.5780   -2.4100    1.8310 C   0  0  0  0  0  0  0  0  0  0  0  0
    4.9570   -2.7150    2.0450 N   0  0  0  0  0  0  0  0  0  0  0  0
    2.6950   -2.8970    2.5830 O   0  0  0  0  0  0  0  0  0  0  0  0
    1.4560   -1.4870   -0.8780 N   0  0  0  0  0  0  0  0  0  0  0  0
  1  2  2  0
  2  3  1  0
  3  4  1  0
  4  5  2  0
  4 17  1  0
  5  6  1  0
  5  7  1  0
  7  8  2  0
  7  9  1  0
  9 10  1  0
 10 11  1  0
 11 12  1  0
 12 13  1  0
 13 14  1  0
 14 15  1  0
 15 16  1  0
 16 17  2  0
 16 25  1  0
 17 18  1  0
 18 19  2  0
 18 20  1  0
 20 21  1  6
 20 25  1  0
 21 22  1  0
 22 23  1  0
 22 24  2  0
M  END
