
     RDKit          3D

 14 15  0  0  0  0  0  0  0  0999 V2000
    4.4620    0.6020   -0.4790 C   0  0  0  0  0  0  0  0  0  0  0  0
    3.1900    0.9340   -0.3250 C   0  0  0  0  0  0  0  0  0  0  0  0
    2.1620   -0.0620   -0.3520 N   0  0  0  0  0  0  0  0  0  0  0  0
    2.3320   -1.3870   -0.5270 C   0  0  0  0  0  0  0  0  0  0  0  0
    1.0980   -1.9930   -0.4890 C   0  0  0  0  0  0  0  0  0  0  0  0
    0.1520   -1.0040   -0.2850 C   0  0  0  0  0  0  0  0  0  0  0  0
   -1.2220   -1.0490   -0.1660 C   0  0  0  0  0  0  0  0  0  0  0  0
   -1.9170   -2.2850   -0.2530 N   0  0  0  0  0  0  0  0  0  0  0  0
   -1.8780    0.1550    0.0380 C   0  0  0  0  0  0  0  0  0  0  0  0
   -3.2690    0.0760    0.1540 O   0  0  0  0  0  0  0  0  0  0  0  0
   -3.9740    1.2770    0.3620 C   0  0  0  0  0  0  0  0  0  0  0  0
   -1.1950    1.3500    0.1210 C   0  0  0  0  0  0  0  0  0  0  0  0
    0.1790    1.3900    0.0020 C   0  0  0  0  0  0  0  0  0  0  0  0
    0.8500    0.1880   -0.2040 C   0  0  0  0  0  0  0  0  0  0  0  0
  1  2  2  0
  2  3  1  0
  3  4  1  0
  3 14  1  0
  4  5  2  0
  5  6  1  0
  6  7  2  0
  6 14  1  0
  7  8  1  0
  7  9  1  0
  9 10  1  0
  9 12  2  0
 10 11  1  0
 12 13  1  0
 13 14  2  0
M  END
