
     RDKit          3D

 14 15  0  0  0  0  0  0  0  0999 V2000
    4.4310    1.2020    1.2440 C   0  0  0  0  0  0  0  0  0  0  0  0
    3.3790    0.5490    0.3890 C   0  0  0  0  0  0  0  0  0  0  0  0
    3.6300   -0.1720   -0.7590 C   0  0  0  0  0  0  0  0  0  0  0  0
    2.4310   -0.6190   -1.2750 C   0  0  0  0  0  0  0  0  0  0  0  0
    1.4620   -0.1510   -0.4110 C   0  0  0  0  0  0  0  0  0  0  0  0
    0.0310   -0.3880   -0.5700 C   0  0  0  0  0  0  0  0  0  0  0  0
   -0.4160   -1.0570   -1.5370 O   0  0  0  0  0  0  0  0  0  0  0  0
   -0.9160    0.1210    0.3530 N   0  0  0  0  0  0  0  0  0  0  0  0
   -2.3200   -0.1410    0.1530 C   0  0  0  0  0  0  0  0  0  0  0  0
   -3.2700    0.7640   -0.0140 C   0  0  0  0  0  0  0  0  0  0  0  0
   -4.5830    0.1020   -0.1880 C   0  0  0  0  0  0  0  0  0  0  0  0
   -4.2200   -1.3350   -0.0920 C   0  0  0  0  0  0  0  0  0  0  0  0
   -2.9210   -1.4640    0.1040 C   0  0  0  0  0  0  0  0  0  0  0  0
    2.0580    0.5420    0.5710 N   0  0  0  0  0  0  0  0  0  0  0  0
  1  2  1  0
  2  3  2  0
  2 14  1  0
  3  4  1  0
  4  5  2  0
  5  6  1  0
  5 14  1  0
  6  7  2  0
  6  8  1  0
  8  9  1  0
  9 10  2  0
  9 13  1  0
 10 11  1  0
 11 12  1  0
 12 13  2  0
M  END
