
     RDKit          3D

 14 14  0  0  0  0  0  0  0  0999 V2000
   -4.2200    1.4490    0.0560 C   0  0  0  0  0  0  0  0  0  0  0  0
   -3.2610    0.5150   -0.0770 C   0  0  0  0  0  0  0  0  0  0  0  0
   -3.7260   -0.8690   -0.3780 C   0  0  0  0  0  0  0  0  0  0  0  0
   -2.6140   -1.7900   -0.5010 C   0  0  0  0  0  0  0  0  0  0  0  0
   -1.3240   -1.5060   -0.3740 C   0  0  0  0  0  0  0  0  0  0  0  0
   -0.9230   -0.1480   -0.0810 C   0  0  0  0  0  0  0  0  0  0  0  0
    0.4280    0.2350    0.0700 N   0  0  0  0  0  0  0  0  0  0  0  0
    1.5490   -0.5920   -0.0340 C   0  0  0  0  0  0  0  0  0  0  0  0
    1.4620   -1.7910   -0.2780 O   0  0  0  0  0  0  0  0  0  0  0  0
    2.8850   -0.0770    0.1410 N   0  0  0  0  0  0  0  0  0  0  0  0
    4.0270   -0.9670    0.0260 C   0  0  0  0  0  0  0  0  0  0  0  0
    5.3190   -0.2410    0.2420 C   0  0  0  0  0  0  0  0  0  0  0  0
   -1.8600    0.7940    0.0560 C   0  0  0  0  0  0  0  0  0  0  0  0
   -1.3870    2.1920    0.3620 C   0  0  0  0  0  0  0  0  0  0  0  0
  1  2  2  0
  2  3  1  0
  2 13  1  0
  3  4  1  0
  4  5  2  0
  5  6  1  0
  6  7  1  0
  6 13  2  0
  7  8  1  0
  8  9  2  0
  8 10  1  0
 10 11  1  0
 11 12  1  0
 13 14  1  0
M  END
