
     RDKit          3D

 14 15  0  0  0  0  0  0  0  0999 V2000
    4.4750    0.5250   -1.2050 C   0  0  0  0  0  0  0  0  0  0  0  0
    3.0130    0.4100   -1.1830 C   0  0  0  0  0  0  0  0  0  0  0  0
    2.3090    0.1750   -0.0920 C   0  0  0  0  0  0  0  0  0  0  0  0
    0.8600    0.0670   -0.0990 C   0  0  0  0  0  0  0  0  0  0  0  0
    0.1530    0.1960   -1.2000 O   0  0  0  0  0  0  0  0  0  0  0  0
   -1.1510    0.1040   -1.2410 C   0  0  0  0  0  0  0  0  0  0  0  0
   -1.9450   -0.1380   -0.1480 C   0  0  0  0  0  0  0  0  0  0  0  0
   -3.4190   -0.2400   -0.2040 C   0  0  0  0  0  0  0  0  0  0  0  0
   -3.9180   -0.0550   -1.5390 N   0  0  0  0  0  0  0  0  0  0  0  0
   -1.3170   -0.2930    1.0680 C   0  0  0  0  0  0  0  0  0  0  0  0
   -1.6980   -0.5330    2.3380 N   0  0  0  0  0  0  0  0  0  0  0  0
   -0.6110   -0.5840    3.1390 C   0  0  0  0  0  0  0  0  0  0  0  0
    0.5210   -0.3720    2.3770 C   0  0  0  0  0  0  0  0  0  0  0  0
    0.1500   -0.1800    1.0580 C   0  0  0  0  0  0  0  0  0  0  0  0
  1  2  1  0
  2  3  2  3
  3  4  1  0
  4  5  1  0
  4 14  2  0
  5  6  1  0
  6  7  2  0
  7  8  1  0
  7 10  1  0
  8  9  1  0
 10 11  2  0
 10 14  1  0
 11 12  1  0
 12 13  2  0
 13 14  1  0
M  END
