
     RDKit          3D

 14 15  0  0  0  0  0  0  0  0999 V2000
   -2.2380   -1.7100   -1.9170 O   0  0  0  0  0  0  0  0  0  0  0  0
   -2.3860   -0.8960   -0.9420 C   0  0  0  0  0  0  0  0  0  0  0  0
   -3.6500   -0.6090   -0.6150 N   0  0  0  0  0  0  0  0  0  0  0  0
   -3.8550    0.2440    0.4060 C   0  0  0  0  0  0  0  0  0  0  0  0
   -2.7770    0.7880    1.0730 C   0  0  0  0  0  0  0  0  0  0  0  0
   -1.4760    0.4880    0.7310 C   0  0  0  0  0  0  0  0  0  0  0  0
   -1.2600   -0.3840   -0.3140 C   0  0  0  0  0  0  0  0  0  0  0  0
    0.0170   -0.7990   -0.7390 N   0  0  0  0  0  0  0  0  0  0  0  0
    1.2610   -0.2710   -0.3740 C   0  0  0  0  0  0  0  0  0  0  0  0
    1.5140    1.0520   -0.1170 C   0  0  0  0  0  0  0  0  0  0  0  0
    2.7850    1.4850    0.2750 C   0  0  0  0  0  0  0  0  0  0  0  0
    3.8260    0.6050    0.4160 C   0  0  0  0  0  0  0  0  0  0  0  0
    3.5930   -0.7290    0.1600 C   0  0  0  0  0  0  0  0  0  0  0  0
    2.3420   -1.1520   -0.2240 C   0  0  0  0  0  0  0  0  0  0  0  0
  1  2  2  0
  2  3  1  0
  2  7  1  0
  3  4  1  0
  4  5  2  0
  5  6  1  0
  6  7  2  0
  7  8  1  0
  8  9  1  0
  9 10  2  0
  9 14  1  0
 10 11  1  0
 11 12  2  0
 12 13  1  0
 13 14  2  0
M  END
