
     RDKit          3D

 14 15  0  0  0  0  0  0  0  0999 V2000
   -0.3790   -2.6480    0.1430 C   0  0  0  0  0  0  0  0  0  0  0  0
   -1.1820   -1.3850    0.0880 C   0  0  0  0  0  0  0  0  0  0  0  0
   -2.5390   -1.4970    0.1600 N   0  0  0  0  0  0  0  0  0  0  0  0
   -3.3100   -0.4460    0.1840 N   0  0  0  0  0  0  0  0  0  0  0  0
   -2.7770    0.7760    0.1370 C   0  0  0  0  0  0  0  0  0  0  0  0
   -3.5570    1.7870    0.1640 O   0  0  0  0  0  0  0  0  0  0  0  0
   -1.4140    0.9350    0.0620 C   0  0  0  0  0  0  0  0  0  0  0  0
   -0.9010    2.3000   -0.0400 C   0  0  0  0  0  0  0  0  0  0  0  0
   -0.5730   -0.1530    0.0350 C   0  0  0  0  0  0  0  0  0  0  0  0
    0.9000   -0.0100   -0.1630 C   0  0  0  0  0  0  0  0  0  0  0  0
    1.7400   -0.8290   -0.7360 C   0  0  0  0  0  0  0  0  0  0  0  0
    3.1150   -0.2900   -0.7000 C   0  0  0  0  0  0  0  0  0  0  0  0
    2.9780    0.9760    0.0140 C   0  0  0  0  0  0  0  0  0  0  0  0
    1.7070    1.1270    0.3140 C   0  0  0  0  0  0  0  0  0  0  0  0
  1  2  1  0
  2  3  2  0
  2  9  1  0
  3  4  1  0
  4  5  1  0
  5  6  2  0
  5  7  1  0
  7  8  1  0
  7  9  2  0
  9 10  1  0
 10 11  2  0
 10 14  1  0
 11 12  1  0
 12 13  1  0
 13 14  2  0
M  END
