
     RDKit          3D

 14 14  0  0  0  0  0  0  0  0999 V2000
   -2.0370   -2.4920    0.2620 C   0  0  0  0  0  0  0  0  0  0  0  0
   -2.6470   -1.2160    0.1100 C   0  0  0  0  0  0  0  0  0  0  0  0
   -2.2290    0.0110   -0.1050 C   0  0  0  0  0  0  0  0  0  0  0  0
   -3.3270    1.0420   -0.1880 C   0  0  0  0  0  0  0  0  0  0  0  0
   -2.9630    2.4010   -0.4460 C   0  0  0  0  0  0  0  0  0  0  0  0
   -1.7210    2.7780   -0.6000 C   0  0  0  0  0  0  0  0  0  0  0  0
   -0.6590    1.7770   -0.5080 C   0  0  0  0  0  0  0  0  0  0  0  0
   -0.8750    0.4810   -0.2770 C   0  0  0  0  0  0  0  0  0  0  0  0
    0.1710   -0.4380   -0.2070 N   0  0  0  0  0  0  0  0  0  0  0  0
    1.5230   -0.1240   -0.4510 C   0  0  0  0  0  0  0  0  0  0  0  0
    1.9470    0.9920   -0.7620 O   0  0  0  0  0  0  0  0  0  0  0  0
    2.5410   -1.1530   -0.3440 N   0  0  0  0  0  0  0  0  0  0  0  0
    3.9090   -0.8130   -0.5970 C   0  0  0  0  0  0  0  0  0  0  0  0
    4.3740    0.2580    0.3690 C   0  0  0  0  0  0  0  0  0  0  0  0
  1  2  1  0
  2  3  2  3
  3  4  1  0
  3  8  1  0
  4  5  1  0
  5  6  2  0
  6  7  1  0
  7  8  2  0
  8  9  1  0
  9 10  1  0
 10 11  2  0
 10 12  1  0
 12 13  1  0
 13 14  1  0
M  END
