
     RDKit          3D

 43 46  0  0  0  0  0  0  0  0999 V2000
    5.7150    3.4110   -3.3430 C   0  0  0  0  0  0  0  0  0  0  0  0
    5.7880    3.0590   -1.9870 O   0  0  0  0  0  0  0  0  0  0  0  0
    5.4320    1.8140   -1.5060 C   0  0  0  0  0  0  0  0  0  0  0  0
    4.9710    0.8220   -2.3500 C   0  0  0  0  0  0  0  0  0  0  0  0
    4.6040   -0.4480   -1.8930 C   0  0  0  0  0  0  0  0  0  0  0  0
    4.6990   -0.7370   -0.5550 C   0  0  0  0  0  0  0  0  0  0  0  0
    4.3720   -2.0160    0.0550 C   0  0  0  0  0  0  0  0  0  0  0  0
    5.2800   -2.7300    0.7450 N   0  0  0  0  0  0  0  0  0  0  0  0
    4.9810   -3.9110    1.3430 C   0  0  0  0  0  0  0  0  0  0  0  0
    3.7010   -4.4180    1.2510 C   0  0  0  0  0  0  0  0  0  0  0  0
    2.7450   -3.7270    0.5590 C   0  0  0  0  0  0  0  0  0  0  0  0
    3.0950   -2.5110   -0.0430 C   0  0  0  0  0  0  0  0  0  0  0  0
    2.0950   -1.8290   -0.7500 N   0  0  0  0  0  0  0  0  0  0  0  0
    0.7460   -2.3540   -0.7640 C   0  0  0  0  0  0  0  0  0  0  0  0
   -0.1340   -1.5970   -1.7190 C   0  0  0  0  0  0  0  0  0  0  0  0
   -0.1840   -0.2200   -1.3540 N   0  0  0  0  0  0  0  0  0  0  0  0
   -0.7340    0.3740   -0.2240 C   0  0  0  0  0  0  0  0  0  0  0  0
   -0.4460    1.6780    0.0150 C   0  0  0  0  0  0  0  0  0  0  0  0
   -1.3030    2.2460    0.8140 C   0  0  0  0  0  0  0  0  0  0  0  0
   -1.8630    3.5850    0.6650 C   0  0  0  0  0  0  0  0  0  0  0  0
   -3.1030    3.6380    0.0880 O   0  0  0  0  0  0  0  0  0  0  0  0
   -4.0980    2.9520    0.7180 C   0  0  0  0  0  0  0  0  0  0  0  0
   -5.3830    3.2200   -0.0980 C   0  0  0  0  0  0  0  0  0  0  0  0
   -5.7230    5.0460   -0.1090 P   0  0  0  0  0  0  0  0  0  0  0  0
   -6.6710    5.4320   -1.5300 O   0  0  0  0  0  0  0  0  0  0  0  0
   -6.5620    5.5010    1.3340 O   0  0  0  0  0  0  0  0  0  0  0  0
   -6.6750    6.8900    1.3710 C   0  0  0  0  0  0  0  0  0  0  0  0
   -1.5500    1.2150    1.8300 C   0  0  0  0  0  0  0  0  0  0  0  0
   -1.5930   -0.0030    0.8610 C   0  0  0  0  0  0  0  0  0  0  0  0
   -2.4510   -1.3260    1.1190 P   0  0  0  0  0  0  0  0  0  0  0  0
   -2.6420   -2.7900    0.1550 C   0  0  0  0  0  0  0  0  0  0  0  0
   -1.8580   -3.9570    0.4870 N   0  0  0  0  0  0  0  0  0  0  0  0
   -3.4530   -2.9430   -0.8570 N   0  0  0  0  0  0  0  0  0  0  0  0
   -3.5510   -4.1780   -1.5990 C   0  0  0  0  0  0  0  0  0  0  0  0
   -4.6150   -5.0810   -0.9950 C   0  0  0  0  0  0  0  0  0  0  0  0
   -4.2530   -5.3460    0.3090 O   0  0  0  0  0  0  0  0  0  0  0  0
   -5.4400   -6.3640    1.0200 P   0  0  0  0  0  0  0  0  0  0  0  0
    5.1650    0.2730    0.2800 C   0  0  0  0  0  0  0  0  0  0  0  0
    5.5270    1.5190   -0.1490 C   0  0  0  0  0  0  0  0  0  0  0  0
    5.9890    2.5160    0.6880 O   0  0  0  0  0  0  0  0  0  0  0  0
    5.9680    2.3120    2.0760 C   0  0  0  0  0  0  0  0  0  0  0  0
    6.2490    0.8590    2.3590 C   0  0  0  0  0  0  0  0  0  0  0  0
    5.2910    0.0550    1.6680 O   0  0  0  0  0  0  0  0  0  0  0  0
  1  2  1  0
  2  3  1  0
  3  4  2  0
  3 39  1  0
  4  5  1  0
  5  6  2  0
  6  7  1  0
  6 38  1  0
  7  8  2  0
  7 12  1  0
  8  9  1  0
  9 10  2  0
 10 11  1  0
 11 12  2  0
 12 13  1  0
 13 14  1  0
 14 15  1  0
 15 16  1  0
 16 17  1  0
 17 18  2  0
 17 29  1  0
 18 19  2  0
 19 20  1  0
 19 28  1  0
 20 21  1  0
 21 22  1  0
 22 23  1  0
 23 24  1  0
 24 25  1  0
 24 26  1  0
 26 27  1  0
 28 29  1  0
 29 30  2  3
 30 31  1  0
 31 32  1  0
 31 33  2  3
 33 34  1  0
 34 35  1  0
 35 36  1  0
 36 37  1  0
 38 39  2  0
 38 43  1  0
 39 40  1  0
 40 41  1  0
 41 42  1  0
 42 43  1  0
M  END
