
     RDKit          3D

 43 44  0  0  0  0  0  0  0  0999 V2000
    3.6150   -7.6410   -0.3200 C   0  0  0  0  0  0  0  0  0  0  0  0
    3.4800   -6.2110    0.0550 C   0  0  0  0  0  0  0  0  0  0  0  0
    2.7630   -5.4550   -0.6890 N   0  0  0  0  0  0  0  0  0  0  0  0
    2.6380   -4.1130   -0.3340 N   0  0  0  0  0  0  0  0  0  0  0  0
    3.3080   -3.1750   -0.8770 C   0  0  0  0  0  0  0  0  0  0  0  0
    3.1530   -1.7900   -0.4820 C   0  0  0  0  0  0  0  0  0  0  0  0
    3.8930   -0.9460   -1.1000 O   0  0  0  0  0  0  0  0  0  0  0  0
    2.2660   -1.3300    0.5140 N   0  0  0  0  0  0  0  0  0  0  0  0
    1.4130   -2.3140    1.1170 C   0  0  0  0  0  0  0  0  0  0  0  0
    0.3920   -1.6290    2.0020 C   0  0  0  0  0  0  0  0  0  0  0  0
   -0.1010   -0.4060    1.4540 N   0  0  0  0  0  0  0  0  0  0  0  0
   -1.4560   -0.0420    1.6300 C   0  0  0  0  0  0  0  0  0  0  0  0
   -1.9320    1.0380    1.1750 O   0  0  0  0  0  0  0  0  0  0  0  0
   -2.3710   -0.8370    2.3100 O   0  0  0  0  0  0  0  0  0  0  0  0
   -3.7000   -0.4770    2.4730 C   0  0  2  0  0  0  0  0  0  0  0  0
   -3.9320    0.8180    3.1620 C   0  0  0  0  0  0  0  0  0  0  0  0
   -4.3670   -1.5630    3.2990 C   0  0  0  0  0  0  0  0  0  0  0  0
   -4.4860   -0.5110    1.1460 C   0  0  0  0  0  0  0  0  0  0  0  0
   -5.9140   -0.2870    1.3070 C   0  0  0  0  0  0  0  0  0  0  0  0
   -6.7930   -0.2710    0.3580 C   0  0  0  0  0  0  0  0  0  0  0  0
   -6.5590   -0.4580   -0.9670 O   0  0  0  0  0  0  0  0  0  0  0  0
   -8.5710    0.0400    0.8260 P   0  0  0  0  0  0  0  0  0  0  0  0
   -8.6810    1.8480    1.2210 C   0  0  0  0  0  0  0  0  0  0  0  0
   -9.5770   -0.3040   -0.6050 N   0  0  0  0  0  0  0  0  0  0  0  0
   -3.7000   -0.7860   -0.1970 P   0  0  0  0  0  0  0  0  0  0  0  0
   -3.8730   -0.9630   -1.9420 C   0  0  1  0  0  0  0  0  0  0  0  0
   -4.0290    0.3620   -2.7110 C   0  0  0  0  0  0  0  0  0  0  0  0
   -2.6590   -1.6070   -2.6010 C   0  0  0  0  0  0  0  0  0  0  0  0
   -2.5390   -2.8010   -2.4620 O   0  0  0  0  0  0  0  0  0  0  0  0
    0.7530    0.5080    0.7030 C   0  0  0  0  0  0  0  0  0  0  0  0
    2.1890    0.0050    0.9510 C   0  0  2  0  0  0  0  0  0  0  0  0
    3.2130    0.9600    0.6100 C   0  0  0  0  0  0  0  0  0  0  0  0
    4.5440    0.7580    0.8790 C   0  0  0  0  0  0  0  0  0  0  0  0
    5.5310    1.6670    0.5490 C   0  0  0  0  0  0  0  0  0  0  0  0
    5.1720    2.8530   -0.0920 C   0  0  0  0  0  0  0  0  0  0  0  0
    6.1880    3.8670   -0.4730 C   0  0  0  0  0  0  0  0  0  0  0  0
    6.7140    3.6150   -1.8220 C   0  0  0  0  0  0  0  0  0  0  0  0
    6.2760    2.6480   -2.4480 O   0  0  0  0  0  0  0  0  0  0  0  0
    7.7400    4.4530   -2.4790 C   0  0  0  0  0  0  0  0  0  0  0  0
    7.1080    5.2790   -3.6090 C   0  0  0  0  0  0  0  0  0  0  0  0
    6.1240    6.1060   -3.1000 O   0  0  0  0  0  0  0  0  0  0  0  0
    3.8490    3.0690   -0.3670 C   0  0  0  0  0  0  0  0  0  0  0  0
    2.8630    2.1350   -0.0230 C   0  0  0  0  0  0  0  0  0  0  0  0
  1  2  1  0
  2  3  2  3
  3  4  1  0
  4  5  2  3
  5  6  1  0
  6  7  2  0
  6  8  1  0
  8  9  1  0
  8 31  1  0
  9 10  1  0
 10 11  1  0
 11 12  1  0
 11 30  1  0
 12 13  2  0
 12 14  1  0
 14 15  1  0
 15 16  1  1
 15 17  1  0
 15 18  1  0
 18 19  1  0
 18 25  2  3
 19 20  2  3
 20 21  1  0
 20 22  1  0
 22 23  1  0
 22 24  1  0
 25 26  1  0
 26 27  1  6
 26 28  1  0
 28 29  2  0
 30 31  1  0
 31 32  1  6
 32 33  2  0
 32 43  1  0
 33 34  1  0
 34 35  2  0
 35 36  1  0
 35 42  1  0
 36 37  1  0
 37 38  2  0
 37 39  1  0
 39 40  1  0
 40 41  1  0
 42 43  2  0
M  END
