
     RDKit          3D

 43 46  0  0  0  0  0  0  0  0999 V2000
    8.8200    0.1400    1.1530 C   0  0  0  0  0  0  0  0  0  0  0  0
    7.3720   -0.1390    1.4060 C   0  0  0  0  0  0  0  0  0  0  0  0
    6.5550    0.4590    0.4320 O   0  0  0  0  0  0  0  0  0  0  0  0
    5.1820    0.3160    0.4860 C   0  0  0  0  0  0  0  0  0  0  0  0
    4.6430   -0.4180    1.5090 C   0  0  0  0  0  0  0  0  0  0  0  0
    3.2520   -0.5780    1.5880 C   0  0  0  0  0  0  0  0  0  0  0  0
    2.4450   -0.0070    0.6490 C   0  0  0  0  0  0  0  0  0  0  0  0
    1.0200   -0.1920    0.7090 N   0  0  0  0  0  0  0  0  0  0  0  0
    0.4750   -1.3640    1.2610 C   0  0  0  0  0  0  0  0  0  0  0  0
    1.3150   -2.3840    1.6080 N   0  0  0  0  0  0  0  0  0  0  0  0
    0.9180   -3.5590    2.0890 C   0  0  0  0  0  0  0  0  0  0  0  0
   -0.3890   -3.7770    2.2540 N   0  0  0  0  0  0  0  0  0  0  0  0
   -1.2890   -2.8510    1.9490 C   0  0  0  0  0  0  0  0  0  0  0  0
   -0.8700   -1.6240    1.4460 C   0  0  0  0  0  0  0  0  0  0  0  0
   -2.0440   -0.8280    1.2160 C   0  0  0  0  0  0  0  0  0  0  0  0
   -2.1500    0.3940    0.7490 C   0  0  0  0  0  0  0  0  0  0  0  0
   -3.5270    0.9330    0.6340 C   0  0  0  0  0  0  0  0  0  0  0  0
   -4.3930    0.8480    1.6740 C   0  0  0  0  0  0  0  0  0  0  0  0
   -5.6750    1.3030    1.5590 C   0  0  0  0  0  0  0  0  0  0  0  0
   -6.0500    1.8460    0.3570 C   0  0  0  0  0  0  0  0  0  0  0  0
   -7.4310    2.3620    0.1470 C   0  0  0  0  0  0  0  0  0  0  0  0
   -7.4170    3.8470    0.5210 C   0  0  0  0  0  0  0  0  0  0  0  0
   -7.0470    4.0160    1.8370 O   0  0  0  0  0  0  0  0  0  0  0  0
   -5.1730    1.9400   -0.7190 C   0  0  0  0  0  0  0  0  0  0  0  0
   -3.8860    1.4820   -0.6030 C   0  0  0  0  0  0  0  0  0  0  0  0
   -2.9800    1.5450   -1.6100 O   0  0  0  0  0  0  0  0  0  0  0  0
   -3.0680    1.9900   -2.9030 C   0  0  0  0  0  0  0  0  0  0  0  0
   -3.9920    1.1920   -3.7840 C   0  0  0  0  0  0  0  0  0  0  0  0
   -3.6100   -0.1540   -3.8800 O   0  0  0  0  0  0  0  0  0  0  0  0
   -2.3900   -0.5140   -4.4020 C   0  0  0  0  0  0  0  0  0  0  0  0
   -1.6160    0.4000   -4.8000 O   0  0  0  0  0  0  0  0  0  0  0  0
   -3.1590   -1.6230    1.5990 O   0  0  0  0  0  0  0  0  0  0  0  0
   -2.6970   -2.8290    2.0350 N   0  0  0  0  0  0  0  0  0  0  0  0
   -3.7000   -4.2190    2.6300 P   0  0  0  0  0  0  0  0  0  0  0  0
   -2.8700   -5.7580    1.9510 C   0  0  0  0  0  0  0  0  0  0  0  0
   -3.5100   -4.2620    4.4800 C   0  0  0  0  0  0  0  0  0  0  0  0
    3.0340    0.7260   -0.3650 C   0  0  0  0  0  0  0  0  0  0  0  0
    4.3970    0.9140   -0.4870 C   0  0  0  0  0  0  0  0  0  0  0  0
    5.0450    1.8980   -1.8470 P   0  0  0  0  0  0  0  0  0  0  0  0
    6.4880    1.2010   -2.7200 C   0  0  1  0  0  0  0  0  0  0  0  0
    6.1490    0.7910   -4.1400 C   0  0  0  0  0  0  0  0  0  0  0  0
    7.4750    2.2900   -2.8500 N   0  0  0  0  0  0  0  0  0  0  0  0
    7.1170    0.1520   -2.1020 O   0  0  0  0  0  0  0  0  0  0  0  0
  1  2  1  0
  2  3  1  0
  3  4  1  0
  4  5  2  0
  4 38  1  0
  5  6  1  0
  6  7  2  0
  7  8  1  0
  7 37  1  0
  8  9  1  0
  9 10  2  0
  9 14  1  0
 10 11  1  0
 11 12  2  0
 12 13  1  0
 13 14  2  0
 13 33  1  0
 14 15  1  0
 15 16  2  3
 15 32  1  0
 16 17  1  0
 17 18  2  0
 17 25  1  0
 18 19  1  0
 19 20  2  0
 20 21  1  0
 20 24  1  0
 21 22  1  0
 22 23  1  0
 24 25  2  0
 25 26  1  0
 26 27  1  0
 27 28  1  0
 28 29  1  0
 29 30  1  0
 30 31  2  0
 32 33  1  0
 33 34  1  0
 34 35  1  0
 34 36  1  0
 37 38  2  0
 38 39  1  0
 39 40  1  0
 40 41  1  6
 40 42  1  0
 40 43  1  0
M  END
