
     RDKit          3D

 43 48  0  0  0  0  0  0  0  0999 V2000
   -3.1020   -0.8010   -1.8300 C   0  0  0  0  0  0  0  0  0  0  0  0
   -3.8940   -1.3520   -0.7650 N   0  0  0  0  0  0  0  0  0  0  0  0
   -4.6960   -2.5230   -1.0070 C   0  0  0  0  0  0  0  0  0  0  0  0
   -3.9330   -3.7890   -0.7260 C   0  0  0  0  0  0  0  0  0  0  0  0
   -4.7650   -4.8930   -0.9770 O   0  0  0  0  0  0  0  0  0  0  0  0
   -5.3120   -5.1990   -2.1930 C   0  0  0  0  0  0  0  0  0  0  0  0
   -5.1020   -4.4970   -3.2020 O   0  0  0  0  0  0  0  0  0  0  0  0
   -6.1170   -6.2880   -2.3700 F   0  0  0  0  0  0  0  0  0  0  0  0
   -3.8860   -0.7550    0.5070 C   0  0  0  0  0  0  0  0  0  0  0  0
   -4.5740   -1.2170    1.4650 O   0  0  0  0  0  0  0  0  0  0  0  0
   -3.1130    0.3660    0.7310 O   0  0  0  0  0  0  0  0  0  0  0  0
   -3.0500    1.0200    1.9650 C   0  0  1  0  0  0  0  0  0  0  0  0
   -1.6770    1.0350    2.4740 C   0  0  0  0  0  0  0  0  0  0  0  0
   -1.4060    1.5770    3.5730 O   0  0  0  0  0  0  0  0  0  0  0  0
   -0.5720    0.4410    1.7620 N   0  0  0  0  0  0  0  0  0  0  0  0
   -0.4530   -0.2530    0.5190 C   0  0  0  0  0  0  0  0  0  0  0  0
    0.9730   -0.3540    0.8310 C   0  0  0  0  0  0  0  0  0  0  0  0
    0.8090    0.3010    1.9860 C   0  0  0  0  0  0  0  0  0  0  0  0
    1.9490    0.5140    2.7830 C   0  0  0  0  0  0  0  0  0  0  0  0
    3.1860    0.0690    2.3920 C   0  0  0  0  0  0  0  0  0  0  0  0
    4.3990    0.1430    2.9560 N   0  0  0  0  0  0  0  0  0  0  0  0
    5.2880   -0.4490    2.1710 N   0  0  0  0  0  0  0  0  0  0  0  0
    4.6510   -0.9150    1.0840 C   0  0  0  0  0  0  0  0  0  0  0  0
    5.2090   -1.6230   -0.0290 N   0  0  0  0  0  0  0  0  0  0  0  0
    6.6030   -1.9240   -0.0770 C   0  0  0  0  0  0  0  0  0  0  0  0
    7.2200   -2.2430    1.0040 N   0  0  0  0  0  0  0  0  0  0  0  0
    7.3580   -1.8790   -1.3510 C   0  0  1  0  0  0  0  0  0  0  0  0
    7.3020   -0.4770   -1.9840 C   0  0  0  0  0  0  0  0  0  0  0  0
    8.2190    0.2950   -1.2790 O   0  0  0  0  0  0  0  0  0  0  0  0
    9.4310   -0.1840   -1.5340 O   0  0  0  0  0  0  0  0  0  0  0  0
    9.2070   -1.8380   -0.9590 P   0  0  0  0  0  0  0  0  0  0  0  0
   10.0030   -2.9550   -2.0000 O   0  0  0  0  0  0  0  0  0  0  0  0
    3.3460   -0.5960    1.2170 N   0  0  0  0  0  0  0  0  0  0  0  0
    2.2570   -0.7960    0.4640 C   0  0  0  0  0  0  0  0  0  0  0  0
    2.3720   -1.4680   -0.7400 O   0  0  0  0  0  0  0  0  0  0  0  0
   -3.5180    2.4260    1.8630 C   0  0  0  0  0  0  0  0  0  0  0  0
   -4.3700    2.9350    2.8070 C   0  0  0  0  0  0  0  0  0  0  0  0
   -4.7750    4.2420    2.6700 C   0  0  0  0  0  0  0  0  0  0  0  0
   -4.3430    5.0530    1.6030 C   0  0  0  0  0  0  0  0  0  0  0  0
   -3.4970    4.4980    0.6930 C   0  0  0  0  0  0  0  0  0  0  0  0
   -3.0670    3.1730    0.8050 C   0  0  0  0  0  0  0  0  0  0  0  0
   -3.4440    5.7540   -0.0730 C   0  0  0  0  0  0  0  0  0  0  0  0
   -4.3650    6.3620    0.9140 C   0  0  0  0  0  0  0  0  0  0  0  0
  1  2  1  0
  2  3  1  0
  2  9  1  0
  3  4  1  0
  4  5  1  0
  5  6  1  0
  6  7  2  0
  6  8  1  0
  9 10  2  0
  9 11  1  0
 12 11  1  6
 12 13  1  0
 12 36  1  0
 13 14  2  0
 13 15  1  0
 15 16  1  0
 15 18  1  0
 16 17  1  0
 17 18  1  0
 17 34  2  0
 18 19  2  0
 19 20  1  0
 20 21  2  0
 20 33  1  0
 21 22  1  0
 22 23  2  0
 23 24  1  0
 23 33  1  0
 24 25  1  0
 25 26  2  0
 27 25  1  1
 27 28  1  0
 27 31  1  0
 28 29  1  0
 29 30  1  0
 30 31  1  0
 31 32  1  0
 33 34  1  0
 34 35  1  0
 36 37  2  0
 36 41  1  0
 37 38  1  0
 38 39  2  0
 39 40  1  0
 39 43  1  0
 40 41  2  0
 40 42  1  0
 42 43  1  0
M  END
