
     RDKit          3D

 43 47  0  0  0  0  0  0  0  0999 V2000
   -6.2830    3.6870   -3.1640 N   0  0  0  0  0  0  0  0  0  0  0  0
   -5.8640    2.8900   -2.0480 C   0  0  0  0  0  0  0  0  0  0  0  0
   -6.0810    1.5280   -2.0410 C   0  0  0  0  0  0  0  0  0  0  0  0
   -5.6790    0.7440   -0.9630 C   0  0  0  0  0  0  0  0  0  0  0  0
   -5.0560    1.3280    0.1160 C   0  0  0  0  0  0  0  0  0  0  0  0
   -4.6030    0.6000    1.2900 C   0  0  0  0  0  0  0  0  0  0  0  0
   -3.9720    1.1840    2.2080 O   0  0  0  0  0  0  0  0  0  0  0  0
   -4.8310   -0.7960    1.4920 N   0  0  0  0  0  0  0  0  0  0  0  0
   -4.3830   -1.5020    2.6480 C   0  0  0  0  0  0  0  0  0  0  0  0
   -2.9130   -1.5160    2.8820 C   0  0  0  0  0  0  0  0  0  0  0  0
   -2.1230   -2.1190    1.8520 N   0  0  0  0  0  0  0  0  0  0  0  0
   -1.6250   -1.2910    0.7760 C   0  0  0  0  0  0  0  0  0  0  0  0
   -0.6140   -2.0350   -0.0410 C   0  0  1  0  0  0  0  0  0  0  0  0
   -1.2350   -3.3820   -0.3660 C   0  0  0  0  0  0  0  0  0  0  0  0
   -1.3030   -4.1280    0.8130 O   0  0  0  0  0  0  0  0  0  0  0  0
   -1.8540   -3.5230    1.9330 C   0  0  0  0  0  0  0  0  0  0  0  0
   -2.0990   -4.1980    2.9670 O   0  0  0  0  0  0  0  0  0  0  0  0
   -0.4290   -1.3620   -1.4170 C   0  0  1  0  0  0  0  0  0  0  0  0
   -0.3500    0.0100   -1.1650 O   0  0  0  0  0  0  0  0  0  0  0  0
    0.9240   -1.8560   -1.8760 C   0  0  0  0  0  0  0  0  0  0  0  0
    1.4350   -2.7750   -0.8070 C   0  0  0  0  0  0  0  0  0  0  0  0
    0.7590   -2.1090    0.4500 C   0  0  1  0  0  0  0  0  0  0  0  0
    1.4150   -0.8240    0.4830 N   0  0  0  0  0  0  0  0  0  0  0  0
    1.9370   -0.2950    1.5030 C   0  0  0  0  0  0  0  0  0  0  0  0
    2.6320    0.8800    1.8590 N   0  0  0  0  0  0  0  0  0  0  0  0
    2.8940    2.0210    1.0330 C   0  0  0  0  0  0  0  0  0  0  0  0
    3.5310    3.0130    1.4650 O   0  0  0  0  0  0  0  0  0  0  0  0
    2.4520    2.0790   -0.2850 O   0  0  0  0  0  0  0  0  0  0  0  0
    2.7210    3.2090   -1.0780 C   0  0  0  0  0  0  0  0  0  0  0  0
    4.1490    3.5210   -1.3130 C   0  0  0  0  0  0  0  0  0  0  0  0
    4.9550    2.5020   -2.0430 C   0  0  0  0  0  0  0  0  0  0  0  0
    5.0190    1.1690   -1.3780 C   0  0  0  0  0  0  0  0  0  0  0  0
    6.0820   -0.0240   -2.3570 P   0  0  0  0  0  0  0  0  0  0  0  0
    6.9190   -1.0860   -1.2560 O   0  0  0  0  0  0  0  0  0  0  0  0
    7.2310    0.8330   -3.3280 O   0  0  0  0  0  0  0  0  0  0  0  0
    3.0240    0.7130    3.2120 C   0  0  0  0  0  0  0  0  0  0  0  0
    2.5880   -0.4370    3.6880 N   0  0  0  0  0  0  0  0  0  0  0  0
    1.8440   -1.1370    2.7550 C   0  0  1  0  0  0  0  0  0  0  0  0
    0.4590   -1.1160    3.1540 F   0  0  0  0  0  0  0  0  0  0  0  0
    2.1430   -2.5160    2.2970 C   0  0  0  0  0  0  0  0  0  0  0  0
    1.0100   -2.9350    1.5330 O   0  0  0  0  0  0  0  0  0  0  0  0
   -4.8540    2.6900    0.0780 C   0  0  0  0  0  0  0  0  0  0  0  0
   -5.2530    3.4350   -0.9820 N   0  0  0  0  0  0  0  0  0  0  0  0
  1  2  1  0
  2  3  2  0
  2 43  1  0
  3  4  1  0
  4  5  2  0
  5  6  1  0
  5 42  1  0
  6  7  2  0
  6  8  1  0
  8  9  1  0
  9 10  1  0
 10 11  1  0
 11 12  1  0
 11 16  1  0
 13 12  1  1
 13 14  1  0
 13 18  1  0
 13 22  1  0
 14 15  1  0
 15 16  1  0
 16 17  2  0
 18 19  1  1
 18 20  1  0
 20 21  1  0
 22 21  1  6
 22 23  1  0
 22 41  1  0
 23 24  2  0
 24 25  1  0
 24 38  1  0
 25 26  1  0
 25 36  1  0
 26 27  2  0
 26 28  1  0
 28 29  1  0
 29 30  1  0
 30 31  1  0
 31 32  1  0
 32 33  1  0
 33 34  1  0
 33 35  1  0
 36 37  2  0
 37 38  1  0
 38 39  1  1
 38 40  1  0
 40 41  1  0
 42 43  2  0
M  END
