
     RDKit          3D

 28 30  0  0  0  0  0  0  0  0999 V2000
    0.1640   -3.1800    4.5580 C   0  0  0  0  0  0  0  0  0  0  0  0
   -1.2100   -3.2360    4.0010 C   0  0  0  0  0  0  0  0  0  0  0  0
   -1.4150   -2.5340    2.8580 C   0  0  0  0  0  0  0  0  0  0  0  0
   -0.3630   -1.7970    2.2510 C   0  0  0  0  0  0  0  0  0  0  0  0
   -0.4240   -1.0880    1.1640 C   0  0  0  0  0  0  0  0  0  0  0  0
   -1.6310   -0.9490    0.3820 C   0  0  0  0  0  0  0  0  0  0  0  0
   -2.6680   -1.6270    0.7030 O   0  0  0  0  0  0  0  0  0  0  0  0
   -1.8360   -0.1180   -0.7390 N   0  0  0  0  0  0  0  0  0  0  0  0
   -3.0980   -0.1030   -1.4410 C   0  0  0  0  0  0  0  0  0  0  0  0
   -3.8280    0.9980   -1.4600 C   0  0  0  0  0  0  0  0  0  0  0  0
   -3.3440    2.1360   -0.7840 N   0  0  0  0  0  0  0  0  0  0  0  0
   -3.6930    3.3680   -1.2650 O   0  0  0  0  0  0  0  0  0  0  0  0
   -4.8150    3.7730   -0.5370 C   0  0  0  0  0  0  0  0  0  0  0  0
   -3.5470   -1.2820   -2.1650 C   0  0  0  0  0  0  0  0  0  0  0  0
   -3.7650   -2.4210   -1.4440 O   0  0  0  0  0  0  0  0  0  0  0  0
    0.8310   -0.3900    0.8000 C   0  0  0  0  0  0  0  0  0  0  0  0
    1.7410   -0.0200    1.7790 C   0  0  0  0  0  0  0  0  0  0  0  0
    2.9860    0.5320    1.4880 C   0  0  0  0  0  0  0  0  0  0  0  0
    3.3580    0.7310    0.1990 C   0  0  0  0  0  0  0  0  0  0  0  0
    4.6040    1.2850   -0.1110 C   0  0  0  0  0  0  0  0  0  0  0  0
    4.9800    1.4860   -1.4140 C   0  0  0  0  0  0  0  0  0  0  0  0
    4.0960    1.1270   -2.4240 C   0  0  0  0  0  0  0  0  0  0  0  0
    2.8630    0.5790   -2.1130 C   0  0  0  0  0  0  0  0  0  0  0  0
    2.4850    0.3770   -0.7990 C   0  0  0  0  0  0  0  0  0  0  0  0
    1.2320   -0.1800   -0.4980 C   0  0  0  0  0  0  0  0  0  0  0  0
    4.7210    1.4350   -3.6300 O   0  0  0  0  0  0  0  0  0  0  0  0
    6.0690    1.7700   -3.4290 C   0  0  0  0  0  0  0  0  0  0  0  0
    6.1120    1.9980   -2.0320 O   0  0  0  0  0  0  0  0  0  0  0  0
  1  2  1  0
  2  3  2  3
  3  4  1  0
  4  5  2  3
  5  6  1  0
  5 16  1  0
  6  7  2  0
  6  8  1  0
  8  9  1  0
  9 10  2  3
  9 14  1  0
 10 11  1  0
 11 12  1  0
 12 13  1  0
 14 15  1  0
 16 17  2  0
 16 25  1  0
 17 18  1  0
 18 19  2  0
 19 20  1  0
 19 24  1  0
 20 21  2  0
 21 22  1  0
 21 28  1  0
 22 23  2  0
 22 26  1  0
 23 24  1  0
 24 25  2  0
 26 27  1  0
 27 28  1  0
M  END
