
     RDKit          3D

 28 29  0  0  0  0  0  0  0  0999 V2000
    6.6790   -2.3900   -0.2310 C   0  0  0  0  0  0  0  0  0  0  0  0
    5.1950   -2.5060   -0.3040 C   0  0  0  0  0  0  0  0  0  0  0  0
    4.5040   -1.4410   -0.8470 O   0  0  0  0  0  0  0  0  0  0  0  0
    4.4640   -0.1340   -0.4040 C   0  0  0  0  0  0  0  0  0  0  0  0
    5.7210    0.6710   -0.4700 C   0  0  0  0  0  0  0  0  0  0  0  0
    3.3380    0.3400    0.0490 C   0  0  0  0  0  0  0  0  0  0  0  0
    2.1130   -0.4700    0.1000 C   0  0  0  0  0  0  0  0  0  0  0  0
    1.0690    0.1550   -0.7310 N   0  0  0  0  0  0  0  0  0  0  0  0
   -0.2490   -0.3010   -0.8590 C   0  0  0  0  0  0  0  0  0  0  0  0
   -0.5610   -1.3180   -0.2000 O   0  0  0  0  0  0  0  0  0  0  0  0
   -1.2950    0.3850   -1.7540 C   0  0  0  0  0  0  0  0  0  0  0  0
   -2.3040    0.8410   -0.8480 C   0  0  0  0  0  0  0  0  0  0  0  0
   -2.0730    2.0690   -0.1820 C   0  0  0  0  0  0  0  0  0  0  0  0
   -2.8590    2.5870    0.7750 C   0  0  0  0  0  0  0  0  0  0  0  0
   -2.5730    3.7040    1.3210 O   0  0  0  0  0  0  0  0  0  0  0  0
   -3.9500    1.8950    1.1360 N   0  0  0  0  0  0  0  0  0  0  0  0
   -4.2370    0.7220    0.5490 C   0  0  0  0  0  0  0  0  0  0  0  0
   -5.3990    0.1150    0.9720 C   0  0  0  0  0  0  0  0  0  0  0  0
   -5.7960   -1.0660    0.4050 C   0  0  0  0  0  0  0  0  0  0  0  0
   -7.0540   -1.7550    0.8360 C   0  0  0  0  0  0  0  0  0  0  0  0
   -4.9890   -1.5770   -0.5720 C   0  0  0  0  0  0  0  0  0  0  0  0
   -3.8160   -1.0170   -1.0380 C   0  0  0  0  0  0  0  0  0  0  0  0
   -3.0830   -1.6030   -2.1410 C   0  0  0  0  0  0  0  0  0  0  0  0
   -3.4180    0.1760   -0.4560 C   0  0  0  0  0  0  0  0  0  0  0  0
    3.2680    1.7130    0.5330 C   0  0  0  0  0  0  0  0  0  0  0  0
    4.2380    2.5140    0.5580 O   0  0  0  0  0  0  0  0  0  0  0  0
    2.0500    2.1950    1.0080 O   0  0  0  0  0  0  0  0  0  0  0  0
    1.8330    3.4800    1.4980 C   0  0  0  0  0  0  0  0  0  0  0  0
  1  2  1  0
  2  3  1  0
  3  4  1  0
  4  5  1  0
  4  6  2  3
  6  7  1  0
  6 25  1  0
  7  8  1  0
  8  9  1  0
  9 10  2  0
  9 11  1  0
 11 12  1  0
 12 13  2  0
 12 24  1  0
 13 14  1  0
 14 15  2  0
 14 16  1  0
 16 17  1  0
 17 18  2  0
 17 24  1  0
 18 19  1  0
 19 20  1  0
 19 21  2  0
 21 22  1  0
 22 23  1  0
 22 24  2  0
 25 26  2  0
 25 27  1  0
 27 28  1  0
M  END
