
     RDKit          3D

 28 30  0  0  0  0  0  0  0  0999 V2000
   -7.7560   -0.4330    2.6820 C   0  0  0  0  0  0  0  0  0  0  0  0
   -6.7140   -0.7470    1.6370 C   0  0  0  0  0  0  0  0  0  0  0  0
   -5.8070    0.3050    1.5830 O   0  0  0  0  0  0  0  0  0  0  0  0
   -4.8610   -0.0490    0.5930 C   0  0  0  0  0  0  0  0  0  0  0  0
   -3.8810    1.0710    0.5250 C   0  0  0  0  0  0  0  0  0  0  0  0
   -2.8530    0.9750   -0.3630 O   0  0  0  0  0  0  0  0  0  0  0  0
   -2.7290    0.8920   -1.6990 C   0  0  0  0  0  0  0  0  0  0  0  0
   -3.8090    0.9070   -2.5250 C   0  0  0  0  0  0  0  0  0  0  0  0
   -3.6560    0.8220   -3.8940 C   0  0  0  0  0  0  0  0  0  0  0  0
   -2.3930    0.7210   -4.4340 C   0  0  0  0  0  0  0  0  0  0  0  0
   -1.3060    0.7070   -3.5770 C   0  0  0  0  0  0  0  0  0  0  0  0
   -1.4560    0.7920   -2.2150 C   0  0  0  0  0  0  0  0  0  0  0  0
   -0.2400    0.7690   -1.3880 C   0  0  0  0  0  0  0  0  0  0  0  0
   -0.0140   -0.5510   -0.7070 C   0  0  0  0  0  0  0  0  0  0  0  0
    1.1640   -0.5710    0.0930 N   0  0  0  0  0  0  0  0  0  0  0  0
    2.4750   -0.3520   -0.3960 C   0  0  0  0  0  0  0  0  0  0  0  0
    2.5650   -0.1270   -1.6390 O   0  0  0  0  0  0  0  0  0  0  0  0
    3.6710   -0.3790    0.4530 C   0  0  0  0  0  0  0  0  0  0  0  0
    3.6330   -0.5530    1.7980 C   0  0  0  0  0  0  0  0  0  0  0  0
    4.7930   -0.5690    2.5340 C   0  0  0  0  0  0  0  0  0  0  0  0
    6.0410   -0.4120    1.9560 C   0  0  0  0  0  0  0  0  0  0  0  0
    6.0510   -0.2360    0.5810 C   0  0  0  0  0  0  0  0  0  0  0  0
    4.8950   -0.2190   -0.1580 C   0  0  0  0  0  0  0  0  0  0  0  0
    7.3210   -0.0710   -0.0620 N   0  0  0  0  0  0  0  0  0  0  0  0
    8.5010   -0.0950    0.7310 C   0  0  0  0  0  0  0  0  0  0  0  0
    9.5570    0.4310    0.3330 O   0  0  0  0  0  0  0  0  0  0  0  0
    8.4250   -0.7710    2.0500 C   0  0  0  0  0  0  0  0  0  0  0  0
    7.2140   -0.4270    2.6910 O   0  0  0  0  0  0  0  0  0  0  0  0
  1  2  1  0
  2  3  1  0
  3  4  1  0
  4  5  1  0
  5  6  1  0
  6  7  1  0
  7  8  2  0
  7 12  1  0
  8  9  1  0
  9 10  2  0
 10 11  1  0
 11 12  2  0
 12 13  1  0
 13 14  1  0
 14 15  1  0
 15 16  1  0
 16 17  2  0
 16 18  1  0
 18 19  2  0
 18 23  1  0
 19 20  1  0
 20 21  2  0
 21 22  1  0
 21 28  1  0
 22 23  2  0
 22 24  1  0
 24 25  1  0
 25 26  2  0
 25 27  1  0
 27 28  1  0
M  END
