
     RDKit          3D

 28 30  0  0  0  0  0  0  0  0999 V2000
   -4.0670    5.9900   -1.3420 C   0  0  0  0  0  0  0  0  0  0  0  0
   -2.8760    5.1550   -1.1800 N   0  0  0  0  0  0  0  0  0  0  0  0
   -2.9560    3.7480   -1.1140 C   0  0  0  0  0  0  0  0  0  0  0  0
   -4.0670    3.1870   -1.1950 O   0  0  0  0  0  0  0  0  0  0  0  0
   -1.7290    2.9500   -0.9500 C   0  0  0  0  0  0  0  0  0  0  0  0
   -2.0790    1.5850   -0.9130 O   0  0  0  0  0  0  0  0  0  0  0  0
   -1.1360    0.5810   -0.7670 C   0  0  0  0  0  0  0  0  0  0  0  0
    0.1980    0.8680   -0.6490 C   0  0  0  0  0  0  0  0  0  0  0  0
    1.1760   -0.0850   -0.5020 C   0  0  0  0  0  0  0  0  0  0  0  0
    2.5800    0.3600   -0.3860 C   0  0  2  0  0  0  0  0  0  0  0  0
    3.4290   -0.1520   -1.5310 C   0  0  0  0  0  0  0  0  0  0  0  0
    4.7820    0.4160   -1.3160 C   0  0  0  0  0  0  0  0  0  0  0  0
    5.4460    1.0280   -2.1860 O   0  0  0  0  0  0  0  0  0  0  0  0
    5.3670    0.2440    0.0040 C   0  0  0  0  0  0  0  0  0  0  0  0
    4.5970   -0.0190    1.0460 C   0  0  0  0  0  0  0  0  0  0  0  0
    5.1620   -0.1850    2.3160 O   0  0  0  0  0  0  0  0  0  0  0  0
    5.7430   -1.4530    2.6520 C   0  0  0  0  0  0  0  0  0  0  0  0
    3.1250   -0.1450    0.9050 C   0  0  0  0  0  0  0  0  0  0  0  0
    0.7870   -1.3920   -0.4720 C   0  0  0  0  0  0  0  0  0  0  0  0
   -0.5710   -1.7160   -0.5900 C   0  0  0  0  0  0  0  0  0  0  0  0
   -1.5440   -0.7520   -0.7380 C   0  0  0  0  0  0  0  0  0  0  0  0
   -2.8850   -0.9730   -0.8580 O   0  0  0  0  0  0  0  0  0  0  0  0
   -3.6230   -2.1330   -0.8580 C   0  0  0  0  0  0  0  0  0  0  0  0
   -3.5040   -2.8860    0.3990 C   0  0  0  0  0  0  0  0  0  0  0  0
   -3.0570   -4.1170    0.5740 C   0  0  0  0  0  0  0  0  0  0  0  0
   -3.1270   -4.4390    2.0160 C   0  0  0  0  0  0  0  0  0  0  0  0
   -3.6820   -3.1910    2.5950 C   0  0  0  0  0  0  0  0  0  0  0  0
   -3.8840   -2.3350    1.6620 N   0  0  0  0  0  0  0  0  0  0  0  0
  1  2  1  0
  2  3  1  0
  3  4  2  0
  3  5  1  0
  5  6  1  0
  6  7  1  0
  7  8  2  0
  7 21  1  0
  8  9  1  0
 10  9  1  6
  9 19  2  0
 10 11  1  0
 10 18  1  0
 11 12  1  0
 12 13  2  0
 12 14  1  0
 14 15  2  0
 15 16  1  0
 15 18  1  0
 16 17  1  0
 19 20  1  0
 20 21  2  0
 21 22  1  0
 22 23  1  0
 23 24  1  0
 24 25  2  0
 24 28  1  0
 25 26  1  0
 26 27  1  0
 27 28  2  0
M  END
