
     RDKit          3D

 28 30  0  0  0  0  0  0  0  0999 V2000
   -6.0050   -3.5330    0.9980 C   0  0  0  0  0  0  0  0  0  0  0  0
   -4.9410   -2.8740    0.3520 O   0  0  0  0  0  0  0  0  0  0  0  0
   -5.2620   -1.5030    0.3190 C   0  0  0  0  0  0  0  0  0  0  0  0
   -4.1700   -0.7110   -0.3650 C   0  0  0  0  0  0  0  0  0  0  0  0
   -2.8450   -0.8830    0.3860 C   0  0  0  0  0  0  0  0  0  0  0  0
   -1.7730   -0.1000   -0.2960 C   0  0  0  0  0  0  0  0  0  0  0  0
   -0.8130   -0.6830   -1.0880 C   0  0  0  0  0  0  0  0  0  0  0  0
    0.1670    0.0900   -1.7100 C   0  0  0  0  0  0  0  0  0  0  0  0
    1.1650   -0.5810   -2.5460 C   0  0  0  0  0  0  0  0  0  0  0  0
    2.2970   -1.1130   -1.7960 N   0  0  0  0  0  0  0  0  0  0  0  0
    3.3420   -0.2940   -1.3090 C   0  0  0  0  0  0  0  0  0  0  0  0
    3.3230    0.9540   -1.5190 O   0  0  0  0  0  0  0  0  0  0  0  0
    4.4630   -0.8330   -0.5630 C   0  0  0  0  0  0  0  0  0  0  0  0
    5.5620   -0.0510   -0.2280 C   0  0  0  0  0  0  0  0  0  0  0  0
    6.6380   -0.4970    0.4710 C   0  0  0  0  0  0  0  0  0  0  0  0
    7.8010    0.3400    0.8220 C   0  0  0  0  0  0  0  0  0  0  0  0
    6.6210   -1.7980    0.8600 N   0  0  0  0  0  0  0  0  0  0  0  0
    5.5950   -2.6140    0.5740 C   0  0  0  0  0  0  0  0  0  0  0  0
    5.6080   -3.8150    0.9470 O   0  0  0  0  0  0  0  0  0  0  0  0
    4.5060   -2.1400   -0.1400 C   0  0  0  0  0  0  0  0  0  0  0  0
    0.1560    1.4540   -1.5160 C   0  0  0  0  0  0  0  0  0  0  0  0
   -0.7880    2.0700   -0.7310 C   0  0  0  0  0  0  0  0  0  0  0  0
   -1.7420    1.2760   -0.1310 C   0  0  0  0  0  0  0  0  0  0  0  0
   -2.7250    1.8640    0.6790 O   0  0  0  0  0  0  0  0  0  0  0  0
   -2.4590    3.1880    1.1240 C   0  0  2  0  0  0  0  0  0  0  0  0
   -3.6740    3.8250    1.7480 C   0  0  0  0  0  0  0  0  0  0  0  0
   -2.0750    3.9820   -0.1340 C   0  0  0  0  0  0  0  0  0  0  0  0
   -0.8050    3.4560   -0.5290 O   0  0  0  0  0  0  0  0  0  0  0  0
  1  2  1  0
  2  3  1  0
  3  4  1  0
  4  5  1  0
  5  6  1  0
  6  7  2  0
  6 23  1  0
  7  8  1  0
  8  9  1  0
  8 21  2  0
  9 10  1  0
 10 11  1  0
 11 12  2  0
 11 13  1  0
 13 14  1  0
 13 20  2  0
 14 15  2  0
 15 16  1  0
 15 17  1  0
 17 18  1  0
 18 19  2  0
 18 20  1  0
 21 22  1  0
 22 23  2  0
 22 28  1  0
 23 24  1  0
 24 25  1  0
 25 26  1  6
 25 27  1  0
 27 28  1  0
M  END
