
     RDKit          3D

 28 30  0  0  0  0  0  0  0  0999 V2000
    8.7790    0.5540   -2.1880 C   0  0  0  0  0  0  0  0  0  0  0  0
    8.0690   -0.5920   -1.7970 O   0  0  0  0  0  0  0  0  0  0  0  0
    6.8780   -0.4960   -1.1080 C   0  0  0  0  0  0  0  0  0  0  0  0
    6.3260    0.7080   -0.7700 C   0  0  0  0  0  0  0  0  0  0  0  0
    5.1230    0.7800   -0.0740 C   0  0  0  0  0  0  0  0  0  0  0  0
    4.4870   -0.3720    0.2750 C   0  0  0  0  0  0  0  0  0  0  0  0
    3.2030   -0.3080    1.0190 C   0  0  0  0  0  0  0  0  0  0  0  0
    2.0940   -0.2950    0.0330 C   0  0  0  0  0  0  0  0  0  0  0  0
    2.2930   -0.3310   -1.2000 O   0  0  0  0  0  0  0  0  0  0  0  0
    0.7140   -0.2400    0.4710 N   0  0  0  0  0  0  0  0  0  0  0  0
   -0.2660   -0.2330   -0.5330 C   0  0  0  0  0  0  0  0  0  0  0  0
   -1.6820   -0.1690   -0.0180 C   0  0  0  0  0  0  0  0  0  0  0  0
   -1.8840   -0.1270    1.2510 C   0  0  0  0  0  0  0  0  0  0  0  0
   -3.2020   -0.0810    1.9090 C   0  0  0  0  0  0  0  0  0  0  0  0
   -4.1960   -1.0700    1.8580 C   0  0  0  0  0  0  0  0  0  0  0  0
   -5.2740   -0.6470    2.6030 C   0  0  0  0  0  0  0  0  0  0  0  0
   -4.9020    0.6030    3.0920 C   0  0  0  0  0  0  0  0  0  0  0  0
   -5.7390    1.4450    3.9440 C   0  0  0  0  0  0  0  0  0  0  0  0
   -6.8690    1.0360    4.2710 O   0  0  0  0  0  0  0  0  0  0  0  0
   -3.6960    0.8650    2.6520 O   0  0  0  0  0  0  0  0  0  0  0  0
   -2.6440   -0.0040   -1.1080 C   0  0  0  0  0  0  0  0  0  0  0  0
   -2.2490   -0.1780   -2.3320 O   0  0  0  0  0  0  0  0  0  0  0  0
   -3.9980    0.3400   -1.0170 N   0  0  0  0  0  0  0  0  0  0  0  0
   -4.8680    0.4600   -2.1790 C   0  0  2  0  0  0  0  0  0  0  0  0
   -6.1540    1.1400   -2.1130 C   0  0  0  0  0  0  0  0  0  0  0  0
   -6.1400   -0.3920   -2.0130 C   0  0  0  0  0  0  0  0  0  0  0  0
    5.0200   -1.6150   -0.0530 C   0  0  0  0  0  0  0  0  0  0  0  0
    6.2000   -1.6540   -0.7350 C   0  0  0  0  0  0  0  0  0  0  0  0
  1  2  1  0
  2  3  1  0
  3  4  2  0
  3 28  1  0
  4  5  1  0
  5  6  2  0
  6  7  1  0
  6 27  1  0
  7  8  1  0
  8  9  2  0
  8 10  1  0
 10 11  1  0
 11 12  1  0
 12 13  2  3
 12 21  1  0
 13 14  1  0
 14 15  2  0
 14 20  1  0
 15 16  1  0
 16 17  2  0
 17 18  1  0
 17 20  1  0
 18 19  2  0
 21 22  2  0
 21 23  1  0
 24 23  1  1
 24 25  1  0
 24 26  1  0
 25 26  1  0
 27 28  2  0
M  END
