
     RDKit          3D

 28 29  0  0  0  0  0  0  0  0999 V2000
   -1.7930   -4.6050   -0.6680 C   0  0  0  0  0  0  0  0  0  0  0  0
   -2.4730   -3.5480   -0.4030 C   0  0  0  0  0  0  0  0  0  0  0  0
   -3.9730   -3.6340   -0.3980 C   0  0  0  0  0  0  0  0  0  0  0  0
   -4.5080   -2.7570   -1.3510 O   0  0  0  0  0  0  0  0  0  0  0  0
   -5.8800   -2.8010   -1.3830 C   0  0  0  0  0  0  0  0  0  0  0  0
   -1.9070   -2.2790   -0.1100 N   0  0  0  0  0  0  0  0  0  0  0  0
   -0.5270   -1.9800   -0.0640 C   0  0  0  0  0  0  0  0  0  0  0  0
    0.2800   -2.9130   -0.3030 O   0  0  0  0  0  0  0  0  0  0  0  0
    0.0640   -0.6440    0.2470 C   0  0  0  0  0  0  0  0  0  0  0  0
   -0.7540    0.3170    0.5000 C   0  0  0  0  0  0  0  0  0  0  0  0
   -0.7040    1.7080    0.8290 C   0  0  0  0  0  0  0  0  0  0  0  0
    0.4150    2.6230    0.9040 C   0  0  0  0  0  0  0  0  0  0  0  0
   -1.9280    2.2740    1.0360 C   0  0  0  0  0  0  0  0  0  0  0  0
   -2.1070    3.6530    1.3800 C   0  0  0  0  0  0  0  0  0  0  0  0
   -3.0830    4.4420    0.7610 C   0  0  0  0  0  0  0  0  0  0  0  0
   -3.0130    5.7010    1.3010 C   0  0  0  0  0  0  0  0  0  0  0  0
   -2.0080    5.6520    2.2260 C   0  0  0  0  0  0  0  0  0  0  0  0
   -1.5070    4.4460    2.2430 O   0  0  0  0  0  0  0  0  0  0  0  0
    1.5140   -0.5320    0.3390 C   0  0  0  0  0  0  0  0  0  0  0  0
    2.1050    0.5210    0.7270 O   0  0  0  0  0  0  0  0  0  0  0  0
    2.4490   -1.5640    0.0110 N   0  0  0  0  0  0  0  0  0  0  0  0
    3.8990   -1.3110    0.1490 C   0  0  0  0  0  0  0  0  0  0  0  0
    4.3800   -0.2540   -0.7340 C   0  0  0  0  0  0  0  0  0  0  0  0
    3.7310    0.5000   -1.6620 C   0  0  0  0  0  0  0  0  0  0  0  0
    4.6760    1.3620   -2.2350 C   0  0  0  0  0  0  0  0  0  0  0  0
    5.8090    1.1060   -1.6560 O   0  0  0  0  0  0  0  0  0  0  0  0
    5.7010    0.1690   -0.7670 C   0  0  0  0  0  0  0  0  0  0  0  0
    6.8290   -0.3480    0.0660 C   0  0  0  0  0  0  0  0  0  0  0  0
  1  2  2  0
  2  3  1  0
  2  6  1  0
  3  4  1  0
  4  5  1  0
  6  7  1  0
  7  8  2  0
  7  9  1  0
  9 10  2  3
  9 19  1  0
 10 11  1  0
 11 12  1  0
 11 13  2  3
 13 14  1  0
 14 15  2  0
 14 18  1  0
 15 16  1  0
 16 17  2  0
 17 18  1  0
 19 20  2  0
 19 21  1  0
 21 22  1  0
 22 23  1  0
 23 24  1  0
 23 27  2  0
 24 25  2  0
 25 26  1  0
 26 27  1  0
 27 28  1  0
M  END
