
     RDKit          3D

 28 29  0  0  0  0  0  0  0  0999 V2000
   -5.2720    2.4920   -3.3890 C   0  0  0  0  0  0  0  0  0  0  0  0
   -5.2210    3.1750   -2.0490 C   0  0  0  0  0  0  0  0  0  0  0  0
   -4.3660    2.4660   -1.1860 O   0  0  0  0  0  0  0  0  0  0  0  0
   -4.5430    1.1530   -0.7960 C   0  0  0  0  0  0  0  0  0  0  0  0
   -5.5390    0.5290   -1.2410 O   0  0  0  0  0  0  0  0  0  0  0  0
   -3.5650    0.5240    0.1270 C   0  0  0  0  0  0  0  0  0  0  0  0
   -2.5000    1.1750    0.6060 N   0  0  0  0  0  0  0  0  0  0  0  0
   -1.7880    0.3740    1.4190 C   0  0  0  0  0  0  0  0  0  0  0  0
   -0.5440    0.7900    2.1410 C   0  0  0  0  0  0  0  0  0  0  0  0
    0.6770    0.2290    1.4960 C   0  0  0  0  0  0  0  0  0  0  0  0
    0.8440    0.6380    0.0730 C   0  0  0  0  0  0  0  0  0  0  0  0
    2.0480    0.0870   -0.4990 N   0  0  0  0  0  0  0  0  0  0  0  0
    3.3010    0.4550    0.0140 C   0  0  0  0  0  0  0  0  0  0  0  0
    3.3650    1.2720    0.9610 O   0  0  0  0  0  0  0  0  0  0  0  0
    4.5650   -0.0910   -0.5330 C   0  0  0  0  0  0  0  0  0  0  0  0
    4.6960   -1.0820   -1.3790 O   0  0  0  0  0  0  0  0  0  0  0  0
    5.9770   -1.2960   -1.6480 C   0  0  0  0  0  0  0  0  0  0  0  0
    6.7480   -0.3960   -0.9410 C   0  0  0  0  0  0  0  0  0  0  0  0
    8.2250   -0.2420   -0.9170 C   0  0  0  0  0  0  0  0  0  0  0  0
    5.8270    0.3780   -0.2240 C   0  0  0  0  0  0  0  0  0  0  0  0
    6.2360    1.4830    0.6570 C   0  0  0  0  0  0  0  0  0  0  0  0
   -2.4370   -0.8350    1.4480 C   0  0  0  0  0  0  0  0  0  0  0  0
   -2.0040   -1.9860    2.1990 C   0  0  0  0  0  0  0  0  0  0  0  0
   -1.1130   -3.0370    1.6830 C   0  0  0  0  0  0  0  0  0  0  0  0
   -2.4250   -2.0920    3.3860 O   0  0  0  0  0  0  0  0  0  0  0  0
   -3.5510   -0.7380    0.6390 C   0  0  0  0  0  0  0  0  0  0  0  0
   -4.5690   -1.7510    0.3480 C   0  0  0  0  0  0  0  0  0  0  0  0
   -4.1670   -3.1670    0.5810 C   0  0  0  0  0  0  0  0  0  0  0  0
  1  2  1  0
  2  3  1  0
  3  4  1  0
  4  5  2  0
  4  6  1  0
  6  7  1  0
  6 26  2  0
  7  8  1  0
  8  9  1  0
  8 22  2  0
  9 10  1  0
 10 11  1  0
 11 12  1  0
 12 13  1  0
 13 14  2  0
 13 15  1  0
 15 16  1  0
 15 20  2  0
 16 17  1  0
 17 18  2  0
 18 19  1  0
 18 20  1  0
 20 21  1  0
 22 23  1  0
 22 26  1  0
 23 24  1  0
 23 25  2  0
 26 27  1  0
 27 28  1  0
M  END
