
     RDKit          3D

 28 29  0  0  0  0  0  0  0  0999 V2000
    7.2610   -1.8450   -0.3770 C   0  0  0  0  0  0  0  0  0  0  0  0
    6.5460   -0.7670   -1.1080 C   0  0  0  0  0  0  0  0  0  0  0  0
    5.3180   -0.4620   -0.7160 C   0  0  0  0  0  0  0  0  0  0  0  0
    4.6890   -1.1960    0.4360 C   0  0  0  0  0  0  0  0  0  0  0  0
    3.3730   -1.6220    0.0820 N   0  0  0  0  0  0  0  0  0  0  0  0
    2.8950   -1.0950   -1.1500 C   0  0  0  0  0  0  0  0  0  0  0  0
    3.1060    0.3820   -1.3280 C   0  0  1  0  0  0  0  0  0  0  0  0
    2.5110    1.1940   -0.2430 C   0  0  0  0  0  0  0  0  0  0  0  0
    1.1820    1.3140   -0.0730 O   0  0  0  0  0  0  0  0  0  0  0  0
    0.1550    0.5200    0.2640 C   0  0  0  0  0  0  0  0  0  0  0  0
    0.3660   -0.6660    0.5220 O   0  0  0  0  0  0  0  0  0  0  0  0
   -1.2020    1.1120    0.3110 C   0  0  0  0  0  0  0  0  0  0  0  0
   -1.4490    2.4350    0.0240 C   0  0  0  0  0  0  0  0  0  0  0  0
   -2.7170    2.9830    0.0680 C   0  0  0  0  0  0  0  0  0  0  0  0
   -2.9040    4.4020   -0.2490 C   0  0  0  0  0  0  0  0  0  0  0  0
   -3.1300    5.2650    0.9730 C   0  0  0  0  0  0  0  0  0  0  0  0
   -3.7480    2.1490    0.4140 C   0  0  0  0  0  0  0  0  0  0  0  0
   -5.1310    2.7170    0.4690 C   0  0  0  0  0  0  0  0  0  0  0  0
   -3.5790    0.8130    0.7140 C   0  0  0  0  0  0  0  0  0  0  0  0
   -2.2740    0.3160    0.6530 C   0  0  0  0  0  0  0  0  0  0  0  0
   -1.9930   -1.0910    0.9550 C   0  0  0  0  0  0  0  0  0  0  0  0
   -1.7330   -1.4410    2.1140 O   0  0  0  0  0  0  0  0  0  0  0  0
   -2.0250   -2.0450   -0.1010 N   0  0  0  0  0  0  0  0  0  0  0  0
   -2.3260   -1.6670   -1.4640 C   0  0  0  0  0  0  0  0  0  0  0  0
   -1.7490   -3.4400    0.1820 C   0  0  0  0  0  0  0  0  0  0  0  0
   -3.0170   -4.1830    0.5290 C   0  0  0  0  0  0  0  0  0  0  0  0
   -2.6570   -5.5180    0.7870 O   0  0  0  0  0  0  0  0  0  0  0  0
    4.5550    0.5200   -1.3170 O   0  0  0  0  0  0  0  0  0  0  0  0
  1  2  1  0
  2  3  2  3
  3  4  1  0
  3 28  1  0
  4  5  1  0
  5  6  1  0
  6  7  1  0
  7  8  1  1
  7 28  1  0
  8  9  1  0
  9 10  1  0
 10 11  2  0
 10 12  1  0
 12 13  2  0
 12 20  1  0
 13 14  1  0
 14 15  1  0
 14 17  2  0
 15 16  1  0
 17 18  1  0
 17 19  1  0
 19 20  2  0
 20 21  1  0
 21 22  2  0
 21 23  1  0
 23 24  1  0
 23 25  1  0
 25 26  1  0
 26 27  1  0
M  END
