
     RDKit          3D

 20 20  0  0  0  0  0  0  0  0999 V2000
    5.0690    0.6480    1.0650 O   0  0  0  0  0  0  0  0  0  0  0  0
    4.2560    1.4750    0.0900 P   0  0  1  0  0  0  0  0  0  0  0  0
    3.8920    2.9700    0.7900 O   0  0  0  0  0  0  0  0  0  0  0  0
    5.1550    1.6700   -1.3380 O   0  0  0  0  0  0  0  0  0  0  0  0
    2.8260    0.6560   -0.3130 O   0  0  0  0  0  0  0  0  0  0  0  0
    2.2510    0.2420    0.8780 C   0  0  0  0  0  0  0  0  0  0  0  0
    0.9060   -0.3940    0.6940 C   0  0  1  0  0  0  0  0  0  0  0  0
   -0.0800    0.4750    0.2790 O   0  0  0  0  0  0  0  0  0  0  0  0
   -0.8580   -0.1490   -0.6720 C   0  0  2  0  0  0  0  0  0  0  0  0
   -0.4210    0.2880   -1.9320 O   0  0  0  0  0  0  0  0  0  0  0  0
   -2.3230    0.1500   -0.5550 C   0  0  0  0  0  0  0  0  0  0  0  0
   -2.7710    0.1340    0.7650 O   0  0  0  0  0  0  0  0  0  0  0  0
   -4.3770    0.6560    0.7880 P   0  0  1  0  0  0  0  0  0  0  0  0
   -4.7090    1.5090   -0.4030 O   0  0  0  0  0  0  0  0  0  0  0  0
   -5.3530   -0.7230    0.7490 O   0  0  0  0  0  0  0  0  0  0  0  0
   -4.6640    1.5470    2.1840 O   0  0  0  0  0  0  0  0  0  0  0  0
   -0.5600   -1.6420   -0.5780 C   0  0  1  0  0  0  0  0  0  0  0  0
   -0.8430   -2.3150   -1.7440 O   0  0  0  0  0  0  0  0  0  0  0  0
    0.9380   -1.5470   -0.3010 C   0  0  2  0  0  0  0  0  0  0  0  0
    1.4470   -2.7040    0.2510 O   0  0  0  0  0  0  0  0  0  0  0  0
  1  2  2  0
  2  3  1  1
  2  4  1  0
  2  5  1  0
  5  6  1  0
  7  6  1  6
  7  8  1  0
  7 19  1  0
  8  9  1  0
  9 10  1  6
  9 11  1  0
  9 17  1  0
 11 12  1  0
 12 13  1  0
 13 14  2  0
 13 15  1  1
 13 16  1  0
 17 18  1  6
 17 19  1  0
 19 20  1  1
M  END
