
     RDKit          3D

 21 21  0  0  0  0  0  0  0  0999 V2000
    0.6630    0.6110    1.6450 O   0  0  0  0  0  0  0  0  0  0  0  0
    0.7380    1.1210    0.4800 C   0  0  0  0  0  0  0  0  0  0  0  0
    0.0540    2.2820    0.2360 N   0  0  0  0  0  0  0  0  0  0  0  0
   -1.1010    2.6150    0.0030 C   0  0  0  0  0  0  0  0  0  0  0  0
   -2.1990    1.7510   -0.0900 N   0  0  0  0  0  0  0  0  0  0  0  0
   -2.1830    0.5060   -0.8070 C   0  0  2  0  0  0  0  0  0  0  0  0
   -1.4000   -0.4710   -0.2640 O   0  0  0  0  0  0  0  0  0  0  0  0
   -1.7390    0.7670   -2.2380 C   0  0  0  0  0  0  0  0  0  0  0  0
   -1.6980   -0.3860   -2.9910 O   0  0  0  0  0  0  0  0  0  0  0  0
   -3.9630   -0.1020   -0.8680 P   0  0  0  0  0  0  0  0  0  0  0  0
   -4.2900   -1.1710    0.4510 O   0  0  0  0  0  0  0  0  0  0  0  0
   -5.0310    1.2820   -0.8490 O   0  0  0  0  0  0  0  0  0  0  0  0
    1.5090    0.5050   -0.5250 N   0  0  0  0  0  0  0  0  0  0  0  0
    2.2550   -0.6940   -0.3590 C   0  0  0  0  0  0  0  0  0  0  0  0
    3.3450   -0.6800    0.6540 C   0  0  2  0  0  0  0  0  0  0  0  0
    4.2980    0.3040    0.4180 O   0  0  0  0  0  0  0  0  0  0  0  0
    4.0380   -2.0690    0.5920 C   0  0  0  0  0  0  0  0  0  0  0  0
    3.0490   -2.8420    1.2500 O   0  0  0  0  0  0  0  0  0  0  0  0
    2.4080   -2.0170    2.1850 C   0  0  0  0  0  0  0  0  0  0  0  0
    1.5960   -2.4400    3.0720 O   0  0  0  0  0  0  0  0  0  0  0  0
    2.8290   -0.7180    1.9460 O   0  0  0  0  0  0  0  0  0  0  0  0
  1  2  2  0
  2  3  1  0
  2 13  1  0
  3  4  2  3
  4  5  1  0
  5  6  1  0
  6  7  1  1
  6  8  1  0
  6 10  1  0
  8  9  1  0
 10 11  1  0
 10 12  1  0
 13 14  1  0
 14 15  1  0
 15 16  1  1
 15 17  1  0
 15 21  1  0
 17 18  1  0
 18 19  1  0
 19 20  2  0
 19 21  1  0
M  END
