
     RDKit          3D

 27 30  0  0  0  0  0  0  0  0999 V2000
   -4.4230   -0.9750    1.5580 N   0  0  0  0  0  0  0  0  0  0  0  0
   -3.8910    0.0460    0.1870 P   0  0  0  0  0  0  0  0  0  0  0  0
   -3.3660   -0.9640   -1.0910 O   0  0  0  0  0  0  0  0  0  0  0  0
   -2.4020   -0.5500   -1.8360 O   0  0  0  0  0  0  0  0  0  0  0  0
   -1.4070    0.3560   -1.7210 C   0  0  0  0  0  0  0  0  0  0  0  0
   -0.9550    1.0820   -2.6850 N   0  0  0  0  0  0  0  0  0  0  0  0
   -1.3860    1.0690   -3.9590 O   0  0  0  0  0  0  0  0  0  0  0  0
   -0.7480    0.5610   -0.3750 C   0  0  1  0  0  0  0  0  0  0  0  0
    0.2930    2.0720   -0.5890 P   0  0  0  0  0  0  0  0  0  0  0  0
    1.9090    1.7620   -0.4400 C   0  0  0  0  0  0  0  0  0  0  0  0
    2.9010    2.7690   -0.5650 O   0  0  0  0  0  0  0  0  0  0  0  0
    2.4370    4.0360   -0.4980 O   0  0  0  0  0  0  0  0  0  0  0  0
    2.2590    0.4190   -0.1770 N   0  0  0  0  0  0  0  0  0  0  0  0
    3.6220    0.2390   -0.0680 O   0  0  0  0  0  0  0  0  0  0  0  0
    4.0510    0.6640    1.0990 O   0  0  0  0  0  0  0  0  0  0  0  0
    1.4040   -0.6690   -0.0290 N   0  0  0  0  0  0  0  0  0  0  0  0
    2.0480   -1.9620   -0.0450 C   0  0  0  0  0  0  0  0  0  0  0  0
    3.1330   -2.1440   -0.7310 O   0  0  0  0  0  0  0  0  0  0  0  0
    1.5850   -3.1420    0.6700 C   0  0  0  0  0  0  0  0  0  0  0  0
    0.1990   -2.9390    1.5750 P   0  0  0  0  0  0  0  0  0  0  0  0
   -0.4180   -1.1800    1.4300 C   0  0  0  0  0  0  0  0  0  0  0  0
   -1.0680   -0.6700    2.4080 N   0  0  0  0  0  0  0  0  0  0  0  0
   -1.5890    0.6440    2.4280 C   0  0  0  0  0  0  0  0  0  0  0  0
   -1.7230    1.3890    3.3890 O   0  0  0  0  0  0  0  0  0  0  0  0
   -2.1000    1.2260    0.7720 P   0  0  0  0  0  0  0  0  0  0  0  0
   -0.0410   -0.6150    0.1390 C   0  0  1  0  0  0  0  0  0  0  0  0
   -0.6530   -2.0350   -1.1290 Br  0  0  0  0  0  0  0  0  0  0  0  0
  1  2  1  0
  2  3  1  0
  2 25  1  0
  3  4  1  0
  4  5  1  0
  5  6  2  3
  5  8  1  0
  6  7  1  0
  8  9  1  6
  8 25  1  0
  8 26  1  0
  9 10  2  0
 10 11  1  0
 10 13  1  0
 11 12  1  0
 13 14  1  0
 13 16  1  0
 14 15  1  0
 16 17  1  0
 16 26  1  0
 17 18  2  0
 17 19  1  0
 19 20  2  0
 20 21  1  0
 21 22  2  0
 21 26  1  0
 22 23  1  0
 23 24  2  0
 23 25  1  0
 26 27  1  6
M  END
