
     RDKit          3D

 21 22  0  0  0  0  0  0  0  0999 V2000
    1.4070    1.1380    2.5130 O   0  0  0  0  0  0  0  0  0  0  0  0
    2.1690    1.5980    1.6400 C   0  0  0  0  0  0  0  0  0  0  0  0
    2.0520    2.9530    1.3400 O   0  0  0  0  0  0  0  0  0  0  0  0
    3.0700    0.7730    1.0260 O   0  0  0  0  0  0  0  0  0  0  0  0
    3.2140   -0.6030    1.3070 C   0  0  2  0  0  0  0  0  0  0  0  0
    4.4920   -0.9330    1.7440 O   0  0  0  0  0  0  0  0  0  0  0  0
    5.1580   -1.3940    0.6750 O   0  0  0  0  0  0  0  0  0  0  0  0
    4.2150   -1.8850   -0.1920 N   0  0  0  0  0  0  0  0  0  0  0  0
    3.0420   -1.4570    0.1210 C   0  0  0  0  0  0  0  0  0  0  0  0
    1.7920   -1.7870   -0.5990 C   0  0  0  0  0  0  0  0  0  0  0  0
    1.8690   -2.5630   -1.6230 N   0  0  0  0  0  0  0  0  0  0  0  0
    0.7170   -2.8730   -2.2960 O   0  0  0  0  0  0  0  0  0  0  0  0
   -0.4340   -2.0540   -2.2330 C   0  0  0  0  0  0  0  0  0  0  0  0
   -0.6740   -1.5920   -0.8040 C   0  0  2  0  0  0  0  0  0  0  0  0
   -1.6270   -0.4800   -0.7350 C   0  0  0  0  0  0  0  0  0  0  0  0
   -2.7680   -0.6500   -1.2380 O   0  0  0  0  0  0  0  0  0  0  0  0
   -1.3590    0.7810   -0.1400 N   0  0  0  0  0  0  0  0  0  0  0  0
   -2.3410    1.8250   -0.1080 C   0  0  0  0  0  0  0  0  0  0  0  0
   -3.5980    1.4360    0.6260 C   0  0  0  0  0  0  0  0  0  0  0  0
   -4.4580    2.5530    0.5720 O   0  0  0  0  0  0  0  0  0  0  0  0
    0.5730   -1.2970   -0.2120 O   0  0  0  0  0  0  0  0  0  0  0  0
  1  2  2  0
  2  3  1  0
  2  4  1  0
  5  4  1  6
  5  6  1  0
  5  9  1  0
  6  7  1  0
  7  8  1  0
  8  9  2  0
  9 10  1  0
 10 11  2  0
 10 21  1  0
 11 12  1  0
 12 13  1  0
 13 14  1  0
 14 15  1  6
 14 21  1  0
 15 16  2  0
 15 17  1  0
 17 18  1  0
 18 19  1  0
 19 20  1  0
M  END
