
     RDKit          3D

 21 21  0  0  0  0  0  0  0  0999 V2000
    5.6790   -0.0310    0.8470 O   0  0  0  0  0  0  0  0  0  0  0  0
    5.2560   -0.1740   -0.3220 C   0  0  0  0  0  0  0  0  0  0  0  0
    5.6880   -1.3960   -0.9860 O   0  0  0  0  0  0  0  0  0  0  0  0
    4.4500    0.7360   -0.9280 O   0  0  0  0  0  0  0  0  0  0  0  0
    3.9390    1.8750   -0.2180 C   0  0  0  0  0  0  0  0  0  0  0  0
    2.6020    1.3790    0.3520 C   0  0  1  0  0  0  0  0  0  0  0  0
    1.7400    1.0730   -0.8570 C   0  0  0  0  0  0  0  0  0  0  0  0
    0.7510    0.2110   -0.2300 N   0  0  0  0  0  0  0  0  0  0  0  0
   -0.6470    0.4120   -0.3030 C   0  0  0  0  0  0  0  0  0  0  0  0
   -1.0430    1.5340   -0.6080 O   0  0  0  0  0  0  0  0  0  0  0  0
   -1.4720   -0.6950    0.0160 N   0  0  0  0  0  0  0  0  0  0  0  0
   -2.9020   -0.4120    0.1820 C   0  0  0  0  0  0  0  0  0  0  0  0
   -3.1760    0.7930    0.3840 O   0  0  0  0  0  0  0  0  0  0  0  0
   -3.8260   -1.5460    0.0750 C   0  0  2  0  0  0  0  0  0  0  0  0
   -4.1370   -1.7350   -1.3100 O   0  0  0  0  0  0  0  0  0  0  0  0
   -5.1730   -1.1140    0.7550 C   0  0  0  0  0  0  0  0  0  0  0  0
   -5.6000   -0.1490   -0.2100 O   0  0  0  0  0  0  0  0  0  0  0  0
   -5.7810    0.9630    0.1890 O   0  0  0  0  0  0  0  0  0  0  0  0
    1.5140   -0.6510    0.6090 C   0  0  0  0  0  0  0  0  0  0  0  0
    1.2540   -1.8370    0.9110 O   0  0  0  0  0  0  0  0  0  0  0  0
    2.7040    0.1530    1.0570 N   0  0  0  0  0  0  0  0  0  0  0  0
  1  2  2  0
  2  3  1  0
  2  4  1  0
  4  5  1  0
  6  5  1  6
  6  7  1  0
  6 21  1  0
  7  8  1  0
  8  9  1  0
  8 19  1  0
  9 10  2  0
  9 11  1  0
 11 12  1  0
 12 13  2  0
 12 14  1  0
 14 15  1  6
 14 16  1  0
 16 17  1  0
 17 18  1  0
 19 20  2  0
 19 21  1  0
M  END
