
     RDKit          3D

  9 10  0  0  0  0  0  0  0  0999 V2000
    2.2310   -0.4020   -0.3110 C   0  0  0  0  0  0  0  0  0  0  0  0
    2.6880    0.8760   -0.2440 N   0  0  0  0  0  0  0  0  0  0  0  0
    1.6410    1.6480   -0.1280 N   0  0  0  0  0  0  0  0  0  0  0  0
    0.5010    0.9150   -0.1160 C   0  0  0  0  0  0  0  0  0  0  0  0
    0.8720   -0.4000   -0.2330 C   0  0  0  0  0  0  0  0  0  0  0  0
   -0.1750   -1.4440   -0.2490 C   0  0  0  0  0  0  0  0  0  0  0  0
   -1.2530   -0.9760    0.7390 C   0  0  0  0  0  0  0  0  0  0  0  0
   -1.8770    0.2520    0.1150 C   0  0  0  0  0  0  0  0  0  0  0  0
   -0.8960    1.3690   -0.0020 C   0  0  0  0  0  0  0  0  0  0  0  0
  1  2  1  0
  1  5  2  0
  2  3  1  0
  3  4  2  0
  4  5  1  0
  4  9  1  0
  5  6  1  0
  6  7  1  0
  7  8  1  0
  8  9  1  0
M  END
