
     RDKit          3D

  9 10  0  0  0  0  0  0  0  0999 V2000
   -2.1760    0.1840   -0.0070 C   0  0  0  0  0  0  0  0  0  0  0  0
   -1.9750   -1.1700    0.0500 C   0  0  0  0  0  0  0  0  0  0  0  0
   -0.7180   -1.6390    0.0690 N   0  0  0  0  0  0  0  0  0  0  0  0
    0.3610   -0.8060    0.0330 C   0  0  0  0  0  0  0  0  0  0  0  0
    1.6920   -1.0020    0.0410 N   0  0  0  0  0  0  0  0  0  0  0  0
    2.3740    0.1520   -0.0080 C   0  0  0  0  0  0  0  0  0  0  0  0
    1.4220    1.1470   -0.0490 C   0  0  0  0  0  0  0  0  0  0  0  0
    0.1770    0.5500   -0.0230 C   0  0  0  0  0  0  0  0  0  0  0  0
   -1.1200    1.0530   -0.0430 C   0  0  0  0  0  0  0  0  0  0  0  0
  1  2  2  0
  1  9  1  0
  2  3  1  0
  3  4  2  0
  4  5  1  0
  4  8  1  0
  5  6  1  0
  6  7  2  0
  7  8  1  0
  8  9  2  0
M  END
