
     RDKit          3D

  9 10  0  0  0  0  0  0  0  0999 V2000
    2.1180    1.1330    0.1780 C   0  0  0  0  0  0  0  0  0  0  0  0
    2.8880    0.0360    0.0940 N   0  0  0  0  0  0  0  0  0  0  0  0
    2.1190   -1.0360   -0.0150 N   0  0  0  0  0  0  0  0  0  0  0  0
    0.8140   -0.6870   -0.0070 C   0  0  0  0  0  0  0  0  0  0  0  0
    0.8190    0.6900    0.1150 C   0  0  0  0  0  0  0  0  0  0  0  0
   -0.4490    1.4900    0.1640 C   0  0  0  0  0  0  0  0  0  0  0  0
   -1.4990    0.6330   -0.5320 C   0  0  0  0  0  0  0  0  0  0  0  0
   -1.6060   -0.6450    0.2950 C   0  0  0  0  0  0  0  0  0  0  0  0
   -0.4210   -1.4940   -0.1010 C   0  0  0  0  0  0  0  0  0  0  0  0
  1  2  2  0
  1  5  1  0
  2  3  1  0
  3  4  1  0
  4  5  2  0
  4  9  1  0
  5  6  1  0
  6  7  1  0
  7  8  1  0
  8  9  1  0
M  END
