
     RDKit          3D

  9 10  0  0  0  0  0  0  0  0999 V2000
   -1.8440   -0.7490   -0.0910 C   0  0  0  0  0  0  0  0  0  0  0  0
   -2.0250    0.6180   -0.1380 C   0  0  0  0  0  0  0  0  0  0  0  0
   -0.9350    1.4050   -0.0930 N   0  0  0  0  0  0  0  0  0  0  0  0
    0.3220    0.8970   -0.0040 C   0  0  0  0  0  0  0  0  0  0  0  0
    1.5530    1.4310    0.0560 N   0  0  0  0  0  0  0  0  0  0  0  0
    2.4980    0.4770    0.1370 C   0  0  0  0  0  0  0  0  0  0  0  0
    1.8750   -0.7530    0.1320 C   0  0  0  0  0  0  0  0  0  0  0  0
    0.5200   -0.5460    0.0450 C   0  0  0  0  0  0  0  0  0  0  0  0
   -0.6020   -1.3420   -0.0010 C   0  0  0  0  0  0  0  0  0  0  0  0
  1  2  2  0
  1  9  1  0
  2  3  1  0
  3  4  1  0
  4  5  2  0
  4  8  1  0
  5  6  1  0
  6  7  2  0
  7  8  1  0
  8  9  2  0
M  END
