
     RDKit          3D

  9 10  0  0  0  0  0  0  0  0999 V2000
    1.9590    0.1630    0.0830 C   0  0  0  0  0  0  0  0  0  0  0  0
    1.6140   -1.0210   -0.5380 C   0  0  0  0  0  0  0  0  0  0  0  0
    0.2770   -1.3450   -0.7060 C   0  0  0  0  0  0  0  0  0  0  0  0
   -0.7150   -0.4880   -0.2550 C   0  0  0  0  0  0  0  0  0  0  0  0
   -2.0630   -0.5040   -0.2620 N   0  0  0  0  0  0  0  0  0  0  0  0
   -2.5440    0.6030    0.3190 N   0  0  0  0  0  0  0  0  0  0  0  0
   -1.5260    1.3750    0.7230 C   0  0  0  0  0  0  0  0  0  0  0  0
   -0.3690    0.7140    0.3750 C   0  0  0  0  0  0  0  0  0  0  0  0
    0.9660    1.0250    0.5370 C   0  0  0  0  0  0  0  0  0  0  0  0
  1  2  2  0
  1  9  1  0
  2  3  1  0
  3  4  2  0
  4  5  1  0
  4  8  1  0
  5  6  1  0
  6  7  2  0
  7  8  1  0
  8  9  2  0
M  END
