
     RDKit          3D

  9 10  0  0  0  0  0  0  0  0999 V2000
   -1.3900   -1.3950    0.1780 C   0  0  0  0  0  0  0  0  0  0  0  0
   -0.2260   -0.8160    0.1130 C   0  0  0  0  0  0  0  0  0  0  0  0
    1.1380   -1.3470    0.3100 C   0  0  0  0  0  0  0  0  0  0  0  0
    2.1470   -0.3900    0.5290 N   0  0  0  0  0  0  0  0  0  0  0  0
    1.9150    0.9500    0.1780 C   0  0  0  0  0  0  0  0  0  0  0  0
    0.7850    1.2080   -0.7740 C   0  0  0  0  0  0  0  0  0  0  0  0
   -0.3880    0.5740   -0.2090 N   0  0  0  0  0  0  0  0  0  0  0  0
   -1.7270    0.9080    0.1490 C   0  0  0  0  0  0  0  0  0  0  0  0
   -2.4520   -0.3960   -0.1070 C   0  0  0  0  0  0  0  0  0  0  0  0
  1  2  2  0
  1  9  1  0
  2  3  1  0
  2  7  1  0
  3  4  1  0
  4  5  1  0
  5  6  1  0
  6  7  1  0
  7  8  1  0
  8  9  1  0
M  END
