
     RDKit          3D

 22 22  0  0  0  0  0  0  0  0999 V2000
    6.1470    0.1360    0.4700 O   0  0  0  0  0  0  0  0  0  0  0  0
    4.7260    0.2800    0.4810 C   0  0  0  0  0  0  0  0  0  0  0  0
    4.1990   -0.5670   -0.6130 C   0  0  1  0  0  0  0  0  0  0  0  0
    4.6750   -1.8880   -0.3040 O   0  0  0  0  0  0  0  0  0  0  0  0
    2.7560   -0.7450   -0.7660 C   0  0  0  0  0  0  0  0  0  0  0  0
    1.8220    0.3440   -0.9920 C   0  0  2  0  0  0  0  0  0  0  0  0
    2.0250    1.2010   -2.1960 C   0  0  0  0  0  0  0  0  0  0  0  0
    2.0560    0.5220   -3.3870 O   0  0  0  0  0  0  0  0  0  0  0  0
    1.5430    1.2160    0.1980 C   0  0  0  0  0  0  0  0  0  0  0  0
    0.7150    0.5270    1.1250 O   0  0  0  0  0  0  0  0  0  0  0  0
   -0.5910    0.5960    0.6640 C   0  0  2  0  0  0  0  0  0  0  0  0
   -1.2680    1.7220    1.0610 O   0  0  0  0  0  0  0  0  0  0  0  0
   -1.3210   -0.6300    1.1820 C   0  0  2  0  0  0  0  0  0  0  0  0
   -0.6320   -1.7480    0.6580 O   0  0  0  0  0  0  0  0  0  0  0  0
   -2.6230   -0.6120    0.7140 O   0  0  0  0  0  0  0  0  0  0  0  0
   -3.5420   -0.6380    1.7620 C   0  0  0  0  0  0  0  0  0  0  0  0
   -4.9250   -0.6160    1.1830 C   0  0  2  0  0  0  0  0  0  0  0  0
   -5.0970   -1.7430    0.3610 O   0  0  0  0  0  0  0  0  0  0  0  0
   -5.0550    0.6290    0.3050 C   0  0  0  0  0  0  0  0  0  0  0  0
   -6.2970    0.6790   -0.2960 O   0  0  0  0  0  0  0  0  0  0  0  0
   -0.4980    0.5090   -0.8550 C   0  0  0  0  0  0  0  0  0  0  0  0
    0.5480   -0.2900   -1.2340 O   0  0  0  0  0  0  0  0  0  0  0  0
  1  2  1  0
  2  3  1  0
  3  4  1  1
  3  5  1  0
  6  5  1  1
  6  7  1  0
  6  9  1  0
  6 22  1  0
  7  8  1  0
  9 10  1  0
 10 11  1  0
 11 12  1  6
 11 13  1  0
 11 21  1  0
 13 14  1  6
 13 15  1  0
 15 16  1  0
 16 17  1  0
 17 18  1  6
 17 19  1  0
 19 20  1  0
 21 22  1  0
M  END
