
     RDKit          3D

 26 28  0  0  0  0  0  0  0  0999 V2000
    0.4250   -5.5850   -0.4570 C   0  0  0  0  0  0  0  0  0  0  0  0
   -0.2360   -4.2630   -0.2730 C   0  0  0  0  0  0  0  0  0  0  0  0
   -1.5980   -4.1240   -0.1920 C   0  0  0  0  0  0  0  0  0  0  0  0
   -2.1390   -2.8620   -0.0210 C   0  0  0  0  0  0  0  0  0  0  0  0
   -3.6210   -2.7170    0.0660 C   0  0  0  0  0  0  0  0  0  0  0  0
   -1.3640   -1.7330    0.0720 C   0  0  0  0  0  0  0  0  0  0  0  0
   -1.9330   -0.4400    0.2480 N   0  0  0  0  0  0  0  0  0  0  0  0
   -2.2680    0.3300   -0.9290 C   0  0  0  0  0  0  0  0  0  0  0  0
   -2.8500    1.6500   -0.5710 C   0  0  0  0  0  0  0  0  0  0  0  0
   -2.0670    2.7710   -0.3920 C   0  0  0  0  0  0  0  0  0  0  0  0
   -2.6600    3.9710   -0.0600 C   0  0  0  0  0  0  0  0  0  0  0  0
   -3.9970    4.0530    0.0880 N   0  0  0  0  0  0  0  0  0  0  0  0
   -4.7810    2.9750   -0.0810 C   0  0  0  0  0  0  0  0  0  0  0  0
   -4.2070    1.7790   -0.4100 C   0  0  0  0  0  0  0  0  0  0  0  0
    0.0280   -1.8510   -0.0080 C   0  0  0  0  0  0  0  0  0  0  0  0
    0.8410   -0.7010    0.0860 N   0  0  0  0  0  0  0  0  0  0  0  0
    2.2240   -0.5910    0.0320 C   0  0  0  0  0  0  0  0  0  0  0  0
    2.9250   -1.5990   -0.1170 O   0  0  0  0  0  0  0  0  0  0  0  0
    2.9260    0.6600    0.1430 N   0  0  0  0  0  0  0  0  0  0  0  0
    4.3720    0.7170    0.0810 C   0  0  0  0  0  0  0  0  0  0  0  0
    4.8890    2.0780    0.2130 C   0  0  0  0  0  0  0  0  0  0  0  0
    5.1390    2.9900   -0.7660 C   0  0  0  0  0  0  0  0  0  0  0  0
    5.6160    4.1170   -0.1270 C   0  0  0  0  0  0  0  0  0  0  0  0
    5.6540    3.9070    1.1640 O   0  0  0  0  0  0  0  0  0  0  0  0
    5.2250    2.6930    1.4040 C   0  0  0  0  0  0  0  0  0  0  0  0
    0.5390   -3.1140   -0.1780 C   0  0  0  0  0  0  0  0  0  0  0  0
  1  2  1  0
  2  3  2  0
  2 26  1  0
  3  4  1  0
  4  5  1  0
  4  6  2  0
  6  7  1  0
  6 15  1  0
  7  8  1  0
  8  9  1  0
  9 10  2  0
  9 14  1  0
 10 11  1  0
 11 12  2  0
 12 13  1  0
 13 14  2  0
 15 16  1  0
 15 26  2  0
 16 17  1  0
 17 18  2  0
 17 19  1  0
 19 20  1  0
 20 21  1  0
 21 22  1  0
 21 25  2  0
 22 23  2  0
 23 24  1  0
 24 25  1  0
M  CHG  1  12   1
M  END
