
     RDKit          3D

 22 23  0  0  0  0  0  0  0  0999 V2000
    5.4140   -2.1160   -1.1390 O   0  0  0  0  0  0  0  0  0  0  0  0
    5.4230   -1.0100   -0.3200 C   0  0  0  0  0  0  0  0  0  0  0  0
    4.3720   -0.0300   -0.8220 C   0  0  2  0  0  0  0  0  0  0  0  0
    4.3840    1.0720   -0.0020 O   0  0  0  0  0  0  0  0  0  0  0  0
    3.0410    1.3830    0.2150 C   0  0  0  0  0  0  0  0  0  0  0  0
    2.4240    0.0190    0.2440 C   0  0  1  0  0  0  0  0  0  0  0  0
    2.7090   -0.5910    1.4570 O   0  0  0  0  0  0  0  0  0  0  0  0
    0.9500    0.0120   -0.0260 C   0  0  0  0  0  0  0  0  0  0  0  0
    0.2080    0.8230    0.9830 C   0  0  1  0  0  0  0  0  0  0  0  0
    0.5640    2.1440    1.0390 O   0  0  0  0  0  0  0  0  0  0  0  0
   -1.3000    0.6340    0.7700 C   0  0  1  0  0  0  0  0  0  0  0  0
   -1.9260    1.2450    1.8570 O   0  0  0  0  0  0  0  0  0  0  0  0
   -1.6970    1.3230   -0.5190 C   0  0  0  0  0  0  0  0  0  0  0  0
   -2.5260    0.4060   -1.4000 C   0  0  1  0  0  0  0  0  0  0  0  0
   -1.7530   -0.5370   -2.0450 O   0  0  0  0  0  0  0  0  0  0  0  0
   -3.5580   -0.2420   -0.4880 C   0  0  1  0  0  0  0  0  0  0  0  0
   -4.2240    0.7750    0.1750 O   0  0  0  0  0  0  0  0  0  0  0  0
   -4.5590   -1.0290   -1.3030 C   0  0  0  0  0  0  0  0  0  0  0  0
   -5.4980   -1.5460   -0.4120 O   0  0  0  0  0  0  0  0  0  0  0  0
   -2.8300   -1.0840    0.5060 C   0  0  0  0  0  0  0  0  0  0  0  0
   -1.5260   -0.7220    0.7240 O   0  0  0  0  0  0  0  0  0  0  0  0
    3.1400   -0.6370   -0.7370 O   0  0  0  0  0  0  0  0  0  0  0  0
  1  2  1  0
  3  2  1  1
  3  4  1  0
  3 22  1  0
  4  5  1  0
  5  6  1  0
  6  7  1  1
  6  8  1  0
  6 22  1  0
  8  9  1  0
  9 10  1  6
  9 11  1  0
 11 12  1  1
 11 13  1  0
 11 21  1  0
 13 14  1  0
 14 15  1  1
 14 16  1  0
 16 17  1  1
 16 18  1  0
 16 20  1  0
 18 19  1  0
 20 21  1  0
M  END
