
     RDKit          3D

 22 23  0  0  0  0  0  0  0  0999 V2000
    4.8240    1.9450    0.1090 C   0  0  0  0  0  0  0  0  0  0  0  0
    3.5410    1.7030   -0.3210 O   0  0  0  0  0  0  0  0  0  0  0  0
    3.1330    0.3850   -0.0110 C   0  0  0  0  0  0  0  0  0  0  0  0
    1.7010    0.1790   -0.5150 C   0  0  1  0  0  0  0  0  0  0  0  0
    1.3520   -1.0930   -0.1970 O   0  0  0  0  0  0  0  0  0  0  0  0
    0.0490   -1.4630   -0.5170 C   0  0  1  0  0  0  0  0  0  0  0  0
   -0.0650   -1.8890   -1.9890 C   0  0  0  0  0  0  0  0  0  0  0  0
    0.2820   -0.9030   -2.8620 O   0  0  0  0  0  0  0  0  0  0  0  0
   -0.3050   -2.7230    0.2430 C   0  0  1  0  0  0  0  0  0  0  0  0
   -0.2500   -2.6090    1.6070 O   0  0  0  0  0  0  0  0  0  0  0  0
   -1.5770   -3.1380   -0.1410 O   0  0  0  0  0  0  0  0  0  0  0  0
   -0.8280   -0.2920   -0.2250 C   0  0  1  0  0  0  0  0  0  0  0  0
   -2.2430   -0.5830    0.1000 C   0  0  0  0  0  0  0  0  0  0  0  0
   -3.0090    0.7470    0.0290 C   0  0  1  0  0  0  0  0  0  0  0  0
   -3.5850    0.9300   -1.2300 O   0  0  0  0  0  0  0  0  0  0  0  0
   -4.0110    0.7770    1.0070 O   0  0  0  0  0  0  0  0  0  0  0  0
   -2.0800    1.9210    0.2510 C   0  0  0  0  0  0  0  0  0  0  0  0
   -1.0660    1.5940    1.3230 C   0  0  2  0  0  0  0  0  0  0  0  0
   -0.4320    2.7470    1.7740 O   0  0  0  0  0  0  0  0  0  0  0  0
   -0.1120    0.5890    0.7620 C   0  0  1  0  0  0  0  0  0  0  0  0
    0.4530   -0.0940    1.8290 O   0  0  0  0  0  0  0  0  0  0  0  0
    0.9450    1.1760    0.0680 O   0  0  0  0  0  0  0  0  0  0  0  0
  1  2  1  0
  2  3  1  0
  4  3  1  1
  4  5  1  0
  4 22  1  0
  5  6  1  0
  6  7  1  6
  6  9  1  0
  6 12  1  0
  7  8  1  0
  9 10  1  1
  9 11  1  0
 12 13  1  1
 12 20  1  0
 13 14  1  0
 14 15  1  6
 14 16  1  0
 14 17  1  0
 17 18  1  0
 18 19  1  6
 18 20  1  0
 20 21  1  1
 20 22  1  0
M  END
