
     RDKit          3D

 16 17  0  0  0  0  0  0  0  0999 V2000
    4.6310    1.6110    0.8400 C   0  0  0  0  0  0  0  0  0  0  0  0
    3.3730    1.3320    0.2760 O   0  0  0  0  0  0  0  0  0  0  0  0
    3.0360    0.1370   -0.3170 C   0  0  0  0  0  0  0  0  0  0  0  0
    3.9030   -0.7700   -0.3620 O   0  0  0  0  0  0  0  0  0  0  0  0
    1.7040   -0.1420   -0.9070 C   0  0  1  0  0  0  0  0  0  0  0  0
    1.6660   -1.4770   -1.4360 N   0  0  0  0  0  0  0  0  0  0  0  0
    0.6320    0.1300    0.1150 C   0  0  0  0  0  0  0  0  0  0  0  0
   -0.7170   -0.1210   -0.3920 C   0  0  0  0  0  0  0  0  0  0  0  0
   -1.1410   -0.5210   -1.6320 C   0  0  0  0  0  0  0  0  0  0  0  0
   -2.4890   -0.6200   -1.6370 N   0  0  0  0  0  0  0  0  0  0  0  0
   -2.9540   -0.2940   -0.4310 C   0  0  0  0  0  0  0  0  0  0  0  0
   -4.2180   -0.2150    0.1390 C   0  0  0  0  0  0  0  0  0  0  0  0
   -4.4290    0.1600    1.4480 C   0  0  0  0  0  0  0  0  0  0  0  0
   -3.3330    0.4750    2.2390 C   0  0  0  0  0  0  0  0  0  0  0  0
   -2.0670    0.4050    1.6960 C   0  0  0  0  0  0  0  0  0  0  0  0
   -1.8780    0.0250    0.3750 C   0  0  0  0  0  0  0  0  0  0  0  0
  1  2  1  0
  2  3  1  0
  3  4  2  0
  3  5  1  0
  5  6  1  1
  5  7  1  0
  7  8  1  0
  8  9  2  0
  8 16  1  0
  9 10  1  0
 10 11  1  0
 11 12  2  0
 11 16  1  0
 12 13  1  0
 13 14  2  0
 14 15  1  0
 15 16  2  0
M  CHG  1   6   1
M  END
