
     RDKit          3D

 25 27  0  0  0  0  0  0  0  0999 V2000
    6.3910   -2.0050   -1.1160 C   0  0  0  0  0  0  0  0  0  0  0  0
    5.3820   -2.0220   -0.1580 O   0  0  0  0  0  0  0  0  0  0  0  0
    4.3670   -1.0550   -0.0400 C   0  0  0  0  0  0  0  0  0  0  0  0
    4.2810    0.0250   -0.8890 C   0  0  0  0  0  0  0  0  0  0  0  0
    3.2690    0.9490   -0.7370 C   0  0  0  0  0  0  0  0  0  0  0  0
    2.2980    0.8310    0.2720 C   0  0  0  0  0  0  0  0  0  0  0  0
    1.3070    1.8720    0.3270 C   0  0  0  0  0  0  0  0  0  0  0  0
    1.6320    3.2230    0.2930 N   0  0  0  0  0  0  0  0  0  0  0  0
    0.5640    3.9440    0.2560 N   0  0  0  0  0  0  0  0  0  0  0  0
   -0.4990    3.1220    0.2660 C   0  0  0  0  0  0  0  0  0  0  0  0
   -0.0660    1.8080    0.3120 C   0  0  0  0  0  0  0  0  0  0  0  0
   -0.9630    0.6240    0.4140 C   0  0  2  0  0  0  0  0  0  0  0  0
   -2.2600    1.0060   -0.2780 C   0  0  0  0  0  0  0  0  0  0  0  0
   -3.2820   -0.0340   -0.3180 C   0  0  0  0  0  0  0  0  0  0  0  0
   -4.3260   -0.1110    0.5680 C   0  0  0  0  0  0  0  0  0  0  0  0
   -5.2780   -1.1000    0.5390 C   0  0  0  0  0  0  0  0  0  0  0  0
   -5.2040   -2.0530   -0.4000 N   0  0  0  0  0  0  0  0  0  0  0  0
   -4.1900   -2.0240   -1.3050 C   0  0  0  0  0  0  0  0  0  0  0  0
   -4.1240   -3.0160   -2.2740 O   0  0  0  0  0  0  0  0  0  0  0  0
   -3.2290   -1.0430   -1.2910 C   0  0  0  0  0  0  0  0  0  0  0  0
   -1.2210    0.4380    1.9020 C   0  0  1  0  0  0  0  0  0  0  0  0
   -2.0420    1.9150    2.5370 Cl  0  0  0  0  0  0  0  0  0  0  0  0
   -2.1530   -0.9560    2.3400 Cl  0  0  0  0  0  0  0  0  0  0  0  0
    2.3920   -0.2260    1.0950 C   0  0  0  0  0  0  0  0  0  0  0  0
    3.4270   -1.1840    0.9510 C   0  0  0  0  0  0  0  0  0  0  0  0
  1  2  1  0
  2  3  1  0
  3  4  2  0
  3 25  1  0
  4  5  1  0
  5  6  2  0
  6  7  1  0
  6 24  1  0
  7  8  2  0
  7 11  1  0
  8  9  1  0
  9 10  1  0
 10 11  2  0
 11 12  1  0
 12 13  1  6
 12 21  1  0
 13 14  1  0
 14 15  2  0
 14 20  1  0
 15 16  1  0
 16 17  2  0
 17 18  1  0
 18 19  1  0
 18 20  2  0
 21 22  1  6
 21 23  1  0
 24 25  2  0
M  CHG  1  17   1
M  END
