
     RDKit          3D

 25 27  0  0  0  0  0  0  0  0999 V2000
   -5.9850    0.0500   -0.7290 C   0  0  0  0  0  0  0  0  0  0  0  0
   -5.6920   -1.0520    0.1330 N   0  0  0  0  0  0  0  0  0  0  0  0
   -4.5900   -1.8800   -0.3040 C   0  0  0  0  0  0  0  0  0  0  0  0
   -3.2980   -1.1660   -0.3300 C   0  0  0  0  0  0  0  0  0  0  0  0
   -2.6340   -1.0350    0.8740 C   0  0  0  0  0  0  0  0  0  0  0  0
   -1.4090   -0.3780    0.9250 C   0  0  0  0  0  0  0  0  0  0  0  0
   -0.8420    0.1490   -0.2130 C   0  0  0  0  0  0  0  0  0  0  0  0
    0.3910    0.8150   -0.1420 N   0  0  0  0  0  0  0  0  0  0  0  0
    0.3780    2.1830   -0.1890 C   0  0  0  0  0  0  0  0  0  0  0  0
   -0.7260    2.7620   -0.3060 O   0  0  0  0  0  0  0  0  0  0  0  0
    1.4890    2.9060   -0.1160 N   0  0  0  0  0  0  0  0  0  0  0  0
    2.6650    2.3110    0.0070 C   0  0  0  0  0  0  0  0  0  0  0  0
    2.7560    0.9160    0.0620 C   0  0  0  0  0  0  0  0  0  0  0  0
    4.0780    0.3200    0.1860 C   0  0  0  0  0  0  0  0  0  0  0  0
    4.4950   -0.6920   -0.6550 C   0  0  0  0  0  0  0  0  0  0  0  0
    5.7580   -1.2490   -0.5500 C   0  0  0  0  0  0  0  0  0  0  0  0
    6.2670   -2.5270   -1.6340 Cl  0  0  0  0  0  0  0  0  0  0  0  0
    6.6630   -0.8250    0.3970 C   0  0  0  0  0  0  0  0  0  0  0  0
    6.2580    0.1910    1.2480 C   0  0  0  0  0  0  0  0  0  0  0  0
    4.9790    0.7580    1.1440 C   0  0  0  0  0  0  0  0  0  0  0  0
    4.4900    2.0330    2.2390 Cl  0  0  0  0  0  0  0  0  0  0  0  0
    1.5760    0.2410   -0.0190 C   0  0  0  0  0  0  0  0  0  0  0  0
    1.6210   -1.0180    0.0260 O   0  0  0  0  0  0  0  0  0  0  0  0
   -1.5050    0.0150   -1.4000 C   0  0  0  0  0  0  0  0  0  0  0  0
   -2.7410   -0.6440   -1.4760 C   0  0  0  0  0  0  0  0  0  0  0  0
  1  2  1  0
  2  3  1  0
  3  4  1  0
  4  5  2  0
  4 25  1  0
  5  6  1  0
  6  7  2  0
  7  8  1  0
  7 24  1  0
  8  9  1  0
  8 22  1  0
  9 10  2  0
  9 11  1  0
 11 12  1  0
 12 13  2  0
 13 14  1  0
 13 22  1  0
 14 15  2  0
 14 20  1  0
 15 16  1  0
 16 17  1  0
 16 18  2  0
 18 19  1  0
 19 20  2  0
 20 21  1  0
 22 23  2  0
 24 25  2  0
M  CHG  1   2   1
M  END
