
     RDKit          3D

 17 18  0  0  0  0  0  0  0  0999 V2000
   -4.1230    1.7010    0.5710 N   0  0  0  0  0  0  0  0  0  0  0  0
   -3.2620    0.6250    0.2840 C   0  0  0  0  0  0  0  0  0  0  0  0
   -3.7600   -0.6290   -0.0010 C   0  0  0  0  0  0  0  0  0  0  0  0
   -2.9170   -1.6860   -0.2820 C   0  0  0  0  0  0  0  0  0  0  0  0
   -1.5530   -1.4610   -0.2720 C   0  0  0  0  0  0  0  0  0  0  0  0
   -0.6890   -2.5530   -0.5620 N   0  0  0  0  0  0  0  0  0  0  0  0
   -1.0230   -0.2150    0.0100 C   0  0  0  0  0  0  0  0  0  0  0  0
    0.4110    0.0370    0.0250 C   0  0  0  0  0  0  0  0  0  0  0  0
    0.9480    0.7700    1.0620 C   0  0  0  0  0  0  0  0  0  0  0  0
    2.3050    1.0270    1.1060 C   0  0  0  0  0  0  0  0  0  0  0  0
    3.1290    0.5420    0.0960 C   0  0  0  0  0  0  0  0  0  0  0  0
    4.8380    0.9100    0.2230 S   0  0  2  0  0  0  0  0  0  0  0  0
    5.4890    0.9110   -1.1060 O   0  0  0  0  0  0  0  0  0  0  0  0
    5.4580   -0.1270    1.1050 O   0  0  0  0  0  0  0  0  0  0  0  0
    2.6180   -0.1940   -0.9530 C   0  0  0  0  0  0  0  0  0  0  0  0
    1.2480   -0.4340   -0.9660 C   0  0  0  0  0  0  0  0  0  0  0  0
   -1.8930    0.8100    0.2850 C   0  0  0  0  0  0  0  0  0  0  0  0
  1  2  1  0
  2  3  2  0
  2 17  1  0
  3  4  1  0
  4  5  2  0
  5  6  1  0
  5  7  1  0
  7  8  1  0
  7 17  2  0
  8  9  2  0
  8 16  1  0
  9 10  1  0
 10 11  2  0
 12 11  1  6
 11 15  1  0
 12 13  2  0
 12 14  2  0
 15 16  2  0
M  END
