
     RDKit          3D

 17 18  0  0  0  0  0  0  0  0999 V2000
    5.0010   -0.8160   -0.1700 N   0  0  0  0  0  0  0  0  0  0  0  0
    3.6270   -0.4730   -0.2910 C   0  0  0  0  0  0  0  0  0  0  0  0
    2.7030   -1.0380    0.5960 C   0  0  0  0  0  0  0  0  0  0  0  0
    1.3740   -0.7120    0.4860 C   0  0  0  0  0  0  0  0  0  0  0  0
    0.4640   -1.2500    1.3380 C   0  0  0  0  0  0  0  0  0  0  0  0
   -0.8910   -0.9130    1.2210 C   0  0  0  0  0  0  0  0  0  0  0  0
   -1.3490   -0.0570    0.2780 C   0  0  0  0  0  0  0  0  0  0  0  0
   -2.6930    0.3170    0.1220 N   0  0  0  0  0  0  0  0  0  0  0  0
   -3.7880   -0.0390    0.9180 C   0  0  0  0  0  0  0  0  0  0  0  0
   -3.6380   -0.7710    1.9040 O   0  0  0  0  0  0  0  0  0  0  0  0
   -5.1710    0.4700    0.5820 C   0  0  0  0  0  0  0  0  0  0  0  0
   -5.1340    1.2710   -0.5510 O   0  0  0  0  0  0  0  0  0  0  0  0
   -0.3920    0.4850   -0.5890 C   0  0  0  0  0  0  0  0  0  0  0  0
    0.9440    0.1610   -0.4840 C   0  0  0  0  0  0  0  0  0  0  0  0
    1.8630    0.7170   -1.3600 C   0  0  0  0  0  0  0  0  0  0  0  0
    3.2020    0.4020   -1.2650 C   0  0  0  0  0  0  0  0  0  0  0  0
    4.4100    1.1070   -2.3840 S   0  0  0  0  0  0  0  0  0  0  0  0
  1  2  1  0
  2  3  2  0
  2 16  1  0
  3  4  1  0
  4  5  2  0
  4 14  1  0
  5  6  1  0
  6  7  2  0
  7  8  1  0
  7 13  1  0
  8  9  1  0
  9 10  2  0
  9 11  1  0
 11 12  1  0
 13 14  2  0
 14 15  1  0
 15 16  2  0
 16 17  1  0
M  END
