
     RDKit          3D

 25 27  0  0  0  0  0  0  0  0999 V2000
   -5.8090    1.8580   -0.0610 C   0  0  0  0  0  0  0  0  0  0  0  0
   -5.4520    0.5290    0.4500 N   0  0  0  0  0  0  0  0  0  0  0  0
   -6.3030   -0.3630    0.9920 C   0  0  0  0  0  0  0  0  0  0  0  0
   -5.6270   -1.4940    1.3600 C   0  0  0  0  0  0  0  0  0  0  0  0
   -4.3020   -1.2870    1.0280 C   0  0  0  0  0  0  0  0  0  0  0  0
   -3.1790   -2.0650    1.1600 C   0  0  0  0  0  0  0  0  0  0  0  0
   -1.9380   -1.5760    0.7220 C   0  0  0  0  0  0  0  0  0  0  0  0
   -1.8690   -0.3420    0.1750 C   0  0  0  0  0  0  0  0  0  0  0  0
   -0.6430    0.2380   -0.2720 N   0  0  0  0  0  0  0  0  0  0  0  0
    0.6190   -0.1940    0.1500 C   0  0  0  0  0  0  0  0  0  0  0  0
    0.6870   -1.1180    0.9610 O   0  0  0  0  0  0  0  0  0  0  0  0
    1.8950    0.4280   -0.3540 C   0  0  0  0  0  0  0  0  0  0  0  0
    1.7570    1.3700   -1.2180 C   0  0  0  0  0  0  0  0  0  0  0  0
    2.7120    2.2090   -1.9140 C   0  0  2  0  0  0  0  0  0  0  0  0
    3.1700    1.8430   -3.1390 O   0  0  0  0  0  0  0  0  0  0  0  0
    3.9540    2.8100   -0.8010 Cl  0  0  0  0  0  0  0  0  0  0  0  0
    3.1260   -0.2060    0.0540 C   0  0  0  0  0  0  0  0  0  0  0  0
    3.2070   -1.0970    1.0500 C   0  0  0  0  0  0  0  0  0  0  0  0
    4.5220   -1.6470    1.3920 C   0  0  0  0  0  0  0  0  0  0  0  0
    4.6560   -2.8660    2.6770 Cl  0  0  0  0  0  0  0  0  0  0  0  0
    5.6050   -1.2730    0.7860 C   0  0  0  0  0  0  0  0  0  0  0  0
    5.5430   -0.2920   -0.2260 N   0  0  0  0  0  0  0  0  0  0  0  0
    4.2930   -0.2660   -0.8750 C   0  0  0  0  0  0  0  0  0  0  0  0
   -3.0160    0.4100    0.0580 C   0  0  0  0  0  0  0  0  0  0  0  0
   -4.2490   -0.0390    0.4770 C   0  0  0  0  0  0  0  0  0  0  0  0
  1  2  1  0
  2  3  1  0
  2 25  1  0
  3  4  2  0
  4  5  1  0
  5  6  2  0
  5 25  1  0
  6  7  1  0
  7  8  2  0
  8  9  1  0
  8 24  1  0
  9 10  1  0
 10 11  2  0
 10 12  1  0
 12 13  2  3
 12 17  1  0
 13 14  1  0
 14 15  1  6
 14 16  1  0
 17 18  2  0
 17 23  1  0
 18 19  1  0
 19 20  1  0
 19 21  2  0
 21 22  1  0
 22 23  1  0
 24 25  2  0
M  CHG  1  22   1
M  END
