
     RDKit          3D

 25 27  0  0  0  0  0  0  0  0999 V2000
    1.1540   -0.7670   -1.2410 O   0  0  0  0  0  0  0  0  0  0  0  0
    1.6340   -1.1700   -0.1320 C   0  0  0  0  0  0  0  0  0  0  0  0
    0.7640   -1.9550    0.6730 N   0  0  0  0  0  0  0  0  0  0  0  0
   -0.5890   -2.2830    0.2660 C   0  0  0  0  0  0  0  0  0  0  0  0
   -1.5140   -1.1510    0.4280 C   0  0  0  0  0  0  0  0  0  0  0  0
   -1.0730   -0.0200    1.0790 C   0  0  0  0  0  0  0  0  0  0  0  0
   -1.9500    1.0310    1.2190 C   0  0  0  0  0  0  0  0  0  0  0  0
   -3.2120    0.9800    0.7400 N   0  0  0  0  0  0  0  0  0  0  0  0
   -3.6750   -0.1180    0.0950 C   0  0  0  0  0  0  0  0  0  0  0  0
   -5.0320   -0.1910   -0.4290 C   0  0  1  0  0  0  0  0  0  0  0  0
   -6.0340    0.0850    0.7030 C   0  0  0  0  0  0  0  0  0  0  0  0
   -6.8770    0.8200   -0.3190 C   0  0  0  0  0  0  0  0  0  0  0  0
   -5.5740    1.0340   -1.1020 C   0  0  0  0  0  0  0  0  0  0  0  0
   -2.8030   -1.1730   -0.0480 C   0  0  0  0  0  0  0  0  0  0  0  0
    2.9950   -0.8350    0.2710 C   0  0  0  0  0  0  0  0  0  0  0  0
    3.3900   -1.2650    1.3660 O   0  0  0  0  0  0  0  0  0  0  0  0
    3.8250   -0.0600   -0.5460 N   0  0  0  0  0  0  0  0  0  0  0  0
    5.1600    0.3390   -0.2780 C   0  0  0  0  0  0  0  0  0  0  0  0
    5.8700    0.0340    0.8560 C   0  0  0  0  0  0  0  0  0  0  0  0
    7.1860    0.4680    1.0500 C   0  0  0  0  0  0  0  0  0  0  0  0
    8.0510    0.0470    2.5230 Cl  0  0  0  0  0  0  0  0  0  0  0  0
    7.7540    1.2180    0.0560 C   0  0  0  0  0  0  0  0  0  0  0  0
    7.0560    1.5330   -1.0890 C   0  0  0  0  0  0  0  0  0  0  0  0
    5.7730    1.1100   -1.2760 C   0  0  0  0  0  0  0  0  0  0  0  0
    4.9310    1.5410   -2.7570 Cl  0  0  0  0  0  0  0  0  0  0  0  0
  1  2  2  0
  2  3  1  0
  2 15  1  0
  3  4  1  0
  4  5  1  0
  5  6  2  0
  5 14  1  0
  6  7  1  0
  7  8  2  0
  8  9  1  0
 10  9  1  1
  9 14  2  0
 10 11  1  0
 10 13  1  0
 11 12  1  0
 12 13  1  0
 15 16  2  0
 15 17  1  0
 17 18  1  0
 18 19  2  0
 18 24  1  0
 19 20  1  0
 20 21  1  0
 20 22  2  0
 22 23  1  0
 23 24  2  0
 24 25  1  0
M  CHG  1   8   1
M  END
