
     RDKit          3D

 13 13  0  0  0  0  0  0  0  0999 V2000
   -0.7880    2.6320    0.2810 C   0  0  0  0  0  0  0  0  0  0  0  0
   -0.9770    1.3340    0.9920 C   0  0  0  0  0  0  0  0  0  0  0  0
   -0.3330    0.1610    0.2970 C   0  0  2  0  0  0  0  0  0  0  0  0
    1.0670    0.4040    0.2010 N   0  0  0  0  0  0  0  0  0  0  0  0
    1.7150   -0.2510   -0.9040 C   0  0  0  0  0  0  0  0  0  0  0  0
    3.1740   -0.4670   -0.4870 C   0  0  2  0  0  0  0  0  0  0  0  0
    3.7390    0.7770   -0.2290 F   0  0  0  0  0  0  0  0  0  0  0  0
    3.8710   -1.1810   -1.4160 F   0  0  0  0  0  0  0  0  0  0  0  0
    3.1060   -1.2140    0.6920 F   0  0  0  0  0  0  0  0  0  0  0  0
   -1.0270   -0.0800   -0.9990 C   0  0  0  0  0  0  0  0  0  0  0  0
   -1.9810   -1.2560   -0.7820 C   0  0  0  0  0  0  0  0  0  0  0  0
   -1.3110   -2.0550    0.3000 C   0  0  0  0  0  0  0  0  0  0  0  0
   -0.5860   -1.0650    1.1710 C   0  0  0  0  0  0  0  0  0  0  0  0
  1  2  1  0
  3  2  1  1
  3  4  1  0
  3 10  1  0
  3 13  1  0
  4  5  1  0
  5  6  1  0
  6  7  1  1
  6  8  1  0
  6  9  1  0
 10 11  1  0
 11 12  1  0
 12 13  1  0
M  CHG  1   4   1
M  END
