
     RDKit          3D

 11 12  0  0  0  0  0  0  0  0999 V2000
   -2.0850    1.8890   -0.2820 O   0  0  0  0  0  0  0  0  0  0  0  0
   -1.5480    0.6400   -0.1340 C   0  0  0  0  0  0  0  0  0  0  0  0
   -2.3750   -0.4890   -0.0620 C   0  0  0  0  0  0  0  0  0  0  0  0
   -1.8620   -1.7550    0.0850 C   0  0  0  0  0  0  0  0  0  0  0  0
   -0.4940   -1.8700    0.1600 C   0  0  0  0  0  0  0  0  0  0  0  0
    0.3560   -0.7850    0.0930 C   0  0  0  0  0  0  0  0  0  0  0  0
    1.7310   -0.9530    0.1740 C   0  0  0  0  0  0  0  0  0  0  0  0
    2.5840    0.1240    0.1080 C   0  0  0  0  0  0  0  0  0  0  0  0
    2.0800    1.3960   -0.0400 C   0  0  0  0  0  0  0  0  0  0  0  0
    0.7090    1.5480   -0.1190 C   0  0  0  0  0  0  0  0  0  0  0  0
   -0.1720    0.4960   -0.0570 C   0  0  0  0  0  0  0  0  0  0  0  0
  1  2  1  0
  2  3  2  0
  2 11  1  0
  3  4  1  0
  4  5  2  0
  5  6  1  0
  6  7  2  0
  6 11  1  0
  7  8  1  0
  8  9  2  0
  9 10  1  0
 10 11  2  0
M  END
