
     RDKit          3D

 13 13  0  0  0  0  0  0  0  0999 V2000
    2.3220   -1.6300    1.3130 F   0  0  0  0  0  0  0  0  0  0  0  0
    2.9770   -0.4120    1.0760 C   0  0  2  0  0  0  0  0  0  0  0  0
    4.3010   -0.6070    1.4950 F   0  0  0  0  0  0  0  0  0  0  0  0
    2.4360    0.5560    1.8650 F   0  0  0  0  0  0  0  0  0  0  0  0
    2.9610   -0.0560   -0.3730 C   0  0  0  0  0  0  0  0  0  0  0  0
    1.5990    0.1090   -0.9910 C   0  0  0  0  0  0  0  0  0  0  0  0
    0.8450    1.1490   -0.4130 N   0  0  0  0  0  0  0  0  0  0  0  0
   -0.4010    0.8650    0.1770 C   0  0  2  0  0  0  0  0  0  0  0  0
   -0.5820   -0.4270    0.8860 C   0  0  0  0  0  0  0  0  0  0  0  0
   -2.0730   -0.4850    1.2710 C   0  0  0  0  0  0  0  0  0  0  0  0
   -2.7900   -1.0030    0.0450 C   0  0  0  0  0  0  0  0  0  0  0  0
   -2.1360   -0.3600   -1.1570 C   0  0  0  0  0  0  0  0  0  0  0  0
   -1.5470    0.9980   -0.8200 C   0  0  0  0  0  0  0  0  0  0  0  0
  2  1  1  6
  2  3  1  0
  2  4  1  0
  2  5  1  0
  5  6  1  0
  6  7  1  0
  8  7  1  6
  8  9  1  0
  8 13  1  0
  9 10  1  0
 10 11  1  0
 11 12  1  0
 12 13  1  0
M  CHG  1   7   1
M  END
