
     RDKit          3D

 23 23  0  0  0  0  0  0  0  0999 V2000
   -1.1740    5.4570    0.5350 C   0  0  0  0  0  0  0  0  0  0  0  0
   -1.0500    4.1960   -0.2500 C   0  0  0  0  0  0  0  0  0  0  0  0
   -1.4460    4.4210   -1.4150 N   0  0  0  0  0  0  0  0  0  0  0  0
   -0.4680    2.9570   -0.1170 N   0  0  0  0  0  0  0  0  0  0  0  0
   -0.2460    2.1930    1.0390 C   0  0  0  0  0  0  0  0  0  0  0  0
   -0.7020    2.7500    2.0210 O   0  0  0  0  0  0  0  0  0  0  0  0
    0.4350    0.9210    1.0100 C   0  0  2  0  0  0  0  0  0  0  0  0
    1.7760    0.9420    0.3700 C   0  0  0  0  0  0  0  0  0  0  0  0
    2.3940   -0.4260    0.3930 C   0  0  0  0  0  0  0  0  0  0  0  0
    3.6730   -0.4190   -0.1890 O   0  0  0  0  0  0  0  0  0  0  0  0
    4.1290   -1.7480   -0.1010 C   0  0  0  0  0  0  0  0  0  0  0  0
    5.4730   -1.8820   -0.6800 C   0  0  0  0  0  0  0  0  0  0  0  0
    6.1040   -3.1400   -0.6880 N   0  0  0  0  0  0  0  0  0  0  0  0
    6.0650   -0.8880   -1.1670 O   0  0  0  0  0  0  0  0  0  0  0  0
   -0.4360   -0.1870    0.5020 C   0  0  2  0  0  0  0  0  0  0  0  0
   -0.9440   -0.0060   -0.8930 C   0  0  0  0  0  0  0  0  0  0  0  0
   -1.5630   -1.3070   -1.3370 C   0  0  2  0  0  0  0  0  0  0  0  0
   -2.1600   -1.1780   -2.6540 N   0  0  0  0  0  0  0  0  0  0  0  0
   -2.6170   -1.8150   -0.4000 C   0  0  0  0  0  0  0  0  0  0  0  0
   -2.3140   -1.6290    1.0410 C   0  0  1  0  0  0  0  0  0  0  0  0
   -3.6210   -1.7810    1.8270 C   0  0  0  0  0  0  0  0  0  0  0  0
   -1.4500   -2.6020    1.5470 O   0  0  0  0  0  0  0  0  0  0  0  0
   -1.7080   -0.2790    1.3610 C   0  0  0  0  0  0  0  0  0  0  0  0
  1  2  1  0
  2  3  2  0
  2  4  1  0
  4  5  1  0
  5  6  2  0
  5  7  1  0
  7  8  1  6
  7 15  1  0
  8  9  1  0
  9 10  1  0
 10 11  1  0
 11 12  1  0
 12 13  1  0
 12 14  2  0
 15 16  1  6
 15 23  1  0
 16 17  1  0
 17 18  1  6
 17 19  1  0
 19 20  1  0
 20 21  1  1
 20 22  1  0
 20 23  1  0
M  CHG  1  18   1
M  END
