
     RDKit          3D

 13 13  0  0  0  0  0  0  0  0999 V2000
   -0.1160   -1.9140   -0.1260 C   0  0  0  0  0  0  0  0  0  0  0  0
    0.1630   -0.4700    0.0520 C   0  0  0  0  0  0  0  0  0  0  0  0
   -0.7200    0.4780    0.0960 C   0  0  0  0  0  0  0  0  0  0  0  0
   -2.1620    0.2900   -0.0260 C   0  0  0  0  0  0  0  0  0  0  0  0
   -2.7550   -0.9610   -0.2260 N   0  0  0  0  0  0  0  0  0  0  0  0
   -0.3460    1.9290    0.2830 C   0  0  0  0  0  0  0  0  0  0  0  0
    1.0650    2.2440    0.3770 C   0  0  0  0  0  0  0  0  0  0  0  0
    2.0080    1.1370    0.3220 C   0  0  0  0  0  0  0  0  0  0  0  0
    1.5990   -0.1090    0.1730 C   0  0  0  0  0  0  0  0  0  0  0  0
    2.6630   -1.1450    0.1380 C   0  0  2  0  0  0  0  0  0  0  0  0
    3.9280   -0.5470    0.1620 F   0  0  0  0  0  0  0  0  0  0  0  0
    2.6200   -1.8800   -1.0210 F   0  0  0  0  0  0  0  0  0  0  0  0
    2.6450   -1.9630    1.2620 F   0  0  0  0  0  0  0  0  0  0  0  0
  1  2  1  0
  2  3  2  0
  2  9  1  0
  3  4  1  0
  3  6  1  0
  4  5  1  0
  6  7  1  0
  7  8  1  0
  8  9  2  0
  9 10  1  0
 10 11  1  6
 10 12  1  0
 10 13  1  0
M  CHG  1   5   1
M  END
