
     RDKit          3D

 12 11  0  0  0  0  0  0  0  0999 V2000
   -2.1160   -1.1070    0.9110 C   0  0  0  0  0  0  0  0  0  0  0  0
   -1.6550    0.0420    0.0750 C   0  0  1  0  0  0  0  0  0  0  0  0
   -2.0200   -0.2410   -1.3620 C   0  0  0  0  0  0  0  0  0  0  0  0
   -2.4890    1.2610    0.4950 C   0  0  0  0  0  0  0  0  0  0  0  0
   -0.2840    0.3930    0.2610 N   0  0  0  0  0  0  0  0  0  0  0  0
    0.6370   -0.6870    0.0400 C   0  0  0  0  0  0  0  0  0  0  0  0
    2.0100   -0.1600    0.3330 C   0  0  0  0  0  0  0  0  0  0  0  0
    2.9720   -0.1340   -0.5530 C   0  0  0  0  0  0  0  0  0  0  0  0
    4.3170    0.3930   -0.2320 C   0  0  1  0  0  0  0  0  0  0  0  0
    5.2740   -0.3250   -0.9440 F   0  0  0  0  0  0  0  0  0  0  0  0
    4.3500    1.7350   -0.5560 F   0  0  0  0  0  0  0  0  0  0  0  0
    4.6020    0.2910    1.1340 F   0  0  0  0  0  0  0  0  0  0  0  0
  2  1  1  1
  2  3  1  0
  2  4  1  0
  2  5  1  0
  5  6  1  0
  6  7  1  0
  7  8  2  3
  8  9  1  0
  9 10  1  6
  9 11  1  0
  9 12  1  0
M  CHG  1   5   1
M  END
