
     RDKit          3D

 21 21  0  0  0  0  0  0  0  0999 V2000
    1.2070    2.4840    1.3430 O   0  0  0  0  0  0  0  0  0  0  0  0
    1.4800    2.3060    0.1080 C   0  0  0  0  0  0  0  0  0  0  0  0
    0.4000    2.6290   -0.8660 C   0  0  0  0  0  0  0  0  0  0  0  0
   -0.7880    2.9500   -0.2430 O   0  0  0  0  0  0  0  0  0  0  0  0
   -1.8330    2.0870   -0.5200 C   0  0  2  0  0  0  0  0  0  0  0  0
   -2.9370    2.3020    0.2840 O   0  0  0  0  0  0  0  0  0  0  0  0
   -1.3670    0.6630   -0.4790 C   0  0  2  0  0  0  0  0  0  0  0  0
   -1.3030    0.1190   -1.7640 O   0  0  0  0  0  0  0  0  0  0  0  0
   -2.1690   -0.2240    0.4310 C   0  0  1  0  0  0  0  0  0  0  0  0
   -3.1140   -0.8890   -0.3330 O   0  0  0  0  0  0  0  0  0  0  0  0
   -1.2170   -1.2970    0.9760 C   0  0  1  0  0  0  0  0  0  0  0  0
   -1.9990   -2.1020    2.0330 C   0  0  0  0  0  0  0  0  0  0  0  0
   -1.1350   -3.0810    2.5320 O   0  0  0  0  0  0  0  0  0  0  0  0
   -0.8720   -2.1890   -0.1490 C   0  0  0  0  0  0  0  0  0  0  0  0
    0.1850   -2.1770   -0.9060 C   0  0  0  0  0  0  0  0  0  0  0  0
    1.2730   -1.3610   -0.8970 O   0  0  0  0  0  0  0  0  0  0  0  0
    2.1540   -1.0560    0.1180 C   0  0  0  0  0  0  0  0  0  0  0  0
    3.4300   -0.4340   -0.4410 C   0  0  2  0  0  0  0  0  0  0  0  0
    4.2760   -0.1990    0.6400 O   0  0  0  0  0  0  0  0  0  0  0  0
    3.0830    0.8820   -1.1490 C   0  0  0  0  0  0  0  0  0  0  0  0
    2.7170    1.8430   -0.2110 O   0  0  0  0  0  0  0  0  0  0  0  0
  1  2  2  0
  2  3  1  0
  2 21  1  0
  3  4  1  0
  4  5  1  0
  5  6  1  1
  5  7  1  0
  7  8  1  6
  7  9  1  0
  9 10  1  6
  9 11  1  0
 11 12  1  1
 11 14  1  0
 12 13  1  0
 14 15  2  0
 15 16  1  0
 16 17  1  0
 17 18  1  0
 18 19  1  1
 18 20  1  0
 20 21  1  0
M  END
