
     RDKit          3D

 21 21  0  0  0  0  0  0  0  0999 V2000
   -3.1670    3.1230    1.0330 C   0  0  0  0  0  0  0  0  0  0  0  0
   -2.5210    2.1260    0.2720 O   0  0  0  0  0  0  0  0  0  0  0  0
   -2.4400    0.8030    0.6590 C   0  0  0  0  0  0  0  0  0  0  0  0
   -2.9530    0.4300    1.7320 O   0  0  0  0  0  0  0  0  0  0  0  0
   -1.7090   -0.1180   -0.2860 C   0  0  1  0  0  0  0  0  0  0  0  0
   -2.4940   -0.0280   -1.5860 C   0  0  0  0  0  0  0  0  0  0  0  0
   -1.9490   -0.8300   -2.5860 O   0  0  0  0  0  0  0  0  0  0  0  0
   -0.3190    0.4280   -0.4340 C   0  0  2  0  0  0  0  0  0  0  0  0
   -0.2140    1.3370   -1.4830 O   0  0  0  0  0  0  0  0  0  0  0  0
    0.6580   -0.6940   -0.5300 C   0  0  1  0  0  0  0  0  0  0  0  0
    0.2680   -1.6760   -1.4800 O   0  0  0  0  0  0  0  0  0  0  0  0
    2.0250   -0.2780   -0.9600 C   0  0  0  0  0  0  0  0  0  0  0  0
    2.7330    0.7030   -0.1030 C   0  0  0  0  0  0  0  0  0  0  0  0
    4.0920    0.9500   -0.7840 C   0  0  0  0  0  0  0  0  0  0  0  0
    4.8460    1.8590   -0.0640 O   0  0  0  0  0  0  0  0  0  0  0  0
    0.6120   -1.4180    0.7970 C   0  0  1  0  0  0  0  0  0  0  0  0
    1.5290   -2.6220    0.7720 C   0  0  0  0  0  0  0  0  0  0  0  0
    1.0580   -0.6060    1.8610 O   0  0  0  0  0  0  0  0  0  0  0  0
   -0.6620   -1.8040    1.1210 O   0  0  0  0  0  0  0  0  0  0  0  0
   -1.6540   -1.5110    0.2370 C   0  0  1  0  0  0  0  0  0  0  0  0
   -2.8700   -1.6850    0.9660 O   0  0  0  0  0  0  0  0  0  0  0  0
  1  2  1  0
  2  3  1  0
  3  4  2  0
  3  5  1  0
  5  6  1  6
  5  8  1  0
  5 20  1  0
  6  7  1  0
  8  9  1  6
  8 10  1  0
 10 11  1  6
 10 12  1  0
 10 16  1  0
 12 13  1  0
 13 14  1  0
 14 15  1  0
 16 17  1  6
 16 18  1  0
 16 19  1  0
 19 20  1  0
 20 21  1  1
M  END
