
     RDKit          3D

 21 21  0  0  0  0  0  0  0  0999 V2000
   -2.4390   -1.5160    1.6090 O   0  0  0  0  0  0  0  0  0  0  0  0
   -2.9440   -0.2980    1.2200 C   0  0  0  0  0  0  0  0  0  0  0  0
   -2.8410   -0.0000   -0.2350 C   0  0  1  0  0  0  0  0  0  0  0  0
   -3.5660   -1.0100   -0.9110 O   0  0  0  0  0  0  0  0  0  0  0  0
   -3.5810    1.2880   -0.5220 C   0  0  0  0  0  0  0  0  0  0  0  0
   -3.6110    1.5210   -1.8900 O   0  0  0  0  0  0  0  0  0  0  0  0
   -1.4600   -0.0210   -0.7850 C   0  0  2  0  0  0  0  0  0  0  0  0
   -0.8340   -1.3590   -0.6020 C   0  0  0  0  0  0  0  0  0  0  0  0
   -0.0420   -1.4780    0.5180 O   0  0  0  0  0  0  0  0  0  0  0  0
    0.8900   -2.4870    0.2810 C   0  0  0  0  0  0  0  0  0  0  0  0
    2.2650   -2.1540    0.7540 C   0  0  0  0  0  0  0  0  0  0  0  0
    2.4470   -0.8480    1.1320 O   0  0  0  0  0  0  0  0  0  0  0  0
    3.6760   -0.3460    0.6460 C   0  0  0  0  0  0  0  0  0  0  0  0
    3.6530    1.1460    0.6330 C   0  0  2  0  0  0  0  0  0  0  0  0
    3.0090    1.5580    1.8230 O   0  0  0  0  0  0  0  0  0  0  0  0
    2.8590    1.7060   -0.5530 C   0  0  0  0  0  0  0  0  0  0  0  0
    1.5630    1.8030   -0.1780 O   0  0  0  0  0  0  0  0  0  0  0  0
    0.6170    1.3680   -1.0630 C   0  0  1  0  0  0  0  0  0  0  0  0
    0.9750    0.2710   -1.8130 O   0  0  0  0  0  0  0  0  0  0  0  0
   -0.6550    1.1220   -0.2450 C   0  0  2  0  0  0  0  0  0  0  0  0
   -0.3570    0.9940    1.0980 O   0  0  0  0  0  0  0  0  0  0  0  0
  1  2  1  0
  2  3  1  0
  3  4  1  6
  3  5  1  0
  3  7  1  0
  5  6  1  0
  7  8  1  1
  7 20  1  0
  8  9  1  0
  9 10  1  0
 10 11  1  0
 11 12  1  0
 12 13  1  0
 13 14  1  0
 14 15  1  1
 14 16  1  0
 16 17  1  0
 17 18  1  0
 18 19  1  1
 18 20  1  0
 20 21  1  1
M  END
