
     RDKit          3D

 22 22  0  0  0  0  0  0  0  0999 V2000
   -3.9740   -0.3540   -1.0700 C   0  0  0  0  0  0  0  0  0  0  0  0
   -3.1880    0.3760   -0.0540 C   0  0  1  0  0  0  0  0  0  0  0  0
   -2.5660    1.6040   -0.7180 C   0  0  0  0  0  0  0  0  0  0  0  0
   -1.7380    1.2690   -1.7590 O   0  0  0  0  0  0  0  0  0  0  0  0
   -4.1610    0.9620    0.9730 C   0  0  0  0  0  0  0  0  0  0  0  0
   -5.0630    1.8370    0.3940 O   0  0  0  0  0  0  0  0  0  0  0  0
   -2.1770   -0.4160    0.7050 C   0  0  2  0  0  0  0  0  0  0  0  0
   -1.5560    0.4340    1.5940 O   0  0  0  0  0  0  0  0  0  0  0  0
   -0.2050    0.3550    1.4740 C   0  0  0  0  0  0  0  0  0  0  0  0
    0.1330   -0.4560    0.2620 C   0  0  1  0  0  0  0  0  0  0  0  0
    1.1290   -1.3640    0.6290 O   0  0  0  0  0  0  0  0  0  0  0  0
    2.2630   -1.2440   -0.1470 C   0  0  2  0  0  0  0  0  0  0  0  0
    2.4340   -2.4720   -0.8180 O   0  0  0  0  0  0  0  0  0  0  0  0
    3.5140   -1.0410    0.6820 C   0  0  2  0  0  0  0  0  0  0  0  0
    3.4820    0.0750    1.4570 O   0  0  0  0  0  0  0  0  0  0  0  0
    4.6870   -1.0100   -0.2560 C   0  0  0  0  0  0  0  0  0  0  0  0
    4.7290    0.0320   -1.1590 O   0  0  0  0  0  0  0  0  0  0  0  0
    4.8260    1.3840   -0.9330 C   0  0  0  0  0  0  0  0  0  0  0  0
    4.8940    1.7900    0.2340 O   0  0  0  0  0  0  0  0  0  0  0  0
    4.8490    2.3100   -2.0000 O   0  0  0  0  0  0  0  0  0  0  0  0
   -1.1550   -1.1430   -0.0490 C   0  0  2  0  0  0  0  0  0  0  0  0
   -1.3770   -1.3080   -1.4050 O   0  0  0  0  0  0  0  0  0  0  0  0
  2  1  1  6
  2  3  1  0
  2  5  1  0
  2  7  1  0
  3  4  1  0
  5  6  1  0
  7  8  1  1
  7 21  1  0
  8  9  1  0
  9 10  1  0
 10 11  1  1
 10 21  1  0
 11 12  1  0
 12 13  1  1
 12 14  1  0
 14 15  1  6
 14 16  1  0
 16 17  1  0
 17 18  1  0
 18 19  2  0
 18 20  1  0
 21 22  1  6
M  END
