
     RDKit          3D

 10 11  0  0  0  0  0  0  0  0999 V2000
   -3.6600   -0.4620    0.1090 N   0  0  0  0  0  0  0  0  0  0  0  0
   -2.2600   -0.2720    0.0930 C   0  0  0  0  0  0  0  0  0  0  0  0
   -1.4270    0.5560   -0.1810 N   0  0  0  0  0  0  0  0  0  0  0  0
   -0.1250    0.4520   -0.0910 C   0  0  0  0  0  0  0  0  0  0  0  0
    0.8580    1.4160   -0.4100 C   0  0  0  0  0  0  0  0  0  0  0  0
    2.1740    1.1040   -0.2430 C   0  0  0  0  0  0  0  0  0  0  0  0
    2.6520   -0.1060    0.2250 C   0  0  0  0  0  0  0  0  0  0  0  0
    1.7020   -1.0460    0.5370 C   0  0  0  0  0  0  0  0  0  0  0  0
    0.3350   -0.7630    0.3780 C   0  0  0  0  0  0  0  0  0  0  0  0
   -1.1270   -1.6650    0.6560 S   0  0  0  0  0  0  0  0  0  0  0  0
  1  2  1  0
  2  3  2  0
  2 10  1  0
  3  4  1  0
  4  5  2  0
  4  9  1  0
  5  6  1  0
  6  7  2  0
  7  8  1  0
  8  9  2  0
  9 10  1  0
M  END
