
     RDKit          3D

 21 21  0  0  0  0  0  0  0  0999 V2000
    1.4220   -3.5410    0.8640 O   0  0  0  0  0  0  0  0  0  0  0  0
    0.3200   -3.0340    0.2180 C   0  0  0  0  0  0  0  0  0  0  0  0
    0.1090   -1.5440    0.5140 C   0  0  1  0  0  0  0  0  0  0  0  0
    1.1820   -0.8140    0.1150 O   0  0  0  0  0  0  0  0  0  0  0  0
    2.2400   -0.7430    0.9620 C   0  0  0  0  0  0  0  0  0  0  0  0
    3.5020   -0.5730    0.1100 C   0  0  2  0  0  0  0  0  0  0  0  0
    4.5870   -1.1880    0.6930 O   0  0  0  0  0  0  0  0  0  0  0  0
    3.7640    0.8890   -0.1700 C   0  0  0  0  0  0  0  0  0  0  0  0
    2.8270    1.7130    0.4400 O   0  0  0  0  0  0  0  0  0  0  0  0
    2.4810    2.8100   -0.3290 C   0  0  0  0  0  0  0  0  0  0  0  0
    0.9800    2.8970   -0.5590 C   0  0  0  0  0  0  0  0  0  0  0  0
    0.4130    1.7580   -0.0310 O   0  0  0  0  0  0  0  0  0  0  0  0
   -0.3180    1.0290   -0.9580 C   0  0  0  0  0  0  0  0  0  0  0  0
   -1.2920    0.1650   -0.1830 C   0  0  1  0  0  0  0  0  0  0  0  0
   -2.6520    0.3930   -0.7560 C   0  0  1  0  0  0  0  0  0  0  0  0
   -2.6680   -0.0060   -2.0720 O   0  0  0  0  0  0  0  0  0  0  0  0
   -3.7580   -0.2690   -0.0170 C   0  0  2  0  0  0  0  0  0  0  0  0
   -4.9630    0.1220   -0.6410 O   0  0  0  0  0  0  0  0  0  0  0  0
   -3.8710    0.2050    1.4220 C   0  0  0  0  0  0  0  0  0  0  0  0
   -4.9900   -0.4290    1.9770 O   0  0  0  0  0  0  0  0  0  0  0  0
   -0.9930   -1.1760   -0.2650 O   0  0  0  0  0  0  0  0  0  0  0  0
  1  2  1  0
  3  2  1  6
  3  4  1  0
  3 21  1  0
  4  5  1  0
  5  6  1  0
  6  7  1  1
  6  8  1  0
  8  9  1  0
  9 10  1  0
 10 11  1  0
 11 12  1  0
 12 13  1  0
 14 13  1  6
 14 15  1  0
 14 21  1  0
 15 16  1  6
 15 17  1  0
 17 18  1  6
 17 19  1  0
 19 20  1  0
M  END
