
     RDKit          3D

 21 21  0  0  0  0  0  0  0  0999 V2000
    2.0640    1.6800    1.5100 O   0  0  0  0  0  0  0  0  0  0  0  0
    1.5350    1.4410    0.2470 C   0  0  1  0  0  0  0  0  0  0  0  0
    1.2700    2.7210   -0.5040 C   0  0  0  0  0  0  0  0  0  0  0  0
    0.0810    2.6140   -1.2290 O   0  0  0  0  0  0  0  0  0  0  0  0
   -0.9820    3.2480   -0.6340 C   0  0  0  0  0  0  0  0  0  0  0  0
   -1.9990    2.2240   -0.1090 C   0  0  0  0  0  0  0  0  0  0  0  0
   -2.0890    1.2340   -1.0510 O   0  0  0  0  0  0  0  0  0  0  0  0
   -2.9580    0.2160   -0.7350 C   0  0  2  0  0  0  0  0  0  0  0  0
   -4.2590    0.7050   -0.5010 O   0  0  0  0  0  0  0  0  0  0  0  0
   -2.4610   -0.5700    0.4280 C   0  0  1  0  0  0  0  0  0  0  0  0
   -3.3850   -0.5350    1.4690 O   0  0  0  0  0  0  0  0  0  0  0  0
   -2.1540   -2.0200    0.0760 C   0  0  0  0  0  0  0  0  0  0  0  0
   -0.9720   -2.0470   -0.6910 O   0  0  0  0  0  0  0  0  0  0  0  0
   -0.0890   -3.0110   -0.2230 C   0  0  0  0  0  0  0  0  0  0  0  0
    1.3620   -2.5770   -0.3650 C   0  0  1  0  0  0  0  0  0  0  0  0
    1.5960   -2.1100   -1.6400 O   0  0  0  0  0  0  0  0  0  0  0  0
    1.6770   -1.5380    0.6910 C   0  0  1  0  0  0  0  0  0  0  0  0
    2.0470   -2.2650    1.8470 O   0  0  0  0  0  0  0  0  0  0  0  0
    2.8210   -0.6560    0.3410 C   0  0  0  0  0  0  0  0  0  0  0  0
    2.4840    0.5250   -0.4970 C   0  0  2  0  0  0  0  0  0  0  0  0
    3.6730    1.2050   -0.7840 O   0  0  0  0  0  0  0  0  0  0  0  0
  2  1  1  1
  2  3  1  0
  2 20  1  0
  3  4  1  0
  4  5  1  0
  5  6  1  0
  6  7  1  0
  7  8  1  0
  8  9  1  1
  8 10  1  0
 10 11  1  1
 10 12  1  0
 12 13  1  0
 13 14  1  0
 14 15  1  0
 15 16  1  6
 15 17  1  0
 17 18  1  1
 17 19  1  0
 19 20  1  0
 20 21  1  1
M  END
