
     RDKit          3D

 17 18  0  0  0  0  0  0  0  0999 V2000
    5.1150    1.9020    0.0240 C   0  0  0  0  0  0  0  0  0  0  0  0
    4.0670    0.8310   -0.2350 C   0  0  0  0  0  0  0  0  0  0  0  0
    2.9120    0.9420    0.4230 C   0  0  0  0  0  0  0  0  0  0  0  0
    1.8450   -0.0140    0.2140 C   0  0  0  0  0  0  0  0  0  0  0  0
    2.0390   -1.2090   -0.3960 C   0  0  0  0  0  0  0  0  0  0  0  0
    0.9670   -1.9890   -0.7150 C   0  0  0  0  0  0  0  0  0  0  0  0
   -0.3680   -1.6230   -0.4350 C   0  0  0  0  0  0  0  0  0  0  0  0
   -1.3370   -2.7210   -0.4560 C   0  0  0  0  0  0  0  0  0  0  0  0
   -2.5340   -2.6000   -1.1640 O   0  0  0  0  0  0  0  0  0  0  0  0
   -0.5850   -0.4200    0.1650 C   0  0  0  0  0  0  0  0  0  0  0  0
   -1.8900    0.2320    0.1060 C   0  0  0  0  0  0  0  0  0  0  0  0
   -2.3810    1.0410    1.0080 C   0  0  0  0  0  0  0  0  0  0  0  0
   -3.7040    1.6800    0.9030 C   0  0  0  0  0  0  0  0  0  0  0  0
   -4.2460    1.5930   -0.4110 O   0  0  0  0  0  0  0  0  0  0  0  0
   -3.7480    0.7910   -1.3770 C   0  0  0  0  0  0  0  0  0  0  0  0
   -2.6320    0.1140   -1.1720 C   0  0  0  0  0  0  0  0  0  0  0  0
    0.5240    0.3500    0.4810 C   0  0  0  0  0  0  0  0  0  0  0  0
  1  2  1  0
  2  3  2  3
  3  4  1  0
  4  5  2  0
  4 17  1  0
  5  6  1  0
  6  7  2  0
  7  8  1  0
  7 10  1  0
  8  9  1  0
 10 11  1  0
 10 17  2  0
 11 12  2  0
 11 16  1  0
 12 13  1  0
 13 14  1  0
 14 15  1  0
 15 16  2  0
M  END
