
     RDKit          3D

 17 18  0  0  0  0  0  0  0  0999 V2000
    5.5830    0.2980    0.2920 C   0  0  0  0  0  0  0  0  0  0  0  0
    4.1710    0.6960    0.5740 C   0  0  0  0  0  0  0  0  0  0  0  0
    3.1770   -0.3630    0.1470 C   0  0  0  0  0  0  0  0  0  0  0  0
    1.7380    0.1210    0.4700 C   0  0  0  0  0  0  0  0  0  0  0  0
    0.7620   -0.8920    0.0630 C   0  0  0  0  0  0  0  0  0  0  0  0
    1.3460   -2.1630   -0.1980 O   0  0  0  0  0  0  0  0  0  0  0  0
   -0.5370   -0.7840   -0.0830 C   0  0  0  0  0  0  0  0  0  0  0  0
   -1.2610   -1.9140   -0.4950 C   0  0  0  0  0  0  0  0  0  0  0  0
   -2.6230   -1.9140   -0.6680 C   0  0  0  0  0  0  0  0  0  0  0  0
   -3.3530   -0.7790   -0.4390 C   0  0  0  0  0  0  0  0  0  0  0  0
   -4.8390   -0.7380   -0.6180 C   0  0  0  0  0  0  0  0  0  0  0  0
   -2.6700    0.3490   -0.0320 C   0  0  0  0  0  0  0  0  0  0  0  0
   -1.2850    0.3490    0.1450 C   0  0  0  0  0  0  0  0  0  0  0  0
   -0.9460    1.5630    0.5410 C   0  0  0  0  0  0  0  0  0  0  0  0
   -2.1490    2.4030    0.6250 C   0  0  0  0  0  0  0  0  0  0  0  0
   -3.1910    1.6760    0.2810 C   0  0  0  0  0  0  0  0  0  0  0  0
   -4.5310    2.0660    0.2190 O   0  0  0  0  0  0  0  0  0  0  0  0
  1  2  1  0
  2  3  1  0
  3  4  1  0
  4  5  1  0
  5  6  1  0
  5  7  2  3
  7  8  1  0
  7 13  1  0
  8  9  2  0
  9 10  1  0
 10 11  1  0
 10 12  2  0
 12 13  1  0
 12 16  1  0
 13 14  2  0
 14 15  1  0
 15 16  2  0
 16 17  1  0
M  END
