
     RDKit          3D

 17 18  0  0  0  0  0  0  0  0999 V2000
    3.9110   -2.0760    0.6130 C   0  0  0  0  0  0  0  0  0  0  0  0
    2.4820   -1.5610    0.5830 C   0  0  0  0  0  0  0  0  0  0  0  0
    2.2800   -0.3510    0.1620 C   0  0  0  0  0  0  0  0  0  0  0  0
    3.4760    0.3290   -0.2100 O   0  0  0  0  0  0  0  0  0  0  0  0
    1.0730    0.4220   -0.0080 C   0  0  0  0  0  0  0  0  0  0  0  0
    1.2150    1.8300    0.0380 C   0  0  0  0  0  0  0  0  0  0  0  0
    0.1750    2.7080   -0.0950 C   0  0  0  0  0  0  0  0  0  0  0  0
    0.4070    4.1750   -0.0360 C   0  0  0  0  0  0  0  0  0  0  0  0
   -1.0790    2.1640   -0.2830 C   0  0  0  0  0  0  0  0  0  0  0  0
   -1.2960    0.8200   -0.3400 C   0  0  0  0  0  0  0  0  0  0  0  0
   -0.1930   -0.0510   -0.2040 C   0  0  0  0  0  0  0  0  0  0  0  0
   -0.3220   -1.4910   -0.3970 C   0  0  2  0  0  0  0  0  0  0  0  0
   -1.1270   -1.6520   -1.5970 O   0  0  0  0  0  0  0  0  0  0  0  0
   -1.1950   -2.1260    0.6900 C   0  0  0  0  0  0  0  0  0  0  0  0
   -2.6620   -1.8840    0.3550 C   0  0  0  0  0  0  0  0  0  0  0  0
   -3.0880   -0.4820    0.6810 C   0  0  0  0  0  0  0  0  0  0  0  0
   -2.7420    0.4160   -0.4980 C   0  0  0  0  0  0  0  0  0  0  0  0
  1  2  1  0
  2  3  2  3
  3  4  1  0
  3  5  1  0
  5  6  2  0
  5 11  1  0
  6  7  1  0
  7  8  1  0
  7  9  2  0
  9 10  1  0
 10 11  2  0
 10 17  1  0
 11 12  1  0
 12 13  1  6
 12 14  1  0
 14 15  1  0
 15 16  1  0
 16 17  1  0
M  END
