
     RDKit          3D

 11 11  0  0  0  0  0  0  0  0999 V2000
   -2.5740   -1.5010   -0.8950 N   0  0  0  0  0  0  0  0  0  0  0  0
   -1.4640   -0.6430   -0.6140 C   0  0  0  0  0  0  0  0  0  0  0  0
   -0.2210   -1.2200   -0.4730 C   0  0  0  0  0  0  0  0  0  0  0  0
    0.8570   -0.4100   -0.2030 C   0  0  0  0  0  0  0  0  0  0  0  0
    2.1100   -1.0060   -0.0620 O   0  0  0  0  0  0  0  0  0  0  0  0
    3.2130   -0.1880    0.2130 C   0  0  0  0  0  0  0  0  0  0  0  0
    4.3870   -0.8990    0.3280 F   0  0  0  0  0  0  0  0  0  0  0  0
    0.6950    0.9530   -0.0760 C   0  0  0  0  0  0  0  0  0  0  0  0
   -0.5560    1.5120   -0.2200 C   0  0  0  0  0  0  0  0  0  0  0  0
   -1.6540    0.7150   -0.4920 C   0  0  0  0  0  0  0  0  0  0  0  0
   -2.9290    1.2420   -0.6440 O   0  0  0  0  0  0  0  0  0  0  0  0
  1  2  1  0
  2  3  2  0
  2 10  1  0
  3  4  1  0
  4  5  1  0
  4  8  2  0
  5  6  1  0
  6  7  1  0
  8  9  1  0
  9 10  2  0
 10 11  1  0
M  END
