
     RDKit          3D

 17 18  0  0  0  0  0  0  0  0999 V2000
   -2.5380    1.9610    0.4560 C   0  0  0  0  0  0  0  0  0  0  0  0
   -3.0300    0.7700    0.0730 C   0  0  0  0  0  0  0  0  0  0  0  0
   -4.4900    0.4980    0.0410 C   0  0  0  0  0  0  0  0  0  0  0  0
   -4.8500   -0.8160   -0.5310 C   0  0  0  0  0  0  0  0  0  0  0  0
   -3.8940   -1.6660   -0.8950 C   0  0  0  0  0  0  0  0  0  0  0  0
   -2.4700   -1.4250   -0.7890 C   0  0  0  0  0  0  0  0  0  0  0  0
   -2.0640   -0.2340   -0.3020 C   0  0  0  0  0  0  0  0  0  0  0  0
   -0.7070   -0.1030   -0.2070 O   0  0  0  0  0  0  0  0  0  0  0  0
    0.1660    0.5540    0.5970 C   0  0  0  0  0  0  0  0  0  0  0  0
    1.5900    0.1390    0.2880 C   0  0  0  0  0  0  0  0  0  0  0  0
    2.6140    0.9480    0.0050 C   0  0  0  0  0  0  0  0  0  0  0  0
    3.9310    0.4920   -0.1130 C   0  0  0  0  0  0  0  0  0  0  0  0
    5.0760    1.4220   -0.3860 C   0  0  0  0  0  0  0  0  0  0  0  0
    4.1770   -0.8450    0.0600 C   0  0  0  0  0  0  0  0  0  0  0  0
    3.1360   -1.6990    0.3540 C   0  0  0  0  0  0  0  0  0  0  0  0
    1.8330   -1.2270    0.4740 C   0  0  0  0  0  0  0  0  0  0  0  0
    0.7480   -2.0350    0.7780 O   0  0  0  0  0  0  0  0  0  0  0  0
  1  2  2  0
  2  3  1  0
  2  7  1  0
  3  4  1  0
  4  5  2  0
  5  6  1  0
  6  7  2  0
  7  8  1  0
  8  9  1  0
  9 10  1  0
 10 11  2  0
 10 16  1  0
 11 12  1  0
 12 13  1  0
 12 14  2  0
 14 15  1  0
 15 16  2  0
 16 17  1  0
M  END
