
     RDKit          3D

 17 18  0  0  0  0  0  0  0  0999 V2000
    3.3610   -2.0340    0.3170 C   0  0  0  0  0  0  0  0  0  0  0  0
    2.4650   -0.8610    0.1990 C   0  0  0  0  0  0  0  0  0  0  0  0
    3.0520    0.3910    0.0630 C   0  0  0  0  0  0  0  0  0  0  0  0
    2.2360    1.5040   -0.0330 C   0  0  0  0  0  0  0  0  0  0  0  0
    2.8760    2.8230   -0.2410 C   0  0  0  0  0  0  0  0  0  0  0  0
    0.8520    1.3500    0.0100 C   0  0  0  0  0  0  0  0  0  0  0  0
    0.0210    2.4400   -0.0770 O   0  0  0  0  0  0  0  0  0  0  0  0
    0.2530    0.1070    0.1470 C   0  0  0  0  0  0  0  0  0  0  0  0
   -1.1720   -0.1000    0.2610 C   0  0  0  0  0  0  0  0  0  0  0  0
   -1.8350    0.1810    1.4570 C   0  0  0  0  0  0  0  0  0  0  0  0
   -3.1980   -0.0820    1.6170 C   0  0  0  0  0  0  0  0  0  0  0  0
   -3.9070   -0.6330    0.5700 C   0  0  0  0  0  0  0  0  0  0  0  0
   -5.2630   -0.8900    0.7460 O   0  0  0  0  0  0  0  0  0  0  0  0
   -3.2770   -0.9190   -0.6170 C   0  0  0  0  0  0  0  0  0  0  0  0
   -1.9320   -0.6460   -0.7390 C   0  0  0  0  0  0  0  0  0  0  0  0
   -1.2540   -0.9060   -2.0560 C   0  0  0  0  0  0  0  0  0  0  0  0
    1.0980   -0.9900    0.2390 C   0  0  0  0  0  0  0  0  0  0  0  0
  1  2  1  0
  2  3  2  0
  2 17  1  0
  3  4  1  0
  4  5  1  0
  4  6  2  0
  6  7  1  0
  6  8  1  0
  8  9  1  0
  8 17  2  0
  9 10  2  0
  9 15  1  0
 10 11  1  0
 11 12  2  0
 12 13  1  0
 12 14  1  0
 14 15  2  0
 15 16  1  0
M  END
