
     RDKit          3D

 17 18  0  0  0  0  0  0  0  0999 V2000
   -4.7160   -0.1470   -0.1200 C   0  0  0  0  0  0  0  0  0  0  0  0
   -3.2820   -0.3230   -0.3240 C   0  0  0  0  0  0  0  0  0  0  0  0
   -2.4210    0.4150    0.4920 C   0  0  0  0  0  0  0  0  0  0  0  0
   -1.0560    0.2950    0.3500 C   0  0  0  0  0  0  0  0  0  0  0  0
   -0.2210    1.0530    1.1690 C   0  0  0  0  0  0  0  0  0  0  0  0
   -0.7550    1.9720    2.1670 C   0  0  0  0  0  0  0  0  0  0  0  0
    1.1540    0.9520    1.0330 C   0  0  0  0  0  0  0  0  0  0  0  0
    1.6790    0.1040    0.0880 C   0  0  0  0  0  0  0  0  0  0  0  0
    3.1690   -0.0050   -0.0740 C   0  0  1  0  0  0  0  0  0  0  0  0
    3.6720   -1.2430    0.6580 C   0  0  0  0  0  0  0  0  0  0  0  0
    3.5680    0.0030   -1.5210 C   0  0  0  0  0  0  0  0  0  0  0  0
    3.7670    1.1000    0.5380 O   0  0  0  0  0  0  0  0  0  0  0  0
    0.8680   -0.6620   -0.7390 C   0  0  0  0  0  0  0  0  0  0  0  0
   -0.5140   -0.5660   -0.6080 C   0  0  0  0  0  0  0  0  0  0  0  0
   -1.3560   -1.2950   -1.4130 C   0  0  0  0  0  0  0  0  0  0  0  0
   -2.7420   -1.1570   -1.2550 C   0  0  0  0  0  0  0  0  0  0  0  0
   -3.5550   -1.9060   -2.0850 O   0  0  0  0  0  0  0  0  0  0  0  0
  1  2  1  0
  2  3  2  0
  2 16  1  0
  3  4  1  0
  4  5  2  0
  4 14  1  0
  5  6  1  0
  5  7  1  0
  7  8  2  0
  8  9  1  0
  8 13  1  0
  9 10  1  1
  9 11  1  0
  9 12  1  0
 13 14  2  0
 14 15  1  0
 15 16  2  0
 16 17  1  0
M  END
