
     RDKit          3D

 17 18  0  0  0  0  0  0  0  0999 V2000
    1.5040   -2.3830    0.1550 C   0  0  0  0  0  0  0  0  0  0  0  0
    2.3160   -1.1440    0.2020 C   0  0  0  0  0  0  0  0  0  0  0  0
    3.6120   -1.2330   -0.0460 C   0  0  0  0  0  0  0  0  0  0  0  0
    4.7110   -0.2470   -0.0900 C   0  0  0  0  0  0  0  0  0  0  0  0
    4.3100    1.0880   -0.5870 C   0  0  0  0  0  0  0  0  0  0  0  0
    3.1740    1.7280   -0.4580 C   0  0  0  0  0  0  0  0  0  0  0  0
    1.9340    1.3030    0.2320 C   0  0  0  0  0  0  0  0  0  0  0  0
    1.5410    0.0660    0.5290 C   0  0  0  0  0  0  0  0  0  0  0  0
    0.3410   -0.1020    1.1790 O   0  0  0  0  0  0  0  0  0  0  0  0
   -0.8110    0.6550    0.9650 C   0  0  0  0  0  0  0  0  0  0  0  0
   -1.3480    0.6000   -0.4350 C   0  0  1  0  0  0  0  0  0  0  0  0
   -0.4230    1.0620   -1.3670 O   0  0  0  0  0  0  0  0  0  0  0  0
   -1.7850   -0.7650   -0.8610 C   0  0  0  0  0  0  0  0  0  0  0  0
   -2.8260   -1.3530    0.0660 C   0  0  0  0  0  0  0  0  0  0  0  0
   -3.9830   -0.4160    0.1550 C   0  0  0  0  0  0  0  0  0  0  0  0
   -3.6210    1.0110    0.3970 C   0  0  0  0  0  0  0  0  0  0  0  0
   -2.5500    1.5170   -0.5120 C   0  0  0  0  0  0  0  0  0  0  0  0
  1  2  1  0
  2  3  2  0
  2  8  1  0
  3  4  1  0
  4  5  1  0
  5  6  2  0
  6  7  1  0
  7  8  2  0
  8  9  1  0
  9 10  1  0
 10 11  1  0
 11 12  1  6
 11 13  1  0
 11 17  1  0
 13 14  1  0
 14 15  1  0
 15 16  1  0
 16 17  1  0
M  END
