
     RDKit          3D

 26 27  0  0  0  0  0  0  0  0999 V2000
   -6.1690   -4.1250    1.3690 N   0  0  0  0  0  0  0  0  0  0  0  0
   -5.6440   -2.8840    1.5500 C   0  0  0  0  0  0  0  0  0  0  0  0
   -5.9990   -1.8500    2.0140 O   0  0  0  0  0  0  0  0  0  0  0  0
   -3.9860   -2.7990    0.9140 N   0  0  0  0  0  0  0  0  0  0  0  0
   -3.7830   -1.4470    1.2260 C   0  0  0  0  0  0  0  0  0  0  0  0
   -4.1910   -0.7410    2.0780 O   0  0  0  0  0  0  0  0  0  0  0  0
   -2.8360   -0.8300    0.2200 N   0  0  0  0  0  0  0  0  0  0  0  0
   -2.6190    0.5310    0.3450 C   0  0  2  0  0  0  0  0  0  0  0  0
   -3.3040    1.3030   -0.7730 C   0  0  0  0  0  0  0  0  0  0  0  0
   -3.1620    2.7790   -0.4560 C   0  0  0  0  0  0  0  0  0  0  0  0
   -3.8110    3.5720   -1.4710 N   0  0  0  0  0  0  0  0  0  0  0  0
   -1.1580    0.9600    0.5150 C   0  0  0  0  0  0  0  0  0  0  0  0
   -0.8970    1.5370    1.5940 O   0  0  0  0  0  0  0  0  0  0  0  0
   -0.2110    0.7290   -0.4280 N   0  0  0  0  0  0  0  0  0  0  0  0
    0.6520    1.5730   -1.2210 C   0  0  0  0  0  0  0  0  0  0  0  0
    1.9820    1.1730   -0.6240 C   0  0  0  0  0  0  0  0  0  0  0  0
    1.8440   -0.3600   -0.7900 C   0  0  1  0  0  0  0  0  0  0  0  0
    2.7810   -1.0090    0.0620 N   0  0  0  0  0  0  0  0  0  0  0  0
    4.2090   -0.7320   -0.1390 C   0  0  0  0  0  0  0  0  0  0  0  0
    4.4750    0.0420   -1.0490 O   0  0  0  0  0  0  0  0  0  0  0  0
    5.2980   -1.2940    0.6690 C   0  0  2  0  0  0  0  0  0  0  0  0
    5.7950   -0.2190    1.6950 C   0  0  0  0  0  0  0  0  0  0  0  0
    6.2020    0.8050    0.8530 O   0  0  0  0  0  0  0  0  0  0  0  0
    6.8200    0.1760   -0.2340 C   0  0  0  0  0  0  0  0  0  0  0  0
    6.5240   -1.2430   -0.1670 N   0  0  0  0  0  0  0  0  0  0  0  0
    0.4120   -0.5950   -0.7130 C   0  0  0  0  0  0  0  0  0  0  0  0
  1  2  1  0
  2  3  2  0
  2  4  1  0
  4  5  1  0
  5  6  2  0
  5  7  1  0
  7  8  1  0
  8  9  1  6
  8 12  1  0
  9 10  1  0
 10 11  1  0
 12 13  2  0
 12 14  1  0
 14 15  1  0
 14 26  1  0
 15 16  1  0
 16 17  1  0
 17 18  1  1
 17 26  1  0
 18 19  1  0
 19 20  2  0
 21 19  1  6
 21 22  1  0
 21 25  1  0
 22 23  1  0
 23 24  1  0
 24 25  1  0
M  CHG  1  11   1
M  END
