
     RDKit          3D

 26 27  0  0  0  0  0  0  0  0999 V2000
    3.4720    2.1050   -0.8450 C   0  0  0  0  0  0  0  0  0  0  0  0
    4.1510    1.6530    0.4310 C   0  0  2  0  0  0  0  0  0  0  0  0
    5.5110    1.6720    0.3340 O   0  0  0  0  0  0  0  0  0  0  0  0
    5.9850    0.3940    0.0700 C   0  0  1  0  0  0  0  0  0  0  0  0
    6.9460    0.5090   -1.0890 C   0  0  0  0  0  0  0  0  0  0  0  0
    6.7380   -0.1570    1.2620 C   0  0  0  0  0  0  0  0  0  0  0  0
    4.7980   -0.4770   -0.2820 C   0  0  0  0  0  0  0  0  0  0  0  0
    3.7810    0.1790    0.6210 C   0  0  2  0  0  0  0  0  0  0  0  0
    2.4480   -0.0010    0.1660 N   0  0  0  0  0  0  0  0  0  0  0  0
    1.5860   -0.5760    1.0620 C   0  0  0  0  0  0  0  0  0  0  0  0
    2.0030   -0.9240    2.2590 O   0  0  0  0  0  0  0  0  0  0  0  0
    0.2910   -0.8900    0.9790 N   0  0  0  0  0  0  0  0  0  0  0  0
   -1.0070   -1.1840    0.8420 C   0  0  0  0  0  0  0  0  0  0  0  0
   -1.4230   -1.7190    1.9490 O   0  0  0  0  0  0  0  0  0  0  0  0
   -1.9040   -1.0390   -0.1690 N   0  0  0  0  0  0  0  0  0  0  0  0
   -3.2480   -1.4630   -0.0140 C   0  0  1  0  0  0  0  0  0  0  0  0
   -4.1340   -0.2790   -0.3200 C   0  0  0  0  0  0  0  0  0  0  0  0
   -5.5500   -0.7470   -0.0620 C   0  0  1  0  0  0  0  0  0  0  0  0
   -6.4320    0.4370   -0.1810 C   0  0  0  0  0  0  0  0  0  0  0  0
   -7.3470    0.4620   -1.0360 O   0  0  0  0  0  0  0  0  0  0  0  0
   -6.2450    1.5540    0.6760 N   0  0  0  0  0  0  0  0  0  0  0  0
   -7.0790    2.6830    0.5690 N   0  0  0  0  0  0  0  0  0  0  0  0
   -5.9390   -1.7320   -1.0320 N   0  0  0  0  0  0  0  0  0  0  0  0
   -4.9590   -2.6990   -1.2850 N   0  0  0  0  0  0  0  0  0  0  0  0
   -3.6110   -2.5570   -0.9500 C   0  0  0  0  0  0  0  0  0  0  0  0
   -2.7460   -3.3250   -1.4230 O   0  0  0  0  0  0  0  0  0  0  0  0
  2  1  1  6
  2  3  1  0
  2  8  1  0
  3  4  1  0
  4  5  1  6
  4  6  1  0
  4  7  1  0
  7  8  1  0
  8  9  1  6
  9 10  1  0
 10 11  2  0
 10 12  1  0
 12 13  1  0
 13 14  2  0
 13 15  1  0
 16 15  1  6
 16 17  1  0
 16 25  1  0
 17 18  1  0
 18 19  1  6
 18 23  1  0
 19 20  2  0
 19 21  1  0
 21 22  1  0
 23 24  1  0
 24 25  1  0
 25 26  2  0
M  CHG  1  22   1
M  END
