
     RDKit          3D

 26 28  0  0  0  0  0  0  0  0999 V2000
    5.3080    2.6790   -0.3570 N   0  0  0  0  0  0  0  0  0  0  0  0
    4.6790    1.6290   -1.0530 C   0  0  0  0  0  0  0  0  0  0  0  0
    4.3810    1.7630   -2.2660 O   0  0  0  0  0  0  0  0  0  0  0  0
    4.3590    0.3700   -0.3950 C   0  0  0  0  0  0  0  0  0  0  0  0
    4.6370    0.1830    0.8240 O   0  0  0  0  0  0  0  0  0  0  0  0
    3.7240   -0.6920   -1.0940 N   0  0  0  0  0  0  0  0  0  0  0  0
    3.3990   -1.9300   -0.4820 C   0  0  0  0  0  0  0  0  0  0  0  0
    2.1690   -2.1080    0.1320 C   0  0  0  0  0  0  0  0  0  0  0  0
    1.2550   -1.0290    0.1300 N   0  0  0  0  0  0  0  0  0  0  0  0
   -0.0350   -1.0020    0.6940 C   0  0  0  0  0  0  0  0  0  0  0  0
   -0.4850   -1.9950    1.2700 O   0  0  0  0  0  0  0  0  0  0  0  0
   -0.8590    0.1720    0.6160 N   0  0  0  0  0  0  0  0  0  0  0  0
   -2.1870    0.2060    1.1940 C   0  0  1  0  0  0  0  0  0  0  0  0
   -2.3310    1.4650    2.0350 C   0  0  0  0  0  0  0  0  0  0  0  0
   -3.5200    1.8730    1.1880 C   0  0  2  0  0  0  0  0  0  0  0  0
   -4.7410    1.6910    1.9360 N   0  0  0  0  0  0  0  0  0  0  0  0
   -3.1580    0.8050    0.2180 C   0  0  1  0  0  0  0  0  0  0  0  0
   -2.6060    1.2280   -1.0990 C   0  0  0  0  0  0  0  0  0  0  0  0
   -3.7980    1.1180   -2.0060 C   0  0  0  0  0  0  0  0  0  0  0  0
   -4.8660    0.6750   -1.2410 O   0  0  0  0  0  0  0  0  0  0  0  0
   -4.3150   -0.0660   -0.1830 C   0  0  0  0  0  0  0  0  0  0  0  0
    1.9510   -3.3360    0.6930 C   0  0  0  0  0  0  0  0  0  0  0  0
    2.9020   -4.3130    0.6390 N   0  0  0  0  0  0  0  0  0  0  0  0
    4.0720   -4.1360    0.0530 N   0  0  0  0  0  0  0  0  0  0  0  0
    4.3220   -2.9410   -0.5100 C   0  0  0  0  0  0  0  0  0  0  0  0
    5.4550   -2.8190   -1.0590 O   0  0  0  0  0  0  0  0  0  0  0  0
  1  2  1  0
  2  3  2  0
  2  4  1  0
  4  5  2  0
  4  6  1  0
  6  7  1  0
  7  8  2  0
  7 25  1  0
  8  9  1  0
  8 22  1  0
  9 10  1  0
 10 11  2  0
 10 12  1  0
 13 12  1  6
 13 14  1  0
 13 17  1  0
 14 15  1  0
 15 16  1  1
 15 17  1  0
 17 18  1  6
 17 21  1  0
 18 19  1  0
 19 20  1  0
 20 21  1  0
 22 23  2  0
 23 24  1  0
 24 25  1  0
 25 26  2  0
M  END
