
     RDKit          3D

 10 11  0  0  0  0  0  0  0  0999 V2000
   -3.1850   -0.7110   -0.6440 O   0  0  0  0  0  0  0  0  0  0  0  0
   -1.8880   -0.2270   -0.3850 C   0  0  0  0  0  0  0  0  0  0  0  0
   -1.6440    1.1140   -0.2160 C   0  0  0  0  0  0  0  0  0  0  0  0
   -0.3700    1.5830    0.0390 C   0  0  0  0  0  0  0  0  0  0  0  0
    0.6880    0.6960    0.1280 C   0  0  0  0  0  0  0  0  0  0  0  0
    2.0080    0.8490    0.3590 N   0  0  0  0  0  0  0  0  0  0  0  0
    2.6100   -0.3540    0.3430 C   0  0  0  0  0  0  0  0  0  0  0  0
    1.6530   -1.3300    0.0920 C   0  0  0  0  0  0  0  0  0  0  0  0
    0.4560   -0.6550   -0.0400 C   0  0  0  0  0  0  0  0  0  0  0  0
   -0.8270   -1.1060   -0.2940 C   0  0  0  0  0  0  0  0  0  0  0  0
  1  2  1  0
  2  3  2  0
  2 10  1  0
  3  4  1  0
  4  5  2  0
  5  6  1  0
  5  9  1  0
  6  7  1  0
  7  8  2  0
  8  9  1  0
  9 10  2  0
M  END
