
     RDKit          3D

 26 27  0  0  0  0  0  0  0  0999 V2000
   -0.4030    2.4990    0.2180 C   0  0  0  0  0  0  0  0  0  0  0  0
   -0.1090    1.0070    0.4050 C   0  0  2  0  0  0  0  0  0  0  0  0
    0.0460    0.8290    1.8380 N   0  0  0  0  0  0  0  0  0  0  0  0
    1.1860    0.7460   -0.2270 C   0  0  0  0  0  0  0  0  0  0  0  0
    1.3960    1.0050   -1.5670 C   0  0  0  0  0  0  0  0  0  0  0  0
    2.6540    0.7320   -2.0670 C   0  0  0  0  0  0  0  0  0  0  0  0
    3.6160    0.2380   -1.2770 N   0  0  0  0  0  0  0  0  0  0  0  0
    3.4240   -0.0190    0.0300 C   0  0  0  0  0  0  0  0  0  0  0  0
    4.4490   -0.5390    0.8730 N   0  0  0  0  0  0  0  0  0  0  0  0
    5.7500   -0.8370    0.4420 C   0  0  0  0  0  0  0  0  0  0  0  0
    6.0560   -0.6460   -0.7590 O   0  0  0  0  0  0  0  0  0  0  0  0
    6.7850   -1.3660    1.3280 C   0  0  0  0  0  0  0  0  0  0  0  0
    8.0920   -1.6730    0.8780 N   0  0  0  0  0  0  0  0  0  0  0  0
    6.4790   -1.5440    2.5260 O   0  0  0  0  0  0  0  0  0  0  0  0
    2.2100    0.2400    0.5320 N   0  0  0  0  0  0  0  0  0  0  0  0
   -1.2290    0.1830   -0.1550 C   0  0  2  0  0  0  0  0  0  0  0  0
   -1.3940    0.4380   -1.5480 N   0  0  0  0  0  0  0  0  0  0  0  0
   -2.5480    0.5230    0.5010 C   0  0  2  0  0  0  0  0  0  0  0  0
   -2.5920    0.3260    1.8410 O   0  0  0  0  0  0  0  0  0  0  0  0
   -3.0800   -0.8910    2.2690 C   0  0  0  0  0  0  0  0  0  0  0  0
   -4.4830   -1.1740    1.7930 C   0  0  0  0  0  0  0  0  0  0  0  0
   -4.5310   -0.8960    0.3820 N   0  0  0  0  0  0  0  0  0  0  0  0
   -3.6530   -0.1240   -0.2100 C   0  0  0  0  0  0  0  0  0  0  0  0
   -3.8670    0.0260   -1.5790 O   0  0  0  0  0  0  0  0  0  0  0  0
   -4.5870   -0.9200   -2.3500 C   0  0  0  0  0  0  0  0  0  0  0  0
   -5.8930   -1.0140   -1.8180 O   0  0  0  0  0  0  0  0  0  0  0  0
  2  1  1  1
  2  3  1  0
  2  4  1  0
  2 16  1  0
  4  5  2  0
  4 15  1  0
  5  6  1  0
  6  7  2  0
  7  8  1  0
  8  9  1  0
  8 15  2  0
  9 10  1  0
 10 11  2  0
 10 12  1  0
 12 13  1  0
 12 14  2  0
 16 17  1  6
 16 18  1  0
 18 19  1  1
 18 23  1  0
 19 20  1  0
 20 21  1  0
 21 22  1  0
 22 23  2  0
 23 24  1  0
 24 25  1  0
 25 26  1  0
M  CHG  1   3   1
M  END
