
     RDKit          3D

 26 27  0  0  0  0  0  0  0  0999 V2000
   -7.4740    1.1820   -1.1280 N   0  0  0  0  0  0  0  0  0  0  0  0
   -6.1850    0.6180   -1.2130 C   0  0  0  0  0  0  0  0  0  0  0  0
   -5.7600    0.1630   -2.4170 N   0  0  0  0  0  0  0  0  0  0  0  0
   -4.5450   -0.3760   -2.5290 C   0  0  0  0  0  0  0  0  0  0  0  0
   -3.7600   -0.4610   -1.4480 N   0  0  0  0  0  0  0  0  0  0  0  0
   -4.1380   -0.0250   -0.2360 C   0  0  0  0  0  0  0  0  0  0  0  0
   -3.2120   -0.1570    0.9000 C   0  0  2  0  0  0  0  0  0  0  0  0
   -3.7100    0.5330    2.1420 C   0  0  0  0  0  0  0  0  0  0  0  0
   -3.9060    1.9490    1.9540 N   0  0  0  0  0  0  0  0  0  0  0  0
   -1.8580    0.2440    0.5660 N   0  0  0  0  0  0  0  0  0  0  0  0
   -0.7580   -0.6560    0.5830 C   0  0  0  0  0  0  0  0  0  0  0  0
   -1.0080   -1.8460    0.9080 O   0  0  0  0  0  0  0  0  0  0  0  0
    0.6290   -0.1940    0.2290 C   0  0  1  0  0  0  0  0  0  0  0  0
    1.5450   -1.2080    0.3060 O   0  0  0  0  0  0  0  0  0  0  0  0
    2.6530   -0.9090   -0.4480 C   0  0  2  0  0  0  0  0  0  0  0  0
    3.8590   -1.4780    0.2520 C   0  0  0  0  0  0  0  0  0  0  0  0
    3.7360   -2.1020    1.3420 O   0  0  0  0  0  0  0  0  0  0  0  0
    5.1540   -1.3270   -0.2920 N   0  0  0  0  0  0  0  0  0  0  0  0
    6.3590   -1.8440    0.3220 C   0  0  0  0  0  0  0  0  0  0  0  0
    6.5180   -1.2190    1.6940 C   0  0  0  0  0  0  0  0  0  0  0  0
    6.6170    0.1690    1.6230 O   0  0  0  0  0  0  0  0  0  0  0  0
    2.9100    0.5650   -0.6050 C   0  0  0  0  0  0  0  0  0  0  0  0
    1.7890    1.2630   -1.3380 C   0  0  0  0  0  0  0  0  0  0  0  0
    0.5450    0.4080   -1.1610 C   0  0  1  0  0  0  0  0  0  0  0  0
    0.5730   -0.5730   -2.1520 O   0  0  0  0  0  0  0  0  0  0  0  0
   -5.3600    0.5170   -0.1270 N   0  0  0  0  0  0  0  0  0  0  0  0
  1  2  1  0
  2  3  2  0
  2 26  1  0
  3  4  1  0
  4  5  2  0
  5  6  1  0
  6  7  1  0
  6 26  2  0
  7  8  1  1
  7 10  1  0
  8  9  1  0
 10 11  1  0
 11 12  2  0
 13 11  1  6
 13 14  1  0
 13 24  1  0
 14 15  1  0
 15 16  1  1
 15 22  1  0
 16 17  2  0
 16 18  1  0
 18 19  1  0
 19 20  1  0
 20 21  1  0
 22 23  1  0
 23 24  1  0
 24 25  1  6
M  CHG  1   9   1
M  END
