
     RDKit          3D

 26 29  0  0  0  0  0  0  0  0999 V2000
   -5.1970    0.2790   -1.5410 N   0  0  0  0  0  0  0  0  0  0  0  0
   -5.2230   -0.7070   -0.4730 C   0  0  1  0  0  0  0  0  0  0  0  0
   -4.1480   -1.5900   -0.7180 O   0  0  0  0  0  0  0  0  0  0  0  0
   -2.9540   -0.9330   -0.3070 C   0  0  0  0  0  0  0  0  0  0  0  0
   -1.7550   -1.2430   -0.7410 C   0  0  0  0  0  0  0  0  0  0  0  0
   -0.5100   -0.6250   -0.3750 C   0  0  0  0  0  0  0  0  0  0  0  0
    0.6890   -1.0470   -0.8840 C   0  0  0  0  0  0  0  0  0  0  0  0
    1.7350   -0.2410   -0.3280 C   0  0  0  0  0  0  0  0  0  0  0  0
    2.9680    0.2490   -0.4040 C   0  0  0  0  0  0  0  0  0  0  0  0
    3.8570   -0.0350   -1.4630 N   0  0  0  0  0  0  0  0  0  0  0  0
    5.2790   -0.1320   -1.4200 C   0  0  1  0  0  0  0  0  0  0  0  0
    6.0280    1.1150   -1.1140 C   0  0  0  0  0  0  0  0  0  0  0  0
    7.1930    0.6540   -0.4980 O   0  0  0  0  0  0  0  0  0  0  0  0
    6.6400   -0.2020    0.4790 C   0  0  0  0  0  0  0  0  0  0  0  0
    5.6390   -1.0410   -0.2490 C   0  0  1  0  0  0  0  0  0  0  0  0
    4.5270   -1.2460    0.5520 O   0  0  0  0  0  0  0  0  0  0  0  0
    3.1750    1.0700    0.7310 N   0  0  0  0  0  0  0  0  0  0  0  0
    1.8770    1.5150    1.1010 N   0  0  0  0  0  0  0  0  0  0  0  0
    1.1340    0.3060    0.9630 C   0  0  1  0  0  0  0  0  0  0  0  0
   -0.2230    0.4770    0.4680 N   0  0  0  0  0  0  0  0  0  0  0  0
   -3.4040    0.0400    0.6080 N   0  0  0  0  0  0  0  0  0  0  0  0
   -4.8300   -0.0380    0.7320 N   0  0  0  0  0  0  0  0  0  0  0  0
   -5.5920    0.4420    1.8030 C   0  0  0  0  0  0  0  0  0  0  0  0
   -4.9940    0.9990    2.8030 O   0  0  0  0  0  0  0  0  0  0  0  0
   -7.0560    0.3770    1.9130 C   0  0  0  0  0  0  0  0  0  0  0  0
   -7.6870   -0.1670    0.8280 O   0  0  0  0  0  0  0  0  0  0  0  0
  2  1  1  6
  2  3  1  0
  2 22  1  0
  3  4  1  0
  4  5  2  3
  4 21  1  0
  5  6  1  0
  6  7  2  0
  6 20  1  0
  7  8  1  0
  8  9  2  0
  8 19  1  0
  9 10  1  0
  9 17  1  0
 11 10  1  1
 11 12  1  0
 11 15  1  0
 12 13  1  0
 13 14  1  0
 14 15  1  0
 15 16  1  1
 17 18  1  0
 19 18  1  6
 19 20  1  0
 21 22  1  0
 22 23  1  0
 23 24  2  0
 23 25  1  0
 25 26  1  0
M  CHG  1   1   1
M  END
