
     RDKit          3D

 20 21  0  0  0  0  0  0  0  0999 V2000
    5.9840   -1.4730    1.0570 C   0  0  0  0  0  0  0  0  0  0  0  0
    4.8270   -0.6980    1.2160 O   0  0  0  0  0  0  0  0  0  0  0  0
    4.1020   -0.6300    0.0350 C   0  0  0  0  0  0  0  0  0  0  0  0
    2.8780    0.2200    0.2970 C   0  0  1  0  0  0  0  0  0  0  0  0
    3.2200    1.5050    0.7000 O   0  0  0  0  0  0  0  0  0  0  0  0
    1.9860    2.1780    0.5540 C   0  0  0  0  0  0  0  0  0  0  0  0
    1.4880    1.5760   -0.7380 C   0  0  2  0  0  0  0  0  0  0  0  0
    0.0030    1.5240   -0.8030 C   0  0  0  0  0  0  0  0  0  0  0  0
   -0.6160    2.6110   -0.7200 O   0  0  0  0  0  0  0  0  0  0  0  0
   -0.7300    0.3770   -0.9460 O   0  0  0  0  0  0  0  0  0  0  0  0
   -2.1090    0.2740   -1.0120 C   0  0  1  0  0  0  0  0  0  0  0  0
   -2.7300    0.9760   -2.0870 N   0  0  0  0  0  0  0  0  0  0  0  0
   -2.4500   -1.2130   -1.1710 C   0  0  0  0  0  0  0  0  0  0  0  0
   -3.6480   -1.4030   -0.3010 C   0  0  1  0  0  0  0  0  0  0  0  0
   -3.5330   -2.5630    0.6510 C   0  0  0  0  0  0  0  0  0  0  0  0
   -3.9050   -0.2390    0.3710 O   0  0  0  0  0  0  0  0  0  0  0  0
   -2.8210    0.5940    0.2790 C   0  0  1  0  0  0  0  0  0  0  0  0
   -1.9210    0.4770    1.4760 C   0  0  0  0  0  0  0  0  0  0  0  0
   -3.3170    1.9070    0.1560 O   0  0  0  0  0  0  0  0  0  0  0  0
    2.0830    0.3440   -0.8360 O   0  0  0  0  0  0  0  0  0  0  0  0
  1  2  1  0
  2  3  1  0
  4  3  1  6
  4  5  1  0
  4 20  1  0
  5  6  1  0
  6  7  1  0
  7  8  1  1
  7 20  1  0
  8  9  2  0
  8 10  1  0
 10 11  1  0
 11 12  1  6
 11 13  1  0
 11 17  1  0
 13 14  1  0
 14 15  1  1
 14 16  1  0
 16 17  1  0
 17 18  1  1
 17 19  1  0
M  END
