
     RDKit          3D

 20 22  0  0  0  0  0  0  0  0999 V2000
   -0.8810    1.9910    0.6600 C   0  0  0  0  0  0  0  0  0  0  0  0
   -1.2470    0.5240    0.7440 C   0  0  2  0  0  0  0  0  0  0  0  0
   -0.1810   -0.3140    0.6040 O   0  0  0  0  0  0  0  0  0  0  0  0
    0.3890   -0.3410   -0.6500 C   0  0  1  0  0  0  0  0  0  0  0  0
    1.6380    0.2670   -0.5600 O   0  0  0  0  0  0  0  0  0  0  0  0
    2.3710   -0.4810    0.3580 C   0  0  1  0  0  0  0  0  0  0  0  0
    3.4650   -1.0470   -0.3230 O   0  0  0  0  0  0  0  0  0  0  0  0
    2.8830    0.3590    1.5010 C   0  0  0  0  0  0  0  0  0  0  0  0
    3.7110    1.3790    1.0900 O   0  0  0  0  0  0  0  0  0  0  0  0
    0.6140   -1.6500   -1.1000 O   0  0  0  0  0  0  0  0  0  0  0  0
    0.8520   -1.4280   -2.4550 C   0  0  0  0  0  0  0  0  0  0  0  0
    0.0080   -0.4260   -2.8710 O   0  0  0  0  0  0  0  0  0  0  0  0
   -0.4680    0.2170   -1.7340 C   0  0  1  0  0  0  0  0  0  0  0  0
   -1.8860   -0.2740   -1.5110 C   0  0  0  0  0  0  0  0  0  0  0  0
   -2.3940    0.2160   -0.1910 C   0  0  1  0  0  0  0  0  0  0  0  0
   -3.1750   -0.7950    0.5520 C   0  0  0  0  0  0  0  0  0  0  0  0
   -3.8630   -1.7500    0.1480 O   0  0  0  0  0  0  0  0  0  0  0  0
   -3.0090   -0.4850    1.9520 N   0  0  0  0  0  0  0  0  0  0  0  0
   -1.8510    0.3010    2.0790 C   0  0  0  0  0  0  0  0  0  0  0  0
   -1.3860    0.7530    3.1460 O   0  0  0  0  0  0  0  0  0  0  0  0
  2  1  1  1
  2  3  1  0
  2 15  1  0
  2 19  1  0
  3  4  1  0
  4  5  1  1
  4 10  1  0
  4 13  1  0
  5  6  1  0
  6  7  1  6
  6  8  1  0
  8  9  1  0
 10 11  1  0
 11 12  1  0
 12 13  1  0
 13 14  1  1
 15 14  1  6
 15 16  1  0
 16 17  2  0
 16 18  1  0
 18 19  1  0
 19 20  2  0
M  END
