
     RDKit          3D

 21 22  0  0  0  0  0  0  0  0999 V2000
   -0.1630   -0.2600   -0.9030 O   0  0  0  0  0  0  0  0  0  0  0  0
   -0.4210   -0.6400    0.2470 C   0  0  0  0  0  0  0  0  0  0  0  0
    0.4360   -1.3460    1.1090 N   0  0  0  0  0  0  0  0  0  0  0  0
    1.7630   -1.7370    0.8270 C   0  0  0  0  0  0  0  0  0  0  0  0
    2.8270   -0.7210    0.6640 C   0  0  2  0  0  0  0  0  0  0  0  0
    2.6750    0.2460   -0.4340 C   0  0  0  0  0  0  0  0  0  0  0  0
    4.0050    0.9260   -0.7830 C   0  0  2  0  0  0  0  0  0  0  0  0
    4.4760    0.4600   -1.9920 O   0  0  0  0  0  0  0  0  0  0  0  0
    5.0550    0.7090    0.2700 C   0  0  0  0  0  0  0  0  0  0  0  0
    5.2840   -0.7080    0.3560 O   0  0  0  0  0  0  0  0  0  0  0  0
    4.1360   -1.4540    0.6040 C   0  0  0  0  0  0  0  0  0  0  0  0
    4.2250   -2.6740    0.7640 O   0  0  0  0  0  0  0  0  0  0  0  0
   -1.7120   -0.3180    0.7120 O   0  0  0  0  0  0  0  0  0  0  0  0
   -2.5890    0.3910   -0.1380 C   0  0  2  0  0  0  0  0  0  0  0  0
   -2.9800    1.6390    0.5640 C   0  0  0  0  0  0  0  0  0  0  0  0
   -2.1510    2.5130    0.9160 O   0  0  0  0  0  0  0  0  0  0  0  0
   -4.3150    1.8570    0.8490 O   0  0  0  0  0  0  0  0  0  0  0  0
   -5.3830    1.4440    0.0340 C   0  0  0  0  0  0  0  0  0  0  0  0
   -4.9750    0.3200   -0.8930 C   0  0  0  0  0  0  0  0  0  0  0  0
   -3.8260   -0.4740   -0.3090 C   0  0  2  0  0  0  0  0  0  0  0  0
   -4.2120   -0.8940    0.9650 O   0  0  0  0  0  0  0  0  0  0  0  0
  1  2  2  0
  2  3  1  0
  2 13  1  0
  3  4  1  0
  5  4  1  6
  5  6  1  0
  5 11  1  0
  6  7  1  0
  7  8  1  6
  7  9  1  0
  9 10  1  0
 10 11  1  0
 11 12  2  0
 14 13  1  1
 14 15  1  0
 14 20  1  0
 15 16  2  0
 15 17  1  0
 17 18  1  0
 18 19  1  0
 19 20  1  0
 20 21  1  1
M  END
