
     RDKit          3D

 20 21  0  0  0  0  0  0  0  0999 V2000
    5.5410    0.5900   -1.5110 C   0  0  0  0  0  0  0  0  0  0  0  0
    4.6170   -0.0030   -0.7990 C   0  0  0  0  0  0  0  0  0  0  0  0
    3.3200   -0.1730   -1.3000 O   0  0  0  0  0  0  0  0  0  0  0  0
    2.3130   -0.3780   -0.3330 C   0  0  2  0  0  0  0  0  0  0  0  0
    1.0390    0.0930   -0.8600 C   0  0  0  0  0  0  0  0  0  0  0  0
    1.0100    0.5820   -2.0200 O   0  0  0  0  0  0  0  0  0  0  0  0
   -0.1920    0.0410   -0.1500 N   0  0  0  0  0  0  0  0  0  0  0  0
   -1.3750    0.5490   -0.8090 C   0  0  0  0  0  0  0  0  0  0  0  0
   -2.6020    0.4260    0.0680 C   0  0  1  0  0  0  0  0  0  0  0  0
   -2.4570    1.1350    1.2550 O   0  0  0  0  0  0  0  0  0  0  0  0
   -3.8090    0.8690   -0.7160 C   0  0  0  0  0  0  0  0  0  0  0  0
   -5.0480    0.0670   -0.3740 C   0  0  0  0  0  0  0  0  0  0  0  0
   -4.9790   -0.3060    1.1010 C   0  0  0  0  0  0  0  0  0  0  0  0
   -3.9370   -1.2880    1.2080 O   0  0  0  0  0  0  0  0  0  0  0  0
   -2.7920   -1.0050    0.4460 C   0  0  0  0  0  0  0  0  0  0  0  0
   -1.9780   -1.9040    0.1040 O   0  0  0  0  0  0  0  0  0  0  0  0
    2.6690    0.1880    1.0080 C   0  0  0  0  0  0  0  0  0  0  0  0
    3.8880   -0.1930    1.4750 O   0  0  0  0  0  0  0  0  0  0  0  0
    4.8440   -0.5380    0.5680 C   0  0  1  0  0  0  0  0  0  0  0  0
    5.0430   -1.9260    0.5300 O   0  0  0  0  0  0  0  0  0  0  0  0
  1  2  2  0
  2  3  1  0
  2 19  1  0
  3  4  1  0
  4  5  1  6
  4 17  1  0
  5  6  2  0
  5  7  1  0
  7  8  1  0
  8  9  1  0
  9 10  1  1
  9 11  1  0
  9 15  1  0
 11 12  1  0
 12 13  1  0
 13 14  1  0
 14 15  1  0
 15 16  2  0
 17 18  1  0
 18 19  1  0
 19 20  1  6
M  END
