
     RDKit          3D

 21 21  0  0  0  0  0  0  0  0999 V2000
   -4.0580    1.3580    2.0280 C   0  0  0  0  0  0  0  0  0  0  0  0
   -3.2640    0.3280    1.4730 O   0  0  0  0  0  0  0  0  0  0  0  0
   -3.1400    0.2450    0.1120 C   0  0  0  0  0  0  0  0  0  0  0  0
   -3.7400    1.0910   -0.6080 O   0  0  0  0  0  0  0  0  0  0  0  0
   -2.3410   -0.7810   -0.6050 C   0  0  2  0  0  0  0  0  0  0  0  0
   -3.3420   -1.6090   -1.4200 C   0  0  0  0  0  0  0  0  0  0  0  0
   -1.7070   -1.6800    0.2680 O   0  0  0  0  0  0  0  0  0  0  0  0
   -0.3280   -1.8120    0.1880 C   0  0  0  0  0  0  0  0  0  0  0  0
    0.2710   -2.9380    0.2660 O   0  0  0  0  0  0  0  0  0  0  0  0
    0.4360   -0.5490    0.0030 C   0  0  1  0  0  0  0  0  0  0  0  0
    0.3650    0.2060    1.3110 C   0  0  0  0  0  0  0  0  0  0  0  0
    1.9030   -0.8350   -0.2690 C   0  0  1  0  0  0  0  0  0  0  0  0
    1.9670   -1.5900   -1.4930 N   0  0  0  0  0  0  0  0  0  0  0  0
    2.6750    0.4110   -0.3090 C   0  0  0  0  0  0  0  0  0  0  0  0
    3.3330    0.7890   -1.3820 C   0  0  0  0  0  0  0  0  0  0  0  0
    4.0700    1.9540   -1.4580 O   0  0  0  0  0  0  0  0  0  0  0  0
    2.7140    1.2170    0.8180 O   0  0  0  0  0  0  0  0  0  0  0  0
    3.8150    1.1970    1.7170 C   0  0  0  0  0  0  0  0  0  0  0  0
   -0.1290    0.1950   -1.0600 O   0  0  0  0  0  0  0  0  0  0  0  0
   -1.4070   -0.0730   -1.5070 C   0  0  0  0  0  0  0  0  0  0  0  0
   -1.8070    0.2560   -2.6430 O   0  0  0  0  0  0  0  0  0  0  0  0
  1  2  1  0
  2  3  1  0
  3  4  2  0
  3  5  1  0
  5  6  1  6
  5  7  1  0
  5 20  1  0
  7  8  1  0
  8  9  2  0
  8 10  1  0
 10 11  1  1
 10 12  1  0
 10 19  1  0
 12 13  1  6
 12 14  1  0
 14 15  2  3
 14 17  1  0
 15 16  1  0
 17 18  1  0
 19 20  1  0
 20 21  2  0
M  END
