
     RDKit          3D

 20 21  0  0  0  0  0  0  0  0999 V2000
    4.9300    2.1140   -0.1990 C   0  0  0  0  0  0  0  0  0  0  0  0
    4.6250    0.8190   -0.5600 O   0  0  0  0  0  0  0  0  0  0  0  0
    3.3350    0.6690   -1.0030 C   0  0  1  0  0  0  0  0  0  0  0  0
    3.3970    0.2190   -2.3430 O   0  0  0  0  0  0  0  0  0  0  0  0
    2.5860   -0.4000   -0.2400 C   0  0  2  0  0  0  0  0  0  0  0  0
    1.1560   -0.4490   -0.7830 C   0  0  0  0  0  0  0  0  0  0  0  0
    0.4890   -1.6020   -0.0230 C   0  0  2  0  0  0  0  0  0  0  0  0
   -0.7610   -1.1440    0.6140 C   0  0  0  0  0  0  0  0  0  0  0  0
   -0.8890   -1.3030    1.8540 O   0  0  0  0  0  0  0  0  0  0  0  0
   -1.7950   -0.5500   -0.0710 O   0  0  0  0  0  0  0  0  0  0  0  0
   -2.9750   -0.1260    0.5800 C   0  0  1  0  0  0  0  0  0  0  0  0
   -3.1630    1.3270    0.4330 C   0  0  0  0  0  0  0  0  0  0  0  0
   -2.3090    2.2340    0.7170 O   0  0  0  0  0  0  0  0  0  0  0  0
   -4.4610    1.5750   -0.0830 N   0  0  0  0  0  0  0  0  0  0  0  0
   -4.8260    0.3980   -0.8380 C   0  0  0  0  0  0  0  0  0  0  0  0
   -4.2110   -0.7160   -0.0320 C   0  0  2  0  0  0  0  0  0  0  0  0
   -5.0480   -1.1410    0.9940 O   0  0  0  0  0  0  0  0  0  0  0  0
    1.3800   -2.1630    0.8470 O   0  0  0  0  0  0  0  0  0  0  0  0
    1.9850   -1.2970    1.7190 C   0  0  0  0  0  0  0  0  0  0  0  0
    2.4920   -0.1470    1.1090 O   0  0  0  0  0  0  0  0  0  0  0  0
  1  2  1  0
  2  3  1  0
  3  4  1  6
  3  5  1  0
  5  6  1  6
  5 20  1  0
  6  7  1  0
  7  8  1  1
  7 18  1  0
  8  9  2  0
  8 10  1  0
 11 10  1  6
 11 12  1  0
 11 16  1  0
 12 13  2  0
 12 14  1  0
 14 15  1  0
 15 16  1  0
 16 17  1  1
 18 19  1  0
 19 20  1  0
M  END
