
     RDKit          3D

 18 19  0  0  0  0  0  0  0  0999 V2000
   -2.3270   -2.5080    1.1110 C   0  0  0  0  0  0  0  0  0  0  0  0
   -1.9830   -1.7040   -0.1240 C   0  0  0  0  0  0  0  0  0  0  0  0
   -1.7860   -0.3040    0.1730 N   0  0  0  0  0  0  0  0  0  0  0  0
   -0.6540    0.1520    0.9540 C   0  0  0  0  0  0  0  0  0  0  0  0
    0.6250   -0.0210    0.2350 C   0  0  0  0  0  0  0  0  0  0  0  0
    0.6320   -0.5280   -0.9050 O   0  0  0  0  0  0  0  0  0  0  0  0
    1.8150    0.3710    0.8050 O   0  0  0  0  0  0  0  0  0  0  0  0
    3.0580    0.2430    0.1970 C   0  0  0  0  0  0  0  0  0  0  0  0
    3.5110    1.2590   -0.6080 C   0  0  0  0  0  0  0  0  0  0  0  0
    4.7450    1.1630   -1.2280 C   0  0  0  0  0  0  0  0  0  0  0  0
    5.4890    0.0710   -1.0320 N   0  0  0  0  0  0  0  0  0  0  0  0
    5.0840   -0.9650   -0.2430 C   0  0  0  0  0  0  0  0  0  0  0  0
    3.8520   -0.8710    0.3770 C   0  0  0  0  0  0  0  0  0  0  0  0
   -2.7380    0.6470   -0.3200 C   0  0  0  0  0  0  0  0  0  0  0  0
   -3.8790    0.4140   -1.0690 C   0  0  0  0  0  0  0  0  0  0  0  0
   -4.5030    1.6140   -1.3280 C   0  0  0  0  0  0  0  0  0  0  0  0
   -3.7780    2.5810   -0.7600 N   0  0  0  0  0  0  0  0  0  0  0  0
   -2.7100    2.0220   -0.1470 C   0  0  0  0  0  0  0  0  0  0  0  0
  1  2  1  0
  2  3  1  0
  3  4  1  0
  3 14  1  0
  4  5  1  0
  5  6  2  0
  5  7  1  0
  7  8  1  0
  8  9  2  0
  8 13  1  0
  9 10  1  0
 10 11  2  0
 11 12  1  0
 12 13  2  0
 14 15  1  0
 14 18  2  0
 15 16  2  0
 16 17  1  0
 17 18  1  0
M  CHG  1  11   1
M  END
