
     RDKit          3D

 18 19  0  0  0  0  0  0  0  0999 V2000
    3.9410   -2.7330   -0.0640 C   0  0  0  0  0  0  0  0  0  0  0  0
    3.1400   -1.9400    0.7740 O   0  0  0  0  0  0  0  0  0  0  0  0
    2.7780   -0.6490    0.5600 C   0  0  0  0  0  0  0  0  0  0  0  0
    1.6940   -0.2570   -0.1350 C   0  0  0  0  0  0  0  0  0  0  0  0
    0.7150   -1.1510   -0.7860 C   0  0  0  0  0  0  0  0  0  0  0  0
   -0.6500   -1.1410   -0.1770 C   0  0  0  0  0  0  0  0  0  0  0  0
   -1.2850    0.1260   -0.2220 N   0  0  0  0  0  0  0  0  0  0  0  0
   -2.7300    0.0420   -0.0370 C   0  0  2  0  0  0  0  0  0  0  0  0
   -3.0270    0.0600    1.4370 C   0  0  0  0  0  0  0  0  0  0  0  0
   -3.3260   -1.1540   -0.7190 C   0  0  0  0  0  0  0  0  0  0  0  0
   -3.3320    1.2810   -0.6640 C   0  0  0  0  0  0  0  0  0  0  0  0
    1.6550    1.1990   -0.1460 C   0  0  0  0  0  0  0  0  0  0  0  0
    0.9840    2.3000   -0.5770 N   0  0  0  0  0  0  0  0  0  0  0  0
    1.5870    3.4230   -0.1800 C   0  0  0  0  0  0  0  0  0  0  0  0
    2.6880    3.0410    0.5350 C   0  0  0  0  0  0  0  0  0  0  0  0
    2.7150    1.6980    0.5460 N   0  0  0  0  0  0  0  0  0  0  0  0
    3.4440    0.5470    1.0050 C   0  0  0  0  0  0  0  0  0  0  0  0
    4.4970    0.6710    1.6890 O   0  0  0  0  0  0  0  0  0  0  0  0
  1  2  1  0
  2  3  1  0
  3  4  2  0
  3 17  1  0
  4  5  1  0
  4 12  1  0
  5  6  1  0
  6  7  1  0
  7  8  1  0
  8  9  1  1
  8 10  1  0
  8 11  1  0
 12 13  2  0
 12 16  1  0
 13 14  1  0
 14 15  2  0
 15 16  1  0
 16 17  1  0
 17 18  2  0
M  CHG  1   7   1
M  END
