
     RDKit          3D

 18 19  0  0  0  0  0  0  0  0999 V2000
   -3.2250   -2.4000    0.1200 C   0  0  0  0  0  0  0  0  0  0  0  0
   -3.4430   -0.9750    0.0000 N   0  0  0  0  0  0  0  0  0  0  0  0
   -4.7600   -0.4440   -0.1080 C   0  0  0  0  0  0  0  0  0  0  0  0
   -5.7730   -1.1680    0.0730 O   0  0  0  0  0  0  0  0  0  0  0  0
   -4.9550    0.9770   -0.4370 C   0  0  0  0  0  0  0  0  0  0  0  0
   -3.7900    1.7520   -0.2270 O   0  0  0  0  0  0  0  0  0  0  0  0
   -2.5190    1.2420   -0.1230 C   0  0  0  0  0  0  0  0  0  0  0  0
   -1.4230    2.1110   -0.1330 C   0  0  0  0  0  0  0  0  0  0  0  0
   -0.1520    1.5320   -0.0240 C   0  0  0  0  0  0  0  0  0  0  0  0
    0.0290    0.1850    0.0890 C   0  0  0  0  0  0  0  0  0  0  0  0
    1.3220   -0.4390    0.2060 C   0  0  0  0  0  0  0  0  0  0  0  0
    2.5400    0.4030    0.2250 C   0  0  2  0  0  0  0  0  0  0  0  0
    2.5870    1.3940    1.3710 C   0  0  0  0  0  0  0  0  0  0  0  0
    2.7280    1.0940   -1.0920 C   0  0  0  0  0  0  0  0  0  0  0  0
    3.6990   -0.5750    0.4990 C   0  0  0  0  0  0  0  0  0  0  0  0
    3.8200   -1.5880   -0.4910 N   0  0  0  0  0  0  0  0  0  0  0  0
   -1.0610   -0.6070    0.0940 N   0  0  0  0  0  0  0  0  0  0  0  0
   -2.2970   -0.1130   -0.0070 C   0  0  0  0  0  0  0  0  0  0  0  0
  1  2  1  0
  2  3  1  0
  2 18  1  0
  3  4  2  0
  3  5  1  0
  5  6  1  0
  6  7  1  0
  7  8  2  0
  7 18  1  0
  8  9  1  0
  9 10  2  0
 10 11  1  0
 10 17  1  0
 11 12  1  0
 12 13  1  1
 12 14  1  0
 12 15  1  0
 15 16  1  0
 17 18  2  0
M  CHG  2  16   1  17   1
M  END
