
     RDKit          3D

 18 19  0  0  0  0  0  0  0  0999 V2000
    4.9760    1.4990   -0.6970 C   0  0  0  0  0  0  0  0  0  0  0  0
    4.1010    0.4040   -1.1000 N   0  0  0  0  0  0  0  0  0  0  0  0
    3.7720   -0.3490    0.0860 C   0  0  1  0  0  0  0  0  0  0  0  0
    2.9870    0.4660    1.0590 C   0  0  0  0  0  0  0  0  0  0  0  0
    1.8410   -0.3790    1.6030 C   0  0  0  0  0  0  0  0  0  0  0  0
    0.9250   -0.6500    0.4130 C   0  0  2  0  0  0  0  0  0  0  0  0
   -0.2660   -1.2590    0.8050 O   0  0  0  0  0  0  0  0  0  0  0  0
   -1.5290   -0.7540    0.6450 C   0  0  0  0  0  0  0  0  0  0  0  0
   -1.8320    0.4540    0.0630 C   0  0  0  0  0  0  0  0  0  0  0  0
   -3.1290    0.9120   -0.0710 C   0  0  0  0  0  0  0  0  0  0  0  0
   -4.1490    0.1280    0.3960 C   0  0  0  0  0  0  0  0  0  0  0  0
   -5.5440    0.6180    0.2530 C   0  0  0  0  0  0  0  0  0  0  0  0
   -6.0610    0.1240   -1.0800 C   0  0  0  0  0  0  0  0  0  0  0  0
   -7.3630    0.5350   -1.3010 O   0  0  0  0  0  0  0  0  0  0  0  0
   -3.8510   -1.0510    0.9640 N   0  0  0  0  0  0  0  0  0  0  0  0
   -2.6140   -1.4650    1.0800 N   0  0  0  0  0  0  0  0  0  0  0  0
    1.6550   -1.5160   -0.6010 C   0  0  0  0  0  0  0  0  0  0  0  0
    3.1070   -1.6490   -0.2730 C   0  0  0  0  0  0  0  0  0  0  0  0
  1  2  1  0
  3  2  1  6
  3  4  1  0
  3 18  1  0
  4  5  1  0
  5  6  1  0
  6  7  1  1
  6 17  1  0
  7  8  1  0
  8  9  2  0
  8 16  1  0
  9 10  1  0
 10 11  2  0
 11 12  1  0
 11 15  1  0
 12 13  1  0
 13 14  1  0
 15 16  2  0
 17 18  1  0
M  CHG  1   2   1
M  END
