
     RDKit          3D

 18 18  0  0  0  0  0  0  0  0999 V2000
   -3.0740    2.4660    0.9370 C   0  0  0  0  0  0  0  0  0  0  0  0
   -3.9740    1.5310    1.1350 C   0  0  0  0  0  0  0  0  0  0  0  0
   -3.8870    0.2700    0.4400 C   0  0  0  0  0  0  0  0  0  0  0  0
   -4.7610   -0.7020    0.5970 C   0  0  0  0  0  0  0  0  0  0  0  0
   -4.6210   -1.9670   -0.1390 C   0  0  0  0  0  0  0  0  0  0  0  0
   -2.7520    0.0450   -0.5090 C   0  0  0  0  0  0  0  0  0  0  0  0
   -1.4820    0.1280    0.1460 N   0  0  0  0  0  0  0  0  0  0  0  0
   -0.2980   -0.0540   -0.6010 C   0  0  0  0  0  0  0  0  0  0  0  0
   -0.4060   -0.2890   -1.8440 O   0  0  0  0  0  0  0  0  0  0  0  0
    1.0310    0.0160   -0.0050 C   0  0  0  0  0  0  0  0  0  0  0  0
    1.0760    0.2460    1.2220 O   0  0  0  0  0  0  0  0  0  0  0  0
    2.2230   -0.1580   -0.7260 N   0  0  0  0  0  0  0  0  0  0  0  0
    2.1140   -0.4170   -2.1440 C   0  0  0  0  0  0  0  0  0  0  0  0
    3.4920   -0.0840   -0.0870 C   0  0  0  0  0  0  0  0  0  0  0  0
    4.6840   -0.2380   -0.6650 C   0  0  0  0  0  0  0  0  0  0  0  0
    5.7610   -0.0860    0.3430 C   0  0  0  0  0  0  0  0  0  0  0  0
    5.0610    0.1700    1.5490 N   0  0  0  0  0  0  0  0  0  0  0  0
    3.7700    0.1740    1.3170 C   0  0  0  0  0  0  0  0  0  0  0  0
  1  2  2  0
  2  3  1  0
  3  4  2  3
  3  6  1  0
  4  5  1  0
  6  7  1  0
  7  8  1  0
  8  9  2  0
  8 10  1  0
 10 11  2  0
 10 12  1  0
 12 13  1  0
 12 14  1  0
 14 15  2  0
 14 18  1  0
 15 16  1  0
 16 17  1  0
 17 18  2  0
M  CHG  1  17   1
M  END
