
     RDKit          3D

 18 19  0  0  0  0  0  0  0  0999 V2000
   -3.1760    3.1590   -0.8380 C   0  0  0  0  0  0  0  0  0  0  0  0
   -3.5240    2.6330    0.5060 C   0  0  0  0  0  0  0  0  0  0  0  0
   -2.6940    1.8440    1.0800 N   0  0  0  0  0  0  0  0  0  0  0  0
   -1.5140    1.4880    0.4810 O   0  0  0  0  0  0  0  0  0  0  0  0
   -1.3010    0.1480    0.2110 C   0  0  0  0  0  0  0  0  0  0  0  0
   -2.2410   -0.7990    0.5320 C   0  0  0  0  0  0  0  0  0  0  0  0
   -2.0040   -2.1380    0.2510 C   0  0  0  0  0  0  0  0  0  0  0  0
   -0.8190   -2.4750   -0.3480 C   0  0  0  0  0  0  0  0  0  0  0  0
    0.1200   -1.5180   -0.6680 C   0  0  0  0  0  0  0  0  0  0  0  0
   -0.0770   -0.1820   -0.4050 C   0  0  0  0  0  0  0  0  0  0  0  0
    0.7530    0.8450   -0.6580 O   0  0  0  0  0  0  0  0  0  0  0  0
    2.0180    0.8410   -1.2000 C   0  0  0  0  0  0  0  0  0  0  0  0
    3.0760    0.1520   -0.3750 C   0  0  0  0  0  0  0  0  0  0  0  0
    3.2040    0.7910    0.9240 N   0  0  0  0  0  0  0  0  0  0  0  0
    4.6120    1.0260    1.2510 C   0  0  0  0  0  0  0  0  0  0  0  0
   -0.8440   -3.9150   -0.5190 C   0  0  0  0  0  0  0  0  0  0  0  0
   -1.9300   -4.4130   -0.0720 N   0  0  0  0  0  0  0  0  0  0  0  0
   -2.7580   -3.3770    0.4480 C   0  0  0  0  0  0  0  0  0  0  0  0
  1  2  1  0
  2  3  2  3
  3  4  1  0
  4  5  1  0
  5  6  2  0
  5 10  1  0
  6  7  1  0
  7  8  2  0
  7 18  1  0
  8  9  1  0
  8 16  1  0
  9 10  2  0
 10 11  1  0
 11 12  1  0
 12 13  1  0
 13 14  1  0
 14 15  1  0
 16 17  2  0
 17 18  1  0
M  CHG  1  14   1
M  END
