
     RDKit          3D

 18 18  0  0  0  0  0  0  0  0999 V2000
   -3.6770    2.9000   -1.4070 C   0  0  0  0  0  0  0  0  0  0  0  0
   -2.7540    2.9700   -0.4870 C   0  0  0  0  0  0  0  0  0  0  0  0
   -2.2250    1.8160    0.1940 C   0  0  0  0  0  0  0  0  0  0  0  0
   -1.2800    1.9490    1.1030 C   0  0  0  0  0  0  0  0  0  0  0  0
   -2.6740    0.4690   -0.0850 C   0  0  0  0  0  0  0  0  0  0  0  0
   -3.9440    0.0600   -0.1450 N   0  0  0  0  0  0  0  0  0  0  0  0
   -4.2950   -1.2040   -0.4510 C   0  0  0  0  0  0  0  0  0  0  0  0
   -3.3710   -2.1860   -0.7290 C   0  0  0  0  0  0  0  0  0  0  0  0
   -2.0370   -1.7870   -0.6740 C   0  0  0  0  0  0  0  0  0  0  0  0
   -1.6960   -0.4900   -0.3590 C   0  0  0  0  0  0  0  0  0  0  0  0
   -0.3390   -0.0980   -0.3080 N   0  0  0  0  0  0  0  0  0  0  0  0
    0.5610   -0.9360    0.0320 C   0  0  0  0  0  0  0  0  0  0  0  0
    1.9840   -0.5340    0.0890 C   0  0  0  0  0  0  0  0  0  0  0  0
    2.3290    0.6410   -0.1950 O   0  0  0  0  0  0  0  0  0  0  0  0
    2.9890   -1.4640    0.4630 N   0  0  0  0  0  0  0  0  0  0  0  0
    4.3940   -1.1130    0.5310 C   0  0  0  0  0  0  0  0  0  0  0  0
    4.8610   -0.6750   -0.7130 O   0  0  0  0  0  0  0  0  0  0  0  0
    6.1920   -0.3540   -0.6230 C   0  0  0  0  0  0  0  0  0  0  0  0
  1  2  2  0
  2  3  1  0
  3  4  2  0
  3  5  1  0
  5  6  2  0
  5 10  1  0
  6  7  1  0
  7  8  2  0
  8  9  1  0
  9 10  2  0
 10 11  1  0
 11 12  2  3
 12 13  1  0
 13 14  2  0
 13 15  1  0
 15 16  1  0
 16 17  1  0
 17 18  1  0
M  CHG  1   6   1
M  END
