
     RDKit          3D

 20 19  0  0  0  0  0  0  0  0999 V2000
    4.3940   -1.4220   -2.2300 C   0  0  0  0  0  0  0  0  0  0  0  0
    4.5600   -1.9850   -0.8340 C   0  0  0  0  0  0  0  0  0  0  0  0
    3.3430   -2.3670   -0.3170 O   0  0  0  0  0  0  0  0  0  0  0  0
    2.4750   -1.3030   -0.2770 C   0  0  0  0  0  0  0  0  0  0  0  0
    3.0200   -0.2150    0.5890 C   0  0  0  0  0  0  0  0  0  0  0  0
    2.0820    0.8610    0.6070 O   0  0  0  0  0  0  0  0  0  0  0  0
    1.6760    1.5820   -0.4730 C   0  0  0  0  0  0  0  0  0  0  0  0
    2.1430    1.3150   -1.6040 O   0  0  0  0  0  0  0  0  0  0  0  0
    0.6730    2.6930   -0.3120 C   0  0  0  0  0  0  0  0  0  0  0  0
    0.3120    2.7780    1.0770 N   0  0  0  0  0  0  0  0  0  0  0  0
    1.0660    3.6330    1.9540 C   0  0  0  0  0  0  0  0  0  0  0  0
   -0.7620    2.0400    1.5840 C   0  0  0  0  0  0  0  0  0  0  0  0
   -1.0740    2.1150    2.7900 O   0  0  0  0  0  0  0  0  0  0  0  0
   -1.5430    1.1600    0.6910 C   0  0  0  0  0  0  0  0  0  0  0  0
   -2.6570    0.4520    1.4250 C   0  0  0  0  0  0  0  0  0  0  0  0
   -3.3950   -0.4190    0.4400 C   0  0  1  0  0  0  0  0  0  0  0  0
   -3.9890    0.3920   -0.6910 C   0  0  0  0  0  0  0  0  0  0  0  0
   -2.5670   -1.4340   -0.1440 N   0  0  2  0  0  0  0  0  0  0  0  0
   -3.4490   -2.3120   -0.9160 C   0  0  0  0  0  0  0  0  0  0  0  0
   -1.8710   -2.2410    0.8150 C   0  0  0  0  0  0  0  0  0  0  0  0
  1  2  1  0
  2  3  1  0
  3  4  1  0
  4  5  1  0
  5  6  1  0
  6  7  1  0
  7  8  2  0
  7  9  1  0
  9 10  1  0
 10 11  1  0
 10 12  1  0
 12 13  2  0
 12 14  1  0
 14 15  1  0
 15 16  1  0
 16 17  1  6
 16 18  1  0
 18 19  1  1
 18 20  1  0
M  CHG  1  18   1
M  END
