
     RDKit          3D

 20 20  0  0  0  0  0  0  0  0999 V2000
    6.1980    1.4190   -0.0760 C   0  0  0  0  0  0  0  0  0  0  0  0
    5.2640    0.4940   -0.5530 O   0  0  0  0  0  0  0  0  0  0  0  0
    5.1290   -0.5480    0.3350 C   0  0  0  0  0  0  0  0  0  0  0  0
    4.1050   -1.5170   -0.2270 C   0  0  0  0  0  0  0  0  0  0  0  0
    2.8470   -0.8390   -0.3800 N   0  0  1  0  0  0  0  0  0  0  0  0
    2.1840   -1.4150   -1.5350 C   0  0  0  0  0  0  0  0  0  0  0  0
    0.9620   -0.6660   -1.8450 C   0  0  0  0  0  0  0  0  0  0  0  0
    0.1590   -0.1910   -0.7500 N   0  0  0  0  0  0  0  0  0  0  0  0
   -0.1370    1.2110   -0.8670 C   0  0  0  0  0  0  0  0  0  0  0  0
   -1.1880    1.6190    0.1160 C   0  0  0  0  0  0  0  0  0  0  0  0
   -2.4090    0.8050   -0.1760 C   0  0  0  0  0  0  0  0  0  0  0  0
   -2.4500   -0.0440   -1.1020 O   0  0  0  0  0  0  0  0  0  0  0  0
   -3.5250    1.0030    0.6080 O   0  0  0  0  0  0  0  0  0  0  0  0
   -4.7060    0.2500    0.3640 C   0  0  1  0  0  0  0  0  0  0  0  0
   -4.9130   -0.6650    1.5510 C   0  0  0  0  0  0  0  0  0  0  0  0
   -5.8120    1.1700    0.1010 C   0  0  0  0  0  0  0  0  0  0  0  0
   -7.1990    0.7140   -0.2260 C   0  0  0  0  0  0  0  0  0  0  0  0
   -5.6410    2.3650    0.1370 O   0  0  0  0  0  0  0  0  0  0  0  0
    0.5760   -0.6360    0.5330 C   0  0  0  0  0  0  0  0  0  0  0  0
    1.9700   -1.0710    0.7270 C   0  0  0  0  0  0  0  0  0  0  0  0
  1  2  1  0
  2  3  1  0
  3  4  1  0
  5  4  1  1
  5  6  1  0
  5 20  1  0
  6  7  1  0
  7  8  1  0
  8  9  1  0
  8 19  1  0
  9 10  1  0
 10 11  1  0
 11 12  2  0
 11 13  1  0
 13 14  1  0
 14 15  1  1
 14 16  1  0
 16 17  1  0
 16 18  2  0
 19 20  1  0
M  CHG  1   5   1
M  END
