
     RDKit          3D

 20 19  0  0  0  0  0  0  0  0999 V2000
    6.3090    1.4400    0.2350 C   0  0  0  0  0  0  0  0  0  0  0  0
    5.7270    0.3090    0.8330 O   0  0  0  0  0  0  0  0  0  0  0  0
    4.3900    0.3600    1.1620 C   0  0  0  0  0  0  0  0  0  0  0  0
    3.5070   -0.3550    0.4980 C   0  0  0  0  0  0  0  0  0  0  0  0
    3.9180   -1.1550   -0.5280 O   0  0  0  0  0  0  0  0  0  0  0  0
    4.9860   -2.0520   -0.5510 C   0  0  0  0  0  0  0  0  0  0  0  0
    2.1200   -0.2690    0.8780 C   0  0  0  0  0  0  0  0  0  0  0  0
    1.7610    0.4910    1.8480 O   0  0  0  0  0  0  0  0  0  0  0  0
    1.1190   -0.9890    0.2280 N   0  0  0  0  0  0  0  0  0  0  0  0
    1.4770   -1.8750   -0.8590 C   0  0  0  0  0  0  0  0  0  0  0  0
   -0.2590   -0.8540    0.6090 C   0  0  0  0  0  0  0  0  0  0  0  0
   -1.0510    0.1670   -0.1170 C   0  0  1  0  0  0  0  0  0  0  0  0
   -0.4750    1.5420    0.0590 C   0  0  0  0  0  0  0  0  0  0  0  0
   -1.1010   -0.0860   -1.6200 C   0  0  0  0  0  0  0  0  0  0  0  0
   -2.4690    0.0900    0.3340 C   0  0  0  0  0  0  0  0  0  0  0  0
   -2.7380   -0.7440    1.1750 O   0  0  0  0  0  0  0  0  0  0  0  0
   -3.5440    0.9580   -0.1750 C   0  0  0  0  0  0  0  0  0  0  0  0
   -4.7890    0.6160    0.4750 N   0  0  2  0  0  0  0  0  0  0  0  0
   -5.2800   -0.6720    0.0880 C   0  0  0  0  0  0  0  0  0  0  0  0
   -5.8230    1.5940    0.1840 C   0  0  0  0  0  0  0  0  0  0  0  0
  1  2  1  0
  2  3  1  0
  3  4  2  3
  4  5  1  0
  4  7  1  0
  5  6  1  0
  7  8  2  0
  7  9  1  0
  9 10  1  0
  9 11  1  0
 11 12  1  0
 12 13  1  6
 12 14  1  0
 12 15  1  0
 15 16  2  0
 15 17  1  0
 17 18  1  0
 18 19  1  6
 18 20  1  0
M  CHG  1  18   1
M  END
