
     RDKit          3D

  6  5  0  0  0  0  0  0  0  0999 V2000
   -1.4900    0.1580   -0.3470 C   0  0  0  0  0  0  0  0  0  0  0  0
   -0.3000   -0.0500    0.5080 C   0  0  0  0  0  0  0  0  0  0  0  0
   -0.4630   -0.2580    1.7340 O   0  0  0  0  0  0  0  0  0  0  0  0
    1.0500   -0.0190   -0.0380 C   0  0  0  0  0  0  0  0  0  0  0  0
    1.2090    0.1900   -1.2680 O   0  0  0  0  0  0  0  0  0  0  0  0
    2.1810   -0.2100    0.7380 O   0  0  0  0  0  0  0  0  0  0  0  0
  1  2  1  0
  2  3  2  0
  2  4  1  0
  4  5  2  0
  4  6  1  0
M  END
