
     RDKit          3D

 20 19  0  0  0  0  0  0  0  0999 V2000
    3.7250    2.7230   -0.2970 C   0  0  0  0  0  0  0  0  0  0  0  0
    4.0710    1.5140   -1.1200 C   0  0  0  0  0  0  0  0  0  0  0  0
    3.5180    0.3250   -0.6490 O   0  0  0  0  0  0  0  0  0  0  0  0
    3.8210   -0.1240    0.6130 C   0  0  0  0  0  0  0  0  0  0  0  0
    4.6040    0.5680    1.3120 O   0  0  0  0  0  0  0  0  0  0  0  0
    3.2950   -1.3670    1.2170 C   0  0  0  0  0  0  0  0  0  0  0  0
    2.4160   -2.0970    0.3660 N   0  0  0  0  0  0  0  0  0  0  0  0
    2.9730   -3.1010   -0.5190 C   0  0  0  0  0  0  0  0  0  0  0  0
    1.0000   -1.8750    0.3520 C   0  0  0  0  0  0  0  0  0  0  0  0
    0.2710   -2.5490   -0.4200 O   0  0  0  0  0  0  0  0  0  0  0  0
    0.3440   -0.8790    1.2140 C   0  0  0  0  0  0  0  0  0  0  0  0
   -1.0870   -0.8580    1.0030 N   0  0  2  0  0  0  0  0  0  0  0  0
   -1.6500   -2.1660    1.0900 C   0  0  0  0  0  0  0  0  0  0  0  0
   -1.3860   -0.1550   -0.2310 C   0  0  0  0  0  0  0  0  0  0  0  0
   -2.7980   -0.2180   -0.5960 C   0  0  0  0  0  0  0  0  0  0  0  0
   -3.6200    0.7720   -0.7520 C   0  0  0  0  0  0  0  0  0  0  0  0
   -5.0500    0.4420   -1.1370 C   0  0  0  0  0  0  0  0  0  0  0  0
   -3.3270    2.1740   -0.5960 C   0  0  0  0  0  0  0  0  0  0  0  0
   -4.4040    3.2230   -0.8140 C   0  0  0  0  0  0  0  0  0  0  0  0
   -2.2190    2.6690   -0.2820 O   0  0  0  0  0  0  0  0  0  0  0  0
  1  2  1  0
  2  3  1  0
  3  4  1  0
  4  5  2  0
  4  6  1  0
  6  7  1  0
  7  8  1  0
  7  9  1  0
  9 10  2  0
  9 11  1  0
 11 12  1  0
 12 13  1  6
 12 14  1  0
 14 15  1  0
 15 16  2  3
 16 17  1  0
 16 18  1  0
 18 19  1  0
 18 20  2  0
M  CHG  1  12   1
M  END
