
     RDKit          3D

 20 20  0  0  0  0  0  0  0  0999 V2000
   -6.2130   -1.5290   -0.4130 C   0  0  0  0  0  0  0  0  0  0  0  0
   -5.4170   -0.2320   -0.4010 C   0  0  0  0  0  0  0  0  0  0  0  0
   -4.0110   -0.5020   -0.3850 N   0  0  2  0  0  0  0  0  0  0  0  0
   -3.5610   -0.7040    0.9600 C   0  0  0  0  0  0  0  0  0  0  0  0
   -2.5260    0.3620    1.3200 C   0  0  0  0  0  0  0  0  0  0  0  0
   -1.3810    0.1910    0.4800 N   0  0  0  0  0  0  0  0  0  0  0  0
   -0.3640    1.1740    0.7760 C   0  0  2  0  0  0  0  0  0  0  0  0
   -0.7940    2.5840    0.5300 C   0  0  0  0  0  0  0  0  0  0  0  0
    0.8900    0.9300    0.0420 C   0  0  0  0  0  0  0  0  0  0  0  0
    1.8330    1.7430    0.2000 O   0  0  0  0  0  0  0  0  0  0  0  0
    1.0910   -0.1400   -0.8090 O   0  0  0  0  0  0  0  0  0  0  0  0
    2.3300   -0.2900   -1.4690 C   0  0  0  0  0  0  0  0  0  0  0  0
    3.4530   -0.4230   -0.5060 C   0  0  0  0  0  0  0  0  0  0  0  0
    3.2580   -0.3950    0.7350 O   0  0  0  0  0  0  0  0  0  0  0  0
    4.7690   -0.5860   -0.9120 O   0  0  0  0  0  0  0  0  0  0  0  0
    5.8420   -0.7120   -0.0160 C   0  0  2  0  0  0  0  0  0  0  0  0
    6.7810    0.4600   -0.2880 C   0  0  0  0  0  0  0  0  0  0  0  0
    6.6430   -1.9710   -0.2110 C   0  0  0  0  0  0  0  0  0  0  0  0
   -1.7850    0.2220   -0.9100 C   0  0  0  0  0  0  0  0  0  0  0  0
   -3.2590    0.5410   -1.0570 C   0  0  0  0  0  0  0  0  0  0  0  0
  1  2  1  0
  3  2  1  1
  3  4  1  0
  3 20  1  0
  4  5  1  0
  5  6  1  0
  6  7  1  0
  6 19  1  0
  7  8  1  6
  7  9  1  0
  9 10  2  0
  9 11  1  0
 11 12  1  0
 12 13  1  0
 13 14  2  0
 13 15  1  0
 15 16  1  0
 16 17  1  6
 16 18  1  0
 19 20  1  0
M  CHG  1   3   1
M  END
