
     RDKit          3D

 20 20  0  0  0  0  0  0  0  0999 V2000
    7.2950    0.2990   -0.8440 C   0  0  0  0  0  0  0  0  0  0  0  0
    6.4360    1.1190    0.0880 C   0  0  0  0  0  0  0  0  0  0  0  0
    5.1740    0.5490    0.2560 O   0  0  0  0  0  0  0  0  0  0  0  0
    4.9400   -0.7180    0.7750 C   0  0  0  0  0  0  0  0  0  0  0  0
    5.9150   -1.4160    1.1220 O   0  0  0  0  0  0  0  0  0  0  0  0
    3.5510   -1.2740    0.9290 C   0  0  0  0  0  0  0  0  0  0  0  0
    2.6050   -0.2350    0.4230 C   0  0  0  0  0  0  0  0  0  0  0  0
    1.2200   -0.6130    0.5030 N   0  0  1  0  0  0  0  0  0  0  0  0
    0.4400    0.6050    0.3900 C   0  0  0  0  0  0  0  0  0  0  0  0
   -0.7170    0.5080   -0.5450 C   0  0  0  0  0  0  0  0  0  0  0  0
   -1.3830   -0.7510   -0.5510 N   0  0  0  0  0  0  0  0  0  0  0  0
   -2.5270   -0.8200    0.3020 C   0  0  0  0  0  0  0  0  0  0  0  0
   -3.6140    0.0410   -0.2150 C   0  0  0  0  0  0  0  0  0  0  0  0
   -3.4540    0.6860   -1.2920 O   0  0  0  0  0  0  0  0  0  0  0  0
   -4.8300    0.1960    0.4140 O   0  0  0  0  0  0  0  0  0  0  0  0
   -5.8210    1.0140   -0.1060 C   0  0  1  0  0  0  0  0  0  0  0  0
   -7.0530    0.1630   -0.4400 C   0  0  0  0  0  0  0  0  0  0  0  0
   -6.2930    2.1130    0.8010 C   0  0  0  0  0  0  0  0  0  0  0  0
   -0.5230   -1.8860   -0.5150 C   0  0  0  0  0  0  0  0  0  0  0  0
    0.9080   -1.4160   -0.6650 C   0  0  0  0  0  0  0  0  0  0  0  0
  1  2  1  0
  2  3  1  0
  3  4  1  0
  4  5  2  0
  4  6  1  0
  6  7  1  0
  8  7  1  6
  8  9  1  0
  8 20  1  0
  9 10  1  0
 10 11  1  0
 11 12  1  0
 11 19  1  0
 12 13  1  0
 13 14  2  0
 13 15  1  0
 15 16  1  0
 16 17  1  1
 16 18  1  0
 19 20  1  0
M  CHG  1   8   1
M  END
