
     RDKit          3D

 20 19  0  0  0  0  0  0  0  0999 V2000
   -5.5090    1.3280   -2.6260 C   0  0  0  0  0  0  0  0  0  0  0  0
   -4.9540    0.1770   -2.0220 O   0  0  0  0  0  0  0  0  0  0  0  0
   -4.7200    0.0730   -0.6640 C   0  0  0  0  0  0  0  0  0  0  0  0
   -5.0070    1.0380    0.0900 O   0  0  0  0  0  0  0  0  0  0  0  0
   -4.1310   -1.1980   -0.1640 C   0  0  0  0  0  0  0  0  0  0  0  0
   -3.9410   -1.1700    1.2620 N   0  0  0  0  0  0  0  0  0  0  0  0
   -4.9800   -1.6200    2.1550 C   0  0  0  0  0  0  0  0  0  0  0  0
   -2.7080   -0.6910    1.7720 C   0  0  0  0  0  0  0  0  0  0  0  0
   -2.5530   -0.6710    3.0170 O   0  0  0  0  0  0  0  0  0  0  0  0
   -1.6860   -0.2520    0.9650 O   0  0  0  0  0  0  0  0  0  0  0  0
   -0.4670    0.2180    1.5820 C   0  0  2  0  0  0  0  0  0  0  0  0
   -0.3560    1.6510    1.1990 C   0  0  0  0  0  0  0  0  0  0  0  0
    0.6500   -0.6970    1.2530 C   0  0  0  0  0  0  0  0  0  0  0  0
    1.9850   -0.3770    1.8200 C   0  0  0  0  0  0  0  0  0  0  0  0
    2.6110    0.8800    1.3260 C   0  0  0  0  0  0  0  0  0  0  0  0
    2.8380    0.8110   -0.1610 C   0  0  0  0  0  0  0  0  0  0  0  0
    3.7730   -0.3320   -0.4610 C   0  0  0  0  0  0  0  0  0  0  0  0
    4.0630   -0.4430   -1.8790 N   0  0  1  0  0  0  0  0  0  0  0  0
    4.4270    0.8020   -2.4830 C   0  0  0  0  0  0  0  0  0  0  0  0
    5.2350   -1.3250   -1.9810 C   0  0  0  0  0  0  0  0  0  0  0  0
  1  2  1  0
  2  3  1  0
  3  4  2  0
  3  5  1  0
  5  6  1  0
  6  7  1  0
  6  8  1  0
  8  9  2  0
  8 10  1  0
 10 11  1  0
 11 12  1  6
 11 13  1  0
 13 14  1  0
 14 15  1  0
 15 16  1  0
 16 17  1  0
 17 18  1  0
 18 19  1  1
 18 20  1  0
M  CHG  1  18   1
M  END
