
     RDKit          3D

  7  6  0  0  0  0  0  0  0  0999 V2000
   -1.3970    0.0150   -0.7320 C   0  0  0  0  0  0  0  0  0  0  0  0
   -0.9500   -0.4280    0.6210 C   0  0  0  0  0  0  0  0  0  0  0  0
    0.4760   -0.2870    0.8730 C   0  0  0  0  0  0  0  0  0  0  0  0
    0.9340   -0.6370    1.9900 O   0  0  0  0  0  0  0  0  0  0  0  0
    1.3950    0.2490   -0.1330 C   0  0  0  0  0  0  0  0  0  0  0  0
    1.0140    0.6180   -1.2670 O   0  0  0  0  0  0  0  0  0  0  0  0
    2.7570    0.3800    0.1160 O   0  0  0  0  0  0  0  0  0  0  0  0
  1  2  1  0
  2  3  1  0
  3  4  2  0
  3  5  1  0
  5  6  2  0
  5  7  1  0
M  END
