
     RDKit          3D

 15 15  0  0  0  0  0  0  0  0999 V2000
   -3.9060    0.3510   -0.3300 C   0  0  0  0  0  0  0  0  0  0  0  0
   -2.6500    0.1770    0.4960 C   0  0  0  0  0  0  0  0  0  0  0  0
   -1.4850    0.5450   -0.3950 C   0  0  2  0  0  0  0  0  0  0  0  0
   -1.4480   -0.3430   -1.5900 C   0  0  0  0  0  0  0  0  0  0  0  0
   -0.4570   -1.3500   -1.1680 C   0  0  0  0  0  0  0  0  0  0  0  0
   -0.3780   -2.5090   -1.6410 O   0  0  0  0  0  0  0  0  0  0  0  0
    0.4180   -0.7750   -0.1070 C   0  0  0  0  0  0  0  0  0  0  0  0
    1.6810   -1.4190    0.2110 C   0  0  0  0  0  0  0  0  0  0  0  0
    2.7110   -0.7080    0.9810 C   0  0  0  0  0  0  0  0  0  0  0  0
    3.2680    0.5140    0.2600 C   0  0  0  0  0  0  0  0  0  0  0  0
    4.2150    1.1660    1.0390 O   0  0  0  0  0  0  0  0  0  0  0  0
   -0.1770    0.3010    0.3290 C   0  0  0  0  0  0  0  0  0  0  0  0
    0.1870    1.1990    1.3540 N   0  0  0  0  0  0  0  0  0  0  0  0
    0.4280    2.4090    1.0600 O   0  0  0  0  0  0  0  0  0  0  0  0
    0.2880    0.8850    2.6870 O   0  0  0  0  0  0  0  0  0  0  0  0
  1  2  1  0
  3  2  1  1
  3  4  1  0
  3 12  1  0
  4  5  1  0
  5  6  2  0
  5  7  1  0
  7  8  1  0
  7 12  2  0
  8  9  1  0
  9 10  1  0
 10 11  1  0
 12 13  1  0
 13 14  2  0
 13 15  1  0
M  CHG  2  13   1  15  -1
M  END
