
     RDKit          3D

 15 15  0  0  0  0  0  0  0  0999 V2000
   -1.4940   -2.8820    0.7630 C   0  0  0  0  0  0  0  0  0  0  0  0
   -0.3260   -1.9190    0.7620 C   0  0  0  0  0  0  0  0  0  0  0  0
    0.6840   -2.3650    1.3110 O   0  0  0  0  0  0  0  0  0  0  0  0
   -0.5320   -0.6400    0.1390 C   0  0  0  0  0  0  0  0  0  0  0  0
    0.4250    0.2590    0.0920 C   0  0  0  0  0  0  0  0  0  0  0  0
    1.7610    0.1000    0.6360 C   0  0  0  0  0  0  0  0  0  0  0  0
    2.8320    0.1550   -0.4660 C   0  0  0  0  0  0  0  0  0  0  0  0
    4.1370   -0.0090    0.1430 N   0  0  0  0  0  0  0  0  0  0  0  0
    4.2310   -0.1630    1.3870 O   0  0  0  0  0  0  0  0  0  0  0  0
    5.2970   -0.0070   -0.5610 O   0  0  0  0  0  0  0  0  0  0  0  0
    0.1450    1.5970   -0.5910 C   0  0  0  0  0  0  0  0  0  0  0  0
   -1.1880    2.1160   -0.0980 C   0  0  0  0  0  0  0  0  0  0  0  0
   -2.2850    1.1170   -0.2180 C   0  0  2  0  0  0  0  0  0  0  0  0
   -3.0060    1.1150    0.9890 O   0  0  0  0  0  0  0  0  0  0  0  0
   -1.8580   -0.2870   -0.4810 C   0  0  0  0  0  0  0  0  0  0  0  0
  1  2  1  0
  2  3  2  0
  2  4  1  0
  4  5  2  0
  4 15  1  0
  5  6  1  0
  5 11  1  0
  6  7  1  0
  7  8  1  0
  8  9  2  0
  8 10  1  0
 11 12  1  0
 12 13  1  0
 13 14  1  1
 13 15  1  0
M  CHG  2   8   1  10  -1
M  END
