
     RDKit          3D

 20 20  0  0  0  0  0  0  0  0999 V2000
    5.5810    1.4270    1.9170 C   0  0  0  0  0  0  0  0  0  0  0  0
    4.2950    1.1810    1.2040 C   0  0  0  0  0  0  0  0  0  0  0  0
    4.0270   -0.0070    0.6920 C   0  0  0  0  0  0  0  0  0  0  0  0
    4.9540   -1.1930    0.7720 C   0  0  0  0  0  0  0  0  0  0  0  0
    4.4560   -1.9530   -0.3850 N   0  0  0  0  0  0  0  0  0  0  0  0
    3.1120   -1.5430   -0.6370 C   0  0  0  0  0  0  0  0  0  0  0  0
    2.8340   -0.4260   -0.0310 C   0  0  0  0  0  0  0  0  0  0  0  0
    1.5820    0.3220   -0.0320 C   0  0  0  0  0  0  0  0  0  0  0  0
    1.4500    1.3970    0.6040 O   0  0  0  0  0  0  0  0  0  0  0  0
    0.4320   -0.1240   -0.7560 N   0  0  0  0  0  0  0  0  0  0  0  0
   -0.8150    0.5650   -0.7930 C   0  0  1  0  0  0  0  0  0  0  0  0
   -1.1870    1.0830   -2.1640 C   0  0  0  0  0  0  0  0  0  0  0  0
   -1.9560   -0.2040   -0.1670 C   0  0  1  0  0  0  0  0  0  0  0  0
   -2.2040   -1.5200   -0.8420 C   0  0  0  0  0  0  0  0  0  0  0  0
   -1.6740   -0.4650    1.1740 O   0  0  0  0  0  0  0  0  0  0  0  0
   -3.1820    0.6860   -0.1900 C   0  0  0  0  0  0  0  0  0  0  0  0
   -4.3620    0.0100    0.4090 C   0  0  0  0  0  0  0  0  0  0  0  0
   -4.3350   -1.1460    0.8700 O   0  0  0  0  0  0  0  0  0  0  0  0
   -5.5480    0.7070    0.4530 O   0  0  0  0  0  0  0  0  0  0  0  0
   -6.7350    0.1800    0.9930 C   0  0  0  0  0  0  0  0  0  0  0  0
  1  2  1  0
  2  3  2  3
  3  4  1  0
  3  7  1  0
  4  5  1  0
  5  6  1  0
  6  7  2  0
  7  8  1  0
  8  9  2  0
  8 10  1  0
 10 11  1  0
 11 12  1  6
 11 13  1  0
 13 14  1  6
 13 15  1  0
 13 16  1  0
 16 17  1  0
 17 18  2  0
 17 19  1  0
 19 20  1  0
M  END
