
     RDKit          3D

 15 15  0  0  0  0  0  0  0  0999 V2000
    0.4080   -0.5690   -2.3370 O   0  0  0  0  0  0  0  0  0  0  0  0
    0.4250    0.3230   -1.3120 N   0  0  0  0  0  0  0  0  0  0  0  0
   -0.6190    0.5220   -0.6070 C   0  0  0  0  0  0  0  0  0  0  0  0
   -1.8550   -0.2460   -0.9350 C   0  0  2  0  0  0  0  0  0  0  0  0
   -2.7840    0.5880   -1.7760 C   0  0  0  0  0  0  0  0  0  0  0  0
   -3.9650    0.8630   -0.8700 C   0  0  0  0  0  0  0  0  0  0  0  0
   -4.0540   -0.4640   -0.1070 C   0  0  0  0  0  0  0  0  0  0  0  0
   -2.6110   -0.6290    0.3160 C   0  0  0  0  0  0  0  0  0  0  0  0
    1.5670    1.0110   -1.0340 O   0  0  0  0  0  0  0  0  0  0  0  0
    2.4620    0.5170   -0.0130 C   0  0  0  0  0  0  0  0  0  0  0  0
    3.1620   -0.5230   -0.2730 C   0  0  0  0  0  0  0  0  0  0  0  0
    4.1250   -1.2180    0.5610 C   0  0  0  0  0  0  0  0  0  0  0  0
    3.7370   -2.5520    0.7780 O   0  0  0  0  0  0  0  0  0  0  0  0
    2.4250    1.3180    1.2100 C   0  0  0  0  0  0  0  0  0  0  0  0
    3.2470    0.9100    2.2280 O   0  0  0  0  0  0  0  0  0  0  0  0
  1  2  1  0
  2  3  2  3
  2  9  1  0
  4  3  1  1
  4  5  1  0
  4  8  1  0
  5  6  1  0
  6  7  1  0
  7  8  1  0
  9 10  1  0
 10 11  2  3
 10 14  1  0
 11 12  1  0
 12 13  1  0
 14 15  1  0
M  CHG  2   1  -1   2   1
M  END
