
     RDKit          3D

 20 20  0  0  0  0  0  0  0  0999 V2000
    4.0700   -1.2370    0.7800 C   0  0  0  0  0  0  0  0  0  0  0  0
    3.7030    0.2120    0.6600 C   0  0  1  0  0  0  0  0  0  0  0  0
    4.4620    0.8680   -0.4660 C   0  0  0  0  0  0  0  0  0  0  0  0
    5.9580    0.7910   -0.2490 C   0  0  0  0  0  0  0  0  0  0  0  0
    6.6140    1.4070   -1.3100 O   0  0  0  0  0  0  0  0  0  0  0  0
    2.2260    0.3780    0.3850 C   0  0  0  0  0  0  0  0  0  0  0  0
    1.8440    0.9520   -0.6660 O   0  0  0  0  0  0  0  0  0  0  0  0
    1.2750   -0.1090    1.3040 N   0  0  0  0  0  0  0  0  0  0  0  0
   -0.1710    0.0250    1.0780 C   0  0  0  0  0  0  0  0  0  0  0  0
   -0.5390   -0.7070   -0.1730 C   0  0  1  0  0  0  0  0  0  0  0  0
   -0.0720   -2.0570    0.0800 O   0  0  0  0  0  0  0  0  0  0  0  0
   -1.9870   -0.8600   -0.4270 C   0  0  0  0  0  0  0  0  0  0  0  0
   -2.8740    0.2940   -0.5750 C   0  0  1  0  0  0  0  0  0  0  0  0
   -2.4590    1.2450   -1.6920 C   0  0  0  0  0  0  0  0  0  0  0  0
   -4.2360   -0.2740   -1.1400 C   0  0  0  0  0  0  0  0  0  0  0  0
   -5.1180   -0.7430   -0.0410 C   0  0  0  0  0  0  0  0  0  0  0  0
   -4.4720   -0.9660    1.2280 N   0  0  0  0  0  0  0  0  0  0  0  0
   -3.5980    0.0760    1.7030 C   0  0  0  0  0  0  0  0  0  0  0  0
   -3.2490    0.0990    2.8830 O   0  0  0  0  0  0  0  0  0  0  0  0
   -3.1950    1.0610    0.6520 C   0  0  0  0  0  0  0  0  0  0  0  0
  2  1  1  6
  2  3  1  0
  2  6  1  0
  3  4  1  0
  4  5  1  0
  6  7  2  0
  6  8  1  0
  8  9  1  0
  9 10  1  0
 10 11  1  1
 10 12  1  0
 12 13  1  0
 13 14  1  6
 13 15  1  0
 13 20  1  0
 15 16  1  0
 16 17  1  0
 17 18  1  0
 18 19  2  0
 18 20  1  0
M  END
