
     RDKit          3D

 20 20  0  0  0  0  0  0  0  0999 V2000
   -5.4120   -0.4320    0.0440 C   0  0  0  0  0  0  0  0  0  0  0  0
   -4.2440   -1.3000    0.4290 C   0  0  1  0  0  0  0  0  0  0  0  0
   -4.6230   -2.7290    0.0040 C   0  0  0  0  0  0  0  0  0  0  0  0
   -2.9660   -0.9860   -0.2470 C   0  0  0  0  0  0  0  0  0  0  0  0
   -2.3920    0.3690   -0.0480 C   0  0  2  0  0  0  0  0  0  0  0  0
   -3.2230    1.5210   -0.4990 C   0  0  0  0  0  0  0  0  0  0  0  0
   -1.1470    0.4210   -0.8180 N   0  0  0  0  0  0  0  0  0  0  0  0
    0.0680    0.6810   -0.1290 C   0  0  0  0  0  0  0  0  0  0  0  0
    0.1180    0.8660    1.1060 O   0  0  0  0  0  0  0  0  0  0  0  0
    1.2980    0.7410   -0.8320 N   0  0  0  0  0  0  0  0  0  0  0  0
    2.5920    0.9440   -0.3320 C   0  0  1  0  0  0  0  0  0  0  0  0
    3.2440   -0.1150    0.4740 C   0  0  2  0  0  0  0  0  0  0  0  0
    3.3810   -1.2750   -0.3560 O   0  0  0  0  0  0  0  0  0  0  0  0
    2.5630   -0.6070    1.6960 C   0  0  0  0  0  0  0  0  0  0  0  0
    3.5200   -1.6630    2.3170 C   0  0  0  0  0  0  0  0  0  0  0  0
    3.6710   -2.6420    1.3510 O   0  0  0  0  0  0  0  0  0  0  0  0
    3.5210    1.1710   -1.5490 C   0  0  0  0  0  0  0  0  0  0  0  0
    3.4170    2.6620   -1.7470 C   0  0  0  0  0  0  0  0  0  0  0  0
    2.5670    3.1520   -0.7580 O   0  0  0  0  0  0  0  0  0  0  0  0
    2.8020    2.3140    0.2980 C   0  0  0  0  0  0  0  0  0  0  0  0
  2  1  1  6
  2  3  1  0
  2  4  1  0
  4  5  1  0
  5  6  1  6
  5  7  1  0
  7  8  1  0
  8  9  2  0
  8 10  1  0
 11 10  1  6
 11 12  1  0
 11 17  1  0
 11 20  1  0
 12 13  1  6
 12 14  1  0
 14 15  1  0
 15 16  1  0
 17 18  1  0
 18 19  1  0
 19 20  1  0
M  END
