
     RDKit          3D

  9  9  0  0  0  0  0  0  0  0999 V2000
   -2.2720    0.3780   -0.7610 N   0  0  0  0  0  0  0  0  0  0  0  0
   -1.5100    0.8780    0.3440 C   0  0  0  0  0  0  0  0  0  0  0  0
   -0.0920    0.4840    0.1850 C   0  0  0  0  0  0  0  0  0  0  0  0
    0.8830    1.3670    0.1000 C   0  0  0  0  0  0  0  0  0  0  0  0
    2.2830    0.9530   -0.0570 C   0  0  0  0  0  0  0  0  0  0  0  0
    2.4710   -0.4290   -0.1050 O   0  0  0  0  0  0  0  0  0  0  0  0
    1.4720   -1.3660   -0.0180 C   0  0  0  0  0  0  0  0  0  0  0  0
    0.2330   -0.9260    0.1230 C   0  0  0  0  0  0  0  0  0  0  0  0
   -0.8170   -1.8780    0.2150 N   0  0  0  0  0  0  0  0  0  0  0  0
  1  2  1  0
  2  3  1  0
  3  4  2  0
  3  8  1  0
  4  5  1  0
  5  6  1  0
  6  7  1  0
  7  8  2  0
  8  9  1  0
M  END
