
     RDKit          3D

 11 11  0  0  0  0  0  0  0  0999 V2000
    3.4150   -0.0940   -1.1460 O   0  0  0  0  0  0  0  0  0  0  0  0
    2.2870    0.0890   -0.6520 C   0  0  0  0  0  0  0  0  0  0  0  0
    1.5090   -1.0450   -0.2490 N   0  0  0  0  0  0  0  0  0  0  0  0
    0.2010   -1.2350    0.2570 C   0  0  0  0  0  0  0  0  0  0  0  0
   -0.8320   -0.2400   -0.0720 C   0  0  1  0  0  0  0  0  0  0  0  0
   -2.0860   -0.5650    0.7260 C   0  0  0  0  0  0  0  0  0  0  0  0
   -3.1750    0.1950    0.2890 O   0  0  0  0  0  0  0  0  0  0  0  0
   -0.5550    1.0960    0.0990 O   0  0  0  0  0  0  0  0  0  0  0  0
    0.5390    1.9300   -0.0830 C   0  0  0  0  0  0  0  0  0  0  0  0
    0.4170    3.1630    0.1300 O   0  0  0  0  0  0  0  0  0  0  0  0
    1.8070    1.4360   -0.5060 N   0  0  0  0  0  0  0  0  0  0  0  0
  1  2  2  0
  2  3  1  0
  2 11  1  0
  3  4  1  0
  4  5  1  0
  5  6  1  1
  5  8  1  0
  6  7  1  0
  8  9  1  0
  9 10  2  0
  9 11  1  0
M  END
