
     RDKit          3D

 11 11  0  0  0  0  0  0  0  0999 V2000
   -3.4820   -0.4370   -0.2240 N   0  0  0  0  0  0  0  0  0  0  0  0
   -2.1050   -0.6540   -0.0090 C   0  0  0  0  0  0  0  0  0  0  0  0
   -1.7820   -1.8200    0.3980 O   0  0  0  0  0  0  0  0  0  0  0  0
   -1.0900    0.3700   -0.2290 C   0  0  0  0  0  0  0  0  0  0  0  0
   -1.4680    1.4920   -0.6280 O   0  0  0  0  0  0  0  0  0  0  0  0
    0.3130    0.0620    0.0180 C   0  0  0  0  0  0  0  0  0  0  0  0
    1.2980    0.9240   -0.1530 C   0  0  0  0  0  0  0  0  0  0  0  0
    1.1610    2.2340   -0.5860 O   0  0  0  0  0  0  0  0  0  0  0  0
    2.5090    0.2890    0.1790 N   0  0  0  0  0  0  0  0  0  0  0  0
    2.2480   -1.1470    0.3440 C   0  0  0  0  0  0  0  0  0  0  0  0
    0.8170   -1.1540    0.4610 O   0  0  0  0  0  0  0  0  0  0  0  0
  1  2  1  0
  2  3  2  0
  2  4  1  0
  4  5  2  0
  4  6  1  0
  6  7  2  0
  6 11  1  0
  7  8  1  0
  7  9  1  0
  9 10  1  0
 10 11  1  0
M  END
