
     RDKit          3D

 10 10  0  0  0  0  0  0  0  0999 V2000
   -1.9750   -1.5700    0.5220 N   0  0  0  0  0  0  0  0  0  0  0  0
   -1.4700   -0.2860    0.2080 C   0  0  0  0  0  0  0  0  0  0  0  0
   -2.3480    0.8220    0.1440 N   0  0  0  0  0  0  0  0  0  0  0  0
   -0.1880   -0.1040   -0.0270 C   0  0  0  0  0  0  0  0  0  0  0  0
    0.8820   -1.1200   -0.0100 C   0  0  0  0  0  0  0  0  0  0  0  0
    2.0430   -0.5510   -0.2970 C   0  0  0  0  0  0  0  0  0  0  0  0
    3.2960   -1.1880   -0.3780 O   0  0  0  0  0  0  0  0  0  0  0  0
    1.7740    0.8450   -0.5090 C   0  0  0  0  0  0  0  0  0  0  0  0
    0.4950    1.1380   -0.3610 C   0  0  0  0  0  0  0  0  0  0  0  0
   -0.1450    2.3770   -0.4860 O   0  0  0  0  0  0  0  0  0  0  0  0
  1  2  1  0
  2  3  1  0
  2  4  2  3
  4  5  1  0
  4  9  1  0
  5  6  2  0
  6  7  1  0
  6  8  1  0
  8  9  2  0
  9 10  1  0
M  END
