
     RDKit          3D

 15 15  0  0  0  0  0  0  0  0999 V2000
    2.5030   -0.9330    0.0740 C   0  0  0  0  0  0  0  0  0  0  0  0
    2.2250   -0.2440    1.1520 C   0  0  0  0  0  0  0  0  0  0  0  0
    1.0260   -0.5910    1.9570 C   0  0  0  0  0  0  0  0  0  0  0  0
    0.1800    0.5300    1.9970 O   0  0  0  0  0  0  0  0  0  0  0  0
   -0.3330    1.0400    0.7970 C   0  0  0  0  0  0  0  0  0  0  0  0
   -0.5680    0.2360   -0.1440 N   0  0  0  0  0  0  0  0  0  0  0  0
   -1.0860    0.5980   -1.4060 C   0  0  0  0  0  0  0  0  0  0  0  0
   -1.3970   -0.6650   -2.6240 S   0  0  0  0  0  0  0  0  0  0  0  0
   -1.0860   -2.2850   -1.8650 C   0  0  0  0  0  0  0  0  0  0  0  0
   -2.1200   -2.4730   -0.8020 C   0  0  0  0  0  0  0  0  0  0  0  0
   -2.9050   -2.6350    0.0040 N   0  0  0  0  0  0  0  0  0  0  0  0
   -1.3390    1.8420   -1.6090 N   0  0  0  0  0  0  0  0  0  0  0  0
   -1.1230    2.8310   -0.6340 C   0  0  0  0  0  0  0  0  0  0  0  0
   -1.3920    4.0510   -0.8620 O   0  0  0  0  0  0  0  0  0  0  0  0
   -0.5840    2.5040    0.6750 C   0  0  0  0  0  0  0  0  0  0  0  0
  1  2  2  0
  2  3  1  0
  3  4  1  0
  4  5  1  0
  5  6  2  0
  5 15  1  0
  6  7  1  0
  7  8  1  0
  7 12  2  0
  8  9  1  0
  9 10  1  0
 10 11  3  0
 12 13  1  0
 13 14  2  0
 13 15  1  0
M  END
