
     RDKit          3D

 15 15  0  0  0  0  0  0  0  0999 V2000
   -4.3430    1.5480   -0.1630 C   0  0  0  0  0  0  0  0  0  0  0  0
   -3.6430    0.2600    0.1060 C   0  0  0  0  0  0  0  0  0  0  0  0
   -2.1570    0.4070    0.0570 C   0  0  0  0  0  0  0  0  0  0  0  0
   -1.6320    1.5510   -0.1970 N   0  0  0  0  0  0  0  0  0  0  0  0
    0.0870    1.3990   -0.1840 S   0  0  2  0  0  0  0  0  0  0  0  0
    0.7270    2.2080    0.8900 O   0  0  0  0  0  0  0  0  0  0  0  0
    0.5830    1.6950   -1.5430 O   0  0  0  0  0  0  0  0  0  0  0  0
    0.0960   -0.3210    0.1830 C   0  0  0  0  0  0  0  0  0  0  0  0
    1.1630   -1.0730    0.3280 C   0  0  0  0  0  0  0  0  0  0  0  0
    2.4930   -0.5320    0.1920 C   0  0  0  0  0  0  0  0  0  0  0  0
    3.6550   -1.4380    0.3680 C   0  0  0  0  0  0  0  0  0  0  0  0
    2.7150    0.7080   -0.0770 N   0  0  0  0  0  0  0  0  0  0  0  0
    4.0450    1.2590   -0.2160 C   0  0  0  0  0  0  0  0  0  0  0  0
   -1.2800   -0.6460    0.2720 N   0  0  0  0  0  0  0  0  0  0  0  0
   -1.6750   -2.0350    0.5770 C   0  0  0  0  0  0  0  0  0  0  0  0
  1  2  1  0
  2  3  1  0
  3  4  2  0
  3 14  1  0
  5  4  1  6
  5  6  2  0
  5  7  2  0
  5  8  1  0
  8  9  2  3
  8 14  1  0
  9 10  1  0
 10 11  1  0
 10 12  2  3
 12 13  1  0
 14 15  1  0
M  END
