
     RDKit          3D

 22 23  0  0  0  0  0  0  0  0999 V2000
    5.8120    0.9370   -1.0700 C   0  0  0  0  0  0  0  0  0  0  0  0
    5.2440    0.0180   -0.1480 O   0  0  0  0  0  0  0  0  0  0  0  0
    3.9130    0.0300    0.1710 C   0  0  0  0  0  0  0  0  0  0  0  0
    3.4270   -0.8870    1.0710 C   0  0  0  0  0  0  0  0  0  0  0  0
    2.0790   -0.8840    1.4030 C   0  0  0  0  0  0  0  0  0  0  0  0
    1.1960    0.0340    0.8410 C   0  0  0  0  0  0  0  0  0  0  0  0
   -0.2490    0.0210    1.2110 C   0  0  0  0  0  0  0  0  0  0  0  0
   -1.0020   -0.8740    0.2940 C   0  0  2  0  0  0  0  0  0  0  0  0
   -0.8350   -0.3530   -1.0980 C   0  0  0  0  0  0  0  0  0  0  0  0
   -0.1450   -0.9220   -1.9230 O   0  0  0  0  0  0  0  0  0  0  0  0
   -1.5550    0.9040   -1.4380 C   0  0  1  0  0  0  0  0  0  0  0  0
   -1.2490    1.3720   -2.6990 O   0  0  0  0  0  0  0  0  0  0  0  0
   -3.0320    0.6170   -1.2630 C   0  0  2  0  0  0  0  0  0  0  0  0
   -3.8180    1.6930   -1.5930 O   0  0  0  0  0  0  0  0  0  0  0  0
   -3.1960    0.3370    0.2380 C   0  0  0  0  0  0  0  0  0  0  0  0
   -2.4670   -0.9730    0.5620 C   0  0  1  0  0  0  0  0  0  0  0  0
   -2.9800   -1.9090   -0.3350 O   0  0  0  0  0  0  0  0  0  0  0  0
   -2.8380   -1.3480    1.9150 C   0  0  0  0  0  0  0  0  0  0  0  0
   -2.5430   -0.7190    2.9630 O   0  0  0  0  0  0  0  0  0  0  0  0
   -3.5880   -2.5000    2.1150 O   0  0  0  0  0  0  0  0  0  0  0  0
    1.7400    0.9300   -0.0550 C   0  0  0  0  0  0  0  0  0  0  0  0
    3.0730    0.9520   -0.4040 C   0  0  0  0  0  0  0  0  0  0  0  0
  1  2  1  0
  2  3  1  0
  3  4  2  0
  3 22  1  0
  4  5  1  0
  5  6  2  0
  6  7  1  0
  6 21  1  0
  8  7  1  1
  8  9  1  0
  8 16  1  0
  9 10  2  0
  9 11  1  0
 11 12  1  6
 11 13  1  0
 13 14  1  1
 13 15  1  0
 15 16  1  0
 16 17  1  6
 16 18  1  0
 18 19  2  0
 18 20  1  0
 21 22  2  0
M  END
