
     RDKit          3D

 15 15  0  0  0  0  0  0  0  0999 V2000
   -2.4270   -1.2600    0.9930 C   0  0  0  0  0  0  0  0  0  0  0  0
   -1.3190   -1.4690    0.0510 C   0  0  0  0  0  0  0  0  0  0  0  0
   -0.3920   -0.3520   -0.2170 N   0  0  0  0  0  0  0  0  0  0  0  0
   -1.0040    0.8120   -0.8690 C   0  0  0  0  0  0  0  0  0  0  0  0
   -1.6780    1.7240    0.0860 C   0  0  0  0  0  0  0  0  0  0  0  0
   -2.2830    2.8740   -0.7500 C   0  0  0  0  0  0  0  0  0  0  0  0
   -2.7900    3.7960   -1.4380 N   0  0  0  0  0  0  0  0  0  0  0  0
    0.9810   -0.5010    0.0060 C   0  0  0  0  0  0  0  0  0  0  0  0
    1.4620   -1.4840    0.8420 N   0  0  0  0  0  0  0  0  0  0  0  0
    2.8420   -1.6240    1.0370 C   0  0  0  0  0  0  0  0  0  0  0  0
    3.1840   -2.3340    2.0720 O   0  0  0  0  0  0  0  0  0  0  0  0
    4.0820   -0.9080    0.0710 S   0  0  0  0  0  0  0  0  0  0  0  0
    5.1440   -0.1370    0.9010 O   0  0  0  0  0  0  0  0  0  0  0  0
    3.1870    0.4380   -0.9090 C   0  0  0  0  0  0  0  0  0  0  0  0
    1.9670    0.2060   -0.6260 C   0  0  0  0  0  0  0  0  0  0  0  0
  1  2  1  0
  2  3  1  0
  3  4  1  0
  3  8  1  0
  4  5  1  0
  5  6  1  0
  6  7  3  0
  8  9  2  0
  8 15  1  0
  9 10  1  0
 10 11  2  0
 10 12  1  0
 12 13  2  0
 12 14  1  6
 14 15  2  0
M  END
