
     RDKit          3D

 15 15  0  0  0  0  0  0  0  0999 V2000
    4.9990   -0.2110    0.2090 C   0  0  0  0  0  0  0  0  0  0  0  0
    4.5790   -0.6490   -1.1480 C   0  0  0  0  0  0  0  0  0  0  0  0
    3.3530   -0.4430   -1.4760 N   0  0  0  0  0  0  0  0  0  0  0  0
    2.4160    0.1820   -0.5870 C   0  0  0  0  0  0  0  0  0  0  0  0
    1.1580   -0.1100   -0.5480 C   0  0  0  0  0  0  0  0  0  0  0  0
   -0.1020    0.5820    0.4970 S   0  0  0  0  0  0  0  0  0  0  0  0
   -1.4410   -0.4260   -0.1740 C   0  0  0  0  0  0  0  0  0  0  0  0
   -2.7980   -0.3430    0.2750 N   0  0  0  0  0  0  0  0  0  0  0  0
   -3.7590   -1.1820   -0.3240 C   0  0  0  0  0  0  0  0  0  0  0  0
   -4.9500   -1.1240    0.0540 O   0  0  0  0  0  0  0  0  0  0  0  0
   -3.1700    0.5790    1.3170 C   0  0  0  0  0  0  0  0  0  0  0  0
   -3.5540    1.8880    0.6510 C   0  0  0  0  0  0  0  0  0  0  0  0
   -0.9140   -1.1470   -1.0520 N   0  0  0  0  0  0  0  0  0  0  0  0
    0.4260   -1.0710   -1.3330 C   0  0  0  0  0  0  0  0  0  0  0  0
    1.0040   -1.7920   -2.2250 O   0  0  0  0  0  0  0  0  0  0  0  0
  1  2  1  0
  2  3  2  3
  3  4  1  0
  4  5  2  3
  5  6  1  0
  5 14  1  0
  6  7  1  0
  7  8  1  0
  7 13  2  0
  8  9  1  0
  8 11  1  0
  9 10  2  0
 11 12  1  0
 13 14  1  0
 14 15  2  0
M  END
