
     RDKit          3D

 15 15  0  0  0  0  0  0  0  0999 V2000
   -2.4540    0.7010    2.9680 C   0  0  0  0  0  0  0  0  0  0  0  0
   -1.8550    1.0160    1.8470 C   0  0  0  0  0  0  0  0  0  0  0  0
   -0.9810    2.5080    1.4060 S   0  0  0  0  0  0  0  0  0  0  0  0
    0.0670    1.6880    0.1660 C   0  0  0  0  0  0  0  0  0  0  0  0
    1.1980    2.1470   -0.1510 N   0  0  0  0  0  0  0  0  0  0  0  0
   -0.7040    0.5830   -0.2480 N   0  0  0  0  0  0  0  0  0  0  0  0
   -0.3860   -0.1160   -1.5030 C   0  0  0  0  0  0  0  0  0  0  0  0
    0.8260   -0.9850   -1.4390 C   0  0  0  0  0  0  0  0  0  0  0  0
    2.1110   -0.3650   -1.1470 C   0  0  0  0  0  0  0  0  0  0  0  0
    2.7030    0.3110   -2.0530 O   0  0  0  0  0  0  0  0  0  0  0  0
    2.7170   -0.4880    0.0860 O   0  0  0  0  0  0  0  0  0  0  0  0
    3.9860    0.1360    0.3300 C   0  0  0  0  0  0  0  0  0  0  0  0
   -1.7420    0.1800    0.6060 C   0  0  0  0  0  0  0  0  0  0  0  0
   -2.5770   -0.7750    0.4870 N   0  0  0  0  0  0  0  0  0  0  0  0
   -2.9010   -1.7890   -0.3970 C   0  0  0  0  0  0  0  0  0  0  0  0
  1  2  2  0
  2  3  1  0
  2 13  1  0
  3  4  1  0
  4  5  2  0
  4  6  1  0
  6  7  1  0
  6 13  1  0
  7  8  1  0
  8  9  1  0
  9 10  2  0
  9 11  1  0
 11 12  1  0
 13 14  2  3
 14 15  1  0
M  END
