
     RDKit          3D

 15 15  0  0  0  0  0  0  0  0999 V2000
   -5.0370    0.5470   -0.8390 C   0  0  0  0  0  0  0  0  0  0  0  0
   -4.2680    0.6660    0.4170 C   0  0  0  0  0  0  0  0  0  0  0  0
   -3.1690   -0.0660    0.5570 C   0  0  0  0  0  0  0  0  0  0  0  0
   -2.4020    0.0130    1.7370 N   0  0  0  0  0  0  0  0  0  0  0  0
   -1.1180   -0.0880    1.7780 C   0  0  0  0  0  0  0  0  0  0  0  0
   -0.2970   -0.2920    0.6470 N   0  0  0  0  0  0  0  0  0  0  0  0
    0.4520   -1.5080    0.4590 C   0  0  0  0  0  0  0  0  0  0  0  0
    1.4220   -1.2650   -0.7050 C   0  0  0  0  0  0  0  0  0  0  0  0
    2.1730    0.0070   -0.3690 C   0  0  1  0  0  0  0  0  0  0  0  0
    3.4110    0.0900   -1.0510 N   0  0  0  0  0  0  0  0  0  0  0  0
    4.8010    0.0770   -0.0650 S   0  0  2  0  0  0  0  0  0  0  0  0
    4.5490    0.6190    1.3150 O   0  0  0  0  0  0  0  0  0  0  0  0
    5.9660    0.7760   -0.7250 O   0  0  0  0  0  0  0  0  0  0  0  0
    1.2460    1.1710   -0.5730 C   0  0  0  0  0  0  0  0  0  0  0  0
   -0.2040    0.7430   -0.3480 C   0  0  0  0  0  0  0  0  0  0  0  0
  1  2  1  0
  2  3  2  3
  3  4  1  0
  4  5  2  3
  5  6  1  0
  6  7  1  0
  6 15  1  0
  7  8  1  0
  8  9  1  0
  9 10  1  6
  9 14  1  0
 11 10  1  6
 11 12  2  0
 11 13  2  0
 14 15  1  0
M  END
