
     RDKit          3D

 15 15  0  0  0  0  0  0  0  0999 V2000
    6.1240    0.3220    0.2570 C   0  0  0  0  0  0  0  0  0  0  0  0
    5.0310    1.3770    1.2430 S   0  0  0  0  0  0  0  0  0  0  0  0
    3.3830    0.7090    1.2810 C   0  0  0  0  0  0  0  0  0  0  0  0
    2.3750    1.4660    1.0460 N   0  0  0  0  0  0  0  0  0  0  0  0
    1.0590    1.0060    1.0600 N   0  0  0  0  0  0  0  0  0  0  0  0
    0.6730    0.1090    0.1780 C   0  0  0  0  0  0  0  0  0  0  0  0
    1.5070   -0.4200   -0.7850 O   0  0  0  0  0  0  0  0  0  0  0  0
    0.8310   -1.3350   -1.5670 C   0  0  0  0  0  0  0  0  0  0  0  0
    1.3180   -1.9660   -2.5530 O   0  0  0  0  0  0  0  0  0  0  0  0
   -0.5410   -1.4320   -1.0370 C   0  0  0  0  0  0  0  0  0  0  0  0
   -0.5950   -0.4730    0.0320 N   0  0  0  0  0  0  0  0  0  0  0  0
   -1.7300   -0.1110    0.8670 C   0  0  0  0  0  0  0  0  0  0  0  0
   -2.8190    0.6350    0.1880 C   0  0  1  0  0  0  0  0  0  0  0  0
   -3.4870   -0.0680   -0.9610 C   0  0  0  0  0  0  0  0  0  0  0  0
   -3.9120    0.8600    1.2490 C   0  0  0  0  0  0  0  0  0  0  0  0
  1  2  1  0
  2  3  1  0
  3  4  2  3
  4  5  1  0
  5  6  2  3
  6  7  1  0
  6 11  1  0
  7  8  1  0
  8  9  2  0
  8 10  1  0
 10 11  1  0
 11 12  1  0
 12 13  1  0
 13 14  1  6
 13 15  1  0
M  END
