
     RDKit          3D

 12 12  0  0  0  0  0  0  0  0999 V2000
   -3.0470    0.4710   -0.6360 F   0  0  0  0  0  0  0  0  0  0  0  0
   -2.4970   -0.4940    0.1810 C   0  0  2  0  0  0  0  0  0  0  0  0
   -2.2240   -1.6010   -0.5700 F   0  0  0  0  0  0  0  0  0  0  0  0
   -3.5050   -0.8550    1.0810 F   0  0  0  0  0  0  0  0  0  0  0  0
   -1.4240   -0.0250    0.9400 O   0  0  0  0  0  0  0  0  0  0  0  0
   -0.2550    0.5000    0.4180 C   0  0  0  0  0  0  0  0  0  0  0  0
    0.0320    1.7840    0.3010 C   0  0  0  0  0  0  0  0  0  0  0  0
    1.3570    1.9630   -0.2930 C   0  0  0  0  0  0  0  0  0  0  0  0
    1.8400    0.8010   -0.5220 N   0  0  0  0  0  0  0  0  0  0  0  0
    0.9040   -0.2060   -0.1100 C   0  0  0  0  0  0  0  0  0  0  0  0
    1.0640   -1.5130   -0.1950 C   0  0  0  0  0  0  0  0  0  0  0  0
    2.5710   -2.1850   -0.8800 S   0  0  0  0  0  0  0  0  0  0  0  0
  2  1  1  6
  2  3  1  0
  2  4  1  0
  2  5  1  0
  5  6  1  0
  6  7  2  0
  6 10  1  0
  7  8  1  0
  8  9  2  0
  9 10  1  0
 10 11  2  3
 11 12  1  0
M  END
