
     RDKit          3D

 12 12  0  0  0  0  0  0  0  0999 V2000
   -0.1520    2.5710    0.8910 O   0  0  0  0  0  0  0  0  0  0  0  0
   -1.0800    1.7580    0.3030 C   0  0  0  0  0  0  0  0  0  0  0  0
   -0.7460    0.5200   -0.0510 C   0  0  0  0  0  0  0  0  0  0  0  0
   -1.6810   -0.4640   -0.7050 C   0  0  0  0  0  0  0  0  0  0  0  0
   -1.6210   -1.6970    0.2040 C   0  0  0  0  0  0  0  0  0  0  0  0
    0.2150   -1.8630    0.2740 S   0  0  0  0  0  0  0  0  0  0  0  0
    0.5550   -0.1100    0.1170 C   0  0  0  0  0  0  0  0  0  0  0  0
    1.6970    0.4640    0.1460 N   0  0  0  0  0  0  0  0  0  0  0  0
    2.9120   -0.3110    0.3220 C   0  0  2  0  0  0  0  0  0  0  0  0
    3.4890   -0.4880   -0.9010 F   0  0  0  0  0  0  0  0  0  0  0  0
    2.6140   -1.5760    0.8240 F   0  0  0  0  0  0  0  0  0  0  0  0
    3.7260    0.3930    1.1760 F   0  0  0  0  0  0  0  0  0  0  0  0
  1  2  1  0
  2  3  2  3
  3  4  1  0
  3  7  1  0
  4  5  1  0
  5  6  1  0
  6  7  1  0
  7  8  2  3
  8  9  1  0
  9 10  1  6
  9 11  1  0
  9 12  1  0
M  END
