
     RDKit          3D

 25 26  0  0  0  0  0  0  0  0999 V2000
   -1.2440   -2.0270   -1.8210 O   0  0  0  0  0  0  0  0  0  0  0  0
   -1.4640   -1.3790   -0.8290 C   0  0  0  0  0  0  0  0  0  0  0  0
   -2.8510   -1.2800   -0.2730 C   0  0  1  0  0  0  0  0  0  0  0  0
   -3.3420   -2.5660    0.0410 O   0  0  0  0  0  0  0  0  0  0  0  0
   -2.8260   -0.4160    0.9640 C   0  0  2  0  0  0  0  0  0  0  0  0
   -4.1450   -0.1290    1.3860 O   0  0  0  0  0  0  0  0  0  0  0  0
   -2.1890    0.9000    0.6900 C   0  0  0  0  0  0  0  0  0  0  0  0
   -0.8280    0.7850   -0.0340 C   0  0  2  0  0  0  0  0  0  0  0  0
    0.0380    1.6080    0.7070 O   0  0  0  0  0  0  0  0  0  0  0  0
   -1.0790    1.4070   -1.3530 C   0  0  0  0  0  0  0  0  0  0  0  0
   -1.7240    0.7580   -2.2050 O   0  0  0  0  0  0  0  0  0  0  0  0
   -0.6430    2.6690   -1.6970 O   0  0  0  0  0  0  0  0  0  0  0  0
   -0.3790   -0.6200   -0.0690 C   0  0  2  0  0  0  0  0  0  0  0  0
    0.8980   -1.0130   -0.6570 C   0  0  0  0  0  0  0  0  0  0  0  0
    2.1390   -0.4540   -0.1240 C   0  0  0  0  0  0  0  0  0  0  0  0
    2.6410    0.7530   -0.5060 C   0  0  0  0  0  0  0  0  0  0  0  0
    2.0910    1.5310   -1.4630 F   0  0  0  0  0  0  0  0  0  0  0  0
    3.8200    1.2670    0.0610 C   0  0  0  0  0  0  0  0  0  0  0  0
    4.3150    2.4640   -0.3180 F   0  0  0  0  0  0  0  0  0  0  0  0
    4.5040    0.5680    1.0180 C   0  0  0  0  0  0  0  0  0  0  0  0
    5.6570    1.0470    1.5880 F   0  0  0  0  0  0  0  0  0  0  0  0
    4.0010   -0.6570    1.4090 C   0  0  0  0  0  0  0  0  0  0  0  0
    4.6920   -1.3370    2.3580 F   0  0  0  0  0  0  0  0  0  0  0  0
    2.8540   -1.1500    0.8530 C   0  0  0  0  0  0  0  0  0  0  0  0
    2.3690   -2.3440    1.2390 F   0  0  0  0  0  0  0  0  0  0  0  0
  1  2  2  0
  2  3  1  0
  2 13  1  0
  3  4  1  1
  3  5  1  0
  5  6  1  6
  5  7  1  0
  7  8  1  0
  8  9  1  1
  8 10  1  0
  8 13  1  0
 10 11  2  0
 10 12  1  0
 13 14  1  6
 14 15  1  0
 15 16  2  0
 15 24  1  0
 16 17  1  0
 16 18  1  0
 18 19  1  0
 18 20  2  0
 20 21  1  0
 20 22  1  0
 22 23  1  0
 22 24  2  0
 24 25  1  0
M  END
