
     RDKit          3D

 12 12  0  0  0  0  0  0  0  0999 V2000
    2.9200    1.4960   -0.9030 O   0  0  0  0  0  0  0  0  0  0  0  0
    1.8890    0.7220   -0.3230 C   0  0  0  0  0  0  0  0  0  0  0  0
    0.6930    0.8550   -0.7160 N   0  0  0  0  0  0  0  0  0  0  0  0
   -0.4440    0.1660   -0.2460 C   0  0  0  0  0  0  0  0  0  0  0  0
   -1.6420    0.6470   -0.1710 C   0  0  0  0  0  0  0  0  0  0  0  0
   -2.8170   -0.0760    0.3180 C   0  0  1  0  0  0  0  0  0  0  0  0
   -2.7210   -0.4310    1.6430 F   0  0  0  0  0  0  0  0  0  0  0  0
   -3.9830    0.6720    0.2040 F   0  0  0  0  0  0  0  0  0  0  0  0
   -3.0740   -1.2500   -0.3900 F   0  0  0  0  0  0  0  0  0  0  0  0
   -0.2320   -1.2330    0.2000 C   0  0  0  0  0  0  0  0  0  0  0  0
    1.0630   -1.1770    1.5010 S   0  0  0  0  0  0  0  0  0  0  0  0
    2.3470   -0.1900    0.7180 C   0  0  0  0  0  0  0  0  0  0  0  0
  1  2  1  0
  2  3  2  0
  2 12  1  0
  3  4  1  0
  4  5  2  3
  4 10  1  0
  5  6  1  0
  6  7  1  1
  6  8  1  0
  6  9  1  0
 10 11  1  0
 11 12  1  0
M  END
