
     RDKit          3D

 15 15  0  0  0  0  0  0  0  0999 V2000
    5.3260    0.1610   -0.0720 C   0  0  0  0  0  0  0  0  0  0  0  0
    4.5840   -0.8530    0.6710 C   0  0  0  0  0  0  0  0  0  0  0  0
    3.3210   -0.7280    0.8710 N   0  0  0  0  0  0  0  0  0  0  0  0
    2.5660    0.3580    0.4090 C   0  0  0  0  0  0  0  0  0  0  0  0
    1.2790    0.2950    0.1930 C   0  0  0  0  0  0  0  0  0  0  0  0
    0.1650   -1.1090    0.4080 S   0  0  0  0  0  0  0  0  0  0  0  0
   -1.3040   -0.2370   -0.1210 C   0  0  0  0  0  0  0  0  0  0  0  0
   -2.6160   -0.7400   -0.2100 N   0  0  0  0  0  0  0  0  0  0  0  0
   -2.8660   -2.0860    0.1450 C   0  0  0  0  0  0  0  0  0  0  0  0
   -4.0310   -2.5450    0.0700 O   0  0  0  0  0  0  0  0  0  0  0  0
   -3.6860    0.1090   -0.6590 C   0  0  0  0  0  0  0  0  0  0  0  0
   -4.3410    0.8360    0.5120 C   0  0  0  0  0  0  0  0  0  0  0  0
   -0.9490    0.9420   -0.4070 N   0  0  0  0  0  0  0  0  0  0  0  0
    0.3620    1.3190   -0.2800 C   0  0  0  0  0  0  0  0  0  0  0  0
    0.7870    2.5000   -0.5540 O   0  0  0  0  0  0  0  0  0  0  0  0
  1  2  1  0
  2  3  2  3
  3  4  1  0
  4  5  2  3
  5  6  1  0
  5 14  1  0
  6  7  1  0
  7  8  1  0
  7 13  2  0
  8  9  1  0
  8 11  1  0
  9 10  2  0
 11 12  1  0
 13 14  1  0
 14 15  2  0
M  END
