
     RDKit          3D

 15 15  0  0  0  0  0  0  0  0999 V2000
    5.1870    0.0050   -0.0310 C   0  0  0  0  0  0  0  0  0  0  0  0
    3.7770   -0.1100   -0.5040 C   0  0  0  0  0  0  0  0  0  0  0  0
    3.6010   -0.5350   -1.8150 C   0  0  0  0  0  0  0  0  0  0  0  0
    2.3260   -0.6270   -2.2070 N   0  0  0  0  0  0  0  0  0  0  0  0
    1.3060   -0.3260   -1.3770 C   0  0  0  0  0  0  0  0  0  0  0  0
    1.5350    0.0880   -0.0950 C   0  0  0  0  0  0  0  0  0  0  0  0
    0.6410    0.3760    0.7030 N   0  0  0  0  0  0  0  0  0  0  0  0
   -0.6950    0.4310    0.7530 C   0  0  0  0  0  0  0  0  0  0  0  0
   -1.2150    0.7360    1.9140 O   0  0  0  0  0  0  0  0  0  0  0  0
   -1.6990    0.2010   -0.2970 C   0  0  0  0  0  0  0  0  0  0  0  0
   -3.0240    0.3720    0.2490 N   0  0  0  0  0  0  0  0  0  0  0  0
   -3.3830    1.6820    0.6330 C   0  0  0  0  0  0  0  0  0  0  0  0
   -3.5080   -0.7170    1.0010 C   0  0  0  0  0  0  0  0  0  0  0  0
   -3.6120   -2.2630    0.0710 S   0  0  0  0  0  0  0  0  0  0  0  0
    2.8230    0.1780    0.2890 O   0  0  0  0  0  0  0  0  0  0  0  0
  1  2  1  0
  2  3  2  0
  2 15  1  0
  3  4  1  0
  4  5  2  0
  5  6  1  0
  6  7  2  3
  6 15  1  0
  7  8  1  0
  8  9  2  0
  8 10  1  0
 10 11  1  0
 11 12  1  0
 11 13  1  0
 13 14  1  0
M  END
