
     RDKit          3D

 15 15  0  0  0  0  0  0  0  0999 V2000
   -1.9530    1.8710    0.2840 C   0  0  0  0  0  0  0  0  0  0  0  0
   -1.4040    0.8280    1.2330 C   0  0  0  0  0  0  0  0  0  0  0  0
   -0.4180   -0.0370    0.6880 N   0  0  0  0  0  0  0  0  0  0  0  0
    0.4220   -0.8990    1.4670 C   0  0  0  0  0  0  0  0  0  0  0  0
    1.4630   -0.0710    2.2470 C   0  0  0  0  0  0  0  0  0  0  0  0
    2.2090   -1.2180    2.9810 C   0  0  0  0  0  0  0  0  0  0  0  0
    2.8090   -2.1820    3.5870 N   0  0  0  0  0  0  0  0  0  0  0  0
   -0.1530   -0.0630   -0.7370 C   0  0  0  0  0  0  0  0  0  0  0  0
    0.3780    0.9250   -1.3350 N   0  0  0  0  0  0  0  0  0  0  0  0
    0.7270    1.1950   -2.5760 C   0  0  0  0  0  0  0  0  0  0  0  0
    1.1680    2.1590   -3.1680 O   0  0  0  0  0  0  0  0  0  0  0  0
    0.4910   -0.2550   -3.7410 S   0  0  0  0  0  0  0  0  0  0  0  0
    1.9300   -0.6150   -4.2020 O   0  0  0  0  0  0  0  0  0  0  0  0
   -0.2220   -1.4460   -2.7740 C   0  0  0  0  0  0  0  0  0  0  0  0
   -0.4750   -1.2850   -1.4430 C   0  0  0  0  0  0  0  0  0  0  0  0
  1  2  1  0
  2  3  1  0
  3  4  1  0
  3  8  1  0
  4  5  1  0
  5  6  1  0
  6  7  3  0
  8  9  2  0
  8 15  1  0
  9 10  1  0
 10 11  2  0
 10 12  1  0
 12 13  2  0
 12 14  1  1
 14 15  2  0
M  END
