
     RDKit          3D

 22 23  0  0  0  0  0  0  0  0999 V2000
    5.9580    0.6570    1.1400 C   0  0  0  0  0  0  0  0  0  0  0  0
    5.2070    1.0670    0.0260 O   0  0  0  0  0  0  0  0  0  0  0  0
    3.9520    0.5610   -0.2290 C   0  0  0  0  0  0  0  0  0  0  0  0
    3.2340    0.9700   -1.3160 C   0  0  0  0  0  0  0  0  0  0  0  0
    1.9920    0.4420   -1.5310 C   0  0  0  0  0  0  0  0  0  0  0  0
    1.4270   -0.5030   -0.6790 C   0  0  0  0  0  0  0  0  0  0  0  0
    0.0930   -1.0610   -0.9810 C   0  0  0  0  0  0  0  0  0  0  0  0
   -1.0330   -0.1970   -0.5480 C   0  0  2  0  0  0  0  0  0  0  0  0
   -1.1460    0.1200    0.8750 C   0  0  0  0  0  0  0  0  0  0  0  0
   -0.3870   -0.3130    1.6910 O   0  0  0  0  0  0  0  0  0  0  0  0
   -2.2590    1.0160    1.2830 C   0  0  1  0  0  0  0  0  0  0  0  0
   -1.8090    2.1830    1.8660 O   0  0  0  0  0  0  0  0  0  0  0  0
   -3.0820    1.3020    0.0490 C   0  0  2  0  0  0  0  0  0  0  0  0
   -4.2700    1.9240    0.4550 O   0  0  0  0  0  0  0  0  0  0  0  0
   -3.4650    0.0410   -0.6630 C   0  0  0  0  0  0  0  0  0  0  0  0
   -2.3470   -0.9190   -0.9110 C   0  0  1  0  0  0  0  0  0  0  0  0
   -2.2630   -1.2620   -2.2550 O   0  0  0  0  0  0  0  0  0  0  0  0
   -2.4260   -2.1300   -0.0590 C   0  0  0  0  0  0  0  0  0  0  0  0
   -2.4080   -3.2510   -0.6180 O   0  0  0  0  0  0  0  0  0  0  0  0
   -2.5180   -2.1000    1.3200 O   0  0  0  0  0  0  0  0  0  0  0  0
    2.1720   -0.8980    0.4080 C   0  0  0  0  0  0  0  0  0  0  0  0
    3.4260   -0.3730    0.6370 C   0  0  0  0  0  0  0  0  0  0  0  0
  1  2  1  0
  2  3  1  0
  3  4  2  0
  3 22  1  0
  4  5  1  0
  5  6  2  0
  6  7  1  0
  6 21  1  0
  8  7  1  1
  8  9  1  0
  8 16  1  0
  9 10  2  0
  9 11  1  0
 11 12  1  6
 11 13  1  0
 13 14  1  1
 13 15  1  0
 15 16  1  0
 16 17  1  6
 16 18  1  0
 18 19  2  0
 18 20  1  0
 21 22  2  0
M  END
