
     RDKit          3D

 15 15  0  0  0  0  0  0  0  0999 V2000
   -4.2210    0.7360    0.0120 C   0  0  0  0  0  0  0  0  0  0  0  0
   -3.1230    1.7170   -0.0400 C   0  0  0  0  0  0  0  0  0  0  0  0
   -1.8650    1.3670    0.2500 C   0  0  0  0  0  0  0  0  0  0  0  0
   -0.8830    2.3600    0.1820 C   0  0  0  0  0  0  0  0  0  0  0  0
   -0.0310    3.1960    0.1270 N   0  0  0  0  0  0  0  0  0  0  0  0
   -1.6570   -0.0310    0.5500 C   0  0  0  0  0  0  0  0  0  0  0  0
   -0.5790   -0.6340    0.8920 C   0  0  0  0  0  0  0  0  0  0  0  0
    0.7710   -0.1150    1.1030 C   0  0  0  0  0  0  0  0  0  0  0  0
    1.6340   -0.7730    0.1320 N   0  0  0  0  0  0  0  0  0  0  0  0
    2.0080   -2.0850   -0.0230 N   0  0  0  0  0  0  0  0  0  0  0  0
    3.0280   -2.3650   -0.6800 C   0  0  0  0  0  0  0  0  0  0  0  0
    3.7760   -1.2170   -1.2610 C   0  0  0  0  0  0  0  0  0  0  0  0
    2.4500    0.0120   -1.2120 S   0  0  1  0  0  0  0  0  0  0  0  0
    1.6530   -0.0290   -2.4450 O   0  0  0  0  0  0  0  0  0  0  0  0
    2.9800    1.3370   -0.8390 O   0  0  0  0  0  0  0  0  0  0  0  0
  1  2  1  0
  2  3  2  3
  3  4  1  0
  3  6  1  0
  4  5  3  0
  6  7  2  3
  7  8  1  0
  8  9  1  0
  9 10  1  0
  9 13  1  0
 10 11  2  0
 11 12  1  0
 13 12  1  6
 13 14  2  0
 13 15  2  0
M  END
