
     RDKit          3D

 15 15  0  0  0  0  0  0  0  0999 V2000
   -3.1080    1.0720    0.8950 C   0  0  0  0  0  0  0  0  0  0  0  0
   -2.0390    0.8540    0.1930 C   0  0  0  0  0  0  0  0  0  0  0  0
   -1.2900    2.2120   -0.7850 S   0  0  0  0  0  0  0  0  0  0  0  0
   -0.5430    1.0460   -1.9510 C   0  0  0  0  0  0  0  0  0  0  0  0
   -0.2570    1.3440   -3.1530 N   0  0  0  0  0  0  0  0  0  0  0  0
   -0.3890   -0.1430   -1.2410 N   0  0  0  0  0  0  0  0  0  0  0  0
    0.5360   -1.1700   -1.6940 C   0  0  0  0  0  0  0  0  0  0  0  0
    1.9840   -0.7050   -1.5490 C   0  0  0  0  0  0  0  0  0  0  0  0
    2.2820   -0.4080   -0.1230 C   0  0  0  0  0  0  0  0  0  0  0  0
    2.6270   -1.3470    0.6710 O   0  0  0  0  0  0  0  0  0  0  0  0
    2.2150    0.8560    0.4410 O   0  0  0  0  0  0  0  0  0  0  0  0
    2.5070    1.0850    1.8100 C   0  0  0  0  0  0  0  0  0  0  0  0
   -1.1940   -0.2610   -0.0720 C   0  0  0  0  0  0  0  0  0  0  0  0
   -1.1140   -1.2960    0.6620 N   0  0  0  0  0  0  0  0  0  0  0  0
   -1.8400   -1.5110    1.8520 C   0  0  0  0  0  0  0  0  0  0  0  0
  1  2  2  0
  2  3  1  0
  2 13  1  0
  3  4  1  0
  4  5  2  0
  4  6  1  0
  6  7  1  0
  6 13  1  0
  7  8  1  0
  8  9  1  0
  9 10  2  0
  9 11  1  0
 11 12  1  0
 13 14  2  3
 14 15  1  0
M  END
