
     RDKit          3D

 15 15  0  0  0  0  0  0  0  0999 V2000
    5.6570    1.0070   -0.7420 C   0  0  0  0  0  0  0  0  0  0  0  0
    4.8510   -0.6110   -0.7560 S   0  0  0  0  0  0  0  0  0  0  0  0
    3.1050   -0.3630   -0.5020 C   0  0  0  0  0  0  0  0  0  0  0  0
    2.6480    0.2720    0.5460 N   0  0  0  0  0  0  0  0  0  0  0  0
    1.2430    0.4070    0.6390 N   0  0  0  0  0  0  0  0  0  0  0  0
    0.5300   -0.6760    0.4940 C   0  0  0  0  0  0  0  0  0  0  0  0
    0.9930   -1.9640    0.2570 O   0  0  0  0  0  0  0  0  0  0  0  0
   -0.0960   -2.8010    0.1730 C   0  0  0  0  0  0  0  0  0  0  0  0
   -0.1920   -4.0460    0.2960 O   0  0  0  0  0  0  0  0  0  0  0  0
   -1.2640   -1.9350   -0.1140 C   0  0  0  0  0  0  0  0  0  0  0  0
   -0.8950   -0.7200    0.5590 N   0  0  0  0  0  0  0  0  0  0  0  0
   -1.7210    0.2600    1.1770 C   0  0  0  0  0  0  0  0  0  0  0  0
   -2.5680    1.0500    0.2370 C   0  0  1  0  0  0  0  0  0  0  0  0
   -1.8000    1.8210   -0.7790 C   0  0  0  0  0  0  0  0  0  0  0  0
   -3.6420    0.2520   -0.4540 C   0  0  0  0  0  0  0  0  0  0  0  0
  1  2  1  0
  2  3  1  0
  3  4  2  3
  4  5  1  0
  5  6  2  3
  6  7  1  0
  6 11  1  0
  7  8  1  0
  8  9  2  0
  8 10  1  0
 10 11  1  0
 11 12  1  0
 12 13  1  0
 13 14  1  6
 13 15  1  0
M  END
