
     RDKit          3D

 15 15  0  0  0  0  0  0  0  0999 V2000
   -4.2470   -0.2950    0.9170 C   0  0  0  0  0  0  0  0  0  0  0  0
   -3.7100   -0.5220   -0.4520 C   0  0  0  0  0  0  0  0  0  0  0  0
   -2.3040    0.0320   -0.6230 C   0  0  0  0  0  0  0  0  0  0  0  0
   -2.0570    0.8880   -1.5100 N   0  0  0  0  0  0  0  0  0  0  0  0
   -0.3500    1.2740   -1.3750 S   0  0  1  0  0  0  0  0  0  0  0  0
    0.3050    1.0690   -2.6810 O   0  0  0  0  0  0  0  0  0  0  0  0
   -0.2420    2.6950   -0.8510 O   0  0  0  0  0  0  0  0  0  0  0  0
    0.0270    0.0870   -0.1630 C   0  0  0  0  0  0  0  0  0  0  0  0
    1.1720   -0.2650    0.3140 C   0  0  0  0  0  0  0  0  0  0  0  0
    2.4770    0.2090   -0.0100 C   0  0  0  0  0  0  0  0  0  0  0  0
    2.8400    1.2070   -1.0220 C   0  0  0  0  0  0  0  0  0  0  0  0
    3.4670   -0.3470    0.6780 N   0  0  0  0  0  0  0  0  0  0  0  0
    4.8270    0.0300    0.4600 C   0  0  0  0  0  0  0  0  0  0  0  0
   -1.2630   -0.4620    0.1600 N   0  0  0  0  0  0  0  0  0  0  0  0
   -1.3800   -1.4610    1.2520 C   0  0  0  0  0  0  0  0  0  0  0  0
  1  2  1  0
  2  3  1  0
  3  4  2  0
  3 14  1  0
  5  4  1  6
  5  6  2  0
  5  7  2  0
  5  8  1  0
  8  9  2  3
  8 14  1  0
  9 10  1  0
 10 11  1  0
 10 12  2  3
 12 13  1  0
 14 15  1  0
M  END
