
     RDKit          3D

 12 12  0  0  0  0  0  0  0  0999 V2000
   -0.5800    2.2990   -0.4370 N   0  0  0  0  0  0  0  0  0  0  0  0
    0.3570    1.2170   -0.2380 C   0  0  0  0  0  0  0  0  0  0  0  0
    1.5880    1.5600   -0.0050 C   0  0  0  0  0  0  0  0  0  0  0  0
    2.8610    0.3430    0.2610 S   0  0  0  0  0  0  0  0  0  0  0  0
    2.0840   -1.2630    0.1370 C   0  0  0  0  0  0  0  0  0  0  0  0
    0.6360   -1.1920   -0.1450 C   0  0  0  0  0  0  0  0  0  0  0  0
   -0.1180   -0.1560   -0.3080 C   0  0  0  0  0  0  0  0  0  0  0  0
   -1.4910   -0.3210   -0.5710 O   0  0  0  0  0  0  0  0  0  0  0  0
   -2.3480   -0.9880    0.3220 C   0  0  2  0  0  0  0  0  0  0  0  0
   -1.9940   -2.2850    0.5580 F   0  0  0  0  0  0  0  0  0  0  0  0
   -3.6140   -0.9690   -0.2400 F   0  0  0  0  0  0  0  0  0  0  0  0
   -2.4150   -0.3430    1.5540 F   0  0  0  0  0  0  0  0  0  0  0  0
  1  2  1  0
  2  3  2  0
  2  7  1  0
  3  4  1  0
  4  5  1  0
  5  6  1  0
  6  7  2  0
  7  8  1  0
  8  9  1  0
  9 10  1  1
  9 11  1  0
  9 12  1  0
M  END
