
     RDKit          3D

 12 12  0  0  0  0  0  0  0  0999 V2000
   -2.2980    2.0390    0.5460 O   0  0  0  0  0  0  0  0  0  0  0  0
   -0.9980    1.7020    0.2120 C   0  0  0  0  0  0  0  0  0  0  0  0
   -0.6010    0.4160    0.2110 C   0  0  0  0  0  0  0  0  0  0  0  0
   -1.4800   -0.7130    0.5530 C   0  0  0  0  0  0  0  0  0  0  0  0
   -1.3800   -1.7240   -0.5990 C   0  0  0  0  0  0  0  0  0  0  0  0
    0.4560   -1.7240   -0.7780 S   0  0  0  0  0  0  0  0  0  0  0  0
    0.7290   -0.0830   -0.1160 C   0  0  0  0  0  0  0  0  0  0  0  0
    1.8200    0.5600    0.0560 N   0  0  0  0  0  0  0  0  0  0  0  0
    3.1200    0.0490   -0.2740 C   0  0  2  0  0  0  0  0  0  0  0  0
    3.3660    0.1110   -1.6440 F   0  0  0  0  0  0  0  0  0  0  0  0
    3.2570   -1.2570    0.0960 F   0  0  0  0  0  0  0  0  0  0  0  0
    4.0550    0.8750    0.3560 F   0  0  0  0  0  0  0  0  0  0  0  0
  1  2  1  0
  2  3  2  3
  3  4  1  0
  3  7  1  0
  4  5  1  0
  5  6  1  0
  6  7  1  0
  7  8  2  3
  8  9  1  0
  9 10  1  6
  9 11  1  0
  9 12  1  0
M  END
