
     RDKit          3D

 12 12  0  0  0  0  0  0  0  0999 V2000
   -1.9930   -1.9770    0.3210 C   0  0  0  0  0  0  0  0  0  0  0  0
   -1.3340   -0.9610   -0.4520 N   0  0  0  0  0  0  0  0  0  0  0  0
   -0.2640   -0.1820    0.1330 C   0  0  0  0  0  0  0  0  0  0  0  0
   -0.3340    1.1330    0.1630 C   0  0  0  0  0  0  0  0  0  0  0  0
   -1.4090    2.0310   -0.3400 C   0  0  1  0  0  0  0  0  0  0  0  0
   -0.8730    2.8650   -1.3020 F   0  0  0  0  0  0  0  0  0  0  0  0
   -2.4230    1.3220   -0.9470 F   0  0  0  0  0  0  0  0  0  0  0  0
   -1.8650    2.7970    0.6970 F   0  0  0  0  0  0  0  0  0  0  0  0
    1.1850    1.6590    0.9540 S   0  0  0  0  0  0  0  0  0  0  0  0
    1.9820    0.0010    0.7900 C   0  0  2  0  0  0  0  0  0  0  0  0
    2.8790   -0.0330   -0.4160 C   0  0  0  0  0  0  0  0  0  0  0  0
    0.8280   -0.7600    0.6620 O   0  0  0  0  0  0  0  0  0  0  0  0
  1  2  1  0
  2  3  1  0
  3  4  2  0
  3 12  1  0
  4  5  1  0
  4  9  1  0
  5  6  1  6
  5  7  1  0
  5  8  1  0
  9 10  1  0
 10 11  1  6
 10 12  1  0
M  END
