
     RDKit          3D

 12 12  0  0  0  0  0  0  0  0999 V2000
   -2.8740   -0.3930   -1.2810 F   0  0  0  0  0  0  0  0  0  0  0  0
   -2.3250   -1.2400   -0.3310 C   0  0  1  0  0  0  0  0  0  0  0  0
   -2.8520   -0.9750    0.9310 F   0  0  0  0  0  0  0  0  0  0  0  0
   -2.7120   -2.5250   -0.6530 F   0  0  0  0  0  0  0  0  0  0  0  0
   -0.9130   -1.1560   -0.3320 O   0  0  0  0  0  0  0  0  0  0  0  0
   -0.2940    0.0580   -0.0670 C   0  0  0  0  0  0  0  0  0  0  0  0
   -0.8970    1.2460    0.1110 C   0  0  0  0  0  0  0  0  0  0  0  0
    0.1610    2.1970    0.3570 C   0  0  0  0  0  0  0  0  0  0  0  0
    1.3240    1.6440    0.3350 N   0  0  0  0  0  0  0  0  0  0  0  0
    1.1420    0.2610    0.0680 C   0  0  0  0  0  0  0  0  0  0  0  0
    2.0790   -0.6820   -0.0410 C   0  0  0  0  0  0  0  0  0  0  0  0
    3.8140   -0.3020    0.1470 S   0  0  0  0  0  0  0  0  0  0  0  0
  2  1  1  6
  2  3  1  0
  2  4  1  0
  2  5  1  0
  5  6  1  0
  6  7  2  0
  6 10  1  0
  7  8  1  0
  8  9  2  0
  9 10  1  0
 10 11  2  3
 11 12  1  0
M  END
