
     RDKit          3D

 12 12  0  0  0  0  0  0  0  0999 V2000
   -2.0640    2.2220    0.0690 O   0  0  0  0  0  0  0  0  0  0  0  0
   -1.4410    0.9890    0.0390 C   0  0  0  0  0  0  0  0  0  0  0  0
   -0.2620    0.8550   -0.4430 N   0  0  0  0  0  0  0  0  0  0  0  0
    0.4420   -0.3670   -0.5100 C   0  0  0  0  0  0  0  0  0  0  0  0
    1.6510   -0.5740   -0.0200 C   0  0  0  0  0  0  0  0  0  0  0  0
    2.4480    0.4710    0.6810 C   0  0  2  0  0  0  0  0  0  0  0  0
    1.9940    1.6980    0.2570 F   0  0  0  0  0  0  0  0  0  0  0  0
    3.7840    0.3130    0.4190 F   0  0  0  0  0  0  0  0  0  0  0  0
    2.2470    0.3450    2.0340 F   0  0  0  0  0  0  0  0  0  0  0  0
   -0.2440   -1.4930   -1.1900 C   0  0  0  0  0  0  0  0  0  0  0  0
   -1.9070   -1.6110   -0.4820 S   0  0  0  0  0  0  0  0  0  0  0  0
   -2.1710   -0.1820    0.5820 C   0  0  0  0  0  0  0  0  0  0  0  0
  1  2  1  0
  2  3  2  0
  2 12  1  0
  3  4  1  0
  4  5  2  3
  4 10  1  0
  5  6  1  0
  6  7  1  6
  6  8  1  0
  6  9  1  0
 10 11  1  0
 11 12  1  0
M  END
