
     RDKit          3D

 12 12  0  0  0  0  0  0  0  0999 V2000
    3.3610   -0.2670   -0.0390 C   0  0  0  0  0  0  0  0  0  0  0  0
    2.1210    0.4760    0.2720 C   0  0  0  0  0  0  0  0  0  0  0  0
    0.9410   -0.0350    0.0320 C   0  0  0  0  0  0  0  0  0  0  0  0
   -0.3700    0.4330    0.2220 N   0  0  0  0  0  0  0  0  0  0  0  0
   -1.3240   -0.3350    0.0580 C   0  0  0  0  0  0  0  0  0  0  0  0
   -2.6630    0.1060    0.2410 O   0  0  0  0  0  0  0  0  0  0  0  0
   -2.9600    1.5050    0.1960 C   0  0  2  0  0  0  0  0  0  0  0  0
   -2.5990    2.0120   -1.0470 F   0  0  0  0  0  0  0  0  0  0  0  0
   -2.3190    2.1830    1.2240 F   0  0  0  0  0  0  0  0  0  0  0  0
   -4.3080    1.6330    0.3530 F   0  0  0  0  0  0  0  0  0  0  0  0
   -1.0690   -1.7300   -0.3330 C   0  0  0  0  0  0  0  0  0  0  0  0
    0.7140   -1.6560   -0.6850 S   0  0  0  0  0  0  0  0  0  0  0  0
  1  2  1  0
  2  3  2  3
  3  4  1  0
  3 12  1  0
  4  5  2  0
  5  6  1  0
  5 11  1  0
  6  7  1  0
  7  8  1  6
  7  9  1  0
  7 10  1  0
 11 12  1  0
M  END
