
     RDKit          3D

 21 21  0  0  0  0  0  0  0  0999 V2000
    4.0440   -0.1050    0.3050 C   0  0  0  0  0  0  0  0  0  0  0  0
    3.5610   -0.5860   -1.0690 C   0  0  0  0  0  0  0  0  0  0  0  0
    2.1890   -0.9020   -0.9910 O   0  0  0  0  0  0  0  0  0  0  0  0
    1.2660    0.1850   -0.6000 C   0  0  0  0  0  0  0  0  0  0  0  0
    1.2990    1.1450   -1.4610 C   0  0  0  0  0  0  0  0  0  0  0  0
    0.6300    2.4250   -1.5740 C   0  0  0  0  0  0  0  0  0  0  0  0
    0.6950    3.2130   -3.2090 Cl  0  0  0  0  0  0  0  0  0  0  0  0
   -0.0380    3.1090   -0.6800 C   0  0  0  0  0  0  0  0  0  0  0  0
   -0.3640    2.8700    0.6900 C   0  0  0  0  0  0  0  0  0  0  0  0
   -1.4560    2.3050    1.2100 C   0  0  0  0  0  0  0  0  0  0  0  0
   -2.6020    1.7900    0.4640 C   0  0  0  0  0  0  0  0  0  0  0  0
   -3.7040    2.3650    0.9130 O   0  0  0  0  0  0  0  0  0  0  0  0
   -2.6840    0.8670   -0.5620 N   0  0  0  0  0  0  0  0  0  0  0  0
   -2.5260   -0.5690   -0.5660 C   0  0  0  0  0  0  0  0  0  0  0  0
   -3.6430   -1.4450   -1.6730 Cl  0  0  0  0  0  0  0  0  0  0  0  0
   -1.6270   -1.2820    0.0610 C   0  0  0  0  0  0  0  0  0  0  0  0
   -1.6380   -2.7590   -0.0500 C   0  0  0  0  0  0  0  0  0  0  0  0
   -2.6570   -3.4540   -0.7370 N   0  0  0  0  0  0  0  0  0  0  0  0
   -0.5560   -0.7060    0.9140 C   0  0  0  0  0  0  0  0  0  0  0  0
    0.5940   -0.1230    0.6160 C   0  0  0  0  0  0  0  0  0  0  0  0
    1.3260    0.2810    1.8040 O   0  0  0  0  0  0  0  0  0  0  0  0
  1  2  1  0
  2  3  1  0
  3  4  1  0
  4  5  2  0
  4 20  1  0
  5  6  1  0
  6  7  1  0
  6  8  2  0
  8  9  1  0
  9 10  2  0
 10 11  1  0
 11 12  2  0
 11 13  1  0
 13 14  1  0
 14 15  1  0
 14 16  2  0
 16 17  1  0
 16 19  1  0
 17 18  1  0
 19 20  2  0
 20 21  1  0
M  CHG  1  18   1
M  END
