
     RDKit          3D

 21 22  0  0  0  0  0  0  0  0999 V2000
   -3.2400   -1.4440   -1.6800 N   0  0  0  0  0  0  0  0  0  0  0  0
   -2.8650   -1.3490   -0.2790 C   0  0  0  0  0  0  0  0  0  0  0  0
   -2.6460    0.0630    0.1520 C   0  0  1  0  0  0  0  0  0  0  0  0
   -1.6270    0.9220   -0.4500 C   0  0  0  0  0  0  0  0  0  0  0  0
   -0.2480    0.6470   -0.4030 N   0  0  0  0  0  0  0  0  0  0  0  0
    0.4710   -0.3720   -1.0020 C   0  0  0  0  0  0  0  0  0  0  0  0
   -0.2840   -1.1570   -1.7350 O   0  0  0  0  0  0  0  0  0  0  0  0
    1.8510   -0.7320   -0.9790 C   0  0  0  0  0  0  0  0  0  0  0  0
    2.2280   -2.2130   -2.0030 Cl  0  0  0  0  0  0  0  0  0  0  0  0
    2.8990   -0.2670   -0.4120 C   0  0  0  0  0  0  0  0  0  0  0  0
    2.9830    0.8770    0.4570 C   0  0  0  0  0  0  0  0  0  0  0  0
    4.1310    1.2920    1.0080 C   0  0  0  0  0  0  0  0  0  0  0  0
    4.0860    2.6970    2.0450 Cl  0  0  0  0  0  0  0  0  0  0  0  0
    5.3330    0.5660    0.7190 C   0  0  0  0  0  0  0  0  0  0  0  0
    5.3430   -0.4930   -0.0670 C   0  0  0  0  0  0  0  0  0  0  0  0
    6.6110   -1.1960   -0.3250 C   0  0  0  0  0  0  0  0  0  0  0  0
    6.6620   -2.2080   -1.0670 O   0  0  0  0  0  0  0  0  0  0  0  0
    4.1620   -0.9150   -0.6290 O   0  0  0  0  0  0  0  0  0  0  0  0
   -4.0550    0.7360    0.1190 C   0  0  0  0  0  0  0  0  0  0  0  0
   -3.7070    1.3910    1.4150 C   0  0  0  0  0  0  0  0  0  0  0  0
   -2.7760    0.2290    1.6850 C   0  0  0  0  0  0  0  0  0  0  0  0
  1  2  1  0
  3  2  1  1
  3  4  1  0
  3 19  1  0
  3 21  1  0
  4  5  1  0
  5  6  1  0
  6  7  2  0
  6  8  1  0
  8  9  1  0
  8 10  2  3
 10 11  1  0
 10 18  1  0
 11 12  2  0
 12 13  1  0
 12 14  1  0
 14 15  2  0
 15 16  1  0
 15 18  1  0
 16 17  2  0
 19 20  1  0
 20 21  1  0
M  CHG  1   1   1
M  END
