
     RDKit          3D

 27 29  0  0  0  0  0  0  0  0999 V2000
    2.0550    3.5100   -2.3210 C   0  0  0  0  0  0  0  0  0  0  0  0
    3.0730    2.4680   -2.2740 N   0  0  0  0  0  0  0  0  0  0  0  0
    2.9240    1.4550   -1.4980 C   0  0  0  0  0  0  0  0  0  0  0  0
    1.8000    1.3080   -0.6780 C   0  0  0  0  0  0  0  0  0  0  0  0
    1.6170    0.2440    0.1530 C   0  0  0  0  0  0  0  0  0  0  0  0
    0.4520    0.0090    1.0400 C   0  0  0  0  0  0  0  0  0  0  0  0
   -0.4990    1.0450    0.9700 N   0  0  0  0  0  0  0  0  0  0  0  0
   -1.7320    0.8050    0.2890 C   0  0  1  0  0  0  0  0  0  0  0  0
   -1.7250    1.5990   -0.9980 C   0  0  0  0  0  0  0  0  0  0  0  0
   -1.6130    3.0580   -0.7890 C   0  0  0  0  0  0  0  0  0  0  0  0
   -1.6010    3.5360    0.3580 O   0  0  0  0  0  0  0  0  0  0  0  0
   -1.5210    3.9080   -1.8700 O   0  0  0  0  0  0  0  0  0  0  0  0
   -1.4160    5.2970   -1.6250 C   0  0  0  0  0  0  0  0  0  0  0  0
   -2.1650   -0.6050    0.1630 C   0  0  2  0  0  0  0  0  0  0  0  0
   -3.4990   -0.7870   -0.5780 C   0  0  0  0  0  0  0  0  0  0  0  0
   -3.6240   -2.3130   -0.7560 C   0  0  0  0  0  0  0  0  0  0  0  0
   -3.9340   -2.8520    0.5530 N   0  0  0  0  0  0  0  0  0  0  0  0
   -2.8610   -2.5980    1.4970 C   0  0  0  0  0  0  0  0  0  0  0  0
   -2.4850   -1.1570    1.5630 C   0  0  0  0  0  0  0  0  0  0  0  0
    2.6280   -0.7400    0.1670 C   0  0  0  0  0  0  0  0  0  0  0  0
    2.4890   -1.8330    0.9950 C   0  0  0  0  0  0  0  0  0  0  0  0
    3.4660   -2.8330    1.0440 C   0  0  0  0  0  0  0  0  0  0  0  0
    3.3260   -4.0050    1.9260 C   0  0  0  0  0  0  0  0  0  0  0  0
    4.5620   -2.6620    0.2250 C   0  0  0  0  0  0  0  0  0  0  0  0
    4.7040   -1.5700   -0.6040 C   0  0  0  0  0  0  0  0  0  0  0  0
    3.7230   -0.5790   -0.6440 C   0  0  0  0  0  0  0  0  0  0  0  0
    3.8520    0.4910   -1.4460 N   0  0  0  0  0  0  0  0  0  0  0  0
  1  2  1  0
  2  3  2  3
  3  4  1  0
  3 27  1  0
  4  5  2  0
  5  6  1  0
  5 20  1  0
  6  7  1  0
  7  8  1  0
  8  9  1  6
  8 14  1  0
  9 10  1  0
 10 11  2  0
 10 12  1  0
 12 13  1  0
 14 15  1  6
 14 19  1  0
 15 16  1  0
 16 17  1  0
 17 18  1  0
 18 19  1  0
 20 21  2  0
 20 26  1  0
 21 22  1  0
 22 23  1  0
 22 24  2  0
 24 25  1  0
 25 26  2  0
 26 27  1  0
M  CHG  2   7   1  17   1
M  END
