
     RDKit          3D

 25 26  0  0  0  0  0  0  0  0999 V2000
   -0.5810    1.7520   -1.6630 C   0  0  0  0  0  0  0  0  0  0  0  0
   -1.5230    1.5160   -0.4840 C   0  0  0  0  0  0  0  0  0  0  0  0
   -1.2520    0.0980    0.0580 C   0  0  1  0  0  0  0  0  0  0  0  0
   -1.4980   -0.9680   -0.7760 N   0  0  0  0  0  0  0  0  0  0  0  0
   -2.5920   -1.8700   -0.4670 C   0  0  1  0  0  0  0  0  0  0  0  0
   -2.3140   -2.5900    0.8690 C   0  0  0  0  0  0  0  0  0  0  0  0
   -3.9830   -1.4150   -0.5500 C   0  0  0  0  0  0  0  0  0  0  0  0
   -4.4660   -0.3680    0.3260 C   0  0  0  0  0  0  0  0  0  0  0  0
   -4.9090    0.8860   -0.0850 N   0  0  0  0  0  0  0  0  0  0  0  0
   -4.4660   -0.6630    1.5970 O   0  0  0  0  0  0  0  0  0  0  0  0
   -0.0860    0.2110    0.9170 C   0  0  0  0  0  0  0  0  0  0  0  0
   -0.1930    0.9920    2.1020 C   0  0  0  0  0  0  0  0  0  0  0  0
    0.8190    1.0780    3.0250 C   0  0  0  0  0  0  0  0  0  0  0  0
    2.0010    0.3550    2.7650 C   0  0  0  0  0  0  0  0  0  0  0  0
    3.2340    0.4380    3.9920 Cl  0  0  0  0  0  0  0  0  0  0  0  0
    2.0910   -0.3840    1.6210 C   0  0  0  0  0  0  0  0  0  0  0  0
    3.2990   -1.0740    1.3380 O   0  0  0  0  0  0  0  0  0  0  0  0
    3.9970   -0.3370    0.2800 C   0  0  0  0  0  0  0  0  0  0  0  0
    4.0710   -0.8650   -0.9770 C   0  0  0  0  0  0  0  0  0  0  0  0
    4.7160   -0.1730   -2.0040 C   0  0  0  0  0  0  0  0  0  0  0  0
    5.2930    1.0580   -1.7720 C   0  0  0  0  0  0  0  0  0  0  0  0
    5.2010    1.5710   -0.4730 C   0  0  0  0  0  0  0  0  0  0  0  0
    4.5580    0.8770    0.5490 C   0  0  0  0  0  0  0  0  0  0  0  0
    1.0690   -0.4650    0.7090 C   0  0  0  0  0  0  0  0  0  0  0  0
    1.2610   -1.2040   -0.3930 F   0  0  0  0  0  0  0  0  0  0  0  0
  1  2  1  0
  3  2  1  6
  3  4  1  0
  3 11  1  0
  4  5  1  0
  5  6  1  1
  5  7  1  0
  7  8  1  0
  8  9  1  0
  8 10  2  0
 11 12  2  0
 11 24  1  0
 12 13  1  0
 13 14  2  0
 14 15  1  0
 14 16  1  0
 16 17  1  0
 16 24  2  0
 17 18  1  0
 18 19  2  0
 18 23  1  0
 19 20  1  0
 20 21  2  0
 21 22  1  0
 22 23  2  0
 24 25  1  0
M  CHG  1   4   1
M  END
