
     RDKit          3D

 21 22  0  0  0  0  0  0  0  0999 V2000
   -4.5970   -1.1610   -1.5770 N   0  0  0  0  0  0  0  0  0  0  0  0
   -3.3700   -0.7690   -0.9530 C   0  0  0  0  0  0  0  0  0  0  0  0
   -3.4330   -0.1260    0.3590 C   0  0  0  0  0  0  0  0  0  0  0  0
   -4.5670    0.0940    0.9950 C   0  0  0  0  0  0  0  0  0  0  0  0
   -6.1470   -0.3690    0.3200 Cl  0  0  0  0  0  0  0  0  0  0  0  0
   -4.5270    0.7090    2.2330 O   0  0  0  0  0  0  0  0  0  0  0  0
   -3.3910    1.1390    2.9200 C   0  0  0  0  0  0  0  0  0  0  0  0
   -2.1520    0.8600    2.1450 C   0  0  0  0  0  0  0  0  0  0  0  0
   -2.1380    0.2760    0.9570 C   0  0  0  0  0  0  0  0  0  0  0  0
   -0.8950    0.0370    0.2520 C   0  0  0  0  0  0  0  0  0  0  0  0
   -0.8470   -0.5140   -0.8830 O   0  0  0  0  0  0  0  0  0  0  0  0
    0.3830    0.4170    0.8010 N   0  0  0  0  0  0  0  0  0  0  0  0
    1.5860    0.1550    0.0560 C   0  0  0  0  0  0  0  0  0  0  0  0
    1.5160   -0.4000   -1.0660 O   0  0  0  0  0  0  0  0  0  0  0  0
    2.8900    0.5560    0.6450 C   0  0  0  0  0  0  0  0  0  0  0  0
    4.0160    0.2100   -0.2590 C   0  0  0  0  0  0  0  0  0  0  0  0
    4.8720    1.0690   -0.7770 C   0  0  0  0  0  0  0  0  0  0  0  0
    5.8310    0.3280   -1.6150 C   0  0  0  0  0  0  0  0  0  0  0  0
    5.4230   -1.0730   -1.5160 C   0  0  0  0  0  0  0  0  0  0  0  0
    4.3720   -1.1160   -0.7270 C   0  0  0  0  0  0  0  0  0  0  0  0
    3.5600   -2.6450   -0.3430 Cl  0  0  0  0  0  0  0  0  0  0  0  0
  1  2  1  0
  2  3  1  0
  3  4  2  0
  3  9  1  0
  4  5  1  0
  4  6  1  0
  6  7  1  0
  7  8  1  0
  8  9  2  0
  9 10  1  0
 10 11  2  0
 10 12  1  0
 12 13  1  0
 13 14  2  0
 13 15  1  0
 15 16  1  0
 16 17  2  0
 16 20  1  0
 17 18  1  0
 18 19  1  0
 19 20  2  0
 20 21  1  0
M  CHG  1   1   1
M  END
