
     RDKit          3D

 27 29  0  0  0  0  0  0  0  0999 V2000
    0.9410   -2.6950   -0.7300 C   0  0  0  0  0  0  0  0  0  0  0  0
    0.5850   -1.2200   -0.4870 C   0  0  2  0  0  0  0  0  0  0  0  0
   -0.6530   -0.9210   -1.0530 O   0  0  0  0  0  0  0  0  0  0  0  0
   -1.8220   -0.6690   -0.3640 C   0  0  0  0  0  0  0  0  0  0  0  0
   -1.9830   -0.6930    0.9930 C   0  0  0  0  0  0  0  0  0  0  0  0
   -3.1930   -0.4290    1.6310 C   0  0  0  0  0  0  0  0  0  0  0  0
   -4.3020   -0.1250    0.8830 C   0  0  0  0  0  0  0  0  0  0  0  0
   -4.1430   -0.0980   -0.4930 C   0  0  0  0  0  0  0  0  0  0  0  0
   -2.9640   -0.3550   -1.1250 C   0  0  0  0  0  0  0  0  0  0  0  0
   -5.1500    0.2010   -1.5630 C   0  0  0  0  0  0  0  0  0  0  0  0
   -6.2100    1.0400   -1.1320 N   0  0  0  0  0  0  0  0  0  0  0  0
   -5.8010    2.3630   -0.7720 C   0  0  0  0  0  0  0  0  0  0  0  0
   -7.2030    0.4660   -0.3170 C   0  0  0  0  0  0  0  0  0  0  0  0
   -6.9250   -0.8930    0.2160 C   0  0  0  0  0  0  0  0  0  0  0  0
   -6.4170   -0.9150    1.5760 N   0  0  0  0  0  0  0  0  0  0  0  0
   -5.4230    0.0930    1.8330 C   0  0  0  0  0  0  0  0  0  0  0  0
    1.6300   -0.3920   -1.1290 C   0  0  0  0  0  0  0  0  0  0  0  0
    1.3080    0.3980   -2.0390 O   0  0  0  0  0  0  0  0  0  0  0  0
    2.9950   -0.4590   -0.7530 N   0  0  0  0  0  0  0  0  0  0  0  0
    3.9410    0.3590   -1.4130 C   0  0  0  0  0  0  0  0  0  0  0  0
    5.3610    0.2610   -0.9680 C   0  0  1  0  0  0  0  0  0  0  0  0
    6.1370    1.2470   -1.8790 C   0  0  0  0  0  0  0  0  0  0  0  0
    5.6370    0.7020    0.3590 N   0  0  1  0  0  0  0  0  0  0  0  0
    5.1060   -0.0790    1.4320 C   0  0  0  0  0  0  0  0  0  0  0  0
    6.0080    0.2680    2.6410 C   0  0  0  0  0  0  0  0  0  0  0  0
    7.3220    0.7030    2.0250 C   0  0  0  0  0  0  0  0  0  0  0  0
    7.0930    0.5210    0.5590 C   0  0  0  0  0  0  0  0  0  0  0  0
  2  1  1  6
  2  3  1  0
  2 17  1  0
  3  4  1  0
  4  5  2  0
  4  9  1  0
  5  6  1  0
  6  7  2  0
  7  8  1  0
  7 16  1  0
  8  9  2  0
  8 10  1  0
 10 11  1  0
 11 12  1  0
 11 13  1  0
 13 14  1  0
 14 15  1  0
 15 16  1  0
 17 18  2  0
 17 19  1  0
 19 20  1  0
 20 21  1  0
 21 22  1  6
 21 23  1  0
 23 24  1  1
 23 27  1  0
 24 25  1  0
 25 26  1  0
 26 27  1  0
M  CHG  2  15   1  23   1
M  END
