
     RDKit          3D

 21 21  0  0  0  0  0  0  0  0999 V2000
   -2.9180    2.6460    1.7890 C   0  0  0  0  0  0  0  0  0  0  0  0
   -2.9190    1.8950    0.6650 C   0  0  0  0  0  0  0  0  0  0  0  0
   -4.0610    1.9120   -0.0480 O   0  0  0  0  0  0  0  0  0  0  0  0
   -5.3450    1.8570    0.4940 C   0  0  0  0  0  0  0  0  0  0  0  0
   -1.6920    1.1680    0.3730 C   0  0  0  0  0  0  0  0  0  0  0  0
   -0.3830    1.3870    1.5490 Cl  0  0  0  0  0  0  0  0  0  0  0  0
   -1.5500    0.4050   -0.6780 C   0  0  0  0  0  0  0  0  0  0  0  0
   -2.6470    0.2570   -1.6120 N   0  0  0  0  0  0  0  0  0  0  0  0
   -2.5790   -0.5530   -2.7770 C   0  0  0  0  0  0  0  0  0  0  0  0
   -3.3320   -0.4360   -3.7490 O   0  0  0  0  0  0  0  0  0  0  0  0
   -1.5220   -1.6060   -2.8080 C   0  0  0  0  0  0  0  0  0  0  0  0
   -0.3650   -1.1210   -2.1910 O   0  0  0  0  0  0  0  0  0  0  0  0
   -0.3570   -0.3400   -1.0180 C   0  0  0  0  0  0  0  0  0  0  0  0
    0.7580   -0.3350   -0.2860 C   0  0  0  0  0  0  0  0  0  0  0  0
    1.8810   -1.1400   -0.7620 C   0  0  0  0  0  0  0  0  0  0  0  0
    1.6730   -2.0640   -2.2780 Cl  0  0  0  0  0  0  0  0  0  0  0  0
    3.0030   -1.2270   -0.1630 C   0  0  0  0  0  0  0  0  0  0  0  0
    3.5540   -0.6570    1.0470 C   0  0  0  0  0  0  0  0  0  0  0  0
    2.8600    0.2680    1.9800 C   0  0  0  0  0  0  0  0  0  0  0  0
    4.8180   -1.0030    1.3510 C   0  0  0  0  0  0  0  0  0  0  0  0
    5.5340   -1.8670    0.5240 N   0  0  0  0  0  0  0  0  0  0  0  0
  1  2  2  0
  2  3  1  0
  2  5  1  0
  3  4  1  0
  5  6  1  0
  5  7  2  3
  7  8  1  0
  7 13  1  0
  8  9  1  0
  9 10  2  0
  9 11  1  0
 11 12  1  0
 12 13  1  0
 13 14  2  3
 14 15  1  0
 15 16  1  0
 15 17  2  3
 17 18  1  0
 18 19  1  0
 18 20  2  3
 20 21  1  0
M  CHG  1  21   1
M  END
