
     RDKit          3D

 21 22  0  0  0  0  0  0  0  0999 V2000
   -4.4800    0.0800    1.5480 C   0  0  0  0  0  0  0  0  0  0  0  0
   -3.7350   -0.0110    0.2330 C   0  0  2  0  0  0  0  0  0  0  0  0
   -3.7910   -1.3460   -0.2870 N   0  0  0  0  0  0  0  0  0  0  0  0
   -2.3270    0.4140    0.3660 C   0  0  0  0  0  0  0  0  0  0  0  0
   -1.7910    0.7990    1.5280 N   0  0  0  0  0  0  0  0  0  0  0  0
   -0.5050    1.1820    1.6270 C   0  0  0  0  0  0  0  0  0  0  0  0
   -0.0110    1.5440    2.7360 O   0  0  0  0  0  0  0  0  0  0  0  0
    0.2980    1.1800    0.4890 C   0  0  0  0  0  0  0  0  0  0  0  0
   -0.1850    0.7960   -0.7430 C   0  0  0  0  0  0  0  0  0  0  0  0
    0.6120    0.8050   -1.9930 C   0  0  0  0  0  0  0  0  0  0  0  0
    1.9330    1.1540   -1.8030 O   0  0  0  0  0  0  0  0  0  0  0  0
    2.8830    0.4660   -1.0740 C   0  0  0  0  0  0  0  0  0  0  0  0
    2.6470   -0.7230   -0.4190 C   0  0  0  0  0  0  0  0  0  0  0  0
    3.6040   -1.4030    0.3030 C   0  0  0  0  0  0  0  0  0  0  0  0
    3.2960   -2.6030    0.9420 O   0  0  0  0  0  0  0  0  0  0  0  0
    4.8680   -0.8550    0.3680 C   0  0  0  0  0  0  0  0  0  0  0  0
    5.1520    0.3290   -0.2690 C   0  0  0  0  0  0  0  0  0  0  0  0
    4.1630    0.9870   -0.9870 C   0  0  0  0  0  0  0  0  0  0  0  0
    4.5030    2.4880   -1.8010 Cl  0  0  0  0  0  0  0  0  0  0  0  0
   -1.5290    0.4150   -0.7520 C   0  0  0  0  0  0  0  0  0  0  0  0
   -2.1860   -0.0830   -2.3150 Cl  0  0  0  0  0  0  0  0  0  0  0  0
  2  1  1  1
  2  3  1  0
  2  4  1  0
  4  5  1  0
  4 20  2  0
  5  6  1  0
  6  7  2  0
  6  8  1  0
  8  9  2  0
  9 10  1  0
  9 20  1  0
 10 11  1  0
 11 12  1  0
 12 13  2  0
 12 18  1  0
 13 14  1  0
 14 15  1  0
 14 16  2  0
 16 17  1  0
 17 18  2  0
 18 19  1  0
 20 21  1  0
M  CHG  1   3   1
M  END
