
     RDKit          3D

 28 29  0  0  0  0  0  0  0  0999 V2000
    9.1190    1.8290    0.6880 C   0  0  0  0  0  0  0  0  0  0  0  0
    8.3800    0.8120    0.2910 C   0  0  0  0  0  0  0  0  0  0  0  0
    6.9280    0.8640    0.3300 C   0  0  0  0  0  0  0  0  0  0  0  0
    6.2600    2.3940    0.9530 Cl  0  0  0  0  0  0  0  0  0  0  0  0
    6.0960   -0.0750   -0.0320 C   0  0  0  0  0  0  0  0  0  0  0  0
    6.4070   -1.3850   -0.5530 C   0  0  0  0  0  0  0  0  0  0  0  0
    7.7140   -1.7270   -0.7190 F   0  0  0  0  0  0  0  0  0  0  0  0
    5.4980   -2.2550   -0.8830 C   0  0  0  0  0  0  0  0  0  0  0  0
    4.0600   -2.1240   -0.8110 C   0  0  0  0  0  0  0  0  0  0  0  0
    3.1630   -3.0640   -1.3330 C   0  0  0  0  0  0  0  0  0  0  0  0
    1.8930   -2.6130   -1.0910 C   0  0  0  0  0  0  0  0  0  0  0  0
    2.0490   -1.4140   -0.4290 C   0  0  0  0  0  0  0  0  0  0  0  0
    0.9850   -0.4890    0.0720 C   0  0  2  0  0  0  0  0  0  0  0  0
    1.6570    0.3250    1.1920 C   0  0  0  0  0  0  0  0  0  0  0  0
   -0.0850   -1.2790    0.5650 N   0  0  0  0  0  0  0  0  0  0  0  0
   -1.3180   -0.6620    0.8580 C   0  0  1  0  0  0  0  0  0  0  0  0
   -1.4300    0.1410    2.0950 C   0  0  0  0  0  0  0  0  0  0  0  0
   -1.8450    1.5000    1.5980 C   0  0  0  0  0  0  0  0  0  0  0  0
   -2.6680    1.1480    0.4350 N   0  0  0  0  0  0  0  0  0  0  0  0
   -3.8980    1.7410    0.1660 C   0  0  0  0  0  0  0  0  0  0  0  0
   -4.3150    2.6510    1.0240 O   0  0  0  0  0  0  0  0  0  0  0  0
   -4.8250    1.5140   -0.9310 C   0  0  1  0  0  0  0  0  0  0  0  0
   -4.4710    0.6570   -1.9930 N   0  0  0  0  0  0  0  0  0  0  0  0
   -6.1380    0.9950   -0.3500 C   0  0  1  0  0  0  0  0  0  0  0  0
   -7.1660    0.7270   -1.3990 C   0  0  0  0  0  0  0  0  0  0  0  0
   -5.9180   -0.2150    0.5080 C   0  0  0  0  0  0  0  0  0  0  0  0
   -1.9390    0.1540   -0.2630 C   0  0  0  0  0  0  0  0  0  0  0  0
    3.3440   -1.1870   -0.2970 O   0  0  0  0  0  0  0  0  0  0  0  0
  1  2  2  0
  2  3  1  0
  3  4  1  0
  3  5  2  3
  5  6  1  0
  6  7  1  0
  6  8  2  3
  8  9  1  0
  9 10  2  0
  9 28  1  0
 10 11  1  0
 11 12  2  0
 12 13  1  0
 12 28  1  0
 13 14  1  1
 13 15  1  0
 16 15  1  6
 16 17  1  0
 16 27  1  0
 17 18  1  0
 18 19  1  0
 19 20  1  0
 19 27  1  0
 20 21  2  0
 20 22  1  0
 22 23  1  6
 22 24  1  0
 24 25  1  6
 24 26  1  0
M  CHG  2  15   1  23   1
M  END
