
     RDKit          3D

 28 29  0  0  0  0  0  0  0  0999 V2000
   -8.1860    0.9040   -0.5290 C   0  0  0  0  0  0  0  0  0  0  0  0
   -7.1310    0.1600    0.2060 C   0  0  0  0  0  0  0  0  0  0  0  0
   -7.4850   -0.7380    1.1510 C   0  0  0  0  0  0  0  0  0  0  0  0
   -6.5180   -1.4780    1.8050 C   0  0  0  0  0  0  0  0  0  0  0  0
   -5.2000   -1.2870    1.4740 N   0  0  0  0  0  0  0  0  0  0  0  0
   -4.8360   -0.4010    0.5420 C   0  0  0  0  0  0  0  0  0  0  0  0
   -3.4180   -0.3180    0.0910 C   0  0  0  0  0  0  0  0  0  0  0  0
   -2.5070    0.4400    0.8170 N   0  0  0  0  0  0  0  0  0  0  0  0
   -1.2020    0.4120    0.1660 C   0  0  0  0  0  0  0  0  0  0  0  0
   -0.2890   -0.7040    0.6090 C   0  0  1  0  0  0  0  0  0  0  0  0
   -0.6740   -2.1030    0.2690 C   0  0  0  0  0  0  0  0  0  0  0  0
    1.1210   -0.3350    0.7100 C   0  0  2  0  0  0  0  0  0  0  0  0
    1.1310    0.8930    1.6630 C   0  0  0  0  0  0  0  0  0  0  0  0
    2.0840   -0.3320   -0.2710 N   0  0  1  0  0  0  0  0  0  0  0  0
    2.0130   -0.3210   -1.6330 C   0  0  0  0  0  0  0  0  0  0  0  0
    1.1380    0.5710   -2.3980 C   0  0  0  0  0  0  0  0  0  0  0  0
    1.2650    1.8970   -2.1850 F   0  0  0  0  0  0  0  0  0  0  0  0
    3.1820    0.4580    0.3120 C   0  0  0  0  0  0  0  0  0  0  0  0
    4.5490    0.1570   -0.0680 C   0  0  0  0  0  0  0  0  0  0  0  0
    5.2270    0.4500   -1.2160 C   0  0  0  0  0  0  0  0  0  0  0  0
    6.5990    0.2730   -1.3800 C   0  0  0  0  0  0  0  0  0  0  0  0
    7.2780    0.5960   -2.5450 O   0  0  0  0  0  0  0  0  0  0  0  0
    7.3480   -0.2220   -0.3640 C   0  0  0  0  0  0  0  0  0  0  0  0
    8.7130   -0.4280   -0.4240 O   0  0  0  0  0  0  0  0  0  0  0  0
    6.7020   -0.5410    0.8520 C   0  0  0  0  0  0  0  0  0  0  0  0
    5.3690   -0.3550    0.9640 C   0  0  0  0  0  0  0  0  0  0  0  0
    4.6380   -0.8130    2.5170 Cl  0  0  0  0  0  0  0  0  0  0  0  0
   -5.7810    0.3370   -0.1080 C   0  0  0  0  0  0  0  0  0  0  0  0
  1  2  1  0
  2  3  2  0
  2 28  1  0
  3  4  1  0
  4  5  2  0
  5  6  1  0
  6  7  1  0
  6 28  2  0
  7  8  1  0
  8  9  1  0
  9 10  1  0
 10 11  1  6
 10 12  1  0
 12 13  1  6
 12 14  1  0
 14 15  1  6
 14 18  1  0
 15 16  1  0
 16 17  1  0
 18 19  1  0
 19 20  2  0
 19 26  1  0
 20 21  1  0
 21 22  1  0
 21 23  2  0
 23 24  1  0
 23 25  1  0
 25 26  2  0
 26 27  1  0
M  CHG  2   8   1  14   1
M  END
