
     RDKit          3D

 28 29  0  0  0  0  0  0  0  0999 V2000
   -4.0390   -0.4340   -0.0700 C   0  0  0  0  0  0  0  0  0  0  0  0
   -2.5600   -0.4430   -0.4120 C   0  0  1  0  0  0  0  0  0  0  0  0
   -2.3070    0.6950   -1.3440 C   0  0  0  0  0  0  0  0  0  0  0  0
   -2.6340    2.0270   -0.8080 C   0  0  0  0  0  0  0  0  0  0  0  0
   -3.8950    2.5710   -0.9380 C   0  0  0  0  0  0  0  0  0  0  0  0
   -4.2150    3.8200   -0.4460 C   0  0  0  0  0  0  0  0  0  0  0  0
   -3.2540    4.5170    0.1800 N   0  0  0  0  0  0  0  0  0  0  0  0
   -2.0080    4.0390    0.3360 C   0  0  0  0  0  0  0  0  0  0  0  0
   -1.6840    2.7850   -0.1580 C   0  0  0  0  0  0  0  0  0  0  0  0
   -1.7340   -0.4790    0.7560 N   0  0  0  0  0  0  0  0  0  0  0  0
   -0.4330   -1.0320    0.5460 C   0  0  0  0  0  0  0  0  0  0  0  0
   -0.3660   -2.5020    0.5520 C   0  0  0  0  0  0  0  0  0  0  0  0
   -1.4870   -3.2790    0.7540 C   0  0  0  0  0  0  0  0  0  0  0  0
   -1.3970   -4.6620    0.7590 C   0  0  0  0  0  0  0  0  0  0  0  0
   -2.5200   -5.3860    0.9610 F   0  0  0  0  0  0  0  0  0  0  0  0
   -0.1590   -5.2260    0.5560 C   0  0  0  0  0  0  0  0  0  0  0  0
    0.9810   -4.4390    0.3500 C   0  0  0  0  0  0  0  0  0  0  0  0
    0.9070   -3.0700    0.3430 C   0  0  0  0  0  0  0  0  0  0  0  0
    2.0140   -2.2080    0.1370 N   0  0  0  0  0  0  0  0  0  0  0  0
    3.3590   -2.5190   -0.0770 C   0  0  0  0  0  0  0  0  0  0  0  0
    3.5810   -3.8170   -0.0790 O   0  0  0  0  0  0  0  0  0  0  0  0
    4.5160   -1.7220   -0.2900 C   0  0  0  0  0  0  0  0  0  0  0  0
    4.9190   -0.5360   -0.3880 C   0  0  0  0  0  0  0  0  0  0  0  0
    4.3870    0.7710   -0.3350 C   0  0  0  0  0  0  0  0  0  0  0  0
    2.7360    1.1860   -0.0730 Cl  0  0  0  0  0  0  0  0  0  0  0  0
    5.2500    1.8140   -0.5060 C   0  0  0  0  0  0  0  0  0  0  0  0
    4.8100    3.2170   -0.4710 C   0  0  0  0  0  0  0  0  0  0  0  0
    3.4560    3.3710   -0.2510 O   0  0  0  0  0  0  0  0  0  0  0  0
  2  1  1  1
  2  3  1  0
  2 10  1  0
  3  4  1  0
  4  5  2  0
  4  9  1  0
  5  6  1  0
  6  7  2  0
  7  8  1  0
  8  9  2  0
 10 11  1  0
 11 12  1  0
 12 13  2  0
 12 18  1  0
 13 14  1  0
 14 15  1  0
 14 16  2  0
 16 17  1  0
 17 18  2  0
 18 19  1  0
 19 20  1  0
 20 21  2  0
 20 22  1  0
 22 23  2  3
 23 24  1  0
 24 25  1  0
 24 26  2  3
 26 27  1  0
 27 28  1  0
M  CHG  2   7   1  10   1
M  END
