
     RDKit          3D

 28 29  0  0  0  0  0  0  0  0999 V2000
    7.5310    1.4260   -0.2970 C   0  0  0  0  0  0  0  0  0  0  0  0
    6.3210    0.8640   -0.8850 C   0  0  0  0  0  0  0  0  0  0  0  0
    5.3810    0.2690   -0.2430 C   0  0  0  0  0  0  0  0  0  0  0  0
    5.3200    0.0310    1.1970 C   0  0  0  0  0  0  0  0  0  0  0  0
    6.6930    0.6060    2.1440 Cl  0  0  0  0  0  0  0  0  0  0  0  0
    4.3080   -0.1980   -1.0010 O   0  0  0  0  0  0  0  0  0  0  0  0
    3.3850   -1.1640   -0.6860 C   0  0  1  0  0  0  0  0  0  0  0  0
    2.5100   -0.9290    0.5020 C   0  0  0  0  0  0  0  0  0  0  0  0
    1.2190   -1.7300    0.2710 C   0  0  0  0  0  0  0  0  0  0  0  0
    0.3950   -1.0300   -0.7600 C   0  0  1  0  0  0  0  0  0  0  0  0
   -0.3030    0.0570   -0.1510 N   0  0  0  0  0  0  0  0  0  0  0  0
   -1.6990    0.0130   -0.5060 C   0  0  2  0  0  0  0  0  0  0  0  0
   -2.2750    1.3340   -0.1770 C   0  0  0  0  0  0  0  0  0  0  0  0
   -3.1300    1.9480   -1.0670 C   0  0  0  0  0  0  0  0  0  0  0  0
   -3.6790    3.1660   -0.8020 C   0  0  0  0  0  0  0  0  0  0  0  0
   -3.3700    3.7990    0.3820 C   0  0  0  0  0  0  0  0  0  0  0  0
   -3.9340    5.0020    0.6040 F   0  0  0  0  0  0  0  0  0  0  0  0
   -2.5200    3.2100    1.2850 C   0  0  0  0  0  0  0  0  0  0  0  0
   -1.9800    1.9850    1.0000 C   0  0  0  0  0  0  0  0  0  0  0  0
   -2.4540   -1.1120    0.1500 C   0  0  1  0  0  0  0  0  0  0  0  0
   -2.4600   -1.0860    1.5770 N   0  0  0  0  0  0  0  0  0  0  0  0
   -3.8320   -1.0880   -0.4270 C   0  0  0  0  0  0  0  0  0  0  0  0
   -4.9020   -1.2470    0.3050 C   0  0  0  0  0  0  0  0  0  0  0  0
   -6.2130   -1.2120   -0.3260 C   0  0  0  0  0  0  0  0  0  0  0  0
   -7.2600   -1.3680    0.3890 N   0  0  0  0  0  0  0  0  0  0  0  0
   -8.4950   -1.3410   -0.1660 O   0  0  0  0  0  0  0  0  0  0  0  0
    1.2680   -0.5500   -1.9020 C   0  0  0  0  0  0  0  0  0  0  0  0
    2.4960   -1.4330   -1.8920 C   0  0  0  0  0  0  0  0  0  0  0  0
  1  2  1  0
  2  3  2  3
  3  4  1  0
  3  6  1  0
  4  5  1  0
  7  6  1  6
  7  8  1  0
  7 28  1  0
  8  9  1  0
  9 10  1  0
 10 11  1  1
 10 27  1  0
 12 11  1  1
 12 13  1  0
 12 20  1  0
 13 14  2  0
 13 19  1  0
 14 15  1  0
 15 16  2  0
 16 17  1  0
 16 18  1  0
 18 19  2  0
 20 21  1  1
 20 22  1  0
 22 23  2  3
 23 24  1  0
 24 25  2  3
 25 26  1  0
 27 28  1  0
M  CHG  2  11   1  21   1
M  END
