
     RDKit          3D

 28 29  0  0  0  0  0  0  0  0999 V2000
   -4.6800    2.2300   -2.8780 C   0  0  0  0  0  0  0  0  0  0  0  0
   -4.9850    0.8000   -2.6200 C   0  0  0  0  0  0  0  0  0  0  0  0
   -5.5640   -0.1890   -3.9450 Cl  0  0  0  0  0  0  0  0  0  0  0  0
   -4.8290    0.2560   -1.4030 C   0  0  0  0  0  0  0  0  0  0  0  0
   -5.1440   -1.1370   -1.2230 C   0  0  0  0  0  0  0  0  0  0  0  0
   -5.1240   -1.8970   -0.2810 N   0  0  0  0  0  0  0  0  0  0  0  0
   -4.8910   -2.1660    1.0460 C   0  0  0  0  0  0  0  0  0  0  0  0
   -5.4390   -1.2200    2.0180 N   0  0  0  0  0  0  0  0  0  0  0  0
   -4.3630    1.1380   -0.3460 C   0  0  0  0  0  0  0  0  0  0  0  0
   -2.9900    0.8060    0.1560 C   0  0  0  0  0  0  0  0  0  0  0  0
   -2.0400    0.8880   -0.8880 O   0  0  0  0  0  0  0  0  0  0  0  0
   -0.8100    0.5710   -0.3510 C   0  0  1  0  0  0  0  0  0  0  0  0
   -0.2380   -0.6220   -1.0460 C   0  0  0  0  0  0  0  0  0  0  0  0
    1.2410   -0.6210   -1.2030 C   0  0  0  0  0  0  0  0  0  0  0  0
    1.9840    0.0730   -0.0910 C   0  0  2  0  0  0  0  0  0  0  0  0
    2.1350   -0.7380    1.0710 N   0  0  0  0  0  0  0  0  0  0  0  0
    3.4560   -1.3090    1.2220 C   0  0  1  0  0  0  0  0  0  0  0  0
    3.6120   -2.6060    0.4770 C   0  0  0  0  0  0  0  0  0  0  0  0
    4.5320   -0.3490    0.8930 C   0  0  0  0  0  0  0  0  0  0  0  0
    4.5480    0.9590    1.3320 C   0  0  0  0  0  0  0  0  0  0  0  0
    5.5810    1.8260    0.9970 C   0  0  0  0  0  0  0  0  0  0  0  0
    6.6260    1.3990    0.2120 C   0  0  0  0  0  0  0  0  0  0  0  0
    7.6270    2.2250   -0.1180 F   0  0  0  0  0  0  0  0  0  0  0  0
    6.6270    0.1060   -0.2320 C   0  0  0  0  0  0  0  0  0  0  0  0
    7.6700   -0.3630   -1.0300 O   0  0  0  0  0  0  0  0  0  0  0  0
    5.6010   -0.7330    0.1080 C   0  0  0  0  0  0  0  0  0  0  0  0
    1.3860    1.4150    0.2540 C   0  0  0  0  0  0  0  0  0  0  0  0
    0.1630    1.7240   -0.5750 C   0  0  0  0  0  0  0  0  0  0  0  0
  1  2  1  0
  2  3  1  0
  2  4  2  3
  4  5  1  0
  4  9  1  0
  5  6  2  3
  6  7  1  0
  7  8  1  0
  9 10  1  0
 10 11  1  0
 12 11  1  6
 12 13  1  0
 12 28  1  0
 13 14  1  0
 14 15  1  0
 15 16  1  1
 15 27  1  0
 16 17  1  0
 17 18  1  6
 17 19  1  0
 19 20  2  0
 19 26  1  0
 20 21  1  0
 21 22  2  0
 22 23  1  0
 22 24  1  0
 24 25  1  0
 24 26  2  0
 27 28  1  0
M  CHG  2   8   1  16   1
M  END
