
     RDKit          3D

 17 18  0  0  0  0  0  0  0  0999 V2000
    3.0350   -1.5450   -0.7270 N   0  0  0  0  0  0  0  0  0  0  0  0
    3.4270   -0.4080    0.0650 C   0  0  0  0  0  0  0  0  0  0  0  0
    2.2460    0.4040    0.4270 C   0  0  0  0  0  0  0  0  0  0  0  0
    2.3910    1.6010    1.1260 C   0  0  0  0  0  0  0  0  0  0  0  0
    1.3130    2.3840    1.4820 C   0  0  0  0  0  0  0  0  0  0  0  0
    1.4730    3.5450    2.1610 F   0  0  0  0  0  0  0  0  0  0  0  0
    0.0680    1.9120    1.1050 C   0  0  0  0  0  0  0  0  0  0  0  0
   -0.0970    0.7350    0.4170 C   0  0  0  0  0  0  0  0  0  0  0  0
   -1.4190    0.2530    0.0300 C   0  0  0  0  0  0  0  0  0  0  0  0
   -2.3810    1.2090   -0.2580 C   0  0  0  0  0  0  0  0  0  0  0  0
   -3.6380    0.7940   -0.6230 C   0  0  0  0  0  0  0  0  0  0  0  0
   -4.0000   -0.5310   -0.7210 C   0  0  0  0  0  0  0  0  0  0  0  0
   -3.0090   -1.4540   -0.4260 C   0  0  0  0  0  0  0  0  0  0  0  0
   -3.3380   -2.8200   -0.5140 O   0  0  0  0  0  0  0  0  0  0  0  0
   -3.1820   -3.5120   -1.6530 F   0  0  0  0  0  0  0  0  0  0  0  0
   -1.7400   -1.0700   -0.0570 C   0  0  0  0  0  0  0  0  0  0  0  0
    0.9920   -0.0340    0.0690 C   0  0  0  0  0  0  0  0  0  0  0  0
  1  2  1  0
  2  3  1  0
  3  4  2  0
  3 17  1  0
  4  5  1  0
  5  6  1  0
  5  7  2  0
  7  8  1  0
  8  9  1  0
  8 17  2  0
  9 10  2  0
  9 16  1  0
 10 11  1  0
 11 12  2  0
 12 13  1  0
 13 14  1  0
 13 16  2  0
 14 15  1  0
M  CHG  1   1   1
M  END
