
     RDKit          3D

 17 17  0  0  0  0  0  0  0  0999 V2000
   -5.5250    0.9760   -0.6450 C   0  0  0  0  0  0  0  0  0  0  0  0
   -4.2010    0.3490   -0.2680 C   0  0  0  0  0  0  0  0  0  0  0  0
   -3.0950    1.2460   -0.6260 C   0  0  0  0  0  0  0  0  0  0  0  0
   -3.3510    2.3500   -1.1640 O   0  0  0  0  0  0  0  0  0  0  0  0
   -1.6960    0.8850   -0.3710 C   0  0  0  0  0  0  0  0  0  0  0  0
   -1.3970   -0.2630    0.1910 C   0  0  0  0  0  0  0  0  0  0  0  0
   -0.0210   -0.6250    0.4450 C   0  0  0  0  0  0  0  0  0  0  0  0
    0.2200   -1.8110    1.0210 C   0  0  0  0  0  0  0  0  0  0  0  0
    1.5820   -2.2340    1.3040 C   0  0  0  0  0  0  0  0  0  0  0  0
    2.6480   -1.5100    1.0250 C   0  0  0  0  0  0  0  0  0  0  0  0
    4.0410   -1.9580    1.3210 C   0  0  0  0  0  0  0  0  0  0  0  0
    2.4290   -0.2160    0.3990 C   0  0  0  0  0  0  0  0  0  0  0  0
    3.4620    0.5520    0.0970 C   0  0  0  0  0  0  0  0  0  0  0  0
    3.3030    1.8840   -0.5430 C   0  0  1  0  0  0  0  0  0  0  0  0
    2.5250    2.7050    0.2510 F   0  0  0  0  0  0  0  0  0  0  0  0
    4.5260    2.4990   -0.6870 F   0  0  0  0  0  0  0  0  0  0  0  0
    1.0800    0.2100    0.1160 N   0  0  0  0  0  0  0  0  0  0  0  0
  1  2  1  0
  2  3  1  0
  3  4  2  0
  3  5  1  0
  5  6  2  3
  6  7  1  0
  7  8  2  0
  7 17  1  0
  8  9  1  0
  9 10  2  0
 10 11  1  0
 10 12  1  0
 12 13  2  3
 12 17  1  0
 13 14  1  0
 14 15  1  1
 14 16  1  0
M  END
