
     RDKit          3D

 17 18  0  0  0  0  0  0  0  0999 V2000
   -3.5440   -1.5360    0.8610 N   0  0  0  0  0  0  0  0  0  0  0  0
   -3.7090   -0.4200   -0.0650 C   0  0  0  0  0  0  0  0  0  0  0  0
   -2.5470    0.5160    0.0610 C   0  0  0  0  0  0  0  0  0  0  0  0
   -2.7410    1.8570    0.2530 C   0  0  0  0  0  0  0  0  0  0  0  0
   -1.6820    2.7460    0.2030 C   0  0  0  0  0  0  0  0  0  0  0  0
   -0.4140    2.2670   -0.0360 C   0  0  0  0  0  0  0  0  0  0  0  0
    0.5810    3.1950   -0.0550 F   0  0  0  0  0  0  0  0  0  0  0  0
   -0.1380    0.9330   -0.2320 C   0  0  0  0  0  0  0  0  0  0  0  0
    1.0160    0.4390   -0.4620 O   0  0  0  0  0  0  0  0  0  0  0  0
    2.1910   -0.0810   -0.2250 C   0  0  0  0  0  0  0  0  0  0  0  0
    3.3870    0.5810   -0.4050 C   0  0  0  0  0  0  0  0  0  0  0  0
    4.6330    0.0060   -0.1510 C   0  0  0  0  0  0  0  0  0  0  0  0
    4.6550   -1.2860    0.2950 C   0  0  0  0  0  0  0  0  0  0  0  0
    3.4960   -2.0140    0.4980 C   0  0  0  0  0  0  0  0  0  0  0  0
    2.2810   -1.4080    0.2390 C   0  0  0  0  0  0  0  0  0  0  0  0
   -1.2670    0.0720   -0.1740 C   0  0  0  0  0  0  0  0  0  0  0  0
   -1.1110   -1.2540   -0.3400 F   0  0  0  0  0  0  0  0  0  0  0  0
  1  2  1  0
  2  3  1  0
  3  4  2  0
  3 16  1  0
  4  5  1  0
  5  6  2  0
  6  7  1  0
  6  8  1  0
  8  9  1  0
  8 16  2  0
  9 10  1  0
 10 11  2  0
 10 15  1  0
 11 12  1  0
 12 13  2  0
 13 14  1  0
 14 15  2  0
 16 17  1  0
M  CHG  1   1   1
M  END
