
     RDKit          3D

 17 17  0  0  0  0  0  0  0  0999 V2000
   -4.0180    0.9040   -0.5920 C   0  0  0  0  0  0  0  0  0  0  0  0
   -2.8900    1.7210    0.0200 C   0  0  0  0  0  0  0  0  0  0  0  0
   -1.9120    0.7740    0.7070 C   0  0  0  0  0  0  0  0  0  0  0  0
   -1.3490   -0.1690   -0.2180 N   0  0  0  0  0  0  0  0  0  0  0  0
   -0.4200   -1.1380    0.2010 C   0  0  0  0  0  0  0  0  0  0  0  0
    0.8590   -0.8410    0.1760 C   0  0  0  0  0  0  0  0  0  0  0  0
    1.2690    0.4960   -0.2910 C   0  0  0  0  0  0  0  0  0  0  0  0
    2.5350    0.8350   -0.3320 C   0  0  0  0  0  0  0  0  0  0  0  0
    2.9140    2.1500   -0.7920 C   0  0  0  0  0  0  0  0  0  0  0  0
    4.1930    2.4940   -0.8350 C   0  0  0  0  0  0  0  0  0  0  0  0
    5.1540    1.6320   -0.4540 F   0  0  0  0  0  0  0  0  0  0  0  0
    4.5290    3.7320   -1.2700 F   0  0  0  0  0  0  0  0  0  0  0  0
    1.8880   -1.8010    0.5980 C   0  0  0  0  0  0  0  0  0  0  0  0
    1.3360   -3.0820    1.0350 C   0  0  0  0  0  0  0  0  0  0  0  0
    2.1200   -3.9950    1.4230 O   0  0  0  0  0  0  0  0  0  0  0  0
   -0.0800   -3.3510    1.0400 C   0  0  0  0  0  0  0  0  0  0  0  0
   -0.9290   -2.4270    0.6430 C   0  0  0  0  0  0  0  0  0  0  0  0
  1  2  1  0
  2  3  1  0
  3  4  1  0
  4  5  1  0
  5  6  2  0
  5 17  1  0
  6  7  1  0
  6 13  1  0
  7  8  2  3
  8  9  1  0
  9 10  2  3
 10 11  1  0
 10 12  1  0
 13 14  1  0
 14 15  2  0
 14 16  1  0
 16 17  2  0
M  END
