
     RDKit          3D

 17 17  0  0  0  0  0  0  0  0999 V2000
   -5.5280    0.0750   -0.8100 C   0  0  0  0  0  0  0  0  0  0  0  0
   -4.2620   -0.2120   -0.6360 C   0  0  0  0  0  0  0  0  0  0  0  0
   -3.8250   -1.6440   -0.5700 C   0  0  0  0  0  0  0  0  0  0  0  0
   -3.2990    0.8700   -0.5110 C   0  0  0  0  0  0  0  0  0  0  0  0
   -2.0120    0.5540   -0.3340 C   0  0  0  0  0  0  0  0  0  0  0  0
   -1.0400    1.6370   -0.2080 C   0  0  0  0  0  0  0  0  0  0  0  0
    0.2240    1.3730   -0.0340 C   0  0  0  0  0  0  0  0  0  0  0  0
    1.2800    2.3930    0.1040 C   0  0  0  0  0  0  0  0  0  0  0  0
    1.1140    3.6370    0.0750 O   0  0  0  0  0  0  0  0  0  0  0  0
    2.4750    1.6450    0.2710 N   0  0  0  0  0  0  0  0  0  0  0  0
    2.1980    0.2520    0.2400 C   0  0  0  0  0  0  0  0  0  0  0  0
    3.1980   -0.8000    0.3820 C   0  0  0  0  0  0  0  0  0  0  0  0
    4.4780   -0.5460    0.5550 C   0  0  0  0  0  0  0  0  0  0  0  0
    5.4880   -1.6120    0.6980 C   0  0  0  0  0  0  0  0  0  0  0  0
    4.8860   -2.8580    0.6230 F   0  0  0  0  0  0  0  0  0  0  0  0
    0.8860    0.0950    0.0630 C   0  0  0  0  0  0  0  0  0  0  0  0
    0.3370   -1.1550   -0.0060 F   0  0  0  0  0  0  0  0  0  0  0  0
  1  2  2  0
  2  3  1  0
  2  4  1  0
  4  5  2  3
  5  6  1  0
  6  7  2  3
  7  8  1  0
  7 16  1  0
  8  9  2  0
  8 10  1  0
 10 11  1  0
 11 12  1  0
 11 16  2  0
 12 13  2  3
 13 14  1  0
 14 15  1  0
 16 17  1  0
M  END
