
     RDKit          3D

 23 25  0  0  0  0  0  0  0  0999 V2000
    3.6220    1.6540    1.1040 C   0  0  0  0  0  0  0  0  0  0  0  0
    4.1790    0.4720    0.4220 C   0  0  0  0  0  0  0  0  0  0  0  0
    3.2950   -0.5690    0.0080 N   0  0  0  0  0  0  0  0  0  0  0  0
    3.7530   -1.8270   -0.5690 C   0  0  0  0  0  0  0  0  0  0  0  0
    2.5540   -2.6940   -0.6670 C   0  0  0  0  0  0  0  0  0  0  0  0
    1.5330   -2.0450    0.1170 N   0  0  0  0  0  0  0  0  0  0  0  0
    1.8890   -0.6500    0.0380 C   0  0  0  0  0  0  0  0  0  0  0  0
    1.0260    0.3870   -0.0170 C   0  0  0  0  0  0  0  0  0  0  0  0
   -0.3890    0.1360    0.0280 C   0  0  0  0  0  0  0  0  0  0  0  0
   -1.4240    0.8870   -0.0000 C   0  0  0  0  0  0  0  0  0  0  0  0
   -1.4880    2.3180   -0.0990 C   0  0  0  0  0  0  0  0  0  0  0  0
   -0.5250    3.2420   -0.3110 C   0  0  0  0  0  0  0  0  0  0  0  0
   -1.1480    4.5160   -0.3070 C   0  0  0  0  0  0  0  0  0  0  0  0
   -2.4730    4.2640   -0.0890 C   0  0  0  0  0  0  0  0  0  0  0  0
   -2.6490    2.9930    0.0280 O   0  0  0  0  0  0  0  0  0  0  0  0
   -2.7940    0.1750    0.1200 C   0  0  1  0  0  0  0  0  0  0  0  0
   -3.5290    0.4270   -1.1920 C   0  0  0  0  0  0  0  0  0  0  0  0
   -2.6300   -1.2640    0.3660 C   0  0  0  0  0  0  0  0  0  0  0  0
   -2.9700   -2.2730   -0.4110 C   0  0  0  0  0  0  0  0  0  0  0  0
   -3.7210   -2.2650   -1.9890 Cl  0  0  0  0  0  0  0  0  0  0  0  0
   -2.6290   -3.5300    0.2900 C   0  0  0  0  0  0  0  0  0  0  0  0
   -2.0770   -3.1170    1.5360 N   0  0  0  0  0  0  0  0  0  0  0  0
   -2.0710   -1.8360    1.5890 C   0  0  0  0  0  0  0  0  0  0  0  0
  1  2  1  0
  2  3  1  0
  3  4  1  0
  3  7  1  0
  4  5  1  0
  5  6  1  0
  6  7  1  0
  7  8  2  3
  8  9  1  0
  9 10  2  3
 10 11  1  0
 10 16  1  0
 11 12  2  0
 11 15  1  0
 12 13  1  0
 13 14  2  0
 14 15  1  0
 16 17  1  6
 16 18  1  0
 18 19  2  0
 18 23  1  0
 19 20  1  0
 19 21  1  0
 21 22  1  0
 22 23  2  0
M  END
