
     RDKit          3D

 17 18  0  0  0  0  0  0  0  0999 V2000
    3.4770    1.3590    1.0900 C   0  0  0  0  0  0  0  0  0  0  0  0
    2.0340    1.3450    0.9410 N   0  0  0  0  0  0  0  0  0  0  0  0
    1.6180    0.0020    0.7730 C   0  0  0  0  0  0  0  0  0  0  0  0
    2.4520   -1.0310    1.1460 C   0  0  0  0  0  0  0  0  0  0  0  0
    2.0520   -2.3440    0.9850 C   0  0  0  0  0  0  0  0  0  0  0  0
    0.8270   -2.6800    0.4550 C   0  0  0  0  0  0  0  0  0  0  0  0
   -0.0160   -1.6530    0.0790 C   0  0  0  0  0  0  0  0  0  0  0  0
   -1.2450   -1.9730   -0.4520 C   0  0  0  0  0  0  0  0  0  0  0  0
   -2.0750   -0.9530   -0.8220 C   0  0  0  0  0  0  0  0  0  0  0  0
   -3.4120   -1.2480   -1.4000 C   0  0  0  0  0  0  0  0  0  0  0  0
   -1.7200    0.3960   -0.6810 C   0  0  0  0  0  0  0  0  0  0  0  0
   -2.6120    1.3780   -1.0770 O   0  0  0  0  0  0  0  0  0  0  0  0
   -2.4600    2.7430   -1.0240 C   0  0  2  0  0  0  0  0  0  0  0  0
   -3.4600    3.2780   -0.2230 F   0  0  0  0  0  0  0  0  0  0  0  0
   -2.6300    3.2510   -2.3020 F   0  0  0  0  0  0  0  0  0  0  0  0
   -0.4780    0.6550   -0.1430 C   0  0  0  0  0  0  0  0  0  0  0  0
    0.3960   -0.3490    0.2450 C   0  0  0  0  0  0  0  0  0  0  0  0
  1  2  1  0
  2  3  1  0
  3  4  2  0
  3 17  1  0
  4  5  1  0
  5  6  2  0
  6  7  1  0
  7  8  2  0
  7 17  1  0
  8  9  1  0
  9 10  1  0
  9 11  2  0
 11 12  1  0
 11 16  1  0
 12 13  1  0
 13 14  1  1
 13 15  1  0
 16 17  2  0
M  CHG  1   2   1
M  END
