
     RDKit          3D

 17 18  0  0  0  0  0  0  0  0999 V2000
   -1.8210   -2.6280    0.4950 C   0  0  0  0  0  0  0  0  0  0  0  0
   -1.1460   -1.3230    0.2650 C   0  0  0  0  0  0  0  0  0  0  0  0
    0.2290   -1.2640    0.2050 C   0  0  0  0  0  0  0  0  0  0  0  0
    0.9230   -0.0650   -0.0090 C   0  0  0  0  0  0  0  0  0  0  0  0
    0.1870    1.0880   -0.1630 C   0  0  0  0  0  0  0  0  0  0  0  0
   -1.2100    1.0550   -0.1070 C   0  0  0  0  0  0  0  0  0  0  0  0
   -1.8480   -0.1470    0.1060 C   0  0  0  0  0  0  0  0  0  0  0  0
   -3.3530   -0.1870    0.1670 C   0  0  0  0  0  0  0  0  0  0  0  0
   -3.8680    1.1660   -0.0270 N   0  0  0  0  0  0  0  0  0  0  0  0
    1.1160    2.2370   -0.3780 C   0  0  0  0  0  0  0  0  0  0  0  0
    2.4680    1.6340   -0.3320 C   0  0  0  0  0  0  0  0  0  0  0  0
    3.5600    2.2370   -0.4660 O   0  0  0  0  0  0  0  0  0  0  0  0
    2.3590    0.2050   -0.1030 C   0  0  0  0  0  0  0  0  0  0  0  0
    3.3180   -0.7010    0.0040 C   0  0  0  0  0  0  0  0  0  0  0  0
    4.7540   -0.3680   -0.1010 C   0  0  1  0  0  0  0  0  0  0  0  0
    5.2360    0.1430    1.0880 F   0  0  0  0  0  0  0  0  0  0  0  0
    5.5180   -1.4730   -0.4120 F   0  0  0  0  0  0  0  0  0  0  0  0
  1  2  1  0
  2  3  2  0
  2  7  1  0
  3  4  1  0
  4  5  2  0
  4 13  1  0
  5  6  1  0
  5 10  1  0
  6  7  2  0
  7  8  1  0
  8  9  1  0
 10 11  1  0
 11 12  2  0
 11 13  1  0
 13 14  2  3
 14 15  1  0
 15 16  1  1
 15 17  1  0
M  CHG  1   9   1
M  END
