
     RDKit          3D

 20 20  0  0  0  0  0  0  0  0999 V2000
    5.5830    1.7270    1.4790 C   0  0  0  0  0  0  0  0  0  0  0  0
    5.6490    0.9450    0.1880 C   0  0  0  0  0  0  0  0  0  0  0  0
    4.2890    0.8530   -0.4780 C   0  0  0  0  0  0  0  0  0  0  0  0
    3.3030    0.1780    0.4000 C   0  0  0  0  0  0  0  0  0  0  0  0
    3.6360   -0.2350    1.5380 O   0  0  0  0  0  0  0  0  0  0  0  0
    1.9640   -0.0150   -0.0270 N   0  0  0  0  0  0  0  0  0  0  0  0
    0.9980   -0.6640    0.8060 C   0  0  0  0  0  0  0  0  0  0  0  0
    1.4060   -1.0490    1.9310 O   0  0  0  0  0  0  0  0  0  0  0  0
   -0.4030   -0.8790    0.3880 C   0  0  1  0  0  0  0  0  0  0  0  0
   -0.4510   -1.7270   -0.8710 C   0  0  0  0  0  0  0  0  0  0  0  0
    0.1770   -3.0080   -0.5800 N   0  0  0  0  0  0  0  0  0  0  0  0
   -1.1120   -1.6510    1.4680 C   0  0  0  0  0  0  0  0  0  0  0  0
   -2.2370   -0.8140    2.0880 C   0  0  0  0  0  0  0  0  0  0  0  0
   -3.2200   -0.5330    0.9960 C   0  0  2  0  0  0  0  0  0  0  0  0
   -3.7260   -1.7520    0.5390 O   0  0  0  0  0  0  0  0  0  0  0  0
   -2.5480    0.2540   -0.1100 C   0  0  1  0  0  0  0  0  0  0  0  0
   -3.1930    1.4780   -0.1860 O   0  0  0  0  0  0  0  0  0  0  0  0
   -3.7080    1.6170   -1.4690 C   0  0  0  0  0  0  0  0  0  0  0  0
   -4.4340    2.9290   -1.6520 C   0  0  0  0  0  0  0  0  0  0  0  0
   -1.0740    0.4510    0.1620 C   0  0  0  0  0  0  0  0  0  0  0  0
  1  2  1  0
  2  3  1  0
  3  4  1  0
  4  5  2  0
  4  6  1  0
  6  7  1  0
  7  8  2  0
  7  9  1  0
  9 10  1  6
  9 12  1  0
  9 20  1  0
 10 11  1  0
 12 13  1  0
 13 14  1  0
 14 15  1  6
 14 16  1  0
 16 17  1  1
 16 20  1  0
 17 18  1  0
 18 19  1  0
M  CHG  1  11   1
M  END
