
     RDKit          3D

 20 20  0  0  0  0  0  0  0  0999 V2000
   -4.7980    1.1010   -1.6780 C   0  0  0  0  0  0  0  0  0  0  0  0
   -3.4090    0.5530   -1.8410 C   0  0  0  0  0  0  0  0  0  0  0  0
   -2.6560    0.5810   -0.5250 C   0  0  2  0  0  0  0  0  0  0  0  0
   -2.5250    1.9560    0.0200 C   0  0  0  0  0  0  0  0  0  0  0  0
   -1.3250    0.0280   -0.7480 N   0  0  0  0  0  0  0  0  0  0  0  0
   -0.4450   -0.0410    0.3620 C   0  0  0  0  0  0  0  0  0  0  0  0
   -0.7480    0.3450    1.5120 O   0  0  0  0  0  0  0  0  0  0  0  0
    0.9150   -0.6130    0.1030 C   0  0  1  0  0  0  0  0  0  0  0  0
    1.6670    0.2660   -0.8430 C   0  0  0  0  0  0  0  0  0  0  0  0
    3.1060    0.0940   -0.3460 C   0  0  0  0  0  0  0  0  0  0  0  0
    4.1000    0.7040   -0.8940 C   0  0  0  0  0  0  0  0  0  0  0  0
    5.5020    0.6470   -0.5460 C   0  0  0  0  0  0  0  0  0  0  0  0
    5.9200   -0.1750    0.5400 N   0  0  0  0  0  0  0  0  0  0  0  0
    2.9760   -0.8380    0.7690 C   0  0  2  0  0  0  0  0  0  0  0  0
    3.0110   -2.2830    0.3510 C   0  0  0  0  0  0  0  0  0  0  0  0
    1.6560   -0.6180    1.2630 O   0  0  0  0  0  0  0  0  0  0  0  0
   -3.3520   -0.3590    0.3880 C   0  0  0  0  0  0  0  0  0  0  0  0
   -2.8570   -1.3990    0.8460 O   0  0  0  0  0  0  0  0  0  0  0  0
   -4.6550   -0.0470    0.7560 O   0  0  0  0  0  0  0  0  0  0  0  0
   -5.4110   -0.8630    1.6150 C   0  0  0  0  0  0  0  0  0  0  0  0
  1  2  1  0
  2  3  1  0
  3  4  1  1
  3  5  1  0
  3 17  1  0
  5  6  1  0
  6  7  2  0
  8  6  1  1
  8  9  1  0
  8 16  1  0
  9 10  1  0
 10 11  2  3
 10 14  1  0
 11 12  1  0
 12 13  1  0
 14 15  1  6
 14 16  1  0
 17 18  2  0
 17 19  1  0
 19 20  1  0
M  CHG  1  13   1
M  END
