
     RDKit          3D

 20 21  0  0  0  0  0  0  0  0999 V2000
    5.8870    0.3490    0.5170 C   0  0  0  0  0  0  0  0  0  0  0  0
    4.3880    0.5410    0.6860 C   0  0  0  0  0  0  0  0  0  0  0  0
    3.7580   -0.6070    1.0800 O   0  0  0  0  0  0  0  0  0  0  0  0
    2.4010   -0.4870    1.2760 C   0  0  0  0  0  0  0  0  0  0  0  0
    1.6920   -0.0760    0.0430 C   0  0  1  0  0  0  0  0  0  0  0  0
    1.9290   -1.0560   -0.9920 N   0  0  0  0  0  0  0  0  0  0  0  0
    0.2110    0.1740    0.2550 C   0  0  1  0  0  0  0  0  0  0  0  0
    0.0690    1.1570    1.3920 C   0  0  0  0  0  0  0  0  0  0  0  0
   -0.2840    0.6340   -0.9480 O   0  0  0  0  0  0  0  0  0  0  0  0
   -1.5460    1.1980   -0.8480 C   0  0  1  0  0  0  0  0  0  0  0  0
   -2.1290    1.4510   -2.2230 C   0  0  0  0  0  0  0  0  0  0  0  0
   -3.6120    1.5800   -1.8340 C   0  0  0  0  0  0  0  0  0  0  0  0
   -3.7070    0.4110   -0.8900 C   0  0  0  0  0  0  0  0  0  0  0  0
   -2.5380    0.1930   -0.3310 C   0  0  0  0  0  0  0  0  0  0  0  0
   -2.0010   -0.7610    0.6290 C   0  0  0  0  0  0  0  0  0  0  0  0
   -2.8240   -1.3490    1.4810 C   0  0  0  0  0  0  0  0  0  0  0  0
   -4.2130   -1.0990    1.5120 N   0  0  0  0  0  0  0  0  0  0  0  0
   -5.1340   -2.0820    1.2530 O   0  0  0  0  0  0  0  0  0  0  0  0
   -0.5270   -1.0780    0.6540 C   0  0  1  0  0  0  0  0  0  0  0  0
   -0.2760   -2.1510   -0.1570 O   0  0  0  0  0  0  0  0  0  0  0  0
  1  2  1  0
  2  3  1  0
  3  4  1  0
  4  5  1  0
  5  6  1  6
  5  7  1  0
  7  8  1  1
  7  9  1  0
  7 19  1  0
  9 10  1  0
 10 11  1  6
 10 14  1  0
 11 12  1  0
 12 13  1  0
 13 14  2  0
 14 15  1  0
 15 16  2  3
 15 19  1  0
 16 17  1  0
 17 18  1  0
 19 20  1  6
M  CHG  1   6   1
M  END
