
     RDKit          3D

 20 21  0  0  0  0  0  0  0  0999 V2000
   -1.1580   -3.4350   -0.5450 C   0  0  0  0  0  0  0  0  0  0  0  0
   -1.1020   -2.0530   -0.5770 O   0  0  0  0  0  0  0  0  0  0  0  0
   -0.5370   -1.4940    0.5380 C   0  0  0  0  0  0  0  0  0  0  0  0
   -0.5010   -0.0080    0.4540 C   0  0  2  0  0  0  0  0  0  0  0  0
   -1.8640    0.5690    0.5800 C   0  0  0  0  0  0  0  0  0  0  0  0
   -2.8610    0.1560   -0.4440 C   0  0  0  0  0  0  0  0  0  0  0  0
   -4.1940    0.8460   -0.1720 C   0  0  0  0  0  0  0  0  0  0  0  0
   -4.1000    2.3390   -0.2160 C   0  0  0  0  0  0  0  0  0  0  0  0
   -3.6560    2.7830   -1.4770 O   0  0  0  0  0  0  0  0  0  0  0  0
    0.2140    0.4820   -0.6570 O   0  0  0  0  0  0  0  0  0  0  0  0
    1.5750    0.1420   -0.7730 C   0  0  0  0  0  0  0  0  0  0  0  0
    2.4270    0.6310    0.0940 C   0  0  0  0  0  0  0  0  0  0  0  0
    2.8000    1.4670    1.2860 C   0  0  1  0  0  0  0  0  0  0  0  0
    2.5940    0.7670    2.5010 N   0  0  0  0  0  0  0  0  0  0  0  0
    4.2430    1.3540    0.7150 C   0  0  0  0  0  0  0  0  0  0  0  0
    3.8130    0.0130    0.1680 C   0  0  2  0  0  0  0  0  0  0  0  0
    4.1890   -0.4360   -1.0450 O   0  0  0  0  0  0  0  0  0  0  0  0
    3.2790   -0.9880   -1.9610 C   0  0  0  0  0  0  0  0  0  0  0  0
    1.9850   -0.7270   -1.8690 C   0  0  0  0  0  0  0  0  0  0  0  0
    1.0090   -1.2420   -2.7660 N   0  0  0  0  0  0  0  0  0  0  0  0
  1  2  1  0
  2  3  1  0
  4  3  1  6
  4  5  1  0
  4 10  1  0
  5  6  1  0
  6  7  1  0
  7  8  1  0
  8  9  1  0
 10 11  1  0
 11 12  2  0
 11 19  1  0
 12 13  1  0
 12 16  1  0
 13 14  1  1
 13 15  1  0
 16 15  1  6
 16 17  1  0
 17 18  1  0
 18 19  2  0
 19 20  1  0
M  CHG  1  14   1
M  END
