
     RDKit          3D

 20 20  0  0  0  0  0  0  0  0999 V2000
    5.9150   -0.3820    0.9930 C   0  0  0  0  0  0  0  0  0  0  0  0
    5.2260    0.9040    0.6450 C   0  0  2  0  0  0  0  0  0  0  0  0
    3.7740    0.7940    1.0640 C   0  0  0  0  0  0  0  0  0  0  0  0
    2.9630    0.2250    0.0030 N   0  0  0  0  0  0  0  0  0  0  0  0
    1.5910    0.1730    0.5090 C   0  0  0  0  0  0  0  0  0  0  0  0
    0.6610   -0.4130   -0.5310 C   0  0  0  0  0  0  0  0  0  0  0  0
   -0.7320   -0.4260    0.0850 C   0  0  2  0  0  0  0  0  0  0  0  0
   -0.6450   -1.2190    1.2210 O   0  0  0  0  0  0  0  0  0  0  0  0
   -1.7460   -1.0090   -0.8470 C   0  0  1  0  0  0  0  0  0  0  0  0
   -1.8670   -0.2740   -2.1430 C   0  0  0  0  0  0  0  0  0  0  0  0
   -1.2440   -2.3610   -1.1790 N   0  0  0  0  0  0  0  0  0  0  0  0
   -3.0630   -1.1880   -0.1410 C   0  0  2  0  0  0  0  0  0  0  0  0
   -3.9890   -1.8580   -0.9510 O   0  0  0  0  0  0  0  0  0  0  0  0
   -3.5940    0.1220    0.3440 C   0  0  0  0  0  0  0  0  0  0  0  0
   -4.9310   -0.0350    1.0540 C   0  0  0  0  0  0  0  0  0  0  0  0
   -5.3640    1.3510    1.4970 C   0  0  0  0  0  0  0  0  0  0  0  0
   -5.5050    2.2090    0.4090 O   0  0  0  0  0  0  0  0  0  0  0  0
    3.0510    0.9580   -1.2210 C   0  0  0  0  0  0  0  0  0  0  0  0
    4.2690    1.8510   -1.2020 C   0  0  0  0  0  0  0  0  0  0  0  0
    5.3420    1.0940   -0.7340 O   0  0  0  0  0  0  0  0  0  0  0  0
  2  1  1  6
  2  3  1  0
  2 20  1  0
  3  4  1  0
  4  5  1  0
  4 18  1  0
  5  6  1  0
  6  7  1  0
  7  8  1  1
  7  9  1  0
  9 10  1  6
  9 11  1  0
  9 12  1  0
 12 13  1  6
 12 14  1  0
 14 15  1  0
 15 16  1  0
 16 17  1  0
 18 19  1  0
 19 20  1  0
M  CHG  1  11   1
M  END
