
     RDKit          3D

 20 20  0  0  0  0  0  0  0  0999 V2000
   -5.2240   -2.5220   -0.7980 C   0  0  0  0  0  0  0  0  0  0  0  0
   -4.0520   -1.9900   -0.2300 O   0  0  0  0  0  0  0  0  0  0  0  0
   -3.9220   -0.6300   -0.0110 C   0  0  0  0  0  0  0  0  0  0  0  0
   -4.8790    0.1120   -0.3330 O   0  0  0  0  0  0  0  0  0  0  0  0
   -2.7090   -0.0020    0.5860 C   0  0  1  0  0  0  0  0  0  0  0  0
   -1.7480   -1.0360    0.8740 N   0  0  0  0  0  0  0  0  0  0  0  0
   -2.2150    1.0280   -0.3800 C   0  0  0  0  0  0  0  0  0  0  0  0
   -1.0040    1.7670    0.0390 C   0  0  2  0  0  0  0  0  0  0  0  0
   -1.2340    2.5290    1.3600 C   0  0  0  0  0  0  0  0  0  0  0  0
   -0.7250    2.9210   -0.9480 C   0  0  0  0  0  0  0  0  0  0  0  0
    0.2560    0.9800    0.1120 C   0  0  0  0  0  0  0  0  0  0  0  0
    0.6690    0.3890   -1.1760 C   0  0  2  0  0  0  0  0  0  0  0  0
   -0.1860   -0.4980   -1.7720 O   0  0  0  0  0  0  0  0  0  0  0  0
    2.0370   -0.2420   -1.1630 C   0  0  2  0  0  0  0  0  0  0  0  0
    2.0450   -1.6050   -0.5150 C   0  0  0  0  0  0  0  0  0  0  0  0
    3.4970   -2.0030   -0.3530 C   0  0  0  0  0  0  0  0  0  0  0  0
    4.1340   -1.1040    0.7030 C   0  0  2  0  0  0  0  0  0  0  0  0
    4.1170   -1.6760    1.9590 O   0  0  0  0  0  0  0  0  0  0  0  0
    3.3950    0.2330    0.7740 C   0  0  0  0  0  0  0  0  0  0  0  0
    3.0470    0.5820   -0.5770 N   0  0  0  0  0  0  0  0  0  0  0  0
  1  2  1  0
  2  3  1  0
  3  4  2  0
  3  5  1  0
  5  6  1  6
  5  7  1  0
  7  8  1  0
  8  9  1  1
  8 10  1  0
  8 11  1  0
 11 12  1  0
 12 13  1  1
 12 14  1  0
 14 15  1  1
 14 20  1  0
 15 16  1  0
 16 17  1  0
 17 18  1  1
 17 19  1  0
 19 20  1  0
M  CHG  1  20   1
M  END
