
     RDKit          3D

 20 20  0  0  0  0  0  0  0  0999 V2000
    3.7280   -1.8870   -0.4760 C   0  0  0  0  0  0  0  0  0  0  0  0
    2.3560   -1.6310    0.0530 C   0  0  0  0  0  0  0  0  0  0  0  0
    2.0160   -0.2380    0.4430 C   0  0  2  0  0  0  0  0  0  0  0  0
    2.8610    0.3140    1.5330 C   0  0  0  0  0  0  0  0  0  0  0  0
    4.3170    0.4330    1.2850 C   0  0  0  0  0  0  0  0  0  0  0  0
    0.6490   -0.2330    0.8460 O   0  0  0  0  0  0  0  0  0  0  0  0
   -0.1340    0.5770    0.0660 C   0  0  2  0  0  0  0  0  0  0  0  0
   -0.6550    1.7070    0.9420 C   0  0  0  0  0  0  0  0  0  0  0  0
   -1.9930    2.2040    0.5530 C   0  0  1  0  0  0  0  0  0  0  0  0
   -2.1620    3.6030    1.0000 C   0  0  0  0  0  0  0  0  0  0  0  0
   -2.3840    4.4880    0.1470 O   0  0  0  0  0  0  0  0  0  0  0  0
   -2.0840    3.9640    2.3270 O   0  0  0  0  0  0  0  0  0  0  0  0
   -2.3630    2.0090   -0.8850 C   0  0  0  0  0  0  0  0  0  0  0  0
   -1.9920    0.7020   -1.4680 C   0  0  2  0  0  0  0  0  0  0  0  0
   -3.1850    0.0570   -2.0200 N   0  0  0  0  0  0  0  0  0  0  0  0
   -1.3510   -0.1520   -0.4150 C   0  0  1  0  0  0  0  0  0  0  0  0
   -1.1330   -1.5070   -0.8360 N   0  0  0  0  0  0  0  0  0  0  0  0
   -1.6680   -2.6380   -0.1880 C   0  0  0  0  0  0  0  0  0  0  0  0
   -1.4330   -4.0220   -0.6330 C   0  0  0  0  0  0  0  0  0  0  0  0
   -2.3930   -2.4140    0.8380 O   0  0  0  0  0  0  0  0  0  0  0  0
  1  2  1  0
  3  2  1  1
  3  4  1  0
  3  6  1  0
  4  5  1  0
  7  6  1  1
  7  8  1  0
  7 16  1  0
  8  9  1  0
  9 10  1  6
  9 13  1  0
 10 11  2  0
 10 12  1  0
 13 14  1  0
 14 15  1  1
 14 16  1  0
 16 17  1  6
 17 18  1  0
 18 19  1  0
 18 20  2  0
M  CHG  1  15   1
M  END
