
     RDKit          3D

 20 20  0  0  0  0  0  0  0  0999 V2000
   -4.6240    0.2800    1.4370 C   0  0  0  0  0  0  0  0  0  0  0  0
   -3.2080    0.5250    1.9380 C   0  0  0  0  0  0  0  0  0  0  0  0
   -2.3740    0.7400    0.8170 O   0  0  0  0  0  0  0  0  0  0  0  0
   -2.1630   -0.1110   -0.2140 C   0  0  0  0  0  0  0  0  0  0  0  0
   -2.7710   -1.2120   -0.1790 O   0  0  0  0  0  0  0  0  0  0  0  0
   -1.2640    0.1370   -1.4170 C   0  0  2  0  0  0  0  0  0  0  0  0
   -1.5990    1.4610   -2.0270 C   0  0  0  0  0  0  0  0  0  0  0  0
   -1.7550   -0.8720   -2.3400 N   0  0  0  0  0  0  0  0  0  0  0  0
   -0.7380   -1.7670   -2.6000 C   0  0  0  0  0  0  0  0  0  0  0  0
   -0.7780   -2.8240   -3.3460 O   0  0  0  0  0  0  0  0  0  0  0  0
    0.4120   -1.2970   -1.8660 C   0  0  0  0  0  0  0  0  0  0  0  0
    1.6180   -1.9840   -1.9340 O   0  0  0  0  0  0  0  0  0  0  0  0
    0.1210   -0.1690   -1.1700 C   0  0  0  0  0  0  0  0  0  0  0  0
    1.1820    0.4220   -0.3470 C   0  0  1  0  0  0  0  0  0  0  0  0
    0.8160    1.2970    0.7590 C   0  0  0  0  0  0  0  0  0  0  0  0
    0.1790    2.5530    0.4270 N   0  0  0  0  0  0  0  0  0  0  0  0
    2.4200   -0.3610   -0.1270 C   0  0  1  0  0  0  0  0  0  0  0  0
    3.3750    0.5430    0.6930 C   0  0  0  0  0  0  0  0  0  0  0  0
    2.2130   -1.5440    0.8050 C   0  0  0  0  0  0  0  0  0  0  0  0
    3.5140   -2.2940    0.9460 C   0  0  0  0  0  0  0  0  0  0  0  0
  1  2  1  0
  2  3  1  0
  3  4  1  0
  4  5  2  0
  4  6  1  0
  6  7  1  6
  6  8  1  0
  6 13  1  0
  8  9  1  0
  9 10  2  0
  9 11  1  0
 11 12  1  0
 11 13  2  0
 13 14  1  0
 14 15  1  1
 14 17  1  0
 15 16  1  0
 17 18  1  1
 17 19  1  0
 19 20  1  0
M  CHG  1  16   1
M  END
