
     RDKit          3D

 33 35  0  0  0  0  0  0  0  0999 V2000
   -5.5450    4.2050    2.2350 C   0  0  0  0  0  0  0  0  0  0  0  0
   -5.6780    3.3490    0.9960 C   0  0  0  0  0  0  0  0  0  0  0  0
   -4.4530    2.6620    0.8130 O   0  0  0  0  0  0  0  0  0  0  0  0
   -4.2310    1.7930   -0.2290 C   0  0  0  0  0  0  0  0  0  0  0  0
   -5.1350    1.5880   -1.0610 O   0  0  0  0  0  0  0  0  0  0  0  0
   -2.9390    1.1090   -0.3670 C   0  0  0  0  0  0  0  0  0  0  0  0
   -2.8850    0.2730   -1.4730 O   0  0  0  0  0  0  0  0  0  0  0  0
   -1.6300   -0.3660   -1.5650 C   0  0  2  0  0  0  0  0  0  0  0  0
   -0.9860   -0.0710   -2.8690 C   0  0  0  0  0  0  0  0  0  0  0  0
    0.3700   -0.6190   -3.0920 C   0  0  0  0  0  0  0  0  0  0  0  0
    1.4200   -0.0950   -2.2410 N   0  0  0  0  0  0  0  0  0  0  0  0
    2.0720    1.0100   -2.7120 C   0  0  0  0  0  0  0  0  0  0  0  0
    1.7330    1.5910   -4.0280 C   0  0  0  0  0  0  0  0  0  0  0  0
    3.0820    1.5500   -1.9220 C   0  0  0  0  0  0  0  0  0  0  0  0
    3.4510    1.0280   -0.7040 C   0  0  0  0  0  0  0  0  0  0  0  0
    2.7810   -0.0770   -0.2640 C   0  0  0  0  0  0  0  0  0  0  0  0
    1.7780   -0.6070   -1.0550 C   0  0  0  0  0  0  0  0  0  0  0  0
    1.1800   -1.6360   -0.6160 O   0  0  0  0  0  0  0  0  0  0  0  0
    3.0770   -0.7460    1.0350 C   0  0  1  0  0  0  0  0  0  0  0  0
    3.1120   -2.2570    0.8710 C   0  0  0  0  0  0  0  0  0  0  0  0
    4.3270   -0.2780    1.6870 C   0  0  0  0  0  0  0  0  0  0  0  0
    5.2390    0.5340    0.8300 C   0  0  1  0  0  0  0  0  0  0  0  0
    6.2830    1.1690    1.7410 C   0  0  0  0  0  0  0  0  0  0  0  0
    5.9930   -0.3030   -0.1810 C   0  0  0  0  0  0  0  0  0  0  0  0
    4.5450    1.6480    0.1090 C   0  0  0  0  0  0  0  0  0  0  0  0
   -1.9520   -1.8510   -1.4160 C   0  0  0  0  0  0  0  0  0  0  0  0
   -2.5940   -2.1390   -0.1320 C   0  0  0  0  0  0  0  0  0  0  0  0
   -1.9130   -2.4690    1.0170 C   0  0  0  0  0  0  0  0  0  0  0  0
   -2.5740   -2.7350    2.2180 C   0  0  0  0  0  0  0  0  0  0  0  0
   -3.9470   -2.6770    2.2980 C   0  0  0  0  0  0  0  0  0  0  0  0
   -4.6700   -2.9600    3.5800 C   0  0  0  0  0  0  0  0  0  0  0  0
   -4.6450   -2.3470    1.1560 C   0  0  0  0  0  0  0  0  0  0  0  0
   -3.9900   -2.0850   -0.0280 C   0  0  0  0  0  0  0  0  0  0  0  0
  1  2  1  0
  2  3  1  0
  3  4  1  0
  4  5  2  0
  4  6  1  0
  6  7  1  0
  7  8  1  0
  8  9  1  6
  8 26  1  0
  9 10  1  0
 10 11  1  0
 11 12  1  0
 11 17  1  0
 12 13  1  0
 12 14  2  0
 14 15  1  0
 15 16  2  0
 15 25  1  0
 16 17  1  0
 16 19  1  0
 17 18  2  0
 19 20  1  6
 19 21  1  0
 21 22  1  0
 22 23  1  1
 22 24  1  0
 22 25  1  0
 26 27  1  0
 27 28  2  0
 27 33  1  0
 28 29  1  0
 29 30  2  0
 30 31  1  0
 30 32  1  0
 32 33  2  0
M  END
