
     RDKit          3D

 33 36  0  0  0  0  0  0  0  0999 V2000
    6.5710    1.2810   -2.5210 C   0  0  0  0  0  0  0  0  0  0  0  0
    5.2130    1.3140   -2.0020 N   0  0  1  0  0  0  0  0  0  0  0  0
    4.8710   -0.0260   -1.5880 C   0  0  0  0  0  0  0  0  0  0  0  0
    4.8580   -0.1900   -0.0890 C   0  0  0  0  0  0  0  0  0  0  0  0
    3.8230    0.7450    0.5310 C   0  0  2  0  0  0  0  0  0  0  0  0
    2.4970    0.2430    0.4030 N   0  0  0  0  0  0  0  0  0  0  0  0
    1.6580   -0.1840    1.4690 C   0  0  0  0  0  0  0  0  0  0  0  0
    2.1190   -0.1140    2.6210 O   0  0  0  0  0  0  0  0  0  0  0  0
    0.3060   -0.6870    1.2410 C   0  0  0  0  0  0  0  0  0  0  0  0
   -0.3250   -0.8220   -0.0030 C   0  0  0  0  0  0  0  0  0  0  0  0
   -1.5930   -1.3300    0.2080 C   0  0  0  0  0  0  0  0  0  0  0  0
   -2.6440   -1.6530   -0.7360 C   0  0  0  0  0  0  0  0  0  0  0  0
   -2.3950   -1.6000   -2.1060 C   0  0  0  0  0  0  0  0  0  0  0  0
   -1.1720   -1.2040   -2.5960 O   0  0  0  0  0  0  0  0  0  0  0  0
   -3.3860   -1.9520   -3.0270 C   0  0  0  0  0  0  0  0  0  0  0  0
   -4.6090   -2.3490   -2.5500 C   0  0  0  0  0  0  0  0  0  0  0  0
   -5.6010   -2.7020   -3.4630 O   0  0  0  0  0  0  0  0  0  0  0  0
   -4.8880   -2.4100   -1.2040 C   0  0  0  0  0  0  0  0  0  0  0  0
   -3.8720   -2.0490   -0.3080 C   0  0  0  0  0  0  0  0  0  0  0  0
   -4.2010   -2.1230    1.0150 O   0  0  0  0  0  0  0  0  0  0  0  0
   -4.2970   -0.9740    1.7780 C   0  0  0  0  0  0  0  0  0  0  0  0
   -4.2380    0.2900    1.2310 C   0  0  0  0  0  0  0  0  0  0  0  0
   -4.3380    1.4220    2.0240 C   0  0  0  0  0  0  0  0  0  0  0  0
   -4.5000    1.3250    3.3870 C   0  0  0  0  0  0  0  0  0  0  0  0
   -4.6050    2.4990    4.2130 N   0  0  0  0  0  0  0  0  0  0  0  0
   -4.7510    2.4140    5.4440 O   0  0  0  0  0  0  0  0  0  0  0  0
   -4.5460    3.7510    3.6580 O   0  0  0  0  0  0  0  0  0  0  0  0
   -4.5600    0.0670    3.9450 C   0  0  0  0  0  0  0  0  0  0  0  0
   -4.4590   -1.0600    3.1400 C   0  0  0  0  0  0  0  0  0  0  0  0
   -1.6770   -1.4760    1.5280 O   0  0  0  0  0  0  0  0  0  0  0  0
   -0.6000   -1.1130    2.1250 N   0  0  0  0  0  0  0  0  0  0  0  0
    4.0400    2.1310    0.0170 C   0  0  0  0  0  0  0  0  0  0  0  0
    5.1730    2.2720   -0.9430 C   0  0  0  0  0  0  0  0  0  0  0  0
  2  1  1  1
  2  3  1  0
  2 33  1  0
  3  4  1  0
  4  5  1  0
  5  6  1  6
  5 32  1  0
  6  7  1  0
  7  8  2  0
  7  9  1  0
  9 10  1  0
  9 31  2  0
 10 11  2  0
 11 12  1  0
 11 30  1  0
 12 13  2  0
 12 19  1  0
 13 14  1  0
 13 15  1  0
 15 16  2  0
 16 17  1  0
 16 18  1  0
 18 19  2  0
 19 20  1  0
 20 21  1  0
 21 22  2  0
 21 29  1  0
 22 23  1  0
 23 24  2  0
 24 25  1  0
 24 28  1  0
 25 26  2  0
 25 27  1  0
 28 29  2  0
 30 31  1  0
 32 33  1  0
M  CHG  3   2   1  25   1  27  -1
M  END
