
     RDKit          3D

 33 35  0  0  0  0  0  0  0  0999 V2000
    1.0070    6.4480   -0.0980 C   0  0  0  0  0  0  0  0  0  0  0  0
   -0.2370    6.3020   -0.9200 C   0  0  0  0  0  0  0  0  0  0  0  0
   -1.0270    5.2030   -0.5900 O   0  0  0  0  0  0  0  0  0  0  0  0
   -0.5510    3.8760   -0.6660 C   0  0  0  0  0  0  0  0  0  0  0  0
    0.6290    3.7720   -1.0520 O   0  0  0  0  0  0  0  0  0  0  0  0
   -1.4860    2.8360   -0.2910 C   0  0  2  0  0  0  0  0  0  0  0  0
   -1.8010    3.0190    1.1880 C   0  0  0  0  0  0  0  0  0  0  0  0
   -1.2320    1.7330    1.7850 C   0  0  0  0  0  0  0  0  0  0  0  0
   -1.5840    0.7860    0.6990 N   0  0  0  0  0  0  0  0  0  0  0  0
   -2.2660   -0.4270    0.9230 C   0  0  0  0  0  0  0  0  0  0  0  0
   -2.5500   -0.7320    2.1320 O   0  0  0  0  0  0  0  0  0  0  0  0
   -2.6900   -1.3830   -0.1170 C   0  0  0  0  0  0  0  0  0  0  0  0
   -3.4490   -2.5650    0.5050 C   0  0  1  0  0  0  0  0  0  0  0  0
   -4.6750   -2.0590    1.2270 C   0  0  0  0  0  0  0  0  0  0  0  0
   -3.9300   -3.4310   -0.6480 C   0  0  0  0  0  0  0  0  0  0  0  0
   -2.5580   -3.2260    1.3220 O   0  0  0  0  0  0  0  0  0  0  0  0
   -3.1220   -4.3300    1.9540 C   0  0  0  0  0  0  0  0  0  0  0  0
   -1.1020    1.4190   -0.5140 C   0  0  2  0  0  0  0  0  0  0  0  0
    0.3300    1.1880   -0.8370 C   0  0  0  0  0  0  0  0  0  0  0  0
    0.6050   -0.2800   -1.0350 C   0  0  0  0  0  0  0  0  0  0  0  0
    1.9980   -0.6150   -1.3850 C   0  0  0  0  0  0  0  0  0  0  0  0
    2.3870   -0.3200   -2.6810 C   0  0  0  0  0  0  0  0  0  0  0  0
    1.4940    0.3150   -3.6500 C   0  0  0  0  0  0  0  0  0  0  0  0
    3.6670   -0.6400   -3.1540 C   0  0  0  0  0  0  0  0  0  0  0  0
    4.5290   -1.2540   -2.3010 C   0  0  0  0  0  0  0  0  0  0  0  0
    4.1750   -1.5700   -0.9790 C   0  0  0  0  0  0  0  0  0  0  0  0
    5.2250   -2.1730   -0.1330 C   0  0  0  0  0  0  0  0  0  0  0  0
    2.9150   -1.2450   -0.5470 C   0  0  0  0  0  0  0  0  0  0  0  0
    2.5900   -1.5190    0.8640 C   0  0  0  0  0  0  0  0  0  0  0  0
    1.8430   -0.8660    1.7060 C   0  0  0  0  0  0  0  0  0  0  0  0
    1.8210   -1.5550    3.0090 C   0  0  0  0  0  0  0  0  0  0  0  0
    2.6330   -2.7460    2.8150 C   0  0  0  0  0  0  0  0  0  0  0  0
    3.0800   -2.7210    1.5770 C   0  0  0  0  0  0  0  0  0  0  0  0
  1  2  1  0
  2  3  1  0
  3  4  1  0
  4  5  2  0
  6  4  1  1
  6  7  1  0
  6 18  1  0
  7  8  1  0
  8  9  1  0
  9 10  1  0
  9 18  1  0
 10 11  2  0
 10 12  1  0
 12 13  1  0
 13 14  1  1
 13 15  1  0
 13 16  1  0
 16 17  1  0
 18 19  1  1
 19 20  1  0
 20 21  1  0
 21 22  2  0
 21 28  1  0
 22 23  1  0
 22 24  1  0
 24 25  2  0
 25 26  1  0
 26 27  1  0
 26 28  2  0
 28 29  1  0
 29 30  2  0
 29 33  1  0
 30 31  1  0
 31 32  1  0
 32 33  2  0
M  END
