
     RDKit          3D

 33 35  0  0  0  0  0  0  0  0999 V2000
    4.2880    1.0370   -2.5000 C   0  0  0  0  0  0  0  0  0  0  0  0
    3.3860   -0.0730   -1.9120 C   0  0  0  0  0  0  0  0  0  0  0  0
    3.9700   -0.3930   -0.5880 C   0  0  0  0  0  0  0  0  0  0  0  0
    3.3810   -0.3350    0.5660 C   0  0  0  0  0  0  0  0  0  0  0  0
    1.9660    0.0840    0.6980 C   0  0  0  0  0  0  0  0  0  0  0  0
    1.2850    0.4260   -0.2690 O   0  0  0  0  0  0  0  0  0  0  0  0
    1.3300    0.0900    2.0390 C   0  0  0  0  0  0  0  0  0  0  0  0
   -0.0910    0.5500    2.0430 C   0  0  0  0  0  0  0  0  0  0  0  0
   -0.9200   -0.1920    1.0590 C   0  0  0  0  0  0  0  0  0  0  0  0
   -1.0010   -1.5500    1.0530 C   0  0  0  0  0  0  0  0  0  0  0  0
   -1.6240   -2.3090    0.0450 C   0  0  0  0  0  0  0  0  0  0  0  0
   -1.6330   -3.7340    0.1690 C   0  0  0  0  0  0  0  0  0  0  0  0
   -0.6750   -4.2120    0.9080 O   0  0  0  0  0  0  0  0  0  0  0  0
   -2.5290   -4.7400   -0.3790 C   0  0  2  0  0  0  0  0  0  0  0  0
   -3.9210   -4.5680    0.2520 C   0  0  0  0  0  0  0  0  0  0  0  0
   -2.0570   -6.1320    0.0840 C   0  0  0  0  0  0  0  0  0  0  0  0
   -2.1730   -1.6010   -0.9750 C   0  0  0  0  0  0  0  0  0  0  0  0
   -2.8210   -2.3140   -2.1150 C   0  0  0  0  0  0  0  0  0  0  0  0
   -2.1270   -0.1980   -1.0280 C   0  0  0  0  0  0  0  0  0  0  0  0
   -1.4900    0.4890    0.0120 C   0  0  0  0  0  0  0  0  0  0  0  0
   -1.5730    1.9110   -0.0630 N   0  0  0  0  0  0  0  0  0  0  0  0
   -0.9170    2.6040   -1.1300 C   0  0  0  0  0  0  0  0  0  0  0  0
   -1.4280    4.0350   -1.2780 C   0  0  2  0  0  0  0  0  0  0  0  0
   -0.4310    4.8150   -2.1230 C   0  0  0  0  0  0  0  0  0  0  0  0
   -1.6520    4.6750    0.0690 C   0  0  0  0  0  0  0  0  0  0  0  0
   -2.7850    3.9540    0.7270 C   0  0  2  0  0  0  0  0  0  0  0  0
   -3.2690    4.6220    1.9760 C   0  0  0  0  0  0  0  0  0  0  0  0
   -2.3590    2.5390    0.9550 C   0  0  0  0  0  0  0  0  0  0  0  0
   -2.7220    2.0150    2.0130 O   0  0  0  0  0  0  0  0  0  0  0  0
    4.0220   -0.6560    1.8810 C   0  0  0  0  0  0  0  0  0  0  0  0
    5.4350   -1.0960    1.7870 C   0  0  0  0  0  0  0  0  0  0  0  0
    5.7540   -1.6780    0.4200 C   0  0  0  0  0  0  0  0  0  0  0  0
    5.3360   -0.8120   -0.5970 O   0  0  0  0  0  0  0  0  0  0  0  0
  1  2  1  0
  2  3  1  0
  3  4  2  0
  3 33  1  0
  4  5  1  0
  4 30  1  0
  5  6  2  0
  5  7  1  0
  7  8  1  0
  8  9  1  0
  9 10  2  0
  9 20  1  0
 10 11  1  0
 11 12  1  0
 11 17  2  0
 12 13  2  0
 12 14  1  0
 14 15  1  1
 14 16  1  0
 17 18  1  0
 17 19  1  0
 19 20  2  0
 20 21  1  0
 21 22  1  0
 21 28  1  0
 22 23  1  0
 23 24  1  6
 23 25  1  0
 25 26  1  0
 26 27  1  1
 26 28  1  0
 28 29  2  0
 30 31  1  0
 31 32  1  0
 32 33  1  0
M  END
