
     RDKit          3D

 33 34  0  0  0  0  0  0  0  0999 V2000
    7.4600    2.7900    0.3840 C   0  0  0  0  0  0  0  0  0  0  0  0
    6.3300    2.3530    1.2430 C   0  0  0  0  0  0  0  0  0  0  0  0
    6.2390    0.8530    1.3750 C   0  0  0  0  0  0  0  0  0  0  0  0
    5.1280    0.2960    0.9410 C   0  0  0  0  0  0  0  0  0  0  0  0
    4.9300   -1.1310    1.0260 C   0  0  0  0  0  0  0  0  0  0  0  0
    3.8430   -1.7040    0.5650 C   0  0  0  0  0  0  0  0  0  0  0  0
    3.5850   -3.1920    0.6380 C   0  0  0  0  0  0  0  0  0  0  0  0
    2.8690   -3.4200   -0.6330 C   0  0  0  0  0  0  0  0  0  0  0  0
    2.9000   -4.4820   -1.3300 O   0  0  0  0  0  0  0  0  0  0  0  0
    2.1390   -2.1980   -0.9160 N   0  0  0  0  0  0  0  0  0  0  0  0
    1.0310   -2.1390   -1.7750 C   0  0  0  0  0  0  0  0  0  0  0  0
   -0.3380   -2.0750   -1.0530 C   0  0  0  0  0  0  0  0  0  0  0  0
   -1.0290   -1.0350   -1.4080 C   0  0  0  0  0  0  0  0  0  0  0  0
   -2.3040   -0.5080   -1.0890 C   0  0  0  0  0  0  0  0  0  0  0  0
   -2.6180    0.6860   -1.6270 C   0  0  0  0  0  0  0  0  0  0  0  0
   -3.8780    1.4290   -1.4250 C   0  0  2  0  0  0  0  0  0  0  0  0
   -3.5830    2.5860   -0.4430 C   0  0  0  0  0  0  0  0  0  0  0  0
   -4.9460    0.5830   -0.8610 C   0  0  0  0  0  0  0  0  0  0  0  0
   -6.1860    0.9500   -0.8830 C   0  0  0  0  0  0  0  0  0  0  0  0
   -6.5750    2.2290   -1.4780 C   0  0  0  0  0  0  0  0  0  0  0  0
   -7.8410    2.6170   -1.4810 C   0  0  0  0  0  0  0  0  0  0  0  0
   -8.2090    3.9040   -2.0880 C   0  0  0  0  0  0  0  0  0  0  0  0
   -8.8450    1.7370   -0.8440 C   0  0  0  0  0  0  0  0  0  0  0  0
   -4.5650   -0.7010   -0.2890 C   0  0  0  0  0  0  0  0  0  0  0  0
   -3.3320   -1.2230   -0.3910 C   0  0  0  0  0  0  0  0  0  0  0  0
   -0.5930   -3.0370   -0.0350 C   0  0  0  0  0  0  0  0  0  0  0  0
    0.3260   -3.9940    0.0500 O   0  0  0  0  0  0  0  0  0  0  0  0
   -1.5490   -3.2110    0.8830 O   0  0  0  0  0  0  0  0  0  0  0  0
   -1.7150   -4.1790    1.8660 C   0  0  0  0  0  0  0  0  0  0  0  0
    2.7300   -1.1190   -0.1750 C   0  0  0  0  0  0  0  0  0  0  0  0
    2.3570    0.0910   -0.1670 O   0  0  0  0  0  0  0  0  0  0  0  0
    7.2780    0.0830    2.0550 C   0  0  0  0  0  0  0  0  0  0  0  0
    8.6090    0.0010    1.3740 C   0  0  0  0  0  0  0  0  0  0  0  0
  1  2  1  0
  2  3  1  0
  3  4  2  3
  3 32  1  0
  4  5  1  0
  5  6  2  3
  6  7  1  0
  6 30  1  0
  7  8  1  0
  8  9  2  0
  8 10  1  0
 10 11  1  0
 10 30  1  0
 11 12  1  0
 12 13  2  3
 12 26  1  0
 13 14  1  0
 14 15  2  0
 14 25  1  0
 15 16  1  0
 16 17  1  1
 16 18  1  0
 18 19  2  3
 18 24  1  0
 19 20  1  0
 20 21  2  3
 21 22  1  0
 21 23  1  0
 24 25  2  0
 26 27  2  0
 26 28  1  0
 28 29  1  0
 30 31  2  0
 32 33  1  0
M  END
