
     RDKit          3D

 33 35  0  0  0  0  0  0  0  0999 V2000
    6.7800   -3.0720   -0.2080 C   0  0  0  0  0  0  0  0  0  0  0  0
    5.4230   -2.8230    0.4230 C   0  0  0  0  0  0  0  0  0  0  0  0
    4.3740   -2.4410   -0.6030 C   0  0  0  0  0  0  0  0  0  0  0  0
    4.7270   -1.1920   -1.3470 C   0  0  0  0  0  0  0  0  0  0  0  0
    4.8730   -0.0580   -0.5420 O   0  0  0  0  0  0  0  0  0  0  0  0
    3.8940    0.4740    0.2550 C   0  0  0  0  0  0  0  0  0  0  0  0
    2.7690   -0.0680    0.2970 O   0  0  0  0  0  0  0  0  0  0  0  0
    4.1330    1.6730    1.0690 C   0  0  0  0  0  0  0  0  0  0  0  0
    2.9840    2.1670    1.8630 C   0  0  0  0  0  0  0  0  0  0  0  0
    1.7870    2.5600    1.1040 C   0  0  0  0  0  0  0  0  0  0  0  0
    0.6450    1.8090    1.1560 C   0  0  0  0  0  0  0  0  0  0  0  0
   -0.5330    2.1200    0.5010 C   0  0  0  0  0  0  0  0  0  0  0  0
   -1.7200    1.3690    0.6040 N   0  0  0  0  0  0  0  0  0  0  0  0
   -3.0360    1.7550    0.1500 C   0  0  0  0  0  0  0  0  0  0  0  0
   -3.2500    2.3200   -0.9340 O   0  0  0  0  0  0  0  0  0  0  0  0
   -4.0000    1.3330    1.2390 C   0  0  2  0  0  0  0  0  0  0  0  0
   -4.4430    2.5100    1.9010 O   0  0  0  0  0  0  0  0  0  0  0  0
   -5.8060    2.5700    1.7630 C   0  0  0  0  0  0  0  0  0  0  0  0
   -3.1140    0.5390    2.1570 C   0  0  0  0  0  0  0  0  0  0  0  0
   -1.9780    0.0950    1.2160 C   0  0  1  0  0  0  0  0  0  0  0  0
   -2.4740   -0.9410    0.2550 C   0  0  0  0  0  0  0  0  0  0  0  0
   -3.6980   -1.5800    0.4220 C   0  0  0  0  0  0  0  0  0  0  0  0
   -4.1930   -2.5450   -0.4330 C   0  0  0  0  0  0  0  0  0  0  0  0
   -5.5200   -3.1940   -0.1950 C   0  0  0  0  0  0  0  0  0  0  0  0
   -3.4330   -2.9020   -1.5190 C   0  0  0  0  0  0  0  0  0  0  0  0
   -3.9430   -3.9330   -2.4490 C   0  0  0  0  0  0  0  0  0  0  0  0
   -2.1960   -2.2840   -1.7220 C   0  0  0  0  0  0  0  0  0  0  0  0
   -1.7300   -1.3220   -0.8480 C   0  0  0  0  0  0  0  0  0  0  0  0
   -0.3810   -0.6860   -1.0770 C   0  0  0  0  0  0  0  0  0  0  0  0
   -0.5000    3.3010   -0.2590 C   0  0  0  0  0  0  0  0  0  0  0  0
    0.6410    4.0570   -0.3140 C   0  0  0  0  0  0  0  0  0  0  0  0
    1.7970    3.7130    0.3560 C   0  0  0  0  0  0  0  0  0  0  0  0
    3.0030    4.6080    0.2500 C   0  0  0  0  0  0  0  0  0  0  0  0
  1  2  1  0
  2  3  1  0
  3  4  1  0
  4  5  1  0
  5  6  1  0
  6  7  2  0
  6  8  1  0
  8  9  1  0
  9 10  1  0
 10 11  2  0
 10 32  1  0
 11 12  1  0
 12 13  1  0
 12 30  2  0
 13 14  1  0
 13 20  1  0
 14 15  2  0
 14 16  1  0
 16 17  1  1
 16 19  1  0
 17 18  1  0
 19 20  1  0
 20 21  1  6
 21 22  2  0
 21 28  1  0
 22 23  1  0
 23 24  1  0
 23 25  2  0
 25 26  1  0
 25 27  1  0
 27 28  2  0
 28 29  1  0
 30 31  1  0
 31 32  2  0
 32 33  1  0
M  END
