
     RDKit          3D

 18 19  0  0  0  0  0  0  0  0999 V2000
    2.0790   -0.0400    2.2860 O   0  0  0  0  0  0  0  0  0  0  0  0
    1.2630    0.1830    1.3560 C   0  0  0  0  0  0  0  0  0  0  0  0
   -0.1630    0.2460    1.6910 C   0  0  0  0  0  0  0  0  0  0  0  0
   -1.0040    0.4970    0.6050 O   0  0  0  0  0  0  0  0  0  0  0  0
   -2.3670    0.5690    0.8570 C   0  0  0  0  0  0  0  0  0  0  0  0
   -2.8390    0.4160    2.0120 O   0  0  0  0  0  0  0  0  0  0  0  0
   -3.3190    0.8310   -0.2440 C   0  0  1  0  0  0  0  0  0  0  0  0
   -3.2380   -0.3330   -1.2010 C   0  0  0  0  0  0  0  0  0  0  0  0
   -4.2760   -1.2680   -0.6710 C   0  0  0  0  0  0  0  0  0  0  0  0
   -5.0780   -0.4380    0.2800 C   0  0  0  0  0  0  0  0  0  0  0  0
   -4.6180    0.8680    0.1890 O   0  0  0  0  0  0  0  0  0  0  0  0
    1.7870    0.3560    0.0490 N   0  0  0  0  0  0  0  0  0  0  0  0
    3.2100    0.2850   -0.2410 C   0  0  0  0  0  0  0  0  0  0  0  0
    3.6120   -0.6190   -1.0770 C   0  0  0  0  0  0  0  0  0  0  0  0
    4.9580   -0.9290   -1.5580 C   0  0  0  0  0  0  0  0  0  0  0  0
    6.1800    0.1500   -0.8350 S   0  0  0  0  0  0  0  0  0  0  0  0
    5.3540    1.2780    0.2600 C   0  0  0  0  0  0  0  0  0  0  0  0
    4.0590    1.2520    0.4470 C   0  0  0  0  0  0  0  0  0  0  0  0
  1  2  2  0
  2  3  1  0
  2 12  1  0
  3  4  1  0
  4  5  1  0
  5  6  2  0
  7  5  1  1
  7  8  1  0
  7 11  1  0
  8  9  1  0
  9 10  1  0
 10 11  1  0
 12 13  1  0
 13 14  2  0
 13 18  1  0
 14 15  1  0
 15 16  1  0
 16 17  1  0
 17 18  2  0
M  END
