
     RDKit          3D

 18 18  0  0  0  0  0  0  0  0999 V2000
   -0.8080   -2.5150   -2.9680 C   0  0  0  0  0  0  0  0  0  0  0  0
   -0.1120   -2.2310   -1.8780 C   0  0  0  0  0  0  0  0  0  0  0  0
    0.3940   -3.2810   -1.0800 O   0  0  0  0  0  0  0  0  0  0  0  0
    1.1440   -3.0970    0.0520 C   0  0  0  0  0  0  0  0  0  0  0  0
    1.5550   -4.1130    0.7240 O   0  0  0  0  0  0  0  0  0  0  0  0
    1.5480   -1.8110    0.6070 C   0  0  0  0  0  0  0  0  0  0  0  0
    1.7690   -1.5200    1.8460 C   0  0  0  0  0  0  0  0  0  0  0  0
    2.1700   -0.2060    2.3200 C   0  0  0  0  0  0  0  0  0  0  0  0
    2.3270    0.7420    1.5210 O   0  0  0  0  0  0  0  0  0  0  0  0
    2.3860    0.0230    3.6540 O   0  0  0  0  0  0  0  0  0  0  0  0
    2.7780    1.3140    4.1030 C   0  0  0  0  0  0  0  0  0  0  0  0
    1.7280   -0.5390   -0.7160 S   0  0  0  0  0  0  0  0  0  0  0  0
    0.1080   -0.8370   -1.5560 C   0  0  0  0  0  0  0  0  0  0  0  0
   -0.7350    0.1090   -1.6980 C   0  0  0  0  0  0  0  0  0  0  0  0
   -2.0930    0.1350   -2.1730 C   0  0  0  0  0  0  0  0  0  0  0  0
   -2.7520    1.2830   -2.2390 C   0  0  0  0  0  0  0  0  0  0  0  0
   -2.1260    2.4850   -1.8430 N   0  0  0  0  0  0  0  0  0  0  0  0
   -2.2570    2.9480   -0.4720 C   0  0  0  0  0  0  0  0  0  0  0  0
  1  2  2  0
  2  3  1  0
  2 13  1  0
  3  4  1  0
  4  5  2  0
  4  6  1  0
  6  7  2  3
  6 12  1  0
  7  8  1  0
  8  9  2  0
  8 10  1  0
 10 11  1  0
 12 13  1  0
 13 14  2  3
 14 15  1  0
 15 16  2  3
 16 17  1  0
 17 18  1  0
M  END
