
     RDKit          3D

 18 19  0  0  0  0  0  0  0  0999 V2000
   -4.7250   -0.8840   -1.7750 C   0  0  0  0  0  0  0  0  0  0  0  0
   -3.4580   -0.3630   -1.5610 O   0  0  0  0  0  0  0  0  0  0  0  0
   -2.7580   -0.5900   -0.3210 C   0  0  0  0  0  0  0  0  0  0  0  0
   -3.3900   -1.3350    0.6280 C   0  0  0  0  0  0  0  0  0  0  0  0
   -2.1920   -1.3870    2.0200 S   0  0  0  0  0  0  0  0  0  0  0  0
   -0.9380   -0.3650    1.1340 C   0  0  0  0  0  0  0  0  0  0  0  0
   -1.5380   -0.1040   -0.0770 C   0  0  0  0  0  0  0  0  0  0  0  0
   -0.7870    0.7040   -1.0340 N   0  0  0  0  0  0  0  0  0  0  0  0
    0.5160    1.1930   -0.7120 C   0  0  2  0  0  0  0  0  0  0  0  0
    1.4800    0.0890   -0.4160 C   0  0  0  0  0  0  0  0  0  0  0  0
    2.6170    0.4500    0.1890 C   0  0  0  0  0  0  0  0  0  0  0  0
    3.6400   -0.5100    0.5350 C   0  0  0  0  0  0  0  0  0  0  0  0
    3.4790   -1.9510    0.2370 C   0  0  0  0  0  0  0  0  0  0  0  0
    4.6860   -0.1220    1.1000 O   0  0  0  0  0  0  0  0  0  0  0  0
    2.7570    1.8720    0.4660 C   0  0  0  0  0  0  0  0  0  0  0  0
    3.9120    2.3850    0.4120 O   0  0  0  0  0  0  0  0  0  0  0  0
    1.5530    2.6530    0.7980 C   0  0  0  0  0  0  0  0  0  0  0  0
    0.4230    2.0670    0.3350 O   0  0  0  0  0  0  0  0  0  0  0  0
  1  2  1  0
  2  3  1  0
  3  4  2  0
  3  7  1  0
  4  5  1  0
  5  6  1  0
  6  7  2  0
  7  8  1  0
  9  8  1  1
  9 10  1  0
  9 18  1  0
 10 11  2  0
 11 12  1  0
 11 15  1  0
 12 13  1  0
 12 14  2  0
 15 16  2  0
 15 17  1  0
 17 18  1  0
M  END
