
     RDKit          3D

 18 19  0  0  0  0  0  0  0  0999 V2000
    5.0390    1.2710    1.6480 C   0  0  0  0  0  0  0  0  0  0  0  0
    4.5060    0.6900    0.4990 O   0  0  0  0  0  0  0  0  0  0  0  0
    4.3750   -0.6950    0.6510 C   0  0  0  0  0  0  0  0  0  0  0  0
    3.7960   -1.3230   -0.5980 C   0  0  0  0  0  0  0  0  0  0  0  0
    2.5220   -0.8200   -0.9170 O   0  0  0  0  0  0  0  0  0  0  0  0
    1.4080   -0.9000   -0.1210 C   0  0  0  0  0  0  0  0  0  0  0  0
    1.4850   -1.4590    0.9900 O   0  0  0  0  0  0  0  0  0  0  0  0
    0.1040   -0.3360   -0.5480 C   0  0  0  0  0  0  0  0  0  0  0  0
   -0.0060    0.2860   -1.7710 C   0  0  0  0  0  0  0  0  0  0  0  0
   -1.2470    0.7910   -2.1160 C   0  0  0  0  0  0  0  0  0  0  0  0
   -1.3180    1.3620   -3.2560 O   0  0  0  0  0  0  0  0  0  0  0  0
   -2.3100    0.6780   -1.2860 C   0  0  0  0  0  0  0  0  0  0  0  0
   -2.1890    0.0590   -0.0740 C   0  0  0  0  0  0  0  0  0  0  0  0
   -0.9700   -0.4270    0.2440 N   0  0  0  0  0  0  0  0  0  0  0  0
   -3.4020    0.0130    0.7330 C   0  0  0  0  0  0  0  0  0  0  0  0
   -4.6250    0.0080   -0.1360 C   0  0  1  0  0  0  0  0  0  0  0  0
   -5.8200    0.5600    0.5610 C   0  0  0  0  0  0  0  0  0  0  0  0
   -4.0150    1.1830   -1.4290 S   0  0  0  0  0  0  0  0  0  0  0  0
  1  2  1  0
  2  3  1  0
  3  4  1  0
  4  5  1  0
  5  6  1  0
  6  7  2  0
  6  8  1  0
  8  9  2  0
  8 14  1  0
  9 10  1  0
 10 11  2  0
 10 12  1  0
 12 13  2  0
 12 18  1  0
 13 14  1  0
 13 15  1  0
 15 16  1  0
 16 17  1  1
 16 18  1  0
M  END
