
     RDKit          3D

 18 19  0  0  0  0  0  0  0  0999 V2000
    4.7490   -1.8000    0.4600 C   0  0  0  0  0  0  0  0  0  0  0  0
    4.2310   -0.6620   -0.4260 C   0  0  2  0  0  0  0  0  0  0  0  0
    3.3930    0.3210    0.3360 C   0  0  0  0  0  0  0  0  0  0  0  0
    2.0830    0.2290   -0.3150 N   0  0  0  0  0  0  0  0  0  0  0  0
    1.0180    1.1930   -0.2470 C   0  0  0  0  0  0  0  0  0  0  0  0
    0.0730    0.9510    0.9010 C   0  0  0  0  0  0  0  0  0  0  0  0
   -1.1910    2.2540    0.8220 S   0  0  0  0  0  0  0  0  0  0  0  0
   -2.1500    1.9690   -0.7150 C   0  0  0  0  0  0  0  0  0  0  0  0
   -2.8580    0.6750   -0.4970 C   0  0  0  0  0  0  0  0  0  0  0  0
   -2.6350   -0.3310   -1.3090 C   0  0  0  0  0  0  0  0  0  0  0  0
   -3.3200   -1.6210   -1.1210 C   0  0  0  0  0  0  0  0  0  0  0  0
   -4.1670   -1.6270   -0.0250 O   0  0  0  0  0  0  0  0  0  0  0  0
   -4.3980   -0.5850    0.8160 C   0  0  0  0  0  0  0  0  0  0  0  0
   -3.7730    0.5840    0.6270 C   0  0  0  0  0  0  0  0  0  0  0  0
   -3.9660    1.6660    1.4400 O   0  0  0  0  0  0  0  0  0  0  0  0
    2.0560   -0.9990   -1.0330 C   0  0  0  0  0  0  0  0  0  0  0  0
    1.0190   -1.6930   -1.3090 O   0  0  0  0  0  0  0  0  0  0  0  0
    3.3740   -1.2740   -1.3620 O   0  0  0  0  0  0  0  0  0  0  0  0
  2  1  1  1
  2  3  1  0
  2 18  1  0
  3  4  1  0
  4  5  1  0
  4 16  1  0
  5  6  1  0
  6  7  1  0
  7  8  1  0
  8  9  1  0
  9 10  2  0
  9 14  1  0
 10 11  1  0
 11 12  1  0
 12 13  1  0
 13 14  2  0
 14 15  1  0
 16 17  2  0
 16 18  1  0
M  END
