
     RDKit          3D

 32 34  0  0  0  0  0  0  0  0999 V2000
    5.5550    0.6710    1.3460 C   0  0  0  0  0  0  0  0  0  0  0  0
    5.0760   -0.0160    0.1180 C   0  0  0  0  0  0  0  0  0  0  0  0
    3.7630   -0.3690   -0.1110 C   0  0  0  0  0  0  0  0  0  0  0  0
    2.4600   -0.3750    0.3720 C   0  0  0  0  0  0  0  0  0  0  0  0
    1.6530   -0.9740   -0.5500 C   0  0  0  0  0  0  0  0  0  0  0  0
    0.2280   -1.2450   -0.5910 C   0  0  0  0  0  0  0  0  0  0  0  0
   -0.2450   -1.8180   -1.6670 O   0  0  0  0  0  0  0  0  0  0  0  0
   -0.7140   -0.9800    0.3630 N   0  0  0  0  0  0  0  0  0  0  0  0
   -0.3950   -0.3710    1.6170 C   0  0  0  0  0  0  0  0  0  0  0  0
   -0.3260    1.1420    1.5570 C   0  0  0  0  0  0  0  0  0  0  0  0
   -1.7270    1.7030    1.2960 C   0  0  0  0  0  0  0  0  0  0  0  0
   -2.2290    1.0630    0.0400 C   0  0  0  0  0  0  0  0  0  0  0  0
   -2.9720   -0.2080    0.3890 C   0  0  1  0  0  0  0  0  0  0  0  0
   -4.2490   -0.1650   -0.2840 N   0  0  0  0  0  0  0  0  0  0  0  0
   -5.4990   -0.2420    0.3740 C   0  0  0  0  0  0  0  0  0  0  0  0
   -5.4870   -0.3550    1.6200 O   0  0  0  0  0  0  0  0  0  0  0  0
   -6.7420   -0.2000   -0.2800 N   0  0  0  0  0  0  0  0  0  0  0  0
   -7.9950   -0.2840    0.4410 C   0  0  1  0  0  0  0  0  0  0  0  0
   -8.9110    0.8660    0.1540 C   0  0  0  0  0  0  0  0  0  0  0  0
   -8.6630   -1.6030    0.0400 C   0  0  0  0  0  0  0  0  0  0  0  0
   -9.8740   -1.7640    0.6870 O   0  0  0  0  0  0  0  0  0  0  0  0
   -2.1300   -1.3740   -0.0030 C   0  0  0  0  0  0  0  0  0  0  0  0
    2.4870   -1.3260   -1.5890 N   0  0  0  0  0  0  0  0  0  0  0  0
    3.7440   -0.9680   -1.3320 C   0  0  0  0  0  0  0  0  0  0  0  0
    5.0280   -0.9550   -1.7920 N   0  0  0  0  0  0  0  0  0  0  0  0
    5.8390   -0.3820   -0.9230 N   0  0  0  0  0  0  0  0  0  0  0  0
    7.2900   -0.1900   -1.0760 C   0  0  0  0  0  0  0  0  0  0  0  0
    7.6320    1.1030   -1.7330 C   0  0  1  0  0  0  0  0  0  0  0  0
    7.1510    2.1940   -0.9860 O   0  0  0  0  0  0  0  0  0  0  0  0
    9.0970    1.1820   -1.8620 C   0  0  0  0  0  0  0  0  0  0  0  0
    9.7970    0.1890   -2.5740 N   0  0  0  0  0  0  0  0  0  0  0  0
    9.7160    2.1280   -1.3410 O   0  0  0  0  0  0  0  0  0  0  0  0
  1  2  1  0
  2  3  2  0
  2 26  1  0
  3  4  1  0
  3 24  1  0
  4  5  2  0
  5  6  1  0
  5 23  1  0
  6  7  2  0
  6  8  1  0
  8  9  1  0
  8 22  1  0
  9 10  1  0
 10 11  1  0
 11 12  1  0
 12 13  1  0
 13 14  1  6
 13 22  1  0
 14 15  1  0
 15 16  2  0
 15 17  1  0
 17 18  1  0
 18 19  1  6
 18 20  1  0
 20 21  1  0
 23 24  1  0
 24 25  2  0
 25 26  1  0
 26 27  1  0
 27 28  1  0
 28 29  1  1
 28 30  1  0
 30 31  1  0
 30 32  2  0
M  END
