
     RDKit          3D

 32 35  0  0  0  0  0  0  0  0999 V2000
    7.1350    1.1640   -1.2590 C   0  0  0  0  0  0  0  0  0  0  0  0
    6.8590   -0.1510   -0.6120 C   0  0  0  0  0  0  0  0  0  0  0  0
    7.7680   -1.1010   -0.5690 N   0  0  0  0  0  0  0  0  0  0  0  0
    7.7340   -2.1570   -0.1320 C   0  0  0  0  0  0  0  0  0  0  0  0
    5.9720   -2.1830    0.5390 S   0  0  0  0  0  0  0  0  0  0  0  0
    5.6590   -0.4650   -0.0350 C   0  0  0  0  0  0  0  0  0  0  0  0
    4.3950    0.1800    0.1700 C   0  0  0  0  0  0  0  0  0  0  0  0
    3.3450   -0.5510    0.7510 C   0  0  0  0  0  0  0  0  0  0  0  0
    2.1450    0.0360    0.9720 C   0  0  0  0  0  0  0  0  0  0  0  0
    1.9180    1.3550    0.6370 C   0  0  0  0  0  0  0  0  0  0  0  0
    0.5970    1.9430    0.8990 C   0  0  0  0  0  0  0  0  0  0  0  0
   -0.3410    0.9110    1.2910 N   0  0  0  0  0  0  0  0  0  0  0  0
   -0.9180    0.0330    0.3120 C   0  0  0  0  0  0  0  0  0  0  0  0
   -0.5670    0.2160   -0.8800 O   0  0  0  0  0  0  0  0  0  0  0  0
   -1.8670   -1.0230    0.6590 C   0  0  2  0  0  0  0  0  0  0  0  0
   -1.1820   -2.2330    1.2810 C   0  0  0  0  0  0  0  0  0  0  0  0
   -0.4510   -2.7780    0.0800 C   0  0  1  0  0  0  0  0  0  0  0  0
   -0.0970   -4.1150    0.2800 O   0  0  0  0  0  0  0  0  0  0  0  0
   -1.4420   -2.6230   -1.0390 C   0  0  0  0  0  0  0  0  0  0  0  0
   -2.3570   -1.6220   -0.5960 N   0  0  0  0  0  0  0  0  0  0  0  0
   -3.5560   -1.2550   -1.2390 C   0  0  0  0  0  0  0  0  0  0  0  0
   -3.8970   -1.8210   -2.3000 O   0  0  0  0  0  0  0  0  0  0  0  0
   -4.4100   -0.2250   -0.6900 C   0  0  0  0  0  0  0  0  0  0  0  0
   -5.3740   -0.6050    0.2230 C   0  0  0  0  0  0  0  0  0  0  0  0
   -6.2180    0.3150    0.7930 C   0  0  0  0  0  0  0  0  0  0  0  0
   -6.1230    1.6370    0.4640 C   0  0  0  0  0  0  0  0  0  0  0  0
   -5.1620    2.0080   -0.4450 C   0  0  0  0  0  0  0  0  0  0  0  0
   -5.0650    3.3860   -0.7850 N   0  0  0  0  0  0  0  0  0  0  0  0
   -4.3030    1.1050   -1.0300 C   0  0  0  0  0  0  0  0  0  0  0  0
   -3.2730    1.5580   -2.0230 C   0  0  0  0  0  0  0  0  0  0  0  0
    2.9270    2.0870    0.0680 C   0  0  0  0  0  0  0  0  0  0  0  0
    4.1700    1.4680   -0.1570 C   0  0  0  0  0  0  0  0  0  0  0  0
  1  2  1  0
  2  3  1  0
  2  6  2  0
  3  4  2  0
  4  5  1  0
  5  6  1  0
  6  7  1  0
  7  8  2  0
  7 32  1  0
  8  9  1  0
  9 10  2  0
 10 11  1  0
 10 31  1  0
 11 12  1  0
 12 13  1  0
 13 14  2  0
 15 13  1  6
 15 16  1  0
 15 20  1  0
 16 17  1  0
 17 18  1  1
 17 19  1  0
 19 20  1  0
 20 21  1  0
 21 22  2  0
 21 23  1  0
 23 24  2  0
 23 29  1  0
 24 25  1  0
 25 26  2  0
 26 27  1  0
 27 28  1  0
 27 29  2  0
 29 30  1  0
 31 32  2  0
M  END
