
     RDKit          3D

 32 34  0  0  0  0  0  0  0  0999 V2000
    6.7330    0.9890    0.9000 C   0  0  0  0  0  0  0  0  0  0  0  0
    5.3670    1.3960    1.3440 C   0  0  0  0  0  0  0  0  0  0  0  0
    4.2620    0.5330    0.7850 C   0  0  0  0  0  0  0  0  0  0  0  0
    4.2020    0.5380   -0.7200 C   0  0  1  0  0  0  0  0  0  0  0  0
    3.1100   -0.3250   -1.0950 O   0  0  0  0  0  0  0  0  0  0  0  0
    3.1320   -1.6580   -0.7220 C   0  0  0  0  0  0  0  0  0  0  0  0
    4.2670   -2.2270   -0.5620 N   0  0  0  0  0  0  0  0  0  0  0  0
    1.9300   -2.4460   -0.5030 C   0  0  0  0  0  0  0  0  0  0  0  0
    0.7570   -1.8070   -0.6830 C   0  0  0  0  0  0  0  0  0  0  0  0
    0.7230   -0.4380   -1.0660 N   0  0  0  0  0  0  0  0  0  0  0  0
   -0.4730    0.0800   -1.2030 C   0  0  0  0  0  0  0  0  0  0  0  0
   -0.5670    1.4680   -1.6100 N   0  0  0  0  0  0  0  0  0  0  0  0
   -1.8420    2.0600   -1.7600 C   0  0  0  0  0  0  0  0  0  0  0  0
   -1.9900    3.2510   -2.1080 O   0  0  0  0  0  0  0  0  0  0  0  0
   -2.9760    1.2510   -1.5000 N   0  0  0  0  0  0  0  0  0  0  0  0
   -2.9290   -0.1080   -1.0990 C   0  0  0  0  0  0  0  0  0  0  0  0
   -4.1190   -0.8650   -0.8850 N   0  0  0  0  0  0  0  0  0  0  0  0
   -5.1730   -0.2330   -0.1780 C   0  0  0  0  0  0  0  0  0  0  0  0
   -4.9750    0.3030    1.0340 C   0  0  0  0  0  0  0  0  0  0  0  0
   -6.2560    0.8800    1.5040 C   0  0  0  0  0  0  0  0  0  0  0  0
   -7.1650    0.5850    0.3880 C   0  0  0  0  0  0  0  0  0  0  0  0
   -6.5600   -0.0520   -0.5830 C   0  0  0  0  0  0  0  0  0  0  0  0
   -1.6930   -0.6460   -0.9600 C   0  0  0  0  0  0  0  0  0  0  0  0
   -1.6320   -1.9960   -0.4190 C   0  0  2  0  0  0  0  0  0  0  0  0
   -2.3000   -2.1800    0.9170 C   0  0  0  0  0  0  0  0  0  0  0  0
   -1.7240   -1.3210    1.9850 C   0  0  0  0  0  0  0  0  0  0  0  0
   -2.2850   -1.4210    3.2880 N   0  0  0  0  0  0  0  0  0  0  0  0
   -0.7800   -0.5200    1.8040 O   0  0  0  0  0  0  0  0  0  0  0  0
   -0.3710   -2.5480   -0.4760 O   0  0  0  0  0  0  0  0  0  0  0  0
    4.0550    1.8600   -1.3300 C   0  0  0  0  0  0  0  0  0  0  0  0
    5.0070    2.8840   -1.1510 N   0  0  0  0  0  0  0  0  0  0  0  0
    3.0530    2.1680   -2.0640 O   0  0  0  0  0  0  0  0  0  0  0  0
  1  2  1  0
  2  3  1  0
  4  3  1  1
  4  5  1  0
  4 30  1  0
  5  6  1  0
  6  7  2  0
  6  8  1  0
  8  9  2  3
  9 10  1  0
  9 29  1  0
 10 11  2  0
 11 12  1  0
 11 23  1  0
 12 13  1  0
 13 14  2  0
 13 15  1  0
 15 16  1  0
 16 17  1  0
 16 23  2  0
 17 18  1  0
 18 19  2  0
 18 22  1  0
 19 20  1  0
 20 21  1  0
 21 22  2  0
 23 24  1  0
 24 25  1  1
 24 29  1  0
 25 26  1  0
 26 27  1  0
 26 28  2  0
 30 31  1  0
 30 32  2  0
M  END
