
     RDKit          3D

 33 36  0  0  0  0  0  0  0  0999 V2000
    6.7350    1.5300   -1.6740 O   0  0  0  0  0  0  0  0  0  0  0  0
    7.3300    1.1040   -0.7890 C   0  0  0  0  0  0  0  0  0  0  0  0
    6.4270   -0.0770    0.1610 N   0  0  0  0  0  0  0  0  0  0  0  0
    5.2560   -0.0000   -0.6060 C   0  0  0  0  0  0  0  0  0  0  0  0
    4.8810    0.5420   -1.6130 O   0  0  0  0  0  0  0  0  0  0  0  0
    4.1870   -0.8330    0.0420 N   0  0  0  0  0  0  0  0  0  0  0  0
    2.9350   -0.9530   -0.6090 C   0  0  1  0  0  0  0  0  0  0  0  0
    2.0050   -1.7300    0.1950 C   0  0  0  0  0  0  0  0  0  0  0  0
    0.9600   -1.0260    0.9900 C   0  0  0  0  0  0  0  0  0  0  0  0
    0.6940    0.4200    0.5800 C   0  0  0  0  0  0  0  0  0  0  0  0
    0.9820    0.4440   -0.8260 N   0  0  0  0  0  0  0  0  0  0  0  0
    0.1320    0.5490   -1.8860 C   0  0  0  0  0  0  0  0  0  0  0  0
    0.7130    0.2210   -3.0420 O   0  0  0  0  0  0  0  0  0  0  0  0
   -1.2330    0.9290   -2.0430 C   0  0  0  0  0  0  0  0  0  0  0  0
   -2.0270    1.5250   -1.0430 N   0  0  0  0  0  0  0  0  0  0  0  0
   -2.1960    2.9910   -1.1770 C   0  0  0  0  0  0  0  0  0  0  0  0
   -1.3470    3.8310   -0.3840 C   0  0  0  0  0  0  0  0  0  0  0  0
   -0.0420    3.9100   -0.0450 C   0  0  0  0  0  0  0  0  0  0  0  0
    0.4140    4.9040    0.7060 C   0  0  0  0  0  0  0  0  0  0  0  0
   -0.4320    5.8850    1.1590 C   0  0  0  0  0  0  0  0  0  0  0  0
   -0.2380    7.3240    2.0980 Cl  0  0  0  0  0  0  0  0  0  0  0  0
   -2.0330    5.3360    0.4490 S   0  0  0  0  0  0  0  0  0  0  0  0
   -2.7800    0.8740   -0.0690 C   0  0  0  0  0  0  0  0  0  0  0  0
   -3.3910    1.6140    0.8000 O   0  0  0  0  0  0  0  0  0  0  0  0
   -2.9740   -0.5570    0.0970 C   0  0  0  0  0  0  0  0  0  0  0  0
   -3.6850   -1.2180    1.0710 C   0  0  0  0  0  0  0  0  0  0  0  0
   -3.7890   -2.5600    0.9630 C   0  0  0  0  0  0  0  0  0  0  0  0
   -3.2250   -3.2210   -0.0490 C   0  0  0  0  0  0  0  0  0  0  0  0
   -2.4510   -1.8460   -0.9700 S   0  0  0  0  0  0  0  0  0  0  0  0
   -3.4680   -4.6740   -0.0190 C   0  0  0  0  0  0  0  0  0  0  0  0
   -4.7910   -4.6990    0.7470 C   0  0  0  0  0  0  0  0  0  0  0  0
   -4.4770   -3.6410    1.7900 C   0  0  0  0  0  0  0  0  0  0  0  0
    2.4620    0.4240   -1.0270 C   0  0  0  0  0  0  0  0  0  0  0  0
  1  2  2  0
  2  3  1  0
  3  4  1  0
  4  5  2  0
  4  6  1  0
  7  6  1  1
  7  8  1  0
  7 33  1  0
  8  9  1  0
  9 10  1  0
 10 11  1  0
 11 12  1  0
 11 33  1  0
 12 13  2  0
 12 14  1  0
 14 15  1  0
 15 16  1  0
 15 23  1  0
 16 17  1  0
 17 18  2  0
 17 22  1  0
 18 19  1  0
 19 20  2  0
 20 21  1  0
 20 22  1  0
 23 24  2  0
 23 25  1  0
 25 26  2  0
 25 29  1  0
 26 27  1  0
 27 28  2  0
 27 32  1  0
 28 29  1  0
 28 30  1  0
 30 31  1  0
 31 32  1  0
M  END
