
     RDKit          3D

 33 36  0  0  0  0  0  0  0  0999 V2000
   -3.4360    2.4270   -2.6490 C   0  0  0  0  0  0  0  0  0  0  0  0
   -2.0300    1.9440   -2.2660 C   0  0  0  0  0  0  0  0  0  0  0  0
   -0.9740    2.5520   -2.9350 C   0  0  0  0  0  0  0  0  0  0  0  0
    0.4700    1.7420   -2.2400 S   0  0  0  0  0  0  0  0  0  0  0  0
   -0.4070    0.7010   -1.1580 C   0  0  0  0  0  0  0  0  0  0  0  0
    0.2500   -0.2280   -0.2910 N   0  0  0  0  0  0  0  0  0  0  0  0
    1.6550   -0.3020   -0.3160 C   0  0  0  0  0  0  0  0  0  0  0  0
    2.3010    0.4410   -1.0900 O   0  0  0  0  0  0  0  0  0  0  0  0
    2.4010   -1.1960    0.5100 N   0  0  0  0  0  0  0  0  0  0  0  0
    1.6740   -2.0560    1.3960 C   0  0  0  0  0  0  0  0  0  0  0  0
    2.4250   -3.2240    1.9360 C   0  0  0  0  0  0  0  0  0  0  0  0
    3.7930   -2.8170    2.4510 C   0  0  0  0  0  0  0  0  0  0  0  0
    4.4480   -2.0250    1.4110 C   0  0  0  0  0  0  0  0  0  0  0  0
    6.2200   -1.7900    0.9850 S   0  0  0  0  0  0  0  0  0  0  0  0
    5.8600   -0.6790   -0.3930 C   0  0  0  0  0  0  0  0  0  0  0  0
    6.9940   -0.0780   -1.2350 C   0  0  0  0  0  0  0  0  0  0  0  0
    7.3910    1.2160   -0.6070 C   0  0  1  0  0  0  0  0  0  0  0  0
    6.1570    2.1180   -0.6090 C   0  0  0  0  0  0  0  0  0  0  0  0
    7.7700    0.9570    0.8290 C   0  0  0  0  0  0  0  0  0  0  0  0
    4.6600   -0.6240   -0.3760 N   0  0  0  0  0  0  0  0  0  0  0  0
    3.8530   -1.2380    0.4590 C   0  0  0  0  0  0  0  0  0  0  0  0
   -1.7470    0.9970   -1.3560 C   0  0  0  0  0  0  0  0  0  0  0  0
   -2.7170    0.2220   -0.5290 C   0  0  0  0  0  0  0  0  0  0  0  0
   -2.2940   -0.6620    0.2970 O   0  0  0  0  0  0  0  0  0  0  0  0
   -4.1110    0.3430   -0.5390 N   0  0  0  0  0  0  0  0  0  0  0  0
   -4.8690   -0.5510    0.3870 C   0  0  0  0  0  0  0  0  0  0  0  0
   -6.3120   -0.2350    0.1930 C   0  0  1  0  0  0  0  0  0  0  0  0
   -6.6900   -0.4710   -1.1280 O   0  0  0  0  0  0  0  0  0  0  0  0
   -6.4230   -2.1070   -1.4930 Cl  0  0  0  0  0  0  0  0  0  0  0  0
   -7.2100   -0.8710    1.2050 C   0  0  0  0  0  0  0  0  0  0  0  0
   -8.4170    0.0490    1.1900 C   0  0  0  0  0  0  0  0  0  0  0  0
   -7.8430    1.3240    0.6650 C   0  0  0  0  0  0  0  0  0  0  0  0
   -6.4780    1.1350    0.5050 O   0  0  0  0  0  0  0  0  0  0  0  0
  1  2  1  0
  2  3  2  0
  2 22  1  0
  3  4  1  0
  4  5  1  0
  5  6  1  0
  5 22  2  0
  6  7  1  0
  7  8  2  0
  7  9  1  0
  9 10  1  0
  9 21  1  0
 10 11  1  0
 11 12  1  0
 12 13  1  0
 13 14  1  0
 13 21  2  0
 14 15  1  0
 15 16  1  0
 15 20  2  0
 16 17  1  0
 17 18  1  1
 17 19  1  0
 20 21  1  0
 22 23  1  0
 23 24  2  0
 23 25  1  0
 25 26  1  0
 27 26  1  6
 27 28  1  0
 27 30  1  0
 27 33  1  0
 28 29  1  0
 30 31  1  0
 31 32  1  0
 32 33  1  0
M  END
