
     RDKit          3D

 32 35  0  0  0  0  0  0  0  0999 V2000
    2.1510    0.2950    1.8010 O   0  0  0  0  0  0  0  0  0  0  0  0
    1.8950    0.1720    0.5880 C   0  0  0  0  0  0  0  0  0  0  0  0
    0.5070    0.1400    0.2390 N   0  0  0  0  0  0  0  0  0  0  0  0
   -0.4970    0.2460    1.2450 C   0  0  0  0  0  0  0  0  0  0  0  0
   -1.9150    0.1910    0.8010 C   0  0  2  0  0  0  0  0  0  0  0  0
   -2.3370    1.2330   -0.1690 C   0  0  0  0  0  0  0  0  0  0  0  0
   -2.9500    1.0800   -1.2310 O   0  0  0  0  0  0  0  0  0  0  0  0
   -1.9920    2.5960    0.1690 N   0  0  0  0  0  0  0  0  0  0  0  0
   -2.3370    3.7220   -0.6680 C   0  0  0  0  0  0  0  0  0  0  0  0
   -3.8420    3.7870   -0.7870 C   0  0  0  0  0  0  0  0  0  0  0  0
   -4.4430    3.9440    0.4580 O   0  0  0  0  0  0  0  0  0  0  0  0
   -2.7450    0.6050    2.1120 C   0  0  0  0  0  0  0  0  0  0  0  0
   -3.8530   -0.1900    1.3640 C   0  0  0  0  0  0  0  0  0  0  0  0
   -2.6810   -1.0530    0.9320 C   0  0  1  0  0  0  0  0  0  0  0  0
   -2.8670   -2.0280   -0.1280 C   0  0  0  0  0  0  0  0  0  0  0  0
   -2.2640   -1.8740   -1.2770 C   0  0  0  0  0  0  0  0  0  0  0  0
   -2.3810   -2.7900   -2.4190 C   0  0  0  0  0  0  0  0  0  0  0  0
   -3.1500   -3.8400   -2.2720 C   0  0  0  0  0  0  0  0  0  0  0  0
   -3.8300   -4.0660   -1.0580 N   0  0  0  0  0  0  0  0  0  0  0  0
   -3.7350   -3.2120    0.0690 C   0  0  1  0  0  0  0  0  0  0  0  0
   -3.3680   -3.9260    1.2180 O   0  0  0  0  0  0  0  0  0  0  0  0
    2.9180    0.0690   -0.3900 N   0  0  0  0  0  0  0  0  0  0  0  0
    4.2980    0.0890   -0.1510 C   0  0  0  0  0  0  0  0  0  0  0  0
    4.8340    0.2150    1.0930 C   0  0  0  0  0  0  0  0  0  0  0  0
    6.2400    0.2240    1.2190 C   0  0  0  0  0  0  0  0  0  0  0  0
    7.0170    0.1070    0.1020 C   0  0  0  0  0  0  0  0  0  0  0  0
    8.3530    0.0820   -0.1030 N   0  0  0  0  0  0  0  0  0  0  0  0
    8.5790   -0.0540   -1.4260 C   0  0  0  0  0  0  0  0  0  0  0  0
    9.7180   -0.1150   -1.9910 O   0  0  0  0  0  0  0  0  0  0  0  0
    7.4110   -0.1170   -2.0790 N   0  0  0  0  0  0  0  0  0  0  0  0
    6.4500   -0.0190   -1.1470 C   0  0  0  0  0  0  0  0  0  0  0  0
    5.1110   -0.0240   -1.2310 N   0  0  0  0  0  0  0  0  0  0  0  0
  1  2  2  0
  2  3  1  0
  2 22  1  0
  3  4  1  0
  5  4  1  1
  5  6  1  0
  5 12  1  0
  5 14  1  0
  6  7  2  0
  6  8  1  0
  8  9  1  0
  9 10  1  0
 10 11  1  0
 12 13  1  0
 13 14  1  0
 14 15  1  6
 15 16  2  0
 15 20  1  0
 16 17  1  0
 17 18  2  0
 18 19  1  0
 19 20  1  0
 20 21  1  1
 22 23  1  0
 23 24  2  0
 23 32  1  0
 24 25  1  0
 25 26  2  0
 26 27  1  0
 26 31  1  0
 27 28  1  0
 28 29  2  0
 28 30  1  0
 30 31  1  0
 31 32  2  0
M  END
