
     RDKit          3D

 33 36  0  0  0  0  0  0  0  0999 V2000
   -5.0140    0.1030    0.5790 O   0  0  0  0  0  0  0  0  0  0  0  0
   -3.8090    0.6030    0.5800 C   0  0  0  0  0  0  0  0  0  0  0  0
   -3.7400    2.0390    0.4980 C   0  0  0  0  0  0  0  0  0  0  0  0
   -2.6980    2.9140    0.3960 C   0  0  0  0  0  0  0  0  0  0  0  0
   -3.1610    4.2330    0.3110 C   0  0  0  0  0  0  0  0  0  0  0  0
   -4.5260    4.1220    0.3650 C   0  0  0  0  0  0  0  0  0  0  0  0
   -4.8520    2.8370    0.4740 N   0  0  0  0  0  0  0  0  0  0  0  0
   -2.7890   -0.3460    0.6590 N   0  0  0  0  0  0  0  0  0  0  0  0
   -1.3850    0.1000    0.8140 C   0  0  0  0  0  0  0  0  0  0  0  0
   -0.7570    0.3090   -0.4610 N   0  0  0  0  0  0  0  0  0  0  0  0
    0.5920    0.7400   -0.5020 C   0  0  0  0  0  0  0  0  0  0  0  0
    1.3100    0.9610    0.6640 C   0  0  0  0  0  0  0  0  0  0  0  0
    2.6400    1.3860    0.5770 C   0  0  0  0  0  0  0  0  0  0  0  0
    3.2340    1.5850   -0.6480 C   0  0  0  0  0  0  0  0  0  0  0  0
    4.8780    2.1110   -0.7270 S   0  0  1  0  0  0  0  0  0  0  0  0
    5.1190    2.9400   -1.9700 O   0  0  0  0  0  0  0  0  0  0  0  0
    5.1750    2.9790    0.4660 O   0  0  0  0  0  0  0  0  0  0  0  0
    6.0230    0.7650   -0.7730 C   0  0  0  0  0  0  0  0  0  0  0  0
    5.9420   -0.1260    0.4250 C   0  0  2  0  0  0  0  0  0  0  0  0
    6.2120    0.5370    1.7510 C   0  0  0  0  0  0  0  0  0  0  0  0
    7.0770   -0.6780    2.1060 C   0  0  0  0  0  0  0  0  0  0  0  0
    7.2710   -0.8710    0.6020 C   0  0  0  0  0  0  0  0  0  0  0  0
    2.5330    1.3700   -1.8130 C   0  0  0  0  0  0  0  0  0  0  0  0
    1.2070    0.9460   -1.7160 C   0  0  0  0  0  0  0  0  0  0  0  0
    0.3270    0.6750   -3.1890 Cl  0  0  0  0  0  0  0  0  0  0  0  0
   -2.9290   -1.7510    0.4810 C   0  0  0  0  0  0  0  0  0  0  0  0
   -1.6090   -2.6950    0.9790 S   0  0  0  0  0  0  0  0  0  0  0  0
   -3.8980   -2.4530   -0.1970 N   0  0  0  0  0  0  0  0  0  0  0  0
   -3.7900   -3.9670   -0.1110 C   0  0  0  0  0  0  0  0  0  0  0  0
   -5.1010   -4.3170    0.5880 C   0  0  0  0  0  0  0  0  0  0  0  0
   -6.1450   -4.0160   -0.2420 O   0  0  0  0  0  0  0  0  0  0  0  0
   -6.2960   -2.6570   -0.5390 C   0  0  0  0  0  0  0  0  0  0  0  0
   -4.9770   -2.0960   -1.0530 C   0  0  0  0  0  0  0  0  0  0  0  0
  1  2  2  0
  2  3  1  0
  2  8  1  0
  3  4  2  0
  3  7  1  0
  4  5  1  0
  5  6  2  0
  6  7  1  0
  8  9  1  0
  8 26  1  0
  9 10  1  0
 10 11  1  0
 11 12  2  0
 11 24  1  0
 12 13  1  0
 13 14  2  0
 14 15  1  0
 14 23  1  0
 15 16  2  0
 15 17  2  0
 15 18  1  6
 19 18  1  6
 19 20  1  0
 19 22  1  0
 20 21  1  0
 21 22  1  0
 23 24  2  0
 24 25  1  0
 26 27  2  0
 26 28  1  0
 28 29  1  0
 28 33  1  0
 29 30  1  0
 30 31  1  0
 31 32  1  0
 32 33  1  0
M  END
