
     RDKit          3D

 32 35  0  0  0  0  0  0  0  0999 V2000
    7.3320    0.0080   -0.0980 C   0  0  0  0  0  0  0  0  0  0  0  0
    6.2210    1.0300   -0.1000 C   0  0  1  0  0  0  0  0  0  0  0  0
    6.5570    2.1300   -1.0500 C   0  0  0  0  0  0  0  0  0  0  0  0
    5.4920    3.0200   -1.3670 N   0  0  0  0  0  0  0  0  0  0  0  0
    4.1970    2.6550   -0.8910 C   0  0  0  0  0  0  0  0  0  0  0  0
    3.9340    1.1920   -0.9340 C   0  0  0  0  0  0  0  0  0  0  0  0
    2.8790    0.4060   -1.2880 C   0  0  0  0  0  0  0  0  0  0  0  0
    3.3110   -0.9030   -1.0840 C   0  0  0  0  0  0  0  0  0  0  0  0
    2.5470   -2.1400   -1.3150 C   0  0  0  0  0  0  0  0  0  0  0  0
    1.9490   -2.6720   -0.1070 N   0  0  0  0  0  0  0  0  0  0  0  0
    1.0130   -1.9310    0.6730 C   0  0  0  0  0  0  0  0  0  0  0  0
    0.7290   -0.7930    0.2660 O   0  0  0  0  0  0  0  0  0  0  0  0
    0.4150   -2.4060    1.8390 N   0  0  0  0  0  0  0  0  0  0  0  0
   -0.5490   -1.7670    2.6750 C   0  0  0  0  0  0  0  0  0  0  0  0
   -1.8760   -1.4630    2.1770 C   0  0  1  0  0  0  0  0  0  0  0  0
   -2.0440   -0.5680    0.9810 C   0  0  0  0  0  0  0  0  0  0  0  0
   -3.5320   -0.5040    0.9800 N   0  0  0  0  0  0  0  0  0  0  0  0
   -4.2550    0.6770    0.7580 C   0  0  0  0  0  0  0  0  0  0  0  0
   -3.6470    1.7530    0.5450 O   0  0  0  0  0  0  0  0  0  0  0  0
   -5.6810    0.7470    0.7580 N   0  0  0  0  0  0  0  0  0  0  0  0
   -6.4340    1.9370    0.5340 C   0  0  0  0  0  0  0  0  0  0  0  0
   -6.4760    2.3340   -0.8910 C   0  0  0  0  0  0  0  0  0  0  0  0
   -5.8720    1.6530   -1.9070 C   0  0  0  0  0  0  0  0  0  0  0  0
   -6.1350    2.3080   -3.0070 O   0  0  0  0  0  0  0  0  0  0  0  0
   -6.8720    3.3600   -2.7180 C   0  0  0  0  0  0  0  0  0  0  0  0
   -7.1000    3.3980   -1.3910 N   0  0  0  0  0  0  0  0  0  0  0  0
   -3.9170   -1.8450    1.2400 C   0  0  0  0  0  0  0  0  0  0  0  0
   -5.0650   -2.2960    1.1000 O   0  0  0  0  0  0  0  0  0  0  0  0
   -2.7270   -2.6460    1.7140 C   0  0  2  0  0  0  0  0  0  0  0  0
   -3.0630   -3.5320    2.7840 N   0  0  0  0  0  0  0  0  0  0  0  0
    4.5560   -0.8710   -0.6350 O   0  0  0  0  0  0  0  0  0  0  0  0
    4.9650    0.3690   -0.5310 C   0  0  0  0  0  0  0  0  0  0  0  0
  2  1  1  6
  2  3  1  0
  2 32  1  0
  3  4  1  0
  4  5  1  0
  5  6  1  0
  6  7  1  0
  6 32  2  0
  7  8  2  0
  8  9  1  0
  8 31  1  0
  9 10  1  0
 10 11  1  0
 11 12  2  0
 11 13  1  0
 13 14  1  0
 15 14  1  6
 15 16  1  0
 15 29  1  0
 16 17  1  0
 17 18  1  0
 17 27  1  0
 18 19  2  0
 18 20  1  0
 20 21  1  0
 21 22  1  0
 22 23  2  0
 22 26  1  0
 23 24  1  0
 24 25  1  0
 25 26  2  0
 27 28  2  0
 27 29  1  0
 29 30  1  1
 31 32  1  0
M  END
