
     RDKit          3D

 30 33  0  0  0  0  0  0  0  0999 V2000
   10.3840   -2.3440    0.2220 C   0  0  0  0  0  0  0  0  0  0  0  0
    9.5730   -1.4000    0.6180 C   0  0  0  0  0  0  0  0  0  0  0  0
    8.1610   -1.3490    0.3010 C   0  0  0  0  0  0  0  0  0  0  0  0
    7.3560   -0.3950    0.7040 C   0  0  0  0  0  0  0  0  0  0  0  0
    5.9400   -0.3660    0.3720 C   0  0  0  0  0  0  0  0  0  0  0  0
    5.2780   -1.2390   -0.3280 O   0  0  0  0  0  0  0  0  0  0  0  0
    4.0030   -0.9250   -0.4500 C   0  0  0  0  0  0  0  0  0  0  0  0
    2.9210   -1.5010   -1.0710 C   0  0  0  0  0  0  0  0  0  0  0  0
    1.6450   -0.9130   -1.0260 C   0  0  0  0  0  0  0  0  0  0  0  0
    1.4100    0.2560   -0.3660 C   0  0  0  0  0  0  0  0  0  0  0  0
    0.1550    0.8950   -0.2670 N   0  0  0  0  0  0  0  0  0  0  0  0
   -1.0960    0.3060   -0.5550 C   0  0  0  0  0  0  0  0  0  0  0  0
   -1.1330   -0.8860   -0.9260 O   0  0  0  0  0  0  0  0  0  0  0  0
   -2.3380    1.1190   -0.4100 C   0  0  1  0  0  0  0  0  0  0  0  0
   -2.3230    2.3100   -1.3230 C   0  0  0  0  0  0  0  0  0  0  0  0
   -3.2380    3.4190   -0.7780 C   0  0  0  0  0  0  0  0  0  0  0  0
   -4.3380    2.6790   -0.0510 C   0  0  0  0  0  0  0  0  0  0  0  0
   -4.8450    3.1020    0.9660 O   0  0  0  0  0  0  0  0  0  0  0  0
   -4.7390    1.3840   -0.7060 C   0  0  0  0  0  0  0  0  0  0  0  0
   -3.6080    0.3440   -0.5150 C   0  0  2  0  0  0  0  0  0  0  0  0
   -3.9750   -0.3810    0.7610 C   0  0  0  0  0  0  0  0  0  0  0  0
   -4.5700   -1.7270    0.5290 C   0  0  0  0  0  0  0  0  0  0  0  0
   -5.4820   -1.8530   -0.6380 C   0  0  1  0  0  0  0  0  0  0  0  0
   -6.9540   -1.7240   -0.2250 C   0  0  0  0  0  0  0  0  0  0  0  0
   -5.2110   -0.9570   -1.7930 C   0  0  0  0  0  0  0  0  0  0  0  0
   -3.7320   -0.5430   -1.7220 C   0  0  0  0  0  0  0  0  0  0  0  0
    2.5330    0.8310    0.2640 C   0  0  0  0  0  0  0  0  0  0  0  0
    3.7810    0.2580    0.2210 C   0  0  0  0  0  0  0  0  0  0  0  0
    5.0260    0.5990    0.7390 C   0  0  0  0  0  0  0  0  0  0  0  0
    5.2500    1.8180    1.5440 C   0  0  0  0  0  0  0  0  0  0  0  0
  1  2  2  0
  2  3  1  0
  3  4  2  3
  4  5  1  0
  5  6  1  0
  5 29  2  0
  6  7  1  0
  7  8  2  0
  7 28  1  0
  8  9  1  0
  9 10  2  0
 10 11  1  0
 10 27  1  0
 11 12  1  0
 12 13  2  0
 14 12  1  6
 14 15  1  0
 14 20  1  0
 15 16  1  0
 16 17  1  0
 17 18  2  0
 17 19  1  0
 20 19  1  6
 20 21  1  0
 20 26  1  0
 21 22  1  0
 22 23  1  0
 23 24  1  1
 23 25  1  0
 25 26  1  0
 27 28  2  0
 28 29  1  0
 29 30  1  0
M  END
