
     RDKit          3D

 30 33  0  0  0  0  0  0  0  0999 V2000
    7.4100    0.3950   -3.1980 C   0  0  0  0  0  0  0  0  0  0  0  0
    6.2280    0.3000   -2.3060 C   0  0  0  0  0  0  0  0  0  0  0  0
    5.8070   -0.9330   -1.9020 C   0  0  0  0  0  0  0  0  0  0  0  0
    4.6960   -0.9930   -1.0640 C   0  0  0  0  0  0  0  0  0  0  0  0
    4.0290    0.1330   -0.6450 C   0  0  0  0  0  0  0  0  0  0  0  0
    4.4920    1.3580   -1.0800 C   0  0  0  0  0  0  0  0  0  0  0  0
    5.5910    1.4470   -1.9100 C   0  0  0  0  0  0  0  0  0  0  0  0
    6.0970    2.7590   -2.3840 C   0  0  0  0  0  0  0  0  0  0  0  0
    2.9110   -0.2090    0.2210 C   0  0  0  0  0  0  0  0  0  0  0  0
    1.9440    0.5460    0.8940 C   0  0  0  0  0  0  0  0  0  0  0  0
    0.9800   -0.0620    1.6650 C   0  0  0  0  0  0  0  0  0  0  0  0
   -0.0620    0.6990    2.3920 C   0  0  2  0  0  0  0  0  0  0  0  0
    0.3300    0.8690    3.8690 C   0  0  0  0  0  0  0  0  0  0  0  0
   -1.3700    0.1180    2.2690 N   0  0  0  0  0  0  0  0  0  0  0  0
   -2.4260    0.8330    1.7020 C   0  0  0  0  0  0  0  0  0  0  0  0
   -2.1600    2.0190    1.3030 O   0  0  0  0  0  0  0  0  0  0  0  0
   -3.7800    0.3820    1.5190 C   0  0  0  0  0  0  0  0  0  0  0  0
   -4.6910    1.1610    0.9590 C   0  0  0  0  0  0  0  0  0  0  0  0
   -4.3780    2.4440    0.5250 O   0  0  0  0  0  0  0  0  0  0  0  0
   -6.0860    0.6770    0.7800 C   0  0  0  0  0  0  0  0  0  0  0  0
   -6.0200   -0.7290    0.2400 C   0  0  1  0  0  0  0  0  0  0  0  0
   -7.4650   -1.1990    0.0770 C   0  0  0  0  0  0  0  0  0  0  0  0
   -5.4610   -0.6370   -1.1780 C   0  0  0  0  0  0  0  0  0  0  0  0
   -5.2370   -1.6650    1.0990 C   0  0  0  0  0  0  0  0  0  0  0  0
   -4.2300   -0.9490    1.9430 C   0  0  0  0  0  0  0  0  0  0  0  0
   -3.7560   -1.4470    3.0020 O   0  0  0  0  0  0  0  0  0  0  0  0
    0.9770   -1.4300    1.7670 C   0  0  0  0  0  0  0  0  0  0  0  0
    1.9300   -2.1650    1.1030 C   0  0  0  0  0  0  0  0  0  0  0  0
    2.9230   -1.5770    0.3120 C   0  0  0  0  0  0  0  0  0  0  0  0
    4.0400   -2.1610   -0.4880 C   0  0  0  0  0  0  0  0  0  0  0  0
  1  2  1  0
  2  3  2  0
  2  7  1  0
  3  4  1  0
  4  5  2  0
  4 30  1  0
  5  6  1  0
  5  9  1  0
  6  7  2  0
  7  8  1  0
  9 10  2  0
  9 29  1  0
 10 11  1  0
 11 12  1  0
 11 27  2  0
 12 13  1  1
 12 14  1  0
 14 15  1  0
 15 16  2  0
 15 17  1  0
 17 18  2  0
 17 25  1  0
 18 19  1  0
 18 20  1  0
 20 21  1  0
 21 22  1  6
 21 23  1  0
 21 24  1  0
 24 25  1  0
 25 26  2  0
 27 28  1  0
 28 29  2  0
 29 30  1  0
M  END
