
     RDKit          3D

 30 33  0  0  0  0  0  0  0  0999 V2000
   -8.1240   -1.8820    1.0480 C   0  0  0  0  0  0  0  0  0  0  0  0
   -6.8630   -1.0980    0.8620 C   0  0  0  0  0  0  0  0  0  0  0  0
   -5.7260   -1.6680    0.3630 C   0  0  0  0  0  0  0  0  0  0  0  0
   -4.5730   -0.9410    0.1960 C   0  0  0  0  0  0  0  0  0  0  0  0
   -3.4460   -1.5260   -0.3040 C   0  0  0  0  0  0  0  0  0  0  0  0
   -2.2600   -0.7930   -0.4800 C   0  0  0  0  0  0  0  0  0  0  0  0
   -2.1850    0.5230   -0.1630 C   0  0  0  0  0  0  0  0  0  0  0  0
   -1.0780    1.3450   -0.3040 N   0  0  0  0  0  0  0  0  0  0  0  0
    0.1490    0.9970   -0.9670 C   0  0  0  0  0  0  0  0  0  0  0  0
    0.1940   -0.1370   -1.4450 O   0  0  0  0  0  0  0  0  0  0  0  0
    1.2430    1.9530   -1.0440 C   0  0  0  0  0  0  0  0  0  0  0  0
    2.4520    1.5570   -1.7570 C   0  0  0  0  0  0  0  0  0  0  0  0
    3.1540    0.3650   -1.2510 C   0  0  0  0  0  0  0  0  0  0  0  0
    3.0100   -0.8690   -1.8180 C   0  0  0  0  0  0  0  0  0  0  0  0
    2.2870   -1.1030   -2.9690 O   0  0  0  0  0  0  0  0  0  0  0  0
    3.6200   -1.9590   -1.2340 C   0  0  0  0  0  0  0  0  0  0  0  0
    3.4690   -3.2930   -1.8350 C   0  0  0  0  0  0  0  0  0  0  0  0
    4.3790   -1.8140   -0.0830 C   0  0  0  0  0  0  0  0  0  0  0  0
    4.5310   -0.5820    0.4900 C   0  0  0  0  0  0  0  0  0  0  0  0
    3.9310    0.5200   -0.0720 C   0  0  0  0  0  0  0  0  0  0  0  0
    4.2510    1.6250    0.7090 O   0  0  0  0  0  0  0  0  0  0  0  0
    5.5030    1.3300    1.3200 C   0  0  1  0  0  0  0  0  0  0  0  0
    6.5390    1.4080    0.2140 C   0  0  0  0  0  0  0  0  0  0  0  0
    5.8160    2.1890    2.4920 C   0  0  0  0  0  0  0  0  0  0  0  0
    5.2770   -0.1420    1.6970 C   0  0  0  0  0  0  0  0  0  0  0  0
   -3.3680    1.0930    0.3500 C   0  0  0  0  0  0  0  0  0  0  0  0
   -4.5230    0.3830    0.5230 C   0  0  0  0  0  0  0  0  0  0  0  0
   -5.6710    0.9570    1.0270 C   0  0  0  0  0  0  0  0  0  0  0  0
   -6.8310    0.2320    1.1970 C   0  0  0  0  0  0  0  0  0  0  0  0
   -8.0680    0.8520    1.7410 C   0  0  0  0  0  0  0  0  0  0  0  0
  1  2  1  0
  2  3  2  0
  2 29  1  0
  3  4  1  0
  4  5  2  0
  4 27  1  0
  5  6  1  0
  6  7  2  0
  7  8  1  0
  7 26  1  0
  8  9  1  0
  9 10  2  0
  9 11  1  0
 11 12  1  0
 12 13  1  0
 13 14  2  0
 13 20  1  0
 14 15  1  0
 14 16  1  0
 16 17  1  0
 16 18  2  0
 18 19  1  0
 19 20  2  0
 19 25  1  0
 20 21  1  0
 21 22  1  0
 22 23  1  6
 22 24  1  0
 22 25  1  0
 26 27  2  0
 27 28  1  0
 28 29  2  0
 29 30  1  0
M  END
