
     RDKit          3D

 29 32  0  0  0  0  0  0  0  0999 V2000
    7.5230    0.8100    1.5470 C   0  0  0  0  0  0  0  0  0  0  0  0
    6.2300    0.5000    0.9080 C   0  0  0  0  0  0  0  0  0  0  0  0
    5.7310    1.3900   -0.0300 C   0  0  0  0  0  0  0  0  0  0  0  0
    4.5520    1.1440   -0.6860 C   0  0  0  0  0  0  0  0  0  0  0  0
    4.0340    2.0870   -1.7260 C   0  0  0  0  0  0  0  0  0  0  0  0
    3.8440   -0.0520   -0.3810 C   0  0  0  0  0  0  0  0  0  0  0  0
    2.5820   -0.1660   -1.1150 C   0  0  1  0  0  0  0  0  0  0  0  0
    2.4850   -1.4100   -2.0230 C   0  0  0  0  0  0  0  0  0  0  0  0
    1.0830   -1.4820   -2.6210 C   0  0  0  0  0  0  0  0  0  0  0  0
    0.3430   -0.1690   -2.3000 C   0  0  0  0  0  0  0  0  0  0  0  0
    0.0650   -0.2800   -0.8030 C   0  0  2  0  0  0  0  0  0  0  0  0
   -0.9200    0.4880   -0.2690 O   0  0  0  0  0  0  0  0  0  0  0  0
   -2.1930    0.1130    0.0030 C   0  0  0  0  0  0  0  0  0  0  0  0
   -2.3650   -1.1470   -0.3560 O   0  0  0  0  0  0  0  0  0  0  0  0
   -3.3240    0.7970    0.5750 C   0  0  0  0  0  0  0  0  0  0  0  0
   -3.4280    2.0280    1.0680 N   0  0  0  0  0  0  0  0  0  0  0  0
   -4.7140    2.2510    1.4920 C   0  0  0  0  0  0  0  0  0  0  0  0
   -5.2250    3.5050    2.1080 C   0  0  0  0  0  0  0  0  0  0  0  0
   -5.4690    1.1420    1.2720 C   0  0  0  0  0  0  0  0  0  0  0  0
   -4.5740    0.2210    0.6870 C   0  0  0  0  0  0  0  0  0  0  0  0
   -5.1880   -1.0870    0.3440 C   0  0  0  0  0  0  0  0  0  0  0  0
   -6.5340   -0.8790   -0.3380 C   0  0  0  0  0  0  0  0  0  0  0  0
   -7.5170   -0.2450    0.6300 C   0  0  0  0  0  0  0  0  0  0  0  0
   -6.8590    0.7560    1.4730 C   0  0  0  0  0  0  0  0  0  0  0  0
   -7.5100    1.3330    2.4180 O   0  0  0  0  0  0  0  0  0  0  0  0
    1.3990   -0.4380   -0.1580 C   0  0  0  0  0  0  0  0  0  0  0  0
    4.2910   -0.9480    0.5330 C   0  0  0  0  0  0  0  0  0  0  0  0
    3.5790   -2.1370    1.0090 C   0  0  0  0  0  0  0  0  0  0  0  0
    5.5210   -0.6230    1.1720 C   0  0  0  0  0  0  0  0  0  0  0  0
  1  2  1  0
  2  3  2  0
  2 29  1  0
  3  4  1  0
  4  5  1  0
  4  6  2  0
  7  6  1  1
  6 27  1  0
  7  8  1  0
  7 26  1  0
  8  9  1  0
  9 10  1  0
 10 11  1  0
 11 12  1  1
 11 26  1  0
 12 13  1  0
 13 14  2  0
 13 15  1  0
 15 16  1  0
 15 20  2  0
 16 17  1  0
 17 18  1  0
 17 19  2  0
 19 20  1  0
 19 24  1  0
 20 21  1  0
 21 22  1  0
 22 23  1  0
 23 24  1  0
 24 25  2  0
 27 28  1  0
 27 29  2  0
M  END
