
     RDKit          3D

 31 34  0  0  0  0  0  0  0  0999 V2000
   -4.4890    6.0960   -1.1760 C   0  0  0  0  0  0  0  0  0  0  0  0
   -3.6990    5.1460   -1.8500 O   0  0  0  0  0  0  0  0  0  0  0  0
   -3.3330    3.9560   -1.2470 C   0  0  0  0  0  0  0  0  0  0  0  0
   -3.7290    3.6610    0.0330 C   0  0  0  0  0  0  0  0  0  0  0  0
   -3.3810    2.4850    0.6610 C   0  0  0  0  0  0  0  0  0  0  0  0
   -2.6010    1.5630   -0.0230 C   0  0  0  0  0  0  0  0  0  0  0  0
   -2.1940    1.8410   -1.3070 C   0  0  0  0  0  0  0  0  0  0  0  0
   -1.4130    0.9240   -1.9990 O   0  0  0  0  0  0  0  0  0  0  0  0
   -1.0650   -0.3320   -1.2750 C   0  0  0  0  0  0  0  0  0  0  0  0
   -2.0440   -1.1560   -1.3380 C   0  0  0  0  0  0  0  0  0  0  0  0
   -2.4010   -2.4550   -0.9090 C   0  0  0  0  0  0  0  0  0  0  0  0
   -3.6080   -2.8460   -1.2700 O   0  0  0  0  0  0  0  0  0  0  0  0
   -1.7410   -3.4410   -0.1680 N   0  0  0  0  0  0  0  0  0  0  0  0
   -2.3800   -4.7420    0.1360 C   0  0  1  0  0  0  0  0  0  0  0  0
   -1.4880   -5.9660    0.1020 C   0  0  0  0  0  0  0  0  0  0  0  0
   -1.9540   -5.3940    1.4100 C   0  0  0  0  0  0  0  0  0  0  0  0
    0.2470   -0.2120   -0.7440 C   0  0  0  0  0  0  0  0  0  0  0  0
    0.8500    0.9310   -0.9930 O   0  0  0  0  0  0  0  0  0  0  0  0
    1.0460   -1.0690    0.0010 N   0  0  0  0  0  0  0  0  0  0  0  0
    2.3870   -0.7970    0.4750 C   0  0  0  0  0  0  0  0  0  0  0  0
    3.2120    0.2530    0.3680 C   0  0  0  0  0  0  0  0  0  0  0  0
    4.4370    0.1930    0.9410 C   0  0  0  0  0  0  0  0  0  0  0  0
    5.4320    1.1940    0.9320 C   0  0  0  0  0  0  0  0  0  0  0  0
    6.6230    0.9880    1.5560 C   0  0  0  0  0  0  0  0  0  0  0  0
    7.5960    2.0030    1.5300 O   0  0  0  0  0  0  0  0  0  0  0  0
    6.9640   -0.1610    2.2290 C   0  0  0  0  0  0  0  0  0  0  0  0
    5.9940   -1.1580    2.2480 C   0  0  0  0  0  0  0  0  0  0  0  0
    4.7770   -0.9350    1.6040 C   0  0  0  0  0  0  0  0  0  0  0  0
    3.3250   -1.9560    1.4190 S   0  0  0  0  0  0  0  0  0  0  0  0
   -2.5630    3.0370   -1.9110 C   0  0  0  0  0  0  0  0  0  0  0  0
   -2.1320    3.2660   -3.1920 F   0  0  0  0  0  0  0  0  0  0  0  0
  1  2  1  0
  2  3  1  0
  3  4  2  0
  3 30  1  0
  4  5  1  0
  5  6  2  0
  6  7  1  0
  7  8  1  0
  7 30  2  0
  8  9  1  0
  9 10  2  3
  9 17  1  0
 10 11  1  0
 11 12  2  0
 11 13  1  0
 14 13  1  1
 14 15  1  0
 14 16  1  0
 15 16  1  0
 17 18  2  0
 17 19  1  0
 19 20  1  0
 20 21  2  0
 20 29  1  0
 21 22  1  0
 22 23  2  0
 22 28  1  0
 23 24  1  0
 24 25  1  0
 24 26  2  0
 26 27  1  0
 27 28  2  0
 28 29  1  0
 30 31  1  0
M  END
