
     RDKit          3D

 31 33  0  0  0  0  0  0  0  0999 V2000
   -1.0230    0.1700    0.4880 C   0  0  0  0  0  0  0  0  0  0  0  0
   -0.8100    1.6480    0.6130 C   0  0  2  0  0  0  0  0  0  0  0  0
    0.5630    2.1370    0.6690 C   0  0  0  0  0  0  0  0  0  0  0  0
    1.5400    1.9370   -0.3900 C   0  0  0  0  0  0  0  0  0  0  0  0
    1.9890    0.5730   -0.7070 C   0  0  0  0  0  0  0  0  0  0  0  0
    2.6320    0.3580   -1.8110 O   0  0  0  0  0  0  0  0  0  0  0  0
    1.8140   -0.5610    0.0450 O   0  0  0  0  0  0  0  0  0  0  0  0
    2.2650   -1.8540   -0.2690 C   0  0  0  0  0  0  0  0  0  0  0  0
    3.7190   -1.9820   -0.3050 C   0  0  0  0  0  0  0  0  0  0  0  0
    4.1750   -3.1180   -0.6610 O   0  0  0  0  0  0  0  0  0  0  0  0
    4.6210   -0.9350    0.0310 N   0  0  0  0  0  0  0  0  0  0  0  0
    6.0060   -1.2380   -0.0500 C   0  0  0  0  0  0  0  0  0  0  0  0
    6.8320   -1.1750    0.9840 C   0  0  0  0  0  0  0  0  0  0  0  0
    8.1780   -1.5650    0.4850 C   0  0  0  0  0  0  0  0  0  0  0  0
    8.0060   -1.8540   -0.9510 C   0  0  0  0  0  0  0  0  0  0  0  0
    6.7240   -1.6550   -1.2390 C   0  0  0  0  0  0  0  0  0  0  0  0
    6.1710   -1.8220   -2.4770 F   0  0  0  0  0  0  0  0  0  0  0  0
   -1.4620    2.0630    1.9560 C   0  0  0  0  0  0  0  0  0  0  0  0
   -2.8830    2.4390    1.7830 C   0  0  0  0  0  0  0  0  0  0  0  0
   -3.4050    3.3150    2.4850 O   0  0  0  0  0  0  0  0  0  0  0  0
   -3.6000    1.7430    0.7740 N   0  0  0  0  0  0  0  0  0  0  0  0
   -2.9960    1.6450   -0.3880 C   0  0  0  0  0  0  0  0  0  0  0  0
   -3.7850    0.7920   -1.7490 S   0  0  0  0  0  0  0  0  0  0  0  0
   -5.3470    0.0830   -1.2130 C   0  0  0  0  0  0  0  0  0  0  0  0
   -6.5440    0.7520   -1.2700 C   0  0  0  0  0  0  0  0  0  0  0  0
   -7.7190    0.1690   -0.8430 C   0  0  0  0  0  0  0  0  0  0  0  0
   -7.7420   -1.1100   -0.3430 C   0  0  0  0  0  0  0  0  0  0  0  0
   -6.5590   -1.8040   -0.2750 C   0  0  0  0  0  0  0  0  0  0  0  0
   -6.6040   -3.1010    0.2360 O   0  0  0  0  0  0  0  0  0  0  0  0
   -5.3750   -1.2160   -0.7040 C   0  0  0  0  0  0  0  0  0  0  0  0
   -1.6630    2.2870   -0.4720 C   0  0  0  0  0  0  0  0  0  0  0  0
  2  1  1  6
  2  3  1  0
  2 18  1  0
  2 31  1  0
  3  4  1  0
  4  5  1  0
  5  6  2  0
  5  7  1  0
  7  8  1  0
  8  9  1  0
  9 10  2  0
  9 11  1  0
 11 12  1  0
 12 13  2  0
 12 16  1  0
 13 14  1  0
 14 15  1  0
 15 16  2  0
 16 17  1  0
 18 19  1  0
 19 20  2  0
 19 21  1  0
 21 22  2  0
 22 23  1  0
 22 31  1  0
 23 24  1  0
 24 25  2  0
 24 30  1  0
 25 26  1  0
 26 27  2  0
 27 28  1  0
 28 29  1  0
 28 30  2  0
M  END
