
     RDKit          3D

 30 33  0  0  0  0  0  0  0  0999 V2000
   -4.6270    1.1410   -3.1740 C   0  0  0  0  0  0  0  0  0  0  0  0
   -4.5790    1.1930   -1.6380 C   0  0  2  0  0  0  0  0  0  0  0  0
   -5.4310    2.3790   -1.2300 C   0  0  0  0  0  0  0  0  0  0  0  0
   -3.1540    1.4430   -1.2650 C   0  0  0  0  0  0  0  0  0  0  0  0
   -2.5740    0.4500   -0.3570 C   0  0  0  0  0  0  0  0  0  0  0  0
   -1.1770    0.4630   -0.2420 C   0  0  0  0  0  0  0  0  0  0  0  0
   -0.5150   -0.4190    0.5770 C   0  0  0  0  0  0  0  0  0  0  0  0
    0.8700   -0.4000    0.6850 O   0  0  0  0  0  0  0  0  0  0  0  0
    1.5900   -1.1920   -0.1950 C   0  0  0  0  0  0  0  0  0  0  0  0
    1.0630   -1.9140   -1.0710 O   0  0  0  0  0  0  0  0  0  0  0  0
    3.0910   -1.1810   -0.0900 C   0  0  0  0  0  0  0  0  0  0  0  0
    3.6560   -0.4520    0.7960 C   0  0  0  0  0  0  0  0  0  0  0  0
    5.0200   -0.2350    1.1200 C   0  0  0  0  0  0  0  0  0  0  0  0
    5.2850    0.1030    2.4730 C   0  0  0  0  0  0  0  0  0  0  0  0
    6.5680    0.3400    2.8480 C   0  0  0  0  0  0  0  0  0  0  0  0
    7.6150    0.2650    1.9610 C   0  0  0  0  0  0  0  0  0  0  0  0
    7.4010   -0.0580    0.6280 C   0  0  0  0  0  0  0  0  0  0  0  0
    8.4510   -0.0820   -0.2580 C   0  0  0  0  0  0  0  0  0  0  0  0
    9.6350    0.1340    0.1090 O   0  0  0  0  0  0  0  0  0  0  0  0
    8.2550   -0.3370   -1.5610 N   0  0  0  0  0  0  0  0  0  0  0  0
    7.0040   -0.5680   -1.9770 C   0  0  0  0  0  0  0  0  0  0  0  0
    5.9150   -0.5530   -1.0990 C   0  0  0  0  0  0  0  0  0  0  0  0
    6.0820   -0.2990    0.2500 C   0  0  0  0  0  0  0  0  0  0  0  0
   -1.2810   -1.3360    1.2970 C   0  0  0  0  0  0  0  0  0  0  0  0
   -2.6580   -1.3630    1.1960 C   0  0  0  0  0  0  0  0  0  0  0  0
   -3.3020   -0.4670    0.3670 C   0  0  0  0  0  0  0  0  0  0  0  0
   -4.7650   -0.4700    0.2370 C   0  0  1  0  0  0  0  0  0  0  0  0
   -5.3650   -1.8460    0.5090 C   0  0  0  0  0  0  0  0  0  0  0  0
   -5.3180    0.4940    1.2720 C   0  0  0  0  0  0  0  0  0  0  0  0
   -5.1370   -0.0980   -1.1530 C   0  0  0  0  0  0  0  0  0  0  0  0
  2  1  1  6
  2  3  1  0
  2  4  1  0
  2 30  1  0
  4  5  1  0
  5  6  2  0
  5 26  1  0
  6  7  1  0
  7  8  1  0
  7 24  2  0
  8  9  1  0
  9 10  2  0
  9 11  1  0
 11 12  2  3
 12 13  1  0
 13 14  2  0
 13 23  1  0
 14 15  1  0
 15 16  2  0
 16 17  1  0
 17 18  1  0
 17 23  2  0
 18 19  2  0
 18 20  1  0
 20 21  1  0
 21 22  2  0
 22 23  1  0
 24 25  1  0
 25 26  2  0
 26 27  1  0
 27 28  1  1
 27 29  1  0
 27 30  1  0
M  END
