
     RDKit          3D

 30 33  0  0  0  0  0  0  0  0999 V2000
    7.1560   -1.2170   -0.7150 C   0  0  0  0  0  0  0  0  0  0  0  0
    5.7760   -0.5910   -0.7290 C   0  0  0  0  0  0  0  0  0  0  0  0
    5.4530    0.0380    0.6150 C   0  0  0  0  0  0  0  0  0  0  0  0
    4.0940    0.6220    0.5120 C   0  0  0  0  0  0  0  0  0  0  0  0
    2.9850   -0.0260    1.0860 C   0  0  0  0  0  0  0  0  0  0  0  0
    1.7180    0.5040    0.9990 C   0  0  0  0  0  0  0  0  0  0  0  0
    0.5490   -0.1360    1.5820 C   0  0  0  0  0  0  0  0  0  0  0  0
    0.7620   -0.8840    2.5990 O   0  0  0  0  0  0  0  0  0  0  0  0
   -0.7950    0.0580    1.0460 C   0  0  0  0  0  0  0  0  0  0  0  0
   -1.5140    1.1760    1.3450 C   0  0  0  0  0  0  0  0  0  0  0  0
   -2.7790    1.2880    0.8180 C   0  0  0  0  0  0  0  0  0  0  0  0
   -3.4920    2.4450    1.1040 C   0  0  0  0  0  0  0  0  0  0  0  0
   -4.7470    2.6500    0.5940 C   0  0  0  0  0  0  0  0  0  0  0  0
   -5.4730    3.9010    0.9270 C   0  0  0  0  0  0  0  0  0  0  0  0
   -5.3160    1.7030   -0.2150 C   0  0  0  0  0  0  0  0  0  0  0  0
   -4.6240    0.5200   -0.5250 C   0  0  0  0  0  0  0  0  0  0  0  0
   -3.3810    0.3340   -0.0050 C   0  0  0  0  0  0  0  0  0  0  0  0
   -2.6340   -0.8070   -0.2990 C   0  0  0  0  0  0  0  0  0  0  0  0
   -3.1530   -1.7930   -1.0850 C   0  0  0  0  0  0  0  0  0  0  0  0
   -4.5040   -1.8220   -1.6080 C   0  0  0  0  0  0  0  0  0  0  0  0
   -2.3100   -2.9110   -1.3280 C   0  0  0  0  0  0  0  0  0  0  0  0
   -1.0800   -3.0070   -0.8200 N   0  0  0  0  0  0  0  0  0  0  0  0
   -0.2830   -4.1890   -1.1240 C   0  0  0  0  0  0  0  0  0  0  0  0
   -0.5770   -2.0480   -0.0490 C   0  0  0  0  0  0  0  0  0  0  0  0
    0.5910   -2.1520    0.4260 O   0  0  0  0  0  0  0  0  0  0  0  0
   -1.3240   -0.9340    0.2370 C   0  0  0  0  0  0  0  0  0  0  0  0
    1.5590    1.7040    0.3270 C   0  0  0  0  0  0  0  0  0  0  0  0
    2.6430    2.3580   -0.2450 C   0  0  0  0  0  0  0  0  0  0  0  0
    3.9070    1.8060   -0.1460 C   0  0  0  0  0  0  0  0  0  0  0  0
    4.9960    2.4950   -0.7450 O   0  0  0  0  0  0  0  0  0  0  0  0
  1  2  1  0
  2  3  1  0
  3  4  1  0
  4  5  2  0
  4 29  1  0
  5  6  1  0
  6  7  1  0
  6 27  2  0
  7  8  2  0
  7  9  1  0
  9 10  2  0
  9 26  1  0
 10 11  1  0
 11 12  2  0
 11 17  1  0
 12 13  1  0
 13 14  1  0
 13 15  2  0
 15 16  1  0
 16 17  2  0
 17 18  1  0
 18 19  1  0
 18 26  2  0
 19 20  1  0
 19 21  2  0
 21 22  1  0
 22 23  1  0
 22 24  1  0
 24 25  2  0
 24 26  1  0
 27 28  1  0
 28 29  2  0
 29 30  1  0
M  END
