
     RDKit          3D

 34 37  0  0  0  0  0  0  0  0999 V2000
    6.1980   -2.8670   -2.4690 C   0  0  0  0  0  0  0  0  0  0  0  0
    5.1970   -1.3600   -2.4200 S   0  0  0  0  0  0  0  0  0  0  0  0
    3.8470   -1.5900   -1.2380 C   0  0  0  0  0  0  0  0  0  0  0  0
    2.9080   -2.6270   -1.7270 C   0  0  0  0  0  0  0  0  0  0  0  0
    3.1400   -3.2500   -2.9310 C   0  0  0  0  0  0  0  0  0  0  0  0
    2.2720   -4.2290   -3.4180 C   0  0  0  0  0  0  0  0  0  0  0  0
    2.5450   -4.8920   -4.7300 C   0  0  0  0  0  0  0  0  0  0  0  0
    1.1860   -4.5320   -2.6360 C   0  0  0  0  0  0  0  0  0  0  0  0
    0.9520   -3.9120   -1.4340 C   0  0  0  0  0  0  0  0  0  0  0  0
   -0.2570   -4.3110   -0.6590 C   0  0  0  0  0  0  0  0  0  0  0  0
    1.8110   -2.9550   -0.9710 C   0  0  0  0  0  0  0  0  0  0  0  0
    1.5360   -2.3220    0.2900 N   0  0  0  0  0  0  0  0  0  0  0  0
    0.7500   -1.1590    0.3860 C   0  0  0  0  0  0  0  0  0  0  0  0
    0.2940   -0.6990   -0.7170 O   0  0  0  0  0  0  0  0  0  0  0  0
    0.4490   -0.4900    1.6360 C   0  0  0  0  0  0  0  0  0  0  0  0
    0.9830   -0.9100    2.8170 C   0  0  0  0  0  0  0  0  0  0  0  0
    0.6540   -0.2240    3.9910 C   0  0  0  0  0  0  0  0  0  0  0  0
   -0.1850    0.8550    3.9970 C   0  0  0  0  0  0  0  0  0  0  0  0
   -0.5200    1.5680    5.2540 C   0  0  0  0  0  0  0  0  0  0  0  0
   -0.7410    1.2990    2.7950 C   0  0  0  0  0  0  0  0  0  0  0  0
   -1.5950    2.4170    2.8810 N   0  0  0  0  0  0  0  0  0  0  0  0
   -2.2580    3.0020    1.7810 C   0  0  0  0  0  0  0  0  0  0  0  0
   -2.1910    2.6020    0.5150 N   0  0  0  0  0  0  0  0  0  0  0  0
   -2.8190    3.1530   -0.5260 C   0  0  0  0  0  0  0  0  0  0  0  0
   -3.6340    4.2570   -0.3050 C   0  0  0  0  0  0  0  0  0  0  0  0
   -3.7330    4.7030    0.9790 C   0  0  0  0  0  0  0  0  0  0  0  0
   -3.0630    4.0900    1.9950 N   0  0  0  0  0  0  0  0  0  0  0  0
   -4.5870    5.8110    1.0110 O   0  0  0  0  0  0  0  0  0  0  0  0
   -5.0490    6.0930   -0.2520 C   0  0  0  0  0  0  0  0  0  0  0  0
   -5.8600    7.0610   -0.5640 N   0  0  0  0  0  0  0  0  0  0  0  0
   -6.2460    7.2240   -1.9190 C   0  0  0  0  0  0  0  0  0  0  0  0
   -6.7570    6.2450   -2.5500 O   0  0  0  0  0  0  0  0  0  0  0  0
   -4.4620    5.1090   -1.1750 C   0  0  0  0  0  0  0  0  0  0  0  0
   -0.4110    0.6170    1.6480 C   0  0  0  0  0  0  0  0  0  0  0  0
  1  2  1  0
  2  3  1  0
  3  4  1  0
  4  5  2  0
  4 11  1  0
  5  6  1  0
  6  7  1  0
  6  8  2  0
  8  9  1  0
  9 10  1  0
  9 11  2  0
 11 12  1  0
 12 13  1  0
 13 14  2  0
 13 15  1  0
 15 16  2  0
 15 34  1  0
 16 17  1  0
 17 18  2  0
 18 19  1  0
 18 20  1  0
 20 21  1  0
 20 34  2  0
 21 22  1  0
 22 23  2  0
 22 27  1  0
 23 24  1  0
 24 25  2  0
 25 26  1  0
 25 33  1  0
 26 27  2  0
 26 28  1  0
 28 29  1  0
 29 30  2  3
 29 33  1  0
 30 31  1  0
 31 32  2  0
M  END
