
     RDKit          3D

 35 39  0  0  0  0  0  0  0  0999 V2000
    5.9030    2.3700    0.0830 C   0  0  0  0  0  0  0  0  0  0  0  0
    4.8650    1.7060    0.9210 C   0  0  2  0  0  0  0  0  0  0  0  0
    5.4940    0.6830    1.8240 C   0  0  0  0  0  0  0  0  0  0  0  0
    5.3020   -0.5570    1.1050 N   0  0  0  0  0  0  0  0  0  0  0  0
    6.0960   -1.7580    1.2160 C   0  0  0  0  0  0  0  0  0  0  0  0
    5.9000   -2.3990    2.5950 C   0  0  0  0  0  0  0  0  0  0  0  0
    6.4020   -1.2620    3.8660 Cl  0  0  0  0  0  0  0  0  0  0  0  0
    4.1640   -0.3910    0.2550 C   0  0  0  0  0  0  0  0  0  0  0  0
    3.8910    0.8910    0.1320 C   0  0  0  0  0  0  0  0  0  0  0  0
    2.7740    1.3810   -0.6380 C   0  0  0  0  0  0  0  0  0  0  0  0
    1.9610    0.4980   -1.2680 C   0  0  0  0  0  0  0  0  0  0  0  0
    0.8950    1.1390   -1.9670 C   0  0  0  0  0  0  0  0  0  0  0  0
    0.8520    2.3180   -2.3570 O   0  0  0  0  0  0  0  0  0  0  0  0
   -0.3120    0.4360   -2.2240 N   0  0  0  0  0  0  0  0  0  0  0  0
   -1.2690    1.1350   -2.9580 C   0  0  0  0  0  0  0  0  0  0  0  0
   -2.4500    0.8590   -2.7500 N   0  0  0  0  0  0  0  0  0  0  0  0
   -3.0050   -0.0250   -1.8950 N   0  0  0  0  0  0  0  0  0  0  0  0
   -3.6560    0.3130   -0.7630 C   0  0  0  0  0  0  0  0  0  0  0  0
   -3.9790    1.6580   -0.2250 C   0  0  1  0  0  0  0  0  0  0  0  0
   -5.4630    1.8420   -0.2430 C   0  0  0  0  0  0  0  0  0  0  0  0
   -6.1420    1.0880    0.8790 C   0  0  0  0  0  0  0  0  0  0  0  0
   -5.6900    1.5680    2.2430 C   0  0  0  0  0  0  0  0  0  0  0  0
   -4.4350    2.3820    2.1310 C   0  0  0  0  0  0  0  0  0  0  0  0
   -3.4390    1.8300    1.1680 C   0  0  0  0  0  0  0  0  0  0  0  0
   -3.9850   -0.8370   -0.1570 N   0  0  0  0  0  0  0  0  0  0  0  0
   -3.5640   -1.8820   -0.8660 C   0  0  0  0  0  0  0  0  0  0  0  0
   -3.6510   -3.2550   -0.6820 C   0  0  0  0  0  0  0  0  0  0  0  0
   -3.1240   -4.1320   -1.5900 C   0  0  0  0  0  0  0  0  0  0  0  0
   -2.4950   -3.6360   -2.7090 C   0  0  0  0  0  0  0  0  0  0  0  0
   -2.4210   -2.2680   -2.8700 C   0  0  0  0  0  0  0  0  0  0  0  0
   -2.9360   -1.3720   -1.9810 C   0  0  0  0  0  0  0  0  0  0  0  0
    2.2160   -0.8780   -1.1970 C   0  0  0  0  0  0  0  0  0  0  0  0
    1.8500   -1.7880   -2.0670 C   0  0  0  0  0  0  0  0  0  0  0  0
    0.9870   -1.5090   -3.5410 Cl  0  0  0  0  0  0  0  0  0  0  0  0
    3.3680   -1.3640   -0.3920 N   0  0  0  0  0  0  0  0  0  0  0  0
  2  1  1  6
  2  3  1  0
  2  9  1  0
  3  4  1  0
  4  5  1  0
  4  8  1  0
  5  6  1  0
  6  7  1  0
  8  9  2  0
  8 35  1  0
  9 10  1  0
 10 11  2  0
 11 12  1  0
 11 32  1  0
 12 13  2  0
 12 14  1  0
 14 15  1  0
 15 16  2  3
 16 17  1  0
 17 18  1  0
 17 31  1  0
 19 18  1  1
 18 25  2  0
 19 20  1  0
 19 24  1  0
 20 21  1  0
 21 22  1  0
 22 23  1  0
 23 24  1  0
 25 26  1  0
 26 27  2  0
 26 31  1  0
 27 28  1  0
 28 29  2  0
 29 30  1  0
 30 31  2  0
 32 33  2  3
 32 35  1  0
 33 34  1  0
M  END
