
     RDKit          3D

 35 39  0  0  0  0  0  0  0  0999 V2000
   -3.5820    4.0820   -1.7210 C   0  0  0  0  0  0  0  0  0  0  0  0
   -2.3140    4.2400   -1.5170 C   0  0  0  0  0  0  0  0  0  0  0  0
   -1.3340    3.2240   -1.1700 C   0  0  0  0  0  0  0  0  0  0  0  0
   -0.0990    3.6400   -1.0110 C   0  0  0  0  0  0  0  0  0  0  0  0
    0.2820    5.0820   -1.1770 C   0  0  2  0  0  0  0  0  0  0  0  0
    2.0550    5.2900   -1.1270 Cl  0  0  0  0  0  0  0  0  0  0  0  0
   -0.3790    6.0920    0.1260 Cl  0  0  0  0  0  0  0  0  0  0  0  0
   -1.7300    1.8150   -1.0060 C   0  0  0  0  0  0  0  0  0  0  0  0
   -2.9570    1.4830   -1.1770 N   0  0  0  0  0  0  0  0  0  0  0  0
   -3.5430    0.1760   -1.0590 C   0  0  0  0  0  0  0  0  0  0  0  0
   -2.5260   -0.9000   -1.1590 C   0  0  2  0  0  0  0  0  0  0  0  0
   -2.9640   -2.2630   -0.8370 C   0  0  0  0  0  0  0  0  0  0  0  0
   -2.1410   -3.1630   -0.3680 C   0  0  0  0  0  0  0  0  0  0  0  0
   -2.5020   -4.5680   -0.0280 C   0  0  0  0  0  0  0  0  0  0  0  0
   -3.9200   -4.9300   -0.2580 C   0  0  0  0  0  0  0  0  0  0  0  0
   -4.7880   -3.8790   -0.7840 C   0  0  0  0  0  0  0  0  0  0  0  0
   -4.3710   -2.6750   -1.0490 C   0  0  0  0  0  0  0  0  0  0  0  0
   -0.7850   -2.8030   -0.0160 N   0  0  0  0  0  0  0  0  0  0  0  0
   -0.3260   -1.4760   -0.1540 C   0  0  0  0  0  0  0  0  0  0  0  0
    0.9510   -1.1710    0.2200 N   0  0  0  0  0  0  0  0  0  0  0  0
    1.3520    0.1010    0.1220 C   0  0  0  0  0  0  0  0  0  0  0  0
    2.5270    0.4330    0.4200 N   0  0  0  0  0  0  0  0  0  0  0  0
    3.6920   -0.1050    0.8630 C   0  0  0  0  0  0  0  0  0  0  0  0
    4.2450   -1.3000    0.5170 C   0  0  0  0  0  0  0  0  0  0  0  0
    5.4390   -1.7740    0.9940 C   0  0  0  0  0  0  0  0  0  0  0  0
    5.9400   -3.0360    0.6020 C   0  0  0  0  0  0  0  0  0  0  0  0
    6.3430   -4.0600    0.2640 N   0  0  0  0  0  0  0  0  0  0  0  0
    6.1520   -0.9810    1.9020 C   0  0  0  0  0  0  0  0  0  0  0  0
    5.6390    0.2120    2.2720 C   0  0  0  0  0  0  0  0  0  0  0  0
    4.4130    0.7190    1.7960 C   0  0  0  0  0  0  0  0  0  0  0  0
    4.0010    1.8490    2.1930 O   0  0  0  0  0  0  0  0  0  0  0  0
    3.5870    3.0070    2.6060 C   0  0  0  0  0  0  0  0  0  0  0  0
    0.4920    1.0510   -0.3330 N   0  0  0  0  0  0  0  0  0  0  0  0
   -0.7540    0.7810   -0.6980 C   0  0  0  0  0  0  0  0  0  0  0  0
   -1.2090   -0.5430   -0.6210 C   0  0  0  0  0  0  0  0  0  0  0  0
  1  2  2  0
  2  3  1  0
  3  4  2  3
  3  8  1  0
  4  5  1  0
  5  6  1  1
  5  7  1  0
  8  9  2  0
  8 34  1  0
  9 10  1  0
 11 10  1  1
 11 12  1  0
 11 35  1  0
 12 13  2  0
 12 17  1  0
 13 14  1  0
 13 18  1  0
 14 15  1  0
 15 16  1  0
 16 17  2  0
 18 19  1  0
 19 20  1  0
 19 35  2  0
 20 21  1  0
 21 22  2  3
 21 33  1  0
 22 23  1  0
 23 24  2  0
 23 30  1  0
 24 25  1  0
 25 26  1  0
 25 28  2  0
 26 27  3  0
 28 29  1  0
 29 30  2  0
 30 31  1  0
 31 32  1  0
 33 34  2  0
 34 35  1  0
M  END
