
     RDKit          3D

 35 39  0  0  0  0  0  0  0  0999 V2000
   -7.1980    2.3010   -0.4330 C   0  0  0  0  0  0  0  0  0  0  0  0
   -6.1210    2.4070    0.6530 C   0  0  0  0  0  0  0  0  0  0  0  0
   -4.8410    2.9000    0.0600 C   0  0  0  0  0  0  0  0  0  0  0  0
   -4.2520    2.0620   -0.9970 C   0  0  0  0  0  0  0  0  0  0  0  0
   -3.7540    0.7020   -0.6810 C   0  0  0  0  0  0  0  0  0  0  0  0
   -2.6320    0.6450    0.2420 N   0  0  0  0  0  0  0  0  0  0  0  0
   -1.3260    0.8190   -0.1210 C   0  0  0  0  0  0  0  0  0  0  0  0
   -0.9060    1.1140   -1.4910 C   0  0  0  0  0  0  0  0  0  0  0  0
    0.4750    0.8820   -1.7630 N   0  0  0  0  0  0  0  0  0  0  0  0
    1.2390   -0.2620   -1.5630 C   0  0  0  0  0  0  0  0  0  0  0  0
    0.8200   -1.5060   -1.4760 C   0  0  0  0  0  0  0  0  0  0  0  0
   -0.5890   -1.7760   -1.6080 C   0  0  0  0  0  0  0  0  0  0  0  0
   -1.7240   -1.9730   -1.7150 N   0  0  0  0  0  0  0  0  0  0  0  0
    1.6900   -2.6420   -1.1490 C   0  0  0  0  0  0  0  0  0  0  0  0
    1.0430   -4.2830   -1.0840 Cl  0  0  0  0  0  0  0  0  0  0  0  0
    2.9670   -2.4810   -0.8970 C   0  0  0  0  0  0  0  0  0  0  0  0
    3.8730   -3.5650   -0.6000 N   0  0  0  0  0  0  0  0  0  0  0  0
    5.1320   -3.3330   -0.4570 C   0  0  0  0  0  0  0  0  0  0  0  0
    5.7140   -2.0040   -0.5400 C   0  0  0  0  0  0  0  0  0  0  0  0
    7.1630   -1.8190   -0.4380 C   0  0  0  0  0  0  0  0  0  0  0  0
    8.1340   -2.7740   -0.2700 C   0  0  0  0  0  0  0  0  0  0  0  0
    9.3530   -2.1220   -0.2300 C   0  0  0  0  0  0  0  0  0  0  0  0
    9.0680   -0.7960   -0.3760 C   0  0  0  0  0  0  0  0  0  0  0  0
    7.7640   -0.6540   -0.4960 O   0  0  0  0  0  0  0  0  0  0  0  0
    4.9070   -0.9620   -0.7230 C   0  0  0  0  0  0  0  0  0  0  0  0
    3.4630   -1.0860   -0.8100 C   0  0  1  0  0  0  0  0  0  0  0  0
    2.7050   -0.1550   -1.5470 N   0  0  0  0  0  0  0  0  0  0  0  0
   -0.5810    0.6670    0.9460 N   0  0  0  0  0  0  0  0  0  0  0  0
   -1.3420    0.3950    2.0180 C   0  0  0  0  0  0  0  0  0  0  0  0
   -1.0130    0.1380    3.3540 C   0  0  0  0  0  0  0  0  0  0  0  0
   -2.0290   -0.1400    4.2400 C   0  0  0  0  0  0  0  0  0  0  0  0
   -3.3160   -0.1520    3.7730 C   0  0  0  0  0  0  0  0  0  0  0  0
   -4.5860   -0.5150    4.9400 Cl  0  0  0  0  0  0  0  0  0  0  0  0
   -3.6590    0.0990    2.4670 C   0  0  0  0  0  0  0  0  0  0  0  0
   -2.6360    0.3850    1.5500 C   0  0  0  0  0  0  0  0  0  0  0  0
  1  2  1  0
  2  3  1  0
  3  4  1  0
  4  5  1  0
  5  6  1  0
  6  7  1  0
  6 35  1  0
  7  8  1  0
  7 28  2  0
  8  9  1  0
  9 10  1  0
 10 11  2  0
 10 27  1  0
 11 12  1  0
 11 14  1  0
 12 13  3  0
 14 15  1  0
 14 16  2  0
 16 17  1  0
 16 26  1  0
 17 18  2  0
 18 19  1  0
 19 20  1  0
 19 25  2  0
 20 21  2  0
 20 24  1  0
 21 22  1  0
 22 23  2  0
 23 24  1  0
 25 26  1  0
 26 27  1  6
 28 29  1  0
 29 30  2  0
 29 35  1  0
 30 31  1  0
 31 32  2  0
 32 33  1  0
 32 34  1  0
 34 35  2  0
M  END
