
     RDKit          3D

 35 39  0  0  0  0  0  0  0  0999 V2000
   -7.0450    2.0350    0.7690 C   0  0  0  0  0  0  0  0  0  0  0  0
   -7.2450    0.5610    0.6410 C   0  0  0  0  0  0  0  0  0  0  0  0
   -7.3460    0.1470   -0.7060 O   0  0  0  0  0  0  0  0  0  0  0  0
   -7.4090   -1.2280   -0.7790 C   0  0  0  0  0  0  0  0  0  0  0  0
   -6.0820   -1.8030   -0.4440 C   0  0  0  0  0  0  0  0  0  0  0  0
   -4.9870   -0.9860   -0.2960 C   0  0  0  0  0  0  0  0  0  0  0  0
   -3.7380   -1.5050   -0.0430 C   0  0  0  0  0  0  0  0  0  0  0  0
   -2.6710   -0.5810    0.1080 N   0  0  0  0  0  0  0  0  0  0  0  0
   -2.6340    0.4510    0.9390 N   0  0  0  0  0  0  0  0  0  0  0  0
   -1.5100    1.1380    0.8550 C   0  0  0  0  0  0  0  0  0  0  0  0
   -1.0810    2.3660    1.6080 C   0  0  0  0  0  0  0  0  0  0  0  0
   -0.7230    0.5070   -0.1200 C   0  0  0  0  0  0  0  0  0  0  0  0
    0.6100    0.9900   -0.5590 C   0  0  2  0  0  0  0  0  0  0  0  0
    1.4810   -0.0200   -1.1490 C   0  0  0  0  0  0  0  0  0  0  0  0
    2.8060   -0.1680   -0.5550 N   0  0  0  0  0  0  0  0  0  0  0  0
    3.7750    0.5600   -1.2920 C   0  0  0  0  0  0  0  0  0  0  0  0
    5.1750    0.3940   -0.8140 C   0  0  0  0  0  0  0  0  0  0  0  0
    6.1790   -0.2690   -1.4520 N   0  0  0  0  0  0  0  0  0  0  0  0
    7.3080   -0.2270   -0.7400 C   0  0  0  0  0  0  0  0  0  0  0  0
    8.6010   -0.7190   -0.9080 C   0  0  0  0  0  0  0  0  0  0  0  0
    9.5970   -0.5040    0.0450 C   0  0  0  0  0  0  0  0  0  0  0  0
    9.2750    0.2150    1.1670 C   0  0  0  0  0  0  0  0  0  0  0  0
   10.5360    0.4940    2.3850 Cl  0  0  0  0  0  0  0  0  0  0  0  0
    8.0090    0.7180    1.3650 C   0  0  0  0  0  0  0  0  0  0  0  0
    7.0240    0.4880    0.3970 C   0  0  0  0  0  0  0  0  0  0  0  0
    5.7160    0.8500    0.3180 N   0  0  0  0  0  0  0  0  0  0  0  0
    2.7010    0.1370    0.8410 C   0  0  0  0  0  0  0  0  0  0  0  0
    2.3770    1.5920    0.9830 C   0  0  0  0  0  0  0  0  0  0  0  0
    1.1670    1.9490    0.3450 N   0  0  0  0  0  0  0  0  0  0  0  0
   -1.4700   -0.5460   -0.5600 C   0  0  0  0  0  0  0  0  0  0  0  0
   -1.2040   -1.5530   -1.6180 C   0  0  0  0  0  0  0  0  0  0  0  0
   -3.5710   -2.8490    0.0620 C   0  0  0  0  0  0  0  0  0  0  0  0
   -4.6690   -3.7080   -0.0860 C   0  0  0  0  0  0  0  0  0  0  0  0
   -5.9080   -3.1840   -0.3360 C   0  0  0  0  0  0  0  0  0  0  0  0
   -7.3280   -4.1600   -0.5350 Cl  0  0  0  0  0  0  0  0  0  0  0  0
  1  2  1  0
  2  3  1  0
  3  4  1  0
  4  5  1  0
  5  6  2  0
  5 34  1  0
  6  7  1  0
  7  8  1  0
  7 32  2  0
  8  9  1  0
  8 30  1  0
  9 10  2  0
 10 11  1  0
 10 12  1  0
 13 12  1  1
 12 30  2  0
 13 14  1  0
 13 29  1  0
 14 15  1  0
 15 16  1  0
 15 27  1  0
 16 17  1  0
 17 18  2  0
 17 26  1  0
 18 19  1  0
 19 20  2  0
 19 25  1  0
 20 21  1  0
 21 22  2  0
 22 23  1  0
 22 24  1  0
 24 25  2  0
 25 26  1  0
 27 28  1  0
 28 29  1  0
 30 31  1  0
 32 33  1  0
 33 34  2  0
 34 35  1  0
M  END
