
     RDKit          3D

 34 38  0  0  0  0  0  0  0  0999 V2000
   -0.1050    2.5040    3.0280 C   0  0  0  0  0  0  0  0  0  0  0  0
    0.1070    2.7780    1.5650 C   0  0  0  0  0  0  0  0  0  0  0  0
    0.6950    1.5900    0.8490 C   0  0  0  0  0  0  0  0  0  0  0  0
    1.9900    1.5300    0.5610 N   0  0  0  0  0  0  0  0  0  0  0  0
    2.6070    0.7220    0.0530 C   0  0  0  0  0  0  0  0  0  0  0  0
    3.9940    0.3980   -0.3950 N   0  0  0  0  0  0  0  0  0  0  0  0
    4.9800    1.3760   -0.1970 C   0  0  0  0  0  0  0  0  0  0  0  0
    4.6530    2.4760    0.3170 O   0  0  0  0  0  0  0  0  0  0  0  0
    6.3560    1.1660   -0.5700 C   0  0  0  0  0  0  0  0  0  0  0  0
    7.2660    2.1070   -1.0220 C   0  0  0  0  0  0  0  0  0  0  0  0
    8.3830    1.4510   -1.3060 N   0  0  0  0  0  0  0  0  0  0  0  0
    8.2480    0.1580   -1.0640 N   0  0  0  0  0  0  0  0  0  0  0  0
    7.0070   -0.0540   -0.6060 C   0  0  0  0  0  0  0  0  0  0  0  0
    6.6030   -1.4230   -0.2180 C   0  0  0  0  0  0  0  0  0  0  0  0
    7.7140   -2.2170    0.4050 C   0  0  0  0  0  0  0  0  0  0  0  0
    9.0860   -1.6640    0.1750 C   0  0  0  0  0  0  0  0  0  0  0  0
    9.1350   -0.9890   -1.2040 C   0  0  0  0  0  0  0  0  0  0  0  0
    1.2860   -0.5680   -0.2960 S   0  0  0  0  0  0  0  0  0  0  0  0
   -0.0240    0.5180    0.4830 C   0  0  0  0  0  0  0  0  0  0  0  0
   -1.3870    0.0430    0.5180 C   0  0  0  0  0  0  0  0  0  0  0  0
   -1.6500   -1.1260    0.0080 O   0  0  0  0  0  0  0  0  0  0  0  0
   -2.4380    0.7790    1.0750 N   0  0  0  0  0  0  0  0  0  0  0  0
   -3.7790    0.2150    1.0490 C   0  0  0  0  0  0  0  0  0  0  0  0
   -4.3360    0.0790   -0.3160 C   0  0  0  0  0  0  0  0  0  0  0  0
   -3.6660    0.4870   -1.4320 C   0  0  0  0  0  0  0  0  0  0  0  0
   -4.2640    0.3380   -2.6690 C   0  0  0  0  0  0  0  0  0  0  0  0
   -5.5210   -0.2140   -2.7750 C   0  0  0  0  0  0  0  0  0  0  0  0
   -6.2110   -0.6330   -1.6330 C   0  0  0  0  0  0  0  0  0  0  0  0
   -5.6190   -0.4880   -0.3950 C   0  0  0  0  0  0  0  0  0  0  0  0
   -6.5530   -1.0030    0.6380 C   0  0  0  0  0  0  0  0  0  0  0  0
   -7.8090   -1.2300   -0.1450 C   0  0  1  0  0  0  0  0  0  0  0  0
   -8.3720   -2.5800    0.2460 C   0  0  0  0  0  0  0  0  0  0  0  0
   -8.7630   -0.1050    0.1800 C   0  0  0  0  0  0  0  0  0  0  0  0
   -7.4610   -1.2050   -1.5010 O   0  0  0  0  0  0  0  0  0  0  0  0
  1  2  1  0
  2  3  1  0
  3  4  1  0
  3 19  2  0
  4  5  2  0
  5  6  1  0
  5 18  1  0
  6  7  1  0
  7  8  2  0
  7  9  1  0
  9 10  1  0
  9 13  2  0
 10 11  2  0
 11 12  1  0
 12 13  1  0
 12 17  1  0
 13 14  1  0
 14 15  1  0
 15 16  1  0
 16 17  1  0
 18 19  1  0
 19 20  1  0
 20 21  2  0
 20 22  1  0
 22 23  1  0
 23 24  1  0
 24 25  2  0
 24 29  1  0
 25 26  1  0
 26 27  2  0
 27 28  1  0
 28 29  2  0
 28 34  1  0
 29 30  1  0
 30 31  1  0
 31 32  1  1
 31 33  1  0
 31 34  1  0
M  END
