
     RDKit          3D

 33 36  0  0  0  0  0  0  0  0999 V2000
   -3.0780   -3.7260    2.1390 C   0  0  0  0  0  0  0  0  0  0  0  0
   -2.6510   -3.5290    0.9170 C   0  0  0  0  0  0  0  0  0  0  0  0
   -1.8380   -4.4670    0.1040 C   0  0  0  0  0  0  0  0  0  0  0  0
   -1.7590   -3.7940   -1.2370 C   0  0  0  0  0  0  0  0  0  0  0  0
   -1.8260   -2.3570   -0.8500 N   0  0  0  0  0  0  0  0  0  0  0  0
   -1.0200   -1.3630   -1.4250 C   0  0  0  0  0  0  0  0  0  0  0  0
   -0.2550   -1.7580   -2.4180 O   0  0  0  0  0  0  0  0  0  0  0  0
   -0.8870    0.0400   -1.1020 C   0  0  0  0  0  0  0  0  0  0  0  0
   -1.4410    0.7030   -0.0390 C   0  0  0  0  0  0  0  0  0  0  0  0
   -1.0740    2.0530   -0.1380 C   0  0  0  0  0  0  0  0  0  0  0  0
   -1.4690    3.1310    0.8240 C   0  0  0  0  0  0  0  0  0  0  0  0
   -3.0260    3.8440    0.2420 S   0  0  0  0  0  0  0  0  0  0  0  0
   -4.1230    2.7830    0.2700 O   0  0  0  0  0  0  0  0  0  0  0  0
   -3.5600    5.1600    1.3690 C   0  0  0  0  0  0  0  0  0  0  0  0
   -4.8610    5.7430    0.8660 C   0  0  0  0  0  0  0  0  0  0  0  0
   -0.3380    2.1260   -1.2240 N   0  0  0  0  0  0  0  0  0  0  0  0
   -0.1930    0.9650   -1.8380 N   0  0  0  0  0  0  0  0  0  0  0  0
    0.5480    0.7640   -3.0580 C   0  0  0  0  0  0  0  0  0  0  0  0
    1.9680    0.3700   -2.8230 C   0  0  0  0  0  0  0  0  0  0  0  0
    2.6860    0.1750   -3.8250 O   0  0  0  0  0  0  0  0  0  0  0  0
    2.5180    0.2130   -1.5460 N   0  0  0  0  0  0  0  0  0  0  0  0
    3.8300   -0.1540   -1.1850 C   0  0  0  0  0  0  0  0  0  0  0  0
    4.8120   -0.5310   -2.0580 C   0  0  0  0  0  0  0  0  0  0  0  0
    6.1090   -0.8790   -1.6410 C   0  0  0  0  0  0  0  0  0  0  0  0
    6.4370   -0.8500   -0.3040 C   0  0  0  0  0  0  0  0  0  0  0  0
    5.4560   -0.4730    0.5710 C   0  0  0  0  0  0  0  0  0  0  0  0
    4.1790   -0.1290    0.1740 C   0  0  0  0  0  0  0  0  0  0  0  0
    6.0540   -0.5230    1.9510 C   0  0  0  0  0  0  0  0  0  0  0  0
    7.5300   -0.5110    1.6640 C   0  0  0  0  0  0  0  0  0  0  0  0
    7.6340   -1.1420    0.3760 O   0  0  0  0  0  0  0  0  0  0  0  0
   -2.8890   -2.3410    0.0860 C   0  0  0  0  0  0  0  0  0  0  0  0
   -3.8630   -1.4700    0.1390 C   0  0  0  0  0  0  0  0  0  0  0  0
   -4.9860   -1.5000    1.0950 C   0  0  0  0  0  0  0  0  0  0  0  0
  1  2  2  0
  2  3  1  0
  2 31  1  0
  3  4  1  0
  4  5  1  0
  5  6  1  0
  5 31  1  0
  6  7  2  0
  6  8  1  0
  8  9  2  0
  8 17  1  0
  9 10  1  0
 10 11  1  0
 10 16  2  0
 12 11  1  1
 12 13  2  0
 12 14  1  0
 14 15  1  0
 16 17  1  0
 17 18  1  0
 18 19  1  0
 19 20  2  0
 19 21  1  0
 21 22  1  0
 22 23  2  0
 22 27  1  0
 23 24  1  0
 24 25  2  0
 25 26  1  0
 25 30  1  0
 26 27  2  0
 26 28  1  0
 28 29  1  0
 29 30  1  0
 31 32  2  3
 32 33  1  0
M  END
