
     RDKit          3D

 33 35  0  0  0  0  0  0  0  0999 V2000
   -5.9790   -3.0530    1.5740 C   0  0  0  0  0  0  0  0  0  0  0  0
   -4.9490   -2.1510    1.9870 N   0  0  0  0  0  0  0  0  0  0  0  0
   -4.7540   -1.8880    3.3950 C   0  0  0  0  0  0  0  0  0  0  0  0
   -4.1300   -1.5210    1.0060 C   0  0  0  0  0  0  0  0  0  0  0  0
   -4.3010   -1.7440   -0.2150 O   0  0  0  0  0  0  0  0  0  0  0  0
   -3.0430   -0.5750    1.3930 C   0  0  0  0  0  0  0  0  0  0  0  0
   -2.3640   -0.0670    0.2210 N   0  0  0  0  0  0  0  0  0  0  0  0
   -2.3490    1.3410    0.1850 C   0  0  1  0  0  0  0  0  0  0  0  0
   -1.2130    1.9470    0.8880 C   0  0  0  0  0  0  0  0  0  0  0  0
   -1.3210    3.2570    0.8930 O   0  0  0  0  0  0  0  0  0  0  0  0
   -0.1060    1.3860    1.5100 N   0  0  0  0  0  0  0  0  0  0  0  0
    0.5130    0.1550    1.8130 C   0  0  0  0  0  0  0  0  0  0  0  0
    1.0380    0.8330    3.0960 C   0  0  0  0  0  0  0  0  0  0  0  0
    1.0320    2.0250    2.1870 C   0  0  1  0  0  0  0  0  0  0  0  0
    2.2620    2.1040    1.3910 C   0  0  0  0  0  0  0  0  0  0  0  0
    3.3380    2.4290    1.9440 O   0  0  0  0  0  0  0  0  0  0  0  0
    2.2840    1.8270    0.0050 N   0  0  0  0  0  0  0  0  0  0  0  0
    3.4810    1.8880   -0.8280 C   0  0  0  0  0  0  0  0  0  0  0  0
    4.3500    0.7220   -0.6470 C   0  0  0  0  0  0  0  0  0  0  0  0
    5.4220    0.7140    0.2160 C   0  0  0  0  0  0  0  0  0  0  0  0
    6.2430   -0.4040    0.3810 C   0  0  0  0  0  0  0  0  0  0  0  0
    6.0080   -1.5410   -0.3150 C   0  0  0  0  0  0  0  0  0  0  0  0
    6.8060   -2.7650   -0.2130 C   0  0  0  0  0  0  0  0  0  0  0  0
    6.4970   -3.9100   -0.9910 N   0  0  0  0  0  0  0  0  0  0  0  0
    7.8110   -2.8320    0.5840 N   0  0  0  0  0  0  0  0  0  0  0  0
    4.9240   -1.5530   -1.1960 C   0  0  0  0  0  0  0  0  0  0  0  0
    4.1270   -0.4400   -1.3450 C   0  0  0  0  0  0  0  0  0  0  0  0
   -2.5800    1.9470   -1.1760 C   0  0  2  0  0  0  0  0  0  0  0  0
   -3.9220    1.5390   -1.7170 C   0  0  0  0  0  0  0  0  0  0  0  0
   -3.8850    0.7600   -2.9850 C   0  0  0  0  0  0  0  0  0  0  0  0
   -3.0200    1.3320   -4.0540 C   0  0  0  0  0  0  0  0  0  0  0  0
   -1.9450    2.2220   -3.4970 C   0  0  0  0  0  0  0  0  0  0  0  0
   -1.4550    1.7110   -2.1380 C   0  0  0  0  0  0  0  0  0  0  0  0
  1  2  1  0
  2  3  1  0
  2  4  1  0
  4  5  2  0
  4  6  1  0
  6  7  1  0
  8  7  1  6
  8  9  1  0
  8 28  1  0
  9 10  2  0
  9 11  1  0
 11 12  1  0
 11 14  1  0
 12 13  1  0
 13 14  1  0
 14 15  1  6
 15 16  2  0
 15 17  1  0
 17 18  1  0
 18 19  1  0
 19 20  2  0
 19 27  1  0
 20 21  1  0
 21 22  2  0
 22 23  1  0
 22 26  1  0
 23 24  1  0
 23 25  2  0
 26 27  2  0
 28 29  1  6
 28 33  1  0
 29 30  1  0
 30 31  1  0
 31 32  1  0
 32 33  1  0
M  CHG  2   7   1  25   1
M  END
