
     RDKit          3D

 33 37  0  0  0  0  0  0  0  0999 V2000
   -8.6580    0.6050    1.3080 F   0  0  0  0  0  0  0  0  0  0  0  0
   -7.3410    0.4260    1.6690 C   0  0  0  0  0  0  0  0  0  0  0  0
   -6.9540   -0.6580    2.4210 C   0  0  0  0  0  0  0  0  0  0  0  0
   -5.6560   -0.8710    2.7970 C   0  0  0  0  0  0  0  0  0  0  0  0
   -4.6800    0.0470    2.4050 C   0  0  0  0  0  0  0  0  0  0  0  0
   -3.2920   -0.2470    2.8100 C   0  0  0  0  0  0  0  0  0  0  0  0
   -2.5570   -0.8850    1.7360 N   0  0  0  0  0  0  0  0  0  0  0  0
   -2.5430   -2.2450    1.5470 C   0  0  0  0  0  0  0  0  0  0  0  0
   -1.7500   -2.5350    0.4660 C   0  0  0  0  0  0  0  0  0  0  0  0
   -1.2480   -1.3500   -0.0450 C   0  0  0  0  0  0  0  0  0  0  0  0
   -0.3650   -1.1970   -1.1540 N   0  0  0  0  0  0  0  0  0  0  0  0
   -0.1980    0.0750   -1.7740 C   0  0  0  0  0  0  0  0  0  0  0  0
   -1.2340    0.8630   -1.9070 N   0  0  0  0  0  0  0  0  0  0  0  0
   -1.1000    2.1640   -2.5320 C   0  0  0  0  0  0  0  0  0  0  0  0
    0.1910    2.8080   -2.0660 C   0  0  0  0  0  0  0  0  0  0  0  0
    1.3890    1.9680   -2.3660 C   0  0  0  0  0  0  0  0  0  0  0  0
    1.0350    0.5400   -2.2760 N   0  0  0  0  0  0  0  0  0  0  0  0
    2.0170   -0.4120   -2.7280 C   0  0  0  0  0  0  0  0  0  0  0  0
    3.2780   -0.3270   -1.9360 C   0  0  0  0  0  0  0  0  0  0  0  0
    4.3400    0.4000   -2.4270 C   0  0  0  0  0  0  0  0  0  0  0  0
    5.4910    0.4610   -1.6660 C   0  0  0  0  0  0  0  0  0  0  0  0
    5.6300   -0.1690   -0.4400 C   0  0  0  0  0  0  0  0  0  0  0  0
    6.7850   -0.0910    0.2980 C   0  0  0  0  0  0  0  0  0  0  0  0
    6.8680   -0.7310    1.5040 C   0  0  0  0  0  0  0  0  0  0  0  0
    5.8160   -1.4620    2.0120 C   0  0  0  0  0  0  0  0  0  0  0  0
    5.9320   -2.2840    3.5700 Cl  0  0  0  0  0  0  0  0  0  0  0  0
    4.6480   -1.5360    1.2580 C   0  0  0  0  0  0  0  0  0  0  0  0
    4.5480   -0.8980    0.0400 C   0  0  0  0  0  0  0  0  0  0  0  0
    3.3780   -0.9660   -0.7230 C   0  0  0  0  0  0  0  0  0  0  0  0
   -1.7760   -0.3770    0.7740 C   0  0  0  0  0  0  0  0  0  0  0  0
   -5.0580    1.1250    1.6600 C   0  0  0  0  0  0  0  0  0  0  0  0
   -3.9020    2.3430    1.1550 Cl  0  0  0  0  0  0  0  0  0  0  0  0
   -6.3850    1.3310    1.2810 C   0  0  0  0  0  0  0  0  0  0  0  0
  1  2  1  0
  2  3  2  0
  2 33  1  0
  3  4  1  0
  4  5  2  0
  5  6  1  0
  5 31  1  0
  6  7  1  0
  7  8  1  0
  7 30  1  0
  8  9  2  0
  9 10  1  0
 10 11  1  0
 10 30  2  0
 11 12  1  0
 12 13  2  0
 12 17  1  0
 13 14  1  0
 14 15  1  0
 15 16  1  0
 16 17  1  0
 17 18  1  0
 18 19  1  0
 19 20  2  0
 19 29  1  0
 20 21  1  0
 21 22  2  0
 22 23  1  0
 22 28  1  0
 23 24  2  0
 24 25  1  0
 25 26  1  0
 25 27  2  0
 27 28  1  0
 28 29  2  0
 31 32  1  0
 31 33  2  0
M  CHG  1  13   1
M  END
