
     RDKit          3D

 33 37  0  0  0  0  0  0  0  0999 V2000
   -2.3600    0.2130    2.0390 C   0  0  0  0  0  0  0  0  0  0  0  0
   -2.3640   -0.4730    0.6670 C   0  0  2  0  0  0  0  0  0  0  0  0
   -1.8610   -1.8660    0.8570 C   0  0  0  0  0  0  0  0  0  0  0  0
   -1.4020    0.3340   -0.2070 C   0  0  1  0  0  0  0  0  0  0  0  0
   -0.0330    0.0540    0.1390 N   0  0  0  0  0  0  0  0  0  0  0  0
    1.0210    0.8780   -0.3330 C   0  0  0  0  0  0  0  0  0  0  0  0
    0.7710    2.0530   -1.0120 C   0  0  0  0  0  0  0  0  0  0  0  0
    1.8380    2.8140   -1.4310 C   0  0  0  0  0  0  0  0  0  0  0  0
    3.1080    2.4200   -1.1820 C   0  0  0  0  0  0  0  0  0  0  0  0
    3.3610    1.2310   -0.4940 C   0  0  0  0  0  0  0  0  0  0  0  0
    4.7660    0.8910   -0.2620 C   0  0  0  0  0  0  0  0  0  0  0  0
    5.2540    0.5480    0.9750 C   0  0  0  0  0  0  0  0  0  0  0  0
    6.5970    0.2200    1.1650 C   0  0  0  0  0  0  0  0  0  0  0  0
    7.0660   -0.1210    2.4070 F   0  0  0  0  0  0  0  0  0  0  0  0
    7.4770    0.2320    0.1060 C   0  0  0  0  0  0  0  0  0  0  0  0
    9.1830   -0.1810    0.3310 Cl  0  0  0  0  0  0  0  0  0  0  0  0
    7.0070    0.5750   -1.1510 C   0  0  0  0  0  0  0  0  0  0  0  0
    8.1520    0.5820   -2.4780 Cl  0  0  0  0  0  0  0  0  0  0  0  0
    5.6770    0.8970   -1.3210 C   0  0  0  0  0  0  0  0  0  0  0  0
    2.3260    0.4450   -0.0610 C   0  0  0  0  0  0  0  0  0  0  0  0
    2.5970   -0.7690    0.6320 N   0  0  0  0  0  0  0  0  0  0  0  0
    2.3100   -1.1410    1.8930 C   0  0  0  0  0  0  0  0  0  0  0  0
    2.7890   -2.4230    2.0770 C   0  0  0  0  0  0  0  0  0  0  0  0
    3.3570   -2.7890    0.9090 N   0  0  0  0  0  0  0  0  0  0  0  0
    3.2520   -1.7940    0.0110 C   0  0  0  0  0  0  0  0  0  0  0  0
   -1.5760   -0.1100   -1.6590 C   0  0  0  0  0  0  0  0  0  0  0  0
   -3.0170    0.0820   -2.0920 C   0  0  0  0  0  0  0  0  0  0  0  0
   -3.7560    0.6000   -0.9510 N   0  0  0  0  0  0  0  0  0  0  0  0
   -5.0590    1.0700   -1.3090 C   0  0  0  0  0  0  0  0  0  0  0  0
   -6.1890    0.1620   -0.9620 C   0  0  0  0  0  0  0  0  0  0  0  0
   -6.1300   -0.4550    0.3930 C   0  0  0  0  0  0  0  0  0  0  0  0
   -4.8130   -0.1820    1.1150 C   0  0  0  0  0  0  0  0  0  0  0  0
   -3.7220   -0.3770    0.0850 C   0  0  2  0  0  0  0  0  0  0  0  0
  2  1  1  1
  2  3  1  0
  2  4  1  0
  2 33  1  0
  4  5  1  1
  4 26  1  0
  5  6  1  0
  6  7  2  0
  6 20  1  0
  7  8  1  0
  8  9  2  0
  9 10  1  0
 10 11  1  0
 10 20  2  0
 11 12  2  0
 11 19  1  0
 12 13  1  0
 13 14  1  0
 13 15  2  0
 15 16  1  0
 15 17  1  0
 17 18  1  0
 17 19  2  0
 20 21  1  0
 21 22  1  0
 21 25  1  0
 22 23  2  0
 23 24  1  0
 24 25  2  0
 26 27  1  0
 27 28  1  0
 28 29  1  0
 28 33  1  0
 29 30  1  0
 30 31  1  0
 31 32  1  0
 33 32  1  1
M  CHG  1  24   1
M  END
