
     RDKit          3D

 32 36  0  0  0  0  0  0  0  0999 V2000
   -7.7480   -0.3930   -2.5880 C   0  0  0  0  0  0  0  0  0  0  0  0
   -7.2960   -0.1220   -1.2150 C   0  0  0  0  0  0  0  0  0  0  0  0
   -8.2480   -0.0740   -0.1940 C   0  0  0  0  0  0  0  0  0  0  0  0
   -9.5610   -0.2780   -0.4990 F   0  0  0  0  0  0  0  0  0  0  0  0
   -7.8250    0.1800    1.0970 C   0  0  0  0  0  0  0  0  0  0  0  0
   -6.5020    0.3870    1.4110 C   0  0  0  0  0  0  0  0  0  0  0  0
   -5.5590    0.3410    0.4090 C   0  0  0  0  0  0  0  0  0  0  0  0
   -4.1610    0.5700    0.7410 C   0  0  0  0  0  0  0  0  0  0  0  0
   -3.3760    1.4600    0.0030 C   0  0  0  0  0  0  0  0  0  0  0  0
   -2.0520    1.6970    0.3060 C   0  0  0  0  0  0  0  0  0  0  0  0
   -1.4490    1.0380    1.3830 C   0  0  0  0  0  0  0  0  0  0  0  0
   -0.1220    1.2940    1.7090 N   0  0  0  0  0  0  0  0  0  0  0  0
    1.0450    0.6870    1.2310 C   0  0  0  0  0  0  0  0  0  0  0  0
    2.2820    1.1480    1.7030 C   0  0  0  0  0  0  0  0  0  0  0  0
    3.4880    0.6270    1.3040 C   0  0  0  0  0  0  0  0  0  0  0  0
    3.5110   -0.4010    0.3940 C   0  0  0  0  0  0  0  0  0  0  0  0
    4.7560   -1.0360   -0.0830 C   0  0  0  0  0  0  0  0  0  0  0  0
    5.9550   -0.4290    0.4620 N   0  0  0  0  0  0  0  0  0  0  0  0
    7.1070   -1.1960    0.0190 C   0  0  0  0  0  0  0  0  0  0  0  0
    7.6590   -0.5590   -1.2060 C   0  0  0  0  0  0  0  0  0  0  0  0
    7.1320    0.8340   -1.1970 C   0  0  0  0  0  0  0  0  0  0  0  0
    6.1480    0.9130   -0.0550 C   0  0  0  0  0  0  0  0  0  0  0  0
    2.2770   -0.8380   -0.0560 C   0  0  0  0  0  0  0  0  0  0  0  0
    2.0080   -1.8250   -0.9390 N   0  0  0  0  0  0  0  0  0  0  0  0
    0.6830   -1.9190   -1.0870 C   0  0  0  0  0  0  0  0  0  0  0  0
    0.0880   -0.9630   -0.2740 C   0  0  0  0  0  0  0  0  0  0  0  0
    1.0940   -0.3210    0.3420 N   0  0  0  0  0  0  0  0  0  0  0  0
   -2.2230    0.1610    2.1090 C   0  0  0  0  0  0  0  0  0  0  0  0
   -3.5670   -0.0750    1.7970 C   0  0  0  0  0  0  0  0  0  0  0  0
   -4.4890   -1.2080    2.7560 Cl  0  0  0  0  0  0  0  0  0  0  0  0
   -5.9700    0.0860   -0.8980 C   0  0  0  0  0  0  0  0  0  0  0  0
   -4.7810    0.0250   -2.1650 Cl  0  0  0  0  0  0  0  0  0  0  0  0
  1  2  1  0
  2  3  2  0
  2 31  1  0
  3  4  1  0
  3  5  1  0
  5  6  2  0
  6  7  1  0
  7  8  1  0
  7 31  2  0
  8  9  2  0
  8 29  1  0
  9 10  1  0
 10 11  2  0
 11 12  1  0
 11 28  1  0
 12 13  1  0
 13 14  2  0
 13 27  1  0
 14 15  1  0
 15 16  2  0
 16 17  1  0
 16 23  1  0
 17 18  1  0
 18 19  1  0
 18 22  1  0
 19 20  1  0
 20 21  1  0
 21 22  1  0
 23 24  2  0
 23 27  1  0
 24 25  1  0
 25 26  2  0
 26 27  1  0
 28 29  2  0
 29 30  1  0
 31 32  1  0
M  CHG  1  24   1
M  END
