
     RDKit          3D

 33 36  0  0  0  0  0  0  0  0999 V2000
   -0.5060    2.8690   -1.6970 C   0  0  0  0  0  0  0  0  0  0  0  0
   -0.3760    1.6010   -1.1430 N   0  0  0  0  0  0  0  0  0  0  0  0
    0.3760    0.8120   -0.6190 C   0  0  0  0  0  0  0  0  0  0  0  0
   -0.2110   -0.4500   -0.2510 O   0  0  0  0  0  0  0  0  0  0  0  0
   -1.4750   -0.7620   -0.6730 N   0  0  0  0  0  0  0  0  0  0  0  0
   -2.5590    0.0520   -0.2300 C   0  0  0  0  0  0  0  0  0  0  0  0
   -2.2950    1.0250    0.5350 O   0  0  0  0  0  0  0  0  0  0  0  0
   -3.8740   -0.2620   -0.6630 N   0  0  0  0  0  0  0  0  0  0  0  0
   -4.0950   -1.3640   -1.5730 C   0  0  0  0  0  0  0  0  0  0  0  0
   -5.3870   -1.2410   -2.3230 C   0  0  0  0  0  0  0  0  0  0  0  0
   -5.9520    0.0680   -2.2530 O   0  0  0  0  0  0  0  0  0  0  0  0
   -6.0310    0.7190   -1.0190 C   0  0  0  0  0  0  0  0  0  0  0  0
   -7.0870    1.4840   -0.6190 C   0  0  0  0  0  0  0  0  0  0  0  0
   -7.0790    2.0930    0.6300 C   0  0  0  0  0  0  0  0  0  0  0  0
   -6.0130    1.9420    1.4880 C   0  0  0  0  0  0  0  0  0  0  0  0
   -6.0070    2.5980    2.8190 C   0  0  0  0  0  0  0  0  0  0  0  0
   -4.9530    1.1560    1.0470 C   0  0  0  0  0  0  0  0  0  0  0  0
   -4.9450    0.5520   -0.1760 C   0  0  0  0  0  0  0  0  0  0  0  0
    1.8140    0.9860   -0.3170 C   0  0  0  0  0  0  0  0  0  0  0  0
    2.4330    2.0980   -0.6130 C   0  0  0  0  0  0  0  0  0  0  0  0
    3.8590    2.3080   -0.3350 C   0  0  0  0  0  0  0  0  0  0  0  0
    4.5250    3.5500   -0.6590 C   0  0  0  0  0  0  0  0  0  0  0  0
    5.7580    3.6900   -0.4150 O   0  0  0  0  0  0  0  0  0  0  0  0
    4.5230    1.3270    0.2290 C   0  0  0  0  0  0  0  0  0  0  0  0
    3.9120    0.0970    0.5660 N   0  0  0  0  0  0  0  0  0  0  0  0
    4.7490   -0.9830    1.1570 C   0  0  0  0  0  0  0  0  0  0  0  0
    4.8450   -2.1040    0.1500 C   0  0  0  0  0  0  0  0  0  0  0  0
    5.6610   -3.2250    0.6570 C   0  0  0  0  0  0  0  0  0  0  0  0
    7.0050   -3.5160    0.5860 C   0  0  0  0  0  0  0  0  0  0  0  0
    7.4530   -4.6360    1.1540 C   0  0  0  0  0  0  0  0  0  0  0  0
    6.6450   -5.4920    1.7950 C   0  0  0  0  0  0  0  0  0  0  0  0
    5.0240   -4.6050    1.5710 S   0  0  0  0  0  0  0  0  0  0  0  0
    2.5170   -0.1230    0.3450 C   0  0  0  0  0  0  0  0  0  0  0  0
  1  2  1  0
  2  3  2  3
  3  4  1  0
  3 19  1  0
  4  5  1  0
  5  6  1  0
  6  7  2  0
  6  8  1  0
  8  9  1  0
  8 18  1  0
  9 10  1  0
 10 11  1  0
 11 12  1  0
 12 13  2  0
 12 18  1  0
 13 14  1  0
 14 15  2  0
 15 16  1  0
 15 17  1  0
 17 18  2  0
 19 20  2  0
 19 33  1  0
 20 21  1  0
 21 22  1  0
 21 24  2  0
 22 23  2  0
 24 25  1  0
 25 26  1  0
 25 33  1  0
 26 27  1  0
 27 28  1  0
 28 29  2  0
 28 32  1  0
 29 30  1  0
 30 31  2  0
 31 32  1  0
M  END
