
     RDKit          3D

 33 37  0  0  0  0  0  0  0  0999 V2000
    5.2930    0.0710   -1.7030 C   0  0  0  0  0  0  0  0  0  0  0  0
    4.2120   -0.2380   -0.7480 C   0  0  0  0  0  0  0  0  0  0  0  0
    2.9890    0.4100   -0.9330 C   0  0  0  0  0  0  0  0  0  0  0  0
    1.9510    0.2140   -0.0770 C   0  0  0  0  0  0  0  0  0  0  0  0
    0.6720    0.9140   -0.3040 C   0  0  2  0  0  0  0  0  0  0  0  0
   -0.3360   -0.1210   -0.4810 N   0  0  0  0  0  0  0  0  0  0  0  0
   -0.0910   -1.3140   -1.0020 N   0  0  0  0  0  0  0  0  0  0  0  0
   -1.1700   -2.0580   -1.0520 C   0  0  0  0  0  0  0  0  0  0  0  0
   -2.2120   -1.3220   -0.5320 C   0  0  0  0  0  0  0  0  0  0  0  0
   -3.5690   -1.5980   -0.3380 C   0  0  0  0  0  0  0  0  0  0  0  0
   -4.1130   -2.9170   -0.7310 C   0  0  0  0  0  0  0  0  0  0  0  0
   -4.3350   -0.6060    0.2190 C   0  0  0  0  0  0  0  0  0  0  0  0
   -3.7460    0.5950    0.5570 C   0  0  0  0  0  0  0  0  0  0  0  0
   -2.4370    0.8230    0.3540 N   0  0  0  0  0  0  0  0  0  0  0  0
   -1.6420   -0.1070   -0.1850 C   0  0  0  0  0  0  0  0  0  0  0  0
   -4.6780    1.6020    1.1570 C   0  0  0  0  0  0  0  0  0  0  0  0
   -5.5450    0.9200    2.1720 C   0  0  0  0  0  0  0  0  0  0  0  0
   -6.0730   -0.3440    1.7860 N   0  0  0  0  0  0  0  0  0  0  0  0
   -5.7620   -0.7900    0.4660 C   0  0  0  0  0  0  0  0  0  0  0  0
    0.7540    1.7370   -1.5900 C   0  0  0  0  0  0  0  0  0  0  0  0
   -0.5430    2.4600   -1.8710 C   0  0  0  0  0  0  0  0  0  0  0  0
   -0.7900    3.4440   -0.7780 C   0  0  0  0  0  0  0  0  0  0  0  0
    0.2280    3.2810    0.2990 C   0  0  0  0  0  0  0  0  0  0  0  0
    0.3870    1.8670    0.8080 C   0  0  0  0  0  0  0  0  0  0  0  0
    2.1200   -0.6330    0.9760 C   0  0  0  0  0  0  0  0  0  0  0  0
    0.8210   -0.9480    2.1460 Cl  0  0  0  0  0  0  0  0  0  0  0  0
    3.3270   -1.2710    1.1570 C   0  0  0  0  0  0  0  0  0  0  0  0
    3.5130   -2.3570    2.5210 Cl  0  0  0  0  0  0  0  0  0  0  0  0
    4.4300   -1.1010    0.2980 C   0  0  0  0  0  0  0  0  0  0  0  0
    5.6500   -1.8570    0.5370 C   0  0  0  0  0  0  0  0  0  0  0  0
    6.7150   -2.0340   -0.1370 C   0  0  0  0  0  0  0  0  0  0  0  0
    7.7920   -2.9180    0.4750 C   0  0  0  0  0  0  0  0  0  0  0  0
    7.3980   -3.3810    1.6970 F   0  0  0  0  0  0  0  0  0  0  0  0
  1  2  1  0
  2  3  2  0
  2 29  1  0
  3  4  1  0
  4  5  1  0
  4 25  2  0
  5  6  1  6
  5 20  1  0
  5 24  1  0
  6  7  1  0
  6 15  1  0
  7  8  2  0
  8  9  1  0
  9 10  2  0
  9 15  1  0
 10 11  1  0
 10 12  1  0
 12 13  2  0
 12 19  1  0
 13 14  1  0
 13 16  1  0
 14 15  2  0
 16 17  1  0
 17 18  1  0
 18 19  1  0
 20 21  1  0
 21 22  1  0
 22 23  1  0
 23 24  1  0
 25 26  1  0
 25 27  1  0
 27 28  1  0
 27 29  2  0
 29 30  1  0
 30 31  2  3
 31 32  1  0
 32 33  1  0
M  CHG  1  18   1
M  END
