
     RDKit          3D

 33 37  0  0  0  0  0  0  0  0999 V2000
   -3.3230    3.2140    1.6750 C   0  0  0  0  0  0  0  0  0  0  0  0
   -4.3850    2.2100    1.3610 C   0  0  0  0  0  0  0  0  0  0  0  0
   -4.1590    1.4790    0.0870 C   0  0  0  0  0  0  0  0  0  0  0  0
   -3.7010    0.1780    0.0710 C   0  0  0  0  0  0  0  0  0  0  0  0
   -3.4800   -0.5320   -1.0850 C   0  0  0  0  0  0  0  0  0  0  0  0
   -3.0170   -1.8640   -1.0010 N   0  0  0  0  0  0  0  0  0  0  0  0
   -1.6650   -2.4820   -0.3520 S   0  0  0  0  0  0  0  0  0  0  0  0
   -0.2590   -1.4730   -0.1820 C   0  0  0  0  0  0  0  0  0  0  0  0
    0.8290   -2.0070    0.4290 C   0  0  0  0  0  0  0  0  0  0  0  0
    1.9700   -1.2230    0.5790 C   0  0  0  0  0  0  0  0  0  0  0  0
    2.0020    0.0720    0.1170 C   0  0  0  0  0  0  0  0  0  0  0  0
    3.1940    0.9250    0.2620 C   0  0  0  0  0  0  0  0  0  0  0  0
    3.5000    1.8980   -0.6660 C   0  0  0  0  0  0  0  0  0  0  0  0
    4.6300    2.6750   -0.4830 C   0  0  0  0  0  0  0  0  0  0  0  0
    5.4410    2.4810    0.6100 C   0  0  0  0  0  0  0  0  0  0  0  0
    6.5770    3.2430    0.8180 C   0  0  0  0  0  0  0  0  0  0  0  0
    7.3370    2.9960    1.9260 C   0  0  0  0  0  0  0  0  0  0  0  0
    7.0420    2.0400    2.8420 N   0  0  0  0  0  0  0  0  0  0  0  0
    5.9350    1.2950    2.6430 C   0  0  0  0  0  0  0  0  0  0  0  0
    5.1430    1.5120    1.5390 C   0  0  0  0  0  0  0  0  0  0  0  0
    4.0020    0.7300    1.3520 C   0  0  0  0  0  0  0  0  0  0  0  0
    0.8750    0.5620   -0.4940 C   0  0  0  0  0  0  0  0  0  0  0  0
   -0.2750   -0.2150   -0.6500 C   0  0  0  0  0  0  0  0  0  0  0  0
   -1.5700   -4.0920    0.0540 C   0  0  0  0  0  0  0  0  0  0  0  0
   -1.4950   -4.9780   -1.1740 C   0  0  0  0  0  0  0  0  0  0  0  0
   -1.6890   -4.0390   -2.3540 C   0  0  0  0  0  0  0  0  0  0  0  0
   -1.1020   -2.8380   -1.8010 N   0  0  0  0  0  0  0  0  0  0  0  0
   -3.7180    0.0580   -2.2980 C   0  0  0  0  0  0  0  0  0  0  0  0
   -3.4610   -0.7820   -3.8160 Cl  0  0  0  0  0  0  0  0  0  0  0  0
   -4.1760    1.3540   -2.3300 C   0  0  0  0  0  0  0  0  0  0  0  0
   -4.4280    1.9830   -3.5320 F   0  0  0  0  0  0  0  0  0  0  0  0
   -4.3890    2.0430   -1.1510 C   0  0  0  0  0  0  0  0  0  0  0  0
   -4.9720    3.6940   -1.1930 Cl  0  0  0  0  0  0  0  0  0  0  0  0
  1  2  1  0
  2  3  1  0
  3  4  2  0
  3 32  1  0
  4  5  1  0
  5  6  1  0
  5 28  2  0
  6  7  2  3
  7  8  1  0
  7 24  1  0
  7 27  1  0
  8  9  2  0
  8 23  1  0
  9 10  1  0
 10 11  2  0
 11 12  1  0
 11 22  1  0
 12 13  2  0
 12 21  1  0
 13 14  1  0
 14 15  2  0
 15 16  1  0
 15 20  1  0
 16 17  2  0
 17 18  1  0
 18 19  2  0
 19 20  1  0
 20 21  2  0
 22 23  2  0
 24 25  1  0
 25 26  1  0
 26 27  1  0
 28 29  1  0
 28 30  1  0
 30 31  1  0
 30 32  2  0
 32 33  1  0
M  CHG  1   6   1
M  END
