
     RDKit          3D

 33 37  0  0  0  0  0  0  0  0999 V2000
   -1.1050    6.5320   -0.2020 C   0  0  0  0  0  0  0  0  0  0  0  0
   -0.6590    5.1830   -0.0540 O   0  0  0  0  0  0  0  0  0  0  0  0
   -1.4370    4.0950   -0.3280 C   0  0  0  0  0  0  0  0  0  0  0  0
   -2.6090    4.2860   -0.7320 O   0  0  0  0  0  0  0  0  0  0  0  0
   -0.9750    2.7200   -0.1760 C   0  0  0  0  0  0  0  0  0  0  0  0
   -1.8290    1.6510   -0.4760 C   0  0  0  0  0  0  0  0  0  0  0  0
   -1.4090    0.3650   -0.3340 C   0  0  0  0  0  0  0  0  0  0  0  0
   -2.2440   -0.8170   -0.5350 C   0  0  0  0  0  0  0  0  0  0  0  0
   -1.7120   -2.0340   -0.9070 N   0  0  0  0  0  0  0  0  0  0  0  0
   -2.6750   -2.9420   -0.9680 C   0  0  0  0  0  0  0  0  0  0  0  0
   -2.4910   -4.1680   -1.2880 O   0  0  0  0  0  0  0  0  0  0  0  0
   -3.8380   -2.3650   -0.6450 N   0  0  0  0  0  0  0  0  0  0  0  0
   -3.5800   -1.0700   -0.3780 C   0  0  0  0  0  0  0  0  0  0  0  0
   -4.7060   -0.2560    0.0590 C   0  0  0  0  0  0  0  0  0  0  0  0
   -4.5470    0.9490    0.3360 O   0  0  0  0  0  0  0  0  0  0  0  0
   -5.9600   -0.8580    0.1640 O   0  0  0  0  0  0  0  0  0  0  0  0
   -6.0850   -2.2370    0.3080 C   0  0  0  0  0  0  0  0  0  0  0  0
   -5.1320   -2.9940   -0.5880 C   0  0  0  0  0  0  0  0  0  0  0  0
   -0.1170    0.1420    0.1110 N   0  0  0  0  0  0  0  0  0  0  0  0
    0.7550    1.0940    0.4140 C   0  0  0  0  0  0  0  0  0  0  0  0
    2.1520    0.8690    0.8140 C   0  0  0  0  0  0  0  0  0  0  0  0
    2.9180    1.7940    1.5150 C   0  0  0  0  0  0  0  0  0  0  0  0
    2.4970    3.0460    2.0000 O   0  0  0  0  0  0  0  0  0  0  0  0
    4.1580    1.3570    1.6960 N   0  0  0  0  0  0  0  0  0  0  0  0
    4.2160    0.1510    1.1200 C   0  0  0  0  0  0  0  0  0  0  0  0
    5.2840   -0.7210    1.0160 C   0  0  0  0  0  0  0  0  0  0  0  0
    5.1030   -1.9200    0.3480 C   0  0  0  0  0  0  0  0  0  0  0  0
    3.9040   -2.2640   -0.2100 C   0  0  0  0  0  0  0  0  0  0  0  0
    3.7210   -3.4450   -0.8710 O   0  0  0  0  0  0  0  0  0  0  0  0
    4.6860   -4.4300   -1.0670 C   0  0  0  0  0  0  0  0  0  0  0  0
    2.8210   -1.3840   -0.1060 C   0  0  0  0  0  0  0  0  0  0  0  0
    2.9960   -0.1880    0.5610 C   0  0  0  0  0  0  0  0  0  0  0  0
    0.2870    2.4010    0.2580 C   0  0  0  0  0  0  0  0  0  0  0  0
  1  2  1  0
  2  3  1  0
  3  4  2  0
  3  5  1  0
  5  6  2  0
  5 33  1  0
  6  7  1  0
  7  8  1  0
  7 19  2  0
  8  9  1  0
  8 13  2  0
  9 10  1  0
 10 11  2  0
 10 12  1  0
 12 13  1  0
 12 18  1  0
 13 14  1  0
 14 15  2  0
 14 16  1  0
 16 17  1  0
 17 18  1  0
 19 20  1  0
 20 21  1  0
 20 33  2  0
 21 22  2  0
 21 32  1  0
 22 23  1  0
 22 24  1  0
 24 25  1  0
 25 26  2  0
 25 32  1  0
 26 27  1  0
 27 28  2  0
 28 29  1  0
 28 31  1  0
 29 30  1  0
 31 32  2  0
M  CHG  1  19   1
M  END
