
     RDKit          3D

 33 36  0  0  0  0  0  0  0  0999 V2000
    7.9320   -1.1650   -0.0890 C   0  0  0  0  0  0  0  0  0  0  0  0
    7.1640    0.1470   -0.1230 C   0  0  0  0  0  0  0  0  0  0  0  0
    5.7430   -0.0660   -0.3960 C   0  0  0  0  0  0  0  0  0  0  0  0
    5.4050   -0.3210   -1.7230 C   0  0  0  0  0  0  0  0  0  0  0  0
    6.3910   -0.3790   -2.8030 C   0  0  0  0  0  0  0  0  0  0  0  0
    4.0900   -0.5240   -2.0260 C   0  0  0  0  0  0  0  0  0  0  0  0
    3.0850   -0.4870   -1.0810 C   0  0  0  0  0  0  0  0  0  0  0  0
    3.4050   -0.2370    0.2310 C   0  0  0  0  0  0  0  0  0  0  0  0
    2.4340   -0.1870    1.2000 C   0  0  0  0  0  0  0  0  0  0  0  0
    1.0540   -0.4670    0.8360 C   0  0  0  0  0  0  0  0  0  0  0  0
    0.7630   -1.7230    0.2830 C   0  0  0  0  0  0  0  0  0  0  0  0
   -0.5180   -2.0430   -0.0290 C   0  0  0  0  0  0  0  0  0  0  0  0
   -1.5250   -1.1410    0.1970 C   0  0  0  0  0  0  0  0  0  0  0  0
   -2.9000   -1.5530   -0.1720 C   0  0  0  0  0  0  0  0  0  0  0  0
   -3.1670   -2.7630   -0.2390 O   0  0  0  0  0  0  0  0  0  0  0  0
   -3.8460   -0.5420   -0.4320 N   0  0  0  0  0  0  0  0  0  0  0  0
   -5.1780   -0.7740   -0.7950 C   0  0  0  0  0  0  0  0  0  0  0  0
   -6.0410    0.2120   -1.0350 C   0  0  0  0  0  0  0  0  0  0  0  0
   -5.6640    1.6260   -0.9350 C   0  0  0  0  0  0  0  0  0  0  0  0
   -6.5330    2.3690    0.0710 C   0  0  0  0  0  0  0  0  0  0  0  0
   -6.3710    1.7750    1.2940 O   0  0  0  0  0  0  0  0  0  0  0  0
   -7.4450   -0.0610   -1.4210 C   0  0  0  0  0  0  0  0  0  0  0  0
   -7.8950   -1.2750   -1.5420 C   0  0  0  0  0  0  0  0  0  0  0  0
   -7.0430   -2.3690   -1.3060 N   0  0  0  0  0  0  0  0  0  0  0  0
   -5.7030   -2.1050   -0.9370 N   0  0  0  0  0  0  0  0  0  0  0  0
   -1.2490    0.0710    0.7300 C   0  0  0  0  0  0  0  0  0  0  0  0
    0.0580    0.4540    1.0700 C   0  0  0  0  0  0  0  0  0  0  0  0
    0.3060    1.7970    1.6140 C   0  0  0  0  0  0  0  0  0  0  0  0
   -0.9230    2.5770    1.7410 N   0  0  0  0  0  0  0  0  0  0  0  0
    2.8140    0.0700    2.4860 C   0  0  0  0  0  0  0  0  0  0  0  0
    4.1240    0.2690    2.7740 N   0  0  0  0  0  0  0  0  0  0  0  0
    5.0860    0.2250    1.8420 C   0  0  0  0  0  0  0  0  0  0  0  0
    4.7470   -0.0290    0.5460 C   0  0  0  0  0  0  0  0  0  0  0  0
  1  2  1  0
  2  3  1  0
  3  4  2  0
  3 33  1  0
  4  5  1  0
  4  6  1  0
  6  7  2  0
  7  8  1  0
  8  9  2  0
  8 33  1  0
  9 10  1  0
  9 30  1  0
 10 11  2  0
 10 27  1  0
 11 12  1  0
 12 13  2  0
 13 14  1  0
 13 26  1  0
 14 15  2  0
 14 16  1  0
 16 17  1  0
 17 18  2  0
 17 25  1  0
 18 19  1  0
 18 22  1  0
 19 20  1  0
 20 21  1  0
 22 23  2  0
 23 24  1  0
 24 25  1  0
 26 27  2  0
 27 28  1  0
 28 29  1  0
 30 31  2  0
 31 32  1  0
 32 33  2  0
M  CHG  1  29   1
M  END
