
     RDKit          3D

 32 35  0  0  0  0  0  0  0  0999 V2000
    5.0960   -4.0850   -1.3850 C   0  0  0  0  0  0  0  0  0  0  0  0
    4.7510   -3.9600    0.1070 C   0  0  0  0  0  0  0  0  0  0  0  0
    3.7340   -2.9040    0.2320 C   0  0  0  0  0  0  0  0  0  0  0  0
    3.2620   -2.5970    1.5570 N   0  0  0  0  0  0  0  0  0  0  0  0
    2.5170   -1.3510    1.6630 C   0  0  0  0  0  0  0  0  0  0  0  0
    3.1600   -0.2680    2.2210 C   0  0  0  0  0  0  0  0  0  0  0  0
    2.5780    0.9960    2.2040 C   0  0  0  0  0  0  0  0  0  0  0  0
    1.3210    1.1490    1.6210 C   0  0  0  0  0  0  0  0  0  0  0  0
    0.9540    2.4870    1.0930 C   0  0  0  0  0  0  0  0  0  0  0  0
    1.9990    3.0300    0.3770 C   0  0  0  0  0  0  0  0  0  0  0  0
    2.0220    4.2920   -0.3050 C   0  0  0  0  0  0  0  0  0  0  0  0
    0.7800    5.0400   -0.1640 C   0  0  0  0  0  0  0  0  0  0  0  0
    0.3800    6.2690   -0.6930 C   0  0  0  0  0  0  0  0  0  0  0  0
   -0.8730    6.5050   -0.2930 N   0  0  0  0  0  0  0  0  0  0  0  0
   -1.3270    5.4760    0.4860 C   0  0  0  0  0  0  0  0  0  0  0  0
   -0.2830    4.5870    0.5450 C   0  0  0  0  0  0  0  0  0  0  0  0
   -0.2160    3.2550    1.2140 C   0  0  0  0  0  0  0  0  0  0  0  0
   -1.2230    2.8970    1.8640 O   0  0  0  0  0  0  0  0  0  0  0  0
    0.6460    0.0860    1.0800 C   0  0  0  0  0  0  0  0  0  0  0  0
   -0.6710    0.1690    0.6180 N   0  0  0  0  0  0  0  0  0  0  0  0
   -1.2840   -0.5930   -0.4240 C   0  0  0  0  0  0  0  0  0  0  0  0
   -0.5530   -1.4010   -1.0310 O   0  0  0  0  0  0  0  0  0  0  0  0
   -2.7150   -0.3970   -0.7020 C   0  0  0  0  0  0  0  0  0  0  0  0
   -3.3260    0.8070   -0.5970 C   0  0  0  0  0  0  0  0  0  0  0  0
   -4.7010    0.9580   -0.7200 C   0  0  0  0  0  0  0  0  0  0  0  0
   -5.4760   -0.1380   -0.9550 C   0  0  0  0  0  0  0  0  0  0  0  0
   -4.8360   -1.3820   -1.0700 C   0  0  0  0  0  0  0  0  0  0  0  0
   -5.7150   -2.4650   -1.4080 N   0  0  0  0  0  0  0  0  0  0  0  0
   -3.4890   -1.5080   -0.9510 C   0  0  0  0  0  0  0  0  0  0  0  0
   -2.7980   -2.8070   -1.2560 C   0  0  0  0  0  0  0  0  0  0  0  0
   -2.8060   -3.6660   -0.0900 N   0  0  0  0  0  0  0  0  0  0  0  0
    1.2780   -1.1850    1.1050 C   0  0  0  0  0  0  0  0  0  0  0  0
  1  2  1  0
  2  3  1  0
  3  4  1  0
  4  5  1  0
  5  6  2  0
  5 32  1  0
  6  7  1  0
  7  8  2  0
  8  9  1  0
  8 19  1  0
  9 10  2  0
  9 17  1  0
 10 11  1  0
 11 12  1  0
 12 13  2  0
 12 16  1  0
 13 14  1  0
 14 15  1  0
 15 16  2  0
 16 17  1  0
 17 18  2  0
 19 20  1  0
 19 32  2  0
 20 21  1  0
 21 22  2  0
 21 23  1  0
 23 24  2  0
 23 29  1  0
 24 25  1  0
 25 26  2  0
 26 27  1  0
 27 28  1  0
 27 29  2  0
 29 30  1  0
 30 31  1  0
M  CHG  1  31   1
M  END
