
     RDKit          3D

 32 34  0  0  0  0  0  0  0  0999 V2000
   -3.7650    5.5720   -1.1130 C   0  0  0  0  0  0  0  0  0  0  0  0
   -3.8010    4.1500   -1.4100 N   0  0  0  0  0  0  0  0  0  0  0  0
   -3.6560    3.1560   -0.4230 C   0  0  0  0  0  0  0  0  0  0  0  0
   -3.4880    3.5080    0.7700 O   0  0  0  0  0  0  0  0  0  0  0  0
   -3.6990    1.7130   -0.7620 C   0  0  0  0  0  0  0  0  0  0  0  0
   -3.5250    0.9490    0.4290 N   0  0  0  0  0  0  0  0  0  0  0  0
   -2.7150   -0.2560    0.2360 C   0  0  1  0  0  0  0  0  0  0  0  0
   -1.7610   -0.3350    1.3680 C   0  0  0  0  0  0  0  0  0  0  0  0
   -2.1710    0.2190    2.4570 O   0  0  0  0  0  0  0  0  0  0  0  0
   -0.4880   -0.9490    1.3200 N   0  0  0  0  0  0  0  0  0  0  0  0
    0.3660   -1.6340    0.3880 C   0  0  0  0  0  0  0  0  0  0  0  0
    0.9090   -2.4160    1.5930 C   0  0  0  0  0  0  0  0  0  0  0  0
    0.5580   -1.1420    2.3100 C   0  0  1  0  0  0  0  0  0  0  0  0
    1.5410   -0.0350    2.2120 C   0  0  0  0  0  0  0  0  0  0  0  0
    1.4010    0.9220    1.3750 O   0  0  0  0  0  0  0  0  0  0  0  0
    2.6800    0.0040    3.0470 N   0  0  0  0  0  0  0  0  0  0  0  0
    3.6120    1.0950    2.9320 C   0  0  0  0  0  0  0  0  0  0  0  0
    4.4400    0.9020    1.7320 C   0  0  0  0  0  0  0  0  0  0  0  0
    4.2930   -0.2160    0.9620 C   0  0  0  0  0  0  0  0  0  0  0  0
    5.0900   -0.3750   -0.1750 C   0  0  0  0  0  0  0  0  0  0  0  0
    6.0060    0.5910   -0.5010 C   0  0  0  0  0  0  0  0  0  0  0  0
    6.8500    0.4610   -1.6750 C   0  0  0  0  0  0  0  0  0  0  0  0
    7.7900    1.5110   -1.9520 N   0  0  0  0  0  0  0  0  0  0  0  0
    6.7740   -0.5560   -2.4520 N   0  0  0  0  0  0  0  0  0  0  0  0
    6.1530    1.7310    0.2870 C   0  0  0  0  0  0  0  0  0  0  0  0
    5.3600    1.8650    1.3980 C   0  0  0  0  0  0  0  0  0  0  0  0
   -3.6230   -1.4690    0.2820 C   0  0  1  0  0  0  0  0  0  0  0  0
   -4.6390   -1.3170   -0.8410 C   0  0  0  0  0  0  0  0  0  0  0  0
   -5.0760   -2.6860   -1.3050 C   0  0  0  0  0  0  0  0  0  0  0  0
   -3.9890   -3.4650   -1.9760 C   0  0  0  0  0  0  0  0  0  0  0  0
   -2.6680   -3.1030   -1.3310 C   0  0  0  0  0  0  0  0  0  0  0  0
   -2.9670   -2.7830    0.1310 C   0  0  0  0  0  0  0  0  0  0  0  0
  1  2  1  0
  2  3  1  0
  3  4  2  0
  3  5  1  0
  5  6  1  0
  7  6  1  1
  7  8  1  0
  7 27  1  0
  8  9  2  0
  8 10  1  0
 10 11  1  0
 10 13  1  0
 11 12  1  0
 12 13  1  0
 13 14  1  6
 14 15  2  0
 14 16  1  0
 16 17  1  0
 17 18  1  0
 18 19  2  0
 18 26  1  0
 19 20  1  0
 20 21  2  0
 21 22  1  0
 21 25  1  0
 22 23  1  0
 22 24  2  0
 25 26  2  0
 27 28  1  6
 27 32  1  0
 28 29  1  0
 29 30  1  0
 30 31  1  0
 31 32  1  0
M  CHG  2   6   1  24   1
M  END
