
     RDKit          3D

 32 35  0  0  0  0  0  0  0  0999 V2000
   -6.4880    4.1090   -1.1100 C   0  0  0  0  0  0  0  0  0  0  0  0
   -6.4750    2.9480   -0.1780 C   0  0  0  0  0  0  0  0  0  0  0  0
   -7.6410    2.6350    0.5320 C   0  0  0  0  0  0  0  0  0  0  0  0
   -7.6930    1.5680    1.4210 C   0  0  0  0  0  0  0  0  0  0  0  0
   -6.5690    0.8000    1.6090 C   0  0  0  0  0  0  0  0  0  0  0  0
   -5.3640    1.0830    0.9070 C   0  0  0  0  0  0  0  0  0  0  0  0
   -4.2000    0.2520    1.1640 C   0  0  0  0  0  0  0  0  0  0  0  0
   -2.9460    0.3380    0.5890 C   0  0  0  0  0  0  0  0  0  0  0  0
   -2.1240   -0.5530    1.0540 C   0  0  0  0  0  0  0  0  0  0  0  0
   -0.8010   -0.9690    0.7440 C   0  0  0  0  0  0  0  0  0  0  0  0
   -0.1760   -0.5530   -0.2870 O   0  0  0  0  0  0  0  0  0  0  0  0
   -0.0720   -1.8940    1.5640 O   0  0  0  0  0  0  0  0  0  0  0  0
    1.2200   -2.1980    1.0810 C   0  0  0  0  0  0  0  0  0  0  0  0
    2.0780   -1.1580    0.7560 C   0  0  0  0  0  0  0  0  0  0  0  0
    3.4030   -1.4370    0.2500 C   0  0  0  0  0  0  0  0  0  0  0  0
    4.1920   -0.2450   -0.0620 C   0  0  0  0  0  0  0  0  0  0  0  0
    3.8440    0.8780    0.2400 O   0  0  0  0  0  0  0  0  0  0  0  0
    5.4270   -0.3950   -0.7700 O   0  0  0  0  0  0  0  0  0  0  0  0
    6.1530    0.7900   -1.0780 C   0  0  1  0  0  0  0  0  0  0  0  0
    7.3790    0.8300   -0.3060 C   0  0  0  0  0  0  0  0  0  0  0  0
    8.4040    0.8500    0.3580 N   0  0  0  0  0  0  0  0  0  0  0  0
    6.3710    0.9510   -2.5570 C   0  0  0  0  0  0  0  0  0  0  0  0
    7.0100    2.2160   -2.8530 N   0  0  0  0  0  0  0  0  0  0  0  0
    3.7350   -2.7150    0.1290 C   0  0  0  0  0  0  0  0  0  0  0  0
    2.8530   -3.7570    0.4700 C   0  0  0  0  0  0  0  0  0  0  0  0
    1.6470   -3.5300    0.9250 C   0  0  0  0  0  0  0  0  0  0  0  0
    0.9640   -4.7150    1.1840 O   0  0  0  0  0  0  0  0  0  0  0  0
    1.7670   -5.7840    0.6750 C   0  0  0  0  0  0  0  0  0  0  0  0
    3.0120   -5.1650    0.4230 O   0  0  0  0  0  0  0  0  0  0  0  0
   -2.8610   -1.3010    2.0200 N   0  0  0  0  0  0  0  0  0  0  0  0
   -4.0670   -0.7710    2.0230 N   0  0  0  0  0  0  0  0  0  0  0  0
   -5.4110    2.1310    0.0740 C   0  0  0  0  0  0  0  0  0  0  0  0
  1  2  1  0
  2  3  2  0
  2 32  1  0
  3  4  1  0
  4  5  2  0
  5  6  1  0
  6  7  1  0
  6 32  2  0
  7  8  2  0
  7 31  1  0
  8  9  1  0
  9 10  1  0
  9 30  2  0
 10 11  2  0
 10 12  1  0
 12 13  1  0
 13 14  2  0
 13 26  1  0
 14 15  1  0
 15 16  1  0
 15 24  2  0
 16 17  2  0
 16 18  1  0
 18 19  1  0
 19 20  1  1
 19 22  1  0
 20 21  3  0
 22 23  1  0
 24 25  1  0
 25 26  2  0
 25 29  1  0
 26 27  1  0
 27 28  1  0
 28 29  1  0
 30 31  1  0
M  CHG  1  23   1
M  END
