
     RDKit          3D

 33 36  0  0  0  0  0  0  0  0999 V2000
   -6.5010   -1.8580    0.9230 C   0  0  0  0  0  0  0  0  0  0  0  0
   -5.1800   -2.4700    0.5500 C   0  0  0  0  0  0  0  0  0  0  0  0
   -4.0950   -1.6290    0.7700 O   0  0  0  0  0  0  0  0  0  0  0  0
   -3.8400   -0.4030    0.2330 C   0  0  0  0  0  0  0  0  0  0  0  0
   -4.6630    0.2310   -0.6640 C   0  0  0  0  0  0  0  0  0  0  0  0
   -4.3280    1.4820   -1.1630 C   0  0  0  0  0  0  0  0  0  0  0  0
   -3.1570    2.1220   -0.7720 C   0  0  0  0  0  0  0  0  0  0  0  0
   -2.3200    1.4850    0.1350 C   0  0  0  0  0  0  0  0  0  0  0  0
   -2.6770    0.2440    0.6150 C   0  0  0  0  0  0  0  0  0  0  0  0
   -1.8030   -0.3560    1.5240 O   0  0  0  0  0  0  0  0  0  0  0  0
   -0.7830   -1.1730    1.1160 C   0  0  0  0  0  0  0  0  0  0  0  0
   -0.6510   -1.3710   -0.1200 O   0  0  0  0  0  0  0  0  0  0  0  0
    0.1700   -1.8320    2.0570 C   0  0  0  0  0  0  0  0  0  0  0  0
    1.1220   -2.6200    1.3340 N   0  0  0  0  0  0  0  0  0  0  0  0
    0.9610   -3.9060    1.0180 C   0  0  0  0  0  0  0  0  0  0  0  0
   -0.0490   -4.6270    1.3040 O   0  0  0  0  0  0  0  0  0  0  0  0
    2.0400   -4.3360    0.3410 N   0  0  0  0  0  0  0  0  0  0  0  0
    2.8880   -3.2790    0.2410 C   0  0  0  0  0  0  0  0  0  0  0  0
    4.1220   -3.0950   -0.3240 C   0  0  0  0  0  0  0  0  0  0  0  0
    4.7450   -1.8340   -0.2480 C   0  0  0  0  0  0  0  0  0  0  0  0
    4.1920   -0.7650    0.3610 C   0  0  0  0  0  0  0  0  0  0  0  0
    4.7970    0.5040    0.4450 N   0  0  0  0  0  0  0  0  0  0  0  0
    6.0330    0.8990   -0.0940 C   0  0  0  0  0  0  0  0  0  0  0  0
    6.7410    0.0950   -0.7380 O   0  0  0  0  0  0  0  0  0  0  0  0
    6.5310    2.2820    0.0870 C   0  0  0  0  0  0  0  0  0  0  0  0
    5.8360    3.0900    0.7250 O   0  0  0  0  0  0  0  0  0  0  0  0
    7.7420    2.6540   -0.4460 O   0  0  0  0  0  0  0  0  0  0  0  0
    8.2740    3.9630   -0.3080 C   0  0  0  0  0  0  0  0  0  0  0  0
    2.9260   -0.9720    0.9350 C   0  0  0  0  0  0  0  0  0  0  0  0
    2.3160   -2.1990    0.8630 C   0  0  0  0  0  0  0  0  0  0  0  0
   -3.1150    3.4090   -1.4840 C   0  0  0  0  0  0  0  0  0  0  0  0
   -4.5010    3.6680   -1.8500 N   0  0  0  0  0  0  0  0  0  0  0  0
   -5.0520    2.3500   -2.1290 C   0  0  0  0  0  0  0  0  0  0  0  0
  1  2  1  0
  2  3  1  0
  3  4  1  0
  4  5  2  0
  4  9  1  0
  5  6  1  0
  6  7  2  0
  6 33  1  0
  7  8  1  0
  7 31  1  0
  8  9  2  0
  9 10  1  0
 10 11  1  0
 11 12  2  0
 11 13  1  0
 13 14  1  0
 14 15  1  0
 14 30  1  0
 15 16  2  0
 15 17  1  0
 17 18  1  0
 18 19  2  0
 18 30  1  0
 19 20  1  0
 20 21  2  0
 21 22  1  0
 21 29  1  0
 22 23  1  0
 23 24  2  0
 23 25  1  0
 25 26  2  0
 25 27  1  0
 27 28  1  0
 29 30  2  0
 31 32  1  0
 32 33  1  0
M  CHG  1  32   1
M  END
