
     RDKit          3D

 31 33  0  0  0  0  0  0  0  0999 V2000
   -2.9780    5.2730    1.3470 C   0  0  0  0  0  0  0  0  0  0  0  0
   -2.6690    3.9970    0.6430 C   0  0  0  0  0  0  0  0  0  0  0  0
   -2.2910    4.0120   -0.6750 C   0  0  0  0  0  0  0  0  0  0  0  0
   -1.9870    2.8430   -1.3860 C   0  0  0  0  0  0  0  0  0  0  0  0
   -2.0790    1.6520   -0.7190 C   0  0  0  0  0  0  0  0  0  0  0  0
   -1.7690    0.3650   -1.4000 C   0  0  2  0  0  0  0  0  0  0  0  0
   -2.9500   -0.4590   -1.3660 C   0  0  0  0  0  0  0  0  0  0  0  0
   -3.0340   -1.6350   -0.7770 C   0  0  0  0  0  0  0  0  0  0  0  0
   -4.3410   -2.3790   -0.8270 C   0  0  0  0  0  0  0  0  0  0  0  0
   -5.0300   -2.1650   -2.0000 O   0  0  0  0  0  0  0  0  0  0  0  0
   -5.4170   -0.8260   -2.0010 C   0  0  0  0  0  0  0  0  0  0  0  0
   -4.1980   -0.0060   -2.0270 C   0  0  0  0  0  0  0  0  0  0  0  0
   -4.1580    1.1170   -2.6110 O   0  0  0  0  0  0  0  0  0  0  0  0
   -1.9190   -2.1870   -0.1190 N   0  0  0  0  0  0  0  0  0  0  0  0
   -0.6660   -1.4460   -0.0930 C   0  0  0  0  0  0  0  0  0  0  0  0
    0.4050   -2.1050    0.6310 C   0  0  0  0  0  0  0  0  0  0  0  0
    0.9580   -3.3640    0.0120 C   0  0  1  0  0  0  0  0  0  0  0  0
    1.4980   -3.1060   -1.3570 C   0  0  0  0  0  0  0  0  0  0  0  0
    2.1830   -3.7180    0.8910 C   0  0  0  0  0  0  0  0  0  0  0  0
    0.0710   -4.5610    0.0950 C   0  0  0  0  0  0  0  0  0  0  0  0
   -0.5780   -0.2890   -0.6690 C   0  0  0  0  0  0  0  0  0  0  0  0
    0.6320    0.5100   -0.7120 C   0  0  0  0  0  0  0  0  0  0  0  0
    0.5390    1.6650   -1.3560 O   0  0  0  0  0  0  0  0  0  0  0  0
    1.9410    0.2850   -0.1790 C   0  0  0  0  0  0  0  0  0  0  0  0
    2.9330    1.3930   -0.6910 C   0  0  0  0  0  0  0  0  0  0  0  0
    4.2620    1.0970   -0.0990 C   0  0  0  0  0  0  0  0  0  0  0  0
    4.3290    1.0860    1.3270 N   0  0  1  0  0  0  0  0  0  0  0  0
    5.7130    0.9980    1.8070 C   0  0  0  0  0  0  0  0  0  0  0  0
    3.7330    2.1970    1.9910 C   0  0  0  0  0  0  0  0  0  0  0  0
   -2.4560    1.6090    0.6030 C   0  0  0  0  0  0  0  0  0  0  0  0
   -2.7580    2.7820    1.3060 C   0  0  0  0  0  0  0  0  0  0  0  0
  1  2  1  0
  2  3  2  0
  2 31  1  0
  3  4  1  0
  4  5  2  0
  6  5  1  1
  5 30  1  0
  6  7  1  0
  6 21  1  0
  7  8  2  0
  7 12  1  0
  8  9  1  0
  8 14  1  0
  9 10  1  0
 10 11  1  0
 11 12  1  0
 12 13  2  0
 14 15  1  0
 15 16  1  0
 15 21  2  0
 16 17  1  0
 17 18  1  6
 17 19  1  0
 17 20  1  0
 21 22  1  0
 22 23  2  0
 22 24  1  0
 24 25  1  0
 25 26  1  0
 26 27  1  0
 27 28  1  6
 27 29  1  0
 30 31  2  0
M  CHG  1  27   1
M  END
