
     RDKit          3D

 29 33  0  0  0  0  0  0  0  0999 V2000
    2.5770    2.3850    0.5780 C   0  0  0  0  0  0  0  0  0  0  0  0
    3.3590    2.5040   -0.7070 C   0  0  0  0  0  0  0  0  0  0  0  0
    3.5410    3.6940   -1.3560 N   0  0  0  0  0  0  0  0  0  0  0  0
    4.2820    3.4810   -2.3900 O   0  0  0  0  0  0  0  0  0  0  0  0
    4.6210    2.2210   -2.4960 C   0  0  0  0  0  0  0  0  0  0  0  0
    5.4830    1.6410   -3.5930 C   0  0  0  0  0  0  0  0  0  0  0  0
    4.0380    1.5660   -1.4210 C   0  0  0  0  0  0  0  0  0  0  0  0
    4.1070    0.1260   -1.1580 C   0  0  0  0  0  0  0  0  0  0  0  0
    3.0950   -0.7330   -1.7530 C   0  0  0  0  0  0  0  0  0  0  0  0
    3.2790   -1.3490   -2.9830 N   0  0  0  0  0  0  0  0  0  0  0  0
    2.2490   -2.0900   -3.2780 N   0  0  0  0  0  0  0  0  0  0  0  0
    1.3370   -2.0050   -2.2680 C   0  0  0  0  0  0  0  0  0  0  0  0
    1.9030   -1.1620   -1.3640 N   0  0  0  0  0  0  0  0  0  0  0  0
    1.2930   -0.7340   -0.1040 C   0  0  0  0  0  0  0  0  0  0  0  0
    0.1000   -1.5780    0.2550 C   0  0  2  0  0  0  0  0  0  0  0  0
   -0.3550   -1.1420    1.4870 O   0  0  0  0  0  0  0  0  0  0  0  0
   -1.6600   -0.6630    1.4460 C   0  0  1  0  0  0  0  0  0  0  0  0
   -2.4670   -1.5720    2.3350 C   0  0  0  0  0  0  0  0  0  0  0  0
   -3.8230   -1.8280    1.6840 C   0  0  0  0  0  0  0  0  0  0  0  0
   -4.3190   -0.4650    1.2400 C   0  0  0  0  0  0  0  0  0  0  0  0
   -4.1660    0.4880    2.3660 C   0  0  0  0  0  0  0  0  0  0  0  0
   -2.9440    1.1280    2.5590 N   0  0  2  0  0  0  0  0  0  0  0  0
   -3.0560    2.5780    2.3090 C   0  0  0  0  0  0  0  0  0  0  0  0
   -2.8280    2.7440    0.8310 C   0  0  0  0  0  0  0  0  0  0  0  0
   -1.8530    1.6510    0.5160 C   0  0  0  0  0  0  0  0  0  0  0  0
   -1.8180    0.7850    1.7750 C   0  0  2  0  0  0  0  0  0  0  0  0
    0.4880   -3.0210    0.1860 C   0  0  0  0  0  0  0  0  0  0  0  0
   -0.0450   -3.6740   -1.0750 C   0  0  0  0  0  0  0  0  0  0  0  0
    0.0610   -2.7370   -2.2620 C   0  0  0  0  0  0  0  0  0  0  0  0
  1  2  1  0
  2  3  2  0
  2  7  1  0
  3  4  1  0
  4  5  1  0
  5  6  1  0
  5  7  2  0
  7  8  1  0
  8  9  1  0
  9 10  2  0
  9 13  1  0
 10 11  1  0
 11 12  2  0
 12 13  1  0
 12 29  1  0
 13 14  1  0
 14 15  1  0
 15 16  1  1
 15 27  1  0
 17 16  1  1
 17 18  1  0
 17 26  1  0
 18 19  1  0
 19 20  1  0
 20 21  1  0
 22 21  1  6
 22 23  1  0
 22 26  1  0
 23 24  1  0
 24 25  1  0
 26 25  1  6
 27 28  1  0
 28 29  1  0
M  CHG  1  22   1
M  END
