
     RDKit          3D

 28 31  0  0  0  0  0  0  0  0999 V2000
    6.1840   -2.8640    0.8530 C   0  0  0  0  0  0  0  0  0  0  0  0
    4.8720   -2.3890    0.6770 O   0  0  0  0  0  0  0  0  0  0  0  0
    4.9750   -1.1000    0.1120 C   0  0  0  0  0  0  0  0  0  0  0  0
    3.6000   -0.4710   -0.0900 C   0  0  0  0  0  0  0  0  0  0  0  0
    3.8110    0.9040   -0.6090 C   0  0  0  0  0  0  0  0  0  0  0  0
    5.0450    1.3380   -1.0010 N   0  0  0  0  0  0  0  0  0  0  0  0
    5.2620    2.6330   -1.3190 C   0  0  0  0  0  0  0  0  0  0  0  0
    4.2150    3.4900   -1.2360 N   0  0  0  0  0  0  0  0  0  0  0  0
    2.9960    3.0810   -0.8550 C   0  0  0  0  0  0  0  0  0  0  0  0
    1.9430    3.9240   -0.7410 N   0  0  0  0  0  0  0  0  0  0  0  0
    0.7550    3.4660   -0.3400 C   0  0  0  0  0  0  0  0  0  0  0  0
   -0.2730    4.2250   -0.2120 O   0  0  0  0  0  0  0  0  0  0  0  0
    0.5310    2.1240   -0.0270 C   0  0  0  0  0  0  0  0  0  0  0  0
   -0.7830    1.7290    0.5020 C   0  0  1  0  0  0  0  0  0  0  0  0
   -1.7940    1.6180   -0.6670 C   0  0  0  0  0  0  0  0  0  0  0  0
   -3.0830    2.3700   -0.2220 C   0  0  0  0  0  0  0  0  0  0  0  0
   -3.6690    1.6190    0.9820 C   0  0  0  0  0  0  0  0  0  0  0  0
   -3.3420    0.1710    0.7490 C   0  0  0  0  0  0  0  0  0  0  0  0
   -4.3480   -0.5420    0.3570 C   0  0  0  0  0  0  0  0  0  0  0  0
   -4.2240   -1.9280    0.1000 N   0  0  2  0  0  0  0  0  0  0  0  0
   -4.7970   -2.5960    1.2880 C   0  0  0  0  0  0  0  0  0  0  0  0
   -2.9150   -2.4120   -0.1540 C   0  0  1  0  0  0  0  0  0  0  0  0
   -2.7700   -2.4640   -1.6960 C   0  0  0  0  0  0  0  0  0  0  0  0
   -1.8110   -1.5840    0.3340 C   0  0  0  0  0  0  0  0  0  0  0  0
   -1.9880   -0.3680    0.7560 C   0  0  0  0  0  0  0  0  0  0  0  0
   -0.7590    0.3520    1.1970 C   0  0  0  0  0  0  0  0  0  0  0  0
    1.5950    1.2770   -0.1370 C   0  0  0  0  0  0  0  0  0  0  0  0
    2.8020    1.7800   -0.5450 N   0  0  0  0  0  0  0  0  0  0  0  0
  1  2  1  0
  2  3  1  0
  3  4  1  0
  4  5  1  0
  5  6  2  0
  5 28  1  0
  6  7  1  0
  7  8  2  0
  8  9  1  0
  9 10  2  0
  9 28  1  0
 10 11  1  0
 11 12  2  0
 11 13  1  0
 14 13  1  6
 13 27  2  0
 14 15  1  0
 14 26  1  0
 15 16  1  0
 16 17  1  0
 17 18  1  0
 18 19  2  0
 18 25  1  0
 19 20  1  0
 20 21  1  1
 20 22  1  0
 22 23  1  6
 22 24  1  0
 24 25  2  0
 25 26  1  0
 27 28  1  0
M  CHG  1  20   1
M  END
