
     RDKit          3D

 31 34  0  0  0  0  0  0  0  0999 V2000
   -4.1490    3.8660    0.1650 C   0  0  0  0  0  0  0  0  0  0  0  0
   -4.0570    2.3700   -0.0840 C   0  0  0  0  0  0  0  0  0  0  0  0
   -3.9480    1.7040    1.2630 C   0  0  0  0  0  0  0  0  0  0  0  0
   -3.8480    0.2830    1.2110 N   0  0  0  0  0  0  0  0  0  0  0  0
   -3.3580   -0.2550   -0.0160 C   0  0  1  0  0  0  0  0  0  0  0  0
   -1.8820   -0.2300   -0.1740 C   0  0  0  0  0  0  0  0  0  0  0  0
   -1.3670   -0.9340   -1.1570 C   0  0  0  0  0  0  0  0  0  0  0  0
   -2.1710   -1.7450   -2.1100 C   0  0  0  0  0  0  0  0  0  0  0  0
   -3.5540   -2.0630   -1.6330 C   0  0  0  0  0  0  0  0  0  0  0  0
   -3.7480   -1.7260   -0.1930 C   0  0  2  0  0  0  0  0  0  0  0  0
   -5.1100   -2.0510    0.3030 C   0  0  0  0  0  0  0  0  0  0  0  0
   -6.1230   -1.3360   -0.3230 O   0  0  0  0  0  0  0  0  0  0  0  0
   -7.3410   -1.7570    0.2580 C   0  0  0  0  0  0  0  0  0  0  0  0
    0.1280   -0.9620   -1.3690 C   0  0  0  0  0  0  0  0  0  0  0  0
    0.6880   -0.9670    0.0740 C   0  0  0  0  0  0  0  0  0  0  0  0
    0.3650    0.3160    0.5870 N   0  0  0  0  0  0  0  0  0  0  0  0
    1.2760    1.3060    0.9150 C   0  0  0  0  0  0  0  0  0  0  0  0
    0.7750    2.4230    1.3940 O   0  0  0  0  0  0  0  0  0  0  0  0
    2.7400    1.2930    0.8040 C   0  0  0  0  0  0  0  0  0  0  0  0
    3.3010    0.1550    0.2720 O   0  0  0  0  0  0  0  0  0  0  0  0
    4.6280   -0.0960    0.0710 C   0  0  0  0  0  0  0  0  0  0  0  0
    5.0240   -1.2970   -0.4790 C   0  0  0  0  0  0  0  0  0  0  0  0
    6.3570   -1.5620   -0.6860 C   0  0  0  0  0  0  0  0  0  0  0  0
    7.3410   -0.6420   -0.3540 C   0  0  0  0  0  0  0  0  0  0  0  0
    8.6880   -0.8880   -0.5530 C   0  0  0  0  0  0  0  0  0  0  0  0
    9.6610    0.0250   -0.2220 C   0  0  0  0  0  0  0  0  0  0  0  0
    9.2660    1.2330    0.3300 C   0  0  0  0  0  0  0  0  0  0  0  0
    7.9040    1.4740    0.5280 C   0  0  0  0  0  0  0  0  0  0  0  0
    6.9410    0.5550    0.1950 C   0  0  0  0  0  0  0  0  0  0  0  0
    5.6120    0.8390    0.4100 C   0  0  0  0  0  0  0  0  0  0  0  0
   -1.0710    0.5740    0.7600 C   0  0  0  0  0  0  0  0  0  0  0  0
  1  2  1  0
  2  3  1  0
  3  4  1  0
  5  4  1  1
  5  6  1  0
  5 10  1  0
  6  7  2  0
  6 31  1  0
  7  8  1  0
  7 14  1  0
  8  9  1  0
  9 10  1  0
 10 11  1  6
 11 12  1  0
 12 13  1  0
 14 15  1  0
 15 16  1  0
 16 17  1  0
 16 31  1  0
 17 18  2  0
 17 19  1  0
 19 20  1  0
 20 21  1  0
 21 22  2  0
 21 30  1  0
 22 23  1  0
 23 24  2  0
 24 25  1  0
 24 29  1  0
 25 26  2  0
 26 27  1  0
 27 28  2  0
 28 29  1  0
 29 30  2  0
M  CHG  1   4   1
M  END
