
     RDKit          3D

 29 33  0  0  0  0  0  0  0  0999 V2000
   -4.7090    1.8440    1.1650 O   0  0  0  0  0  0  0  0  0  0  0  0
   -4.2910    0.7110    0.6660 C   0  0  0  0  0  0  0  0  0  0  0  0
   -5.2270   -0.1310    0.0870 N   0  0  0  0  0  0  0  0  0  0  0  0
   -4.9940   -1.3890   -0.5220 C   0  0  0  0  0  0  0  0  0  0  0  0
   -6.2830   -1.6870   -1.3460 C   0  0  0  0  0  0  0  0  0  0  0  0
   -6.5560   -0.5810   -2.1130 O   0  0  0  0  0  0  0  0  0  0  0  0
   -7.0680    0.4700   -1.3430 C   0  0  0  0  0  0  0  0  0  0  0  0
   -6.6670    0.3180    0.0950 C   0  0  0  0  0  0  0  0  0  0  0  0
   -2.9100    0.5170    0.7990 N   0  0  0  0  0  0  0  0  0  0  0  0
   -2.1680    1.6310    1.4480 C   0  0  0  0  0  0  0  0  0  0  0  0
   -0.7970    1.6690    0.7490 C   0  0  0  0  0  0  0  0  0  0  0  0
   -0.1170    0.4260    1.2620 C   0  0  1  0  0  0  0  0  0  0  0  0
   -0.8030   -0.8270    0.8390 C   0  0  1  0  0  0  0  0  0  0  0  0
   -0.6520   -1.7820    2.0230 C   0  0  0  0  0  0  0  0  0  0  0  0
    0.7740   -1.5910    2.5080 C   0  0  0  0  0  0  0  0  0  0  0  0
    1.6880   -1.0070    1.4560 C   0  0  0  0  0  0  0  0  0  0  0  0
    1.2680    0.3000    0.9810 N   0  0  1  0  0  0  0  0  0  0  0  0
    1.5150    0.4230   -0.4220 C   0  0  0  0  0  0  0  0  0  0  0  0
    2.8830    0.9090   -0.7270 C   0  0  0  0  0  0  0  0  0  0  0  0
    3.3480    2.1910   -0.9010 C   0  0  0  0  0  0  0  0  0  0  0  0
    4.6620    2.0720   -1.1570 N   0  0  0  0  0  0  0  0  0  0  0  0
    5.0420    0.8180   -1.1550 N   0  0  0  0  0  0  0  0  0  0  0  0
    6.3620    0.3240   -1.3890 C   0  0  0  0  0  0  0  0  0  0  0  0
    6.7380   -0.9430   -1.3860 C   0  0  0  0  0  0  0  0  0  0  0  0
    8.1800   -1.0180   -1.6700 C   0  0  0  0  0  0  0  0  0  0  0  0
    8.5790    0.3960   -1.8390 C   0  0  0  0  0  0  0  0  0  0  0  0
    7.5220    1.1560   -1.6740 C   0  0  0  0  0  0  0  0  0  0  0  0
    3.9630    0.0770   -0.8920 C   0  0  0  0  0  0  0  0  0  0  0  0
   -2.1910   -0.6360    0.3720 C   0  0  0  0  0  0  0  0  0  0  0  0
  1  2  2  0
  2  3  1  0
  2  9  1  0
  3  4  1  0
  3  8  1  0
  4  5  1  0
  5  6  1  0
  6  7  1  0
  7  8  1  0
  9 10  1  0
  9 29  1  0
 10 11  1  0
 12 11  1  6
 12 13  1  0
 12 17  1  0
 13 14  1  1
 13 29  1  0
 14 15  1  0
 15 16  1  0
 16 17  1  0
 17 18  1  6
 18 19  1  0
 19 20  1  0
 19 28  2  0
 20 21  2  0
 21 22  1  0
 22 23  1  0
 22 28  1  0
 23 24  2  0
 23 27  1  0
 24 25  1  0
 25 26  1  0
 26 27  2  0
M  CHG  1  17   1
M  END
