
     RDKit          3D

 29 32  0  0  0  0  0  0  0  0999 V2000
   -5.0230   -3.2740    1.4810 C   0  0  0  0  0  0  0  0  0  0  0  0
   -3.6820   -2.6770    1.2030 C   0  0  0  0  0  0  0  0  0  0  0  0
   -3.4570   -2.1910    0.0090 C   0  0  0  0  0  0  0  0  0  0  0  0
   -4.3680   -2.1400   -1.1620 C   0  0  0  0  0  0  0  0  0  0  0  0
   -3.3740   -1.9600   -2.3050 C   0  0  0  0  0  0  0  0  0  0  0  0
   -2.4430   -1.1140   -1.7150 O   0  0  0  0  0  0  0  0  0  0  0  0
   -2.1700   -1.5480   -0.4670 C   0  0  1  0  0  0  0  0  0  0  0  0
   -1.7260   -0.5510    0.5200 C   0  0  0  0  0  0  0  0  0  0  0  0
   -0.4690    0.1060    0.1330 N   0  0  0  0  0  0  0  0  0  0  0  0
    0.7010   -0.6340    0.4670 C   0  0  0  0  0  0  0  0  0  0  0  0
    0.5110   -1.7510    1.0690 O   0  0  0  0  0  0  0  0  0  0  0  0
    2.0660   -0.2590    0.1990 C   0  0  0  0  0  0  0  0  0  0  0  0
    3.1810   -1.0070    0.5450 C   0  0  0  0  0  0  0  0  0  0  0  0
    4.3080   -0.3340    0.1290 C   0  0  0  0  0  0  0  0  0  0  0  0
    5.6570   -0.8630    0.3470 C   0  0  1  0  0  0  0  0  0  0  0  0
    5.8630   -0.9700    1.8500 C   0  0  0  0  0  0  0  0  0  0  0  0
    5.9330   -2.1950   -0.2430 C   0  0  0  0  0  0  0  0  0  0  0  0
    3.8580    0.7760   -0.4450 N   0  0  0  0  0  0  0  0  0  0  0  0
    4.7150    1.7870   -1.0300 C   0  0  0  0  0  0  0  0  0  0  0  0
    2.5400    0.8190   -0.4030 N   0  0  0  0  0  0  0  0  0  0  0  0
   -0.4740    1.4450   -0.3960 C   0  0  1  0  0  0  0  0  0  0  0  0
   -1.0210    1.6380   -1.7590 C   0  0  0  0  0  0  0  0  0  0  0  0
   -2.4610    2.0900   -1.7710 C   0  0  0  0  0  0  0  0  0  0  0  0
   -2.4770    3.4760   -1.1100 C   0  0  0  0  0  0  0  0  0  0  0  0
   -2.0170    3.2920    0.2470 N   0  0  0  0  0  0  0  0  0  0  0  0
   -2.4130    3.9850    1.3430 C   0  0  0  0  0  0  0  0  0  0  0  0
   -1.6970    3.4510    2.3960 C   0  0  0  0  0  0  0  0  0  0  0  0
   -0.9130    2.4730    1.8990 N   0  0  0  0  0  0  0  0  0  0  0  0
   -1.1160    2.3840    0.5880 C   0  0  0  0  0  0  0  0  0  0  0  0
  1  2  1  0
  2  3  2  3
  3  4  1  0
  3  7  1  0
  4  5  1  0
  5  6  1  0
  6  7  1  0
  7  8  1  1
  8  9  1  0
  9 10  1  0
 21  9  1  1
 10 11  2  0
 10 12  1  0
 12 13  1  0
 12 20  2  0
 13 14  2  0
 14 15  1  0
 14 18  1  0
 15 16  1  1
 15 17  1  0
 18 19  1  0
 18 20  1  0
 21 22  1  0
 21 29  1  0
 22 23  1  0
 23 24  1  0
 24 25  1  0
 25 26  1  0
 25 29  1  0
 26 27  2  0
 27 28  1  0
 28 29  2  0
M  CHG  1  28   1
M  END
