
     RDKit          3D

 29 33  0  0  0  0  0  0  0  0999 V2000
   -4.7810    0.3060   -2.2960 C   0  0  0  0  0  0  0  0  0  0  0  0
   -3.7880   -0.7690   -2.0080 C   0  0  0  0  0  0  0  0  0  0  0  0
   -3.2360   -0.7270   -0.5850 C   0  0  1  0  0  0  0  0  0  0  0  0
   -2.2510   -1.9080   -0.5170 C   0  0  0  0  0  0  0  0  0  0  0  0
   -1.4670   -1.8310    0.7740 C   0  0  0  0  0  0  0  0  0  0  0  0
   -0.5550   -0.6930    0.6050 N   0  0  2  0  0  0  0  0  0  0  0  0
    0.3400   -0.6510    1.7230 C   0  0  0  0  0  0  0  0  0  0  0  0
    1.7360   -0.5260    1.2120 C   0  0  0  0  0  0  0  0  0  0  0  0
    2.5160   -1.6170    0.9290 C   0  0  0  0  0  0  0  0  0  0  0  0
    3.8070   -1.4920    0.4570 C   0  0  0  0  0  0  0  0  0  0  0  0
    4.3210   -0.2280    0.2660 C   0  0  0  0  0  0  0  0  0  0  0  0
    5.6520   -0.0570   -0.2210 N   0  0  0  0  0  0  0  0  0  0  0  0
    5.8780    0.8510   -1.1550 N   0  0  0  0  0  0  0  0  0  0  0  0
    7.0910    1.0930   -1.6810 C   0  0  0  0  0  0  0  0  0  0  0  0
    8.1520    0.3490   -1.2160 C   0  0  0  0  0  0  0  0  0  0  0  0
    7.9390   -0.5990   -0.2470 C   0  0  0  0  0  0  0  0  0  0  0  0
    6.6710   -0.7970    0.2510 C   0  0  0  0  0  0  0  0  0  0  0  0
    6.4740   -1.6800    1.1530 O   0  0  0  0  0  0  0  0  0  0  0  0
    3.5400    0.8890    0.5500 C   0  0  0  0  0  0  0  0  0  0  0  0
    2.2540    0.7250    1.0200 C   0  0  0  0  0  0  0  0  0  0  0  0
   -1.3510    0.4910    0.5800 C   0  0  0  0  0  0  0  0  0  0  0  0
   -2.4520    0.5200   -0.4220 C   0  0  2  0  0  0  0  0  0  0  0  0
   -3.3700    1.6400   -0.0770 C   0  0  0  0  0  0  0  0  0  0  0  0
   -3.3830    2.9310   -0.4020 N   0  0  0  0  0  0  0  0  0  0  0  0
   -4.4620    3.4630    0.2120 C   0  0  0  0  0  0  0  0  0  0  0  0
   -5.0950    2.4610    0.9120 C   0  0  0  0  0  0  0  0  0  0  0  0
   -4.4060    1.3430    0.7210 N   0  0  0  0  0  0  0  0  0  0  0  0
   -4.5740    0.0120    1.1830 C   0  0  0  0  0  0  0  0  0  0  0  0
   -4.2030   -0.9750    0.3330 O   0  0  0  0  0  0  0  0  0  0  0  0
  1  2  1  0
  3  2  1  6
  3  4  1  0
  3 22  1  0
  3 29  1  0
  4  5  1  0
  5  6  1  0
  6  7  1  1
  6 21  1  0
  7  8  1  0
  8  9  2  0
  8 20  1  0
  9 10  1  0
 10 11  2  0
 11 12  1  0
 11 19  1  0
 12 13  1  0
 12 17  1  0
 13 14  2  0
 14 15  1  0
 15 16  2  0
 16 17  1  0
 17 18  2  0
 19 20  2  0
 22 21  1  1
 22 23  1  0
 23 24  2  0
 23 27  1  0
 24 25  1  0
 25 26  2  0
 26 27  1  0
 27 28  1  0
 28 29  1  0
M  CHG  1   6   1
M  END
