
     RDKit          3D

 33 35  0  0  0  0  0  0  0  0999 V2000
   11.2210    1.3720   -0.5830 C   0  0  0  0  0  0  0  0  0  0  0  0
   11.7750    0.4610    0.4350 C   0  0  0  0  0  0  0  0  0  0  0  0
   10.9930   -0.2660    1.1850 C   0  0  0  0  0  0  0  0  0  0  0  0
    9.5360   -0.1670    1.0040 C   0  0  0  0  0  0  0  0  0  0  0  0
    8.7830   -0.9170    1.7680 C   0  0  0  0  0  0  0  0  0  0  0  0
    7.3300   -0.8770    1.6460 C   0  0  0  0  0  0  0  0  0  0  0  0
    6.6600   -0.0570    0.7850 C   0  0  0  0  0  0  0  0  0  0  0  0
    5.2730   -0.1350    0.7170 C   0  0  0  0  0  0  0  0  0  0  0  0
    4.5330   -0.9800    1.4580 C   0  0  0  0  0  0  0  0  0  0  0  0
    3.1250   -1.1700    1.4780 C   0  0  0  0  0  0  0  0  0  0  0  0
    2.4390   -1.9810    1.9540 O   0  0  0  0  0  0  0  0  0  0  0  0
    2.3110    0.0630    0.6160 N   0  0  0  0  0  0  0  0  0  0  0  0
    0.9970   -0.5420    0.7600 C   0  0  0  0  0  0  0  0  0  0  0  0
    0.5800   -1.5340    1.2530 O   0  0  0  0  0  0  0  0  0  0  0  0
    0.0540    0.4080    0.0730 N   0  0  0  0  0  0  0  0  0  0  0  0
   -1.3040    0.0520    0.0140 C   0  0  0  0  0  0  0  0  0  0  0  0
   -2.0620    1.0910   -0.7750 C   0  0  0  0  0  0  0  0  0  0  0  0
   -1.8170    2.2510   -0.6480 O   0  0  0  0  0  0  0  0  0  0  0  0
   -3.0980    0.5010   -1.6870 C   0  0  2  0  0  0  0  0  0  0  0  0
   -3.8550    1.4640   -2.4900 C   0  0  0  0  0  0  0  0  0  0  0  0
   -5.1400    0.9710   -2.9630 N   0  0  0  0  0  0  0  0  0  0  0  0
   -5.8870    0.4950   -1.8450 C   0  0  0  0  0  0  0  0  0  0  0  0
   -7.2180    0.7780   -1.7730 C   0  0  0  0  0  0  0  0  0  0  0  0
   -7.8600    1.5350   -2.8870 C   0  0  0  0  0  0  0  0  0  0  0  0
   -7.9700    0.3510   -0.6720 C   0  0  0  0  0  0  0  0  0  0  0  0
   -7.3870   -0.3580    0.3540 C   0  0  0  0  0  0  0  0  0  0  0  0
   -8.1450   -0.8310    1.5430 C   0  0  0  0  0  0  0  0  0  0  0  0
   -8.1370    0.1810    2.6570 C   0  0  0  0  0  0  0  0  0  0  0  0
   -6.0430   -0.6310    0.2570 C   0  0  0  0  0  0  0  0  0  0  0  0
   -5.2780   -0.2150   -0.8310 C   0  0  0  0  0  0  0  0  0  0  0  0
   -3.8440   -0.5320   -0.9540 C   0  0  0  0  0  0  0  0  0  0  0  0
    5.2360   -1.7930    2.3190 N   0  0  0  0  0  0  0  0  0  0  0  0
    6.5460   -1.7510    2.4130 C   0  0  0  0  0  0  0  0  0  0  0  0
  1  2  1  0
  2  3  2  3
  3  4  1  0
  4  5  2  3
  5  6  1  0
  6  7  2  0
  6 33  1  0
  7  8  1  0
  8  9  2  0
  9 10  1  0
  9 32  1  0
 10 11  2  0
 10 12  1  0
 12 13  1  0
 13 14  2  0
 13 15  1  0
 15 16  1  0
 16 17  1  0
 17 18  2  0
 19 17  1  1
 19 20  1  0
 19 31  1  0
 20 21  1  0
 21 22  1  0
 22 23  2  0
 22 30  1  0
 23 24  1  0
 23 25  1  0
 25 26  2  0
 26 27  1  0
 26 29  1  0
 27 28  1  0
 29 30  2  0
 30 31  1  0
 32 33  2  0
M  CHG  1  21   1
M  END
