
     RDKit          3D

 32 35  0  0  0  0  0  0  0  0999 V2000
    7.4270    0.4870    1.5000 C   0  0  0  0  0  0  0  0  0  0  0  0
    7.3900   -0.0600    0.1360 N   0  0  0  0  0  0  0  0  0  0  0  0
    5.9520   -0.3770   -0.0700 C   0  0  0  0  0  0  0  0  0  0  0  0
    5.1220    0.6210   -0.3250 C   0  0  0  0  0  0  0  0  0  0  0  0
    3.7380    0.3540   -0.3640 C   0  0  0  0  0  0  0  0  0  0  0  0
    2.8300    1.3420   -0.7530 O   0  0  0  0  0  0  0  0  0  0  0  0
    1.4710    1.0290   -0.7620 C   0  0  0  0  0  0  0  0  0  0  0  0
    0.6650    1.6210   -1.8730 C   0  0  0  0  0  0  0  0  0  0  0  0
   -0.7540    1.4000   -1.4840 C   0  0  0  0  0  0  0  0  0  0  0  0
   -0.9350   -0.0230   -0.8020 C   0  0  0  0  0  0  0  0  0  0  0  0
   -0.4900   -0.9110   -0.5060 N   0  0  0  0  0  0  0  0  0  0  0  0
   -1.0270   -1.9790   -0.0950 N   0  0  0  0  0  0  0  0  0  0  0  0
   -2.3610   -1.5630   -0.2220 C   0  0  0  0  0  0  0  0  0  0  0  0
   -3.9520   -2.3280   -0.0030 S   0  0  0  0  0  0  0  0  0  0  0  0
   -4.7110   -2.7890   -1.5370 C   0  0  0  0  0  0  0  0  0  0  0  0
   -4.3010   -4.0530   -2.1380 C   0  0  0  0  0  0  0  0  0  0  0  0
   -4.0190   -4.9380   -2.5700 N   0  0  0  0  0  0  0  0  0  0  0  0
   -2.3720   -0.1830   -0.6950 N   0  0  0  0  0  0  0  0  0  0  0  0
   -3.4150    0.5930   -0.2770 C   0  0  0  0  0  0  0  0  0  0  0  0
   -3.8650    0.2080    1.0610 C   0  0  0  0  0  0  0  0  0  0  0  0
   -4.8760    0.8070    1.7470 C   0  0  0  0  0  0  0  0  0  0  0  0
   -5.3790    0.5570    2.9610 N   0  0  0  0  0  0  0  0  0  0  0  0
   -6.2560    1.4790    3.1630 C   0  0  0  0  0  0  0  0  0  0  0  0
   -6.3820    2.3260    2.2070 C   0  0  0  0  0  0  0  0  0  0  0  0
   -5.5020    1.9400    1.1340 C   0  0  0  0  0  0  0  0  0  0  0  0
   -5.0450    2.2560   -0.0700 C   0  0  0  0  0  0  0  0  0  0  0  0
   -4.1020    1.6340   -0.7690 C   0  0  0  0  0  0  0  0  0  0  0  0
   -3.7080    2.1590   -2.4910 Cl  0  0  0  0  0  0  0  0  0  0  0  0
    3.3900   -0.9270   -0.0430 C   0  0  0  0  0  0  0  0  0  0  0  0
    4.1780   -2.0010    0.2240 C   0  0  0  0  0  0  0  0  0  0  0  0
    5.6070   -1.6990    0.1890 C   0  0  0  0  0  0  0  0  0  0  0  0
    6.5970   -2.5380    0.3520 O   0  0  0  0  0  0  0  0  0  0  0  0
  1  2  1  0
  2  3  1  0
  3  4  2  0
  3 31  1  0
  4  5  1  0
  5  6  1  0
  5 29  2  0
  6  7  1  0
  7  8  1  0
  8  9  1  0
  9 10  1  0
 10 11  2  0
 10 18  1  0
 11 12  1  0
 12 13  2  0
 13 14  1  0
 13 18  1  0
 14 15  1  0
 15 16  1  0
 16 17  3  0
 18 19  1  0
 19 20  2  0
 19 27  1  0
 20 21  1  0
 21 22  1  0
 21 25  2  0
 22 23  1  0
 23 24  2  0
 24 25  1  0
 25 26  1  0
 26 27  2  0
 27 28  1  0
 29 30  1  0
 30 31  2  0
 31 32  1  0
M  CHG  1   2   1
M  END
