
     RDKit          3D

 33 36  0  0  0  0  0  0  0  0999 V2000
   -4.3170   -3.8310    1.2010 C   0  0  0  0  0  0  0  0  0  0  0  0
   -3.4140   -2.7470    0.6870 C   0  0  0  0  0  0  0  0  0  0  0  0
   -3.6930   -1.4210    0.9380 C   0  0  0  0  0  0  0  0  0  0  0  0
   -2.8320   -0.4670    0.3980 C   0  0  0  0  0  0  0  0  0  0  0  0
   -3.1360    0.8390    0.6630 O   0  0  0  0  0  0  0  0  0  0  0  0
   -1.7190   -0.7620   -0.3710 C   0  0  0  0  0  0  0  0  0  0  0  0
   -0.9630    0.2410   -1.0460 C   0  0  1  0  0  0  0  0  0  0  0  0
   -1.9810    1.0250   -1.7390 O   0  0  0  0  0  0  0  0  0  0  0  0
   -0.0070    1.1300   -0.5150 N   0  0  0  0  0  0  0  0  0  0  0  0
    1.2530    0.8480    0.0610 C   0  0  0  0  0  0  0  0  0  0  0  0
    2.0970   -0.2700    0.0870 N   0  0  0  0  0  0  0  0  0  0  0  0
    2.9190   -0.5200   -1.1220 C   0  0  0  0  0  0  0  0  0  0  0  0
    2.2820   -1.1570    1.1840 C   0  0  0  0  0  0  0  0  0  0  0  0
    3.7070   -1.7320    1.0630 C   0  0  0  0  0  0  0  0  0  0  0  0
    4.7380   -1.1070    1.7060 C   0  0  0  0  0  0  0  0  0  0  0  0
    6.0540   -1.5650    1.5420 C   0  0  0  0  0  0  0  0  0  0  0  0
    6.3190   -2.6230    0.7500 N   0  0  0  0  0  0  0  0  0  0  0  0
    5.3100   -3.2380    0.1160 C   0  0  0  0  0  0  0  0  0  0  0  0
    5.6150   -4.2210   -0.6030 O   0  0  0  0  0  0  0  0  0  0  0  0
    3.9840   -2.7960    0.2660 C   0  0  0  0  0  0  0  0  0  0  0  0
    1.7700    1.9650    0.5990 N   0  0  0  0  0  0  0  0  0  0  0  0
    0.9100    3.0820    0.4090 C   0  0  0  0  0  0  0  0  0  0  0  0
   -0.1070    2.5740   -0.5920 C   0  0  1  0  0  0  0  0  0  0  0  0
    0.4980    2.8760   -1.9840 C   0  0  0  0  0  0  0  0  0  0  0  0
   -1.3240    3.2960   -0.3920 C   0  0  0  0  0  0  0  0  0  0  0  0
   -1.8360    3.5700    0.8390 C   0  0  0  0  0  0  0  0  0  0  0  0
   -2.9560    4.3450    1.0640 C   0  0  0  0  0  0  0  0  0  0  0  0
   -3.6240    4.8870    0.0080 C   0  0  0  0  0  0  0  0  0  0  0  0
   -3.1280    4.6280   -1.2590 C   0  0  0  0  0  0  0  0  0  0  0  0
   -2.0080    3.8520   -1.4700 C   0  0  0  0  0  0  0  0  0  0  0  0
   -1.4870   -2.1370   -0.5870 C   0  0  0  0  0  0  0  0  0  0  0  0
   -2.3180   -3.1030   -0.0730 C   0  0  0  0  0  0  0  0  0  0  0  0
   -2.1340   -4.5610   -0.3500 C   0  0  0  0  0  0  0  0  0  0  0  0
  1  2  1  0
  2  3  2  0
  2 32  1  0
  3  4  1  0
  4  5  1  0
  4  6  2  0
  6  7  1  0
  6 31  1  0
  7  8  1  1
  7  9  1  0
  9 10  1  0
  9 23  1  0
 10 11  1  0
 10 21  2  0
 11 12  1  0
 11 13  1  0
 13 14  1  0
 14 15  1  0
 14 20  2  0
 15 16  2  0
 16 17  1  0
 17 18  1  0
 18 19  2  0
 18 20  1  0
 21 22  1  0
 22 23  1  0
 23 24  1  6
 23 25  1  0
 25 26  2  0
 25 30  1  0
 26 27  1  0
 27 28  2  0
 28 29  1  0
 29 30  2  0
 31 32  2  0
 32 33  1  0
M  CHG  1  21   1
M  END
