
     RDKit          3D

 33 35  0  0  0  0  0  0  0  0999 V2000
   -5.5170    4.6620   -0.4430 C   0  0  0  0  0  0  0  0  0  0  0  0
   -4.6780    4.0740    0.6780 C   0  0  0  0  0  0  0  0  0  0  0  0
   -4.5370    2.6420    0.5850 N   0  0  0  0  0  0  0  0  0  0  0  0
   -3.9600    2.0000   -0.5340 C   0  0  0  0  0  0  0  0  0  0  0  0
   -3.5530    2.6810   -1.4870 O   0  0  0  0  0  0  0  0  0  0  0  0
   -3.8670    0.4950   -0.5100 C   0  0  0  0  0  0  0  0  0  0  0  0
   -3.2690   -0.0570   -1.6700 N   0  0  0  0  0  0  0  0  0  0  0  0
   -2.4020   -1.1610   -1.5860 C   0  0  1  0  0  0  0  0  0  0  0  0
   -1.0630   -0.8690   -2.0540 C   0  0  0  0  0  0  0  0  0  0  0  0
   -0.3960   -1.9270   -2.4150 O   0  0  0  0  0  0  0  0  0  0  0  0
   -0.3400    0.3290   -2.1950 N   0  0  0  0  0  0  0  0  0  0  0  0
   -0.5370    1.7400   -1.9820 C   0  0  0  0  0  0  0  0  0  0  0  0
    0.9390    1.9510   -1.9910 C   0  0  0  0  0  0  0  0  0  0  0  0
    1.0030    0.6200   -2.6550 C   0  0  1  0  0  0  0  0  0  0  0  0
    2.0860   -0.2580   -2.1440 C   0  0  0  0  0  0  0  0  0  0  0  0
    3.1540   -0.2610   -2.8050 O   0  0  0  0  0  0  0  0  0  0  0  0
    2.0090   -1.0680   -0.9980 N   0  0  0  0  0  0  0  0  0  0  0  0
    3.1180   -1.9210   -0.5450 C   0  0  0  0  0  0  0  0  0  0  0  0
    4.1820   -1.1490    0.1340 C   0  0  0  0  0  0  0  0  0  0  0  0
    4.0520   -0.8290    1.4720 C   0  0  0  0  0  0  0  0  0  0  0  0
    5.0320   -0.1100    2.1470 C   0  0  0  0  0  0  0  0  0  0  0  0
    6.1780    0.3210    1.5260 C   0  0  0  0  0  0  0  0  0  0  0  0
    7.2110    1.0760    2.2170 C   0  0  0  0  0  0  0  0  0  0  0  0
    8.3600    1.4670    1.4600 N   0  0  0  0  0  0  0  0  0  0  0  0
    7.1110    1.3810    3.4310 N   0  0  0  0  0  0  0  0  0  0  0  0
    6.3140   -0.0020    0.1730 C   0  0  0  0  0  0  0  0  0  0  0  0
    5.3350   -0.7140   -0.4790 C   0  0  0  0  0  0  0  0  0  0  0  0
   -2.4500   -1.8840   -0.2740 C   0  0  1  0  0  0  0  0  0  0  0  0
   -3.7940   -2.4530    0.0290 C   0  0  0  0  0  0  0  0  0  0  0  0
   -3.8830   -2.5320    1.5530 C   0  0  0  0  0  0  0  0  0  0  0  0
   -2.4910   -2.7130    2.1430 C   0  0  0  0  0  0  0  0  0  0  0  0
   -1.6060   -3.5550    1.2840 C   0  0  0  0  0  0  0  0  0  0  0  0
   -1.4990   -3.0510   -0.1580 C   0  0  0  0  0  0  0  0  0  0  0  0
  1  2  1  0
  2  3  1  0
  3  4  1  0
  4  5  2  0
  4  6  1  0
  6  7  1  0
  8  7  1  1
  8  9  1  0
  8 28  1  0
  9 10  2  0
  9 11  1  0
 11 12  1  0
 11 14  1  0
 12 13  1  0
 13 14  1  0
 14 15  1  1
 15 16  2  0
 15 17  1  0
 17 18  1  0
 18 19  1  0
 19 20  2  0
 19 27  1  0
 20 21  1  0
 21 22  2  0
 22 23  1  0
 22 26  1  0
 23 24  1  0
 23 25  2  0
 26 27  2  0
 28 29  1  6
 28 33  1  0
 29 30  1  0
 30 31  1  0
 31 32  1  0
 32 33  1  0
M  CHG  2   7   1  25   1
M  END
