
     RDKit          3D

 15 14  0  0  0  0  0  0  0  0999 V2000
    0.1810    1.2980    0.9640 O   0  0  0  0  0  0  0  0  0  0  0  0
    0.1240    0.2910    0.2340 C   0  0  0  0  0  0  0  0  0  0  0  0
    1.3280   -0.3010   -0.1250 O   0  0  0  0  0  0  0  0  0  0  0  0
    2.5560    0.2260    0.3250 C   0  0  0  0  0  0  0  0  0  0  0  0
    3.6690   -0.6470   -0.2430 C   0  0  0  0  0  0  0  0  0  0  0  0
    5.3370   -0.0230    0.3030 P   0  0  0  0  0  0  0  0  0  0  0  0
    6.5710   -0.8310   -0.5830 O   0  0  0  0  0  0  0  0  0  0  0  0
    5.4250    1.7020    0.0640 O   0  0  0  0  0  0  0  0  0  0  0  0
   -1.1500   -0.2930   -0.2600 C   0  0  1  0  0  0  0  0  0  0  0  0
   -0.8810   -1.4080   -1.0510 O   0  0  0  0  0  0  0  0  0  0  0  0
   -2.0710   -0.6620    0.8910 C   0  0  0  0  0  0  0  0  0  0  0  0
   -3.2330   -1.1440    0.3930 O   0  0  0  0  0  0  0  0  0  0  0  0
   -3.9840   -0.3600   -0.4010 C   0  0  0  0  0  0  0  0  0  0  0  0
   -4.4720    0.9250    0.1910 C   0  0  0  0  0  0  0  0  0  0  0  0
   -5.2280    1.5650   -0.8220 O   0  0  0  0  0  0  0  0  0  0  0  0
  1  2  2  0
  2  3  1  0
  2  9  1  0
  3  4  1  0
  4  5  1  0
  5  6  1  0
  6  7  1  0
  6  8  1  0
  9 10  1  1
  9 11  1  0
 11 12  1  0
 12 13  1  0
 13 14  1  0
 14 15  1  0
M  END
