
     RDKit          3D

 15 14  0  0  0  0  0  0  0  0999 V2000
   -3.3980    0.0500   -1.9630 C   0  0  0  0  0  0  0  0  0  0  0  0
   -2.5760    0.6890   -0.8580 C   0  0  2  0  0  0  0  0  0  0  0  0
   -1.7530   -0.3190   -0.3020 O   0  0  0  0  0  0  0  0  0  0  0  0
   -0.3570   -0.1840   -0.2890 C   0  0  0  0  0  0  0  0  0  0  0  0
    0.0820    0.8690   -0.7950 O   0  0  0  0  0  0  0  0  0  0  0  0
    0.5110   -1.2140    0.2810 C   0  0  0  0  0  0  0  0  0  0  0  0
    1.8440   -0.9680    0.3090 O   0  0  0  0  0  0  0  0  0  0  0  0
    2.1410    0.1110    1.1150 C   0  0  0  0  0  0  0  0  0  0  0  0
    3.6520    0.3610    1.1320 C   0  0  0  0  0  0  0  0  0  0  0  0
    4.0790    0.6240   -0.1760 O   0  0  0  0  0  0  0  0  0  0  0  0
    5.7870    0.9140   -0.2030 P   0  0  0  0  0  0  0  0  0  0  0  0
    6.6070    0.2560   -1.3590 O   0  0  0  0  0  0  0  0  0  0  0  0
   -3.5370    1.1830    0.1630 C   0  0  0  0  0  0  0  0  0  0  0  0
   -4.3580    2.0790   -0.1250 O   0  0  0  0  0  0  0  0  0  0  0  0
   -3.5270    0.6510    1.4380 O   0  0  0  0  0  0  0  0  0  0  0  0
  2  1  1  6
  2  3  1  0
  2 13  1  0
  3  4  1  0
  4  5  2  0
  4  6  1  0
  6  7  1  0
  7  8  1  0
  8  9  1  0
  9 10  1  0
 10 11  1  0
 11 12  2  0
 13 14  2  0
 13 15  1  0
M  END
