
     RDKit          3D

 15 15  0  0  0  0  0  0  0  0999 V2000
   -4.2270    0.9890   -1.1810 O   0  0  0  0  0  0  0  0  0  0  0  0
   -4.6340    0.4840    0.0280 C   0  0  0  0  0  0  0  0  0  0  0  0
   -3.5440    0.3800    1.0470 C   0  0  0  0  0  0  0  0  0  0  0  0
   -2.4970   -0.4100    0.6770 O   0  0  0  0  0  0  0  0  0  0  0  0
   -1.5850    0.2790   -0.1090 C   0  0  0  0  0  0  0  0  0  0  0  0
   -0.4000   -0.6250   -0.4130 C   0  0  2  0  0  0  0  0  0  0  0  0
    0.0000   -1.4410    0.7690 C   0  0  0  0  0  0  0  0  0  0  0  0
    1.0730   -0.7380    1.2400 O   0  0  0  0  0  0  0  0  0  0  0  0
    1.6370   -0.0370    0.1780 C   0  0  1  0  0  0  0  0  0  0  0  0
    2.8940   -0.7680   -0.2610 C   0  0  0  0  0  0  0  0  0  0  0  0
    3.6280    0.0700   -1.1060 O   0  0  0  0  0  0  0  0  0  0  0  0
    5.0860    0.5400   -0.1970 P   0  0  0  0  0  0  0  0  0  0  0  0
    5.7140   -0.6300    0.8420 O   0  0  0  0  0  0  0  0  0  0  0  0
    4.5350    1.9600    0.7830 O   0  0  0  0  0  0  0  0  0  0  0  0
    0.6850    0.1350   -0.8100 O   0  0  0  0  0  0  0  0  0  0  0  0
  1  2  1  0
  2  3  1  0
  3  4  1  0
  4  5  1  0
  6  5  1  1
  6  7  1  0
  6 15  1  0
  7  8  1  0
  8  9  1  0
  9 10  1  6
  9 15  1  0
 10 11  1  0
 11 12  1  0
 12 13  1  0
 12 14  1  0
M  END
