
     RDKit          3D

 15 15  0  0  0  0  0  0  0  0999 V2000
    5.3830   -1.5030    0.7770 O   0  0  0  0  0  0  0  0  0  0  0  0
    4.2870   -0.2920    1.3610 P   0  0  0  0  0  0  0  0  0  0  0  0
    5.0930    0.8770    2.3430 O   0  0  0  0  0  0  0  0  0  0  0  0
    3.4290    0.4520    0.0490 O   0  0  0  0  0  0  0  0  0  0  0  0
    2.1570   -0.1340   -0.0210 C   0  0  0  0  0  0  0  0  0  0  0  0
    1.3900    0.5170   -1.1790 C   0  0  0  0  0  0  0  0  0  0  0  0
    0.1510   -0.0690   -1.2300 O   0  0  0  0  0  0  0  0  0  0  0  0
   -0.6700    0.3990   -2.2140 C   0  0  0  0  0  0  0  0  0  0  0  0
   -1.9930   -0.3140   -2.1710 C   0  0  0  0  0  0  0  0  0  0  0  0
   -2.6150   -0.1280   -0.9910 O   0  0  0  0  0  0  0  0  0  0  0  0
   -2.1060   -0.5950    0.1660 C   0  0  2  0  0  0  0  0  0  0  0  0
   -3.1810   -1.3350    0.9940 C   0  0  0  0  0  0  0  0  0  0  0  0
   -4.0420   -0.2660    1.2480 O   0  0  0  0  0  0  0  0  0  0  0  0
   -3.1530    0.7170    1.6570 C   0  0  0  0  0  0  0  0  0  0  0  0
   -1.9570    0.5320    1.0210 O   0  0  0  0  0  0  0  0  0  0  0  0
  1  2  1  0
  2  3  1  0
  2  4  1  0
  4  5  1  0
  5  6  1  0
  6  7  1  0
  7  8  1  0
  8  9  1  0
  9 10  1  0
 11 10  1  6
 11 12  1  0
 11 15  1  0
 12 13  1  0
 13 14  1  0
 14 15  1  0
M  END
