
     RDKit          3D

 15 14  0  0  0  0  0  0  0  0999 V2000
    2.8640    0.1850    1.5680 C   0  0  0  0  0  0  0  0  0  0  0  0
    2.8480    0.5520    0.1010 C   0  0  2  0  0  0  0  0  0  0  0  0
    1.7880   -0.2550   -0.5440 C   0  0  0  0  0  0  0  0  0  0  0  0
    2.0570   -1.0480   -1.4690 O   0  0  0  0  0  0  0  0  0  0  0  0
    0.4860   -0.1090   -0.0960 O   0  0  0  0  0  0  0  0  0  0  0  0
   -0.5890   -0.8300   -0.6440 C   0  0  0  0  0  0  0  0  0  0  0  0
   -1.8520   -0.4220    0.0820 C   0  0  0  0  0  0  0  0  0  0  0  0
   -1.8010    0.4320    1.0020 O   0  0  0  0  0  0  0  0  0  0  0  0
   -3.0430   -0.9900   -0.2740 O   0  0  0  0  0  0  0  0  0  0  0  0
   -4.2710   -0.7150    0.2930 C   0  0  0  0  0  0  0  0  0  0  0  0
   -4.7870    0.6730    0.1750 C   0  0  0  0  0  0  0  0  0  0  0  0
   -4.0350    1.6690    0.7240 O   0  0  0  0  0  0  0  0  0  0  0  0
    4.4950    0.2090   -0.6830 P   0  0  0  0  0  0  0  0  0  0  0  0
    5.6790    1.2190    0.0980 O   0  0  0  0  0  0  0  0  0  0  0  0
    4.9210   -1.4490   -0.4020 O   0  0  0  0  0  0  0  0  0  0  0  0
  2  1  1  1
  2  3  1  0
  2 13  1  0
  3  4  2  0
  3  5  1  0
  5  6  1  0
  6  7  1  0
  7  8  2  0
  7  9  1  0
  9 10  1  0
 10 11  1  0
 11 12  1  0
 13 14  1  0
 13 15  1  0
M  END
