
     RDKit          3D

 15 14  0  0  0  0  0  0  0  0999 V2000
    5.0220   -0.0000    0.8490 C   0  0  0  0  0  0  0  0  0  0  0  0
    4.6790   -0.7770   -0.3880 C   0  0  0  0  0  0  0  0  0  0  0  0
    3.4820   -0.3270   -1.0000 O   0  0  0  0  0  0  0  0  0  0  0  0
    2.2670   -0.3460   -0.3320 C   0  0  0  0  0  0  0  0  0  0  0  0
    2.2890   -0.7870    0.8520 O   0  0  0  0  0  0  0  0  0  0  0  0
    1.0480    0.1290   -1.0010 C   0  0  0  0  0  0  0  0  0  0  0  0
   -0.0690    0.0200   -0.1380 O   0  0  0  0  0  0  0  0  0  0  0  0
   -1.3440    0.3960   -0.5120 C   0  0  0  0  0  0  0  0  0  0  0  0
   -1.5150    0.8530   -1.6620 O   0  0  0  0  0  0  0  0  0  0  0  0
   -2.5210    0.2830    0.3900 C   0  0  2  0  0  0  0  0  0  0  0  0
   -2.6700   -1.1780    0.7530 C   0  0  0  0  0  0  0  0  0  0  0  0
   -2.8710   -1.9700   -0.3780 O   0  0  0  0  0  0  0  0  0  0  0  0
   -4.0360    0.9950   -0.3670 P   0  0  0  0  0  0  0  0  0  0  0  0
   -5.0960   -0.2310   -0.9830 O   0  0  0  0  0  0  0  0  0  0  0  0
   -4.9290    1.8600    0.8630 O   0  0  0  0  0  0  0  0  0  0  0  0
  1  2  1  0
  2  3  1  0
  3  4  1  0
  4  5  2  0
  4  6  1  0
  6  7  1  0
  7  8  1  0
  8  9  2  0
  8 10  1  0
 10 11  1  6
 10 13  1  0
 11 12  1  0
 13 14  1  0
 13 15  1  0
M  END
