
     RDKit          3D

 22 22  0  0  0  0  0  0  0  0999 V2000
    6.3690   -0.2760    1.5580 C   0  0  0  0  0  0  0  0  0  0  0  0
    6.0000   -1.1880    0.6790 C   0  0  0  0  0  0  0  0  0  0  0  0
    6.8380   -2.1520   -0.0060 C   0  0  0  0  0  0  0  0  0  0  0  0
    6.0870   -2.8750   -0.7960 C   0  0  0  0  0  0  0  0  0  0  0  0
    4.6930   -2.3950   -0.6520 C   0  0  0  0  0  0  0  0  0  0  0  0
    4.6190   -1.4130    0.2020 C   0  0  0  0  0  0  0  0  0  0  0  0
    3.4860   -0.6750    0.6270 N   0  0  0  0  0  0  0  0  0  0  0  0
    2.1700   -0.8830    0.1790 C   0  0  0  0  0  0  0  0  0  0  0  0
    1.9340   -1.7730   -0.6560 O   0  0  0  0  0  0  0  0  0  0  0  0
    1.0160   -0.0550    0.6790 C   0  0  1  0  0  0  0  0  0  0  0  0
    1.2490    1.3680    0.3540 C   0  0  0  0  0  0  0  0  0  0  0  0
    0.4940    2.1010   -0.4340 C   0  0  0  0  0  0  0  0  0  0  0  0
    0.8810    3.5430   -0.6540 C   0  0  0  0  0  0  0  0  0  0  0  0
   -0.2270   -0.5760    0.0090 C   0  0  0  0  0  0  0  0  0  0  0  0
   -1.3630    0.1560    0.4580 N   0  0  0  0  0  0  0  0  0  0  0  0
   -2.6640   -0.1610   -0.0450 C   0  0  0  0  0  0  0  0  0  0  0  0
   -2.8470   -1.0870   -0.8900 O   0  0  0  0  0  0  0  0  0  0  0  0
   -3.8010    0.5210    0.3600 O   0  0  0  0  0  0  0  0  0  0  0  0
   -5.0910    0.2510   -0.0990 C   0  0  2  0  0  0  0  0  0  0  0  0
   -5.5290   -1.1680    0.2080 C   0  0  0  0  0  0  0  0  0  0  0  0
   -5.2660    0.4660   -1.5770 C   0  0  0  0  0  0  0  0  0  0  0  0
   -6.0400    1.2300    0.6010 C   0  0  0  0  0  0  0  0  0  0  0  0
  1  2  2  0
  2  3  1  0
  2  6  1  0
  3  4  2  0
  4  5  1  0
  5  6  2  0
  6  7  1  0
  7  8  1  0
  8  9  2  0
  8 10  1  0
 10 11  1  0
 10 14  1  6
 11 12  2  3
 12 13  1  0
 14 15  1  0
 15 16  1  0
 16 17  2  0
 16 18  1  0
 18 19  1  0
 19 20  1  6
 19 21  1  0
 19 22  1  0
M  END
