
     RDKit          3D

 22 22  0  0  0  0  0  0  0  0999 V2000
   -1.4160    1.6560   -2.5950 C   0  0  0  0  0  0  0  0  0  0  0  0
   -0.7760    1.7870   -1.2400 C   0  0  1  0  0  0  0  0  0  0  0  0
   -1.3690    2.8380   -0.4060 C   0  0  0  0  0  0  0  0  0  0  0  0
   -1.9080    2.6410    0.8950 N   0  0  0  0  0  0  0  0  0  0  0  0
   -1.4230    4.0170   -0.8390 O   0  0  0  0  0  0  0  0  0  0  0  0
   -0.8200    0.4680   -0.5200 N   0  0  0  0  0  0  0  0  0  0  0  0
   -2.0910    0.0080   -0.2340 C   0  0  0  0  0  0  0  0  0  0  0  0
   -3.0550    0.8000   -0.7190 O   0  0  0  0  0  0  0  0  0  0  0  0
   -2.6610   -1.1210    0.4710 C   0  0  2  0  0  0  0  0  0  0  0  0
   -2.5860   -1.0720    1.9720 C   0  0  0  0  0  0  0  0  0  0  0  0
   -2.1420   -2.4560   -0.0320 C   0  0  0  0  0  0  0  0  0  0  0  0
   -4.1900   -1.2150    0.1670 C   0  0  0  0  0  0  0  0  0  0  0  0
    0.4100   -0.1750   -0.2570 C   0  0  2  0  0  0  0  0  0  0  0  0
    0.6140   -1.3250   -1.2260 C   0  0  0  0  0  0  0  0  0  0  0  0
    0.8050   -0.4860    1.1290 C   0  0  0  0  0  0  0  0  0  0  0  0
    2.1730   -1.1540    1.2260 C   0  0  0  0  0  0  0  0  0  0  0  0
    3.2290   -0.2750    0.6760 C   0  0  0  0  0  0  0  0  0  0  0  0
    4.0060   -0.6010   -0.3350 C   0  0  0  0  0  0  0  0  0  0  0  0
    5.0540    0.2710   -0.8800 C   0  0  0  0  0  0  0  0  0  0  0  0
    5.1780    1.5020   -0.2420 O   0  0  0  0  0  0  0  0  0  0  0  0
    4.3760    1.8610    0.8150 C   0  0  0  0  0  0  0  0  0  0  0  0
    3.4500    1.0410    1.2660 C   0  0  0  0  0  0  0  0  0  0  0  0
  2  1  1  6
  2  3  1  0
  2  6  1  0
  3  4  1  0
  3  5  2  0
  6  7  1  0
  6 13  1  0
  7  8  2  0
  7  9  1  0
  9 10  1  1
  9 11  1  0
  9 12  1  0
 13 14  1  6
 13 15  1  0
 15 16  1  0
 16 17  1  0
 17 18  2  0
 17 22  1  0
 18 19  1  0
 19 20  1  0
 20 21  1  0
 21 22  2  0
M  END
