
     RDKit          3D

 22 22  0  0  0  0  0  0  0  0999 V2000
   -2.9580   -4.2970    0.8140 C   0  0  0  0  0  0  0  0  0  0  0  0
   -3.2810   -2.9170    0.4560 C   0  0  0  0  0  0  0  0  0  0  0  0
   -2.2670   -2.0540    0.2330 C   0  0  0  0  0  0  0  0  0  0  0  0
   -2.5900   -0.7060   -0.1170 C   0  0  0  0  0  0  0  0  0  0  0  0
   -1.8900    0.3390   -0.3880 C   0  0  0  0  0  0  0  0  0  0  0  0
   -2.7140    1.5350   -0.6980 N   0  0  0  0  0  0  0  0  0  0  0  0
   -2.5830    2.6760    0.1270 C   0  0  0  0  0  0  0  0  0  0  0  0
   -1.7750    2.6460    1.1010 O   0  0  0  0  0  0  0  0  0  0  0  0
   -3.3450    3.8970   -0.0940 C   0  0  0  0  0  0  0  0  0  0  0  0
   -3.2040    5.0840    0.7720 C   0  0  0  0  0  0  0  0  0  0  0  0
   -4.1470    3.9330   -1.0560 O   0  0  0  0  0  0  0  0  0  0  0  0
   -0.4940    0.6050   -0.4590 C   0  0  0  0  0  0  0  0  0  0  0  0
   -0.1420    1.8190   -0.7740 O   0  0  0  0  0  0  0  0  0  0  0  0
    0.6130   -0.2240   -0.2460 N   0  0  0  0  0  0  0  0  0  0  0  0
    1.9890    0.2200   -0.3620 C   0  0  2  0  0  0  0  0  0  0  0  0
    2.1660    1.3450    0.6620 C   0  0  0  0  0  0  0  0  0  0  0  0
    2.3510    0.6570   -1.7380 C   0  0  0  0  0  0  0  0  0  0  0  0
    2.9360   -0.8490    0.0550 C   0  0  0  0  0  0  0  0  0  0  0  0
    2.7530   -2.0930    0.3960 C   0  0  0  0  0  0  0  0  0  0  0  0
    4.0440   -2.7710    0.7380 C   0  0  0  0  0  0  0  0  0  0  0  0
    5.0180   -1.6720    0.5260 C   0  0  0  0  0  0  0  0  0  0  0  0
    4.3910   -0.5900    0.1420 C   0  0  0  0  0  0  0  0  0  0  0  0
  1  2  1  0
  2  3  2  3
  3  4  1  0
  4  5  2  3
  5  6  1  0
  5 12  1  0
  6  7  1  0
  7  8  2  0
  7  9  1  0
  9 10  1  0
  9 11  2  0
 12 13  2  0
 12 14  1  0
 14 15  1  0
 15 16  1  1
 15 17  1  0
 15 18  1  0
 18 19  2  0
 18 22  1  0
 19 20  1  0
 20 21  1  0
 21 22  2  0
M  END
