
     RDKit          3D

 10  9  0  0  0  0  0  0  0  0999 V2000
    1.3090   -1.8010   -0.5780 O   0  0  0  0  0  0  0  0  0  0  0  0
    1.1770   -0.7600    0.0300 C   0  0  0  0  0  0  0  0  0  0  0  0
    2.3140    0.1790    0.1080 C   0  0  0  0  0  0  0  0  0  0  0  0
    3.4260   -0.3320   -0.5830 O   0  0  0  0  0  0  0  0  0  0  0  0
   -0.0990   -0.4210    0.6890 C   0  0  1  0  0  0  0  0  0  0  0  0
    0.0320    0.8180    1.3040 O   0  0  0  0  0  0  0  0  0  0  0  0
   -1.2410   -0.3380   -0.3130 C   0  0  2  0  0  0  0  0  0  0  0  0
   -0.9610    0.6380   -1.2640 O   0  0  0  0  0  0  0  0  0  0  0  0
   -2.5220    0.0380    0.4100 C   0  0  0  0  0  0  0  0  0  0  0  0
   -2.4130    1.2440    1.0380 F   0  0  0  0  0  0  0  0  0  0  0  0
  1  2  2  0
  2  3  1  0
  2  5  1  0
  3  4  1  0
  5  6  1  6
  5  7  1  0
  7  8  1  6
  7  9  1  0
  9 10  1  0
M  END
