
     RDKit          3D

 21 21  0  0  0  0  0  0  0  0999 V2000
    7.0360    1.2540    0.6310 C   0  0  0  0  0  0  0  0  0  0  0  0
    5.7070    1.7760    0.2300 C   0  0  0  0  0  0  0  0  0  0  0  0
    5.6070    2.8870   -0.2580 O   0  0  0  0  0  0  0  0  0  0  0  0
    4.5020    0.9010    0.4410 C   0  0  0  0  0  0  0  0  0  0  0  0
    4.1180    0.2350   -0.8330 C   0  0  0  0  0  0  0  0  0  0  0  0
    2.8830   -0.6500   -0.6410 C   0  0  0  0  0  0  0  0  0  0  0  0
    1.6970    0.1210   -0.2600 C   0  0  0  0  0  0  0  0  0  0  0  0
    1.8230    1.4020   -0.2680 O   0  0  0  0  0  0  0  0  0  0  0  0
    0.4410   -0.4820    0.1080 C   0  0  0  0  0  0  0  0  0  0  0  0
    0.0740   -1.7240    0.2040 C   0  0  0  0  0  0  0  0  0  0  0  0
    0.9320   -2.8730   -0.0630 C   0  0  0  0  0  0  0  0  0  0  0  0
   -1.2870   -1.9960    0.5950 N   0  0  0  0  0  0  0  0  0  0  0  0
   -2.0660   -0.9470    1.0780 C   0  0  0  0  0  0  0  0  0  0  0  0
   -3.1150   -0.4350    0.4690 C   0  0  0  0  0  0  0  0  0  0  0  0
   -3.8280    0.6850    1.1300 C   0  0  0  0  0  0  0  0  0  0  0  0
   -4.0330    1.7320    0.0710 C   0  0  0  0  0  0  0  0  0  0  0  0
   -5.2000    1.6130   -0.8020 C   0  0  0  0  0  0  0  0  0  0  0  0
   -5.6710    0.2810   -1.2350 C   0  0  0  0  0  0  0  0  0  0  0  0
   -4.6390   -0.6480   -1.6440 N   0  0  0  0  0  0  0  0  0  0  0  0
   -3.5160   -1.0020   -0.8150 C   0  0  0  0  0  0  0  0  0  0  0  0
   -2.7730   -1.9120   -1.2320 O   0  0  0  0  0  0  0  0  0  0  0  0
  1  2  1  0
  2  3  2  0
  2  4  1  0
  4  5  1  0
  5  6  1  0
  6  7  1  0
  7  8  2  0
  7  9  1  0
  9 10  2  3
 10 11  1  0
 10 12  1  0
 12 13  1  0
 13 14  2  3
 14 15  1  0
 14 20  1  0
 15 16  1  0
 16 17  1  0
 17 18  1  0
 18 19  1  0
 19 20  1  0
 20 21  2  0
M  END
