
     RDKit          3D

 10 10  0  0  0  0  0  0  0  0999 V2000
    3.3360    0.6460    0.5120 C   0  0  0  0  0  0  0  0  0  0  0  0
    1.9810    0.5560    0.1080 O   0  0  0  0  0  0  0  0  0  0  0  0
    1.3730   -0.6030   -0.3020 C   0  0  0  0  0  0  0  0  0  0  0  0
    2.0580   -1.6550   -0.3220 O   0  0  0  0  0  0  0  0  0  0  0  0
   -0.0490   -0.5530   -0.6950 C   0  0  1  0  0  0  0  0  0  0  0  0
   -0.9420   -1.3780    0.1900 C   0  0  0  0  0  0  0  0  0  0  0  0
   -2.2990   -0.9100   -0.3020 C   0  0  0  0  0  0  0  0  0  0  0  0
   -2.0460    0.4680   -0.8230 C   0  0  0  0  0  0  0  0  0  0  0  0
   -0.6230    0.7480   -0.5920 N   0  0  0  0  0  0  0  0  0  0  0  0
   -0.4210    1.3580    0.7000 C   0  0  0  0  0  0  0  0  0  0  0  0
  1  2  1  0
  2  3  1  0
  3  4  2  0
  5  3  1  1
  5  6  1  0
  5  9  1  0
  6  7  1  0
  7  8  1  0
  8  9  1  0
  9 10  1  0
M  END
