
     RDKit          3D

 22 22  0  0  0  0  0  0  0  0999 V2000
   -4.8060   -1.8790    1.3600 C   0  0  0  0  0  0  0  0  0  0  0  0
   -3.9740   -1.7660    0.1230 C   0  0  0  0  0  0  0  0  0  0  0  0
   -2.6660   -1.0490    0.3670 C   0  0  0  0  0  0  0  0  0  0  0  0
   -1.9010   -0.9780   -0.9030 C   0  0  0  0  0  0  0  0  0  0  0  0
   -0.5610   -0.2780   -0.7890 C   0  0  0  0  0  0  0  0  0  0  0  0
    0.5380   -1.0020   -1.0880 C   0  0  0  0  0  0  0  0  0  0  0  0
    1.9140   -0.5030   -1.0500 C   0  0  0  0  0  0  0  0  0  0  0  0
    2.9590   -1.3980   -0.5770 C   0  0  0  0  0  0  0  0  0  0  0  0
    2.7700   -2.8650   -0.6670 C   0  0  0  0  0  0  0  0  0  0  0  0
    4.0960   -0.9340   -0.0510 C   0  0  0  0  0  0  0  0  0  0  0  0
    4.4390    0.4680    0.1260 C   0  0  0  0  0  0  0  0  0  0  0  0
    4.0160    1.2540    1.1220 C   0  0  0  0  0  0  0  0  0  0  0  0
    3.1730    0.9300    2.2090 N   0  0  0  0  0  0  0  0  0  0  0  0
    1.8550    0.4480    2.2500 C   0  0  0  0  0  0  0  0  0  0  0  0
    1.7910   -0.7650    2.7580 O   0  0  0  0  0  0  0  0  0  0  0  0
    0.5990    0.9590    1.8810 N   0  0  0  0  0  0  0  0  0  0  0  0
    0.0310    1.5820    0.7890 C   0  0  0  0  0  0  0  0  0  0  0  0
   -0.4810    1.1070   -0.3660 C   0  0  0  0  0  0  0  0  0  0  0  0
   -1.1530    2.0850   -1.2870 C   0  0  0  0  0  0  0  0  0  0  0  0
   -1.6700    1.8030   -2.3670 O   0  0  0  0  0  0  0  0  0  0  0  0
   -1.2200    3.4270   -0.9270 O   0  0  0  0  0  0  0  0  0  0  0  0
   -1.8280    4.4170   -1.7190 C   0  0  0  0  0  0  0  0  0  0  0  0
  1  2  1  0
  2  3  1  0
  3  4  1  0
  4  5  1  0
  5  6  2  0
  5 18  1  0
  6  7  1  0
  7  8  1  0
  8  9  1  0
  8 10  2  0
 10 11  1  0
 11 12  2  0
 12 13  1  0
 13 14  1  0
 14 15  2  0
 14 16  1  0
 16 17  1  0
 17 18  2  0
 18 19  1  0
 19 20  2  0
 19 21  1  0
 21 22  1  0
M  END
