
     RDKit          3D

 22 22  0  0  0  0  0  0  0  0999 V2000
   -5.1510    2.5280    0.8280 C   0  0  0  0  0  0  0  0  0  0  0  0
   -3.7430    2.1000    0.8150 C   0  0  0  0  0  0  0  0  0  0  0  0
   -3.4540    0.8760    0.4580 C   0  0  0  0  0  0  0  0  0  0  0  0
   -2.0190    0.5000    0.4630 C   0  0  0  0  0  0  0  0  0  0  0  0
   -1.3860   -0.4860   -0.1340 C   0  0  0  0  0  0  0  0  0  0  0  0
    0.0120   -0.7300   -0.0400 C   0  0  0  0  0  0  0  0  0  0  0  0
    0.4280   -1.8060   -0.7250 O   0  0  0  0  0  0  0  0  0  0  0  0
    1.0320   -0.0610    0.6330 N   0  0  0  0  0  0  0  0  0  0  0  0
    1.0000    1.1200    1.4070 C   0  0  0  0  0  0  0  0  0  0  0  0
    1.2420    2.4030    0.6710 C   0  0  0  0  0  0  0  0  0  0  0  0
    0.2930    2.6940   -0.4500 C   0  0  0  0  0  0  0  0  0  0  0  0
    2.3460   -0.7320    0.5550 C   0  0  0  0  0  0  0  0  0  0  0  0
    2.3980   -1.7630   -0.1550 O   0  0  0  0  0  0  0  0  0  0  0  0
    3.4920   -0.1970    1.2800 C   0  0  0  0  0  0  0  0  0  0  0  0
    4.7710   -0.9600    0.9610 C   0  0  0  0  0  0  0  0  0  0  0  0
    5.1470   -0.8810   -0.4900 C   0  0  0  0  0  0  0  0  0  0  0  0
    6.4420   -1.6670   -0.7230 C   0  0  0  0  0  0  0  0  0  0  0  0
   -2.1250   -1.4370   -0.9720 N   0  0  0  0  0  0  0  0  0  0  0  0
   -3.4610   -1.4270   -1.4680 C   0  0  1  0  0  0  0  0  0  0  0  0
   -3.7420   -2.7700   -2.1030 C   0  0  0  0  0  0  0  0  0  0  0  0
   -4.5030   -1.2180   -0.4010 C   0  0  0  0  0  0  0  0  0  0  0  0
   -4.5080    0.0790    0.1200 O   0  0  0  0  0  0  0  0  0  0  0  0
  1  2  1  0
  2  3  2  3
  3  4  1  0
  3 22  1  0
  4  5  2  0
  5  6  1  0
  5 18  1  0
  6  7  2  0
  6  8  1  0
  8  9  1  0
  8 12  1  0
  9 10  1  0
 10 11  1  0
 12 13  2  0
 12 14  1  0
 14 15  1  0
 15 16  1  0
 16 17  1  0
 18 19  1  0
 19 20  1  1
 19 21  1  0
 21 22  1  0
M  END
