
     RDKit          3D

 28 30  0  0  0  0  0  0  0  0999 V2000
   -3.5160   -4.6190   -0.9610 C   0  0  0  0  0  0  0  0  0  0  0  0
   -2.4210   -3.8850   -1.0010 C   0  0  0  0  0  0  0  0  0  0  0  0
   -2.3160   -2.6930   -0.1540 C   0  0  0  0  0  0  0  0  0  0  0  0
   -2.1280   -1.5010   -0.9340 O   0  0  0  0  0  0  0  0  0  0  0  0
   -2.0380   -0.3240   -0.0350 C   0  0  0  0  0  0  0  0  0  0  0  0
   -3.1540   -0.0560    0.4410 C   0  0  0  0  0  0  0  0  0  0  0  0
   -3.8290    0.8750    1.3150 C   0  0  0  0  0  0  0  0  0  0  0  0
   -4.5410    0.5280    2.4430 C   0  0  0  0  0  0  0  0  0  0  0  0
   -5.0590    1.6800    3.0270 C   0  0  0  0  0  0  0  0  0  0  0  0
   -4.6190    2.7010    2.1920 C   0  0  0  0  0  0  0  0  0  0  0  0
   -4.9110    4.1600    2.3830 C   0  0  0  0  0  0  0  0  0  0  0  0
   -3.9170    2.1750    1.2260 O   0  0  0  0  0  0  0  0  0  0  0  0
   -0.6470    0.1490    0.0340 C   0  0  0  0  0  0  0  0  0  0  0  0
   -0.2480    1.0110    1.1220 C   0  0  0  0  0  0  0  0  0  0  0  0
   -1.0850    1.3170    2.3300 C   0  0  0  0  0  0  0  0  0  0  0  0
    0.8900    1.6030    1.1920 O   0  0  0  0  0  0  0  0  0  0  0  0
    0.2110   -0.4060   -0.7920 C   0  0  0  0  0  0  0  0  0  0  0  0
   -0.4430   -1.4070   -1.6280 O   0  0  0  0  0  0  0  0  0  0  0  0
    1.6140   -0.2420   -1.0360 C   0  0  0  0  0  0  0  0  0  0  0  0
    2.2500   -0.9790   -1.9970 C   0  0  0  0  0  0  0  0  0  0  0  0
    3.6390   -0.6610   -2.0830 C   0  0  0  0  0  0  0  0  0  0  0  0
    4.6330   -1.1650   -2.9300 C   0  0  0  0  0  0  0  0  0  0  0  0
    5.9120   -0.6590   -2.8080 C   0  0  0  0  0  0  0  0  0  0  0  0
    6.2120    0.3220   -1.8740 C   0  0  0  0  0  0  0  0  0  0  0  0
    7.6040    0.8210   -1.8020 C   0  0  0  0  0  0  0  0  0  0  0  0
    5.2120    0.7950   -1.0560 C   0  0  0  0  0  0  0  0  0  0  0  0
    3.9200    0.2840   -1.1790 C   0  0  0  0  0  0  0  0  0  0  0  0
    2.6590    0.5880   -0.4380 C   0  0  0  0  0  0  0  0  0  0  0  0
  1  2  2  0
  2  3  1  0
  3  4  1  0
  4  5  1  0
  5  6  2  3
  5 13  1  0
  6  7  1  0
  7  8  2  0
  7 12  1  0
  8  9  1  0
  9 10  2  0
 10 11  1  0
 10 12  1  0
 13 14  1  0
 13 17  2  3
 14 15  1  0
 14 16  2  0
 17 18  1  0
 17 19  1  0
 19 20  2  0
 19 28  1  0
 20 21  1  0
 21 22  2  0
 21 27  1  0
 22 23  1  0
 23 24  2  0
 24 25  1  0
 24 26  1  0
 26 27  2  0
 27 28  1  0
M  END
