
     RDKit          3D

 27 29  0  0  0  0  0  0  0  0999 V2000
   -2.4920    0.6760    3.0920 O   0  0  0  0  0  0  0  0  0  0  0  0
   -1.4570    0.3980    2.4700 C   0  0  0  0  0  0  0  0  0  0  0  0
   -0.1760    0.5600    3.1190 C   0  0  0  0  0  0  0  0  0  0  0  0
    0.9620    0.2900    2.5330 C   0  0  0  0  0  0  0  0  0  0  0  0
    1.0290   -0.2060    1.1520 C   0  0  0  0  0  0  0  0  0  0  0  0
    2.2760   -0.4320    0.6130 C   0  0  0  0  0  0  0  0  0  0  0  0
    2.3850   -0.8820   -0.7310 C   0  0  0  0  0  0  0  0  0  0  0  0
    3.6620   -1.0960   -1.2470 O   0  0  0  0  0  0  0  0  0  0  0  0
    4.7930   -0.8570   -0.4150 C   0  0  0  0  0  0  0  0  0  0  0  0
    6.0150   -1.0780   -1.1680 C   0  0  0  0  0  0  0  0  0  0  0  0
    7.0580   -1.2820   -1.7940 C   0  0  0  0  0  0  0  0  0  0  0  0
    8.3330   -1.5130   -2.5330 C   0  0  0  0  0  0  0  0  0  0  0  0
    8.8820   -0.1410   -2.9840 C   0  0  0  0  0  0  0  0  0  0  0  0
    7.9640    0.4420   -3.8110 O   0  0  0  0  0  0  0  0  0  0  0  0
    1.2560   -1.0650   -1.4010 C   0  0  0  0  0  0  0  0  0  0  0  0
   -0.0090   -0.8320   -0.8430 C   0  0  0  0  0  0  0  0  0  0  0  0
   -0.1420   -0.3970    0.4460 C   0  0  0  0  0  0  0  0  0  0  0  0
   -1.4540   -0.1020    1.0710 C   0  0  0  0  0  0  0  0  0  0  0  0
   -2.5390   -0.1820    0.4010 C   0  0  0  0  0  0  0  0  0  0  0  0
   -3.8730    0.1830    0.8080 C   0  0  0  0  0  0  0  0  0  0  0  0
   -4.8810   -0.0220   -0.0260 C   0  0  0  0  0  0  0  0  0  0  0  0
   -6.2540    0.3360    0.3100 C   0  0  0  0  0  0  0  0  0  0  0  0
   -7.2950    0.1170   -0.5050 C   0  0  0  0  0  0  0  0  0  0  0  0
   -8.5080    0.6210    0.1880 C   0  0  0  0  0  0  0  0  0  0  0  0
   -8.1850    1.1240    1.3620 C   0  0  0  0  0  0  0  0  0  0  0  0
   -9.1180    1.6860    2.2680 O   0  0  0  0  0  0  0  0  0  0  0  0
   -6.7290    0.9930    1.5280 C   0  0  0  0  0  0  0  0  0  0  0  0
  1  2  2  0
  2  3  1  0
  2 18  1  0
  3  4  2  0
  4  5  1  0
  5  6  2  0
  5 17  1  0
  6  7  1  0
  7  8  1  0
  7 15  2  0
  8  9  1  0
  9 10  1  0
 10 11  3  0
 11 12  1  0
 12 13  1  0
 13 14  1  0
 15 16  1  0
 16 17  2  0
 17 18  1  0
 18 19  2  3
 19 20  1  0
 20 21  2  3
 21 22  1  0
 22 23  2  0
 22 27  1  0
 23 24  1  0
 24 25  2  0
 25 26  1  0
 25 27  1  0
M  END
