
     RDKit          3D

 28 30  0  0  0  0  0  0  0  0999 V2000
   -0.7820    2.4820    2.8350 C   0  0  0  0  0  0  0  0  0  0  0  0
   -0.7220    1.2590    1.9840 C   0  0  0  0  0  0  0  0  0  0  0  0
   -1.8220    0.8430    1.4060 C   0  0  0  0  0  0  0  0  0  0  0  0
   -3.2050    1.4360    1.4710 C   0  0  0  0  0  0  0  0  0  0  0  0
   -4.0090    0.1510    1.5740 C   0  0  0  0  0  0  0  0  0  0  0  0
   -3.3070   -0.7590    0.6230 C   0  0  0  0  0  0  0  0  0  0  0  0
   -3.7340   -1.8440   -0.1100 C   0  0  0  0  0  0  0  0  0  0  0  0
   -2.8320   -2.4940   -0.9270 C   0  0  0  0  0  0  0  0  0  0  0  0
   -3.2820   -3.6650   -1.7210 C   0  0  0  0  0  0  0  0  0  0  0  0
   -1.5260   -2.0610   -1.0040 C   0  0  0  0  0  0  0  0  0  0  0  0
   -0.6330   -2.7180   -1.8170 O   0  0  0  0  0  0  0  0  0  0  0  0
   -0.4960   -2.3260   -3.1610 C   0  0  0  0  0  0  0  0  0  0  0  0
   -1.0500   -0.9580   -0.2740 C   0  0  0  0  0  0  0  0  0  0  0  0
    0.2160   -0.6160   -0.4200 O   0  0  0  0  0  0  0  0  0  0  0  0
    0.9640    0.3870   -0.8980 C   0  0  0  0  0  0  0  0  0  0  0  0
    0.7080    1.2000   -1.9730 C   0  0  0  0  0  0  0  0  0  0  0  0
   -0.4620    1.0180   -2.6830 O   0  0  0  0  0  0  0  0  0  0  0  0
    1.6020    2.1990   -2.3500 C   0  0  0  0  0  0  0  0  0  0  0  0
    2.7610    2.4270   -1.6870 C   0  0  0  0  0  0  0  0  0  0  0  0
    3.6740    3.5100   -2.1370 C   0  0  0  0  0  0  0  0  0  0  0  0
    3.0440    1.6300   -0.6060 C   0  0  0  0  0  0  0  0  0  0  0  0
    2.1800    0.6360   -0.2150 C   0  0  0  0  0  0  0  0  0  0  0  0
    2.5760   -0.1950    0.9120 C   0  0  0  0  0  0  0  0  0  0  0  0
    3.6610   -0.0710    1.6240 C   0  0  0  0  0  0  0  0  0  0  0  0
    3.9300   -1.0010    2.7490 C   0  0  0  0  0  0  0  0  0  0  0  0
    2.8220   -1.9860    2.8670 C   0  0  0  0  0  0  0  0  0  0  0  0
    2.8180   -2.9410    2.1080 O   0  0  0  0  0  0  0  0  0  0  0  0
   -1.9740   -0.3330    0.5300 C   0  0  0  0  0  0  0  0  0  0  0  0
  1  2  1  0
  2  3  2  3
  3  4  1  0
  3 28  1  0
  4  5  1  0
  5  6  1  0
  6  7  2  0
  6 28  1  0
  7  8  1  0
  8  9  1  0
  8 10  2  0
 10 11  1  0
 10 13  1  0
 11 12  1  0
 13 14  1  0
 13 28  2  0
 14 15  1  0
 15 16  2  0
 15 22  1  0
 16 17  1  0
 16 18  1  0
 18 19  2  0
 19 20  1  0
 19 21  1  0
 21 22  2  0
 22 23  1  0
 23 24  2  3
 24 25  1  0
 25 26  1  0
 26 27  2  0
M  END
