
     RDKit          3D

 12 12  0  0  0  0  0  0  0  0999 V2000
    4.1690    0.2770   -0.0730 C   0  0  0  0  0  0  0  0  0  0  0  0
    2.9680    0.0610   -0.7790 O   0  0  0  0  0  0  0  0  0  0  0  0
    1.7620    0.0360   -0.0600 C   0  0  0  0  0  0  0  0  0  0  0  0
    1.8260    0.2080    1.1690 O   0  0  0  0  0  0  0  0  0  0  0  0
    0.5570   -0.1800   -0.7660 N   0  0  0  0  0  0  0  0  0  0  0  0
   -0.7140   -0.2300   -0.1720 C   0  0  0  0  0  0  0  0  0  0  0  0
   -1.8260   -0.4350   -0.8900 C   0  0  0  0  0  0  0  0  0  0  0  0
   -1.9290   -0.6250   -2.2580 O   0  0  0  0  0  0  0  0  0  0  0  0
   -3.0010   -0.4330    0.0090 C   0  0  0  0  0  0  0  0  0  0  0  0
   -2.5210    0.2200    1.2880 C   0  0  0  0  0  0  0  0  0  0  0  0
   -1.0500   -0.0960    1.2270 C   0  0  0  0  0  0  0  0  0  0  0  0
   -0.3750   -0.1940    2.2660 O   0  0  0  0  0  0  0  0  0  0  0  0
  1  2  1  0
  2  3  1  0
  3  4  2  0
  3  5  1  0
  5  6  1  0
  6  7  2  0
  6 11  1  0
  7  8  1  0
  7  9  1  0
  9 10  1  0
 10 11  1  0
 11 12  2  0
M  END
