
     RDKit          3D

 28 30  0  0  0  0  0  0  0  0999 V2000
    4.3840   -1.6300   -1.4700 C   0  0  0  0  0  0  0  0  0  0  0  0
    4.9030   -0.8470   -0.2250 C   0  0  0  0  0  0  0  0  0  0  0  0
    6.1370   -1.0630   -0.0020 C   0  0  0  0  0  0  0  0  0  0  0  0
    7.1640   -0.6920    0.9020 C   0  0  0  0  0  0  0  0  0  0  0  0
    7.2380    0.0330    1.8890 O   0  0  0  0  0  0  0  0  0  0  0  0
    3.8590   -0.0420    0.4020 C   0  0  0  0  0  0  0  0  0  0  0  0
    4.0380    0.6230    1.5830 C   0  0  0  0  0  0  0  0  0  0  0  0
    3.0570    1.5060    2.0390 C   0  0  0  0  0  0  0  0  0  0  0  0
    1.9100    1.7220    1.3280 C   0  0  0  0  0  0  0  0  0  0  0  0
    0.9430    2.6150    1.8250 O   0  0  0  0  0  0  0  0  0  0  0  0
    1.7070    1.0670    0.1480 C   0  0  0  0  0  0  0  0  0  0  0  0
    0.6170    1.5250   -0.7730 C   0  0  0  0  0  0  0  0  0  0  0  0
   -0.5520    0.9290   -0.8140 O   0  0  0  0  0  0  0  0  0  0  0  0
   -1.2710   -0.1590   -0.8120 C   0  0  0  0  0  0  0  0  0  0  0  0
   -0.6650   -1.3990   -0.5800 C   0  0  0  0  0  0  0  0  0  0  0  0
   -1.3630   -2.5740   -0.5590 C   0  0  0  0  0  0  0  0  0  0  0  0
   -0.6330   -3.8420   -0.2250 C   0  0  0  0  0  0  0  0  0  0  0  0
   -2.6960   -2.5390   -0.7750 C   0  0  0  0  0  0  0  0  0  0  0  0
   -3.3730   -1.3370   -1.0180 C   0  0  0  0  0  0  0  0  0  0  0  0
   -4.8310   -1.4490   -1.2480 C   0  0  0  0  0  0  0  0  0  0  0  0
   -2.6670   -0.1520   -1.0360 C   0  0  0  0  0  0  0  0  0  0  0  0
   -3.3520    0.9950   -1.2790 O   0  0  0  0  0  0  0  0  0  0  0  0
   -4.0010    1.8160   -0.3980 C   0  0  0  0  0  0  0  0  0  0  0  0
   -4.7240    1.5010    0.6720 C   0  0  0  0  0  0  0  0  0  0  0  0
   -5.2390    2.7030    1.3250 C   0  0  0  0  0  0  0  0  0  0  0  0
   -4.7170    3.8040    0.4860 C   0  0  0  0  0  0  0  0  0  0  0  0
   -4.0080    3.2860   -0.5000 C   0  0  0  0  0  0  0  0  0  0  0  0
    2.6800    0.1880   -0.3050 C   0  0  0  0  0  0  0  0  0  0  0  0
  1  2  1  0
  2  3  2  3
  2  6  1  0
  3  4  1  0
  4  5  2  0
  6  7  2  0
  6 28  1  0
  7  8  1  0
  8  9  2  0
  9 10  1  0
  9 11  1  0
 11 12  1  0
 11 28  2  0
 12 13  1  0
 13 14  1  0
 14 15  2  0
 14 21  1  0
 15 16  1  0
 16 17  1  0
 16 18  2  0
 18 19  1  0
 19 20  1  0
 19 21  2  0
 21 22  1  0
 22 23  1  0
 23 24  2  0
 23 27  1  0
 24 25  1  0
 25 26  1  0
 26 27  2  0
M  END
