
     RDKit          3D

 12 12  0  0  0  0  0  0  0  0999 V2000
    3.8230    0.0320    0.7350 C   0  0  0  0  0  0  0  0  0  0  0  0
    2.5000    0.3440    0.2990 O   0  0  0  0  0  0  0  0  0  0  0  0
    1.3780   -0.2370    0.8680 C   0  0  0  0  0  0  0  0  0  0  0  0
    1.5590   -1.0590    1.7910 O   0  0  0  0  0  0  0  0  0  0  0  0
    0.0130    0.0920    0.4110 C   0  0  0  0  0  0  0  0  0  0  0  0
   -0.9910   -0.5070    1.0070 C   0  0  0  0  0  0  0  0  0  0  0  0
   -0.7100   -1.4370    2.0530 O   0  0  0  0  0  0  0  0  0  0  0  0
   -2.3900   -0.2450    0.6310 C   0  0  0  0  0  0  0  0  0  0  0  0
   -2.5090    0.2050   -0.7780 C   0  0  0  0  0  0  0  0  0  0  0  0
   -1.5080    1.2850   -1.0910 C   0  0  0  0  0  0  0  0  0  0  0  0
   -1.8860    2.3020   -1.6840 O   0  0  0  0  0  0  0  0  0  0  0  0
   -0.1810    1.0090   -0.6550 N   0  0  0  0  0  0  0  0  0  0  0  0
  1  2  1  0
  2  3  1  0
  3  4  2  0
  3  5  1  0
  5  6  2  0
  5 12  1  0
  6  7  1  0
  6  8  1  0
  8  9  1  0
  9 10  1  0
 10 11  2  0
 10 12  1  0
M  END
