
     RDKit          3D

 33 35  0  0  0  0  0  0  0  0999 V2000
    1.3770    0.2850   -3.3170 C   0  0  0  0  0  0  0  0  0  0  0  0
    2.4760    0.3190   -2.4340 O   0  0  0  0  0  0  0  0  0  0  0  0
    2.1880    0.2880   -1.0530 C   0  0  0  0  0  0  0  0  0  0  0  0
    1.0050    0.2330   -0.7240 O   0  0  0  0  0  0  0  0  0  0  0  0
    3.2670    0.3200   -0.0750 C   0  0  0  0  0  0  0  0  0  0  0  0
    4.5830    0.3170   -0.5840 C   0  0  0  0  0  0  0  0  0  0  0  0
    5.6700    0.2970    0.2180 C   0  0  0  0  0  0  0  0  0  0  0  0
    7.0320    0.2870   -0.2310 N   0  0  0  0  0  0  0  0  0  0  0  0
    7.4550    0.2290   -1.5730 C   0  0  0  0  0  0  0  0  0  0  0  0
    8.9200    0.2260   -1.9370 C   0  0  0  0  0  0  0  0  0  0  0  0
    6.6610    0.1770   -2.5170 O   0  0  0  0  0  0  0  0  0  0  0  0
    5.4420    0.2810    1.5790 C   0  0  0  0  0  0  0  0  0  0  0  0
    4.1600    0.2860    2.0820 C   0  0  0  0  0  0  0  0  0  0  0  0
    3.0250    0.3060    1.2680 C   0  0  0  0  0  0  0  0  0  0  0  0
    1.7340    0.3890    1.8020 N   0  0  0  0  0  0  0  0  0  0  0  0
    1.3860    0.1150    3.1480 C   0  0  0  0  0  0  0  0  0  0  0  0
    2.2820   -0.2380    3.9530 O   0  0  0  0  0  0  0  0  0  0  0  0
   -0.0330    0.2340    3.6670 C   0  0  0  0  0  0  0  0  0  0  0  0
   -0.8950    0.4560    2.6190 O   0  0  0  0  0  0  0  0  0  0  0  0
   -1.1360   -0.4340    1.5860 C   0  0  0  0  0  0  0  0  0  0  0  0
   -0.5240   -1.5530    1.5890 O   0  0  0  0  0  0  0  0  0  0  0  0
   -2.0870   -0.1370    0.4640 C   0  0  0  0  0  0  0  0  0  0  0  0
   -3.3800   -0.8290    0.8130 C   0  0  0  0  0  0  0  0  0  0  0  0
   -4.4390   -0.6520   -0.1780 C   0  0  0  0  0  0  0  0  0  0  0  0
   -4.7610   -1.6720   -1.0300 C   0  0  0  0  0  0  0  0  0  0  0  0
   -5.7390   -1.5600   -1.9690 C   0  0  0  0  0  0  0  0  0  0  0  0
   -6.0670   -2.6890   -2.8830 C   0  0  0  0  0  0  0  0  0  0  0  0
   -6.4280   -0.3770   -2.0620 C   0  0  0  0  0  0  0  0  0  0  0  0
   -6.1110    0.6660   -1.2020 C   0  0  0  0  0  0  0  0  0  0  0  0
   -6.6610    1.9490   -1.1020 C   0  0  0  0  0  0  0  0  0  0  0  0
   -5.9980    2.5690   -0.1090 N   0  0  0  0  0  0  0  0  0  0  0  0
   -5.0730    1.7440    0.4080 C   0  0  0  0  0  0  0  0  0  0  0  0
   -5.1190    0.5340   -0.2600 C   0  0  0  0  0  0  0  0  0  0  0  0
  1  2  1  0
  2  3  1  0
  3  4  2  0
  3  5  1  0
  5  6  2  0
  5 14  1  0
  6  7  1  0
  7  8  1  0
  7 12  2  0
  8  9  1  0
  9 10  1  0
  9 11  2  0
 12 13  1  0
 13 14  2  0
 14 15  1  0
 15 16  1  0
 16 17  2  0
 16 18  1  0
 18 19  1  0
 19 20  1  0
 20 21  2  0
 20 22  1  0
 22 23  1  0
 23 24  1  0
 24 25  2  0
 24 33  1  0
 25 26  1  0
 26 27  1  0
 26 28  2  0
 28 29  1  0
 29 30  2  0
 29 33  1  0
 30 31  1  0
 31 32  1  0
 32 33  2  0
M  END
