
     RDKit          3D

 32 35  0  0  0  0  0  0  0  0999 V2000
   -5.6780    2.9720    2.9310 C   0  0  0  0  0  0  0  0  0  0  0  0
   -5.1790    2.0060    1.8770 C   0  0  0  0  0  0  0  0  0  0  0  0
   -3.9200    1.8320    1.7930 N   0  0  0  0  0  0  0  0  0  0  0  0
   -3.3750    0.9580    0.8430 N   0  0  0  0  0  0  0  0  0  0  0  0
   -1.9800    0.7470    0.7510 C   0  0  0  0  0  0  0  0  0  0  0  0
   -1.2750    0.8530   -0.4160 C   0  0  0  0  0  0  0  0  0  0  0  0
    0.1110    0.6230   -0.4770 C   0  0  0  0  0  0  0  0  0  0  0  0
    0.8010    0.2820    0.6510 C   0  0  0  0  0  0  0  0  0  0  0  0
    2.1840    0.0340    0.6770 N   0  0  0  0  0  0  0  0  0  0  0  0
    3.0980    0.0820   -0.3840 C   0  0  0  0  0  0  0  0  0  0  0  0
    2.7230    0.3710   -1.5270 O   0  0  0  0  0  0  0  0  0  0  0  0
    4.5050   -0.2000   -0.2030 N   0  0  0  0  0  0  0  0  0  0  0  0
    5.3830   -0.1310   -1.3410 C   0  0  0  0  0  0  0  0  0  0  0  0
    6.7860   -0.4620   -0.8820 C   0  0  1  0  0  0  0  0  0  0  0  0
    7.1760    0.5610    0.1610 C   0  0  0  0  0  0  0  0  0  0  0  0
    8.1650   -0.0360    1.1370 C   0  0  0  0  0  0  0  0  0  0  0  0
    9.0710   -1.0390    0.4450 C   0  0  0  0  0  0  0  0  0  0  0  0
    8.2660   -2.1450   -0.2050 C   0  0  0  0  0  0  0  0  0  0  0  0
    6.8660   -1.7840   -0.3120 N   0  0  0  0  0  0  0  0  0  0  0  0
    0.1000    0.1710    1.8430 C   0  0  0  0  0  0  0  0  0  0  0  0
    0.7850   -0.1670    2.9570 F   0  0  0  0  0  0  0  0  0  0  0  0
   -1.2760    0.4010    1.8950 C   0  0  0  0  0  0  0  0  0  0  0  0
   -4.2750    0.2550   -0.0480 C   0  0  0  0  0  0  0  0  0  0  0  0
   -3.5980   -0.7800   -0.8700 C   0  0  0  0  0  0  0  0  0  0  0  0
   -5.5530    0.4140    0.0110 C   0  0  0  0  0  0  0  0  0  0  0  0
   -6.5670   -0.2510   -0.8830 C   0  0  0  0  0  0  0  0  0  0  0  0
   -7.8390   -0.0510   -0.6150 C   0  0  0  0  0  0  0  0  0  0  0  0
   -9.0640   -0.5320   -1.2570 C   0  0  0  0  0  0  0  0  0  0  0  0
   -8.7770   -1.3820   -2.8030 S   0  0  0  0  0  0  0  0  0  0  0  0
   -7.0130   -1.5160   -2.9670 C   0  0  0  0  0  0  0  0  0  0  0  0
   -6.1660   -0.9730   -2.0520 C   0  0  0  0  0  0  0  0  0  0  0  0
   -6.1490    1.3260    1.0510 C   0  0  0  0  0  0  0  0  0  0  0  0
  1  2  1  0
  2  3  2  0
  2 32  1  0
  3  4  1  0
  4  5  1  0
  4 23  1  0
  5  6  2  0
  5 22  1  0
  6  7  1  0
  7  8  2  0
  8  9  1  0
  8 20  1  0
  9 10  1  0
 10 11  2  0
 10 12  1  0
 12 13  1  0
 14 13  1  1
 14 15  1  0
 14 19  1  0
 15 16  1  0
 16 17  1  0
 17 18  1  0
 18 19  1  0
 20 21  1  0
 20 22  2  0
 23 24  1  0
 23 25  2  0
 25 26  1  0
 25 32  1  0
 26 27  2  0
 26 31  1  0
 27 28  1  0
 28 29  1  0
 29 30  1  0
 30 31  2  0
M  CHG  1  19   1
M  END
