
     RDKit          3D

 32 35  0  0  0  0  0  0  0  0999 V2000
   -5.5920    3.0030    0.2470 C   0  0  0  0  0  0  0  0  0  0  0  0
   -5.5200    1.9240    1.2850 C   0  0  0  0  0  0  0  0  0  0  0  0
   -4.2340    1.2620    1.1420 N   0  0  0  0  0  0  0  0  0  0  0  0
   -4.2660    0.3440    0.0070 C   0  0  2  0  0  0  0  0  0  0  0  0
   -4.6730   -1.0060    0.5070 C   0  0  0  0  0  0  0  0  0  0  0  0
   -3.6130   -1.4690    1.4370 C   0  0  0  0  0  0  0  0  0  0  0  0
   -3.8020   -1.8410    2.6440 N   0  0  0  0  0  0  0  0  0  0  0  0
   -5.3760   -1.8590    3.3930 S   0  0  0  0  0  0  0  0  0  0  0  0
   -5.7850   -0.4400    3.7500 O   0  0  0  0  0  0  0  0  0  0  0  0
   -2.2930   -1.4860    0.8970 N   0  0  0  0  0  0  0  0  0  0  0  0
   -1.9330   -0.5550   -0.1540 C   0  0  0  0  0  0  0  0  0  0  0  0
   -0.6550   -0.5750   -0.6880 C   0  0  0  0  0  0  0  0  0  0  0  0
    0.2840   -1.5580   -0.1820 C   0  0  0  0  0  0  0  0  0  0  0  0
    1.5190   -1.3680    0.1690 C   0  0  0  0  0  0  0  0  0  0  0  0
    2.1990   -0.0780    0.1120 C   0  0  0  0  0  0  0  0  0  0  0  0
    3.2770   -0.1120   -0.8370 N   0  0  0  0  0  0  0  0  0  0  0  0
    4.2860    0.8770   -0.6750 C   0  0  0  0  0  0  0  0  0  0  0  0
    4.3950    1.8780   -1.6030 N   0  0  0  0  0  0  0  0  0  0  0  0
    5.3080    2.8560   -1.5170 C   0  0  0  0  0  0  0  0  0  0  0  0
    6.2120    2.9320   -0.4820 C   0  0  0  0  0  0  0  0  0  0  0  0
    6.1390    1.9460    0.4760 C   0  0  0  0  0  0  0  0  0  0  0  0
    5.1780    0.9310    0.3670 C   0  0  0  0  0  0  0  0  0  0  0  0
    5.1840   -0.1010    1.4300 C   0  0  0  0  0  0  0  0  0  0  0  0
    3.4470   -1.0290   -1.9360 C   0  0  0  0  0  0  0  0  0  0  0  0
    2.8210   -2.3650   -1.7700 C   0  0  0  0  0  0  0  0  0  0  0  0
    3.1350   -3.0720   -0.4820 C   0  0  0  0  0  0  0  0  0  0  0  0
    2.2140   -2.6290    0.6390 C   0  0  2  0  0  0  0  0  0  0  0  0
    1.2820   -3.5780    0.9520 F   0  0  0  0  0  0  0  0  0  0  0  0
   -0.3280    0.3080   -1.6910 C   0  0  0  0  0  0  0  0  0  0  0  0
   -1.2890    1.1940   -2.1390 C   0  0  0  0  0  0  0  0  0  0  0  0
   -2.5550    1.2060   -1.6010 C   0  0  0  0  0  0  0  0  0  0  0  0
   -2.9140    0.3140   -0.5750 C   0  0  0  0  0  0  0  0  0  0  0  0
  1  2  1  0
  2  3  1  0
  4  3  1  1
  4  5  1  0
  4 32  1  0
  5  6  1  0
  6  7  2  3
  6 10  1  0
  7  8  1  0
  8  9  2  0
 10 11  1  0
 11 12  2  0
 11 32  1  0
 12 13  1  0
 12 29  1  0
 13 14  2  3
 14 15  1  0
 14 27  1  0
 15 16  1  0
 16 17  1  0
 16 24  1  0
 17 18  2  0
 17 22  1  0
 18 19  1  0
 19 20  2  0
 20 21  1  0
 21 22  2  0
 22 23  1  0
 24 25  1  0
 25 26  1  0
 26 27  1  0
 27 28  1  6
 29 30  2  0
 30 31  1  0
 31 32  2  0
M  CHG  1   3   1
M  END
