
     RDKit          3D

 33 35  0  0  0  0  0  0  0  0999 V2000
   -0.2340    5.4370    0.8330 C   0  0  0  0  0  0  0  0  0  0  0  0
    0.4870    4.2370    0.9440 O   0  0  0  0  0  0  0  0  0  0  0  0
    0.3030    3.1250    0.1430 C   0  0  0  0  0  0  0  0  0  0  0  0
   -0.5530    3.1570   -0.7500 O   0  0  0  0  0  0  0  0  0  0  0  0
    1.1060    1.9020    0.3320 C   0  0  0  0  0  0  0  0  0  0  0  0
    2.0730    1.7260    1.2580 N   0  0  0  0  0  0  0  0  0  0  0  0
    2.6370    0.5200    1.1650 C   0  0  0  0  0  0  0  0  0  0  0  0
    3.6020   -0.3280    1.7060 C   0  0  0  0  0  0  0  0  0  0  0  0
    4.4960   -0.0510    2.8190 C   0  0  0  0  0  0  0  0  0  0  0  0
    5.6360    0.4670    2.7010 O   0  0  0  0  0  0  0  0  0  0  0  0
    4.0630   -0.3790    4.0880 O   0  0  0  0  0  0  0  0  0  0  0  0
    3.5250   -1.4800    0.9630 C   0  0  0  0  0  0  0  0  0  0  0  0
    4.3600   -2.6920    1.1700 C   0  0  1  0  0  0  0  0  0  0  0  0
    4.0690   -3.7440    0.1150 C   0  0  0  0  0  0  0  0  0  0  0  0
    5.8410   -2.3950    1.1150 C   0  0  0  0  0  0  0  0  0  0  0  0
    2.5560   -1.2950    0.0370 N   0  0  0  0  0  0  0  0  0  0  0  0
    2.0160   -0.0970    0.1500 N   0  0  0  0  0  0  0  0  0  0  0  0
    1.0730    0.7290   -0.3760 C   0  0  0  0  0  0  0  0  0  0  0  0
    0.2040    0.3440   -1.4570 C   0  0  0  0  0  0  0  0  0  0  0  0
   -1.0870    0.0920   -1.3720 C   0  0  0  0  0  0  0  0  0  0  0  0
   -1.7840    0.1720   -0.1360 C   0  0  0  0  0  0  0  0  0  0  0  0
   -1.0970    0.4740    0.9240 O   0  0  0  0  0  0  0  0  0  0  0  0
   -3.1030   -0.0220    0.1300 O   0  0  0  0  0  0  0  0  0  0  0  0
   -3.7140    0.0790    1.3860 C   0  0  1  0  0  0  0  0  0  0  0  0
   -5.2090   -0.2140    1.3080 C   0  0  0  0  0  0  0  0  0  0  0  0
   -3.0370   -0.8930    2.3210 C   0  0  0  0  0  0  0  0  0  0  0  0
   -3.6010    1.4500    2.0160 C   0  0  0  0  0  0  0  0  0  0  0  0
   -1.7750   -0.2860   -2.6340 C   0  0  0  0  0  0  0  0  0  0  0  0
   -3.0500   -0.5560   -2.6590 C   0  0  0  0  0  0  0  0  0  0  0  0
   -3.7720   -0.9330   -3.8910 C   0  0  0  0  0  0  0  0  0  0  0  0
   -3.1130   -0.9980   -5.0130 C   0  0  0  0  0  0  0  0  0  0  0  0
   -1.6890   -0.7090   -5.0950 C   0  0  0  0  0  0  0  0  0  0  0  0
   -0.9700   -0.3830   -3.8720 C   0  0  0  0  0  0  0  0  0  0  0  0
  1  2  1  0
  2  3  1  0
  3  4  2  0
  3  5  1  0
  5  6  1  0
  5 18  2  0
  6  7  1  0
  7  8  2  0
  7 17  1  0
  8  9  1  0
  8 12  1  0
  9 10  2  0
  9 11  1  0
 12 13  1  0
 12 16  2  0
 13 14  1  6
 13 15  1  0
 16 17  1  0
 17 18  1  0
 18 19  1  0
 19 20  2  3
 20 21  1  0
 20 28  1  0
 21 22  2  0
 21 23  1  0
 23 24  1  0
 24 25  1  6
 24 26  1  0
 24 27  1  0
 28 29  2  0
 28 33  1  0
 29 30  1  0
 30 31  2  0
 31 32  1  0
 32 33  1  0
M  END
