
     RDKit          3D

 31 35  0  0  0  0  0  0  0  0999 V2000
   -4.0320    2.3810    0.5880 C   0  0  0  0  0  0  0  0  0  0  0  0
   -4.0030    0.9220    0.2660 C   0  0  0  0  0  0  0  0  0  0  0  0
   -5.1560    0.3990   -0.1440 C   0  0  0  0  0  0  0  0  0  0  0  0
   -6.2450    1.4130   -0.1950 C   0  0  0  0  0  0  0  0  0  0  0  0
   -7.2630    0.9480   -1.0980 N   0  0  0  0  0  0  0  0  0  0  0  0
   -8.0180   -0.1450   -0.5130 C   0  0  0  0  0  0  0  0  0  0  0  0
   -7.6320   -1.4580   -1.1310 C   0  0  0  0  0  0  0  0  0  0  0  0
   -6.2500   -1.7470   -0.8760 N   0  0  0  0  0  0  0  0  0  0  0  0
   -5.2650   -1.0040   -0.4820 C   0  0  0  0  0  0  0  0  0  0  0  0
   -4.0650   -1.7950   -0.3540 N   0  0  0  0  0  0  0  0  0  0  0  0
   -2.8270   -1.2580    0.0790 C   0  0  0  0  0  0  0  0  0  0  0  0
   -1.7130   -2.0560    0.1790 C   0  0  0  0  0  0  0  0  0  0  0  0
   -0.5390   -1.4720    0.6020 C   0  0  0  0  0  0  0  0  0  0  0  0
   -0.4830   -0.1310    0.9130 C   0  0  0  0  0  0  0  0  0  0  0  0
    0.7430    0.5620    1.3670 C   0  0  0  0  0  0  0  0  0  0  0  0
    1.8740   -0.2630    1.1060 N   0  0  0  0  0  0  0  0  0  0  0  0
    2.1150   -0.5870   -0.2580 C   0  0  0  0  0  0  0  0  0  0  0  0
    3.1270    0.3800   -0.8920 C   0  0  0  0  0  0  0  0  0  0  0  0
    4.2610    0.3900   -0.0250 N   0  0  0  0  0  0  0  0  0  0  0  0
    5.5370    0.0000   -0.4900 C   0  0  0  0  0  0  0  0  0  0  0  0
    5.7190   -0.3730   -1.7010 O   0  0  0  0  0  0  0  0  0  0  0  0
    6.7390   -0.0030    0.3790 C   0  0  0  0  0  0  0  0  0  0  0  0
    7.8940   -0.4740   -0.4690 C   0  0  0  0  0  0  0  0  0  0  0  0
    8.6860    0.3430   -1.1350 C   0  0  0  0  0  0  0  0  0  0  0  0
    9.7310   -0.1090   -1.9010 C   0  0  0  0  0  0  0  0  0  0  0  0
    9.5800   -1.9530   -1.6500 S   0  0  0  0  0  0  0  0  0  0  0  0
    8.1140   -1.8620   -0.5350 C   0  0  0  0  0  0  0  0  0  0  0  0
    4.0890    0.8020    1.3320 C   0  0  0  0  0  0  0  0  0  0  0  0
    3.0070   -0.0740    1.9400 C   0  0  0  0  0  0  0  0  0  0  0  0
   -1.6230    0.6470    0.8020 C   0  0  0  0  0  0  0  0  0  0  0  0
   -2.8180    0.0910    0.3810 C   0  0  0  0  0  0  0  0  0  0  0  0
  1  2  1  0
  2  3  2  0
  2 31  1  0
  3  4  1  0
  3  9  1  0
  4  5  1  0
  5  6  1  0
  6  7  1  0
  7  8  1  0
  8  9  2  0
  9 10  1  0
 10 11  1  0
 11 12  2  0
 11 31  1  0
 12 13  1  0
 13 14  2  0
 14 15  1  0
 14 30  1  0
 15 16  1  0
 16 17  1  0
 16 29  1  0
 17 18  1  0
 18 19  1  0
 19 20  1  0
 19 28  1  0
 20 21  2  0
 20 22  1  0
 22 23  1  0
 23 24  1  0
 23 27  2  0
 24 25  2  0
 25 26  1  0
 26 27  1  0
 28 29  1  0
 30 31  2  0
M  CHG  1   5   1
M  END
