
     RDKit          3D

 24 26  0  0  0  0  0  0  0  0999 V2000
   -6.8220   -0.2460    0.5130 C   0  0  0  0  0  0  0  0  0  0  0  0
   -5.3800   -0.3890    0.0360 C   0  0  0  0  0  0  0  0  0  0  0  0
   -4.9820   -1.6340   -0.0360 C   0  0  0  0  0  0  0  0  0  0  0  0
   -3.3310   -1.9380   -0.6020 S   0  0  0  0  0  0  0  0  0  0  0  0
   -2.4420   -0.3680   -0.3900 C   0  0  0  0  0  0  0  0  0  0  0  0
   -1.1570   -0.4530   -0.3120 C   0  0  0  0  0  0  0  0  0  0  0  0
   -0.5740   -1.7660   -0.4120 N   0  0  0  0  0  0  0  0  0  0  0  0
    0.8050   -1.9940   -0.2810 C   0  0  0  0  0  0  0  0  0  0  0  0
    1.2410   -3.1750   -0.3820 O   0  0  0  0  0  0  0  0  0  0  0  0
    1.7370   -0.8840   -0.0330 C   0  0  0  0  0  0  0  0  0  0  0  0
    3.1550   -1.2010    0.0710 C   0  0  0  0  0  0  0  0  0  0  0  0
    4.1280   -0.3480    0.2540 N   0  0  0  0  0  0  0  0  0  0  0  0
    5.3690   -1.0190    0.3020 C   0  0  0  0  0  0  0  0  0  0  0  0
    6.4900   -0.6550    0.7870 N   0  0  0  0  0  0  0  0  0  0  0  0
    5.1310   -2.3410   -0.3700 C   0  0  0  0  0  0  0  0  0  0  0  0
    3.7160   -2.5130    0.0180 N   0  0  0  0  0  0  0  0  0  0  0  0
    1.2250    0.3150    0.0600 C   0  0  0  0  0  0  0  0  0  0  0  0
    2.0490    1.5050    0.3080 C   0  0  2  0  0  0  0  0  0  0  0  0
    1.4520    2.3110    1.4760 C   0  0  0  0  0  0  0  0  0  0  0  0
    1.8240    2.4100   -0.9240 C   0  0  0  0  0  0  0  0  0  0  0  0
   -0.2150    0.5630   -0.0740 N   0  0  0  0  0  0  0  0  0  0  0  0
   -3.2880    0.7830   -0.3040 C   0  0  0  0  0  0  0  0  0  0  0  0
   -2.7040    2.1530   -0.5480 C   0  0  0  0  0  0  0  0  0  0  0  0
   -4.5850    0.7470   -0.1030 N   0  0  0  0  0  0  0  0  0  0  0  0
  1  2  1  0
  2  3  2  0
  2 24  1  0
  3  4  1  0
  4  5  1  0
  5  6  2  3
  5 22  1  0
  6  7  1  0
  6 21  1  0
  7  8  1  0
  8  9  2  0
  8 10  1  0
 10 11  1  0
 10 17  2  0
 11 12  2  0
 11 16  1  0
 12 13  1  0
 13 14  2  0
 13 15  1  0
 15 16  1  0
 17 18  1  0
 17 21  1  0
 18 19  1  1
 18 20  1  0
 22 23  1  0
 22 24  2  0
M  END
