
     RDKit          3D

 24 25  0  0  0  0  0  0  0  0999 V2000
   -5.3140    2.3980   -0.5050 C   0  0  0  0  0  0  0  0  0  0  0  0
   -5.2340    1.1760   -0.0380 C   0  0  0  0  0  0  0  0  0  0  0  0
   -4.0320    0.3690   -0.0630 C   0  0  0  0  0  0  0  0  0  0  0  0
   -4.0590   -0.8490    0.4290 C   0  0  0  0  0  0  0  0  0  0  0  0
   -5.3340   -1.3930    1.0130 C   0  0  0  0  0  0  0  0  0  0  0  0
   -2.7470    0.8640   -0.6250 C   0  0  1  0  0  0  0  0  0  0  0  0
   -2.2890    2.1350    0.0110 C   0  0  0  0  0  0  0  0  0  0  0  0
   -1.6830   -0.1530   -0.5380 C   0  0  0  0  0  0  0  0  0  0  0  0
   -1.1360   -0.8560   -1.5170 N   0  0  0  0  0  0  0  0  0  0  0  0
   -0.2070   -1.6680   -1.0780 N   0  0  0  0  0  0  0  0  0  0  0  0
   -0.1450   -1.4850    0.2470 C   0  0  0  0  0  0  0  0  0  0  0  0
    0.6050   -2.0480    1.1110 N   0  0  0  0  0  0  0  0  0  0  0  0
    1.5720   -3.0290    0.8200 C   0  0  0  0  0  0  0  0  0  0  0  0
    1.1860   -4.6070    0.8080 S   0  0  0  0  0  0  0  0  0  0  0  0
    2.8960   -2.6450    0.5340 N   0  0  0  0  0  0  0  0  0  0  0  0
    3.2190   -1.2590    0.5480 C   0  0  0  0  0  0  0  0  0  0  0  0
    4.0260   -0.7040   -0.3420 C   0  0  0  0  0  0  0  0  0  0  0  0
    4.1920    0.6840   -0.1190 N   0  0  0  0  0  0  0  0  0  0  0  0
    5.2210    1.5400   -0.7220 C   0  0  0  0  0  0  0  0  0  0  0  0
    6.1060    0.7120   -1.6400 C   0  0  0  0  0  0  0  0  0  0  0  0
    3.1620    1.1030    0.8100 C   0  0  0  0  0  0  0  0  0  0  0  0
    2.7890   -0.2070    1.4510 C   0  0  0  0  0  0  0  0  0  0  0  0
    2.2210   -0.3950    2.5440 O   0  0  0  0  0  0  0  0  0  0  0  0
   -1.0680   -0.5370    0.5890 N   0  0  0  0  0  0  0  0  0  0  0  0
  1  2  2  0
  2  3  1  0
  3  4  2  3
  3  6  1  0
  4  5  1  0
  6  7  1  1
  6  8  1  0
  8  9  2  0
  8 24  1  0
  9 10  1  0
 10 11  1  0
 11 12  2  3
 11 24  1  0
 12 13  1  0
 13 14  2  0
 13 15  1  0
 15 16  1  0
 16 17  2  0
 16 22  1  0
 17 18  1  0
 18 19  1  0
 18 21  1  0
 19 20  1  0
 21 22  1  0
 22 23  2  0
M  END
