
     RDKit          3D

 12 12  0  0  0  0  0  0  0  0999 V2000
   -1.5790   -2.3000   -1.0530 C   0  0  0  0  0  0  0  0  0  0  0  0
   -2.0800   -1.2280   -0.5310 C   0  0  0  0  0  0  0  0  0  0  0  0
   -3.7730   -0.7980   -0.8400 S   0  0  0  0  0  0  0  0  0  0  0  0
   -4.0330    0.7290    0.0590 C   0  0  0  0  0  0  0  0  0  0  0  0
   -3.0620    1.2720    0.7470 C   0  0  0  0  0  0  0  0  0  0  0  0
   -1.7240    0.7500    0.8730 C   0  0  0  0  0  0  0  0  0  0  0  0
   -1.2950   -0.3570    0.3050 C   0  0  0  0  0  0  0  0  0  0  0  0
    0.0440   -0.7530    0.5110 O   0  0  0  0  0  0  0  0  0  0  0  0
    1.0170    0.2170    0.1760 C   0  0  0  0  0  0  0  0  0  0  0  0
    2.4160   -0.2580    0.4160 C   0  0  0  0  0  0  0  0  0  0  0  0
    3.3600    0.8600    0.0220 C   0  0  0  0  0  0  0  0  0  0  0  0
    4.6880    0.5110    0.2100 O   0  0  0  0  0  0  0  0  0  0  0  0
  1  2  2  0
  2  3  1  0
  2  7  1  0
  3  4  1  0
  4  5  2  0
  5  6  1  0
  6  7  2  0
  7  8  1  0
  8  9  1  0
  9 10  1  0
 10 11  1  0
 11 12  1  0
M  END
