
     RDKit          3D

 24 26  0  0  0  0  0  0  0  0999 V2000
    7.3180    1.0000   -0.1200 C   0  0  0  0  0  0  0  0  0  0  0  0
    5.8810    1.8800    0.5240 S   0  0  0  0  0  0  0  0  0  0  0  0
    4.4410    0.8470    0.3320 C   0  0  0  0  0  0  0  0  0  0  0  0
    4.5250   -0.4100   -0.2330 C   0  0  0  0  0  0  0  0  0  0  0  0
    3.4400   -1.2380   -0.4000 C   0  0  0  0  0  0  0  0  0  0  0  0
    3.5790   -2.5990   -1.0200 C   0  0  0  0  0  0  0  0  0  0  0  0
    2.2440   -0.7690    0.0210 N   0  0  0  0  0  0  0  0  0  0  0  0
    2.1260    0.4580    0.5790 C   0  0  0  0  0  0  0  0  0  0  0  0
    0.7700    0.8730    1.0050 C   0  0  2  0  0  0  0  0  0  0  0  0
    0.4090   -0.0200    2.1980 C   0  0  0  0  0  0  0  0  0  0  0  0
   -0.1550    0.5320   -0.0530 N   0  0  0  0  0  0  0  0  0  0  0  0
   -1.5710    0.6760    0.0960 C   0  0  0  0  0  0  0  0  0  0  0  0
   -1.8900    1.4630    1.0630 N   0  0  0  0  0  0  0  0  0  0  0  0
   -3.1750    1.8500    1.5160 C   0  0  0  0  0  0  0  0  0  0  0  0
   -3.2380    2.6530    2.5050 O   0  0  0  0  0  0  0  0  0  0  0  0
   -4.4400    1.4520    1.0010 N   0  0  0  0  0  0  0  0  0  0  0  0
   -4.7200    0.5160   -0.0470 C   0  0  0  0  0  0  0  0  0  0  0  0
   -6.0740    0.3150   -0.2010 C   0  0  0  0  0  0  0  0  0  0  0  0
   -6.5470   -0.5640   -1.1750 C   0  0  0  0  0  0  0  0  0  0  0  0
   -5.6730   -1.2440   -1.9960 C   0  0  0  0  0  0  0  0  0  0  0  0
   -4.3050   -1.0180   -1.8150 C   0  0  0  0  0  0  0  0  0  0  0  0
   -3.8410   -0.1510   -0.8540 C   0  0  0  0  0  0  0  0  0  0  0  0
   -2.4130   -0.0420   -0.8100 N   0  0  0  0  0  0  0  0  0  0  0  0
    3.2100    1.2430    0.7270 N   0  0  0  0  0  0  0  0  0  0  0  0
  1  2  1  0
  2  3  1  0
  3  4  2  0
  3 24  1  0
  4  5  1  0
  5  6  1  0
  5  7  2  0
  7  8  1  0
  8  9  1  0
  8 24  2  0
  9 10  1  1
  9 11  1  0
 11 12  1  0
 12 13  2  0
 12 23  1  0
 13 14  1  0
 14 15  2  0
 14 16  1  0
 16 17  1  0
 17 18  2  0
 17 22  1  0
 18 19  1  0
 19 20  2  0
 20 21  1  0
 21 22  2  0
 22 23  1  0
M  END
