
     RDKit          3D

 24 26  0  0  0  0  0  0  0  0999 V2000
    5.8870    1.1470    1.1710 C   0  0  0  0  0  0  0  0  0  0  0  0
    4.5350    1.0760    0.5290 C   0  0  0  0  0  0  0  0  0  0  0  0
    4.2510   -0.4110    0.2580 C   0  0  2  0  0  0  0  0  0  0  0  0
    5.5490   -0.9780   -0.8320 S   0  0  0  0  0  0  0  0  0  0  0  0
    4.8340   -1.5710   -2.3180 C   0  0  0  0  0  0  0  0  0  0  0  0
    3.5330   -1.5500   -2.4860 C   0  0  0  0  0  0  0  0  0  0  0  0
    2.6700   -1.0560   -1.4940 N   0  0  0  0  0  0  0  0  0  0  0  0
    2.9370   -0.5870   -0.3680 C   0  0  0  0  0  0  0  0  0  0  0  0
    1.7810   -0.1380    0.4740 C   0  0  0  0  0  0  0  0  0  0  0  0
    0.5480   -0.2470    0.0160 C   0  0  0  0  0  0  0  0  0  0  0  0
   -0.5330    0.1770    0.8130 N   0  0  0  0  0  0  0  0  0  0  0  0
   -0.3400    0.6840    2.0120 N   0  0  0  0  0  0  0  0  0  0  0  0
   -1.3520    1.0980    2.7960 C   0  0  0  0  0  0  0  0  0  0  0  0
   -2.6430    0.9860    2.3230 C   0  0  0  0  0  0  0  0  0  0  0  0
   -3.6460    1.3520    3.0010 O   0  0  0  0  0  0  0  0  0  0  0  0
   -2.8760    0.4630    1.0800 C   0  0  0  0  0  0  0  0  0  0  0  0
   -4.1450    0.3230    0.5450 C   0  0  0  0  0  0  0  0  0  0  0  0
   -5.2340    0.7480    1.3420 N   0  0  0  0  0  0  0  0  0  0  0  0
   -4.3040   -0.2140   -0.7180 C   0  0  0  0  0  0  0  0  0  0  0  0
   -5.6870   -0.3440   -1.2490 C   0  0  0  0  0  0  0  0  0  0  0  0
   -3.1860   -0.6040   -1.4300 C   0  0  0  0  0  0  0  0  0  0  0  0
   -3.4170   -1.1510   -2.7280 N   0  0  0  0  0  0  0  0  0  0  0  0
   -1.9520   -0.4690   -0.9110 N   0  0  0  0  0  0  0  0  0  0  0  0
   -1.7980    0.0580    0.3270 C   0  0  0  0  0  0  0  0  0  0  0  0
  1  2  1  0
  3  2  1  6
  3  4  1  0
  3  8  1  0
  4  5  1  0
  5  6  2  0
  6  7  1  0
  7  8  2  0
  8  9  1  0
  9 10  2  3
 10 11  1  0
 11 12  1  0
 11 24  1  0
 12 13  2  0
 13 14  1  0
 14 15  2  0
 14 16  1  0
 16 17  2  0
 16 24  1  0
 17 18  1  0
 17 19  1  0
 19 20  1  0
 19 21  2  0
 21 22  1  0
 21 23  1  0
 23 24  2  0
M  END
