
     RDKit          3D

 24 26  0  0  0  0  0  0  0  0999 V2000
   -6.7320    1.8790    0.1410 N   0  0  0  0  0  0  0  0  0  0  0  0
   -5.7440    1.2980   -0.0330 C   0  0  0  0  0  0  0  0  0  0  0  0
   -4.5340    0.5580   -0.2560 C   0  0  0  0  0  0  0  0  0  0  0  0
   -3.6350    0.8940   -1.2440 C   0  0  0  0  0  0  0  0  0  0  0  0
   -2.4760    0.1480   -1.4230 C   0  0  0  0  0  0  0  0  0  0  0  0
   -2.2010   -0.9230   -0.6360 C   0  0  0  0  0  0  0  0  0  0  0  0
   -1.0170   -1.7350   -0.7730 N   0  0  0  0  0  0  0  0  0  0  0  0
    0.2350   -1.3210   -0.9840 C   0  0  0  0  0  0  0  0  0  0  0  0
    0.7790    0.3550   -1.1530 S   0  0  0  0  0  0  0  0  0  0  0  0
    1.2330    1.1070    0.4260 C   0  0  2  0  0  0  0  0  0  0  0  0
    1.6790    2.5130    0.1900 C   0  0  0  0  0  0  0  0  0  0  0  0
    2.7250    2.6600   -0.7670 N   0  0  0  0  0  0  0  0  0  0  0  0
    3.9160    1.9010   -0.8770 C   0  0  0  0  0  0  0  0  0  0  0  0
    4.2340    0.8490   -0.1510 C   0  0  0  0  0  0  0  0  0  0  0  0
    3.5300    0.1460    0.9380 C   0  0  0  0  0  0  0  0  0  0  0  0
    2.2200    0.2790    1.1640 C   0  0  0  0  0  0  0  0  0  0  0  0
    1.6720   -0.4720    2.2610 C   0  0  0  0  0  0  0  0  0  0  0  0
    2.3400   -1.2290    3.0020 N   0  0  0  0  0  0  0  0  0  0  0  0
    1.0260   -2.4020   -1.0470 N   0  0  0  0  0  0  0  0  0  0  0  0
    0.3090   -3.4840   -0.8820 N   0  0  0  0  0  0  0  0  0  0  0  0
   -0.9540   -3.0770   -0.7130 C   0  0  0  0  0  0  0  0  0  0  0  0
   -1.9210   -3.8590   -0.5260 O   0  0  0  0  0  0  0  0  0  0  0  0
   -3.0990   -1.2620    0.3540 C   0  0  0  0  0  0  0  0  0  0  0  0
   -4.2720   -0.5260    0.5530 C   0  0  0  0  0  0  0  0  0  0  0  0
  1  2  3  0
  2  3  1  0
  3  4  2  0
  3 24  1  0
  4  5  1  0
  5  6  2  0
  6  7  1  0
  6 23  1  0
  7  8  1  0
  7 21  1  0
  8  9  1  0
  8 19  2  0
 10  9  1  6
 10 11  1  0
 10 16  1  0
 11 12  1  0
 12 13  1  0
 13 14  2  0
 14 15  1  0
 15 16  2  0
 16 17  1  0
 17 18  2  0
 19 20  1  0
 20 21  1  0
 21 22  2  0
 23 24  2  0
M  END
