
     RDKit          3D

 24 26  0  0  0  0  0  0  0  0999 V2000
   -5.0240   -0.0140    1.5300 C   0  0  0  0  0  0  0  0  0  0  0  0
   -4.5410   -1.1850    0.7670 N   0  0  0  0  0  0  0  0  0  0  0  0
   -3.5590   -0.8770   -0.2030 C   0  0  0  0  0  0  0  0  0  0  0  0
   -2.5920   -0.2070   -0.4930 N   0  0  0  0  0  0  0  0  0  0  0  0
   -2.0060   -0.4800   -1.9000 C   0  0  2  0  0  0  0  0  0  0  0  0
   -3.1670   -0.5210   -2.7600 C   0  0  0  0  0  0  0  0  0  0  0  0
   -1.5130   -1.9760   -1.4560 C   0  0  1  0  0  0  0  0  0  0  0  0
   -0.5890   -1.5700   -0.4280 C   0  0  0  0  0  0  0  0  0  0  0  0
    0.3540   -0.7280   -0.8000 N   0  0  0  0  0  0  0  0  0  0  0  0
    1.3770   -0.2590   -0.0590 C   0  0  0  0  0  0  0  0  0  0  0  0
    2.3670    0.5630   -0.6550 N   0  0  0  0  0  0  0  0  0  0  0  0
    3.4510    1.2010   -0.0510 C   0  0  0  0  0  0  0  0  0  0  0  0
    4.5190    1.5660   -0.7530 C   0  0  0  0  0  0  0  0  0  0  0  0
    5.5680    2.2990   -0.2700 C   0  0  0  0  0  0  0  0  0  0  0  0
    5.5000    2.6810    1.0180 C   0  0  0  0  0  0  0  0  0  0  0  0
    4.4160    2.3700    1.8750 C   0  0  0  0  0  0  0  0  0  0  0  0
    4.4410    2.7890    3.1610 O   0  0  0  0  0  0  0  0  0  0  0  0
    3.3750    1.6090    1.3110 C   0  0  0  0  0  0  0  0  0  0  0  0
    1.4390   -0.6980    1.2210 N   0  0  0  0  0  0  0  0  0  0  0  0
    0.4950   -1.5670    1.6960 C   0  0  0  0  0  0  0  0  0  0  0  0
   -0.5170   -2.0040    0.8420 C   0  0  0  0  0  0  0  0  0  0  0  0
   -1.5930   -2.9310    1.2580 C   0  0  0  0  0  0  0  0  0  0  0  0
   -2.3890   -3.6320    1.5670 N   0  0  0  0  0  0  0  0  0  0  0  0
   -3.1480   -2.5030   -1.2390 S   0  0  0  0  0  0  0  0  0  0  0  0
  1  2  1  0
  2  3  1  0
  3  4  2  0
  3 24  1  0
  4  5  1  0
  5  6  1  6
  5  7  1  0
  7  8  1  1
  7 24  1  0
  8  9  2  0
  8 21  1  0
  9 10  1  0
 10 11  1  0
 10 19  2  0
 11 12  1  0
 12 13  2  0
 12 18  1  0
 13 14  1  0
 14 15  2  0
 15 16  1  0
 16 17  1  0
 16 18  2  0
 19 20  1  0
 20 21  2  0
 21 22  1  0
 22 23  3  0
M  END
