
     RDKit          3D

 24 25  0  0  0  0  0  0  0  0999 V2000
    4.3160   -1.7070   -1.3050 N   0  0  0  0  0  0  0  0  0  0  0  0
    3.7470   -0.7560   -0.6540 C   0  0  0  0  0  0  0  0  0  0  0  0
    2.2950   -0.4640   -0.7110 C   0  0  0  0  0  0  0  0  0  0  0  0
    1.8740    0.0070    0.6620 C   0  0  2  0  0  0  0  0  0  0  0  0
    0.5450   -0.2830    1.0470 N   0  0  0  0  0  0  0  0  0  0  0  0
   -0.6170   -0.2060    0.2350 C   0  0  0  0  0  0  0  0  0  0  0  0
   -0.8330    0.8570   -0.4090 N   0  0  0  0  0  0  0  0  0  0  0  0
   -0.1530    2.0400   -0.5090 C   0  0  0  0  0  0  0  0  0  0  0  0
   -0.3430    3.1180    0.2210 C   0  0  0  0  0  0  0  0  0  0  0  0
    0.4390    4.2670    0.0010 N   0  0  0  0  0  0  0  0  0  0  0  0
    0.1790    5.4420    0.4110 C   0  0  0  0  0  0  0  0  0  0  0  0
    1.3580    6.7380   -0.0150 S   0  0  0  0  0  0  0  0  0  0  0  0
   -1.5600   -1.3420    0.1460 C   0  0  0  0  0  0  0  0  0  0  0  0
   -1.2740   -2.4130    0.8360 C   0  0  0  0  0  0  0  0  0  0  0  0
   -1.8370   -3.7440    1.0890 C   0  0  0  0  0  0  0  0  0  0  0  0
   -3.0840   -4.2240    1.0320 C   0  0  0  0  0  0  0  0  0  0  0  0
   -4.3870   -3.6100    0.6940 C   0  0  0  0  0  0  0  0  0  0  0  0
   -4.7090   -2.4180    0.2030 C   0  0  0  0  0  0  0  0  0  0  0  0
   -3.9840   -1.2600   -0.1970 N   0  0  0  0  0  0  0  0  0  0  0  0
   -2.6810   -0.9970   -0.7600 C   0  0  0  0  0  0  0  0  0  0  0  0
    2.5190    1.2710    1.0670 C   0  0  0  0  0  0  0  0  0  0  0  0
    4.0140    0.9570    1.1190 C   0  0  0  0  0  0  0  0  0  0  0  0
    4.7470    1.4750    1.9760 O   0  0  0  0  0  0  0  0  0  0  0  0
    4.5710    0.0580    0.1690 N   0  0  0  0  0  0  0  0  0  0  0  0
  1  2  2  0
  2  3  1  0
  2 24  1  0
  3  4  1  0
  4  5  1  6
  4 21  1  0
  5  6  1  0
  6  7  2  3
  6 13  1  0
  7  8  1  0
  8  9  2  3
  9 10  1  0
 10 11  2  3
 11 12  1  0
 13 14  2  0
 13 20  1  0
 14 15  1  0
 15 16  2  0
 16 17  1  0
 17 18  2  0
 18 19  1  0
 19 20  1  0
 21 22  1  0
 22 23  2  0
 22 24  1  0
M  END
