
     RDKit          3D

 24 26  0  0  0  0  0  0  0  0999 V2000
    7.6240   -3.5990   -1.2660 C   0  0  0  0  0  0  0  0  0  0  0  0
    6.2680   -2.9420   -0.9990 C   0  0  0  0  0  0  0  0  0  0  0  0
    5.3760   -3.2740   -2.1770 C   0  0  0  0  0  0  0  0  0  0  0  0
    3.9940   -2.6700   -1.9670 C   0  0  0  0  0  0  0  0  0  0  0  0
    2.9580   -2.4810   -2.4270 N   0  0  0  0  0  0  0  0  0  0  0  0
    1.9340   -1.9110   -1.8560 N   0  0  0  0  0  0  0  0  0  0  0  0
    1.9450   -1.5000   -0.7430 C   0  0  0  0  0  0  0  0  0  0  0  0
    1.0860   -0.8350    0.2250 N   0  0  0  0  0  0  0  0  0  0  0  0
   -0.1870   -0.4880   -0.2420 C   0  0  0  0  0  0  0  0  0  0  0  0
   -0.5060   -0.7350   -1.4230 O   0  0  0  0  0  0  0  0  0  0  0  0
   -1.1790    0.1430    0.5570 N   0  0  0  0  0  0  0  0  0  0  0  0
   -2.4910    0.5130    0.0710 C   0  0  1  0  0  0  0  0  0  0  0  0
   -3.5030   -0.5920    0.2920 C   0  0  0  0  0  0  0  0  0  0  0  0
   -4.8390   -0.0380   -0.1640 C   0  0  0  0  0  0  0  0  0  0  0  0
   -5.3240    1.0360    0.7950 C   0  0  0  0  0  0  0  0  0  0  0  0
   -4.2190    2.0050    1.0330 C   0  0  0  0  0  0  0  0  0  0  0  0
   -4.3390    3.2450    1.6030 N   0  0  0  0  0  0  0  0  0  0  0  0
   -3.0970    3.7710    1.6090 C   0  0  0  0  0  0  0  0  0  0  0  0
   -2.7180    5.1280    2.1460 C   0  0  0  0  0  0  0  0  0  0  0  0
   -2.2020    2.8960    1.0570 C   0  0  0  0  0  0  0  0  0  0  0  0
   -0.8210    3.0450    0.8560 C   0  0  0  0  0  0  0  0  0  0  0  0
    0.3480    3.1500    0.6840 N   0  0  0  0  0  0  0  0  0  0  0  0
   -2.9290    1.7530    0.6850 C   0  0  0  0  0  0  0  0  0  0  0  0
    3.6660   -1.9090   -0.2340 S   0  0  0  0  0  0  0  0  0  0  0  0
  1  2  1  0
  2  3  1  0
  3  4  1  0
  4  5  2  0
  4 24  1  0
  5  6  1  0
  6  7  2  0
  7  8  1  0
  7 24  1  0
  8  9  1  0
  9 10  2  0
  9 11  1  0
 12 11  1  1
 12 13  1  0
 12 23  1  0
 13 14  1  0
 14 15  1  0
 15 16  1  0
 16 17  1  0
 16 23  2  0
 17 18  1  0
 18 19  1  0
 18 20  2  0
 20 21  1  0
 20 23  1  0
 21 22  3  0
M  END
