
     RDKit          3D

 32 34  0  0  0  0  0  0  0  0999 V2000
    7.7370    0.1870   -1.6750 C   0  0  0  0  0  0  0  0  0  0  0  0
    6.7590    0.3980   -0.6450 O   0  0  0  0  0  0  0  0  0  0  0  0
    5.4260    0.0560   -0.8470 C   0  0  0  0  0  0  0  0  0  0  0  0
    5.1600   -0.4370   -1.9690 O   0  0  0  0  0  0  0  0  0  0  0  0
    4.4510    0.2800    0.2160 C   0  0  0  0  0  0  0  0  0  0  0  0
    4.8480    0.8300    1.4230 C   0  0  0  0  0  0  0  0  0  0  0  0
    3.9660    1.0550    2.4400 C   0  0  0  0  0  0  0  0  0  0  0  0
    2.6140    0.7180    2.2600 C   0  0  0  0  0  0  0  0  0  0  0  0
    1.6640    0.9710    3.3880 C   0  0  0  0  0  0  0  0  0  0  0  0
    2.1990    0.1820    1.1000 N   0  0  0  0  0  0  0  0  0  0  0  0
    0.9850   -0.2170    0.6900 C   0  0  0  0  0  0  0  0  0  0  0  0
   -0.2680   -0.1950    1.3750 N   0  0  0  0  0  0  0  0  0  0  0  0
   -1.4540   -0.6960    0.6970 C   0  0  0  0  0  0  0  0  0  0  0  0
   -1.2440   -1.1150   -0.4650 O   0  0  0  0  0  0  0  0  0  0  0  0
   -2.7330   -0.6860    1.3770 C   0  0  0  0  0  0  0  0  0  0  0  0
   -3.8980   -1.0470    0.9510 C   0  0  0  0  0  0  0  0  0  0  0  0
   -4.1560   -1.5490   -0.3770 C   0  0  0  0  0  0  0  0  0  0  0  0
   -4.7500   -2.8280   -0.3980 C   0  0  0  0  0  0  0  0  0  0  0  0
   -5.0320   -3.4050   -1.5980 C   0  0  0  0  0  0  0  0  0  0  0  0
   -5.6120   -4.6560   -1.6000 F   0  0  0  0  0  0  0  0  0  0  0  0
   -4.7460   -2.7610   -2.7740 C   0  0  0  0  0  0  0  0  0  0  0  0
   -4.1760   -1.5260   -2.7250 C   0  0  0  0  0  0  0  0  0  0  0  0
   -3.8650   -0.8750   -1.5100 C   0  0  0  0  0  0  0  0  0  0  0  0
   -3.4860    0.5080   -1.6110 C   0  0  0  0  0  0  0  0  0  0  0  0
   -2.8850    0.9730   -2.7720 F   0  0  0  0  0  0  0  0  0  0  0  0
   -3.6440    1.4150   -0.6870 C   0  0  0  0  0  0  0  0  0  0  0  0
   -3.2070    2.8100   -0.9060 C   0  0  0  0  0  0  0  0  0  0  0  0
   -3.3570    3.7240    0.0060 C   0  0  0  0  0  0  0  0  0  0  0  0
   -2.9480    4.9930   -0.2200 F   0  0  0  0  0  0  0  0  0  0  0  0
    1.1590   -0.6810   -0.5800 N   0  0  0  0  0  0  0  0  0  0  0  0
    2.4220   -0.5780   -0.9530 C   0  0  0  0  0  0  0  0  0  0  0  0
    3.1160   -0.0280    0.1020 C   0  0  0  0  0  0  0  0  0  0  0  0
  1  2  1  0
  2  3  1  0
  3  4  2  0
  3  5  1  0
  5  6  2  0
  5 32  1  0
  6  7  1  0
  7  8  2  0
  8  9  1  0
  8 10  1  0
 10 11  1  0
 10 32  1  0
 11 12  1  0
 11 30  2  0
 12 13  1  0
 13 14  2  0
 13 15  1  0
 15 16  2  3
 16 17  1  0
 17 18  2  0
 17 23  1  0
 18 19  1  0
 19 20  1  0
 19 21  2  0
 21 22  1  0
 22 23  2  0
 23 24  1  0
 24 25  1  0
 24 26  2  3
 26 27  1  0
 27 28  2  3
 28 29  1  0
 30 31  1  0
 31 32  2  0
M  END
