
     RDKit          3D

 32 34  0  0  0  0  0  0  0  0999 V2000
   -7.4650   -1.7910   -2.4620 C   0  0  0  0  0  0  0  0  0  0  0  0
   -7.1260   -2.3250   -1.0850 C   0  0  0  0  0  0  0  0  0  0  0  0
   -6.5760   -1.2880   -0.2430 N   0  0  0  0  0  0  0  0  0  0  0  0
   -7.3990   -0.5310    0.5180 C   0  0  0  0  0  0  0  0  0  0  0  0
   -6.9130    0.4670    1.3310 C   0  0  0  0  0  0  0  0  0  0  0  0
   -5.5320    0.7040    1.3710 C   0  0  0  0  0  0  0  0  0  0  0  0
   -4.6880   -0.0550    0.6060 C   0  0  0  0  0  0  0  0  0  0  0  0
   -3.3020    0.1210    0.5940 N   0  0  0  0  0  0  0  0  0  0  0  0
   -2.5080    1.0380    1.2870 C   0  0  0  0  0  0  0  0  0  0  0  0
   -3.0760    1.8490    2.0480 O   0  0  0  0  0  0  0  0  0  0  0  0
   -1.0360    1.1270    1.1930 C   0  0  0  0  0  0  0  0  0  0  0  0
   -0.2990    0.3050    0.4050 C   0  0  0  0  0  0  0  0  0  0  0  0
    1.0930    0.3990    0.3300 C   0  0  0  0  0  0  0  0  0  0  0  0
    1.8540   -0.5450   -0.5420 C   0  0  0  0  0  0  0  0  0  0  0  0
    3.1420   -0.4510   -0.6460 C   0  0  0  0  0  0  0  0  0  0  0  0
    4.0140   -1.2780   -1.4440 C   0  0  0  0  0  0  0  0  0  0  0  0
    5.3420   -1.0990   -1.4640 C   0  0  0  0  0  0  0  0  0  0  0  0
    5.9430   -0.0910   -0.7000 N   0  0  0  0  0  0  0  0  0  0  0  0
    6.3210    1.2220   -1.1200 C   0  0  0  0  0  0  0  0  0  0  0  0
    7.7350    1.3370   -0.5370 C   0  0  0  0  0  0  0  0  0  0  0  0
    7.6220    0.6030    0.7560 C   0  0  0  0  0  0  0  0  0  0  0  0
    6.3200   -0.1810    0.6940 C   0  0  0  0  0  0  0  0  0  0  0  0
    1.0650   -1.5750   -1.2400 C   0  0  1  0  0  0  0  0  0  0  0  0
    0.2300   -1.0130   -2.2040 F   0  0  0  0  0  0  0  0  0  0  0  0
    1.7310   -2.6810   -1.6680 F   0  0  0  0  0  0  0  0  0  0  0  0
    1.6890    1.3650    1.0910 C   0  0  0  0  0  0  0  0  0  0  0  0
    0.9590    2.2370    1.9200 C   0  0  0  0  0  0  0  0  0  0  0  0
    1.6510    3.1560    2.6280 F   0  0  0  0  0  0  0  0  0  0  0  0
   -0.4030    2.0890    1.9460 C   0  0  0  0  0  0  0  0  0  0  0  0
   -1.1080    2.9640    2.7760 O   0  0  0  0  0  0  0  0  0  0  0  0
   -5.2770   -1.0360   -0.1790 C   0  0  0  0  0  0  0  0  0  0  0  0
   -4.5210   -1.7370   -0.8830 O   0  0  0  0  0  0  0  0  0  0  0  0
  1  2  1  0
  2  3  1  0
  3  4  1  0
  3 31  1  0
  4  5  2  0
  5  6  1  0
  6  7  2  0
  7  8  1  0
  7 31  1  0
  8  9  1  0
  9 10  2  0
  9 11  1  0
 11 12  2  0
 11 29  1  0
 12 13  1  0
 13 14  1  0
 13 26  2  0
 14 15  2  3
 14 23  1  0
 15 16  1  0
 16 17  2  3
 17 18  1  0
 18 19  1  0
 18 22  1  0
 19 20  1  0
 20 21  1  0
 21 22  1  0
 23 24  1  6
 23 25  1  0
 26 27  1  0
 27 28  1  0
 27 29  2  0
 29 30  1  0
 31 32  2  0
M  END
