
     RDKit          3D

 33 36  0  0  0  0  0  0  0  0999 V2000
    9.5570   -0.3320   -1.5190 C   0  0  0  0  0  0  0  0  0  0  0  0
    8.4840   -1.3000   -1.4620 N   0  0  0  0  0  0  0  0  0  0  0  0
    7.1030   -0.9090   -1.2570 C   0  0  0  0  0  0  0  0  0  0  0  0
    6.0150   -1.3280   -1.1540 N   0  0  0  0  0  0  0  0  0  0  0  0
    4.8830   -0.6960   -0.9590 C   0  0  0  0  0  0  0  0  0  0  0  0
    3.5470   -1.3740   -0.8630 C   0  0  0  0  0  0  0  0  0  0  0  0
    5.0180    0.6840   -0.8630 C   0  0  0  0  0  0  0  0  0  0  0  0
    4.0160    1.7440   -0.6660 C   0  0  0  0  0  0  0  0  0  0  0  0
    2.7620    1.4170   -0.4110 N   0  0  0  0  0  0  0  0  0  0  0  0
    1.8060    2.3300   -0.2110 C   0  0  0  0  0  0  0  0  0  0  0  0
    0.4560    2.1080    0.0790 N   0  0  0  0  0  0  0  0  0  0  0  0
   -0.1020    0.8250    0.2410 C   0  0  0  0  0  0  0  0  0  0  0  0
    0.6380   -0.2400    0.6380 C   0  0  0  0  0  0  0  0  0  0  0  0
    0.1170   -1.5220    0.7800 C   0  0  0  0  0  0  0  0  0  0  0  0
   -1.2150   -1.7140    0.5030 C   0  0  0  0  0  0  0  0  0  0  0  0
   -2.0130   -0.6350    0.0890 C   0  0  0  0  0  0  0  0  0  0  0  0
   -3.3720   -0.9080   -0.1660 N   0  0  0  0  0  0  0  0  0  0  0  0
   -4.1260    0.1310   -0.8300 C   0  0  0  0  0  0  0  0  0  0  0  0
   -4.8240    0.9420    0.2330 C   0  0  0  0  0  0  0  0  0  0  0  0
   -5.3610   -0.0030    1.2950 C   0  0  0  0  0  0  0  0  0  0  0  0
   -6.0160   -1.1440    0.7140 N   0  0  0  0  0  0  0  0  0  0  0  0
   -7.4190   -1.1760    0.6290 C   0  0  0  0  0  0  0  0  0  0  0  0
   -8.2950   -0.0780    1.1130 C   0  0  0  0  0  0  0  0  0  0  0  0
   -7.9920   -2.1720    0.1220 O   0  0  0  0  0  0  0  0  0  0  0  0
   -5.3380   -2.3260    0.1800 C   0  0  0  0  0  0  0  0  0  0  0  0
   -3.8310   -2.2100    0.2900 C   0  0  0  0  0  0  0  0  0  0  0  0
   -1.4610    0.6120   -0.0380 C   0  0  0  0  0  0  0  0  0  0  0  0
    2.1940    3.6530   -0.2830 N   0  0  0  0  0  0  0  0  0  0  0  0
    3.4350    4.0330   -0.5340 C   0  0  0  0  0  0  0  0  0  0  0  0
    4.3990    3.0730   -0.7360 C   0  0  0  0  0  0  0  0  0  0  0  0
    5.7460    3.4420   -1.0170 C   0  0  0  0  0  0  0  0  0  0  0  0
    6.8750    3.7480   -1.2310 N   0  0  0  0  0  0  0  0  0  0  0  0
    6.7550    0.9420   -1.0620 S   0  0  0  0  0  0  0  0  0  0  0  0
  1  2  1  0
  2  3  1  0
  3  4  2  0
  3 33  1  0
  4  5  1  0
  5  6  1  0
  5  7  2  0
  7  8  1  0
  7 33  1  0
  8  9  2  0
  8 30  1  0
  9 10  1  0
 10 11  1  0
 10 28  2  0
 11 12  1  0
 12 13  2  0
 12 27  1  0
 13 14  1  0
 14 15  2  0
 15 16  1  0
 16 17  1  0
 16 27  2  0
 17 18  1  0
 17 26  1  0
 18 19  1  0
 19 20  1  0
 20 21  1  0
 21 22  1  0
 21 25  1  0
 22 23  1  0
 22 24  2  0
 25 26  1  0
 28 29  1  0
 29 30  2  0
 30 31  1  0
 31 32  3  0
M  END
