
     RDKit          3D

 32 34  0  0  0  0  0  0  0  0999 V2000
   -2.3100   -4.2320   -0.6120 C   0  0  0  0  0  0  0  0  0  0  0  0
   -3.2370   -3.0450   -0.5490 C   0  0  0  0  0  0  0  0  0  0  0  0
   -4.4120   -3.2210   -0.8710 O   0  0  0  0  0  0  0  0  0  0  0  0
   -2.7770   -1.7750   -0.1350 N   0  0  0  0  0  0  0  0  0  0  0  0
   -3.5530   -0.6060   -0.0360 C   0  0  0  0  0  0  0  0  0  0  0  0
   -4.9170   -0.5420   -0.1450 C   0  0  0  0  0  0  0  0  0  0  0  0
   -5.6810    0.6000    0.0040 C   0  0  0  0  0  0  0  0  0  0  0  0
   -7.1650    0.5880   -0.1300 C   0  0  0  0  0  0  0  0  0  0  0  0
   -5.0190    1.7580    0.2840 C   0  0  0  0  0  0  0  0  0  0  0  0
   -3.6210    1.7570    0.4080 C   0  0  0  0  0  0  0  0  0  0  0  0
   -2.8830    0.6080    0.2540 C   0  0  0  0  0  0  0  0  0  0  0  0
   -1.4770    0.6380    0.3130 N   0  0  0  0  0  0  0  0  0  0  0  0
   -0.6830    1.6770    0.8090 C   0  0  0  0  0  0  0  0  0  0  0  0
   -1.2310    2.7390    1.2570 O   0  0  0  0  0  0  0  0  0  0  0  0
    0.7390    1.6860    0.8670 N   0  0  0  0  0  0  0  0  0  0  0  0
    1.4820    2.8960    0.9850 C   0  0  0  0  0  0  0  0  0  0  0  0
    2.6940    2.9170    0.1230 C   0  0  2  0  0  0  0  0  0  0  0  0
    2.6780    4.0460   -0.8920 C   0  0  0  0  0  0  0  0  0  0  0  0
    2.6080    5.3640   -0.1890 C   0  0  1  0  0  0  0  0  0  0  0  0
    3.6780    5.5630    0.6430 F   0  0  0  0  0  0  0  0  0  0  0  0
    2.6510    6.3620   -1.1680 F   0  0  0  0  0  0  0  0  0  0  0  0
    2.8800    1.7100   -0.5830 O   0  0  0  0  0  0  0  0  0  0  0  0
    2.5990    0.4690   -0.0440 C   0  0  0  0  0  0  0  0  0  0  0  0
    3.3070   -0.6770   -0.1970 C   0  0  0  0  0  0  0  0  0  0  0  0
    2.9210   -1.8760    0.4050 C   0  0  0  0  0  0  0  0  0  0  0  0
    3.7110   -3.1120    0.2210 C   0  0  2  0  0  0  0  0  0  0  0  0
    5.1270   -2.9230    0.7590 C   0  0  0  0  0  0  0  0  0  0  0  0
    3.7430   -3.4730   -1.2510 C   0  0  0  0  0  0  0  0  0  0  0  0
    1.7700   -1.8430    1.1760 C   0  0  0  0  0  0  0  0  0  0  0  0
    1.0220   -0.6840    1.3520 C   0  0  0  0  0  0  0  0  0  0  0  0
   -0.0890   -0.6600    2.1430 F   0  0  0  0  0  0  0  0  0  0  0  0
    1.4330    0.4700    0.7430 C   0  0  0  0  0  0  0  0  0  0  0  0
  1  2  1  0
  2  3  2  0
  2  4  1  0
  4  5  1  0
  5  6  2  0
  5 11  1  0
  6  7  1  0
  7  8  1  0
  7  9  2  0
  9 10  1  0
 10 11  2  0
 11 12  1  0
 12 13  1  0
 13 14  2  0
 13 15  1  0
 15 16  1  0
 15 32  1  0
 16 17  1  0
 17 18  1  6
 17 22  1  0
 18 19  1  0
 19 20  1  1
 19 21  1  0
 22 23  1  0
 23 24  2  0
 23 32  1  0
 24 25  1  0
 25 26  1  0
 25 29  2  0
 26 27  1  6
 26 28  1  0
 29 30  1  0
 30 31  1  0
 30 32  2  0
M  END
