
     RDKit          3D

 33 34  0  0  0  0  0  0  0  0999 V2000
    7.3290   -1.1320   -1.2040 C   0  0  0  0  0  0  0  0  0  0  0  0
    6.7080   -0.8930    0.0420 N   0  0  0  0  0  0  0  0  0  0  0  0
    7.6080   -0.6120    1.1970 C   0  0  0  0  0  0  0  0  0  0  0  0
    7.8260    0.8570    1.3370 C   0  0  0  0  0  0  0  0  0  0  0  0
    8.4430    1.4500    0.1710 N   0  0  0  0  0  0  0  0  0  0  0  0
    5.3530   -0.9030    0.3450 C   0  0  0  0  0  0  0  0  0  0  0  0
    5.0220   -0.6320    1.5910 O   0  0  0  0  0  0  0  0  0  0  0  0
    4.2580   -1.1790   -0.5600 C   0  0  0  0  0  0  0  0  0  0  0  0
    4.3300   -1.5470   -1.8640 C   0  0  0  0  0  0  0  0  0  0  0  0
    3.1600   -1.7540   -2.5920 C   0  0  0  0  0  0  0  0  0  0  0  0
    1.9180   -1.5930   -2.0150 C   0  0  0  0  0  0  0  0  0  0  0  0
    1.7930   -1.2240   -0.7040 C   0  0  0  0  0  0  0  0  0  0  0  0
    0.5450   -1.0220   -0.0370 N   0  0  0  0  0  0  0  0  0  0  0  0
   -0.7010   -0.9620   -0.6800 C   0  0  0  0  0  0  0  0  0  0  0  0
   -0.8270   -1.0790   -1.9250 O   0  0  0  0  0  0  0  0  0  0  0  0
   -1.8980   -0.7470    0.1920 C   0  0  1  0  0  0  0  0  0  0  0  0
   -1.6940    0.5380    0.9740 C   0  0  0  0  0  0  0  0  0  0  0  0
   -2.4860    1.6550    0.3260 C   0  0  0  0  0  0  0  0  0  0  0  0
   -3.9390    1.2630    0.2090 C   0  0  0  0  0  0  0  0  0  0  0  0
   -4.9010    2.2180    0.7770 C   0  0  0  0  0  0  0  0  0  0  0  0
   -5.0980    3.3520   -0.1290 C   0  0  0  0  0  0  0  0  0  0  0  0
   -5.9660    4.4390    0.1360 N   0  0  0  0  0  0  0  0  0  0  0  0
   -4.4630    3.3820   -1.2250 O   0  0  0  0  0  0  0  0  0  0  0  0
   -4.2010    0.0830   -0.2590 C   0  0  0  0  0  0  0  0  0  0  0  0
   -5.5120   -0.4840   -0.4690 C   0  0  0  0  0  0  0  0  0  0  0  0
   -5.5900   -1.7240   -0.8480 O   0  0  0  0  0  0  0  0  0  0  0  0
   -6.7730    0.1130   -0.3360 N   0  0  0  0  0  0  0  0  0  0  0  0
   -8.0440   -0.5910   -0.5470 C   0  0  0  0  0  0  0  0  0  0  0  0
   -8.2070   -1.6620    0.4390 C   0  0  0  0  0  0  0  0  0  0  0  0
   -7.4200   -2.8270    0.5160 N   0  0  0  0  0  0  0  0  0  0  0  0
   -9.4150   -1.5230    1.5790 S   0  0  0  0  0  0  0  0  0  0  0  0
   -3.0660   -0.6970   -0.5840 O   0  0  0  0  0  0  0  0  0  0  0  0
    2.9700   -1.0260   -0.0080 C   0  0  0  0  0  0  0  0  0  0  0  0
  1  2  1  0
  2  3  1  0
  2  6  1  0
  3  4  1  0
  4  5  1  0
  6  7  2  0
  6  8  1  0
  8  9  2  0
  8 33  1  0
  9 10  1  0
 10 11  2  0
 11 12  1  0
 12 13  1  0
 12 33  2  0
 13 14  1  0
 14 15  2  0
 16 14  1  6
 16 17  1  0
 16 32  1  0
 17 18  1  0
 18 19  1  0
 19 20  1  0
 19 24  2  0
 20 21  1  0
 21 22  1  0
 21 23  2  0
 24 25  1  0
 24 32  1  0
 25 26  2  0
 25 27  1  0
 27 28  1  0
 28 29  1  0
 29 30  1  0
 29 31  2  0
M  CHG  1   5   1
M  END
