
     RDKit          3D

 33 34  0  0  0  0  0  0  0  0999 V2000
   -5.2610   -3.3080   -1.0090 C   0  0  0  0  0  0  0  0  0  0  0  0
   -4.2490   -2.4780   -0.2730 C   0  0  0  0  0  0  0  0  0  0  0  0
   -3.3020   -3.1270    0.4780 C   0  0  0  0  0  0  0  0  0  0  0  0
   -2.3600   -2.4160    1.1820 C   0  0  0  0  0  0  0  0  0  0  0  0
   -2.3740   -1.0320    1.1200 C   0  0  0  0  0  0  0  0  0  0  0  0
   -1.3400   -0.4190    1.9040 O   0  0  0  0  0  0  0  0  0  0  0  0
   -0.2490    0.0190    1.1210 C   0  0  0  0  0  0  0  0  0  0  0  0
    0.5610   -1.1120    0.8270 C   0  0  0  0  0  0  0  0  0  0  0  0
    1.6520   -0.9200    0.0700 C   0  0  0  0  0  0  0  0  0  0  0  0
    1.9470    0.3670   -0.3990 C   0  0  0  0  0  0  0  0  0  0  0  0
    3.0860    0.3970   -1.2110 N   0  0  0  0  0  0  0  0  0  0  0  0
    4.3000   -0.1940   -0.7030 C   0  0  0  0  0  0  0  0  0  0  0  0
    4.2110   -0.6200    0.5120 O   0  0  0  0  0  0  0  0  0  0  0  0
    5.4500   -0.2760   -1.4820 N   0  0  0  0  0  0  0  0  0  0  0  0
    6.6820   -0.8460   -0.8290 C   0  0  1  0  0  0  0  0  0  0  0  0
    6.7690    0.1930    0.3330 C   0  0  0  0  0  0  0  0  0  0  0  0
    6.7910    1.5020   -0.4230 C   0  0  0  0  0  0  0  0  0  0  0  0
    6.1170    2.6420    0.2380 C   0  0  0  0  0  0  0  0  0  0  0  0
    6.6240    3.1600    1.3900 O   0  0  0  0  0  0  0  0  0  0  0  0
    6.2900   -2.1780   -0.4340 C   0  0  0  0  0  0  0  0  0  0  0  0
    7.0240   -3.0550    0.3780 N   0  0  0  0  0  0  0  0  0  0  0  0
    4.8530   -2.8400   -1.0000 S   0  0  0  0  0  0  0  0  0  0  0  0
    1.1520    1.4290   -0.0880 C   0  0  0  0  0  0  0  0  0  0  0  0
    0.0450    1.2060    0.6860 N   0  0  0  0  0  0  0  0  0  0  0  0
   -3.3000   -0.4290    0.3940 C   0  0  0  0  0  0  0  0  0  0  0  0
   -3.3840    1.0610    0.2010 C   0  0  0  0  0  0  0  0  0  0  0  0
   -4.7360    1.3180    0.5880 N   0  0  0  0  0  0  0  0  0  0  0  0
   -5.5230    2.4010    0.2490 C   0  0  0  0  0  0  0  0  0  0  0  0
   -7.0190    1.9090    0.4000 C   0  0  2  0  0  0  0  0  0  0  0  0
   -7.1700    1.3940    1.6710 O   0  0  0  0  0  0  0  0  0  0  0  0
   -7.2560    0.9750   -0.7360 C   0  0  0  0  0  0  0  0  0  0  0  0
   -7.0970    1.7250   -1.9370 O   0  0  0  0  0  0  0  0  0  0  0  0
   -4.2330   -1.1590   -0.2990 N   0  0  0  0  0  0  0  0  0  0  0  0
  1  2  1  0
  2  3  2  0
  2 33  1  0
  3  4  1  0
  4  5  2  0
  5  6  1  0
  5 25  1  0
  6  7  1  0
  7  8  2  0
  7 24  1  0
  8  9  1  0
  9 10  2  0
 10 11  1  0
 10 23  1  0
 11 12  1  0
 12 13  2  0
 12 14  1  0
 14 15  1  0
 15 16  1  1
 15 20  1  0
 16 17  1  0
 17 18  1  0
 18 19  1  0
 20 21  1  0
 20 22  2  0
 23 24  2  0
 25 26  1  0
 25 33  2  0
 26 27  1  0
 27 28  1  0
 28 29  1  0
 29 30  1  1
 29 31  1  0
 31 32  1  0
M  CHG  1  27   1
M  END
