
     RDKit          3D

 29 31  0  0  0  0  0  0  0  0999 V2000
   -3.9270   -3.1650   -1.2380 C   0  0  0  0  0  0  0  0  0  0  0  0
   -5.0320   -2.6140   -1.2200 C   0  0  0  0  0  0  0  0  0  0  0  0
   -5.1040   -1.1650   -0.6910 C   0  0  0  0  0  0  0  0  0  0  0  0
   -6.0630   -0.5510   -0.5990 C   0  0  0  0  0  0  0  0  0  0  0  0
   -3.7240   -0.6220   -0.2610 C   0  0  0  0  0  0  0  0  0  0  0  0
   -2.7620   -0.5070   -1.3500 C   0  0  0  0  0  0  0  0  0  0  0  0
   -3.1330   -0.5130   -2.6770 C   0  0  0  0  0  0  0  0  0  0  0  0
   -2.1940   -0.4610   -3.6990 C   0  0  0  0  0  0  0  0  0  0  0  0
   -0.8590   -0.3960   -3.3860 C   0  0  0  0  0  0  0  0  0  0  0  0
    0.1610   -0.3710   -4.4790 C   0  0  0  0  0  0  0  0  0  0  0  0
   -0.5090   -0.3900   -2.0660 C   0  0  0  0  0  0  0  0  0  0  0  0
   -1.4040   -0.4430   -1.0050 C   0  0  0  0  0  0  0  0  0  0  0  0
   -1.0090   -0.4170    0.3320 N   0  0  0  0  0  0  0  0  0  0  0  0
    0.2640   -0.5320    0.9330 C   0  0  0  0  0  0  0  0  0  0  0  0
    1.2250   -0.6870    0.1330 O   0  0  0  0  0  0  0  0  0  0  0  0
    0.4500   -0.4770    2.3840 C   0  0  0  0  0  0  0  0  0  0  0  0
    1.7070   -0.5390    3.0560 C   0  0  1  0  0  0  0  0  0  0  0  0
    2.6330   -1.6750    2.9360 C   0  0  0  0  0  0  0  0  0  0  0  0
    3.8420   -1.2090    2.1620 C   0  0  0  0  0  0  0  0  0  0  0  0
    4.8860   -1.9310    2.1510 O   0  0  0  0  0  0  0  0  0  0  0  0
    3.8440    0.0410    1.4390 C   0  0  0  0  0  0  0  0  0  0  0  0
    3.1650    1.0830    2.0140 C   0  0  0  0  0  0  0  0  0  0  0  0
    2.5270    0.7230    3.3060 C   0  0  0  0  0  0  0  0  0  0  0  0
    3.2610    2.2380    1.1730 C   0  0  0  0  0  0  0  0  0  0  0  0
    2.8200    3.4460    1.1970 C   0  0  0  0  0  0  0  0  0  0  0  0
    1.9880    3.9540    2.2470 N   0  0  0  0  0  0  0  0  0  0  0  0
    4.0890    1.8030   -0.0060 C   0  0  0  0  0  0  0  0  0  0  0  0
    4.5030    2.4460   -1.0180 N   0  0  0  0  0  0  0  0  0  0  0  0
    4.4150    0.4670    0.1970 N   0  0  0  0  0  0  0  0  0  0  0  0
  1  2  2  0
  2  3  1  0
  3  4  2  0
  3  5  1  0
  5  6  1  0
  6  7  2  0
  6 12  1  0
  7  8  1  0
  8  9  2  0
  9 10  1  0
  9 11  1  0
 11 12  2  0
 12 13  1  0
 13 14  1  0
 14 15  2  0
 14 16  1  0
 17 16  1  6
 17 18  1  0
 17 23  1  0
 18 19  1  0
 19 20  2  0
 19 21  1  0
 21 22  2  0
 21 29  1  0
 22 23  1  0
 22 24  1  0
 24 25  2  3
 24 27  1  0
 25 26  1  0
 27 28  2  0
 27 29  1  0
M  CHG  1  26   1
M  END
