
     RDKit          3D

 29 31  0  0  0  0  0  0  0  0999 V2000
   -4.1180   -1.3020    1.5190 C   0  0  0  0  0  0  0  0  0  0  0  0
   -4.7660   -1.3990    0.1850 C   0  0  1  0  0  0  0  0  0  0  0  0
   -6.2730   -1.6380    0.2990 C   0  0  0  0  0  0  0  0  0  0  0  0
   -6.5360   -2.8740    1.0090 N   0  0  0  0  0  0  0  0  0  0  0  0
   -4.4720   -0.3600   -0.7550 N   0  0  0  0  0  0  0  0  0  0  0  0
   -3.3260   -0.1700   -1.5800 C   0  0  0  0  0  0  0  0  0  0  0  0
   -2.0260    0.1550   -0.9070 C   0  0  1  0  0  0  0  0  0  0  0  0
   -2.0640    1.2420   -0.0930 O   0  0  0  0  0  0  0  0  0  0  0  0
   -1.1880   -1.0170   -0.5010 C   0  0  0  0  0  0  0  0  0  0  0  0
    0.1490   -0.8370   -0.3610 O   0  0  0  0  0  0  0  0  0  0  0  0
    1.0180   -0.1520    0.3970 C   0  0  0  0  0  0  0  0  0  0  0  0
    0.7520    0.6940    1.4490 C   0  0  0  0  0  0  0  0  0  0  0  0
    1.7340    1.3670    2.1760 C   0  0  0  0  0  0  0  0  0  0  0  0
    3.0500    1.1740    1.8220 C   0  0  0  0  0  0  0  0  0  0  0  0
    3.3880    0.3390    0.7780 C   0  0  0  0  0  0  0  0  0  0  0  0
    4.8140    0.1830    0.4500 C   0  0  0  0  0  0  0  0  0  0  0  0
    5.6990    1.2250    0.6380 C   0  0  0  0  0  0  0  0  0  0  0  0
    7.0390    1.0900    0.3340 C   0  0  0  0  0  0  0  0  0  0  0  0
    7.5640   -0.0840   -0.1690 C   0  0  0  0  0  0  0  0  0  0  0  0
    9.0080   -0.2260   -0.4970 C   0  0  0  0  0  0  0  0  0  0  0  0
    9.7080    1.0210   -0.2580 N   0  0  0  0  0  0  0  0  0  0  0  0
    6.6790   -1.1260   -0.3560 C   0  0  0  0  0  0  0  0  0  0  0  0
    5.3380   -0.9880   -0.0520 C   0  0  0  0  0  0  0  0  0  0  0  0
    2.3980   -0.2880    0.1070 C   0  0  0  0  0  0  0  0  0  0  0  0
   -5.5170    0.6670   -0.8810 C   0  0  0  0  0  0  0  0  0  0  0  0
   -6.0150    1.4020    0.0830 C   0  0  0  0  0  0  0  0  0  0  0  0
   -7.0300    2.2910   -0.4960 C   0  0  0  0  0  0  0  0  0  0  0  0
   -7.0510    1.9720   -1.9100 N   0  0  0  0  0  0  0  0  0  0  0  0
   -6.1840    1.0490   -2.1080 C   0  0  0  0  0  0  0  0  0  0  0  0
  2  1  1  1
  2  3  1  0
  2  5  1  0
  3  4  1  0
  5  6  1  0
  5 25  1  0
  6  7  1  0
  7  8  1  1
  7  9  1  0
  9 10  1  0
 10 11  1  0
 11 12  2  0
 11 24  1  0
 12 13  1  0
 13 14  2  0
 14 15  1  0
 15 16  1  0
 15 24  2  0
 16 17  2  0
 16 23  1  0
 17 18  1  0
 18 19  2  0
 19 20  1  0
 19 22  1  0
 20 21  1  0
 22 23  2  0
 25 26  2  0
 25 29  1  0
 26 27  1  0
 27 28  1  0
 28 29  2  0
M  CHG  1  21   1
M  END
