
     RDKit          3D

 29 31  0  0  0  0  0  0  0  0999 V2000
    2.6960    1.8100    2.5530 C   0  0  0  0  0  0  0  0  0  0  0  0
    2.1700    0.3790    2.3820 C   0  0  0  0  0  0  0  0  0  0  0  0
    1.4380    0.3580    1.0930 C   0  0  0  0  0  0  0  0  0  0  0  0
    0.0510    0.4040    1.1410 C   0  0  0  0  0  0  0  0  0  0  0  0
   -0.7210    0.4200    0.0040 C   0  0  0  0  0  0  0  0  0  0  0  0
   -0.1340    0.3890   -1.2460 C   0  0  0  0  0  0  0  0  0  0  0  0
   -0.9700    0.4010   -2.3900 N   0  0  0  0  0  0  0  0  0  0  0  0
   -2.3650    0.4330   -2.3050 N   0  0  0  0  0  0  0  0  0  0  0  0
   -3.1640   -0.6210   -1.8060 C   0  0  0  0  0  0  0  0  0  0  0  0
   -2.5880   -1.6700   -1.4090 O   0  0  0  0  0  0  0  0  0  0  0  0
   -4.6450   -0.5480   -1.7260 C   0  0  0  0  0  0  0  0  0  0  0  0
   -5.2380   -1.7920   -1.1080 C   0  0  0  0  0  0  0  0  0  0  0  0
   -6.7050   -1.6150   -1.0730 C   0  0  0  0  0  0  0  0  0  0  0  0
   -7.4080   -1.9590   -2.0420 O   0  0  0  0  0  0  0  0  0  0  0  0
   -7.3300   -1.0360    0.0980 C   0  0  0  0  0  0  0  0  0  0  0  0
   -6.6970   -0.5890    1.2610 C   0  0  0  0  0  0  0  0  0  0  0  0
   -7.6490   -0.1100    2.1340 C   0  0  0  0  0  0  0  0  0  0  0  0
   -8.8540   -0.2530    1.5330 N   0  0  0  0  0  0  0  0  0  0  0  0
   -8.6710   -0.8060    0.3160 C   0  0  0  0  0  0  0  0  0  0  0  0
    1.2330    0.3440   -1.2850 C   0  0  0  0  0  0  0  0  0  0  0  0
    2.0290    0.3270   -0.1450 C   0  0  0  0  0  0  0  0  0  0  0  0
    3.4770    0.2480   -0.2470 C   0  0  0  0  0  0  0  0  0  0  0  0
    4.2210   -0.7940    0.2510 C   0  0  0  0  0  0  0  0  0  0  0  0
    5.6100   -0.8120    0.1570 C   0  0  0  0  0  0  0  0  0  0  0  0
    6.2990    0.2170   -0.4410 C   0  0  0  0  0  0  0  0  0  0  0  0
    7.7240    0.2210   -0.5470 N   0  0  0  0  0  0  0  0  0  0  0  0
    8.3740   -0.0860    0.7020 C   0  0  0  0  0  0  0  0  0  0  0  0
    5.5760    1.2750   -0.9500 C   0  0  0  0  0  0  0  0  0  0  0  0
    4.2050    1.2800   -0.8510 C   0  0  0  0  0  0  0  0  0  0  0  0
  1  2  1  0
  2  3  1  0
  3  4  2  0
  3 21  1  0
  4  5  1  0
  5  6  2  0
  6  7  1  0
  6 20  1  0
  7  8  1  0
  8  9  1  0
  9 10  2  0
  9 11  1  0
 11 12  1  0
 12 13  1  0
 13 14  2  0
 13 15  1  0
 15 16  1  0
 15 19  2  0
 16 17  2  0
 17 18  1  0
 18 19  1  0
 20 21  2  0
 21 22  1  0
 22 23  2  0
 22 29  1  0
 23 24  1  0
 24 25  2  0
 25 26  1  0
 25 28  1  0
 26 27  1  0
 28 29  2  0
M  CHG  1  26   1
M  END
