
     RDKit          3D

 29 31  0  0  0  0  0  0  0  0999 V2000
   -4.2910    3.0690   -1.3330 C   0  0  0  0  0  0  0  0  0  0  0  0
   -4.2290    3.4810    0.0920 C   0  0  0  0  0  0  0  0  0  0  0  0
   -3.4240    2.5820    0.9930 C   0  0  0  0  0  0  0  0  0  0  0  0
   -3.8940    1.1700    0.9610 C   0  0  0  0  0  0  0  0  0  0  0  0
   -5.0680    0.8730    1.6370 C   0  0  0  0  0  0  0  0  0  0  0  0
   -5.6110   -0.3820    1.4980 C   0  0  0  0  0  0  0  0  0  0  0  0
   -4.9870   -1.3240    0.6930 C   0  0  0  0  0  0  0  0  0  0  0  0
   -5.5130   -2.5840    0.5450 C   0  0  0  0  0  0  0  0  0  0  0  0
   -4.9080   -3.5540   -0.2480 C   0  0  0  0  0  0  0  0  0  0  0  0
   -3.7360   -3.2330   -0.9040 C   0  0  0  0  0  0  0  0  0  0  0  0
   -3.1730   -1.9810   -0.7850 C   0  0  0  0  0  0  0  0  0  0  0  0
   -3.8030   -1.0150    0.0210 C   0  0  0  0  0  0  0  0  0  0  0  0
   -3.2810    0.2360    0.1740 C   0  0  0  0  0  0  0  0  0  0  0  0
   -2.0030    0.5130   -0.4100 N   0  0  0  0  0  0  0  0  0  0  0  0
   -0.8870   -0.0240    0.3280 C   0  0  0  0  0  0  0  0  0  0  0  0
   -1.0410   -0.6930    1.3840 O   0  0  0  0  0  0  0  0  0  0  0  0
    0.4910    0.2160   -0.1500 C   0  0  1  0  0  0  0  0  0  0  0  0
    0.9840    1.5420    0.3040 C   0  0  0  0  0  0  0  0  0  0  0  0
    1.3440   -0.9640    0.1920 C   0  0  0  0  0  0  0  0  0  0  0  0
    2.7240   -0.7710   -0.2140 N   0  0  0  0  0  0  0  0  0  0  0  0
    3.6920   -1.8150   -0.0960 C   0  0  0  0  0  0  0  0  0  0  0  0
    3.2750   -2.9180    0.3660 O   0  0  0  0  0  0  0  0  0  0  0  0
    5.0820   -1.6690   -0.4780 C   0  0  0  0  0  0  0  0  0  0  0  0
    5.7180   -2.4710   -1.4020 C   0  0  0  0  0  0  0  0  0  0  0  0
    6.9960   -2.0270   -1.6220 C   0  0  0  0  0  0  0  0  0  0  0  0
    7.1580   -0.9380   -0.8270 N   0  0  0  0  0  0  0  0  0  0  0  0
    5.9990   -0.7120   -0.1250 C   0  0  0  0  0  0  0  0  0  0  0  0
    5.8440    0.3750    0.8830 C   0  0  0  0  0  0  0  0  0  0  0  0
    7.0150    1.1950    0.9750 N   0  0  0  0  0  0  0  0  0  0  0  0
  1  2  1  0
  2  3  1  0
  3  4  1  0
  4  5  2  0
  4 13  1  0
  5  6  1  0
  6  7  2  0
  7  8  1  0
  7 12  1  0
  8  9  2  0
  9 10  1  0
 10 11  2  0
 11 12  1  0
 12 13  2  0
 13 14  1  0
 14 15  1  0
 15 16  2  0
 15 17  1  0
 17 18  1  1
 17 19  1  0
 19 20  1  0
 20 21  1  0
 21 22  2  0
 21 23  1  0
 23 24  1  0
 23 27  2  0
 24 25  2  0
 25 26  1  0
 26 27  1  0
 27 28  1  0
 28 29  1  0
M  CHG  1  29   1
M  END
