
     RDKit          3D

 29 31  0  0  0  0  0  0  0  0999 V2000
    4.1360    5.6250    3.4800 C   0  0  0  0  0  0  0  0  0  0  0  0
    4.0050    4.4050    3.2480 C   0  0  0  0  0  0  0  0  0  0  0  0
    3.8790    3.0290    2.9940 C   0  0  0  0  0  0  0  0  0  0  0  0
    4.6370    2.2400    3.9440 C   0  0  0  0  0  0  0  0  0  0  0  0
    4.6800    0.9010    3.6660 C   0  0  0  0  0  0  0  0  0  0  0  0
    4.0900    0.2710    2.6110 C   0  0  0  0  0  0  0  0  0  0  0  0
    4.2220   -1.1730    2.4360 C   0  0  0  0  0  0  0  0  0  0  0  0
    3.3570    1.0690    1.7100 C   0  0  0  0  0  0  0  0  0  0  0  0
    2.8340    0.4270    0.5790 N   0  0  0  0  0  0  0  0  0  0  0  0
    1.6780    0.7780   -0.1360 C   0  0  0  0  0  0  0  0  0  0  0  0
    0.9680    1.7390    0.1980 O   0  0  0  0  0  0  0  0  0  0  0  0
    1.2880   -0.0350   -1.3230 C   0  0  0  0  0  0  0  0  0  0  0  0
    0.1170   -0.9030   -0.8590 C   0  0  0  0  0  0  0  0  0  0  0  0
   -0.4540   -1.7530   -1.9490 C   0  0  0  0  0  0  0  0  0  0  0  0
   -1.1860   -1.0820   -2.9690 N   0  0  0  0  0  0  0  0  0  0  0  0
   -2.5610   -1.5950   -3.0750 C   0  0  2  0  0  0  0  0  0  0  0  0
   -3.4710   -0.6280   -3.7470 C   0  0  0  0  0  0  0  0  0  0  0  0
   -3.0580    0.6520   -4.1550 N   0  0  0  0  0  0  0  0  0  0  0  0
   -4.6460   -1.0070   -3.9400 O   0  0  0  0  0  0  0  0  0  0  0  0
   -3.0370   -1.7860   -1.6470 C   0  0  0  0  0  0  0  0  0  0  0  0
   -3.1280   -3.0170   -1.1020 C   0  0  0  0  0  0  0  0  0  0  0  0
   -3.5010   -3.1710    0.2480 C   0  0  0  0  0  0  0  0  0  0  0  0
   -3.7720   -2.0200    0.9770 C   0  0  0  0  0  0  0  0  0  0  0  0
   -3.6930   -0.7810    0.4670 C   0  0  0  0  0  0  0  0  0  0  0  0
   -3.3090   -0.6390   -0.9120 C   0  0  0  0  0  0  0  0  0  0  0  0
   -3.3030    0.7180   -1.1540 N   0  0  0  0  0  0  0  0  0  0  0  0
   -3.6010    1.4710   -0.1910 C   0  0  0  0  0  0  0  0  0  0  0  0
   -3.8930    0.6240    0.9930 C   0  0  0  0  0  0  0  0  0  0  0  0
    3.2860    2.4150    1.9500 C   0  0  0  0  0  0  0  0  0  0  0  0
  1  2  3  0
  2  3  1  0
  3  4  2  0
  3 29  1  0
  4  5  1  0
  5  6  2  0
  6  7  1  0
  6  8  1  0
  8  9  1  0
  8 29  2  0
  9 10  1  0
 10 11  2  0
 10 12  1  0
 12 13  1  0
 13 14  1  0
 14 15  1  0
 16 15  1  1
 16 17  1  0
 16 20  1  0
 17 18  1  0
 17 19  2  0
 20 21  2  0
 20 25  1  0
 21 22  1  0
 22 23  2  0
 23 24  1  0
 24 25  2  0
 24 28  1  0
 25 26  1  0
 26 27  2  0
 27 28  1  0
M  CHG  1  15   1
M  END
