
     RDKit          3D

 27 29  0  0  0  0  0  0  0  0999 V2000
   -5.8790    0.0120    1.4160 C   0  0  0  0  0  0  0  0  0  0  0  0
   -4.6350    0.0070    2.1470 C   0  0  0  0  0  0  0  0  0  0  0  0
   -3.4760    0.4350    1.7480 C   0  0  0  0  0  0  0  0  0  0  0  0
   -2.3700    0.3370    2.6300 O   0  0  0  0  0  0  0  0  0  0  0  0
   -1.0280    0.2270    2.0930 C   0  0  1  0  0  0  0  0  0  0  0  0
   -0.8280   -1.1620    1.6730 C   0  0  0  0  0  0  0  0  0  0  0  0
    0.3850   -1.5910    1.0670 N   0  0  0  0  0  0  0  0  0  0  0  0
    0.9040   -1.2670   -0.2010 C   0  0  0  0  0  0  0  0  0  0  0  0
    0.2500   -0.5220   -0.9630 O   0  0  0  0  0  0  0  0  0  0  0  0
    2.2370   -1.7980   -0.6650 C   0  0  1  0  0  0  0  0  0  0  0  0
    2.1980   -3.3070   -0.7610 C   0  0  0  0  0  0  0  0  0  0  0  0
    2.4690   -1.2860   -1.9810 N   0  0  0  0  0  0  0  0  0  0  0  0
    3.3200   -0.1740   -2.1460 C   0  0  0  0  0  0  0  0  0  0  0  0
    3.8380    0.1400   -3.2540 O   0  0  0  0  0  0  0  0  0  0  0  0
    3.6190    0.6660   -0.9660 C   0  0  2  0  0  0  0  0  0  0  0  0
    4.7650    1.5790   -1.3050 C   0  0  0  0  0  0  0  0  0  0  0  0
    5.0190    2.4840   -0.2600 O   0  0  0  0  0  0  0  0  0  0  0  0
    3.8860   -0.1150    0.2290 N   0  0  0  0  0  0  0  0  0  0  0  0
    3.3110   -1.4120    0.2800 C   0  0  0  0  0  0  0  0  0  0  0  0
    3.7070   -2.2380    1.1250 O   0  0  0  0  0  0  0  0  0  0  0  0
   -0.7860    1.3080    1.1390 C   0  0  0  0  0  0  0  0  0  0  0  0
   -1.8590    1.4430    0.1710 N   0  0  0  0  0  0  0  0  0  0  0  0
   -1.8280    1.9690   -1.1240 C   0  0  0  0  0  0  0  0  0  0  0  0
   -0.8290    2.4530   -1.7580 O   0  0  0  0  0  0  0  0  0  0  0  0
   -3.1700    1.8870   -1.6920 C   0  0  0  0  0  0  0  0  0  0  0  0
   -3.9630    1.2620   -0.5980 C   0  0  0  0  0  0  0  0  0  0  0  0
   -3.2010    1.0210    0.4480 C   0  0  0  0  0  0  0  0  0  0  0  0
  1  2  1  0
  2  3  2  3
  3  4  1  0
  3 27  1  0
  4  5  1  0
  5  6  1  6
  5 21  1  0
  6  7  1  0
  7  8  1  0
  8  9  2  0
  8 10  1  0
 10 11  1  6
 10 12  1  0
 10 19  1  0
 12 13  1  0
 13 14  2  0
 13 15  1  0
 15 16  1  6
 15 18  1  0
 16 17  1  0
 18 19  1  0
 19 20  2  0
 21 22  1  0
 22 23  1  0
 22 27  1  0
 23 24  2  0
 23 25  1  0
 25 26  1  0
 26 27  2  0
M  END
