
     RDKit          3D

 27 29  0  0  0  0  0  0  0  0999 V2000
   -7.1110    1.4640   -4.2470 C   0  0  0  0  0  0  0  0  0  0  0  0
   -6.2420    0.3650   -4.5000 O   0  0  0  0  0  0  0  0  0  0  0  0
   -5.0850    0.1580   -3.6870 C   0  0  0  0  0  0  0  0  0  0  0  0
   -4.9690    1.0240   -2.7950 O   0  0  0  0  0  0  0  0  0  0  0  0
   -4.2310   -0.9600   -3.9690 C   0  0  0  0  0  0  0  0  0  0  0  0
   -3.1550   -1.4260   -3.4190 C   0  0  0  0  0  0  0  0  0  0  0  0
   -2.5300   -2.6730   -4.0600 C   0  0  0  0  0  0  0  0  0  0  0  0
   -1.1420   -2.3000   -4.3200 O   0  0  0  0  0  0  0  0  0  0  0  0
   -0.4170   -1.8040   -3.2090 C   0  0  0  0  0  0  0  0  0  0  0  0
    0.8180   -1.9750   -3.1420 O   0  0  0  0  0  0  0  0  0  0  0  0
   -1.1130   -1.1050   -2.1660 C   0  0  0  0  0  0  0  0  0  0  0  0
   -2.4670   -0.9150   -2.2520 C   0  0  0  0  0  0  0  0  0  0  0  0
   -2.8990   -0.2810   -1.1720 N   0  0  0  0  0  0  0  0  0  0  0  0
   -1.8200   -0.0450   -0.3670 C   0  0  0  0  0  0  0  0  0  0  0  0
   -1.9540    0.6490    0.9170 C   0  0  0  0  0  0  0  0  0  0  0  0
   -0.6890   -0.5400   -0.9470 C   0  0  0  0  0  0  0  0  0  0  0  0
    0.7170   -0.5800   -0.5620 C   0  0  0  0  0  0  0  0  0  0  0  0
    1.0670    0.0100    0.6820 N   0  0  0  0  0  0  0  0  0  0  0  0
    2.4720   -0.0310    1.0700 C   0  0  0  0  0  0  0  0  0  0  0  0
    3.2510   -0.5770    0.2880 O   0  0  0  0  0  0  0  0  0  0  0  0
    2.9050    0.5290    2.2780 N   0  0  0  0  0  0  0  0  0  0  0  0
    4.2850    0.5100    2.7010 C   0  0  1  0  0  0  0  0  0  0  0  0
    4.7530    1.9430    2.9190 C   0  0  0  0  0  0  0  0  0  0  0  0
    5.6620    1.9210    3.9370 O   0  0  0  0  0  0  0  0  0  0  0  0
    5.7230    0.6850    4.5150 C   0  0  1  0  0  0  0  0  0  0  0  0
    5.8210    0.7850    5.9590 N   0  0  0  0  0  0  0  0  0  0  0  0
    4.4770   -0.0570    4.0890 C   0  0  0  0  0  0  0  0  0  0  0  0
  1  2  1  0
  2  3  1  0
  3  4  2  0
  3  5  1  0
  5  6  2  3
  6  7  1  0
  6 12  1  0
  7  8  1  0
  8  9  1  0
  9 10  2  0
  9 11  1  0
 11 12  2  0
 11 16  1  0
 12 13  1  0
 13 14  1  0
 14 15  1  0
 14 16  2  0
 16 17  1  0
 17 18  1  0
 18 19  1  0
 19 20  2  0
 19 21  1  0
 22 21  1  1
 22 23  1  0
 22 27  1  0
 23 24  1  0
 24 25  1  0
 25 26  1  1
 25 27  1  0
M  END
