
     RDKit          3D

 27 28  0  0  0  0  0  0  0  0999 V2000
    4.6380   -2.1470   -1.6290 C   0  0  0  0  0  0  0  0  0  0  0  0
    4.1760   -1.7000   -0.3740 O   0  0  0  0  0  0  0  0  0  0  0  0
    2.9080   -1.1710   -0.1650 C   0  0  0  0  0  0  0  0  0  0  0  0
    1.8970   -1.9820   -0.5300 C   0  0  0  0  0  0  0  0  0  0  0  0
    0.4920   -1.5730   -0.3770 C   0  0  0  0  0  0  0  0  0  0  0  0
   -0.4200   -2.3590    0.4540 C   0  0  1  0  0  0  0  0  0  0  0  0
    0.2550   -2.7550    1.6760 N   0  0  0  0  0  0  0  0  0  0  0  0
   -1.5930   -1.6740    0.8260 O   0  0  0  0  0  0  0  0  0  0  0  0
   -2.1730   -0.5280    0.5320 C   0  0  0  0  0  0  0  0  0  0  0  0
   -3.4790   -0.4800    0.1700 C   0  0  0  0  0  0  0  0  0  0  0  0
   -4.3220   -1.6570    0.0770 C   0  0  0  0  0  0  0  0  0  0  0  0
   -3.8180   -2.8040    0.3490 O   0  0  0  0  0  0  0  0  0  0  0  0
   -4.1400    0.7960   -0.1440 C   0  0  0  0  0  0  0  0  0  0  0  0
   -3.7460    1.9720    0.6460 C   0  0  0  0  0  0  0  0  0  0  0  0
   -2.4820    1.7460    1.3860 C   0  0  0  0  0  0  0  0  0  0  0  0
   -1.5090    0.8110    0.5590 C   0  0  2  0  0  0  0  0  0  0  0  0
   -1.3710    1.4630   -0.7040 N   0  0  0  0  0  0  0  0  0  0  0  0
   -0.6350    1.2150   -1.8590 C   0  0  0  0  0  0  0  0  0  0  0  0
   -1.3870    0.9470   -2.9000 O   0  0  0  0  0  0  0  0  0  0  0  0
    0.8100    1.2010   -2.1060 C   0  0  0  0  0  0  0  0  0  0  0  0
    1.1740    0.6720   -3.2400 O   0  0  0  0  0  0  0  0  0  0  0  0
    1.8790    1.6630   -1.3280 N   0  0  0  0  0  0  0  0  0  0  0  0
    2.4030    1.3040   -0.0550 C   0  0  0  0  0  0  0  0  0  0  0  0
    2.5130    2.4640    0.8900 C   0  0  0  0  0  0  0  0  0  0  0  0
    3.0100    2.2710    2.2150 N   0  0  0  0  0  0  0  0  0  0  0  0
    2.1970    3.6290    0.6090 O   0  0  0  0  0  0  0  0  0  0  0  0
    2.8190    0.1540    0.4100 C   0  0  0  0  0  0  0  0  0  0  0  0
  1  2  1  0
  2  3  1  0
  3  4  2  0
  3 27  1  0
  4  5  1  0
  5  6  1  0
  6  7  1  1
  6  8  1  0
  8  9  1  0
  9 10  2  0
  9 16  1  0
 10 11  1  0
 10 13  1  0
 11 12  2  0
 13 14  1  0
 14 15  1  0
 16 15  1  1
 16 17  1  0
 17 18  1  0
 18 19  2  0
 18 20  1  0
 20 21  2  0
 20 22  1  0
 22 23  1  0
 23 24  1  0
 23 27  2  0
 24 25  1  0
 24 26  2  0
M  END
