
     RDKit          3D

 27 29  0  0  0  0  0  0  0  0999 V2000
    5.6680   -2.3520   -1.6490 C   0  0  0  0  0  0  0  0  0  0  0  0
    4.7600   -2.0050   -0.5710 N   0  0  0  0  0  0  0  0  0  0  0  0
    4.1950   -0.7120   -0.4270 C   0  0  0  0  0  0  0  0  0  0  0  0
    4.5090    0.1560   -1.2800 O   0  0  0  0  0  0  0  0  0  0  0  0
    3.2560   -0.3550    0.6870 C   0  0  2  0  0  0  0  0  0  0  0  0
    3.0150   -1.4140    1.5350 O   0  0  0  0  0  0  0  0  0  0  0  0
    1.6460   -1.6250    1.6120 C   0  0  0  0  0  0  0  0  0  0  0  0
    1.1710   -2.5430    2.3280 O   0  0  0  0  0  0  0  0  0  0  0  0
    1.0010   -0.6440    0.7670 C   0  0  0  0  0  0  0  0  0  0  0  0
   -0.3820   -0.3860    0.4600 C   0  0  0  0  0  0  0  0  0  0  0  0
   -1.4980   -0.9360    0.8320 C   0  0  0  0  0  0  0  0  0  0  0  0
   -1.7900   -2.0180    1.6950 N   0  0  0  0  0  0  0  0  0  0  0  0
   -3.2230   -2.2090    1.7510 C   0  0  0  0  0  0  0  0  0  0  0  0
   -3.8320   -3.0800    2.4190 O   0  0  0  0  0  0  0  0  0  0  0  0
   -3.8330   -1.2200    0.9010 C   0  0  0  0  0  0  0  0  0  0  0  0
   -5.0670   -0.7440    0.4280 C   0  0  0  0  0  0  0  0  0  0  0  0
   -6.3730   -1.3170    0.8040 C   0  0  0  0  0  0  0  0  0  0  0  0
   -4.7760    0.2780   -0.3860 N   0  0  0  0  0  0  0  0  0  0  0  0
   -3.4600    0.4710   -0.4520 C   0  0  0  0  0  0  0  0  0  0  0  0
   -2.7490    1.4990   -1.2420 C   0  0  0  0  0  0  0  0  0  0  0  0
   -2.8440   -0.4700    0.3580 C   0  0  0  0  0  0  0  0  0  0  0  0
    1.9780    0.1190    0.2120 C   0  0  0  0  0  0  0  0  0  0  0  0
    1.8330    1.1850   -0.6680 O   0  0  0  0  0  0  0  0  0  0  0  0
    2.0460    2.5070   -0.1680 C   0  0  0  0  0  0  0  0  0  0  0  0
    1.8510    3.5150   -1.2350 C   0  0  0  0  0  0  0  0  0  0  0  0
    2.0250    4.8840   -0.9040 N   0  0  0  0  0  0  0  0  0  0  0  0
    1.5410    3.2220   -2.4160 O   0  0  0  0  0  0  0  0  0  0  0  0
  1  2  1  0
  2  3  1  0
  3  4  2  0
  5  3  1  6
  5  6  1  0
  5 22  1  0
  6  7  1  0
  7  8  2  0
  7  9  1  0
  9 10  1  0
  9 22  2  0
 10 11  2  3
 11 12  1  0
 11 21  1  0
 12 13  1  0
 13 14  2  0
 13 15  1  0
 15 16  2  0
 15 21  1  0
 16 17  1  0
 16 18  1  0
 18 19  1  0
 19 20  1  0
 19 21  2  0
 22 23  1  0
 23 24  1  0
 24 25  1  0
 25 26  1  0
 25 27  2  0
M  END
