
     RDKit          3D

 27 29  0  0  0  0  0  0  0  0999 V2000
    5.5280   -0.6650   -0.5540 C   0  0  0  0  0  0  0  0  0  0  0  0
    4.9400   -0.4190    0.7940 C   0  0  0  0  0  0  0  0  0  0  0  0
    4.0080    0.7170    0.9240 C   0  0  0  0  0  0  0  0  0  0  0  0
    2.7740    0.7090    0.1170 C   0  0  2  0  0  0  0  0  0  0  0  0
    2.9350    0.6790   -1.3670 C   0  0  0  0  0  0  0  0  0  0  0  0
    1.8970    1.8470    0.4260 N   0  0  0  0  0  0  0  0  0  0  0  0
    0.6190    1.4570   -0.0590 C   0  0  0  0  0  0  0  0  0  0  0  0
   -0.2770    2.2700   -0.4940 O   0  0  0  0  0  0  0  0  0  0  0  0
    0.5230    0.0550    0.0090 N   0  0  0  0  0  0  0  0  0  0  0  0
   -0.5410   -0.8610   -0.1710 C   0  0  0  0  0  0  0  0  0  0  0  0
   -1.8160   -0.6660    0.0370 C   0  0  0  0  0  0  0  0  0  0  0  0
   -2.1130    0.6310    0.5560 N   0  0  0  0  0  0  0  0  0  0  0  0
   -3.2300    1.4950    0.4550 C   0  0  0  0  0  0  0  0  0  0  0  0
   -3.1070    2.8290    0.9900 C   0  0  0  0  0  0  0  0  0  0  0  0
   -2.1000    3.2830    1.5450 O   0  0  0  0  0  0  0  0  0  0  0  0
   -4.1990    3.6860    0.8810 O   0  0  0  0  0  0  0  0  0  0  0  0
   -4.4240    1.1400   -0.0290 C   0  0  0  0  0  0  0  0  0  0  0  0
   -4.8950   -0.1590   -0.5560 C   0  0  0  0  0  0  0  0  0  0  0  0
   -4.2010   -1.2830    0.2370 C   0  0  0  0  0  0  0  0  0  0  0  0
   -2.8970   -1.6040   -0.4100 C   0  0  2  0  0  0  0  0  0  0  0  0
   -2.4920   -3.0020   -0.3240 C   0  0  0  0  0  0  0  0  0  0  0  0
   -3.3100   -3.9230   -0.0130 O   0  0  0  0  0  0  0  0  0  0  0  0
   -1.1370   -3.3130   -0.6020 N   0  0  0  0  0  0  0  0  0  0  0  0
   -0.1970   -2.2760   -0.5220 C   0  0  0  0  0  0  0  0  0  0  0  0
    0.9950   -2.5440   -0.7580 O   0  0  0  0  0  0  0  0  0  0  0  0
    1.8100   -0.3710    0.5380 C   0  0  0  0  0  0  0  0  0  0  0  0
    2.0850   -1.3750    1.1880 O   0  0  0  0  0  0  0  0  0  0  0  0
  1  2  1  0
  2  3  1  0
  3  4  1  0
  4  5  1  6
  4  6  1  0
  4 26  1  0
  6  7  1  0
  7  8  2  0
  7  9  1  0
  9 10  1  0
  9 26  1  0
 10 11  2  0
 10 24  1  0
 11 12  1  0
 11 20  1  0
 12 13  1  0
 13 14  1  0
 13 17  2  0
 14 15  2  0
 14 16  1  0
 17 18  1  0
 18 19  1  0
 20 19  1  1
 20 21  1  0
 21 22  2  0
 21 23  1  0
 23 24  1  0
 24 25  2  0
 26 27  2  0
M  END
