
     RDKit          3D

 27 28  0  0  0  0  0  0  0  0999 V2000
    5.8270    1.3010   -0.4030 C   0  0  0  0  0  0  0  0  0  0  0  0
    4.8940    0.4930    0.0730 C   0  0  0  0  0  0  0  0  0  0  0  0
    3.9930    0.9930    1.0880 C   0  0  0  0  0  0  0  0  0  0  0  0
    4.1060    2.2230    1.4980 N   0  0  0  0  0  0  0  0  0  0  0  0
    4.7990   -0.8750   -0.4780 C   0  0  1  0  0  0  0  0  0  0  0  0
    4.7390   -1.7580    0.6270 O   0  0  0  0  0  0  0  0  0  0  0  0
    3.6640   -1.1450   -1.3890 C   0  0  2  0  0  0  0  0  0  0  0  0
    2.3130   -0.6950   -1.0210 C   0  0  0  0  0  0  0  0  0  0  0  0
    1.5780   -1.7320   -0.3500 N   0  0  0  0  0  0  0  0  0  0  0  0
    0.2450   -1.5080    0.0380 C   0  0  0  0  0  0  0  0  0  0  0  0
   -0.3860   -2.4050    0.6510 O   0  0  0  0  0  0  0  0  0  0  0  0
   -0.4680   -0.2810   -0.2310 C   0  0  0  0  0  0  0  0  0  0  0  0
    0.1080    0.6340   -0.8600 O   0  0  0  0  0  0  0  0  0  0  0  0
   -1.8040   -0.0600    0.1880 N   0  0  0  0  0  0  0  0  0  0  0  0
   -2.4210    1.2320   -0.1460 C   0  0  1  0  0  0  0  0  0  0  0  0
   -3.6240    1.0430   -0.9670 C   0  0  0  0  0  0  0  0  0  0  0  0
   -4.8630    1.3480   -0.6590 C   0  0  0  0  0  0  0  0  0  0  0  0
   -5.9550    1.1060   -1.5650 N   0  0  0  0  0  0  0  0  0  0  0  0
   -5.0890    1.9430    0.6410 C   0  0  0  0  0  0  0  0  0  0  0  0
   -6.3900    2.2770    0.9960 O   0  0  0  0  0  0  0  0  0  0  0  0
   -7.3570    1.3510    1.4050 C   0  0  0  0  0  0  0  0  0  0  0  0
   -4.1160    2.1780    1.4920 C   0  0  0  0  0  0  0  0  0  0  0  0
   -2.7530    1.8430    1.1540 C   0  0  0  0  0  0  0  0  0  0  0  0
   -1.8140    2.0820    2.0060 O   0  0  0  0  0  0  0  0  0  0  0  0
    2.1350   -3.0400   -0.0600 C   0  0  0  0  0  0  0  0  0  0  0  0
    3.2910   -3.3990   -0.9150 C   0  0  0  0  0  0  0  0  0  0  0  0
    3.6250   -2.4510   -1.8590 O   0  0  0  0  0  0  0  0  0  0  0  0
  1  2  2  0
  2  3  1  0
  2  5  1  0
  3  4  2  0
  5  6  1  1
  5  7  1  0
  7  8  1  1
  7 27  1  0
  8  9  1  0
  9 10  1  0
  9 25  1  0
 10 11  2  0
 10 12  1  0
 12 13  2  0
 12 14  1  0
 15 14  1  1
 15 16  1  0
 15 23  1  0
 16 17  2  0
 17 18  1  0
 17 19  1  0
 19 20  1  0
 19 22  2  0
 20 21  1  0
 22 23  1  0
 23 24  2  0
 25 26  1  0
 26 27  1  0
M  END
