
     RDKit          3D

 11 11  0  0  0  0  0  0  0  0999 V2000
    3.6050   -0.5010   -0.2720 C   0  0  0  0  0  0  0  0  0  0  0  0
    2.1510   -0.7240   -0.0220 C   0  0  0  0  0  0  0  0  0  0  0  0
    1.2860    0.2540   -0.1870 C   0  0  0  0  0  0  0  0  0  0  0  0
   -0.1360    0.0880    0.0430 C   0  0  0  0  0  0  0  0  0  0  0  0
   -0.7250   -1.0840    0.4510 C   0  0  0  0  0  0  0  0  0  0  0  0
   -2.0930   -1.1870    0.6560 C   0  0  0  0  0  0  0  0  0  0  0  0
   -2.6530   -2.4090    1.0740 O   0  0  0  0  0  0  0  0  0  0  0  0
   -2.8660   -0.0770    0.4420 C   0  0  0  0  0  0  0  0  0  0  0  0
   -2.3220    1.1190    0.0340 C   0  0  0  0  0  0  0  0  0  0  0  0
   -0.9670    1.1940   -0.1620 C   0  0  0  0  0  0  0  0  0  0  0  0
   -0.3950    2.4260   -0.5840 N   0  0  0  0  0  0  0  0  0  0  0  0
  1  2  1  0
  2  3  2  3
  3  4  1  0
  4  5  2  0
  4 10  1  0
  5  6  1  0
  6  7  1  0
  6  8  2  0
  8  9  1  0
  9 10  2  0
 10 11  1  0
M  END
