
     RDKit          3D

 12 12  0  0  0  0  0  0  0  0999 V2000
   -0.1970   -2.2100    1.2190 N   0  0  0  0  0  0  0  0  0  0  0  0
   -0.7570   -1.0420    0.5780 C   0  0  0  0  0  0  0  0  0  0  0  0
   -2.1170   -0.9530    0.4360 C   0  0  0  0  0  0  0  0  0  0  0  0
   -2.6960    0.1470   -0.1710 C   0  0  0  0  0  0  0  0  0  0  0  0
   -1.8710    1.1520   -0.6310 C   0  0  0  0  0  0  0  0  0  0  0  0
   -2.3960    2.2800   -1.2490 O   0  0  0  0  0  0  0  0  0  0  0  0
   -0.4970    1.0760   -0.4940 C   0  0  0  0  0  0  0  0  0  0  0  0
    0.0460   -0.0270    0.1120 C   0  0  0  0  0  0  0  0  0  0  0  0
    1.4760   -0.1890    0.2970 C   0  0  0  0  0  0  0  0  0  0  0  0
    2.3640    0.6980   -0.0970 C   0  0  0  0  0  0  0  0  0  0  0  0
    3.7880    0.4700    0.1210 C   0  0  0  0  0  0  0  0  0  0  0  0
    4.1810   -0.5750    0.6870 O   0  0  0  0  0  0  0  0  0  0  0  0
  1  2  1  0
  2  3  2  0
  2  8  1  0
  3  4  1  0
  4  5  2  0
  5  6  1  0
  5  7  1  0
  7  8  2  0
  8  9  1  0
  9 10  2  3
 10 11  1  0
 11 12  2  0
M  END
