
     RDKit          3D

 12 12  0  0  0  0  0  0  0  0999 V2000
   -2.5470   -0.9640   -0.2400 C   0  0  0  0  0  0  0  0  0  0  0  0
   -1.4470    0.0770   -0.0580 C   0  0  1  0  0  0  0  0  0  0  0  0
   -2.1540    1.4100    0.0950 C   0  0  0  0  0  0  0  0  0  0  0  0
   -0.6750   -0.3050    1.1620 C   0  0  0  0  0  0  0  0  0  0  0  0
    0.6870    0.3150    1.2510 C   0  0  0  0  0  0  0  0  0  0  0  0
    1.4220    0.3640   -0.0500 C   0  0  1  0  0  0  0  0  0  0  0  0
    1.2570    1.6180   -0.5960 O   0  0  0  0  0  0  0  0  0  0  0  0
    2.8310    0.0060    0.0200 C   0  0  0  0  0  0  0  0  0  0  0  0
    3.3250   -1.2250    0.5360 N   0  0  0  0  0  0  0  0  0  0  0  0
    3.6780    0.8340   -0.4010 O   0  0  0  0  0  0  0  0  0  0  0  0
    0.7150   -0.6150   -0.9920 C   0  0  0  0  0  0  0  0  0  0  0  0
   -0.6240    0.0540   -1.3230 C   0  0  0  0  0  0  0  0  0  0  0  0
  2  1  1  6
  2  3  1  0
  2  4  1  0
  2 12  1  0
  4  5  1  0
  5  6  1  0
  6  7  1  6
  6  8  1  0
  6 11  1  0
  8  9  1  0
  8 10  2  0
 11 12  1  0
M  END
