
     RDKit          3D

 12 12  0  0  0  0  0  0  0  0999 V2000
   -2.9250   -0.2460   -0.9140 C   0  0  0  0  0  0  0  0  0  0  0  0
   -1.8650   -0.6030    0.1140 C   0  0  2  0  0  0  0  0  0  0  0  0
   -2.6390   -1.1180    1.3370 C   0  0  0  0  0  0  0  0  0  0  0  0
   -1.0370    0.4600    0.4340 O   0  0  0  0  0  0  0  0  0  0  0  0
    0.3180    0.5400    0.2770 C   0  0  0  0  0  0  0  0  0  0  0  0
    1.1310   -0.4340   -0.2360 C   0  0  0  0  0  0  0  0  0  0  0  0
    2.5090   -0.2990   -0.3730 C   0  0  0  0  0  0  0  0  0  0  0  0
    3.2660   -1.3870   -0.9250 N   0  0  0  0  0  0  0  0  0  0  0  0
    3.1190    0.8710    0.0210 C   0  0  0  0  0  0  0  0  0  0  0  0
    2.3200    1.8610    0.5390 C   0  0  0  0  0  0  0  0  0  0  0  0
    0.9550    1.7200    0.6720 C   0  0  0  0  0  0  0  0  0  0  0  0
    0.2260    2.7650    1.2030 O   0  0  0  0  0  0  0  0  0  0  0  0
  2  1  1  6
  2  3  1  0
  2  4  1  0
  4  5  1  0
  5  6  2  0
  5 11  1  0
  6  7  1  0
  7  8  1  0
  7  9  2  0
  9 10  1  0
 10 11  2  0
 11 12  1  0
M  END
