
     RDKit          3D

 12 12  0  0  0  0  0  0  0  0999 V2000
    2.8200   -1.1330    1.5180 C   0  0  0  0  0  0  0  0  0  0  0  0
    2.6070   -0.3260    0.4990 C   0  0  0  0  0  0  0  0  0  0  0  0
    3.7140    0.3000   -0.2630 C   0  0  0  0  0  0  0  0  0  0  0  0
    3.1060    1.0240   -1.1860 C   0  0  0  0  0  0  0  0  0  0  0  0
    1.6520    0.9040   -1.0660 C   0  0  0  0  0  0  0  0  0  0  0  0
    1.3430    0.0990   -0.0620 C   0  0  0  0  0  0  0  0  0  0  0  0
    0.0340   -0.3050    0.4190 C   0  0  0  0  0  0  0  0  0  0  0  0
   -0.1540   -1.0800    1.3880 O   0  0  0  0  0  0  0  0  0  0  0  0
   -1.1680    0.1780   -0.2140 N   0  0  0  0  0  0  0  0  0  0  0  0
   -2.4760   -0.2340    0.2770 C   0  0  0  0  0  0  0  0  0  0  0  0
   -3.5900    0.3870   -0.5280 C   0  0  0  0  0  0  0  0  0  0  0  0
   -4.8140   -0.0410   -0.0160 O   0  0  0  0  0  0  0  0  0  0  0  0
  1  2  2  0
  2  3  1  0
  2  6  1  0
  3  4  2  0
  4  5  1  0
  5  6  2  0
  6  7  1  0
  7  8  2  0
  7  9  1  0
  9 10  1  0
 10 11  1  0
 11 12  1  0
M  END
