
     RDKit          3D

 12 13  0  0  0  0  0  0  0  0999 V2000
   -4.0320    0.8810   -0.0830 O   0  0  0  0  0  0  0  0  0  0  0  0
   -2.7560    0.6660   -0.0420 C   0  0  0  0  0  0  0  0  0  0  0  0
   -1.8380    1.7820   -0.0170 C   0  0  0  0  0  0  0  0  0  0  0  0
   -0.5270    1.6490    0.0260 C   0  0  0  0  0  0  0  0  0  0  0  0
    0.0100    0.2830    0.0490 C   0  0  0  0  0  0  0  0  0  0  0  0
    1.3100   -0.2150    0.0930 C   0  0  0  0  0  0  0  0  0  0  0  0
    2.5530    0.5940    0.1300 C   0  0  0  0  0  0  0  0  0  0  0  0
    3.6710   -0.2060    0.1690 O   0  0  0  0  0  0  0  0  0  0  0  0
    1.2820   -1.5870    0.0980 C   0  0  0  0  0  0  0  0  0  0  0  0
   -0.0030   -1.9380    0.0580 N   0  0  0  0  0  0  0  0  0  0  0  0
   -0.8050   -0.8160    0.0280 C   0  0  0  0  0  0  0  0  0  0  0  0
   -2.2720   -0.7130   -0.0200 C   0  0  0  0  0  0  0  0  0  0  0  0
  1  2  2  0
  2  3  1  0
  2 12  1  0
  3  4  2  0
  4  5  1  0
  5  6  1  0
  5 11  2  0
  6  7  1  0
  6  9  2  0
  7  8  1  0
  9 10  1  0
 10 11  1  0
 11 12  1  0
M  END
