
     RDKit          3D

 12 13  0  0  0  0  0  0  0  0999 V2000
   -2.9930    0.0950    1.1970 C   0  0  0  0  0  0  0  0  0  0  0  0
   -2.2410    0.7440    0.0790 C   0  0  0  0  0  0  0  0  0  0  0  0
   -0.9850    0.1070   -0.1620 N   0  0  0  0  0  0  0  0  0  0  0  0
   -1.1770   -1.1510   -0.8350 C   0  0  0  0  0  0  0  0  0  0  0  0
    0.0500   -2.0210   -0.9030 C   0  0  0  0  0  0  0  0  0  0  0  0
    1.2070   -1.1260   -0.6870 N   0  0  2  0  0  0  0  0  0  0  0  0
    1.3810   -1.0340    0.7030 C   0  0  0  0  0  0  0  0  0  0  0  0
    1.9910    0.1270    1.3230 C   0  0  0  0  0  0  0  0  0  0  0  0
    2.1130    1.3800    0.5160 C   0  0  0  0  0  0  0  0  0  0  0  0
    0.7310    1.8460    0.1620 C   0  0  0  0  0  0  0  0  0  0  0  0
   -0.0060    0.9610   -0.7790 C   0  0  1  0  0  0  0  0  0  0  0  0
    0.9690    0.0270   -1.4630 C   0  0  0  0  0  0  0  0  0  0  0  0
  1  2  1  0
  2  3  1  0
  3  4  1  0
  3 11  1  0
  4  5  1  0
  6  5  1  1
  6  7  1  0
  6 12  1  0
  7  8  1  0
  8  9  1  0
  9 10  1  0
 11 10  1  1
 11 12  1  0
M  CHG  1   6   1
M  END
