
     RDKit          3D

 12 13  0  0  0  0  0  0  0  0999 V2000
   -2.6270    0.7160   -1.2640 C   0  0  0  0  0  0  0  0  0  0  0  0
   -2.2350    0.2040    0.0120 N   0  0  1  0  0  0  0  0  0  0  0  0
   -3.4530   -0.2440    0.6910 C   0  0  0  0  0  0  0  0  0  0  0  0
   -1.3180   -0.8830    0.0090 C   0  0  2  0  0  0  0  0  0  0  0  0
   -0.5800   -0.8320    1.3580 C   0  0  0  0  0  0  0  0  0  0  0  0
    0.4580    0.2790    1.1300 C   0  0  0  0  0  0  0  0  0  0  0  0
    0.7400    0.3290   -0.3050 C   0  0  1  0  0  0  0  0  0  0  0  0
    2.0340    0.2250   -0.8060 N   0  0  0  0  0  0  0  0  0  0  0  0
    2.9860    1.2560   -0.4710 C   0  0  0  0  0  0  0  0  0  0  0  0
    3.7560    0.2440    0.3350 C   0  0  0  0  0  0  0  0  0  0  0  0
    2.9470   -0.7530   -0.4140 C   0  0  0  0  0  0  0  0  0  0  0  0
   -0.1510   -0.7460   -0.9300 C   0  0  0  0  0  0  0  0  0  0  0  0
  2  1  1  6
  2  3  1  0
  2  4  1  0
  4  5  1  1
  4 12  1  0
  5  6  1  0
  6  7  1  0
  7  8  1  1
  7 12  1  0
  8  9  1  0
  8 11  1  0
  9 10  1  0
 10 11  1  0
M  CHG  1   2   1
M  END
