
     RDKit          3D

 17 17  0  0  0  0  0  0  0  0999 V2000
   -4.9570   -1.7580   -0.1010 N   0  0  0  0  0  0  0  0  0  0  0  0
   -3.5600   -1.6070   -0.1810 C   0  0  0  0  0  0  0  0  0  0  0  0
   -2.9730   -0.4790    0.1660 C   0  0  0  0  0  0  0  0  0  0  0  0
   -4.0510    0.9640    0.7850 Br  0  0  0  0  0  0  0  0  0  0  0  0
   -1.5270   -0.2930    0.0930 C   0  0  0  0  0  0  0  0  0  0  0  0
   -0.9350    0.8330    0.4390 C   0  0  0  0  0  0  0  0  0  0  0  0
    0.5130    0.9370    0.3370 C   0  0  0  0  0  0  0  0  0  0  0  0
    1.0660    2.0910    0.6960 C   0  0  0  0  0  0  0  0  0  0  0  0
   -0.2260    3.3840    1.2820 Br  0  0  0  0  0  0  0  0  0  0  0  0
    2.4700    2.5220    0.7150 C   0  0  0  0  0  0  0  0  0  0  0  0
    3.5280    1.9040    0.2170 C   0  0  0  0  0  0  0  0  0  0  0  0
    5.2270    2.7390    0.4100 Br  0  0  0  0  0  0  0  0  0  0  0  0
    3.4940    0.6360   -0.4660 N   0  0  0  0  0  0  0  0  0  0  0  0
    2.4550   -0.3360   -0.4730 C   0  0  0  0  0  0  0  0  0  0  0  0
    2.8900   -1.7000   -0.9410 C   0  0  0  0  0  0  0  0  0  0  0  0
    4.2900   -2.3790    0.2190 Br  0  0  0  0  0  0  0  0  0  0  0  0
    1.2160   -0.1920   -0.1340 N   0  0  0  0  0  0  0  0  0  0  0  0
  1  2  1  0
  2  3  2  3
  3  4  1  0
  3  5  1  0
  5  6  2  3
  6  7  1  0
  7  8  2  0
  7 17  1  0
  8  9  1  0
  8 10  1  0
 10 11  2  0
 11 12  1  0
 11 13  1  0
 13 14  1  0
 14 15  1  0
 14 17  2  0
 15 16  1  0
M  CHG  1   1   1
M  END
