
     RDKit          3D

 17 18  0  0  0  0  0  0  0  0999 V2000
    4.0320    1.2080    2.0570 Br  0  0  0  0  0  0  0  0  0  0  0  0
    3.0170    0.6450    0.5260 C   0  0  0  0  0  0  0  0  0  0  0  0
    3.3580    1.1190   -0.7340 C   0  0  0  0  0  0  0  0  0  0  0  0
    2.6200    0.6190   -1.8020 C   0  0  0  0  0  0  0  0  0  0  0  0
    1.6290   -0.2650   -1.6710 N   0  0  0  0  0  0  0  0  0  0  0  0
    1.2630   -0.7410   -0.4240 C   0  0  0  0  0  0  0  0  0  0  0  0
    0.0140   -1.3940   -0.3720 N   0  0  0  0  0  0  0  0  0  0  0  0
   -0.6840   -1.5550    0.9650 C   0  0  0  0  0  0  0  0  0  0  0  0
   -1.7690   -0.5130    0.6350 C   0  0  0  0  0  0  0  0  0  0  0  0
   -2.6860   -0.7050   -0.3410 N   0  0  0  0  0  0  0  0  0  0  0  0
   -3.4860    0.3890   -0.3780 C   0  0  0  0  0  0  0  0  0  0  0  0
   -4.9340    0.5790   -1.5970 Br  0  0  0  0  0  0  0  0  0  0  0  0
   -3.0360    1.2630    0.6100 C   0  0  0  0  0  0  0  0  0  0  0  0
   -3.7530    3.0030    0.9110 Br  0  0  0  0  0  0  0  0  0  0  0  0
   -1.9500    0.6630    1.2380 C   0  0  0  0  0  0  0  0  0  0  0  0
   -0.9300    1.4490    2.6320 Br  0  0  0  0  0  0  0  0  0  0  0  0
    1.9830   -0.2580    0.6250 C   0  0  0  0  0  0  0  0  0  0  0  0
  1  2  1  0
  2  3  2  0
  2 17  1  0
  3  4  1  0
  4  5  2  0
  5  6  1  0
  6  7  1  0
  6 17  2  0
  7  8  1  0
  8  9  1  0
  9 10  1  0
  9 15  2  0
 10 11  1  0
 11 12  1  0
 11 13  2  0
 13 14  1  0
 13 15  1  0
 15 16  1  0
M  CHG  1   5   1
M  END
