
     RDKit          3D

 12 13  0  0  0  0  0  0  0  0999 V2000
    1.4000    1.4560    1.2490 C   0  0  0  0  0  0  0  0  0  0  0  0
    1.1460    0.9020   -0.0430 N   0  0  0  0  0  0  0  0  0  0  0  0
    2.4100    0.5100   -0.6260 C   0  0  0  0  0  0  0  0  0  0  0  0
    2.5430   -0.9750   -0.4250 C   0  0  0  0  0  0  0  0  0  0  0  0
    1.3660   -1.3250    0.4750 C   0  0  0  0  0  0  0  0  0  0  0  0
    0.3350   -0.2900    0.0420 C   0  0  2  0  0  0  0  0  0  0  0  0
   -0.1420   -0.7270   -1.3260 C   0  0  0  0  0  0  0  0  0  0  0  0
   -1.4650   -1.4660   -1.0760 C   0  0  0  0  0  0  0  0  0  0  0  0
   -2.4470   -0.3530   -0.7310 C   0  0  0  0  0  0  0  0  0  0  0  0
   -2.0190    0.2930    0.4650 N   0  0  2  0  0  0  0  0  0  0  0  0
   -2.0390    1.7570    0.3170 C   0  0  0  0  0  0  0  0  0  0  0  0
   -0.7870   -0.1780    1.0070 C   0  0  0  0  0  0  0  0  0  0  0  0
  1  2  1  0
  2  3  1  0
  2  6  1  0
  3  4  1  0
  4  5  1  0
  6  5  1  1
  6  7  1  0
  6 12  1  0
  7  8  1  0
  8  9  1  0
  9 10  1  0
 10 11  1  6
 10 12  1  0
M  CHG  1  10   1
M  END
