
     RDKit          3D

 39 42  0  0  0  0  0  0  0  0999 V2000
   -5.9680   -2.9940    2.0770 N   0  0  0  0  0  0  0  0  0  0  0  0
   -5.9880   -3.1210    0.6660 C   0  0  0  0  0  0  0  0  0  0  0  0
   -6.9480   -3.8450    0.2350 O   0  0  0  0  0  0  0  0  0  0  0  0
   -5.0540   -2.5250   -0.2470 C   0  0  0  0  0  0  0  0  0  0  0  0
   -5.2520   -2.8140   -1.6080 C   0  0  0  0  0  0  0  0  0  0  0  0
   -6.3340   -3.6270   -2.0490 N   0  0  0  0  0  0  0  0  0  0  0  0
   -4.4120   -2.3230   -2.5630 C   0  0  0  0  0  0  0  0  0  0  0  0
   -3.3280   -1.5160   -2.1750 C   0  0  0  0  0  0  0  0  0  0  0  0
   -3.1510   -1.2460   -0.8590 C   0  0  0  0  0  0  0  0  0  0  0  0
   -2.0270   -0.4900   -0.4210 N   0  0  0  0  0  0  0  0  0  0  0  0
   -1.1610    0.2370   -1.2690 C   0  0  0  0  0  0  0  0  0  0  0  0
   -1.2820    0.3110   -2.4980 O   0  0  0  0  0  0  0  0  0  0  0  0
   -0.0040    0.9800   -0.6290 C   0  0  2  0  0  0  0  0  0  0  0  0
    0.6460    1.6590   -1.6210 O   0  0  0  0  0  0  0  0  0  0  0  0
    1.0110    2.9430   -1.8230 C   0  0  0  0  0  0  0  0  0  0  0  0
    1.6860    3.1940   -3.0340 C   0  0  0  0  0  0  0  0  0  0  0  0
    2.0950    4.4500   -3.3340 C   0  0  0  0  0  0  0  0  0  0  0  0
    1.8520    5.4860   -2.4520 C   0  0  0  0  0  0  0  0  0  0  0  0
    2.3080    6.8160   -2.8130 C   0  0  0  0  0  0  0  0  0  0  0  0
    2.0860    7.7580   -2.0060 O   0  0  0  0  0  0  0  0  0  0  0  0
    2.9640    7.0330   -4.0080 O   0  0  0  0  0  0  0  0  0  0  0  0
    1.1940    5.2430   -1.2710 C   0  0  0  0  0  0  0  0  0  0  0  0
    0.7570    3.9570   -0.9300 C   0  0  0  0  0  0  0  0  0  0  0  0
    0.0850    3.7640    0.2990 N   0  0  0  0  0  0  0  0  0  0  0  0
    0.8790   -0.1160   -0.1020 C   0  0  0  0  0  0  0  0  0  0  0  0
    0.4630   -0.8290    0.8210 O   0  0  0  0  0  0  0  0  0  0  0  0
    2.1480   -0.2910   -0.6780 N   0  0  0  0  0  0  0  0  0  0  0  0
    3.0210   -1.3170   -0.2020 C   0  0  0  0  0  0  0  0  0  0  0  0
    3.3680   -1.0640    1.2060 C   0  0  0  0  0  0  0  0  0  0  0  0
    3.0160   -0.0410    2.0410 C   0  0  0  0  0  0  0  0  0  0  0  0
    3.5850   -0.2390    3.2200 O   0  0  0  0  0  0  0  0  0  0  0  0
    4.2850   -1.3320    3.1930 C   0  0  0  0  0  0  0  0  0  0  0  0
    5.0480   -1.9430    4.1710 C   0  0  0  0  0  0  0  0  0  0  0  0
    5.6960   -3.1140    3.8710 C   0  0  0  0  0  0  0  0  0  0  0  0
    5.6000   -3.6820    2.6270 C   0  0  0  0  0  0  0  0  0  0  0  0
    4.8390   -3.0760    1.6440 C   0  0  0  0  0  0  0  0  0  0  0  0
    4.1940   -1.9040    1.9560 C   0  0  0  0  0  0  0  0  0  0  0  0
   -4.0020   -1.7380    0.1330 C   0  0  0  0  0  0  0  0  0  0  0  0
   -3.8110   -1.3890    1.4850 N   0  0  0  0  0  0  0  0  0  0  0  0
  1  2  1  0
  2  3  2  0
  2  4  1  0
  4  5  2  0
  4 38  1  0
  5  6  1  0
  5  7  1  0
  7  8  2  0
  8  9  1  0
  9 10  1  0
  9 38  2  0
 10 11  1  0
 11 12  2  0
 11 13  1  0
 13 14  1  6
 13 25  1  0
 14 15  1  0
 15 16  2  0
 15 23  1  0
 16 17  1  0
 17 18  2  0
 18 19  1  0
 18 22  1  0
 19 20  2  0
 19 21  1  0
 22 23  2  0
 23 24  1  0
 25 26  2  0
 25 27  1  0
 27 28  1  0
 28 29  1  0
 29 30  2  0
 29 37  1  0
 30 31  1  0
 31 32  1  0
 32 33  2  0
 32 37  1  0
 33 34  1  0
 34 35  2  0
 35 36  1  0
 36 37  2  0
 38 39  1  0
M  CHG  1  39   1
M  END
