
     RDKit          3D

 39 41  0  0  0  0  0  0  0  0999 V2000
    2.4350   -3.4020    4.7330 C   0  0  0  0  0  0  0  0  0  0  0  0
    1.6520   -2.6550    3.8310 O   0  0  0  0  0  0  0  0  0  0  0  0
    2.1920   -1.8080    2.8740 C   0  0  0  0  0  0  0  0  0  0  0  0
    3.5480   -1.6380    2.7400 C   0  0  0  0  0  0  0  0  0  0  0  0
    4.0700   -0.7780    1.7660 C   0  0  0  0  0  0  0  0  0  0  0  0
    3.2520   -0.0820    0.9180 C   0  0  0  0  0  0  0  0  0  0  0  0
    3.7680    0.7920   -0.1250 C   0  0  0  0  0  0  0  0  0  0  0  0
    3.0520    1.7840   -0.5160 O   0  0  0  0  0  0  0  0  0  0  0  0
    5.0390    0.6590   -0.7910 C   0  0  0  0  0  0  0  0  0  0  0  0
    5.6520   -0.5660   -0.8860 C   0  0  0  0  0  0  0  0  0  0  0  0
    6.8900   -0.7130   -1.5180 C   0  0  0  0  0  0  0  0  0  0  0  0
    7.4930    0.3990   -2.0520 C   0  0  0  0  0  0  0  0  0  0  0  0
    8.7400    0.2250   -2.6890 N   0  0  0  0  0  0  0  0  0  0  0  0
    6.9050    1.6420   -1.9740 C   0  0  0  0  0  0  0  0  0  0  0  0
    7.5820    2.7480   -2.5450 N   0  0  0  0  0  0  0  0  0  0  0  0
    5.6820    1.7410   -1.3400 C   0  0  0  0  0  0  0  0  0  0  0  0
    1.8710   -0.2680    1.0710 C   0  0  0  0  0  0  0  0  0  0  0  0
    1.3300   -1.1060    2.0190 C   0  0  0  0  0  0  0  0  0  0  0  0
   -0.0510   -1.3160    2.2150 N   0  0  0  0  0  0  0  0  0  0  0  0
   -1.1210   -0.8370    1.4300 C   0  0  0  0  0  0  0  0  0  0  0  0
   -0.8780   -0.1510    0.4230 O   0  0  0  0  0  0  0  0  0  0  0  0
   -2.4870   -1.1310    1.7750 N   0  0  0  0  0  0  0  0  0  0  0  0
   -3.5640   -0.6260    0.9290 C   0  0  0  0  0  0  0  0  0  0  0  0
   -4.3400   -1.5200    0.4270 C   0  0  0  0  0  0  0  0  0  0  0  0
   -5.5020   -1.4090   -0.4400 C   0  0  0  0  0  0  0  0  0  0  0  0
   -5.4480   -1.5950   -1.8010 C   0  0  0  0  0  0  0  0  0  0  0  0
   -6.5870   -1.5500   -2.5990 C   0  0  0  0  0  0  0  0  0  0  0  0
   -7.8250   -1.3150   -2.0520 C   0  0  0  0  0  0  0  0  0  0  0  0
   -8.9430   -1.2770   -2.8710 O   0  0  0  0  0  0  0  0  0  0  0  0
   -7.9010   -1.1250   -0.6850 C   0  0  0  0  0  0  0  0  0  0  0  0
   -9.1590   -0.8870   -0.1410 O   0  0  0  0  0  0  0  0  0  0  0  0
   -6.7730   -1.1690    0.1040 C   0  0  0  0  0  0  0  0  0  0  0  0
   -3.6290    0.7910    0.7280 C   0  0  0  0  0  0  0  0  0  0  0  0
   -2.7450    1.5570    1.3130 O   0  0  0  0  0  0  0  0  0  0  0  0
   -4.5470    1.5120   -0.0460 N   0  0  0  0  0  0  0  0  0  0  0  0
   -4.4920    2.9820   -0.1600 C   0  0  0  0  0  0  0  0  0  0  0  0
   -3.1980    3.3790   -0.7530 C   0  0  0  0  0  0  0  0  0  0  0  0
   -2.8660    4.7550   -0.9730 N   0  0  0  0  0  0  0  0  0  0  0  0
   -2.3520    2.5330   -1.0820 O   0  0  0  0  0  0  0  0  0  0  0  0
  1  2  1  0
  2  3  1  0
  3  4  2  0
  3 18  1  0
  4  5  1  0
  5  6  2  0
  6  7  1  0
  6 17  1  0
  7  8  2  0
  7  9  1  0
  9 10  2  0
  9 16  1  0
 10 11  1  0
 11 12  2  0
 12 13  1  0
 12 14  1  0
 14 15  1  0
 14 16  2  0
 17 18  2  0
 18 19  1  0
 19 20  1  0
 20 21  2  0
 20 22  1  0
 22 23  1  0
 23 24  2  3
 23 33  1  0
 24 25  1  0
 25 26  2  0
 25 32  1  0
 26 27  1  0
 27 28  2  0
 28 29  1  0
 28 30  1  0
 30 31  1  0
 30 32  2  0
 33 34  2  0
 33 35  1  0
 35 36  1  0
 36 37  1  0
 37 38  1  0
 37 39  2  0
M  CHG  1  15   1
M  END
