
     RDKit          3D

 39 42  0  0  0  0  0  0  0  0999 V2000
   -2.4380   -2.4500    2.2740 C   0  0  0  0  0  0  0  0  0  0  0  0
   -2.0610   -1.0340    1.9880 C   0  0  2  0  0  0  0  0  0  0  0  0
   -3.1390   -0.3300    1.3180 N   0  0  0  0  0  0  0  0  0  0  0  0
   -3.7790    0.8020    1.8160 C   0  0  0  0  0  0  0  0  0  0  0  0
   -3.2850    1.1620    2.9900 O   0  0  0  0  0  0  0  0  0  0  0  0
   -4.8390    1.6330    1.3440 C   0  0  0  0  0  0  0  0  0  0  0  0
   -5.7120    2.1330    2.3510 C   0  0  0  0  0  0  0  0  0  0  0  0
   -6.7840    2.9300    2.0630 C   0  0  0  0  0  0  0  0  0  0  0  0
   -7.0640    3.2860    0.7600 C   0  0  0  0  0  0  0  0  0  0  0  0
   -6.2240    2.8030   -0.1950 C   0  0  0  0  0  0  0  0  0  0  0  0
   -5.1200    1.9850    0.0820 C   0  0  0  0  0  0  0  0  0  0  0  0
   -4.3410    1.5600   -1.0900 C   0  0  1  0  0  0  0  0  0  0  0  0
   -4.3890    0.2630   -1.4270 F   0  0  0  0  0  0  0  0  0  0  0  0
   -4.6260    2.3600   -2.2020 F   0  0  0  0  0  0  0  0  0  0  0  0
   -3.0050    1.9130   -0.7840 F   0  0  0  0  0  0  0  0  0  0  0  0
   -0.7120   -0.8400    1.4730 C   0  0  0  0  0  0  0  0  0  0  0  0
    0.3850   -0.6210    2.2820 N   0  0  0  0  0  0  0  0  0  0  0  0
    1.4660   -0.4790    1.5810 N   0  0  0  0  0  0  0  0  0  0  0  0
    1.1570   -0.5930    0.2880 C   0  0  0  0  0  0  0  0  0  0  0  0
    2.2760   -0.4570   -1.0940 S   0  0  0  0  0  0  0  0  0  0  0  0
    3.9660   -0.1240   -0.5280 C   0  0  0  0  0  0  0  0  0  0  0  0
    4.0710    1.2360    0.0840 C   0  0  0  0  0  0  0  0  0  0  0  0
    5.2860    1.6070    0.5690 O   0  0  0  0  0  0  0  0  0  0  0  0
    6.5170    1.8060    0.0810 C   0  0  0  0  0  0  0  0  0  0  0  0
    6.8150    1.6570   -1.2510 C   0  0  0  0  0  0  0  0  0  0  0  0
    8.1220    1.8800   -1.6700 C   0  0  0  0  0  0  0  0  0  0  0  0
    9.1240    2.2450   -0.7820 C   0  0  0  0  0  0  0  0  0  0  0  0
   10.3720    2.4490   -1.2320 F   0  0  0  0  0  0  0  0  0  0  0  0
    8.8150    2.3920    0.5480 C   0  0  0  0  0  0  0  0  0  0  0  0
    7.5350    2.1800    0.9880 C   0  0  0  0  0  0  0  0  0  0  0  0
   -0.1910   -0.8170    0.2170 N   0  0  0  0  0  0  0  0  0  0  0  0
   -0.8690   -0.9810   -1.0180 C   0  0  0  0  0  0  0  0  0  0  0  0
   -0.9660   -2.3750   -1.4950 C   0  0  0  0  0  0  0  0  0  0  0  0
   -0.0330   -2.9550   -2.3290 C   0  0  0  0  0  0  0  0  0  0  0  0
   -0.1250   -4.2480   -2.8050 C   0  0  0  0  0  0  0  0  0  0  0  0
   -1.2130   -4.9990   -2.4240 C   0  0  0  0  0  0  0  0  0  0  0  0
   -1.3090   -6.2690   -2.8900 F   0  0  0  0  0  0  0  0  0  0  0  0
   -2.1450   -4.4330   -1.5960 C   0  0  0  0  0  0  0  0  0  0  0  0
   -2.0430   -3.1440   -1.1280 C   0  0  0  0  0  0  0  0  0  0  0  0
  2  1  1  6
  2  3  1  0
  2 16  1  0
  3  4  1  0
  4  5  2  0
  4  6  1  0
  6  7  2  0
  6 11  1  0
  7  8  1  0
  8  9  2  0
  9 10  1  0
 10 11  2  0
 11 12  1  0
 12 13  1  6
 12 14  1  0
 12 15  1  0
 16 17  2  0
 16 31  1  0
 17 18  1  0
 18 19  2  0
 19 20  1  0
 19 31  1  0
 20 21  1  0
 21 22  1  0
 22 23  1  0
 23 24  1  0
 24 25  2  0
 24 30  1  0
 25 26  1  0
 26 27  2  0
 27 28  1  0
 27 29  1  0
 29 30  2  0
 31 32  1  0
 32 33  1  0
 33 34  2  0
 33 39  1  0
 34 35  1  0
 35 36  2  0
 36 37  1  0
 36 38  1  0
 38 39  2  0
M  END
