
     RDKit          3D

 39 42  0  0  0  0  0  0  0  0999 V2000
   -2.0510    6.8590   -0.6020 C   0  0  0  0  0  0  0  0  0  0  0  0
   -3.3170    6.1660   -0.3000 C   0  0  0  0  0  0  0  0  0  0  0  0
   -4.5730    6.7240   -0.1650 C   0  0  0  0  0  0  0  0  0  0  0  0
   -5.4670    5.6970    0.1190 C   0  0  0  0  0  0  0  0  0  0  0  0
   -4.7570    4.5490    0.1520 N   0  0  0  0  0  0  0  0  0  0  0  0
   -3.4700    4.8310   -0.0990 C   0  0  0  0  0  0  0  0  0  0  0  0
   -2.3590    3.8250   -0.1510 C   0  0  0  0  0  0  0  0  0  0  0  0
   -1.2020    4.2120   -0.3940 O   0  0  0  0  0  0  0  0  0  0  0  0
   -2.6320    2.4670    0.0730 N   0  0  0  0  0  0  0  0  0  0  0  0
   -1.6960    1.4240    0.0550 C   0  0  0  0  0  0  0  0  0  0  0  0
   -0.3540    1.5830   -0.1890 C   0  0  0  0  0  0  0  0  0  0  0  0
    0.5230    0.4930   -0.1910 C   0  0  0  0  0  0  0  0  0  0  0  0
    1.9490    0.7940   -0.4770 C   0  0  0  0  0  0  0  0  0  0  0  0
    2.2470    1.8520   -1.0680 O   0  0  0  0  0  0  0  0  0  0  0  0
    2.9400   -0.1260   -0.0730 N   0  0  0  0  0  0  0  0  0  0  0  0
    4.3180    0.0030   -0.2660 C   0  0  0  0  0  0  0  0  0  0  0  0
    4.8720    1.0790   -0.8920 C   0  0  0  0  0  0  0  0  0  0  0  0
    6.2650    1.1600   -1.0610 C   0  0  0  0  0  0  0  0  0  0  0  0
    7.0590    0.1560   -0.5940 C   0  0  0  0  0  0  0  0  0  0  0  0
    8.5050    0.2090   -0.7520 C   0  0  0  0  0  0  0  0  0  0  0  0
    9.0930    1.3240   -1.4030 N   0  0  0  0  0  0  0  0  0  0  0  0
    9.2490   -0.6970   -0.3330 O   0  0  0  0  0  0  0  0  0  0  0  0
    6.4990   -0.9470    0.0470 C   0  0  0  0  0  0  0  0  0  0  0  0
    5.1350   -1.0200    0.2090 C   0  0  0  0  0  0  0  0  0  0  0  0
    4.4970   -2.1670    0.8810 C   0  0  0  0  0  0  0  0  0  0  0  0
    5.5030   -3.1040    1.2940 N   0  0  0  0  0  0  0  0  0  0  0  0
    0.0490   -0.7580    0.0520 C   0  0  0  0  0  0  0  0  0  0  0  0
   -1.3070   -0.9870    0.3070 C   0  0  0  0  0  0  0  0  0  0  0  0
   -1.6670   -2.2630    0.5350 O   0  0  0  0  0  0  0  0  0  0  0  0
   -2.8450   -2.8970    0.8140 C   0  0  2  0  0  0  0  0  0  0  0  0
   -2.7870   -3.8060    2.0290 C   0  0  0  0  0  0  0  0  0  0  0  0
   -3.6120   -4.8690    1.7950 O   0  0  0  0  0  0  0  0  0  0  0  0
   -3.8570   -4.9840    0.4600 C   0  0  1  0  0  0  0  0  0  0  0  0
   -5.3620   -4.7880    0.2350 C   0  0  0  0  0  0  0  0  0  0  0  0
   -5.6270   -4.9080   -1.1760 N   0  0  0  0  0  0  0  0  0  0  0  0
   -3.0840   -3.9350   -0.2730 C   0  0  1  0  0  0  0  0  0  0  0  0
   -3.9260   -3.3930   -1.2530 O   0  0  0  0  0  0  0  0  0  0  0  0
   -2.1350    0.1120    0.3000 C   0  0  0  0  0  0  0  0  0  0  0  0
   -3.4590   -0.0930    0.5470 O   0  0  0  0  0  0  0  0  0  0  0  0
  1  2  1  0
  2  3  1  0
  2  6  2  0
  3  4  2  0
  4  5  1  0
  5  6  1  0
  6  7  1  0
  7  8  2  0
  7  9  1  0
  9 10  1  0
 10 11  2  0
 10 38  1  0
 11 12  1  0
 12 13  1  0
 12 27  2  0
 13 14  2  0
 13 15  1  0
 15 16  1  0
 16 17  2  0
 16 24  1  0
 17 18  1  0
 18 19  2  0
 19 20  1  0
 19 23  1  0
 20 21  1  0
 20 22  2  0
 23 24  2  0
 24 25  1  0
 25 26  1  0
 27 28  1  0
 28 29  1  0
 28 38  2  0
 30 29  1  6
 30 31  1  0
 30 36  1  0
 31 32  1  0
 32 33  1  0
 33 34  1  1
 33 36  1  0
 34 35  1  0
 36 37  1  6
 38 39  1  0
M  CHG  1  26   1
M  END
