
     RDKit          3D

 39 42  0  0  0  0  0  0  0  0999 V2000
   -6.1870    0.6970    1.6120 C   0  0  0  0  0  0  0  0  0  0  0  0
   -5.7280   -0.5400    0.8340 C   0  0  2  0  0  0  0  0  0  0  0  0
   -4.3820   -0.3580    0.5250 O   0  0  0  0  0  0  0  0  0  0  0  0
   -3.9810    0.7510   -0.2370 C   0  0  0  0  0  0  0  0  0  0  0  0
   -4.8550    1.5260   -0.5980 O   0  0  0  0  0  0  0  0  0  0  0  0
   -2.6210    0.9220   -0.5450 N   0  0  0  0  0  0  0  0  0  0  0  0
   -2.1250    2.0040   -1.3020 C   0  0  0  0  0  0  0  0  0  0  0  0
   -2.8480    3.0200   -1.8560 C   0  0  0  0  0  0  0  0  0  0  0  0
   -2.2540    4.0540   -2.5990 C   0  0  0  0  0  0  0  0  0  0  0  0
   -0.8970    4.0980   -2.8080 C   0  0  0  0  0  0  0  0  0  0  0  0
   -0.3150    5.1550   -3.5640 N   0  0  0  0  0  0  0  0  0  0  0  0
   -0.1500    3.0820   -2.2570 C   0  0  0  0  0  0  0  0  0  0  0  0
   -0.7390    2.0740   -1.5330 C   0  0  0  0  0  0  0  0  0  0  0  0
    0.1180    0.9880   -0.9510 C   0  0  0  0  0  0  0  0  0  0  0  0
    1.5240    1.1830   -1.2610 N   0  0  0  0  0  0  0  0  0  0  0  0
    2.2300    0.0340   -0.8080 C   0  0  0  0  0  0  0  0  0  0  0  0
    3.3260    0.4210    0.1800 C   0  0  2  0  0  0  0  0  0  0  0  0
    3.9590   -0.7840    0.5300 O   0  0  0  0  0  0  0  0  0  0  0  0
    5.2790   -1.1230    0.3480 C   0  0  0  0  0  0  0  0  0  0  0  0
    6.2070   -0.2910   -0.2240 C   0  0  0  0  0  0  0  0  0  0  0  0
    7.5390   -0.6980   -0.3810 C   0  0  0  0  0  0  0  0  0  0  0  0
    7.9790   -1.9380    0.0260 C   0  0  0  0  0  0  0  0  0  0  0  0
    9.3640   -2.3660   -0.1340 C   0  0  0  0  0  0  0  0  0  0  0  0
   10.2360   -1.6260   -0.6510 O   0  0  0  0  0  0  0  0  0  0  0  0
    9.7250   -3.6320    0.3000 O   0  0  0  0  0  0  0  0  0  0  0  0
    7.0460   -2.7680    0.5980 C   0  0  0  0  0  0  0  0  0  0  0  0
    5.7340   -2.3810    0.7590 C   0  0  0  0  0  0  0  0  0  0  0  0
    4.7730   -3.2400    1.3500 N   0  0  0  0  0  0  0  0  0  0  0  0
    2.6880    1.0340    1.3930 C   0  0  0  0  0  0  0  0  0  0  0  0
    2.0560    2.2750    1.3570 N   0  0  0  0  0  0  0  0  0  0  0  0
    2.7420    0.3780    2.4780 O   0  0  0  0  0  0  0  0  0  0  0  0
   -6.6300   -0.7800   -0.2830 C   0  0  0  0  0  0  0  0  0  0  0  0
   -6.8070   -0.0460   -1.2780 O   0  0  0  0  0  0  0  0  0  0  0  0
   -7.3100   -2.0130   -0.0790 N   0  0  0  0  0  0  0  0  0  0  0  0
   -6.8690   -2.5910    1.1590 C   0  0  0  0  0  0  0  0  0  0  0  0
   -7.0200   -3.6240    1.9620 C   0  0  0  0  0  0  0  0  0  0  0  0
   -6.1330   -3.4650    3.1370 C   0  0  0  0  0  0  0  0  0  0  0  0
   -5.4540   -2.1840    2.8830 C   0  0  0  0  0  0  0  0  0  0  0  0
   -5.8910   -1.7060    1.7500 C   0  0  0  0  0  0  0  0  0  0  0  0
  2  1  1  1
  2  3  1  0
  2 32  1  0
  2 39  1  0
  3  4  1  0
  4  5  2  0
  4  6  1  0
  6  7  1  0
  7  8  2  0
  7 13  1  0
  8  9  1  0
  9 10  2  0
 10 11  1  0
 10 12  1  0
 12 13  2  0
 13 14  1  0
 14 15  1  0
 15 16  1  0
 17 16  1  6
 17 18  1  0
 17 29  1  0
 18 19  1  0
 19 20  2  0
 19 27  1  0
 20 21  1  0
 21 22  2  0
 22 23  1  0
 22 26  1  0
 23 24  2  0
 23 25  1  0
 26 27  2  0
 27 28  1  0
 29 30  1  0
 29 31  2  0
 32 33  2  0
 32 34  1  0
 34 35  1  0
 35 36  2  0
 35 39  1  0
 36 37  1  0
 37 38  1  0
 38 39  2  0
M  CHG  1  15   1
M  END
