
     RDKit          3D

 23 25  0  0  0  0  0  0  0  0999 V2000
   -6.1390    1.7660   -1.4000 O   0  0  0  0  0  0  0  0  0  0  0  0
   -5.2040    1.1240   -0.8650 C   0  0  0  0  0  0  0  0  0  0  0  0
   -4.3820    0.4000   -1.7620 N   0  0  0  0  0  0  0  0  0  0  0  0
   -3.6030   -0.7810   -1.4730 C   0  0  0  0  0  0  0  0  0  0  0  0
   -2.6270   -0.5950   -0.3590 C   0  0  0  0  0  0  0  0  0  0  0  0
   -1.4060   -1.0740   -0.3720 O   0  0  0  0  0  0  0  0  0  0  0  0
   -0.7320   -0.7920    0.7030 C   0  0  0  0  0  0  0  0  0  0  0  0
    0.4880   -0.9350    1.3570 C   0  0  0  0  0  0  0  0  0  0  0  0
    1.5860   -1.6160    0.8480 O   0  0  0  0  0  0  0  0  0  0  0  0
    2.5120   -0.9240    0.0870 C   0  0  0  0  0  0  0  0  0  0  0  0
    2.3120    0.3000   -0.1080 O   0  0  0  0  0  0  0  0  0  0  0  0
    3.6630   -1.5280   -0.4750 N   0  0  0  0  0  0  0  0  0  0  0  0
    4.6200   -0.8050   -1.2640 C   0  0  0  0  0  0  0  0  0  0  0  0
    5.4170    0.5900   -0.3590 P   0  0  0  0  0  0  0  0  0  0  0  0
    7.0140    0.8210   -1.0510 O   0  0  0  0  0  0  0  0  0  0  0  0
    4.5650    2.0780   -0.5740 O   0  0  0  0  0  0  0  0  0  0  0  0
    0.3400   -0.2890    2.5250 N   0  0  0  0  0  0  0  0  0  0  0  0
   -0.8800    0.2370    2.6330 N   0  0  0  0  0  0  0  0  0  0  0  0
   -1.5730   -0.0580    1.5140 C   0  0  0  0  0  0  0  0  0  0  0  0
   -2.7660    0.0630    0.8390 C   0  0  0  0  0  0  0  0  0  0  0  0
   -3.9390    0.7680    1.3320 C   0  0  0  0  0  0  0  0  0  0  0  0
   -3.9180    1.0120    2.5600 O   0  0  0  0  0  0  0  0  0  0  0  0
   -5.0840    1.1970    0.5570 N   0  0  0  0  0  0  0  0  0  0  0  0
  1  2  2  0
  2  3  1  0
  2 23  1  0
  3  4  1  0
  4  5  1  0
  5  6  1  0
  5 20  2  0
  6  7  1  0
  7  8  2  0
  7 19  1  0
  8  9  1  0
  8 17  1  0
  9 10  1  0
 10 11  2  0
 10 12  1  0
 12 13  1  0
 13 14  1  0
 14 15  1  0
 14 16  1  0
 17 18  1  0
 18 19  2  0
 19 20  1  0
 20 21  1  0
 21 22  2  0
 21 23  1  0
M  END
