
     RDKit          3D

 23 24  0  0  0  0  0  0  0  0999 V2000
    0.5330   -0.7700   -2.0100 C   0  0  0  0  0  0  0  0  0  0  0  0
    0.0310   -0.5220   -0.7090 N   0  0  0  0  0  0  0  0  0  0  0  0
   -0.2390   -1.6990    0.0710 C   0  0  0  0  0  0  0  0  0  0  0  0
   -1.4190   -2.4620   -0.4090 C   0  0  0  0  0  0  0  0  0  0  0  0
   -1.3140   -2.9570   -1.5850 O   0  0  0  0  0  0  0  0  0  0  0  0
   -2.6430   -2.6770    0.3440 C   0  0  0  0  0  0  0  0  0  0  0  0
   -3.1000   -3.8820    0.3170 O   0  0  0  0  0  0  0  0  0  0  0  0
   -3.2090   -1.6400    1.0040 O   0  0  0  0  0  0  0  0  0  0  0  0
   -3.9150   -0.5280    0.6030 C   0  0  0  0  0  0  0  0  0  0  0  0
   -3.1960    0.7480    0.7780 C   0  0  0  0  0  0  0  0  0  0  0  0
   -3.4390    1.8120    1.5420 N   0  0  0  0  0  0  0  0  0  0  0  0
   -2.5020    2.7120    1.3560 N   0  0  0  0  0  0  0  0  0  0  0  0
   -1.6480    2.2120    0.4580 C   0  0  0  0  0  0  0  0  0  0  0  0
   -2.0770    0.9910    0.0960 N   0  0  0  0  0  0  0  0  0  0  0  0
   -0.4410    2.7620   -0.1080 N   0  0  0  0  0  0  0  0  0  0  0  0
    0.5850    1.8580   -0.5230 C   0  0  0  0  0  0  0  0  0  0  0  0
    1.3900    2.2640   -1.3950 O   0  0  0  0  0  0  0  0  0  0  0  0
    0.7320    0.5070    0.0160 C   0  0  2  0  0  0  0  0  0  0  0  0
    2.2030    0.0740    0.0750 C   0  0  0  0  0  0  0  0  0  0  0  0
    2.8720    1.0700    0.7750 O   0  0  0  0  0  0  0  0  0  0  0  0
    4.5440    0.6550    0.8850 P   0  0  0  0  0  0  0  0  0  0  0  0
    4.8050   -1.0480    0.9630 O   0  0  0  0  0  0  0  0  0  0  0  0
    5.3800    1.3990   -0.4310 O   0  0  0  0  0  0  0  0  0  0  0  0
  1  2  1  0
  2  3  1  0
  2 18  1  0
  3  4  1  0
  4  5  2  0
  4  6  1  0
  6  7  2  0
  6  8  1  0
  8  9  1  0
  9 10  1  0
 10 11  2  0
 10 14  1  0
 11 12  1  0
 12 13  1  0
 13 14  2  0
 13 15  1  0
 15 16  1  0
 16 17  2  0
 16 18  1  0
 18 19  1  6
 19 20  1  0
 20 21  1  0
 21 22  1  0
 21 23  1  0
M  END
