
     RDKit          3D

  9  8  0  0  0  0  0  0  0  0999 V2000
    3.1280    0.8150   -1.2060 O   0  0  0  0  0  0  0  0  0  0  0  0
    2.2700    0.4580   -0.3320 C   0  0  0  0  0  0  0  0  0  0  0  0
    2.7480    0.2040    0.9440 O   0  0  0  0  0  0  0  0  0  0  0  0
    0.8830    0.3530   -0.7620 C   0  0  0  0  0  0  0  0  0  0  0  0
    0.1740   -0.0520    0.3910 O   0  0  0  0  0  0  0  0  0  0  0  0
   -1.3390   -0.2420    0.2090 P   0  0  0  0  0  0  0  0  0  0  0  0
   -1.5040    1.2780   -0.3720 O   0  0  0  0  0  0  0  0  0  0  0  0
   -0.9660   -1.4530   -0.8720 O   0  0  0  0  0  0  0  0  0  0  0  0
   -2.8300   -0.5880    0.0700 O   0  0  0  0  0  0  0  0  0  0  0  0
  1  2  2  0
  2  3  1  0
  2  4  1  0
  4  5  1  0
  5  6  1  0
  6  7  1  0
  6  8  1  0
  6  9  1  0
M  END
