
     RDKit          3D

 16 16  0  0  0  0  0  0  0  0999 V2000
    3.8240    1.6740   -0.0780 O   0  0  0  0  0  0  0  0  0  0  0  0
    4.5820    0.8200   -0.7300 O   0  0  0  0  0  0  0  0  0  0  0  0
    4.2310   -0.4430   -0.5040 C   0  0  0  0  0  0  0  0  0  0  0  0
    2.7890   -0.7130   -0.0380 C   0  0  0  0  0  0  0  0  0  0  0  0
    1.9080   -0.1300   -0.8260 O   0  0  0  0  0  0  0  0  0  0  0  0
    0.7430   -0.7810   -1.0770 O   0  0  0  0  0  0  0  0  0  0  0  0
    0.1530   -1.1920   -0.0260 C   0  0  0  0  0  0  0  0  0  0  0  0
   -0.5310   -0.1620    0.8440 C   0  0  0  0  0  0  0  0  0  0  0  0
   -1.7370    0.5030    0.4950 C   0  0  1  0  0  0  0  0  0  0  0  0
   -2.3680    1.3650    2.1810 Br  0  0  0  0  0  0  0  0  0  0  0  0
   -1.6650    1.5770   -0.3830 O   0  0  0  0  0  0  0  0  0  0  0  0
   -1.8360    1.0570   -1.5710 O   0  0  0  0  0  0  0  0  0  0  0  0
   -2.8590    0.1190   -1.4820 C   0  0  0  0  0  0  0  0  0  0  0  0
   -2.8170   -0.3290   -0.0360 C   0  0  2  0  0  0  0  0  0  0  0  0
   -4.0440    0.0040    0.5420 O   0  0  0  0  0  0  0  0  0  0  0  0
   -4.1530    1.3070    0.4480 O   0  0  0  0  0  0  0  0  0  0  0  0
  1  2  1  0
  2  3  1  0
  3  4  1  0
  4  5  1  0
  5  6  1  0
  6  7  1  0
  7  8  1  0
  8  9  1  0
  9 10  1  1
  9 11  1  0
  9 14  1  0
 11 12  1  0
 12 13  1  0
 13 14  1  0
 14 15  1  1
 15 16  1  0
M  END
