
     RDKit          3D

 23 25  0  0  0  0  0  0  0  0999 V2000
    1.8860   -1.2260   -1.9530 O   0  0  0  0  0  0  0  0  0  0  0  0
    1.7970   -1.0850   -0.7040 C   0  0  0  0  0  0  0  0  0  0  0  0
    2.9210   -1.5370    0.1840 C   0  0  0  0  0  0  0  0  0  0  0  0
    3.9040   -0.4660    0.0960 N   0  0  0  0  0  0  0  0  0  0  0  0
    4.0530    0.6260    0.8530 C   0  0  0  0  0  0  0  0  0  0  0  0
    3.3560    0.9440    1.8450 O   0  0  0  0  0  0  0  0  0  0  0  0
    5.1080    1.3140    0.3450 N   0  0  0  0  0  0  0  0  0  0  0  0
    5.5820    0.6380   -0.7170 N   0  0  0  0  0  0  0  0  0  0  0  0
    4.8530   -0.4610   -0.8910 C   0  0  0  0  0  0  0  0  0  0  0  0
    5.0020   -1.3200   -1.7830 O   0  0  0  0  0  0  0  0  0  0  0  0
    0.6390   -0.4880   -0.1040 N   0  0  0  0  0  0  0  0  0  0  0  0
    0.4410   -0.2970    1.2050 C   0  0  0  0  0  0  0  0  0  0  0  0
   -0.7730    0.2550    1.3030 N   0  0  0  0  0  0  0  0  0  0  0  0
   -1.3310    0.4090    0.0840 C   0  0  0  0  0  0  0  0  0  0  0  0
   -2.7400    0.9050   -0.1460 C   0  0  2  0  0  0  0  0  0  0  0  0
   -2.9670    1.9820    0.6700 O   0  0  0  0  0  0  0  0  0  0  0  0
   -3.5700   -0.2930    0.3190 C   0  0  0  0  0  0  0  0  0  0  0  0
   -5.0230   -0.1250    0.2930 C   0  0  0  0  0  0  0  0  0  0  0  0
   -5.4390    1.0620   -0.2900 O   0  0  0  0  0  0  0  0  0  0  0  0
   -4.6020    1.1270   -1.8310 P   0  0  0  0  0  0  0  0  0  0  0  0
   -4.9920   -0.3890   -2.6120 O   0  0  0  0  0  0  0  0  0  0  0  0
   -2.9010    1.1880   -1.4630 O   0  0  0  0  0  0  0  0  0  0  0  0
   -0.4390   -0.0600   -0.7960 N   0  0  0  0  0  0  0  0  0  0  0  0
  1  2  2  0
  2  3  1  0
  2 11  1  0
  3  4  1  0
  4  5  1  0
  4  9  1  0
  5  6  2  0
  5  7  1  0
  7  8  1  0
  8  9  1  0
  9 10  2  0
 11 12  1  0
 11 23  1  0
 12 13  2  0
 13 14  1  0
 14 15  1  0
 14 23  2  0
 15 16  1  1
 15 17  1  0
 15 22  1  0
 17 18  1  0
 18 19  1  0
 19 20  1  0
 20 21  1  0
 20 22  1  0
M  END
