
     RDKit          3D

 23 25  0  0  0  0  0  0  0  0999 V2000
    1.7760   -0.1480   -1.6570 O   0  0  0  0  0  0  0  0  0  0  0  0
    2.0720    0.7240   -0.8120 C   0  0  0  0  0  0  0  0  0  0  0  0
    3.3150    1.3160   -1.0200 O   0  0  0  0  0  0  0  0  0  0  0  0
    4.3890    0.9180   -2.3150 P   0  0  0  0  0  0  0  0  0  0  0  0
    4.0310   -0.5740   -3.0880 O   0  0  0  0  0  0  0  0  0  0  0  0
    6.0400    1.1390   -1.9590 O   0  0  0  0  0  0  0  0  0  0  0  0
    1.2710    1.1510    0.3110 C   0  0  0  0  0  0  0  0  0  0  0  0
    1.6630    2.1170    1.2000 N   0  0  0  0  0  0  0  0  0  0  0  0
    0.7150    2.2980    2.1340 C   0  0  0  0  0  0  0  0  0  0  0  0
    0.8280    3.2140    3.1700 O   0  0  0  0  0  0  0  0  0  0  0  0
   -0.2540    1.4560    1.8300 N   0  0  0  0  0  0  0  0  0  0  0  0
    0.0320    0.7230    0.7170 C   0  0  0  0  0  0  0  0  0  0  0  0
   -0.7860   -0.2930    0.0870 C   0  0  0  0  0  0  0  0  0  0  0  0
   -0.5070   -1.0170   -1.0090 N   0  0  0  0  0  0  0  0  0  0  0  0
   -1.4620   -1.8690   -1.3350 C   0  0  0  0  0  0  0  0  0  0  0  0
   -2.4560   -1.6950   -0.3760 C   0  0  0  0  0  0  0  0  0  0  0  0
   -3.6410   -2.3140   -0.2440 N   0  0  0  0  0  0  0  0  0  0  0  0
   -4.4250   -1.9520    0.7880 C   0  0  0  0  0  0  0  0  0  0  0  0
   -5.5410   -2.5300    0.9170 O   0  0  0  0  0  0  0  0  0  0  0  0
   -4.0450   -1.0140    1.6510 N   0  0  0  0  0  0  0  0  0  0  0  0
   -2.8350   -0.4150    1.4770 C   0  0  0  0  0  0  0  0  0  0  0  0
   -2.5090    0.4570    2.2990 O   0  0  0  0  0  0  0  0  0  0  0  0
   -2.0090   -0.7360    0.4630 N   0  0  0  0  0  0  0  0  0  0  0  0
  1  2  2  0
  2  3  1  0
  2  7  1  0
  3  4  1  0
  4  5  1  0
  4  6  1  0
  7  8  1  0
  7 12  2  0
  8  9  1  0
  9 10  1  0
  9 11  2  0
 11 12  1  0
 12 13  1  0
 13 14  2  0
 13 23  1  0
 14 15  1  0
 15 16  2  0
 16 17  1  0
 16 23  1  0
 17 18  1  0
 18 19  2  0
 18 20  1  0
 20 21  1  0
 21 22  2  0
 21 23  1  0
M  END
