
     RDKit          3D

 23 25  0  0  0  0  0  0  0  0999 V2000
    4.9600    0.8630   -1.0230 N   0  0  0  0  0  0  0  0  0  0  0  0
    3.8970    0.8040   -0.4630 C   0  0  0  0  0  0  0  0  0  0  0  0
    2.7910    1.3330   -1.1260 N   0  0  0  0  0  0  0  0  0  0  0  0
    1.4870    0.8810   -1.1800 C   0  0  0  0  0  0  0  0  0  0  0  0
    1.4160   -0.2430   -0.5580 O   0  0  0  0  0  0  0  0  0  0  0  0
    0.3840    1.4150   -1.7540 O   0  0  0  0  0  0  0  0  0  0  0  0
   -0.8120    0.6460   -1.6260 C   0  0  0  0  0  0  0  0  0  0  0  0
   -1.2010   -0.1940   -2.6310 C   0  0  0  0  0  0  0  0  0  0  0  0
   -2.3460   -0.9410   -2.5140 C   0  0  0  0  0  0  0  0  0  0  0  0
   -3.0770   -0.8110   -1.3580 C   0  0  0  0  0  0  0  0  0  0  0  0
   -2.7010    0.0300   -0.3380 C   0  0  0  0  0  0  0  0  0  0  0  0
   -1.5570    0.7590   -0.4850 C   0  0  0  0  0  0  0  0  0  0  0  0
   -3.6460   -0.0550    0.7100 N   0  0  0  0  0  0  0  0  0  0  0  0
   -3.9940    0.1570    2.0630 C   0  0  0  0  0  0  0  0  0  0  0  0
   -3.3850    0.9070    2.8510 O   0  0  0  0  0  0  0  0  0  0  0  0
   -5.1890   -0.6850    2.2920 C   0  0  0  0  0  0  0  0  0  0  0  0
   -5.3370   -1.3990    1.0900 O   0  0  0  0  0  0  0  0  0  0  0  0
   -4.7890   -0.6310    0.1230 N   0  0  0  0  0  0  0  0  0  0  0  0
   -4.2680   -1.4050   -0.9070 O   0  0  0  0  0  0  0  0  0  0  0  0
    4.0820    0.6220    0.9850 N   0  0  0  0  0  0  0  0  0  0  0  0
    5.0980   -0.6550    1.6410 P   0  0  0  0  0  0  0  0  0  0  0  0
    4.1410   -1.7490    2.5800 O   0  0  0  0  0  0  0  0  0  0  0  0
    6.3900   -0.0720    2.5930 O   0  0  0  0  0  0  0  0  0  0  0  0
  1  2  2  0
  2  3  1  0
  2 20  1  0
  3  4  1  0
  4  5  2  0
  4  6  1  0
  6  7  1  0
  7  8  2  0
  7 12  1  0
  8  9  1  0
  9 10  2  0
 10 11  1  0
 10 19  1  0
 11 12  2  0
 11 13  1  0
 13 14  1  0
 13 18  1  0
 14 15  2  0
 14 16  1  0
 16 17  1  0
 17 18  1  0
 18 19  1  0
 20 21  1  0
 21 22  1  0
 21 23  1  0
M  END
