
     RDKit          3D

 23 25  0  0  0  0  0  0  0  0999 V2000
    3.6650    1.0510   -1.3720 O   0  0  0  0  0  0  0  0  0  0  0  0
    3.8170    0.1840   -0.4780 C   0  0  0  0  0  0  0  0  0  0  0  0
    5.1410    0.0110    0.1560 C   0  0  0  0  0  0  0  0  0  0  0  0
    6.0270    0.9030   -0.3980 O   0  0  0  0  0  0  0  0  0  0  0  0
    7.5720    0.6560    0.3870 P   0  0  0  0  0  0  0  0  0  0  0  0
    8.3830   -0.6190   -0.4690 O   0  0  0  0  0  0  0  0  0  0  0  0
    8.4870    2.1070    0.1940 O   0  0  0  0  0  0  0  0  0  0  0  0
    2.6810   -0.5920   -0.1250 N   0  0  0  0  0  0  0  0  0  0  0  0
    1.4330   -0.3830   -0.7670 C   0  0  0  0  0  0  0  0  0  0  0  0
    1.2030    0.5250   -1.7290 N   0  0  0  0  0  0  0  0  0  0  0  0
   -0.0890    0.3840   -2.0480 N   0  0  0  0  0  0  0  0  0  0  0  0
   -0.6380   -0.5810   -1.3050 C   0  0  0  0  0  0  0  0  0  0  0  0
   -2.0380   -1.0370   -1.3560 C   0  0  0  0  0  0  0  0  0  0  0  0
   -2.7990   -0.2510   -0.4180 N   0  0  0  0  0  0  0  0  0  0  0  0
   -2.4000   -0.3200    0.9490 C   0  0  0  0  0  0  0  0  0  0  0  0
   -3.8660   -0.2320    1.3400 C   0  0  1  0  0  0  0  0  0  0  0  0
   -4.2640    1.0740    1.4940 O   0  0  0  0  0  0  0  0  0  0  0  0
   -5.6140    1.2720    1.2620 C   0  0  0  0  0  0  0  0  0  0  0  0
   -6.0350    0.7830   -0.0240 N   0  0  0  0  0  0  0  0  0  0  0  0
   -5.1570   -0.0310   -0.7710 C   0  0  0  0  0  0  0  0  0  0  0  0
   -5.2490   -0.1450   -2.0070 O   0  0  0  0  0  0  0  0  0  0  0  0
   -4.0920   -0.7730   -0.0560 C   0  0  1  0  0  0  0  0  0  0  0  0
    0.3020   -1.0410   -0.5270 O   0  0  0  0  0  0  0  0  0  0  0  0
  1  2  2  0
  2  3  1  0
  2  8  1  0
  3  4  1  0
  4  5  1  0
  5  6  1  0
  5  7  1  0
  8  9  1  0
  9 10  2  0
  9 23  1  0
 10 11  1  0
 11 12  2  0
 12 13  1  0
 12 23  1  0
 13 14  1  0
 14 15  1  0
 22 14  1  6
 16 15  1  6
 16 17  1  0
 16 22  1  0
 17 18  1  0
 18 19  1  0
 19 20  1  0
 20 21  2  0
 20 22  1  0
M  END
