
     RDKit          3D

  9  8  0  0  0  0  0  0  0  0999 V2000
    3.2140   -0.1780    1.6370 O   0  0  0  0  0  0  0  0  0  0  0  0
    2.4810    0.0760    0.6680 C   0  0  0  0  0  0  0  0  0  0  0  0
    3.0240    0.5130   -0.5100 O   0  0  0  0  0  0  0  0  0  0  0  0
    1.0280   -0.0970    0.7930 C   0  0  0  0  0  0  0  0  0  0  0  0
    0.4150    0.2300   -0.3640 O   0  0  0  0  0  0  0  0  0  0  0  0
   -1.1990    0.1330   -0.5130 P   0  0  0  0  0  0  0  0  0  0  0  0
   -1.3530   -1.1020    0.3760 O   0  0  0  0  0  0  0  0  0  0  0  0
   -2.2130    1.0680    0.3240 O   0  0  0  0  0  0  0  0  0  0  0  0
   -1.8290   -0.8490   -1.7840 O   0  0  0  0  0  0  0  0  0  0  0  0
  1  2  2  0
  2  3  1  0
  2  4  1  0
  4  5  1  0
  5  6  1  0
  6  7  1  0
  6  8  1  0
  6  9  1  0
M  END
