
     RDKit          3D

 23 25  0  0  0  0  0  0  0  0999 V2000
    4.8950    0.0710   -1.5650 N   0  0  0  0  0  0  0  0  0  0  0  0
    3.8430   -0.3190   -1.1030 C   0  0  0  0  0  0  0  0  0  0  0  0
    2.7100    0.1350   -1.7450 N   0  0  0  0  0  0  0  0  0  0  0  0
    1.4710    0.5070   -1.2180 C   0  0  0  0  0  0  0  0  0  0  0  0
    1.5220    0.4570    0.0410 O   0  0  0  0  0  0  0  0  0  0  0  0
    0.3580    0.8780   -1.8700 O   0  0  0  0  0  0  0  0  0  0  0  0
   -0.7570    1.2270   -1.0700 C   0  0  0  0  0  0  0  0  0  0  0  0
   -1.0210    2.5230   -0.7280 C   0  0  0  0  0  0  0  0  0  0  0  0
   -2.1320    2.7430    0.0650 C   0  0  0  0  0  0  0  0  0  0  0  0
   -2.9220    1.6930    0.4800 C   0  0  0  0  0  0  0  0  0  0  0  0
   -2.6390    0.3930    0.1230 C   0  0  0  0  0  0  0  0  0  0  0  0
   -1.5360    0.1600   -0.6660 C   0  0  0  0  0  0  0  0  0  0  0  0
   -3.6380   -0.4220    0.7090 N   0  0  0  0  0  0  0  0  0  0  0  0
   -4.2720   -1.7010    0.7500 C   0  0  0  0  0  0  0  0  0  0  0  0
   -3.7610   -2.7300    0.2730 O   0  0  0  0  0  0  0  0  0  0  0  0
   -5.5600   -1.4530    1.4470 C   0  0  0  0  0  0  0  0  0  0  0  0
   -5.5990   -0.0440    1.5600 O   0  0  0  0  0  0  0  0  0  0  0  0
   -4.3230    0.3440    1.6850 N   0  0  0  0  0  0  0  0  0  0  0  0
   -4.0870    1.6370    1.2780 O   0  0  0  0  0  0  0  0  0  0  0  0
    4.0300   -1.5080   -0.2350 N   0  0  0  0  0  0  0  0  0  0  0  0
    5.1880   -1.5180    1.0700 P   0  0  0  0  0  0  0  0  0  0  0  0
    5.1700   -0.0470    1.9520 O   0  0  0  0  0  0  0  0  0  0  0  0
    6.7580   -1.9430    0.5190 O   0  0  0  0  0  0  0  0  0  0  0  0
  1  2  2  0
  2  3  1  0
  2 20  1  0
  3  4  1  0
  4  5  2  0
  4  6  1  0
  6  7  1  0
  7  8  2  0
  7 12  1  0
  8  9  1  0
  9 10  2  0
 10 11  1  0
 10 19  1  0
 11 12  2  0
 11 13  1  0
 13 14  1  0
 13 18  1  0
 14 15  2  0
 14 16  1  0
 16 17  1  0
 17 18  1  0
 18 19  1  0
 20 21  1  0
 21 22  1  0
 21 23  1  0
M  END
