
     RDKit          3D

 23 25  0  0  0  0  0  0  0  0999 V2000
   -6.9250   -0.6930   -0.8460 O   0  0  0  0  0  0  0  0  0  0  0  0
   -5.7440   -0.3070   -0.6560 C   0  0  0  0  0  0  0  0  0  0  0  0
   -4.7440   -0.7020   -1.6050 N   0  0  0  0  0  0  0  0  0  0  0  0
   -3.3550   -0.4640   -1.7720 C   0  0  0  0  0  0  0  0  0  0  0  0
   -2.5670   -0.1960   -0.5760 C   0  0  0  0  0  0  0  0  0  0  0  0
   -1.2670   -0.4960   -0.5080 O   0  0  0  0  0  0  0  0  0  0  0  0
   -0.8180   -0.1490    0.6720 C   0  0  0  0  0  0  0  0  0  0  0  0
    0.3310   -0.1300    1.4610 C   0  0  0  0  0  0  0  0  0  0  0  0
    1.6070   -0.5830    1.1210 O   0  0  0  0  0  0  0  0  0  0  0  0
    2.5330    0.2650    0.5260 C   0  0  0  0  0  0  0  0  0  0  0  0
    2.1490    1.4430    0.3180 O   0  0  0  0  0  0  0  0  0  0  0  0
    3.8440   -0.1610    0.1650 N   0  0  0  0  0  0  0  0  0  0  0  0
    4.7810    0.7330   -0.4490 C   0  0  0  0  0  0  0  0  0  0  0  0
    6.3700   -0.1870   -0.7660 P   0  0  0  0  0  0  0  0  0  0  0  0
    6.8250   -0.0820   -2.4220 O   0  0  0  0  0  0  0  0  0  0  0  0
    6.2970   -1.8160   -0.2250 O   0  0  0  0  0  0  0  0  0  0  0  0
   -0.0530    0.4210    2.6230 N   0  0  0  0  0  0  0  0  0  0  0  0
   -1.3350    0.7440    2.6260 N   0  0  0  0  0  0  0  0  0  0  0  0
   -1.8310    0.4020    1.4290 C   0  0  0  0  0  0  0  0  0  0  0  0
   -2.9470    0.3660    0.6190 C   0  0  0  0  0  0  0  0  0  0  0  0
   -4.2470    0.8560    1.0390 C   0  0  0  0  0  0  0  0  0  0  0  0
   -4.2260    1.6920    1.9880 O   0  0  0  0  0  0  0  0  0  0  0  0
   -5.5140    0.4880    0.4880 N   0  0  0  0  0  0  0  0  0  0  0  0
  1  2  2  0
  2  3  1  0
  2 23  1  0
  3  4  1  0
  4  5  1  0
  5  6  1  0
  5 20  2  0
  6  7  1  0
  7  8  2  0
  7 19  1  0
  8  9  1  0
  8 17  1  0
  9 10  1  0
 10 11  2  0
 10 12  1  0
 12 13  1  0
 13 14  1  0
 14 15  1  0
 14 16  1  0
 17 18  1  0
 18 19  2  0
 19 20  1  0
 20 21  1  0
 21 22  2  0
 21 23  1  0
M  END
