
     RDKit          3D

 23 25  0  0  0  0  0  0  0  0999 V2000
    1.9360    1.6840    0.2590 O   0  0  0  0  0  0  0  0  0  0  0  0
    2.4170    0.5430    0.3550 C   0  0  0  0  0  0  0  0  0  0  0  0
    3.8210    0.5160    0.5210 O   0  0  0  0  0  0  0  0  0  0  0  0
    4.7550    2.0000    0.5790 P   0  0  0  0  0  0  0  0  0  0  0  0
    5.4160    2.2900   -1.0100 O   0  0  0  0  0  0  0  0  0  0  0  0
    3.7660    3.3590    1.0090 O   0  0  0  0  0  0  0  0  0  0  0  0
    1.6790   -0.7140    0.3120 C   0  0  0  0  0  0  0  0  0  0  0  0
    2.2460   -1.9600    0.4230 N   0  0  0  0  0  0  0  0  0  0  0  0
    1.3220   -2.9020    0.3470 C   0  0  0  0  0  0  0  0  0  0  0  0
    1.5400   -4.2700    0.4200 O   0  0  0  0  0  0  0  0  0  0  0  0
    0.1510   -2.2630    0.1870 N   0  0  0  0  0  0  0  0  0  0  0  0
    0.3300   -0.9350    0.1610 C   0  0  0  0  0  0  0  0  0  0  0  0
   -0.7160    0.0660    0.0030 C   0  0  0  0  0  0  0  0  0  0  0  0
   -0.5660    1.4040   -0.0260 N   0  0  0  0  0  0  0  0  0  0  0  0
   -1.7320    2.0360   -0.1860 C   0  0  0  0  0  0  0  0  0  0  0  0
   -2.6720    1.0310   -0.2610 C   0  0  0  0  0  0  0  0  0  0  0  0
   -3.9940    1.1630   -0.4210 N   0  0  0  0  0  0  0  0  0  0  0  0
   -4.7630    0.0660   -0.4730 C   0  0  0  0  0  0  0  0  0  0  0  0
   -6.0080    0.1950   -0.6250 O   0  0  0  0  0  0  0  0  0  0  0  0
   -4.1690   -1.1330   -0.3620 N   0  0  0  0  0  0  0  0  0  0  0  0
   -2.8190   -1.2550   -0.1980 C   0  0  0  0  0  0  0  0  0  0  0  0
   -2.3060   -2.3840   -0.0980 O   0  0  0  0  0  0  0  0  0  0  0  0
   -2.0330   -0.1560   -0.1440 N   0  0  0  0  0  0  0  0  0  0  0  0
  1  2  2  0
  2  3  1  0
  2  7  1  0
  3  4  1  0
  4  5  1  0
  4  6  1  0
  7  8  1  0
  7 12  2  0
  8  9  1  0
  9 10  1  0
  9 11  2  0
 11 12  1  0
 12 13  1  0
 13 14  2  0
 13 23  1  0
 14 15  1  0
 15 16  2  0
 16 17  1  0
 16 23  1  0
 17 18  1  0
 18 19  2  0
 18 20  1  0
 20 21  1  0
 21 22  2  0
 21 23  1  0
M  END
