
     RDKit          3D

 16 16  0  0  0  0  0  0  0  0999 V2000
   -5.1570   -0.2510   -1.5670 O   0  0  0  0  0  0  0  0  0  0  0  0
   -3.9430   -0.5760   -1.2080 O   0  0  0  0  0  0  0  0  0  0  0  0
   -3.7300   -0.1900    0.1040 C   0  0  0  0  0  0  0  0  0  0  0  0
   -3.3150    1.2730    0.0880 C   0  0  0  0  0  0  0  0  0  0  0  0
   -2.0560    1.3030   -0.5340 O   0  0  0  0  0  0  0  0  0  0  0  0
   -1.3660    0.3340    0.0270 O   0  0  0  0  0  0  0  0  0  0  0  0
   -0.1050    0.1790   -0.5110 C   0  0  0  0  0  0  0  0  0  0  0  0
    0.9150    0.5860    0.5280 C   0  0  0  0  0  0  0  0  0  0  0  0
    2.0540   -0.3860    0.6430 C   0  0  1  0  0  0  0  0  0  0  0  0
    3.0020    0.0250    2.2800 Br  0  0  0  0  0  0  0  0  0  0  0  0
    1.5310   -1.6720    0.6500 O   0  0  0  0  0  0  0  0  0  0  0  0
    2.4080   -2.4480    0.0520 O   0  0  0  0  0  0  0  0  0  0  0  0
    2.8630   -1.7650   -1.0690 C   0  0  0  0  0  0  0  0  0  0  0  0
    3.0040   -0.3520   -0.5160 C   0  0  2  0  0  0  0  0  0  0  0  0
    4.3070   -0.2450   -0.0390 O   0  0  0  0  0  0  0  0  0  0  0  0
    4.8290    0.9360   -0.2310 O   0  0  0  0  0  0  0  0  0  0  0  0
  1  2  1  0
  2  3  1  0
  3  4  1  0
  4  5  1  0
  5  6  1  0
  6  7  1  0
  7  8  1  0
  8  9  1  0
  9 10  1  1
  9 11  1  0
  9 14  1  0
 11 12  1  0
 12 13  1  0
 13 14  1  0
 14 15  1  1
 15 16  1  0
M  END
