
     RDKit          3D

 23 25  0  0  0  0  0  0  0  0999 V2000
    2.6770   -1.8200   -0.4500 O   0  0  0  0  0  0  0  0  0  0  0  0
    2.0040   -0.7060   -0.3400 C   0  0  0  0  0  0  0  0  0  0  0  0
    2.8320    0.5230   -0.3410 C   0  0  0  0  0  0  0  0  0  0  0  0
    4.2160    0.1610   -0.0860 N   0  0  0  0  0  0  0  0  0  0  0  0
    5.2100   -0.1710   -0.9120 C   0  0  0  0  0  0  0  0  0  0  0  0
    5.0310   -0.2150   -2.1660 O   0  0  0  0  0  0  0  0  0  0  0  0
    6.3330   -0.4270   -0.2100 N   0  0  0  0  0  0  0  0  0  0  0  0
    6.0570   -0.2610    1.0640 N   0  0  0  0  0  0  0  0  0  0  0  0
    4.7600    0.1010    1.1520 C   0  0  0  0  0  0  0  0  0  0  0  0
    4.1600    0.3440    2.2260 O   0  0  0  0  0  0  0  0  0  0  0  0
    0.6110   -0.7740   -0.2360 N   0  0  0  0  0  0  0  0  0  0  0  0
   -0.0790   -1.9400   -0.2550 C   0  0  0  0  0  0  0  0  0  0  0  0
   -1.3500   -1.6500   -0.0880 N   0  0  0  0  0  0  0  0  0  0  0  0
   -1.5130   -0.3000    0.0400 C   0  0  0  0  0  0  0  0  0  0  0  0
   -2.8010    0.4230    0.2510 C   0  0  2  0  0  0  0  0  0  0  0  0
   -2.8870    0.8670    1.5940 O   0  0  0  0  0  0  0  0  0  0  0  0
   -3.8920   -0.6050   -0.0260 C   0  0  0  0  0  0  0  0  0  0  0  0
   -5.2300   -0.1120    0.4330 C   0  0  0  0  0  0  0  0  0  0  0  0
   -5.7490    0.6810   -0.5830 O   0  0  0  0  0  0  0  0  0  0  0  0
   -4.5630    1.8250   -1.0780 P   0  0  0  0  0  0  0  0  0  0  0  0
   -5.0690    3.3950   -0.5370 O   0  0  0  0  0  0  0  0  0  0  0  0
   -2.9790    1.5200   -0.5500 O   0  0  0  0  0  0  0  0  0  0  0  0
   -0.2590    0.2010   -0.0610 N   0  0  0  0  0  0  0  0  0  0  0  0
  1  2  2  0
  2  3  1  0
  2 11  1  0
  3  4  1  0
  4  5  1  0
  4  9  1  0
  5  6  2  0
  5  7  1  0
  7  8  1  0
  8  9  1  0
  9 10  2  0
 11 12  1  0
 11 23  1  0
 12 13  2  0
 13 14  1  0
 14 15  1  0
 14 23  2  0
 15 16  1  1
 15 17  1  0
 15 22  1  0
 17 18  1  0
 18 19  1  0
 19 20  1  0
 20 21  1  0
 20 22  1  0
M  END
