
     RDKit          3D

 23 25  0  0  0  0  0  0  0  0999 V2000
    3.0440   -0.8200   -0.6510 O   0  0  0  0  0  0  0  0  0  0  0  0
    3.5250   -0.2920    0.3850 C   0  0  0  0  0  0  0  0  0  0  0  0
    4.9800   -0.4580    0.6680 C   0  0  0  0  0  0  0  0  0  0  0  0
    5.5790   -1.2110   -0.3200 O   0  0  0  0  0  0  0  0  0  0  0  0
    7.2600   -1.3830    0.0380 P   0  0  0  0  0  0  0  0  0  0  0  0
    7.8010   -0.2480    1.2270 O   0  0  0  0  0  0  0  0  0  0  0  0
    8.1810   -1.1830   -1.4040 O   0  0  0  0  0  0  0  0  0  0  0  0
    2.6660    0.4370    1.2370 N   0  0  0  0  0  0  0  0  0  0  0  0
    1.2920    0.5670    0.9260 C   0  0  0  0  0  0  0  0  0  0  0  0
    0.3540    1.2270    1.6350 N   0  0  0  0  0  0  0  0  0  0  0  0
   -0.7710    1.0740    0.9620 N   0  0  0  0  0  0  0  0  0  0  0  0
   -0.5660    0.3420   -0.1430 C   0  0  0  0  0  0  0  0  0  0  0  0
   -1.5720   -0.0470   -1.1530 C   0  0  0  0  0  0  0  0  0  0  0  0
   -2.8860    0.3440   -0.9010 N   0  0  0  0  0  0  0  0  0  0  0  0
   -3.2530    1.7100   -0.7520 C   0  0  0  0  0  0  0  0  0  0  0  0
   -4.5250    1.1810   -0.0940 C   0  0  1  0  0  0  0  0  0  0  0  0
   -5.4340    0.7970   -1.0150 O   0  0  0  0  0  0  0  0  0  0  0  0
   -5.4540   -0.4800   -1.4630 C   0  0  0  0  0  0  0  0  0  0  0  0
   -5.2720   -1.4880   -0.4110 N   0  0  0  0  0  0  0  0  0  0  0  0
   -4.2110   -1.2060    0.4890 C   0  0  0  0  0  0  0  0  0  0  0  0
   -3.8560   -2.0120    1.3780 O   0  0  0  0  0  0  0  0  0  0  0  0
   -3.5380    0.0830    0.3350 C   0  0  1  0  0  0  0  0  0  0  0  0
    0.7070    0.0450   -0.1390 O   0  0  0  0  0  0  0  0  0  0  0  0
  1  2  2  0
  2  3  1  0
  2  8  1  0
  3  4  1  0
  4  5  1  0
  5  6  1  0
  5  7  1  0
  8  9  1  0
  9 10  2  0
  9 23  1  0
 10 11  1  0
 11 12  2  0
 12 13  1  0
 12 23  1  0
 13 14  1  0
 14 15  1  0
 22 14  1  6
 16 15  1  6
 16 17  1  0
 16 22  1  0
 17 18  1  0
 18 19  1  0
 19 20  1  0
 20 21  2  0
 20 22  1  0
M  END
