
     RDKit          3D

 27 29  0  0  0  0  0  0  0  0999 V2000
    8.8250   -0.5420    0.6040 C   0  0  0  0  0  0  0  0  0  0  0  0
    7.4300   -0.3610    0.4180 O   0  0  0  0  0  0  0  0  0  0  0  0
    6.9110    0.4700   -0.5280 C   0  0  0  0  0  0  0  0  0  0  0  0
    7.7400    1.1050   -1.2680 O   0  0  0  0  0  0  0  0  0  0  0  0
    5.5060    0.6650   -0.7290 C   0  0  0  0  0  0  0  0  0  0  0  0
    4.6010    0.0380    0.0040 C   0  0  0  0  0  0  0  0  0  0  0  0
    4.9580   -0.8980    1.0730 C   0  0  0  0  0  0  0  0  0  0  0  0
    3.8930   -1.4620    1.7600 O   0  0  0  0  0  0  0  0  0  0  0  0
    2.5760   -1.2050    1.4850 C   0  0  0  0  0  0  0  0  0  0  0  0
    1.6730   -1.7770    2.1660 O   0  0  0  0  0  0  0  0  0  0  0  0
    2.1970   -0.2850    0.4220 C   0  0  0  0  0  0  0  0  0  0  0  0
    3.1960    0.3180   -0.2970 C   0  0  0  0  0  0  0  0  0  0  0  0
    2.6070    1.1090   -1.2060 N   0  0  0  0  0  0  0  0  0  0  0  0
    1.2430    1.0320   -1.0940 C   0  0  0  0  0  0  0  0  0  0  0  0
    0.3260    1.8180   -1.9930 C   0  0  0  0  0  0  0  0  0  0  0  0
    0.9570    0.1720   -0.0880 C   0  0  0  0  0  0  0  0  0  0  0  0
   -0.2770   -0.3090    0.4920 C   0  0  0  0  0  0  0  0  0  0  0  0
   -1.4860    0.1910   -0.0660 N   0  0  0  0  0  0  0  0  0  0  0  0
   -2.7470   -0.2880    0.5100 C   0  0  0  0  0  0  0  0  0  0  0  0
   -2.6470   -1.1070    1.4560 O   0  0  0  0  0  0  0  0  0  0  0  0
   -3.9900    0.1690    0.0020 N   0  0  0  0  0  0  0  0  0  0  0  0
   -5.1930   -0.3460    0.6190 C   0  0  1  0  0  0  0  0  0  0  0  0
   -6.0740    0.7950    1.0880 C   0  0  0  0  0  0  0  0  0  0  0  0
   -7.1640    0.8250    0.2290 O   0  0  0  0  0  0  0  0  0  0  0  0
   -7.4430   -0.5470    0.0600 C   0  0  1  0  0  0  0  0  0  0  0  0
   -8.4620   -0.7590   -0.9380 N   0  0  0  0  0  0  0  0  0  0  0  0
   -6.0860   -1.0480   -0.3880 C   0  0  0  0  0  0  0  0  0  0  0  0
  1  2  1  0
  2  3  1  0
  3  4  2  0
  3  5  1  0
  5  6  2  3
  6  7  1  0
  6 12  1  0
  7  8  1  0
  8  9  1  0
  9 10  2  0
  9 11  1  0
 11 12  2  0
 11 16  1  0
 12 13  1  0
 13 14  1  0
 14 15  1  0
 14 16  2  0
 16 17  1  0
 17 18  1  0
 18 19  1  0
 19 20  2  0
 19 21  1  0
 22 21  1  6
 22 23  1  0
 22 27  1  0
 23 24  1  0
 24 25  1  0
 25 26  1  6
 25 27  1  0
M  END
