
     RDKit          3D

 27 29  0  0  0  0  0  0  0  0999 V2000
    5.3560    3.3730    0.4430 C   0  0  0  0  0  0  0  0  0  0  0  0
    4.8880    2.0400   -0.0560 C   0  0  0  0  0  0  0  0  0  0  0  0
    5.2880    0.9940    0.5030 O   0  0  0  0  0  0  0  0  0  0  0  0
    4.0070    1.9540   -1.1450 N   0  0  0  0  0  0  0  0  0  0  0  0
    3.5200    0.6990   -1.6720 C   0  0  0  0  0  0  0  0  0  0  0  0
    2.7640   -0.0840   -0.6420 C   0  0  0  0  0  0  0  0  0  0  0  0
    2.6800    0.4620    0.4760 O   0  0  0  0  0  0  0  0  0  0  0  0
    2.2050   -1.2800   -0.8600 O   0  0  0  0  0  0  0  0  0  0  0  0
    1.4910   -2.0330    0.0760 C   0  0  1  0  0  0  0  0  0  0  0  0
    1.1080   -3.3110   -0.7050 C   0  0  0  0  0  0  0  0  0  0  0  0
    2.2740   -2.4760    1.2600 C   0  0  0  0  0  0  0  0  0  0  0  0
    0.1860   -1.3860    0.4790 C   0  0  0  0  0  0  0  0  0  0  0  0
   -0.9200   -1.3560   -0.2380 C   0  0  0  0  0  0  0  0  0  0  0  0
   -1.3390   -1.8340   -1.5300 N   0  0  0  0  0  0  0  0  0  0  0  0
   -2.7580   -1.8460   -1.7970 C   0  0  0  0  0  0  0  0  0  0  0  0
   -3.1990   -2.7710   -2.5190 O   0  0  0  0  0  0  0  0  0  0  0  0
   -3.6710   -0.8210   -1.2520 C   0  0  0  0  0  0  0  0  0  0  0  0
   -2.8130    0.1560   -0.4340 C   0  0  1  0  0  0  0  0  0  0  0  0
   -3.6290    1.2090    0.1700 C   0  0  0  0  0  0  0  0  0  0  0  0
   -4.9470    1.3510    0.0780 C   0  0  0  0  0  0  0  0  0  0  0  0
   -5.2960    2.5530    0.8510 C   0  0  0  0  0  0  0  0  0  0  0  0
   -4.2040    2.7020    1.7300 O   0  0  0  0  0  0  0  0  0  0  0  0
   -3.1550    2.2860    0.9690 N   0  0  0  0  0  0  0  0  0  0  0  0
   -2.0420   -0.6940    0.5220 C   0  0  2  0  0  0  0  0  0  0  0  0
   -1.3730   -0.0400    1.5740 N   0  0  0  0  0  0  0  0  0  0  0  0
   -0.0560   -0.5540    1.6650 C   0  0  0  0  0  0  0  0  0  0  0  0
    0.7690   -0.3270    2.6220 O   0  0  0  0  0  0  0  0  0  0  0  0
  1  2  1  0
  2  3  2  0
  2  4  1  0
  4  5  1  0
  5  6  1  0
  6  7  2  0
  6  8  1  0
  8  9  1  0
  9 10  1  6
  9 11  1  0
  9 12  1  0
 12 13  2  0
 12 26  1  0
 13 14  1  0
 13 24  1  0
 14 15  1  0
 15 16  2  0
 15 17  1  0
 17 18  1  0
 18 19  1  1
 18 24  1  0
 19 20  2  0
 19 23  1  0
 20 21  1  0
 21 22  1  0
 22 23  1  0
 24 25  1  1
 25 26  1  0
 26 27  2  0
M  END
