
     RDKit          3D

 27 29  0  0  0  0  0  0  0  0999 V2000
   -5.9540    0.6300    2.1320 C   0  0  0  0  0  0  0  0  0  0  0  0
   -4.8080    1.3200    1.5560 C   0  0  0  0  0  0  0  0  0  0  0  0
   -3.9590    0.8660    0.6850 C   0  0  0  0  0  0  0  0  0  0  0  0
   -2.9020    1.6940    0.2420 O   0  0  0  0  0  0  0  0  0  0  0  0
   -1.6780    1.1610   -0.2410 C   0  0  1  0  0  0  0  0  0  0  0  0
   -0.8820    0.7090    0.9350 C   0  0  0  0  0  0  0  0  0  0  0  0
    0.3940    0.1420    0.5440 N   0  0  0  0  0  0  0  0  0  0  0  0
    1.3940    0.8620   -0.1660 C   0  0  0  0  0  0  0  0  0  0  0  0
    1.1760    2.0410   -0.4730 O   0  0  0  0  0  0  0  0  0  0  0  0
    2.6530    0.1380   -0.4950 C   0  0  1  0  0  0  0  0  0  0  0  0
    2.2520   -0.9850   -1.4580 C   0  0  0  0  0  0  0  0  0  0  0  0
    3.5800    0.9750   -1.2160 N   0  0  0  0  0  0  0  0  0  0  0  0
    4.5510    1.7130   -0.4950 C   0  0  0  0  0  0  0  0  0  0  0  0
    4.8960    2.8910   -0.8640 O   0  0  0  0  0  0  0  0  0  0  0  0
    5.1540    1.0770    0.7010 C   0  0  2  0  0  0  0  0  0  0  0  0
    6.3850    0.2590    0.3170 C   0  0  0  0  0  0  0  0  0  0  0  0
    6.0270   -0.8240   -0.4810 O   0  0  0  0  0  0  0  0  0  0  0  0
    4.2090    0.2830    1.4320 N   0  0  0  0  0  0  0  0  0  0  0  0
    3.2020   -0.4200    0.7490 C   0  0  0  0  0  0  0  0  0  0  0  0
    2.7810   -1.5310    1.2190 O   0  0  0  0  0  0  0  0  0  0  0  0
   -1.9830    0.0900   -1.2310 C   0  0  0  0  0  0  0  0  0  0  0  0
   -3.0080   -0.8300   -0.8380 N   0  0  0  0  0  0  0  0  0  0  0  0
   -3.2360   -2.1490   -1.2590 C   0  0  0  0  0  0  0  0  0  0  0  0
   -2.5420   -2.8180   -2.0980 O   0  0  0  0  0  0  0  0  0  0  0  0
   -4.4320   -2.6560   -0.5630 C   0  0  0  0  0  0  0  0  0  0  0  0
   -4.8230   -1.4950    0.2820 C   0  0  0  0  0  0  0  0  0  0  0  0
   -4.0030   -0.4690    0.1050 C   0  0  0  0  0  0  0  0  0  0  0  0
  1  2  1  0
  2  3  2  3
  3  4  1  0
  3 27  1  0
  4  5  1  0
  5  6  1  1
  5 21  1  0
  6  7  1  0
  7  8  1  0
  8  9  2  0
  8 10  1  0
 10 11  1  6
 10 12  1  0
 10 19  1  0
 12 13  1  0
 13 14  2  0
 13 15  1  0
 15 16  1  6
 15 18  1  0
 16 17  1  0
 18 19  1  0
 19 20  2  0
 21 22  1  0
 22 23  1  0
 22 27  1  0
 23 24  2  0
 23 25  1  0
 25 26  1  0
 26 27  2  0
M  END
