
     RDKit          3D

 27 28  0  0  0  0  0  0  0  0999 V2000
   -6.0850    2.4230   -0.7330 C   0  0  0  0  0  0  0  0  0  0  0  0
   -5.6800    1.1590   -0.8120 C   0  0  0  0  0  0  0  0  0  0  0  0
   -6.6370    0.1200   -0.5690 C   0  0  0  0  0  0  0  0  0  0  0  0
   -7.8780    0.3510   -0.2640 N   0  0  0  0  0  0  0  0  0  0  0  0
   -4.2680    0.8260   -1.1250 C   0  0  1  0  0  0  0  0  0  0  0  0
   -3.5460    1.9730   -1.4680 O   0  0  0  0  0  0  0  0  0  0  0  0
   -3.6610    0.1850    0.1340 C   0  0  2  0  0  0  0  0  0  0  0  0
   -2.1920    0.0110   -0.0160 C   0  0  0  0  0  0  0  0  0  0  0  0
   -1.6620   -1.2580    0.3230 N   0  0  0  0  0  0  0  0  0  0  0  0
   -0.2920   -1.5930    0.3460 C   0  0  0  0  0  0  0  0  0  0  0  0
    0.0950   -2.7530    0.6700 O   0  0  0  0  0  0  0  0  0  0  0  0
    0.7150   -0.6150   -0.0020 C   0  0  0  0  0  0  0  0  0  0  0  0
    0.3540    0.5410   -0.3320 O   0  0  0  0  0  0  0  0  0  0  0  0
    2.0840   -0.9600    0.0310 N   0  0  0  0  0  0  0  0  0  0  0  0
    3.0810    0.0430   -0.3250 C   0  0  1  0  0  0  0  0  0  0  0  0
    3.9160    0.3860    0.8190 C   0  0  0  0  0  0  0  0  0  0  0  0
    5.2270    0.3250    0.7850 C   0  0  0  0  0  0  0  0  0  0  0  0
    5.9390    0.6940    1.9900 N   0  0  0  0  0  0  0  0  0  0  0  0
    5.9770   -0.0900   -0.3930 C   0  0  0  0  0  0  0  0  0  0  0  0
    7.3550   -0.1490   -0.4110 O   0  0  0  0  0  0  0  0  0  0  0  0
    8.2130    0.9550   -0.4050 C   0  0  0  0  0  0  0  0  0  0  0  0
    5.3040   -0.4210   -1.4790 C   0  0  0  0  0  0  0  0  0  0  0  0
    3.8620   -0.3710   -1.4930 C   0  0  0  0  0  0  0  0  0  0  0  0
    3.2510   -0.7050   -2.5820 O   0  0  0  0  0  0  0  0  0  0  0  0
   -2.5810   -2.3480    0.6830 C   0  0  0  0  0  0  0  0  0  0  0  0
   -3.7410   -1.7000    1.4040 C   0  0  0  0  0  0  0  0  0  0  0  0
   -4.3920   -0.9420    0.4150 O   0  0  0  0  0  0  0  0  0  0  0  0
  1  2  2  0
  2  3  1  0
  2  5  1  0
  3  4  2  0
  5  6  1  1
  5  7  1  0
  7  8  1  6
  7 27  1  0
  8  9  1  0
  9 10  1  0
  9 25  1  0
 10 11  2  0
 10 12  1  0
 12 13  2  0
 12 14  1  0
 15 14  1  1
 15 16  1  0
 15 23  1  0
 16 17  2  0
 17 18  1  0
 17 19  1  0
 19 20  1  0
 19 22  2  0
 20 21  1  0
 22 23  1  0
 23 24  2  0
 25 26  1  0
 26 27  1  0
M  END
