
     RDKit          3D

 27 29  0  0  0  0  0  0  0  0999 V2000
   -5.0530   -3.5470   -0.5850 C   0  0  0  0  0  0  0  0  0  0  0  0
   -4.1790   -2.5060   -1.1240 N   0  0  0  0  0  0  0  0  0  0  0  0
   -3.9910   -1.3020   -0.4040 C   0  0  0  0  0  0  0  0  0  0  0  0
   -4.5770   -1.1570    0.6760 O   0  0  0  0  0  0  0  0  0  0  0  0
   -3.0820   -0.2720   -1.0080 C   0  0  2  0  0  0  0  0  0  0  0  0
   -2.6050   -0.7650   -2.2080 O   0  0  0  0  0  0  0  0  0  0  0  0
   -1.2110   -0.7810   -2.1520 C   0  0  0  0  0  0  0  0  0  0  0  0
   -0.5010   -1.1890   -3.1210 O   0  0  0  0  0  0  0  0  0  0  0  0
   -0.8130   -0.2740   -0.8580 C   0  0  0  0  0  0  0  0  0  0  0  0
    0.4960   -0.0720   -0.2630 C   0  0  0  0  0  0  0  0  0  0  0  0
    1.6850   -0.2790   -0.6990 C   0  0  0  0  0  0  0  0  0  0  0  0
    2.2320   -0.7740   -1.8990 N   0  0  0  0  0  0  0  0  0  0  0  0
    3.6610   -0.7790   -1.8130 C   0  0  0  0  0  0  0  0  0  0  0  0
    4.4560   -1.1570   -2.7030 O   0  0  0  0  0  0  0  0  0  0  0  0
    4.0350   -0.2760   -0.5310 C   0  0  0  0  0  0  0  0  0  0  0  0
    5.1450    0.0120    0.2630 C   0  0  0  0  0  0  0  0  0  0  0  0
    6.5720   -0.1740   -0.1030 C   0  0  0  0  0  0  0  0  0  0  0  0
    4.6550    0.4830    1.4070 N   0  0  0  0  0  0  0  0  0  0  0  0
    3.3000    0.5020    1.3600 C   0  0  0  0  0  0  0  0  0  0  0  0
    2.4130    0.9670    2.4620 C   0  0  0  0  0  0  0  0  0  0  0  0
    2.8830    0.0240    0.1390 C   0  0  0  0  0  0  0  0  0  0  0  0
   -1.9420    0.0310   -0.1720 C   0  0  0  0  0  0  0  0  0  0  0  0
   -2.0080    0.5410    1.0970 O   0  0  0  0  0  0  0  0  0  0  0  0
   -2.8030    1.6410    1.4750 C   0  0  0  0  0  0  0  0  0  0  0  0
   -2.4290    2.8730    0.7170 C   0  0  0  0  0  0  0  0  0  0  0  0
   -3.0870    4.1060    0.9230 N   0  0  0  0  0  0  0  0  0  0  0  0
   -1.4980    2.7730   -0.1220 O   0  0  0  0  0  0  0  0  0  0  0  0
  1  2  1  0
  2  3  1  0
  3  4  2  0
  5  3  1  1
  5  6  1  0
  5 22  1  0
  6  7  1  0
  7  8  2  0
  7  9  1  0
  9 10  1  0
  9 22  2  0
 10 11  2  3
 11 12  1  0
 11 21  1  0
 12 13  1  0
 13 14  2  0
 13 15  1  0
 15 16  2  0
 15 21  1  0
 16 17  1  0
 16 18  1  0
 18 19  1  0
 19 20  1  0
 19 21  2  0
 22 23  1  0
 23 24  1  0
 24 25  1  0
 25 26  1  0
 25 27  2  0
M  END
