
     RDKit          3D

 27 28  0  0  0  0  0  0  0  0999 V2000
   -4.2130   -1.6790    1.9100 C   0  0  0  0  0  0  0  0  0  0  0  0
   -3.1340   -0.7380    1.8260 O   0  0  0  0  0  0  0  0  0  0  0  0
   -2.5360   -0.6590    0.5480 C   0  0  0  0  0  0  0  0  0  0  0  0
   -1.5400   -1.5170    0.3710 C   0  0  0  0  0  0  0  0  0  0  0  0
   -0.7400   -1.6520   -0.8720 C   0  0  0  0  0  0  0  0  0  0  0  0
    0.5930   -2.1720   -0.5400 C   0  0  1  0  0  0  0  0  0  0  0  0
    0.6800   -3.5780   -1.0080 N   0  0  0  0  0  0  0  0  0  0  0  0
    1.7030   -1.5370   -1.1150 O   0  0  0  0  0  0  0  0  0  0  0  0
    2.4260   -0.4850   -0.5450 C   0  0  0  0  0  0  0  0  0  0  0  0
    3.7440   -0.5010   -0.4380 C   0  0  0  0  0  0  0  0  0  0  0  0
    4.5180   -1.6290   -0.9170 C   0  0  0  0  0  0  0  0  0  0  0  0
    4.0060   -2.6440   -1.4530 O   0  0  0  0  0  0  0  0  0  0  0  0
    4.4750    0.6210    0.1840 C   0  0  0  0  0  0  0  0  0  0  0  0
    3.8480    1.9550    0.0300 C   0  0  0  0  0  0  0  0  0  0  0  0
    2.3700    1.9770   -0.0570 C   0  0  0  0  0  0  0  0  0  0  0  0
    1.6670    0.6720   -0.0540 C   0  0  2  0  0  0  0  0  0  0  0  0
    0.9920    0.4060    1.2270 N   0  0  0  0  0  0  0  0  0  0  0  0
   -0.1310    1.1570    1.6640 C   0  0  0  0  0  0  0  0  0  0  0  0
   -0.5820    0.8430    2.8240 O   0  0  0  0  0  0  0  0  0  0  0  0
   -0.8080    2.2260    0.9480 C   0  0  0  0  0  0  0  0  0  0  0  0
   -0.7970    3.3800    1.6010 O   0  0  0  0  0  0  0  0  0  0  0  0
   -1.4480    2.1750   -0.3130 N   0  0  0  0  0  0  0  0  0  0  0  0
   -2.6200    1.4990   -0.7410 C   0  0  0  0  0  0  0  0  0  0  0  0
   -3.4190    2.2000   -1.8000 C   0  0  0  0  0  0  0  0  0  0  0  0
   -4.6010    1.6030   -2.2810 N   0  0  0  0  0  0  0  0  0  0  0  0
   -3.0080    3.3090   -2.2330 O   0  0  0  0  0  0  0  0  0  0  0  0
   -3.0730    0.3140   -0.3750 C   0  0  0  0  0  0  0  0  0  0  0  0
  1  2  1  0
  2  3  1  0
  3  4  2  0
  3 27  1  0
  4  5  1  0
  5  6  1  0
  6  7  1  6
  6  8  1  0
  8  9  1  0
  9 10  2  0
  9 16  1  0
 10 11  1  0
 10 13  1  0
 11 12  2  0
 13 14  1  0
 14 15  1  0
 16 15  1  1
 16 17  1  0
 17 18  1  0
 18 19  2  0
 18 20  1  0
 20 21  2  0
 20 22  1  0
 22 23  1  0
 23 24  1  0
 23 27  2  0
 24 25  1  0
 24 26  2  0
M  END
