
     RDKit          3D

 27 28  0  0  0  0  0  0  0  0999 V2000
    2.1330   -3.5250   -3.3210 C   0  0  0  0  0  0  0  0  0  0  0  0
    3.1380   -2.5760   -2.6790 C   0  0  0  0  0  0  0  0  0  0  0  0
    2.5750   -1.9280   -1.4770 C   0  0  0  0  0  0  0  0  0  0  0  0
    2.4620   -0.6370   -1.4000 C   0  0  0  0  0  0  0  0  0  0  0  0
    1.9240    0.1310   -0.2730 C   0  0  0  0  0  0  0  0  0  0  0  0
    1.8590    1.4730   -0.3050 C   0  0  0  0  0  0  0  0  0  0  0  0
    2.3600    2.0550   -1.5360 N   0  0  0  0  0  0  0  0  0  0  0  0
    1.4280    2.3490    0.6950 N   0  0  0  0  0  0  0  0  0  0  0  0
    0.2560    2.4440    1.4780 C   0  0  0  0  0  0  0  0  0  0  0  0
    0.2400    2.6620    2.7910 C   0  0  0  0  0  0  0  0  0  0  0  0
   -1.1470    2.7000    3.2530 C   0  0  0  0  0  0  0  0  0  0  0  0
   -1.9250    2.4810    2.0310 C   0  0  0  0  0  0  0  0  0  0  0  0
   -1.1170    2.3300    0.9910 C   0  0  0  0  0  0  0  0  0  0  0  0
   -1.5350    2.1040   -0.3940 C   0  0  0  0  0  0  0  0  0  0  0  0
   -2.5740    2.7760   -0.8280 O   0  0  0  0  0  0  0  0  0  0  0  0
   -0.9590    1.2450   -1.3500 N   0  0  0  0  0  0  0  0  0  0  0  0
   -0.8260   -0.1330   -1.3960 N   0  0  0  0  0  0  0  0  0  0  0  0
   -1.3520   -1.0020   -0.4330 C   0  0  0  0  0  0  0  0  0  0  0  0
   -2.3410   -1.7700   -0.8070 O   0  0  0  0  0  0  0  0  0  0  0  0
   -0.9600   -1.1960    0.9530 C   0  0  2  0  0  0  0  0  0  0  0  0
   -2.1210   -1.0070    1.9050 C   0  0  0  0  0  0  0  0  0  0  0  0
   -2.0170   -0.5190    3.0360 O   0  0  0  0  0  0  0  0  0  0  0  0
   -3.3800   -1.4050    1.4830 O   0  0  0  0  0  0  0  0  0  0  0  0
   -4.5310   -1.2700    2.3040 C   0  0  0  0  0  0  0  0  0  0  0  0
    0.2090   -0.6840    1.4300 O   0  0  0  0  0  0  0  0  0  0  0  0
    1.4660   -0.6450    0.8980 C   0  0  0  0  0  0  0  0  0  0  0  0
    2.3860   -1.3670    1.4760 O   0  0  0  0  0  0  0  0  0  0  0  0
  1  2  1  0
  2  3  1  0
  3  4  2  3
  4  5  1  0
  5  6  2  0
  5 26  1  0
  6  7  1  0
  6  8  1  0
  8  9  1  0
  9 10  2  0
  9 13  1  0
 10 11  1  0
 11 12  1  0
 12 13  2  0
 13 14  1  0
 14 15  2  0
 14 16  1  0
 16 17  1  0
 17 18  1  0
 18 19  2  0
 18 20  1  0
 20 21  1  1
 20 25  1  0
 21 22  2  0
 21 23  1  0
 23 24  1  0
 25 26  1  0
 26 27  2  0
M  END
