
     RDKit          3D

 27 29  0  0  0  0  0  0  0  0999 V2000
    3.8210    0.4680    2.3420 C   0  0  0  0  0  0  0  0  0  0  0  0
    2.9000    0.3880    1.1260 C   0  0  0  0  0  0  0  0  0  0  0  0
    3.7170    0.0430   -0.0950 C   0  0  0  0  0  0  0  0  0  0  0  0
    2.8950   -0.0630   -1.3370 C   0  0  2  0  0  0  0  0  0  0  0  0
    3.7400   -0.4100   -2.5520 C   0  0  0  0  0  0  0  0  0  0  0  0
    2.1650    1.1640   -1.5330 N   0  0  0  0  0  0  0  0  0  0  0  0
    0.9230    0.9520   -0.8050 C   0  0  0  0  0  0  0  0  0  0  0  0
    0.2830    2.0170   -0.4430 O   0  0  0  0  0  0  0  0  0  0  0  0
    0.6590   -0.3940   -0.6220 N   0  0  0  0  0  0  0  0  0  0  0  0
   -0.4240   -1.1370   -0.1490 C   0  0  0  0  0  0  0  0  0  0  0  0
   -1.6780   -0.7520   -0.1920 C   0  0  0  0  0  0  0  0  0  0  0  0
   -1.8440    0.5410   -0.8090 N   0  0  0  0  0  0  0  0  0  0  0  0
   -2.7220    1.5870   -0.4340 C   0  0  0  0  0  0  0  0  0  0  0  0
   -2.7410    2.7440   -1.3390 C   0  0  0  0  0  0  0  0  0  0  0  0
   -2.0420    2.8120   -2.3620 O   0  0  0  0  0  0  0  0  0  0  0  0
   -3.5770    3.8110   -1.0390 O   0  0  0  0  0  0  0  0  0  0  0  0
   -3.5150    1.6320    0.6260 C   0  0  0  0  0  0  0  0  0  0  0  0
   -3.6120    0.5440    1.6310 C   0  0  0  0  0  0  0  0  0  0  0  0
   -3.8860   -0.7930    1.0440 C   0  0  0  0  0  0  0  0  0  0  0  0
   -2.8600   -1.5130    0.3000 C   0  0  2  0  0  0  0  0  0  0  0  0
   -2.4680   -2.7270    1.0370 C   0  0  0  0  0  0  0  0  0  0  0  0
   -3.3640   -3.3790    1.6290 O   0  0  0  0  0  0  0  0  0  0  0  0
   -1.1440   -3.1720    1.0980 N   0  0  0  0  0  0  0  0  0  0  0  0
   -0.1200   -2.4380    0.5400 C   0  0  0  0  0  0  0  0  0  0  0  0
    1.0550   -2.7960    0.5810 O   0  0  0  0  0  0  0  0  0  0  0  0
    1.8100   -1.0770   -1.2630 C   0  0  0  0  0  0  0  0  0  0  0  0
    1.9030   -2.2290   -1.6690 O   0  0  0  0  0  0  0  0  0  0  0  0
  1  2  1  0
  2  3  1  0
  3  4  1  0
  4  5  1  6
  4  6  1  0
  4 26  1  0
  6  7  1  0
  7  8  2  0
  7  9  1  0
  9 10  1  0
  9 26  1  0
 10 11  2  0
 10 24  1  0
 11 12  1  0
 11 20  1  0
 12 13  1  0
 13 14  1  0
 13 17  2  0
 14 15  2  0
 14 16  1  0
 17 18  1  0
 18 19  1  0
 20 19  1  1
 20 21  1  0
 21 22  2  0
 21 23  1  0
 23 24  1  0
 24 25  2  0
 26 27  2  0
M  END
