
     RDKit          3D

 10 11  0  0  0  0  0  0  0  0999 V2000
    2.4660   -1.5160    0.6540 O   0  0  0  0  0  0  0  0  0  0  0  0
    1.7420   -0.3560    0.3210 C   0  0  0  0  0  0  0  0  0  0  0  0
    2.2150    0.8780    0.0980 N   0  0  0  0  0  0  0  0  0  0  0  0
    1.2070    1.6840   -0.1850 N   0  0  0  0  0  0  0  0  0  0  0  0
    0.0610    0.9810   -0.1500 C   0  0  0  0  0  0  0  0  0  0  0  0
   -1.2410    1.2740   -0.3510 N   0  0  0  0  0  0  0  0  0  0  0  0
   -2.2030    0.3410   -0.2460 C   0  0  0  0  0  0  0  0  0  0  0  0
   -1.8800   -0.9580    0.0750 C   0  0  0  0  0  0  0  0  0  0  0  0
   -0.5930   -1.2780    0.2800 N   0  0  0  0  0  0  0  0  0  0  0  0
    0.3760   -0.3210    0.1710 C   0  0  0  0  0  0  0  0  0  0  0  0
  1  2  1  0
  2  3  2  0
  2 10  1  0
  3  4  1  0
  4  5  1  0
  5  6  2  0
  5 10  1  0
  6  7  1  0
  7  8  2  0
  8  9  1  0
  9 10  2  0
M  END
