
     RDKit          3D

 10 11  0  0  0  0  0  0  0  0999 V2000
    3.3260    0.2950   -0.2470 O   0  0  0  0  0  0  0  0  0  0  0  0
    2.0680    0.2020   -0.1570 C   0  0  0  0  0  0  0  0  0  0  0  0
    1.1620    1.1770   -0.2610 N   0  0  0  0  0  0  0  0  0  0  0  0
   -0.0430    0.5960   -0.0940 C   0  0  0  0  0  0  0  0  0  0  0  0
   -1.3320    1.0960   -0.0980 C   0  0  0  0  0  0  0  0  0  0  0  0
   -2.3710    0.2500    0.1010 N   0  0  0  0  0  0  0  0  0  0  0  0
   -2.1960   -1.0560    0.3030 C   0  0  0  0  0  0  0  0  0  0  0  0
   -0.9560   -1.5670    0.3120 N   0  0  0  0  0  0  0  0  0  0  0  0
    0.1280   -0.7550    0.1150 C   0  0  0  0  0  0  0  0  0  0  0  0
    1.4580   -0.9760    0.0710 N   0  0  0  0  0  0  0  0  0  0  0  0
  1  2  2  0
  2  3  1  0
  2 10  1  0
  3  4  1  0
  4  5  2  0
  4  9  1  0
  5  6  1  0
  6  7  2  0
  7  8  1  0
  8  9  2  0
  9 10  1  0
M  END
