
     RDKit          3D

 10 11  0  0  0  0  0  0  0  0999 V2000
   -1.9800   -1.0630   -0.1960 C   0  0  0  0  0  0  0  0  0  0  0  0
   -0.9260   -0.0060   -0.0140 C   0  0  0  0  0  0  0  0  0  0  0  0
   -1.1460    1.3340    0.2110 C   0  0  0  0  0  0  0  0  0  0  0  0
    0.0560    1.9210    0.3140 N   0  0  0  0  0  0  0  0  0  0  0  0
    1.0340    1.0150    0.1650 C   0  0  0  0  0  0  0  0  0  0  0  0
    2.3740    0.8380    0.1400 N   0  0  0  0  0  0  0  0  0  0  0  0
    2.5980   -0.4600   -0.0780 N   0  0  0  0  0  0  0  0  0  0  0  0
    1.3980   -1.0600   -0.1840 C   0  0  0  0  0  0  0  0  0  0  0  0
    1.2020   -2.2820   -0.3900 O   0  0  0  0  0  0  0  0  0  0  0  0
    0.4060   -0.1610   -0.0360 N   0  0  0  0  0  0  0  0  0  0  0  0
  1  2  1  0
  2  3  2  0
  2 10  1  0
  3  4  1  0
  4  5  1  0
  5  6  2  0
  5 10  1  0
  6  7  1  0
  7  8  1  0
  8  9  2  0
  8 10  1  0
M  END
