
     RDKit          3D

 24 26  0  0  0  0  0  0  0  0999 V2000
   -4.9110   -2.2500   -0.9470 C   0  0  0  0  0  0  0  0  0  0  0  0
   -4.3880   -0.8690   -1.0830 C   0  0  0  0  0  0  0  0  0  0  0  0
   -4.9580   -0.1190   -1.9380 O   0  0  0  0  0  0  0  0  0  0  0  0
   -3.3060   -0.4170   -0.2930 N   0  0  0  0  0  0  0  0  0  0  0  0
   -2.5950   -1.1860    0.6950 C   0  0  0  0  0  0  0  0  0  0  0  0
   -2.5040   -0.1630    1.8360 C   0  0  2  0  0  0  0  0  0  0  0  0
   -3.6910   -0.2860    2.5660 O   0  0  0  0  0  0  0  0  0  0  0  0
   -2.4050    1.1690    1.1290 C   0  0  0  0  0  0  0  0  0  0  0  0
   -2.7060    0.8880   -0.3200 C   0  0  1  0  0  0  0  0  0  0  0  0
   -1.5000    0.8730   -1.1670 C   0  0  0  0  0  0  0  0  0  0  0  0
   -1.1600   -0.1750   -1.7340 O   0  0  0  0  0  0  0  0  0  0  0  0
   -0.6820    2.0240   -1.3760 N   0  0  0  0  0  0  0  0  0  0  0  0
    0.4870    1.9650   -2.2120 C   0  0  0  0  0  0  0  0  0  0  0  0
    1.6260    1.2830   -1.5310 C   0  0  0  0  0  0  0  0  0  0  0  0
    2.8510    1.1470   -2.1470 C   0  0  0  0  0  0  0  0  0  0  0  0
    3.9100    0.5140   -1.5160 C   0  0  0  0  0  0  0  0  0  0  0  0
    3.7810   -0.0040   -0.2510 C   0  0  0  0  0  0  0  0  0  0  0  0
    4.9190   -0.6740    0.4010 C   0  0  0  0  0  0  0  0  0  0  0  0
    4.9290   -1.2330    1.6550 C   0  0  0  0  0  0  0  0  0  0  0  0
    6.1720   -1.7350    1.8490 N   0  0  0  0  0  0  0  0  0  0  0  0
    6.9030   -1.4920    0.7470 C   0  0  0  0  0  0  0  0  0  0  0  0
    6.1230   -0.8630   -0.0810 O   0  0  0  0  0  0  0  0  0  0  0  0
    2.5650    0.1220    0.3810 C   0  0  0  0  0  0  0  0  0  0  0  0
    1.5050    0.7600   -0.2610 C   0  0  0  0  0  0  0  0  0  0  0  0
  1  2  1  0
  2  3  2  0
  2  4  1  0
  4  5  1  0
  4  9  1  0
  5  6  1  0
  6  7  1  1
  6  8  1  0
  8  9  1  0
  9 10  1  6
 10 11  2  0
 10 12  1  0
 12 13  1  0
 13 14  1  0
 14 15  2  0
 14 24  1  0
 15 16  1  0
 16 17  2  0
 17 18  1  0
 17 23  1  0
 18 19  2  0
 18 22  1  0
 19 20  1  0
 20 21  2  0
 21 22  1  0
 23 24  2  0
M  END
