
     RDKit          3D

 10 11  0  0  0  0  0  0  0  0999 V2000
   -1.7570    1.0200    0.0220 C   0  0  0  0  0  0  0  0  0  0  0  0
   -1.5910   -0.4290    0.4250 C   0  0  0  0  0  0  0  0  0  0  0  0
   -1.0890   -1.2190   -0.5610 O   0  0  0  0  0  0  0  0  0  0  0  0
    0.2390   -1.4920   -0.5270 C   0  0  0  0  0  0  0  0  0  0  0  0
    1.1250   -0.3990   -0.1710 C   0  0  0  0  0  0  0  0  0  0  0  0
    2.4400   -0.5260    0.0610 N   0  0  0  0  0  0  0  0  0  0  0  0
    2.9260    0.6620    0.3570 N   0  0  0  0  0  0  0  0  0  0  0  0
    1.9960    1.5940    0.3350 N   0  0  0  0  0  0  0  0  0  0  0  0
    0.8480    0.9340    0.0020 C   0  0  0  0  0  0  0  0  0  0  0  0
   -0.4240    1.5650   -0.1360 N   0  0  0  0  0  0  0  0  0  0  0  0
  1  2  1  0
  1 10  1  0
  2  3  1  0
  3  4  1  0
  4  5  1  0
  5  6  1  0
  5  9  2  0
  6  7  1  0
  7  8  2  0
  8  9  1  0
  9 10  1  0
M  END
