
     RDKit          3D

 10 11  0  0  0  0  0  0  0  0999 V2000
   -1.5810   -2.3360   -0.0250 O   0  0  0  0  0  0  0  0  0  0  0  0
   -1.2870   -1.1190   -0.0320 C   0  0  0  0  0  0  0  0  0  0  0  0
   -2.2550   -0.1750   -0.0820 N   0  0  0  0  0  0  0  0  0  0  0  0
   -1.9100    1.1010   -0.0880 N   0  0  0  0  0  0  0  0  0  0  0  0
   -0.6200    1.4730   -0.0450 C   0  0  0  0  0  0  0  0  0  0  0  0
    0.4150    0.5480    0.0080 C   0  0  0  0  0  0  0  0  0  0  0  0
    1.7640    0.6580    0.0570 N   0  0  0  0  0  0  0  0  0  0  0  0
    2.2340   -0.5980    0.0930 C   0  0  0  0  0  0  0  0  0  0  0  0
    1.2050   -1.4600    0.0670 N   0  0  0  0  0  0  0  0  0  0  0  0
    0.0480   -0.7810    0.0130 C   0  0  0  0  0  0  0  0  0  0  0  0
  1  2  2  0
  2  3  1  0
  2 10  1  0
  3  4  1  0
  4  5  2  0
  5  6  1  0
  6  7  1  0
  6 10  2  0
  7  8  1  0
  8  9  2  0
  9 10  1  0
M  END
