
     RDKit          3D

 10 11  0  0  0  0  0  0  0  0999 V2000
   -2.8750    0.0910    0.2270 C   0  0  0  0  0  0  0  0  0  0  0  0
   -1.4290    0.0680    0.1370 N   0  0  0  0  0  0  0  0  0  0  0  0
   -0.6040   -0.9830    0.2750 C   0  0  0  0  0  0  0  0  0  0  0  0
    0.7020   -0.5660    0.1150 C   0  0  0  0  0  0  0  0  0  0  0  0
    2.0040   -0.9160    0.0940 N   0  0  0  0  0  0  0  0  0  0  0  0
    2.7150    0.2030   -0.1560 C   0  0  0  0  0  0  0  0  0  0  0  0
    3.9660    0.3240   -0.2590 O   0  0  0  0  0  0  0  0  0  0  0  0
    1.8550    1.2490   -0.2910 N   0  0  0  0  0  0  0  0  0  0  0  0
    0.5990    0.7900   -0.1260 C   0  0  0  0  0  0  0  0  0  0  0  0
   -0.6990    1.1320   -0.1040 N   0  0  0  0  0  0  0  0  0  0  0  0
  1  2  1  0
  2  3  1  0
  2 10  1  0
  3  4  2  0
  4  5  1  0
  4  9  1  0
  5  6  1  0
  6  7  2  0
  6  8  1  0
  8  9  1  0
  9 10  2  0
M  END
