
     RDKit          3D

 24 26  0  0  0  0  0  0  0  0999 V2000
    2.3480   -2.8660    1.1550 C   0  0  0  0  0  0  0  0  0  0  0  0
    1.9870   -1.5660    0.7260 O   0  0  0  0  0  0  0  0  0  0  0  0
    2.7300   -0.4410    0.9950 C   0  0  0  0  0  0  0  0  0  0  0  0
    3.7820   -0.5700    1.6550 O   0  0  0  0  0  0  0  0  0  0  0  0
    2.3120    0.8730    0.5280 C   0  0  1  0  0  0  0  0  0  0  0  0
    3.4110    1.5550   -0.3000 C   0  0  0  0  0  0  0  0  0  0  0  0
    3.6120    0.8460   -1.6060 C   0  0  0  0  0  0  0  0  0  0  0  0
    2.2890    0.6090   -2.3030 C   0  0  0  0  0  0  0  0  0  0  0  0
    1.1830    1.3560   -1.5600 C   0  0  0  0  0  0  0  0  0  0  0  0
    1.1010    0.9620   -0.1900 N   0  0  0  0  0  0  0  0  0  0  0  0
    0.0530    0.0910    0.1760 C   0  0  0  0  0  0  0  0  0  0  0  0
   -1.2850    0.7080    0.0940 C   0  0  0  0  0  0  0  0  0  0  0  0
   -1.3910    2.0430   -0.2270 C   0  0  0  0  0  0  0  0  0  0  0  0
   -2.6180    2.7020   -0.3160 C   0  0  0  0  0  0  0  0  0  0  0  0
   -2.6190    4.0780   -0.6540 N   0  0  0  0  0  0  0  0  0  0  0  0
   -3.7400    1.9490   -0.0660 C   0  0  0  0  0  0  0  0  0  0  0  0
   -3.6780    0.6140    0.2590 C   0  0  0  0  0  0  0  0  0  0  0  0
   -2.4480   -0.0260    0.3430 C   0  0  0  0  0  0  0  0  0  0  0  0
   -2.3820   -1.4340    0.7070 C   0  0  0  0  0  0  0  0  0  0  0  0
   -2.9810   -2.3620   -0.1550 C   0  0  0  0  0  0  0  0  0  0  0  0
   -2.9730   -3.6970    0.1570 C   0  0  0  0  0  0  0  0  0  0  0  0
   -2.3820   -4.0870    1.2980 N   0  0  0  0  0  0  0  0  0  0  0  0
   -1.8020   -3.2330    2.1440 C   0  0  0  0  0  0  0  0  0  0  0  0
   -1.7890   -1.8770    1.8650 C   0  0  0  0  0  0  0  0  0  0  0  0
  1  2  1  0
  2  3  1  0
  3  4  2  0
  5  3  1  6
  5  6  1  0
  5 10  1  0
  6  7  1  0
  7  8  1  0
  8  9  1  0
  9 10  1  0
 10 11  1  0
 11 12  1  0
 12 13  2  0
 12 18  1  0
 13 14  1  0
 14 15  1  0
 14 16  2  0
 16 17  1  0
 17 18  2  0
 18 19  1  0
 19 20  2  0
 19 24  1  0
 20 21  1  0
 21 22  2  0
 22 23  1  0
 23 24  2  0
M  END
