
     RDKit          3D

 24 26  0  0  0  0  0  0  0  0999 V2000
    5.8710   -2.6440   -1.2400 C   0  0  0  0  0  0  0  0  0  0  0  0
    6.6170   -1.3600   -1.4980 C   0  0  0  0  0  0  0  0  0  0  0  0
    6.4860   -0.4610   -0.4430 O   0  0  0  0  0  0  0  0  0  0  0  0
    5.3020    0.0600   -0.0340 C   0  0  0  0  0  0  0  0  0  0  0  0
    5.2460    0.9460    1.0420 C   0  0  0  0  0  0  0  0  0  0  0  0
    4.0850    1.4940    1.4860 C   0  0  0  0  0  0  0  0  0  0  0  0
    2.8660    1.1870    0.8690 C   0  0  0  0  0  0  0  0  0  0  0  0
    1.6610    1.7310    1.3190 N   0  0  0  0  0  0  0  0  0  0  0  0
    0.3840    1.6780    0.7260 C   0  0  0  0  0  0  0  0  0  0  0  0
    0.2470    1.0840   -0.3550 O   0  0  0  0  0  0  0  0  0  0  0  0
   -0.7610    2.2930    1.3400 N   0  0  0  0  0  0  0  0  0  0  0  0
   -2.0440    2.2060    0.7100 C   0  0  0  0  0  0  0  0  0  0  0  0
   -2.5770    0.8330    0.5940 C   0  0  0  0  0  0  0  0  0  0  0  0
   -1.9530   -0.2200    1.0860 C   0  0  0  0  0  0  0  0  0  0  0  0
   -2.5560   -1.5440    0.9480 C   0  0  0  0  0  0  0  0  0  0  0  0
   -3.7270   -1.7550    0.3710 C   0  0  0  0  0  0  0  0  0  0  0  0
   -4.5020   -0.6450   -0.1500 C   0  0  2  0  0  0  0  0  0  0  0  0
   -5.6700   -0.4020    0.8370 C   0  0  0  0  0  0  0  0  0  0  0  0
   -5.0800   -0.8190   -1.5460 C   0  0  0  0  0  0  0  0  0  0  0  0
   -5.4210    0.6760   -1.8210 C   0  0  0  0  0  0  0  0  0  0  0  0
   -4.2640    1.3260   -1.2250 N   0  0  0  0  0  0  0  0  0  0  0  0
   -3.7380    0.5930   -0.2710 C   0  0  0  0  0  0  0  0  0  0  0  0
    2.9130    0.3200   -0.1840 C   0  0  0  0  0  0  0  0  0  0  0  0
    4.1190   -0.2410   -0.6370 C   0  0  0  0  0  0  0  0  0  0  0  0
  1  2  1  0
  2  3  1  0
  3  4  1  0
  4  5  2  0
  4 24  1  0
  5  6  1  0
  6  7  2  0
  7  8  1  0
  7 23  1  0
  8  9  1  0
  9 10  2  0
  9 11  1  0
 11 12  1  0
 12 13  1  0
 13 14  2  0
 13 22  1  0
 14 15  1  0
 15 16  2  0
 16 17  1  0
 17 18  1  1
 17 19  1  0
 17 22  1  0
 19 20  1  0
 20 21  1  0
 21 22  2  0
 23 24  2  0
M  END
