
     RDKit          3D

 24 26  0  0  0  0  0  0  0  0999 V2000
   -3.7700    4.0210    1.5360 C   0  0  0  0  0  0  0  0  0  0  0  0
   -3.3790    3.0150    0.5540 C   0  0  0  0  0  0  0  0  0  0  0  0
   -3.6960    3.3430   -0.8410 C   0  0  0  0  0  0  0  0  0  0  0  0
   -3.3630    2.4150   -1.7740 C   0  0  0  0  0  0  0  0  0  0  0  0
   -2.7460    1.1940   -1.4550 C   0  0  0  0  0  0  0  0  0  0  0  0
   -2.4420    0.8840   -0.1640 C   0  0  0  0  0  0  0  0  0  0  0  0
   -2.7870    1.8340    0.7570 C   0  0  0  0  0  0  0  0  0  0  0  0
   -1.7650   -0.3610    0.1520 N   0  0  0  0  0  0  0  0  0  0  0  0
   -1.3030   -0.5220    1.5230 C   0  0  0  0  0  0  0  0  0  0  0  0
    0.1620   -0.4170    1.6740 C   0  0  1  0  0  0  0  0  0  0  0  0
    0.6530   -0.2350    2.9750 O   0  0  0  0  0  0  0  0  0  0  0  0
    0.8040   -1.8190    1.3250 C   0  0  0  0  0  0  0  0  0  0  0  0
    2.0470   -1.8090    1.0220 O   0  0  0  0  0  0  0  0  0  0  0  0
    3.3110   -1.8210    0.7140 C   0  0  0  0  0  0  0  0  0  0  0  0
    4.1790   -2.8840    0.5540 C   0  0  0  0  0  0  0  0  0  0  0  0
    5.4990   -2.6990    0.1800 C   0  0  0  0  0  0  0  0  0  0  0  0
    6.0190   -1.4160   -0.0560 C   0  0  0  0  0  0  0  0  0  0  0  0
    7.3280   -1.2100   -0.5010 C   0  0  0  0  0  0  0  0  0  0  0  0
    8.4640   -1.0510   -0.8780 N   0  0  0  0  0  0  0  0  0  0  0  0
    5.1450   -0.3610    0.1180 C   0  0  0  0  0  0  0  0  0  0  0  0
    3.8730   -0.5360    0.4820 C   0  0  0  0  0  0  0  0  0  0  0  0
   -1.5370   -1.3340   -0.8710 C   0  0  0  0  0  0  0  0  0  0  0  0
   -2.5280   -1.1590   -2.0540 C   0  0  0  0  0  0  0  0  0  0  0  0
   -2.4690    0.2520   -2.4820 N   0  0  0  0  0  0  0  0  0  0  0  0
  1  2  1  0
  2  3  2  0
  2  7  1  0
  3  4  1  0
  4  5  2  0
  5  6  1  0
  5 24  1  0
  6  7  2  0
  6  8  1  0
  8  9  1  0
  8 22  1  0
  9 10  1  0
 10 11  1  1
 10 12  1  0
 12 13  1  0
 13 14  1  0
 14 15  2  0
 14 21  1  0
 15 16  1  0
 16 17  2  0
 17 18  1  0
 17 20  1  0
 18 19  3  0
 20 21  2  0
 22 23  1  0
 23 24  1  0
M  END
