
     RDKit          3D

 24 26  0  0  0  0  0  0  0  0999 V2000
    2.3940   -3.2560   -1.7350 C   0  0  0  0  0  0  0  0  0  0  0  0
    3.4700   -2.2630   -1.3080 C   0  0  0  0  0  0  0  0  0  0  0  0
    3.3230   -1.6760   -0.1570 O   0  0  0  0  0  0  0  0  0  0  0  0
    3.0250   -1.0300    0.9140 C   0  0  0  0  0  0  0  0  0  0  0  0
    1.8410   -0.2650    0.9610 C   0  0  0  0  0  0  0  0  0  0  0  0
    1.4590    0.4500    2.0650 C   0  0  0  0  0  0  0  0  0  0  0  0
    0.2230    1.2570    2.0670 C   0  0  0  0  0  0  0  0  0  0  0  0
   -0.1760    1.9470    3.1760 C   0  0  0  0  0  0  0  0  0  0  0  0
   -1.3410    2.7060    3.1510 C   0  0  0  0  0  0  0  0  0  0  0  0
   -2.0320    2.7190    2.0060 N   0  0  0  0  0  0  0  0  0  0  0  0
   -1.6490    2.0440    0.9130 C   0  0  0  0  0  0  0  0  0  0  0  0
   -2.5050    2.1650   -0.2980 C   0  0  1  0  0  0  0  0  0  0  0  0
   -1.7540    2.7300   -1.4670 C   0  0  0  0  0  0  0  0  0  0  0  0
   -2.4780    2.3390   -2.7240 C   0  0  0  0  0  0  0  0  0  0  0  0
   -2.6800    1.0160   -2.8870 O   0  0  0  0  0  0  0  0  0  0  0  0
   -2.7740    0.1970   -1.8130 C   0  0  2  0  0  0  0  0  0  0  0  0
   -1.5740   -0.7150   -1.6360 C   0  0  0  0  0  0  0  0  0  0  0  0
   -3.9400   -0.7730   -2.1480 C   0  0  0  0  0  0  0  0  0  0  0  0
   -3.1810    0.8640   -0.5490 C   0  0  0  0  0  0  0  0  0  0  0  0
   -0.5330    1.3200    0.9410 N   0  0  0  0  0  0  0  0  0  0  0  0
    2.2790    0.4030    3.1570 C   0  0  0  0  0  0  0  0  0  0  0  0
    3.4640   -0.3490    3.1450 C   0  0  0  0  0  0  0  0  0  0  0  0
    3.8520   -1.0630    2.0510 C   0  0  0  0  0  0  0  0  0  0  0  0
    5.0370   -1.8370    1.9900 N   0  0  0  0  0  0  0  0  0  0  0  0
  1  2  1  0
  2  3  1  0
  3  4  1  0
  4  5  2  0
  4 23  1  0
  5  6  1  0
  6  7  1  0
  6 21  2  0
  7  8  2  0
  7 20  1  0
  8  9  1  0
  9 10  2  0
 10 11  1  0
 12 11  1  1
 11 20  2  0
 12 13  1  0
 12 19  1  0
 13 14  1  0
 14 15  1  0
 15 16  1  0
 16 17  1  1
 16 18  1  0
 16 19  1  0
 21 22  1  0
 22 23  2  0
 23 24  1  0
M  END
