
     RDKit          3D

 23 25  0  0  0  0  0  0  0  0999 V2000
    4.5890   -2.8660    1.2820 C   0  0  0  0  0  0  0  0  0  0  0  0
    4.5060   -1.6990    0.4190 N   0  0  0  0  0  0  0  0  0  0  0  0
    3.7350   -0.7440    0.7860 C   0  0  0  0  0  0  0  0  0  0  0  0
    3.5700    0.4440    0.0300 N   0  0  0  0  0  0  0  0  0  0  0  0
    4.6210    1.3710   -0.1910 C   0  0  0  0  0  0  0  0  0  0  0  0
    4.4290    2.4840   -0.9080 C   0  0  0  0  0  0  0  0  0  0  0  0
    3.1300    2.7770   -1.4850 C   0  0  0  0  0  0  0  0  0  0  0  0
    2.1270    1.9380   -1.3020 C   0  0  0  0  0  0  0  0  0  0  0  0
    2.2920    0.7210   -0.5320 C   0  0  0  0  0  0  0  0  0  0  0  0
    1.3230   -0.1370   -0.3020 C   0  0  0  0  0  0  0  0  0  0  0  0
   -0.0390    0.0150   -0.8180 C   0  0  0  0  0  0  0  0  0  0  0  0
   -0.4770    0.3210   -2.0820 C   0  0  0  0  0  0  0  0  0  0  0  0
   -1.8570    0.3500   -2.0530 C   0  0  0  0  0  0  0  0  0  0  0  0
   -2.2200    0.0570   -0.7630 C   0  0  0  0  0  0  0  0  0  0  0  0
   -3.6130   -0.0160   -0.3020 C   0  0  0  0  0  0  0  0  0  0  0  0
   -4.6660    0.2270   -1.1680 C   0  0  0  0  0  0  0  0  0  0  0  0
   -5.9620    0.1480   -0.7070 C   0  0  0  0  0  0  0  0  0  0  0  0
   -6.1430   -0.1670    0.5870 N   0  0  0  0  0  0  0  0  0  0  0  0
   -5.1380   -0.4060    1.4400 C   0  0  0  0  0  0  0  0  0  0  0  0
   -3.8070   -0.3390    1.0210 C   0  0  0  0  0  0  0  0  0  0  0  0
   -2.6990   -0.6080    1.9780 C   0  0  0  0  0  0  0  0  0  0  0  0
   -3.2000   -0.9160    3.2480 O   0  0  0  0  0  0  0  0  0  0  0  0
   -1.1340   -0.1310   -0.0790 O   0  0  0  0  0  0  0  0  0  0  0  0
  1  2  1  0
  2  3  2  3
  3  4  1  0
  4  5  1  0
  4  9  1  0
  5  6  2  0
  6  7  1  0
  7  8  2  0
  8  9  1  0
  9 10  2  3
 10 11  1  0
 11 12  2  0
 11 23  1  0
 12 13  1  0
 13 14  2  0
 14 15  1  0
 14 23  1  0
 15 16  2  0
 15 20  1  0
 16 17  1  0
 17 18  2  0
 18 19  1  0
 19 20  2  0
 20 21  1  0
 21 22  1  0
M  END
