
     RDKit          3D

 24 26  0  0  0  0  0  0  0  0999 V2000
   -4.4940   -2.5300    0.9750 C   0  0  0  0  0  0  0  0  0  0  0  0
   -4.5430   -2.1860   -0.4780 C   0  0  0  0  0  0  0  0  0  0  0  0
   -4.0350   -0.7990   -0.7250 C   0  0  0  0  0  0  0  0  0  0  0  0
   -4.9070    0.2350   -0.9860 C   0  0  0  0  0  0  0  0  0  0  0  0
   -4.5050    1.5270   -1.2200 C   0  0  0  0  0  0  0  0  0  0  0  0
   -3.1380    1.7850   -1.1870 C   0  0  0  0  0  0  0  0  0  0  0  0
   -2.6530    3.1350   -1.4260 C   0  0  0  0  0  0  0  0  0  0  0  0
   -3.4680    4.0570   -1.6580 O   0  0  0  0  0  0  0  0  0  0  0  0
   -2.2460    0.7530   -0.9260 C   0  0  0  0  0  0  0  0  0  0  0  0
   -2.6880   -0.5300   -0.6960 C   0  0  0  0  0  0  0  0  0  0  0  0
   -1.7490   -1.5440   -0.4330 N   0  0  0  0  0  0  0  0  0  0  0  0
   -0.3410   -1.3300   -0.3910 C   0  0  0  0  0  0  0  0  0  0  0  0
    0.3020   -0.4520    0.3690 C   0  0  0  0  0  0  0  0  0  0  0  0
    1.7420   -0.5360    0.1250 C   0  0  0  0  0  0  0  0  0  0  0  0
    2.6970    0.1850    0.6960 C   0  0  0  0  0  0  0  0  0  0  0  0
    2.3850    1.2020    1.6940 C   0  0  0  0  0  0  0  0  0  0  0  0
    3.3020    1.5200    2.5610 C   0  0  0  0  0  0  0  0  0  0  0  0
    4.6200    0.8620    2.5260 C   0  0  0  0  0  0  0  0  0  0  0  0
    5.0730    0.4760    1.2400 N   0  0  0  0  0  0  0  0  0  0  0  0
    5.9840    1.4160    0.6250 C   0  0  0  0  0  0  0  0  0  0  0  0
    4.1040   -0.0180    0.3390 C   0  0  0  0  0  0  0  0  0  0  0  0
    1.9720   -1.5380   -0.8530 N   0  0  0  0  0  0  0  0  0  0  0  0
    0.6840   -2.0390   -1.1820 C   0  0  0  0  0  0  0  0  0  0  0  0
    0.4280   -2.9440   -2.0120 O   0  0  0  0  0  0  0  0  0  0  0  0
  1  2  1  0
  2  3  1  0
  3  4  2  0
  3 10  1  0
  4  5  1  0
  5  6  2  0
  6  7  1  0
  6  9  1  0
  7  8  2  0
  9 10  2  0
 10 11  1  0
 11 12  1  0
 12 13  2  0
 12 23  1  0
 13 14  1  0
 14 15  2  3
 14 22  1  0
 15 16  1  0
 15 21  1  0
 16 17  2  0
 17 18  1  0
 18 19  1  0
 19 20  1  0
 19 21  1  0
 22 23  1  0
 23 24  2  0
M  END
