
     RDKit          3D

 24 26  0  0  0  0  0  0  0  0999 V2000
   -5.4530    2.0020    1.1600 C   0  0  0  0  0  0  0  0  0  0  0  0
   -4.8810    0.6060    1.0220 C   0  0  0  0  0  0  0  0  0  0  0  0
   -3.8530    0.6360   -0.0570 C   0  0  2  0  0  0  0  0  0  0  0  0
   -4.5180    1.0690   -1.3410 C   0  0  0  0  0  0  0  0  0  0  0  0
   -3.2210   -0.6960   -0.2850 C   0  0  0  0  0  0  0  0  0  0  0  0
   -3.5310   -1.7240    0.3690 O   0  0  0  0  0  0  0  0  0  0  0  0
   -2.2140   -0.8400   -1.2850 N   0  0  0  0  0  0  0  0  0  0  0  0
   -1.5510   -2.0670   -1.5800 C   0  0  0  0  0  0  0  0  0  0  0  0
   -0.7860   -2.6720   -0.4410 C   0  0  0  0  0  0  0  0  0  0  0  0
    0.2850   -1.7190    0.0200 C   0  0  0  0  0  0  0  0  0  0  0  0
    0.0480   -0.7880    1.0100 C   0  0  0  0  0  0  0  0  0  0  0  0
    1.0330    0.0950    1.4370 C   0  0  0  0  0  0  0  0  0  0  0  0
    0.8340    0.9510    2.3380 O   0  0  0  0  0  0  0  0  0  0  0  0
    2.2960    0.0400    0.8520 C   0  0  0  0  0  0  0  0  0  0  0  0
    3.2990    0.9010    1.2500 C   0  0  0  0  0  0  0  0  0  0  0  0
    4.5330    0.8080    0.6410 C   0  0  0  0  0  0  0  0  0  0  0  0
    5.5540    1.6510    1.0160 C   0  0  0  0  0  0  0  0  0  0  0  0
    6.7660    1.5350    0.3940 C   0  0  0  0  0  0  0  0  0  0  0  0
    6.9860    0.6070   -0.5840 C   0  0  0  0  0  0  0  0  0  0  0  0
    5.9580   -0.2330   -0.9520 C   0  0  0  0  0  0  0  0  0  0  0  0
    4.7030   -0.1450   -0.3400 C   0  0  0  0  0  0  0  0  0  0  0  0
    3.7090   -0.9680   -0.7060 N   0  0  0  0  0  0  0  0  0  0  0  0
    2.4890   -0.9050   -0.1310 C   0  0  0  0  0  0  0  0  0  0  0  0
    1.5110   -1.7540   -0.5300 N   0  0  0  0  0  0  0  0  0  0  0  0
  1  2  1  0
  2  3  1  0
  3  4  1  6
  3  5  1  0
  5  6  2  0
  5  7  1  0
  7  8  1  0
  8  9  1  0
  9 10  1  0
 10 11  2  0
 10 24  1  0
 11 12  1  0
 12 13  2  0
 12 14  1  0
 14 15  2  0
 14 23  1  0
 15 16  1  0
 16 17  2  0
 16 21  1  0
 17 18  1  0
 18 19  2  0
 19 20  1  0
 20 21  2  0
 21 22  1  0
 22 23  2  0
 23 24  1  0
M  END
