
     RDKit          3D

 24 26  0  0  0  0  0  0  0  0999 V2000
    6.3620    1.9750   -1.9280 C   0  0  0  0  0  0  0  0  0  0  0  0
    5.1780    2.2740   -1.2250 N   0  0  0  0  0  0  0  0  0  0  0  0
    3.9240    2.0090   -1.8370 C   0  0  0  0  0  0  0  0  0  0  0  0
    3.2740    0.9730   -0.9530 C   0  0  0  0  0  0  0  0  0  0  0  0
    4.0340    0.3920    0.0580 C   0  0  0  0  0  0  0  0  0  0  0  0
    3.4280   -0.5260    0.8670 C   0  0  0  0  0  0  0  0  0  0  0  0
    4.1590   -1.0950    1.9200 C   0  0  0  0  0  0  0  0  0  0  0  0
    3.5300   -1.9790    2.7460 C   0  0  0  0  0  0  0  0  0  0  0  0
    2.1860   -2.3180    2.5440 C   0  0  0  0  0  0  0  0  0  0  0  0
    1.4710   -1.7700    1.5130 C   0  0  0  0  0  0  0  0  0  0  0  0
    2.0890   -0.8790    0.6850 C   0  0  0  0  0  0  0  0  0  0  0  0
    1.3760   -0.2690   -0.3490 C   0  0  0  0  0  0  0  0  0  0  0  0
   -0.0660   -0.6090   -0.3420 C   0  0  0  0  0  0  0  0  0  0  0  0
   -0.5810   -1.4460   -1.0920 O   0  0  0  0  0  0  0  0  0  0  0  0
   -0.8850    0.0690    0.5720 N   0  0  0  0  0  0  0  0  0  0  0  0
   -2.1830    0.1000    0.9960 C   0  0  0  0  0  0  0  0  0  0  0  0
   -3.3580    0.1790    0.0440 C   0  0  1  0  0  0  0  0  0  0  0  0
   -3.2540    0.9620   -1.1840 C   0  0  0  0  0  0  0  0  0  0  0  0
   -3.6600   -1.3150   -0.3800 C   0  0  0  0  0  0  0  0  0  0  0  0
   -5.1140   -1.6390   -0.3000 C   0  0  0  0  0  0  0  0  0  0  0  0
   -5.9950   -0.4530   -0.6280 C   0  0  0  0  0  0  0  0  0  0  0  0
   -5.6310    0.7360    0.2590 C   0  0  0  0  0  0  0  0  0  0  0  0
   -4.4580    0.5280    0.9090 O   0  0  0  0  0  0  0  0  0  0  0  0
    1.9640    0.6160   -1.1170 N   0  0  0  0  0  0  0  0  0  0  0  0
  1  2  1  0
  2  3  1  0
  3  4  1  0
  4  5  2  0
  4 24  1  0
  5  6  1  0
  6  7  2  0
  6 11  1  0
  7  8  1  0
  8  9  2  0
  9 10  1  0
 10 11  2  0
 11 12  1  0
 12 13  1  0
 12 24  2  0
 13 14  2  0
 13 15  1  0
 15 16  1  0
 16 17  1  0
 17 18  1  6
 17 19  1  0
 17 23  1  0
 19 20  1  0
 20 21  1  0
 21 22  1  0
 22 23  1  0
M  END
