
     RDKit          3D

 21 24  0  0  0  0  0  0  0  0999 V2000
    0.2490   -2.8590   -0.5620 C   0  0  0  0  0  0  0  0  0  0  0  0
    0.6560   -1.7460    0.3300 C   0  0  0  0  0  0  0  0  0  0  0  0
    0.5390   -0.3820   -0.0860 C   0  0  0  0  0  0  0  0  0  0  0  0
    1.6170    0.4270   -0.3790 C   0  0  0  0  0  0  0  0  0  0  0  0
    2.9530   -0.1110   -0.7540 C   0  0  0  0  0  0  0  0  0  0  0  0
    4.0000    0.3640    0.0010 N   0  0  0  0  0  0  0  0  0  0  0  0
    3.7650    1.4320    0.9430 C   0  0  0  0  0  0  0  0  0  0  0  0
    5.2070    1.9340    0.7450 C   0  0  0  0  0  0  0  0  0  0  0  0
    5.1140    1.0290   -0.5170 C   0  0  0  0  0  0  0  0  0  0  0  0
    1.1670    1.6860   -0.5490 N   0  0  0  0  0  0  0  0  0  0  0  0
   -0.1540    1.6410   -0.3620 C   0  0  0  0  0  0  0  0  0  0  0  0
   -0.5650    0.3730   -0.0590 N   0  0  0  0  0  0  0  0  0  0  0  0
   -1.9090   -0.0010    0.1310 C   0  0  0  0  0  0  0  0  0  0  0  0
   -2.4020   -0.9090    1.0390 C   0  0  0  0  0  0  0  0  0  0  0  0
   -3.7310   -1.2100    1.1380 C   0  0  0  0  0  0  0  0  0  0  0  0
   -4.6920   -0.6050    0.3390 C   0  0  0  0  0  0  0  0  0  0  0  0
   -4.1840    0.3320   -0.5640 C   0  0  0  0  0  0  0  0  0  0  0  0
   -2.8410    0.6130   -0.6830 C   0  0  0  0  0  0  0  0  0  0  0  0
   -5.7090    1.0820   -1.2530 S   0  0  0  0  0  0  0  0  0  0  0  0
   -6.7610    0.4550    0.0950 C   0  0  0  0  0  0  0  0  0  0  0  0
   -6.0290   -0.7710    0.3060 O   0  0  0  0  0  0  0  0  0  0  0  0
  1  2  1  0
  2  3  1  0
  3  4  2  0
  3 12  1  0
  4  5  1  0
  4 10  1  0
  5  6  1  0
  6  7  1  0
  6  9  1  0
  7  8  1  0
  8  9  1  0
 10 11  2  0
 11 12  1  0
 12 13  1  0
 13 14  2  0
 13 18  1  0
 14 15  1  0
 15 16  2  0
 16 17  1  0
 16 21  1  0
 17 18  2  0
 17 19  1  0
 19 20  1  0
 20 21  1  0
M  END
