
     RDKit          3D

 20 23  0  0  0  0  0  0  0  0999 V2000
   -4.3960   -3.1100   -0.7920 C   0  0  0  0  0  0  0  0  0  0  0  0
   -3.3680   -2.1330   -0.4620 C   0  0  0  0  0  0  0  0  0  0  0  0
   -3.4360   -0.7780   -0.2850 C   0  0  0  0  0  0  0  0  0  0  0  0
   -2.3490   -0.0810    0.0050 C   0  0  0  0  0  0  0  0  0  0  0  0
   -2.3140    1.3850    0.3730 C   0  0  1  0  0  0  0  0  0  0  0  0
   -2.1510    2.4810   -0.6050 C   0  0  0  0  0  0  0  0  0  0  0  0
   -3.5440    2.1040   -0.3380 C   0  0  0  0  0  0  0  0  0  0  0  0
   -1.1580   -0.7980    0.1120 C   0  0  0  0  0  0  0  0  0  0  0  0
    0.1940   -0.1920    0.3280 C   0  0  0  0  0  0  0  0  0  0  0  0
    1.3640   -0.7640    0.1370 N   0  0  0  0  0  0  0  0  0  0  0  0
    2.2930    0.1530    0.4220 C   0  0  0  0  0  0  0  0  0  0  0  0
    3.7320    0.0880    0.2860 C   0  0  0  0  0  0  0  0  0  0  0  0
    4.5780   -0.3230    1.2490 C   0  0  0  0  0  0  0  0  0  0  0  0
    5.9540   -0.3510    1.0930 C   0  0  0  0  0  0  0  0  0  0  0  0
    6.4260    0.0650   -0.1050 N   0  0  0  0  0  0  0  0  0  0  0  0
    5.6140    0.4870   -1.1060 C   0  0  0  0  0  0  0  0  0  0  0  0
    4.2490    0.5150   -0.9530 C   0  0  0  0  0  0  0  0  0  0  0  0
    1.6330    1.2590    0.7870 N   0  0  0  0  0  0  0  0  0  0  0  0
    0.3810    1.0540    0.7320 O   0  0  0  0  0  0  0  0  0  0  0  0
   -1.6050   -2.4440   -0.1920 S   0  0  0  0  0  0  0  0  0  0  0  0
  1  2  1  0
  2  3  2  0
  2 20  1  0
  3  4  1  0
  5  4  1  6
  4  8  2  0
  5  6  1  0
  5  7  1  0
  6  7  1  0
  8  9  1  0
  8 20  1  0
  9 10  2  0
  9 19  1  0
 10 11  1  0
 11 12  1  0
 11 18  2  0
 12 13  2  0
 12 17  1  0
 13 14  1  0
 14 15  2  0
 15 16  1  0
 16 17  2  0
 18 19  1  0
M  END
