
     RDKit          3D

 21 23  0  0  0  0  0  0  0  0999 V2000
   -5.7260    0.8560   -2.9690 C   0  0  0  0  0  0  0  0  0  0  0  0
   -4.9400    0.1600   -2.1250 C   0  0  0  0  0  0  0  0  0  0  0  0
   -3.6130    0.5090   -1.7190 C   0  0  0  0  0  0  0  0  0  0  0  0
   -2.8290   -0.4530   -1.3110 C   0  0  0  0  0  0  0  0  0  0  0  0
   -1.4650   -0.3550   -0.8580 N   0  0  0  0  0  0  0  0  0  0  0  0
   -1.2490    0.2960    0.2280 C   0  0  0  0  0  0  0  0  0  0  0  0
   -2.3790    0.9070    0.9590 C   0  0  0  0  0  0  0  0  0  0  0  0
    0.1340    0.4030    0.7010 C   0  0  0  0  0  0  0  0  0  0  0  0
    0.4690    1.0790    1.8540 C   0  0  0  0  0  0  0  0  0  0  0  0
    1.7690    1.1220    2.2090 N   0  0  0  0  0  0  0  0  0  0  0  0
    2.7470    0.5380    1.4930 C   0  0  0  0  0  0  0  0  0  0  0  0
    4.0810    0.6000    1.8860 C   0  0  0  0  0  0  0  0  0  0  0  0
    5.0850   -0.0010    1.1470 C   0  0  0  0  0  0  0  0  0  0  0  0
    6.4860    0.1100    1.6330 C   0  0  0  0  0  0  0  0  0  0  0  0
    4.7600   -0.6790   -0.0080 C   0  0  0  0  0  0  0  0  0  0  0  0
    3.4280   -0.7190   -0.3650 C   0  0  0  0  0  0  0  0  0  0  0  0
    2.4530   -0.1280    0.3640 N   0  0  0  0  0  0  0  0  0  0  0  0
    1.1560   -0.1840   -0.0110 C   0  0  0  0  0  0  0  0  0  0  0  0
    0.9410   -0.8280   -1.0870 O   0  0  0  0  0  0  0  0  0  0  0  0
   -3.7920   -1.9590   -1.4110 S   0  0  0  0  0  0  0  0  0  0  0  0
   -5.4320   -1.1170   -1.5080 C   0  0  0  0  0  0  0  0  0  0  0  0
  1  2  2  0
  2  3  1  0
  2 21  1  0
  3  4  2  0
  4  5  1  0
  4 20  1  0
  5  6  2  3
  6  7  1  0
  6  8  1  0
  8  9  2  0
  8 18  1  0
  9 10  1  0
 10 11  2  0
 11 12  1  0
 11 17  1  0
 12 13  2  0
 13 14  1  0
 13 15  1  0
 15 16  2  0
 16 17  1  0
 17 18  1  0
 18 19  2  0
 20 21  1  0
M  END
