
     RDKit          3D

 21 23  0  0  0  0  0  0  0  0999 V2000
    6.6760    0.6910   -0.7530 C   0  0  0  0  0  0  0  0  0  0  0  0
    5.9930   -0.4900   -0.3800 O   0  0  0  0  0  0  0  0  0  0  0  0
    4.7190   -0.4320    0.1160 C   0  0  0  0  0  0  0  0  0  0  0  0
    4.0510   -1.5830    0.4800 C   0  0  0  0  0  0  0  0  0  0  0  0
    2.7770   -1.5030    0.9750 C   0  0  0  0  0  0  0  0  0  0  0  0
    2.1530   -0.2820    1.1130 C   0  0  0  0  0  0  0  0  0  0  0  0
    0.8660   -0.2670    1.6260 N   0  0  0  0  0  0  0  0  0  0  0  0
   -0.2650   -0.3360    1.1280 C   0  0  0  0  0  0  0  0  0  0  0  0
   -1.6880   -0.2730    2.2540 S   0  0  0  0  0  0  0  0  0  0  0  0
   -3.1060   -0.0210    1.1910 C   0  0  0  0  0  0  0  0  0  0  0  0
   -4.2650    0.5660    1.6460 C   0  0  0  0  0  0  0  0  0  0  0  0
   -5.3450    0.7470    0.7850 C   0  0  0  0  0  0  0  0  0  0  0  0
   -5.2570    0.3400   -0.5220 C   0  0  0  0  0  0  0  0  0  0  0  0
   -6.4000    0.5280   -1.4460 C   0  0  0  0  0  0  0  0  0  0  0  0
   -4.1330   -0.2260   -0.9530 N   0  0  0  0  0  0  0  0  0  0  0  0
   -3.0530   -0.4170   -0.1260 C   0  0  0  0  0  0  0  0  0  0  0  0
   -1.8450   -1.0580   -0.6820 C   0  0  0  0  0  0  0  0  0  0  0  0
   -0.6030   -0.4600   -0.2470 N   0  0  0  0  0  0  0  0  0  0  0  0
    0.3290    0.0310   -1.2320 C   0  0  0  0  0  0  0  0  0  0  0  0
    2.8010    0.8910    0.7550 C   0  0  0  0  0  0  0  0  0  0  0  0
    4.0820    0.7850    0.2600 C   0  0  0  0  0  0  0  0  0  0  0  0
  1  2  1  0
  2  3  1  0
  3  4  2  0
  3 21  1  0
  4  5  1  0
  5  6  2  0
  6  7  1  0
  6 20  1  0
  7  8  2  3
  8  9  1  0
  8 18  1  0
  9 10  1  0
 10 11  2  0
 10 16  1  0
 11 12  1  0
 12 13  2  0
 13 14  1  0
 13 15  1  0
 15 16  2  0
 16 17  1  0
 17 18  1  0
 18 19  1  0
 20 21  2  0
M  END
