
     RDKit          3D

 21 23  0  0  0  0  0  0  0  0999 V2000
    2.8770   -2.3890   -3.7990 C   0  0  0  0  0  0  0  0  0  0  0  0
    3.1720   -1.6960   -2.7200 C   0  0  0  0  0  0  0  0  0  0  0  0
    2.8650   -0.2530   -2.6720 C   0  0  0  0  0  0  0  0  0  0  0  0
    1.9390    0.0540   -1.5610 N   0  0  0  0  0  0  0  0  0  0  0  0
    0.5510    0.0500   -1.6960 C   0  0  0  0  0  0  0  0  0  0  0  0
   -0.0700   -0.2120   -2.8050 O   0  0  0  0  0  0  0  0  0  0  0  0
   -0.2000    0.3670   -0.4940 C   0  0  0  0  0  0  0  0  0  0  0  0
   -1.4430    0.1240   -0.1500 C   0  0  0  0  0  0  0  0  0  0  0  0
   -2.3650   -0.6010   -1.0510 C   0  0  1  0  0  0  0  0  0  0  0  0
   -1.9720   -1.9390   -1.5570 C   0  0  0  0  0  0  0  0  0  0  0  0
   -2.9530   -1.8670   -0.4520 C   0  0  0  0  0  0  0  0  0  0  0  0
   -1.9800    0.5400    1.0970 N   0  0  0  0  0  0  0  0  0  0  0  0
   -1.4700    0.2330    2.4150 C   0  0  0  0  0  0  0  0  0  0  0  0
   -1.6340    1.5960    3.1020 C   0  0  0  0  0  0  0  0  0  0  0  0
   -3.0650    1.9280    2.6940 C   0  0  0  0  0  0  0  0  0  0  0  0
   -3.1690    1.3680    1.3040 C   0  0  0  0  0  0  0  0  0  0  0  0
    1.0490    1.2250    0.5170 S   0  0  0  0  0  0  0  0  0  0  0  0
    2.4430    0.3670   -0.2740 C   0  0  0  0  0  0  0  0  0  0  0  0
    3.5970    0.1090    0.2230 N   0  0  0  0  0  0  0  0  0  0  0  0
    3.8920    0.5190    1.5450 C   0  0  0  0  0  0  0  0  0  0  0  0
    3.5790    1.7000    2.0230 C   0  0  0  0  0  0  0  0  0  0  0  0
  1  2  2  0
  2  3  1  0
  3  4  1  0
  4  5  1  0
  4 18  1  0
  5  6  2  0
  5  7  1  0
  7  8  2  3
  7 17  1  0
  9  8  1  1
  8 12  1  0
  9 10  1  0
  9 11  1  0
 10 11  1  0
 12 13  1  0
 12 16  1  0
 13 14  1  0
 14 15  1  0
 15 16  1  0
 17 18  1  0
 18 19  2  3
 19 20  1  0
 20 21  2  0
M  END
