
     RDKit          3D

  8  8  0  0  0  0  0  0  0  0999 V2000
    2.2420    0.8630    0.1360 N   0  0  0  0  0  0  0  0  0  0  0  0
    1.0810    0.3200    0.1720 C   0  0  0  0  0  0  0  0  0  0  0  0
    0.8060   -1.0590   -0.3030 C   0  0  0  0  0  0  0  0  0  0  0  0
   -0.3650   -0.9260   -1.1880 N   0  0  0  0  0  0  0  0  0  0  0  0
   -1.4730   -0.7530   -0.2610 C   0  0  0  0  0  0  0  0  0  0  0  0
   -1.2420    0.5150    0.4830 C   0  0  0  0  0  0  0  0  0  0  0  0
   -2.3130    1.2550    1.0170 O   0  0  0  0  0  0  0  0  0  0  0  0
   -0.0650    1.0090    0.6820 N   0  0  0  0  0  0  0  0  0  0  0  0
  1  2  2  0
  2  3  1  0
  2  8  1  0
  3  4  1  0
  4  5  1  0
  5  6  1  0
  6  7  1  0
  6  8  2  0
M  CHG  1   1   1
M  END
