
     RDKit          3D

 21 24  0  0  0  0  0  0  0  0999 V2000
   -4.0390    2.8410   -0.8850 C   0  0  0  0  0  0  0  0  0  0  0  0
   -3.9790    1.3630   -0.6510 C   0  0  0  0  0  0  0  0  0  0  0  0
   -5.1050    0.6080   -0.4670 C   0  0  0  0  0  0  0  0  0  0  0  0
   -5.0100   -0.7490   -0.2540 C   0  0  0  0  0  0  0  0  0  0  0  0
   -3.7770   -1.3590   -0.2240 C   0  0  0  0  0  0  0  0  0  0  0  0
   -2.6180   -0.6130   -0.4080 C   0  0  0  0  0  0  0  0  0  0  0  0
   -2.7520    0.7370   -0.6180 C   0  0  0  0  0  0  0  0  0  0  0  0
   -1.3450   -1.2220   -0.3770 N   0  0  0  0  0  0  0  0  0  0  0  0
   -0.2330   -0.4090   -0.0890 C   0  0  0  0  0  0  0  0  0  0  0  0
    0.0950    0.6770    0.1960 N   0  0  0  0  0  0  0  0  0  0  0  0
    1.3000    1.1060    0.3890 N   0  0  0  0  0  0  0  0  0  0  0  0
    2.2690    0.4360    0.3020 C   0  0  0  0  0  0  0  0  0  0  0  0
    3.7470    0.4890    0.4230 C   0  0  0  0  0  0  0  0  0  0  0  0
    4.6250   -0.4790    0.2620 C   0  0  0  0  0  0  0  0  0  0  0  0
    6.0030    0.0220    0.4810 C   0  0  0  0  0  0  0  0  0  0  0  0
    5.8270    1.5030    0.1510 C   0  0  0  0  0  0  0  0  0  0  0  0
    4.4360    1.7350    0.7620 C   0  0  0  0  0  0  0  0  0  0  0  0
    1.4930   -1.1990   -0.1480 S   0  0  0  0  0  0  0  0  0  0  0  0
   -1.2560   -2.6240   -0.6290 C   0  0  0  0  0  0  0  0  0  0  0  0
   -2.3930   -3.3600    0.0470 C   0  0  0  0  0  0  0  0  0  0  0  0
   -3.6250   -2.7140   -0.0160 O   0  0  0  0  0  0  0  0  0  0  0  0
  1  2  1  0
  2  3  2  0
  2  7  1  0
  3  4  1  0
  4  5  2  0
  5  6  1  0
  5 21  1  0
  6  7  2  0
  6  8  1  0
  8  9  1  0
  8 19  1  0
  9 10  2  0
  9 18  1  0
 10 11  1  0
 11 12  2  0
 12 13  1  0
 12 18  1  0
 13 14  2  0
 13 17  1  0
 14 15  1  0
 15 16  1  0
 16 17  1  0
 19 20  1  0
 20 21  1  0
M  END
