
     RDKit          3D

 21 23  0  0  0  0  0  0  0  0999 V2000
   -2.2540    0.2000   -1.5820 C   0  0  0  0  0  0  0  0  0  0  0  0
   -3.0750   -0.1730   -0.4070 C   0  0  0  0  0  0  0  0  0  0  0  0
   -2.6410   -0.4360    0.8430 C   0  0  0  0  0  0  0  0  0  0  0  0
   -1.3250   -0.4480    1.4460 C   0  0  0  0  0  0  0  0  0  0  0  0
   -0.2210   -0.1760    0.8210 C   0  0  0  0  0  0  0  0  0  0  0  0
    1.0420   -0.2380    1.6010 C   0  0  0  0  0  0  0  0  0  0  0  0
    0.9900   -0.5450    2.8110 O   0  0  0  0  0  0  0  0  0  0  0  0
    2.2470    0.0560    0.9310 N   0  0  0  0  0  0  0  0  0  0  0  0
    3.4860   -0.0010    1.6800 C   0  0  0  0  0  0  0  0  0  0  0  0
    4.4960   -0.7030    0.7700 C   0  0  0  0  0  0  0  0  0  0  0  0
    4.8130    0.2150   -0.3630 C   0  0  2  0  0  0  0  0  0  0  0  0
    5.9440    1.1420    0.0900 C   0  0  0  0  0  0  0  0  0  0  0  0
    3.6420    1.0260   -0.8220 C   0  0  0  0  0  0  0  0  0  0  0  0
    2.3080    0.4130   -0.4700 C   0  0  0  0  0  0  0  0  0  0  0  0
   -3.7330   -0.7400    1.6180 N   0  0  0  0  0  0  0  0  0  0  0  0
   -4.8260   -0.6500    0.7970 C   0  0  0  0  0  0  0  0  0  0  0  0
   -4.4590   -0.3130   -0.4160 N   0  0  0  0  0  0  0  0  0  0  0  0
   -5.2890   -0.1130   -1.5740 C   0  0  0  0  0  0  0  0  0  0  0  0
   -7.0100   -0.3740   -1.2390 S   0  0  0  0  0  0  0  0  0  0  0  0
   -7.2350   -0.8150    0.4610 C   0  0  0  0  0  0  0  0  0  0  0  0
   -6.1970   -0.9050    1.2600 C   0  0  0  0  0  0  0  0  0  0  0  0
  1  2  1  0
  2  3  2  0
  2 17  1  0
  3  4  1  0
  3 15  1  0
  4  5  2  3
  5  6  1  0
  6  7  2  0
  6  8  1  0
  8  9  1  0
  8 14  1  0
  9 10  1  0
 10 11  1  0
 11 12  1  1
 11 13  1  0
 13 14  1  0
 15 16  2  0
 16 17  1  0
 16 21  1  0
 17 18  1  0
 18 19  1  0
 19 20  1  0
 20 21  2  0
M  END
