
     RDKit          3D

 21 23  0  0  0  0  0  0  0  0999 V2000
   -3.5700    2.4460   -1.1720 C   0  0  0  0  0  0  0  0  0  0  0  0
   -2.1980    1.9980   -0.8320 C   0  0  0  0  0  0  0  0  0  0  0  0
   -1.0410    2.7030   -0.9330 C   0  0  0  0  0  0  0  0  0  0  0  0
   -0.0160    1.9470   -0.5020 N   0  0  0  0  0  0  0  0  0  0  0  0
   -0.4550    0.7140   -0.1010 C   0  0  0  0  0  0  0  0  0  0  0  0
    0.3450   -0.3620    0.4270 C   0  0  0  0  0  0  0  0  0  0  0  0
   -0.2370   -1.5160    0.5260 O   0  0  0  0  0  0  0  0  0  0  0  0
    1.6490   -0.3550    0.8470 N   0  0  0  0  0  0  0  0  0  0  0  0
    2.2590   -1.6690    1.2550 C   0  0  0  0  0  0  0  0  0  0  0  0
    3.5440   -1.8080    0.5000 C   0  0  0  0  0  0  0  0  0  0  0  0
    4.2870   -0.6220    0.2800 N   0  0  0  0  0  0  0  0  0  0  0  0
    5.7020   -0.5570    0.3990 C   0  0  0  0  0  0  0  0  0  0  0  0
    6.5180    0.7770    0.7940 S   0  0  0  0  0  0  0  0  0  0  0  0
    3.5950    0.6190   -0.0920 C   0  0  0  0  0  0  0  0  0  0  0  0
    2.5240    0.7620    1.0090 C   0  0  0  0  0  0  0  0  0  0  0  0
   -1.8440    0.7390   -0.3050 C   0  0  0  0  0  0  0  0  0  0  0  0
   -2.8180   -0.3120   -0.1070 C   0  0  0  0  0  0  0  0  0  0  0  0
   -3.9210   -0.4520   -0.8620 C   0  0  0  0  0  0  0  0  0  0  0  0
   -4.7440   -1.6010   -0.4300 C   0  0  0  0  0  0  0  0  0  0  0  0
   -4.0060   -2.1030    0.7390 C   0  0  0  0  0  0  0  0  0  0  0  0
   -2.9040   -1.3460    0.8930 C   0  0  0  0  0  0  0  0  0  0  0  0
  1  2  1  0
  2  3  2  0
  2 16  1  0
  3  4  1  0
  4  5  1  0
  5  6  1  0
  5 16  2  0
  6  7  2  0
  6  8  1  0
  8  9  1  0
  8 15  1  0
  9 10  1  0
 10 11  1  0
 11 12  1  0
 11 14  1  0
 12 13  2  0
 14 15  1  0
 16 17  1  0
 17 18  2  0
 17 21  1  0
 18 19  1  0
 19 20  1  0
 20 21  2  0
M  END
