
     RDKit          3D

 41 45  0  0  0  0  0  0  0  0999 V2000
    5.6750    4.3890    1.0120 C   0  0  0  0  0  0  0  0  0  0  0  0
    6.0830    3.8300   -0.2160 O   0  0  0  0  0  0  0  0  0  0  0  0
    7.0470    2.8500   -0.3650 C   0  0  0  0  0  0  0  0  0  0  0  0
    8.3620    3.2400   -0.5010 C   0  0  0  0  0  0  0  0  0  0  0  0
    8.7530    4.9290   -0.4800 Cl  0  0  0  0  0  0  0  0  0  0  0  0
    9.3880    2.3190   -0.6540 C   0  0  0  0  0  0  0  0  0  0  0  0
    9.0870    0.9620   -0.6730 C   0  0  0  0  0  0  0  0  0  0  0  0
    7.7770    0.5560   -0.5390 C   0  0  0  0  0  0  0  0  0  0  0  0
    7.3880   -1.1490   -0.5630 Cl  0  0  0  0  0  0  0  0  0  0  0  0
    6.7720    1.5080   -0.3870 C   0  0  0  0  0  0  0  0  0  0  0  0
    5.3630    1.1360   -0.2620 C   0  0  0  0  0  0  0  0  0  0  0  0
    4.2770    1.6470   -0.1590 N   0  0  0  0  0  0  0  0  0  0  0  0
    3.1660    0.9850   -0.0730 N   0  0  0  0  0  0  0  0  0  0  0  0
    3.0440   -0.1870   -0.0810 C   0  0  0  0  0  0  0  0  0  0  0  0
    2.0500   -1.2960   -0.0110 C   0  0  0  0  0  0  0  0  0  0  0  0
    0.7070   -0.9560    0.1040 C   0  0  0  0  0  0  0  0  0  0  0  0
    0.4130    0.3760    0.1470 O   0  0  0  0  0  0  0  0  0  0  0  0
   -0.2680   -1.9280    0.1730 C   0  0  0  0  0  0  0  0  0  0  0  0
   -1.6890   -1.6070    0.2550 C   0  0  0  0  0  0  0  0  0  0  0  0
   -2.2980   -0.7480   -0.6440 C   0  0  0  0  0  0  0  0  0  0  0  0
   -3.6560   -0.4670   -0.5760 C   0  0  0  0  0  0  0  0  0  0  0  0
   -4.3070    0.4700   -1.5590 C   0  0  0  0  0  0  0  0  0  0  0  0
   -5.1410    1.4330   -0.9110 N   0  0  0  0  0  0  0  0  0  0  0  0
   -6.5070    1.3390   -1.3880 C   0  0  0  0  0  0  0  0  0  0  0  0
   -7.4400    2.1350   -0.5290 C   0  0  2  0  0  0  0  0  0  0  0  0
   -7.5170    1.5180    0.8570 C   0  0  0  0  0  0  0  0  0  0  0  0
   -8.7270    1.9800   -1.0730 O   0  0  0  0  0  0  0  0  0  0  0  0
   -7.0740    3.5770   -0.4030 C   0  0  0  0  0  0  0  0  0  0  0  0
   -8.3100    4.3380    0.6560 Cl  0  0  0  0  0  0  0  0  0  0  0  0
   -4.4640   -1.0300    0.3890 C   0  0  0  0  0  0  0  0  0  0  0  0
   -3.8760   -1.8880    1.2920 C   0  0  0  0  0  0  0  0  0  0  0  0
   -2.5080   -2.1660    1.2180 C   0  0  0  0  0  0  0  0  0  0  0  0
   -1.9060   -3.0870    2.2070 C   0  0  0  0  0  0  0  0  0  0  0  0
    0.1550   -3.2440    0.1230 C   0  0  0  0  0  0  0  0  0  0  0  0
    1.4780   -3.6240    0.0100 C   0  0  0  0  0  0  0  0  0  0  0  0
    2.4290   -2.6210   -0.0580 C   0  0  0  0  0  0  0  0  0  0  0  0
    3.7670   -2.9720   -0.1730 O   0  0  0  0  0  0  0  0  0  0  0  0
    4.1810   -4.2950    0.1420 C   0  0  0  0  0  0  0  0  0  0  0  0
    3.1680   -5.3110   -0.3010 C   0  0  0  0  0  0  0  0  0  0  0  0
    1.8480   -4.9610   -0.0350 O   0  0  0  0  0  0  0  0  0  0  0  0
    4.8610   -0.6780   -0.2480 S   0  0  0  0  0  0  0  0  0  0  0  0
  1  2  1  0
  2  3  1  0
  3  4  2  0
  3 10  1  0
  4  5  1  0
  4  6  1  0
  6  7  2  0
  7  8  1  0
  8  9  1  0
  8 10  2  0
 10 11  1  0
 11 12  2  0
 11 41  1  0
 12 13  1  0
 13 14  2  0
 14 15  1  0
 14 41  1  0
 15 16  2  0
 15 36  1  0
 16 17  1  0
 16 18  1  0
 18 19  1  0
 18 34  2  0
 19 20  2  0
 19 32  1  0
 20 21  1  0
 21 22  1  0
 21 30  2  0
 22 23  1  0
 23 24  1  0
 24 25  1  0
 25 26  1  1
 25 27  1  0
 25 28  1  0
 28 29  1  0
 30 31  1  0
 31 32  2  0
 32 33  1  0
 34 35  1  0
 35 36  2  0
 35 40  1  0
 36 37  1  0
 37 38  1  0
 38 39  1  0
 39 40  1  0
M  CHG  1  23   1
M  END
