
     RDKit          3D

 41 45  0  0  0  0  0  0  0  0999 V2000
    3.3630   -3.0240   -2.6970 O   0  0  0  0  0  0  0  0  0  0  0  0
    3.1100   -1.9610   -2.0120 C   0  0  0  0  0  0  0  0  0  0  0  0
    1.7200   -1.5210   -1.9240 C   0  0  0  0  0  0  0  0  0  0  0  0
    1.1900   -0.5420   -1.2990 C   0  0  0  0  0  0  0  0  0  0  0  0
    2.0840    0.2990   -0.5120 O   0  0  0  0  0  0  0  0  0  0  0  0
    1.9740    0.1830    0.8730 C   0  0  0  0  0  0  0  0  0  0  0  0
    1.0740   -0.6210    1.2970 O   0  0  0  0  0  0  0  0  0  0  0  0
    2.7460    0.8600    1.8740 C   0  0  0  0  0  0  0  0  0  0  0  0
    3.8680    0.2620    2.3990 C   0  0  0  0  0  0  0  0  0  0  0  0
    4.3440   -1.3650    1.9410 Cl  0  0  0  0  0  0  0  0  0  0  0  0
    4.6560    0.8970    3.3430 C   0  0  0  0  0  0  0  0  0  0  0  0
    4.3160    2.1690    3.7780 C   0  0  0  0  0  0  0  0  0  0  0  0
    3.2070    2.7760    3.2690 C   0  0  0  0  0  0  0  0  0  0  0  0
    2.4290    2.1150    2.3180 C   0  0  0  0  0  0  0  0  0  0  0  0
    1.0390    2.9940    1.7320 Cl  0  0  0  0  0  0  0  0  0  0  0  0
   -0.1740   -0.0980   -1.2290 C   0  0  0  0  0  0  0  0  0  0  0  0
   -0.3830    0.9350   -0.4220 O   0  0  0  0  0  0  0  0  0  0  0  0
   -1.3840   -0.5480   -1.8550 C   0  0  0  0  0  0  0  0  0  0  0  0
   -1.4400   -1.3780   -2.9400 C   0  0  0  0  0  0  0  0  0  0  0  0
   -2.6900   -1.8500   -3.4040 C   0  0  0  0  0  0  0  0  0  0  0  0
   -3.8310   -1.4710   -2.7670 C   0  0  0  0  0  0  0  0  0  0  0  0
   -5.3530   -2.0720   -3.3680 Cl  0  0  0  0  0  0  0  0  0  0  0  0
   -3.8310   -0.6350   -1.6730 C   0  0  0  0  0  0  0  0  0  0  0  0
   -5.1210   -0.2770   -1.0330 C   0  0  0  0  0  0  0  0  0  0  0  0
   -4.9750    0.6060    0.0860 N   0  0  0  0  0  0  0  0  0  0  0  0
   -6.1950    0.4640    0.9120 C   0  0  2  0  0  0  0  0  0  0  0  0
   -7.3520    0.9820    0.1690 C   0  0  0  0  0  0  0  0  0  0  0  0
   -8.1290    1.9320    0.6350 C   0  0  0  0  0  0  0  0  0  0  0  0
   -7.8700    2.5180    1.9270 C   0  0  0  0  0  0  0  0  0  0  0  0
   -6.8700    2.1260    2.6630 C   0  0  0  0  0  0  0  0  0  0  0  0
   -5.9450    1.0720    2.2400 C   0  0  0  0  0  0  0  0  0  0  0  0
   -2.6060   -0.1930   -1.2440 C   0  0  0  0  0  0  0  0  0  0  0  0
    4.2160   -1.3440   -1.4340 N   0  0  0  0  0  0  0  0  0  0  0  0
    5.6010   -1.8160   -1.5550 C   0  0  0  0  0  0  0  0  0  0  0  0
    5.8390   -2.9360   -2.3120 C   0  0  0  0  0  0  0  0  0  0  0  0
    7.6890   -3.0580   -2.1440 S   0  0  0  0  0  0  0  0  0  0  0  0
    7.9030   -1.6750   -1.1390 C   0  0  0  0  0  0  0  0  0  0  0  0
    6.6050   -1.1670   -0.9590 C   0  0  0  0  0  0  0  0  0  0  0  0
    6.9000    0.0220   -0.0530 C   0  0  0  0  0  0  0  0  0  0  0  0
    8.1710    0.4220   -0.3760 O   0  0  0  0  0  0  0  0  0  0  0  0
    8.8040   -0.8010   -0.4190 N   0  0  0  0  0  0  0  0  0  0  0  0
  1  2  2  0
  2  3  1  0
  2 33  1  0
  3  4  2  3
  4  5  1  0
  4 16  1  0
  5  6  1  0
  6  7  2  0
  6  8  1  0
  8  9  2  0
  8 14  1  0
  9 10  1  0
  9 11  1  0
 11 12  2  0
 12 13  1  0
 13 14  2  0
 14 15  1  0
 16 17  2  0
 16 18  1  0
 18 19  2  0
 18 32  1  0
 19 20  1  0
 20 21  2  0
 21 22  1  0
 21 23  1  0
 23 24  1  0
 23 32  2  0
 24 25  1  0
 26 25  1  6
 26 27  1  0
 26 31  1  0
 27 28  2  0
 28 29  1  0
 29 30  2  0
 30 31  1  0
 33 34  1  0
 34 35  2  0
 34 38  1  0
 35 36  1  0
 36 37  1  0
 37 38  2  0
 37 41  1  0
 38 39  1  0
 39 40  1  0
 40 41  1  0
M  CHG  1  25   1
M  END
