
     RDKit          3D

 41 45  0  0  0  0  0  0  0  0999 V2000
   -0.9900   -4.3250   -0.5240 C   0  0  0  0  0  0  0  0  0  0  0  0
   -1.8920   -3.2120   -0.1370 C   0  0  0  0  0  0  0  0  0  0  0  0
   -1.4390   -1.8960   -0.2960 C   0  0  0  0  0  0  0  0  0  0  0  0
   -2.2240   -0.8160    0.0420 C   0  0  0  0  0  0  0  0  0  0  0  0
   -1.8180    0.4990   -0.1050 C   0  0  0  0  0  0  0  0  0  0  0  0
   -0.4670    0.7940   -0.6020 C   0  0  0  0  0  0  0  0  0  0  0  0
    0.0740    2.0390   -0.9320 C   0  0  0  0  0  0  0  0  0  0  0  0
    1.3790    1.7700   -1.3500 C   0  0  0  0  0  0  0  0  0  0  0  0
    1.5720    0.4120   -1.2600 C   0  0  0  0  0  0  0  0  0  0  0  0
    2.8230   -0.2530   -1.6140 C   0  0  0  0  0  0  0  0  0  0  0  0
    3.7990    0.4200   -2.0270 O   0  0  0  0  0  0  0  0  0  0  0  0
    2.9920   -1.6230   -1.5140 O   0  0  0  0  0  0  0  0  0  0  0  0
    4.1940   -2.2800   -1.8520 C   0  0  0  0  0  0  0  0  0  0  0  0
    5.3220   -1.7760   -0.9960 C   0  0  0  0  0  0  0  0  0  0  0  0
    5.0700   -0.9050   -0.1410 O   0  0  0  0  0  0  0  0  0  0  0  0
    6.6280   -2.2660   -1.1470 N   0  0  0  0  0  0  0  0  0  0  0  0
    7.7530   -1.8060   -0.3320 C   0  0  0  0  0  0  0  0  0  0  0  0
    9.0230   -2.0070   -0.7180 C   0  0  0  0  0  0  0  0  0  0  0  0
   10.0550   -1.5810    0.0630 C   0  0  0  0  0  0  0  0  0  0  0  0
    9.1920   -0.8150    1.4990 S   0  0  0  0  0  0  0  0  0  0  0  0
    7.5050   -1.1750    0.8470 C   0  0  0  0  0  0  0  0  0  0  0  0
    0.4640   -0.0850   -0.8210 O   0  0  0  0  0  0  0  0  0  0  0  0
   -2.6750    1.5430    0.2530 C   0  0  0  0  0  0  0  0  0  0  0  0
   -2.2330    2.8210    0.0890 O   0  0  0  0  0  0  0  0  0  0  0  0
   -2.8410    4.0060    0.3060 C   0  0  0  0  0  0  0  0  0  0  0  0
   -2.2740    4.8400    1.2830 C   0  0  0  0  0  0  0  0  0  0  0  0
   -2.8470    6.0650    1.5520 C   0  0  0  0  0  0  0  0  0  0  0  0
   -3.9770    6.4570    0.8530 C   0  0  0  0  0  0  0  0  0  0  0  0
   -4.5660    7.7230    1.1330 N   0  0  0  0  0  0  0  0  0  0  0  0
   -4.5430    5.6450   -0.1120 C   0  0  0  0  0  0  0  0  0  0  0  0
   -3.9590    4.4080   -0.3790 C   0  0  0  0  0  0  0  0  0  0  0  0
   -4.6030    3.3390   -1.6020 Cl  0  0  0  0  0  0  0  0  0  0  0  0
   -3.9220    1.2410    0.7510 C   0  0  0  0  0  0  0  0  0  0  0  0
   -4.3270   -0.0210    0.8990 N   0  0  0  0  0  0  0  0  0  0  0  0
   -3.5120   -1.0380    0.5590 C   0  0  0  0  0  0  0  0  0  0  0  0
   -3.9330   -2.3520    0.7040 C   0  0  0  0  0  0  0  0  0  0  0  0
   -3.1530   -3.4380    0.3690 C   0  0  0  0  0  0  0  0  0  0  0  0
   -3.6730   -4.8190    0.5530 C   0  0  0  0  0  0  0  0  0  0  0  0
   -3.0490   -5.4800    1.7790 C   0  0  2  0  0  0  0  0  0  0  0  0
   -3.7520   -7.1150    1.8830 Cl  0  0  0  0  0  0  0  0  0  0  0  0
   -3.4360   -4.5440    3.2240 Cl  0  0  0  0  0  0  0  0  0  0  0  0
  1  2  1  0
  2  3  2  0
  2 37  1  0
  3  4  1  0
  4  5  2  0
  4 35  1  0
  5  6  1  0
  5 23  1  0
  6  7  2  0
  6 22  1  0
  7  8  1  0
  8  9  2  0
  9 10  1  0
  9 22  1  0
 10 11  2  0
 10 12  1  0
 12 13  1  0
 13 14  1  0
 14 15  2  0
 14 16  1  0
 16 17  1  0
 17 18  1  0
 17 21  2  0
 18 19  2  0
 19 20  1  0
 20 21  1  0
 23 24  1  0
 23 33  2  0
 24 25  1  0
 25 26  2  0
 25 31  1  0
 26 27  1  0
 27 28  2  0
 28 29  1  0
 28 30  1  0
 30 31  2  0
 31 32  1  0
 33 34  1  0
 34 35  2  0
 35 36  1  0
 36 37  2  0
 37 38  1  0
 38 39  1  0
 39 40  1  1
 39 41  1  0
M  CHG  1  29   1
M  END
