
     RDKit          3D

 41 45  0  0  0  0  0  0  0  0999 V2000
   -5.4020   -5.6260   -0.0860 C   0  0  0  0  0  0  0  0  0  0  0  0
   -4.8980   -4.4520    0.4870 O   0  0  0  0  0  0  0  0  0  0  0  0
   -4.5730   -3.3360   -0.2700 C   0  0  0  0  0  0  0  0  0  0  0  0
   -4.7500   -3.3770   -1.6340 C   0  0  0  0  0  0  0  0  0  0  0  0
   -4.4100   -2.2340   -2.3510 C   0  0  0  0  0  0  0  0  0  0  0  0
   -4.6320   -2.2750   -4.0940 Cl  0  0  0  0  0  0  0  0  0  0  0  0
   -3.9150   -1.0990   -1.7270 C   0  0  0  0  0  0  0  0  0  0  0  0
   -3.7450   -1.0750   -0.3630 C   0  0  0  0  0  0  0  0  0  0  0  0
   -3.2630   -0.0010    0.3350 O   0  0  0  0  0  0  0  0  0  0  0  0
   -2.8830    1.2250   -0.2970 C   0  0  0  0  0  0  0  0  0  0  0  0
   -2.3900    2.2100    0.7850 C   0  0  1  0  0  0  0  0  0  0  0  0
   -1.2420    1.4960    1.4770 C   0  0  0  0  0  0  0  0  0  0  0  0
   -0.2010    1.1290    0.5630 N   0  0  0  0  0  0  0  0  0  0  0  0
    0.9440    0.4390    1.1300 C   0  0  0  0  0  0  0  0  0  0  0  0
    0.9520    0.2120    2.3520 O   0  0  0  0  0  0  0  0  0  0  0  0
    2.0200    0.0320    0.3350 N   0  0  0  0  0  0  0  0  0  0  0  0
    3.1970   -0.6440    0.7260 C   0  0  0  0  0  0  0  0  0  0  0  0
    3.3880   -1.0090    2.0570 C   0  0  0  0  0  0  0  0  0  0  0  0
    4.5310   -1.6790    2.4900 C   0  0  0  0  0  0  0  0  0  0  0  0
    4.7120   -2.0610    3.9250 C   0  0  0  0  0  0  0  0  0  0  0  0
    5.4890   -1.9840    1.5730 C   0  0  0  0  0  0  0  0  0  0  0  0
    6.9290   -2.8220    2.0830 Cl  0  0  0  0  0  0  0  0  0  0  0  0
    5.3240   -1.6280    0.2220 C   0  0  0  0  0  0  0  0  0  0  0  0
    6.3140   -1.9550   -0.6560 C   0  0  0  0  0  0  0  0  0  0  0  0
    6.2390   -1.6390   -2.0340 C   0  0  0  0  0  0  0  0  0  0  0  0
    7.1310   -1.9140   -2.9210 N   0  0  0  0  0  0  0  0  0  0  0  0
    6.9860   -1.5790   -4.2160 C   0  0  0  0  0  0  0  0  0  0  0  0
    5.3200   -0.7420   -4.1480 S   0  0  0  0  0  0  0  0  0  0  0  0
    5.0720   -0.9750   -2.3710 C   0  0  0  0  0  0  0  0  0  0  0  0
    4.0730   -0.6410   -1.5000 C   0  0  0  0  0  0  0  0  0  0  0  0
    4.1910   -0.9720   -0.1620 C   0  0  0  0  0  0  0  0  0  0  0  0
   -2.0400    3.3590    0.1570 O   0  0  0  0  0  0  0  0  0  0  0  0
   -2.3970    4.6430    0.1380 C   0  0  0  0  0  0  0  0  0  0  0  0
   -1.6910    5.4930   -0.7340 C   0  0  0  0  0  0  0  0  0  0  0  0
   -1.9680    6.8360   -0.8420 C   0  0  0  0  0  0  0  0  0  0  0  0
   -2.9710    7.3950   -0.0790 C   0  0  0  0  0  0  0  0  0  0  0  0
   -3.6590    6.5760    0.7680 C   0  0  0  0  0  0  0  0  0  0  0  0
   -3.3930    5.2180    0.8900 C   0  0  0  0  0  0  0  0  0  0  0  0
   -4.3730    4.3270    2.0230 Cl  0  0  0  0  0  0  0  0  0  0  0  0
   -4.0800   -2.2070    0.3560 C   0  0  0  0  0  0  0  0  0  0  0  0
   -3.9250   -2.2280    1.7360 O   0  0  0  0  0  0  0  0  0  0  0  0
  1  2  1  0
  2  3  1  0
  3  4  2  0
  3 40  1  0
  4  5  1  0
  5  6  1  0
  5  7  2  0
  7  8  1  0
  8  9  1  0
  8 40  2  0
  9 10  1  0
 11 10  1  6
 11 12  1  0
 11 32  1  0
 12 13  1  0
 13 14  1  0
 14 15  2  0
 14 16  1  0
 16 17  1  0
 17 18  2  0
 17 31  1  0
 18 19  1  0
 19 20  1  0
 19 21  2  0
 21 22  1  0
 21 23  1  0
 23 24  2  0
 23 31  1  0
 24 25  1  0
 25 26  1  0
 25 29  2  0
 26 27  2  0
 27 28  1  0
 28 29  1  0
 29 30  1  0
 30 31  2  0
 32 33  1  0
 33 34  2  0
 33 38  1  0
 34 35  1  0
 35 36  2  0
 36 37  1  0
 37 38  2  0
 38 39  1  0
 40 41  1  0
M  CHG  1  26   1
M  END
