
     RDKit          3D

 41 43  0  0  0  0  0  0  0  0999 V2000
    0.0200    0.8260   -0.0800 C   0  0  0  0  0  0  0  0  0  0  0  0
   -0.7920    0.4950    1.0620 N   0  0  0  0  0  0  0  0  0  0  0  0
   -0.5020    0.6360    2.3530 C   0  0  0  0  0  0  0  0  0  0  0  0
    0.6700    1.1430    2.9350 N   0  0  0  0  0  0  0  0  0  0  0  0
    1.8090    1.6190    2.2310 C   0  0  0  0  0  0  0  0  0  0  0  0
    1.8940    2.9370    1.8580 C   0  0  0  0  0  0  0  0  0  0  0  0
    0.5970    4.0580    2.2260 Cl  0  0  0  0  0  0  0  0  0  0  0  0
    3.0080    3.3700    1.1920 C   0  0  0  0  0  0  0  0  0  0  0  0
    4.0460    2.4910    0.8930 C   0  0  0  0  0  0  0  0  0  0  0  0
    3.9890    1.1680    1.2530 C   0  0  0  0  0  0  0  0  0  0  0  0
    5.0470    0.1670    0.9800 C   0  0  0  0  0  0  0  0  0  0  0  0
    6.1890    0.6580    0.2820 N   0  0  0  0  0  0  0  0  0  0  0  0
    7.2770   -0.2450   -0.0270 C   0  0  0  0  0  0  0  0  0  0  0  0
    7.1320   -1.4340    0.3530 O   0  0  0  0  0  0  0  0  0  0  0  0
    8.4750    0.2200   -0.7450 C   0  0  2  0  0  0  0  0  0  0  0  0
    9.4120   -0.9580   -0.9070 C   0  0  0  0  0  0  0  0  0  0  0  0
    9.2320    1.2910    0.0130 C   0  0  0  0  0  0  0  0  0  0  0  0
    8.1610    0.7720   -2.1080 C   0  0  0  0  0  0  0  0  0  0  0  0
    2.8310    0.7650    1.9340 C   0  0  0  0  0  0  0  0  0  0  0  0
    2.7560   -0.9470    2.3980 Cl  0  0  0  0  0  0  0  0  0  0  0  0
   -1.5550    0.1980    3.0790 N   0  0  0  0  0  0  0  0  0  0  0  0
   -2.5380   -0.2300    2.2730 C   0  0  0  0  0  0  0  0  0  0  0  0
   -3.7890   -0.7560    2.4690 C   0  0  0  0  0  0  0  0  0  0  0  0
   -4.6070   -1.1160    1.3840 C   0  0  0  0  0  0  0  0  0  0  0  0
   -5.9170   -1.6620    1.6500 C   0  0  0  0  0  0  0  0  0  0  0  0
   -6.2480   -1.7910    2.9020 O   0  0  0  0  0  0  0  0  0  0  0  0
   -6.9100   -2.0850    0.7650 N   0  0  0  0  0  0  0  0  0  0  0  0
   -8.2060   -2.6400    1.1610 C   0  0  0  0  0  0  0  0  0  0  0  0
   -8.1530   -3.9190    1.9070 C   0  0  2  0  0  0  0  0  0  0  0  0
   -9.4620   -4.2980    2.1880 F   0  0  0  0  0  0  0  0  0  0  0  0
   -7.4880   -3.8810    3.1020 F   0  0  0  0  0  0  0  0  0  0  0  0
   -7.6200   -4.9530    1.1590 F   0  0  0  0  0  0  0  0  0  0  0  0
   -4.1100   -0.9220    0.1050 C   0  0  0  0  0  0  0  0  0  0  0  0
   -4.8300   -1.2460   -0.9520 O   0  0  0  0  0  0  0  0  0  0  0  0
   -4.8950   -1.2640   -2.2820 C   0  0  0  0  0  0  0  0  0  0  0  0
   -4.9890   -0.0020   -3.0700 C   0  0  1  0  0  0  0  0  0  0  0  0
   -6.3670    0.6100   -2.8110 C   0  0  0  0  0  0  0  0  0  0  0  0
   -3.9540    1.0250   -2.8910 C   0  0  0  0  0  0  0  0  0  0  0  0
   -5.0530   -0.4100   -4.4330 O   0  0  0  0  0  0  0  0  0  0  0  0
   -2.8210   -0.3800   -0.0810 C   0  0  0  0  0  0  0  0  0  0  0  0
   -2.0500   -0.0400    0.9990 C   0  0  0  0  0  0  0  0  0  0  0  0
  1  2  1  0
  2  3  1  0
  2 41  1  0
  3  4  1  0
  3 21  2  0
  4  5  1  0
  5  6  2  0
  5 19  1  0
  6  7  1  0
  6  8  1  0
  8  9  2  0
  9 10  1  0
 10 11  1  0
 10 19  2  0
 11 12  1  0
 12 13  1  0
 13 14  2  0
 13 15  1  0
 15 16  1  6
 15 17  1  0
 15 18  1  0
 19 20  1  0
 21 22  1  0
 22 23  2  0
 22 41  1  0
 23 24  1  0
 24 25  1  0
 24 33  2  0
 25 26  2  0
 25 27  1  0
 27 28  1  0
 28 29  1  0
 29 30  1  1
 29 31  1  0
 29 32  1  0
 33 34  1  0
 33 40  1  0
 34 35  1  0
 35 36  1  0
 36 37  1  1
 36 38  1  0
 36 39  1  0
 40 41  2  0
M  END
