
     RDKit          3D

 14 15  0  0  0  0  0  0  0  0999 V2000
    3.1360   -0.3310    0.1490 C   0  0  0  0  0  0  0  0  0  0  0  0
    1.7610    0.2170   -0.0800 C   0  0  0  0  0  0  0  0  0  0  0  0
    1.6140    1.4050   -0.6880 N   0  0  0  0  0  0  0  0  0  0  0  0
    0.3850    1.9060   -0.8990 C   0  0  0  0  0  0  0  0  0  0  0  0
    0.3280    3.0320   -1.4780 O   0  0  0  0  0  0  0  0  0  0  0  0
   -0.7590    1.2440   -0.5120 C   0  0  0  0  0  0  0  0  0  0  0  0
   -2.0960    1.8170   -0.7560 C   0  0  0  0  0  0  0  0  0  0  0  0
   -0.6380    0.0240    0.1130 C   0  0  0  0  0  0  0  0  0  0  0  0
    0.6510   -0.4650    0.3150 C   0  0  0  0  0  0  0  0  0  0  0  0
    0.7500   -1.7540    0.9760 C   0  0  0  0  0  0  0  0  0  0  0  0
    1.8920   -2.2320    1.1790 O   0  0  0  0  0  0  0  0  0  0  0  0
   -0.4130   -2.4350    1.3730 O   0  0  0  0  0  0  0  0  0  0  0  0
   -1.5750   -2.1950    0.6110 C   0  0  0  0  0  0  0  0  0  0  0  0
   -1.8600   -0.6940    0.5310 C   0  0  0  0  0  0  0  0  0  0  0  0
  1  2  1  0
  2  3  1  0
  2  9  2  0
  3  4  1  0
  4  5  2  0
  4  6  1  0
  6  7  1  0
  6  8  2  0
  8  9  1  0
  8 14  1  0
  9 10  1  0
 10 11  2  0
 10 12  1  0
 12 13  1  0
 13 14  1  0
M  END
