
     RDKit          3D

 14 14  0  0  0  0  0  0  0  0999 V2000
    4.0950    0.4840   -0.1860 C   0  0  0  0  0  0  0  0  0  0  0  0
    3.1670   -0.6400    0.1220 C   0  0  0  0  0  0  0  0  0  0  0  0
    1.9550   -0.6180   -0.3500 C   0  0  0  0  0  0  0  0  0  0  0  0
    1.4690    0.4930   -1.1850 C   0  0  0  0  0  0  0  0  0  0  0  0
    0.1770    0.9870   -0.8790 N   0  0  0  0  0  0  0  0  0  0  0  0
   -1.0040    0.4670   -0.2210 C   0  0  0  0  0  0  0  0  0  0  0  0
   -2.0620    1.4810   -0.0120 C   0  0  0  0  0  0  0  0  0  0  0  0
   -1.2090   -0.7320    0.2080 C   0  0  0  0  0  0  0  0  0  0  0  0
   -2.4070   -1.1730    0.8450 C   0  0  0  0  0  0  0  0  0  0  0  0
   -3.6280   -0.4660    1.1320 C   0  0  0  0  0  0  0  0  0  0  0  0
   -2.4290   -2.4330    1.2450 O   0  0  0  0  0  0  0  0  0  0  0  0
   -0.1880   -1.8360    0.0930 C   0  0  0  0  0  0  0  0  0  0  0  0
   -0.6970   -2.9920    0.0940 O   0  0  0  0  0  0  0  0  0  0  0  0
    1.1730   -1.7110   -0.0060 O   0  0  0  0  0  0  0  0  0  0  0  0
  1  2  1  0
  2  3  2  3
  3  4  1  0
  3 14  1  0
  4  5  1  0
  5  6  1  0
  6  7  1  0
  6  8  2  0
  8  9  1  0
  8 12  1  0
  9 10  1  0
  9 11  2  0
 12 13  2  0
 12 14  1  0
M  END
