
     RDKit          3D

 14 15  0  0  0  0  0  0  0  0999 V2000
    3.5600    1.1020    0.9350 C   0  0  0  0  0  0  0  0  0  0  0  0
    2.4020    0.3110    0.4380 C   0  0  0  0  0  0  0  0  0  0  0  0
    1.1590    0.6830    0.3270 C   0  0  0  0  0  0  0  0  0  0  0  0
    0.3250   -0.3720   -0.1980 N   0  0  0  0  0  0  0  0  0  0  0  0
   -1.0870   -0.2710   -0.4350 C   0  0  0  0  0  0  0  0  0  0  0  0
   -1.7260   -0.4170   -1.5820 C   0  0  0  0  0  0  0  0  0  0  0  0
   -3.1760   -0.2260   -1.3500 C   0  0  0  0  0  0  0  0  0  0  0  0
   -3.2800    0.0480    0.0820 C   0  0  0  0  0  0  0  0  0  0  0  0
   -2.0710    0.0190    0.5960 C   0  0  0  0  0  0  0  0  0  0  0  0
   -1.7910    0.2380    1.9480 O   0  0  0  0  0  0  0  0  0  0  0  0
    1.1590   -1.4960   -0.4270 C   0  0  0  0  0  0  0  0  0  0  0  0
    0.7950   -2.6020   -0.8800 O   0  0  0  0  0  0  0  0  0  0  0  0
    2.4980   -1.0900   -0.0290 C   0  0  0  0  0  0  0  0  0  0  0  0
    3.5400   -1.7740   -0.0650 O   0  0  0  0  0  0  0  0  0  0  0  0
  1  2  1  0
  2  3  2  0
  2 13  1  0
  3  4  1  0
  4  5  1  0
  4 11  1  0
  5  6  2  0
  5  9  1  0
  6  7  1  0
  7  8  1  0
  8  9  2  0
  9 10  1  0
 11 12  2  0
 11 13  1  0
 13 14  2  0
M  END
