
     RDKit          3D

 24 24  0  0  0  0  0  0  0  0999 V2000
    7.0310    2.1060    0.7830 C   0  0  0  0  0  0  0  0  0  0  0  0
    5.7910    1.5230    0.3910 O   0  0  0  0  0  0  0  0  0  0  0  0
    5.6770    0.7920   -0.7790 C   0  0  0  0  0  0  0  0  0  0  0  0
    6.6760    0.6340   -1.5140 O   0  0  0  0  0  0  0  0  0  0  0  0
    4.4050    0.1850   -1.1980 C   0  0  0  0  0  0  0  0  0  0  0  0
    3.3340    0.3320   -0.4480 C   0  0  0  0  0  0  0  0  0  0  0  0
    3.4010    1.0690    0.7510 O   0  0  0  0  0  0  0  0  0  0  0  0
    2.0740   -0.2650   -0.8470 C   0  0  0  0  0  0  0  0  0  0  0  0
    2.0110   -1.0040   -2.0170 O   0  0  0  0  0  0  0  0  0  0  0  0
    2.4070   -2.3360   -2.1340 C   0  0  0  0  0  0  0  0  0  0  0  0
    0.9700   -0.1150   -0.1020 C   0  0  0  0  0  0  0  0  0  0  0  0
    1.1080    0.6360    1.0700 N   0  0  0  0  0  0  0  0  0  0  0  0
   -0.2780   -0.6480   -0.5510 C   0  0  0  0  0  0  0  0  0  0  0  0
   -0.1630   -1.2210   -1.7420 O   0  0  0  0  0  0  0  0  0  0  0  0
   -1.5390   -0.6560    0.0380 N   0  0  0  0  0  0  0  0  0  0  0  0
   -2.6390   -1.2330   -0.8040 C   0  0  0  0  0  0  0  0  0  0  0  0
   -3.7770   -0.2480   -0.8450 C   0  0  1  0  0  0  0  0  0  0  0  0
   -3.9400    0.0610   -2.2230 O   0  0  0  0  0  0  0  0  0  0  0  0
   -5.0730   -0.9380   -0.4550 C   0  0  0  0  0  0  0  0  0  0  0  0
   -6.2170   -0.0930   -0.6560 N   0  0  0  0  0  0  0  0  0  0  0  0
   -3.6100    1.0210   -0.1310 C   0  0  0  0  0  0  0  0  0  0  0  0
   -2.6810    1.1250    1.0120 C   0  0  0  0  0  0  0  0  0  0  0  0
   -2.0280   -0.2250    1.2920 C   0  0  2  0  0  0  0  0  0  0  0  0
   -1.1930   -0.2840    2.4960 C   0  0  0  0  0  0  0  0  0  0  0  0
  1  2  1  0
  2  3  1  0
  3  4  2  0
  3  5  1  0
  5  6  2  3
  6  7  1  0
  6  8  1  0
  8  9  1  0
  8 11  2  3
  9 10  1  0
 11 12  1  0
 11 13  1  0
 13 14  2  0
 13 15  1  0
 15 16  1  0
 15 23  1  0
 16 17  1  0
 17 18  1  6
 17 19  1  0
 17 21  1  0
 19 20  1  0
 21 22  1  0
 22 23  1  0
 23 24  1  1
M  END
