
     RDKit          3D

 17 18  0  0  0  0  0  0  0  0999 V2000
   -3.3320    2.1120   -1.5390 O   0  0  0  0  0  0  0  0  0  0  0  0
   -2.7590    1.1400   -0.7280 C   0  0  0  0  0  0  0  0  0  0  0  0
   -3.4740   -0.0280   -0.4790 C   0  0  0  0  0  0  0  0  0  0  0  0
   -2.9300   -1.0090    0.3220 C   0  0  0  0  0  0  0  0  0  0  0  0
   -3.6520   -2.1730    0.5650 O   0  0  0  0  0  0  0  0  0  0  0  0
   -1.6730   -0.8090    0.8660 C   0  0  0  0  0  0  0  0  0  0  0  0
   -0.9330    0.3350    0.6440 C   0  0  0  0  0  0  0  0  0  0  0  0
    0.3280    0.5360    1.1890 O   0  0  0  0  0  0  0  0  0  0  0  0
    1.5010    0.1690    0.5860 C   0  0  0  0  0  0  0  0  0  0  0  0
    1.5990   -0.4520   -0.6420 C   0  0  0  0  0  0  0  0  0  0  0  0
    2.8330   -0.7940   -1.1860 C   0  0  0  0  0  0  0  0  0  0  0  0
    4.0110   -0.5260   -0.5190 C   0  0  0  0  0  0  0  0  0  0  0  0
    5.5480   -0.9690   -1.2300 Cl  0  0  0  0  0  0  0  0  0  0  0  0
    3.9170    0.0940    0.7090 C   0  0  0  0  0  0  0  0  0  0  0  0
    5.4110    0.4360    1.5610 Cl  0  0  0  0  0  0  0  0  0  0  0  0
    2.6820    0.4330    1.2480 C   0  0  0  0  0  0  0  0  0  0  0  0
   -1.5090    1.2930   -0.1620 C   0  0  0  0  0  0  0  0  0  0  0  0
  1  2  1  0
  2  3  2  0
  2 17  1  0
  3  4  1  0
  4  5  1  0
  4  6  2  0
  6  7  1  0
  7  8  1  0
  7 17  2  0
  8  9  1  0
  9 10  2  0
  9 16  1  0
 10 11  1  0
 11 12  2  0
 12 13  1  0
 12 14  1  0
 14 15  1  0
 14 16  2  0
M  END
