
     RDKit          3D

 14 15  0  0  0  0  0  0  0  0999 V2000
    4.1510    1.4620    0.3590 C   0  0  0  0  0  0  0  0  0  0  0  0
    2.7500    1.2170    0.2990 O   0  0  0  0  0  0  0  0  0  0  0  0
    2.3070   -0.0940    0.1100 C   0  0  0  0  0  0  0  0  0  0  0  0
    3.1340   -1.0460   -0.0040 O   0  0  0  0  0  0  0  0  0  0  0  0
    0.8950   -0.4210    0.0390 C   0  0  0  0  0  0  0  0  0  0  0  0
    0.1240    0.5990    0.1640 N   0  0  0  0  0  0  0  0  0  0  0  0
   -1.3180    0.6410    0.1420 C   0  0  0  0  0  0  0  0  0  0  0  0
   -2.0390    1.6600    0.5740 C   0  0  0  0  0  0  0  0  0  0  0  0
   -3.4610    1.3340    0.3890 C   0  0  0  0  0  0  0  0  0  0  0  0
   -3.4280   -0.0170   -0.2090 C   0  0  0  0  0  0  0  0  0  0  0  0
   -2.1870   -0.4170   -0.3520 C   0  0  0  0  0  0  0  0  0  0  0  0
   -1.7890   -1.6590   -0.8910 O   0  0  0  0  0  0  0  0  0  0  0  0
   -0.4720   -2.0320   -1.2730 C   0  0  0  0  0  0  0  0  0  0  0  0
    0.5240   -1.8210   -0.1610 C   0  0  0  0  0  0  0  0  0  0  0  0
  1  2  1  0
  2  3  1  0
  3  4  2  0
  3  5  1  0
  5  6  2  0
  5 14  1  0
  6  7  1  0
  7  8  2  0
  7 11  1  0
  8  9  1  0
  9 10  1  0
 10 11  2  0
 11 12  1  0
 12 13  1  0
 13 14  1  0
M  END
