
     RDKit          3D

 25 26  0  0  0  0  0  0  0  0999 V2000
   -2.2740    2.9020   -2.0250 C   0  0  0  0  0  0  0  0  0  0  0  0
   -2.2190    1.7190   -1.2120 O   0  0  0  0  0  0  0  0  0  0  0  0
   -1.2520    1.5790   -0.2280 C   0  0  0  0  0  0  0  0  0  0  0  0
   -0.4410    2.5220   -0.0860 O   0  0  0  0  0  0  0  0  0  0  0  0
   -1.1810    0.3670    0.6180 C   0  0  1  0  0  0  0  0  0  0  0  0
   -1.0900    0.7720    2.0560 C   0  0  0  0  0  0  0  0  0  0  0  0
   -2.1640   -0.5650    0.3290 O   0  0  0  0  0  0  0  0  0  0  0  0
   -3.5190   -0.3760    0.4010 C   0  0  0  0  0  0  0  0  0  0  0  0
   -3.8970    0.7650    0.7710 O   0  0  0  0  0  0  0  0  0  0  0  0
   -4.5230   -1.4210    0.0760 C   0  0  1  0  0  0  0  0  0  0  0  0
   -5.4810   -0.9760   -0.9960 C   0  0  0  0  0  0  0  0  0  0  0  0
   -3.9170   -2.6600   -0.3260 N   0  0  0  0  0  0  0  0  0  0  0  0
    0.1460   -0.3080    0.3000 C   0  0  0  0  0  0  0  0  0  0  0  0
    0.0900   -1.4680   -0.1620 O   0  0  0  0  0  0  0  0  0  0  0  0
    1.3540    0.3640    0.5270 N   0  0  0  0  0  0  0  0  0  0  0  0
    2.6280   -0.1810    0.2550 C   0  0  0  0  0  0  0  0  0  0  0  0
    2.8770   -1.3090   -0.4840 C   0  0  0  0  0  0  0  0  0  0  0  0
    4.1680   -1.7570   -0.6670 C   0  0  0  0  0  0  0  0  0  0  0  0
    5.2500   -1.1040   -0.1260 C   0  0  0  0  0  0  0  0  0  0  0  0
    6.5230   -1.3110   -0.1470 O   0  0  0  0  0  0  0  0  0  0  0  0
    7.0880   -0.3520    0.5530 C   0  0  0  0  0  0  0  0  0  0  0  0
    8.3340   -0.2510    0.7360 O   0  0  0  0  0  0  0  0  0  0  0  0
    6.1760    0.4880    1.0360 N   0  0  0  0  0  0  0  0  0  0  0  0
    4.9780    0.0330    0.6180 C   0  0  0  0  0  0  0  0  0  0  0  0
    3.7140    0.5040    0.8180 C   0  0  0  0  0  0  0  0  0  0  0  0
  1  2  1  0
  2  3  1  0
  3  4  2  0
  3  5  1  0
  5  6  1  1
  5  7  1  0
  5 13  1  0
  7  8  1  0
  8  9  2  0
  8 10  1  0
 10 11  1  6
 10 12  1  0
 13 14  2  0
 13 15  1  0
 15 16  1  0
 16 17  2  0
 16 25  1  0
 17 18  1  0
 18 19  2  0
 19 20  1  0
 19 24  1  0
 20 21  1  0
 21 22  2  0
 21 23  1  0
 23 24  1  0
 24 25  2  0
M  END
