
     RDKit          3D

 24 25  0  0  0  0  0  0  0  0999 V2000
   -0.9160    1.0960    2.7570 O   0  0  0  0  0  0  0  0  0  0  0  0
   -0.7370    0.0940    1.6920 S   0  0  2  0  0  0  0  0  0  0  0  0
   -0.2190   -1.1730    2.3960 O   0  0  0  0  0  0  0  0  0  0  0  0
    0.4280    0.5890    0.5170 N   0  0  0  0  0  0  0  0  0  0  0  0
    0.6900   -0.5310   -0.3670 C   0  0  0  0  0  0  0  0  0  0  0  0
    1.7210   -0.1160   -1.4180 C   0  0  0  0  0  0  0  0  0  0  0  0
    2.9530    0.2740   -0.6230 C   0  0  0  0  0  0  0  0  0  0  0  0
    3.4060    1.4810   -0.7320 C   0  0  0  0  0  0  0  0  0  0  0  0
    4.5520    2.1270   -0.1000 C   0  0  0  0  0  0  0  0  0  0  0  0
    5.4110    0.9910    0.9870 S   0  0  0  0  0  0  0  0  0  0  0  0
    4.5710   -0.5680    0.9340 C   0  0  0  0  0  0  0  0  0  0  0  0
    5.0570   -1.5710    1.6850 F   0  0  0  0  0  0  0  0  0  0  0  0
    3.5080   -0.7800    0.2000 C   0  0  0  0  0  0  0  0  0  0  0  0
   -2.2040   -0.3370    0.8490 C   0  0  0  0  0  0  0  0  0  0  0  0
   -2.5650   -1.5730    0.4680 C   0  0  0  0  0  0  0  0  0  0  0  0
   -3.8450   -1.5540   -0.2020 C   0  0  0  0  0  0  0  0  0  0  0  0
   -4.5810   -2.7400   -0.7740 C   0  0  1  0  0  0  0  0  0  0  0  0
   -5.7590   -2.3180   -1.3270 F   0  0  0  0  0  0  0  0  0  0  0  0
   -3.7970   -3.2540   -1.7940 F   0  0  0  0  0  0  0  0  0  0  0  0
   -4.7740   -3.6950    0.2040 F   0  0  0  0  0  0  0  0  0  0  0  0
   -4.2530   -0.3390   -0.2270 N   0  0  0  0  0  0  0  0  0  0  0  0
   -3.2840    0.5220    0.4150 C   0  0  0  0  0  0  0  0  0  0  0  0
   -3.4290    1.8280    0.5120 C   0  0  0  0  0  0  0  0  0  0  0  0
   -2.2560    2.9190    1.2450 S   0  0  0  0  0  0  0  0  0  0  0  0
  1  2  2  0
  2  3  2  0
  2  4  1  6
  2 14  1  0
  4  5  1  0
  5  6  1  0
  6  7  1  0
  7  8  2  0
  7 13  1  0
  8  9  1  0
  9 10  1  0
 10 11  1  0
 11 12  1  0
 11 13  2  0
 14 15  2  0
 14 22  1  0
 15 16  1  0
 16 17  1  0
 16 21  2  0
 17 18  1  6
 17 19  1  0
 17 20  1  0
 21 22  1  0
 22 23  2  3
 23 24  1  0
M  END
