
     RDKit          3D

 24 26  0  0  0  0  0  0  0  0999 V2000
    1.3760   -0.1030   -2.2590 O   0  0  0  0  0  0  0  0  0  0  0  0
    0.6920   -0.3460   -1.2350 C   0  0  0  0  0  0  0  0  0  0  0  0
    1.3240   -0.2410   -0.0020 N   0  0  0  0  0  0  0  0  0  0  0  0
    2.7170    0.1430    0.1560 C   0  0  0  0  0  0  0  0  0  0  0  0
    3.6040    0.4540   -0.7510 C   0  0  0  0  0  0  0  0  0  0  0  0
    4.8970    0.7750   -0.0880 C   0  0  0  0  0  0  0  0  0  0  0  0
    4.6340    0.6060    1.3550 C   0  0  0  0  0  0  0  0  0  0  0  0
    3.3760    0.2420    1.4730 C   0  0  0  0  0  0  0  0  0  0  0  0
    2.7770   -0.0080    2.6590 F   0  0  0  0  0  0  0  0  0  0  0  0
   -0.6970   -0.7200   -1.4110 C   0  0  0  0  0  0  0  0  0  0  0  0
   -1.3430   -0.8890   -3.0710 S   0  0  0  0  0  0  0  0  0  0  0  0
   -2.9700   -1.3560   -2.5440 C   0  0  0  0  0  0  0  0  0  0  0  0
   -4.6370   -1.8310   -3.0160 S   0  0  0  0  0  0  0  0  0  0  0  0
   -5.1910   -2.0040   -1.2760 C   0  0  0  0  0  0  0  0  0  0  0  0
   -6.3490   -2.3400   -1.0040 O   0  0  0  0  0  0  0  0  0  0  0  0
   -4.1220   -1.7030   -0.5890 N   0  0  0  0  0  0  0  0  0  0  0  0
   -2.9550   -1.3640   -1.0930 C   0  0  0  0  0  0  0  0  0  0  0  0
   -1.7160   -1.0140   -0.6120 C   0  0  0  0  0  0  0  0  0  0  0  0
   -1.3810   -0.8520    1.2140 S   0  0  0  0  0  0  0  0  0  0  0  0
   -1.8630    0.7680    1.7880 C   0  0  0  0  0  0  0  0  0  0  0  0
   -1.0490    1.8930    1.2710 C   0  0  1  0  0  0  0  0  0  0  0  0
   -1.0260    2.0500   -0.0790 F   0  0  0  0  0  0  0  0  0  0  0  0
   -1.6690    3.0710    1.7620 F   0  0  0  0  0  0  0  0  0  0  0  0
    0.2290    1.9600    1.8340 F   0  0  0  0  0  0  0  0  0  0  0  0
  1  2  2  0
  2  3  1  0
  2 10  1  0
  3  4  1  0
  4  5  2  0
  4  8  1  0
  5  6  1  0
  6  7  1  0
  7  8  2  0
  8  9  1  0
 10 11  1  0
 10 18  2  0
 11 12  1  0
 12 13  1  0
 12 17  2  0
 13 14  1  0
 14 15  2  0
 14 16  1  0
 16 17  1  0
 17 18  1  0
 18 19  1  0
 19 20  1  0
 20 21  1  0
 21 22  1  6
 21 23  1  0
 21 24  1  0
M  END
