
     RDKit          3D

 24 25  0  0  0  0  0  0  0  0999 V2000
    1.1450    2.0730   -3.0460 O   0  0  0  0  0  0  0  0  0  0  0  0
    0.9870    0.7000   -2.3980 S   0  0  2  0  0  0  0  0  0  0  0  0
    1.1770   -0.2960   -3.4760 O   0  0  0  0  0  0  0  0  0  0  0  0
   -0.5790    0.6150   -1.6490 N   0  0  0  0  0  0  0  0  0  0  0  0
   -1.0320   -0.5230   -0.9290 C   0  0  0  0  0  0  0  0  0  0  0  0
   -0.5370   -1.7510   -1.2900 C   0  0  0  0  0  0  0  0  0  0  0  0
   -0.9560   -2.8980   -0.6490 C   0  0  0  0  0  0  0  0  0  0  0  0
   -1.8790   -2.7910    0.3600 C   0  0  0  0  0  0  0  0  0  0  0  0
   -2.3740   -1.5210    0.7150 C   0  0  0  0  0  0  0  0  0  0  0  0
   -1.9780   -0.3630    0.0980 C   0  0  0  0  0  0  0  0  0  0  0  0
   -2.4110    0.9170    0.4340 N   0  0  0  0  0  0  0  0  0  0  0  0
   -3.4020    1.3010    1.3470 C   0  0  0  0  0  0  0  0  0  0  0  0
   -4.3190    0.3080    2.2420 S   0  0  0  0  0  0  0  0  0  0  0  0
   -3.6810    2.7700    1.5350 C   0  0  1  0  0  0  0  0  0  0  0  0
   -2.4790    3.3470    1.9630 F   0  0  0  0  0  0  0  0  0  0  0  0
   -4.1660    3.3600    0.4090 F   0  0  0  0  0  0  0  0  0  0  0  0
   -4.5730    2.9620    2.5610 F   0  0  0  0  0  0  0  0  0  0  0  0
    2.1530    0.5400   -1.1020 C   0  0  0  0  0  0  0  0  0  0  0  0
    2.7270   -0.5020   -0.5970 C   0  0  0  0  0  0  0  0  0  0  0  0
    3.6550   -0.2900    0.4830 C   0  0  0  0  0  0  0  0  0  0  0  0
    3.9780   -1.1410    1.4600 C   0  0  0  0  0  0  0  0  0  0  0  0
    3.3850   -2.3500    1.4670 F   0  0  0  0  0  0  0  0  0  0  0  0
    4.2930    1.0770    0.4320 C   0  0  0  0  0  0  0  0  0  0  0  0
    2.8010    1.9660   -0.2020 S   0  0  0  0  0  0  0  0  0  0  0  0
  1  2  2  0
  2  3  2  0
  2  4  1  1
  2 18  1  0
  4  5  1  0
  5  6  2  0
  5 10  1  0
  6  7  1  0
  7  8  2  0
  8  9  1  0
  9 10  2  0
 10 11  1  0
 11 12  1  0
 12 13  2  0
 12 14  1  0
 14 15  1  1
 14 16  1  0
 14 17  1  0
 18 19  2  0
 18 24  1  0
 19 20  1  0
 20 21  2  3
 20 23  1  0
 21 22  1  0
 23 24  1  0
M  END
