
     RDKit          3D

 23 25  0  0  0  0  0  0  0  0999 V2000
    3.4670    1.0860    0.0020 C   0  0  0  0  0  0  0  0  0  0  0  0
    3.0040   -0.3260    0.2660 C   0  0  1  0  0  0  0  0  0  0  0  0
    1.9440   -0.8990   -1.1070 S   0  0  0  0  0  0  0  0  0  0  0  0
    0.4760    0.0620   -1.0960 C   0  0  0  0  0  0  0  0  0  0  0  0
    0.2620    1.6310   -1.9950 S   0  0  0  0  0  0  0  0  0  0  0  0
   -1.3840    1.8910   -1.4750 C   0  0  0  0  0  0  0  0  0  0  0  0
   -2.2550    2.9510   -1.7580 C   0  0  0  0  0  0  0  0  0  0  0  0
   -1.8110    3.8430   -2.5110 O   0  0  0  0  0  0  0  0  0  0  0  0
   -3.4820    2.9660   -1.2310 N   0  0  0  0  0  0  0  0  0  0  0  0
   -3.7970    1.9340   -0.4460 C   0  0  0  0  0  0  0  0  0  0  0  0
   -5.3200    1.9130    0.2330 S   0  0  0  0  0  0  0  0  0  0  0  0
   -2.9740    0.9130   -0.1680 N   0  0  0  0  0  0  0  0  0  0  0  0
   -1.6930    0.8300   -0.6780 C   0  0  0  0  0  0  0  0  0  0  0  0
   -0.7380   -0.1130   -0.4840 C   0  0  0  0  0  0  0  0  0  0  0  0
   -0.8650   -1.3420    0.3820 C   0  0  0  0  0  0  0  0  0  0  0  0
   -1.9550   -1.9730    0.8470 C   0  0  0  0  0  0  0  0  0  0  0  0
   -1.5320   -3.0750    1.6030 C   0  0  0  0  0  0  0  0  0  0  0  0
   -0.1630   -3.0470    1.5490 C   0  0  0  0  0  0  0  0  0  0  0  0
    0.1770   -2.0230    0.8290 O   0  0  0  0  0  0  0  0  0  0  0  0
    4.1600   -1.2500    0.4900 C   0  0  2  0  0  0  0  0  0  0  0  0
    4.8550   -0.7610    1.5980 F   0  0  0  0  0  0  0  0  0  0  0  0
    4.9890   -1.3600   -0.5920 F   0  0  0  0  0  0  0  0  0  0  0  0
    3.6540   -2.4840    0.8970 F   0  0  0  0  0  0  0  0  0  0  0  0
  2  1  1  6
  2  3  1  0
  2 20  1  0
  3  4  1  0
  4  5  1  0
  4 14  2  0
  5  6  1  0
  6  7  1  0
  6 13  2  0
  7  8  2  0
  7  9  1  0
  9 10  1  0
 10 11  2  0
 10 12  1  0
 12 13  1  0
 13 14  1  0
 14 15  1  0
 15 16  2  0
 15 19  1  0
 16 17  1  0
 17 18  2  0
 18 19  1  0
 20 21  1  1
 20 22  1  0
 20 23  1  0
M  END
