
     RDKit          3D

 24 26  0  0  0  0  0  0  0  0999 V2000
   -1.2390   -1.6850    1.5830 O   0  0  0  0  0  0  0  0  0  0  0  0
   -0.5000   -1.1270    0.7430 C   0  0  0  0  0  0  0  0  0  0  0  0
    0.7900   -1.7180    0.5850 N   0  0  0  0  0  0  0  0  0  0  0  0
    1.9780   -0.9920    0.2230 C   0  0  0  0  0  0  0  0  0  0  0  0
    3.0870   -1.8010    0.2460 C   0  0  0  0  0  0  0  0  0  0  0  0
    4.3470   -1.2920   -0.0690 C   0  0  0  0  0  0  0  0  0  0  0  0
    4.4560    0.0460   -0.4040 C   0  0  0  0  0  0  0  0  0  0  0  0
    3.3200    0.8360   -0.4180 C   0  0  0  0  0  0  0  0  0  0  0  0
    2.0720    0.3450   -0.1090 C   0  0  0  0  0  0  0  0  0  0  0  0
    1.0280    1.3010   -0.1810 N   0  0  0  0  0  0  0  0  0  0  0  0
   -0.4250    1.1260   -0.3430 C   0  0  0  0  0  0  0  0  0  0  0  0
   -1.0930    0.0600    0.0560 C   0  0  0  0  0  0  0  0  0  0  0  0
   -2.8070    0.0280   -0.3570 S   0  0  2  0  0  0  0  0  0  0  0  0
   -3.4240   -1.4190   -1.0680 C   0  0  0  0  0  0  0  0  0  0  0  0
   -3.3180   -1.5600   -2.2900 O   0  0  0  0  0  0  0  0  0  0  0  0
   -4.0730   -2.4980   -0.2960 C   0  0  2  0  0  0  0  0  0  0  0  0
   -4.9090   -1.9200    0.6630 F   0  0  0  0  0  0  0  0  0  0  0  0
   -3.2130   -3.3420    0.3070 F   0  0  0  0  0  0  0  0  0  0  0  0
   -4.9050   -3.2570   -1.1640 F   0  0  0  0  0  0  0  0  0  0  0  0
   -2.5340    1.5290   -1.9140 S   0  0  0  0  0  0  0  0  0  0  0  0
   -1.1680    2.2260   -0.9120 C   0  0  0  0  0  0  0  0  0  0  0  0
   -1.0590    3.5110   -0.7970 C   0  0  0  0  0  0  0  0  0  0  0  0
    0.1810    4.2670    0.2140 S   0  0  0  0  0  0  0  0  0  0  0  0
   -0.5580    5.4800    1.1770 F   0  0  0  0  0  0  0  0  0  0  0  0
  1  2  2  0
  2  3  1  0
  2 12  1  0
  3  4  1  0
  4  5  2  0
  4  9  1  0
  5  6  1  0
  6  7  2  0
  7  8  1  0
  8  9  2  0
  9 10  1  0
 10 11  1  0
 11 12  2  0
 11 21  1  0
 12 13  1  0
 13 14  1  6
 13 20  1  0
 14 15  2  0
 14 16  1  0
 16 17  1  1
 16 18  1  0
 16 19  1  0
 20 21  1  0
 21 22  2  3
 22 23  1  0
 23 24  1  0
M  END
