
     RDKit          3D

 20 20  0  0  0  0  0  0  0  0999 V2000
   -0.6580    0.1330    2.4590 O   0  0  0  0  0  0  0  0  0  0  0  0
   -0.9010    0.4520    1.2690 C   0  0  0  0  0  0  0  0  0  0  0  0
   -2.3490    0.5980    0.8940 C   0  0  0  0  0  0  0  0  0  0  0  0
   -2.3880    0.9490   -0.4400 O   0  0  0  0  0  0  0  0  0  0  0  0
   -3.6870    1.1140   -0.8550 C   0  0  0  0  0  0  0  0  0  0  0  0
   -4.5490   -0.1070   -0.7230 C   0  0  2  0  0  0  0  0  0  0  0  0
   -4.0150   -1.1570   -1.4770 O   0  0  0  0  0  0  0  0  0  0  0  0
   -5.9610    0.2060   -1.2420 C   0  0  0  0  0  0  0  0  0  0  0  0
   -6.7650   -0.9240   -1.1130 O   0  0  0  0  0  0  0  0  0  0  0  0
    0.1110    0.6600    0.3500 O   0  0  0  0  0  0  0  0  0  0  0  0
    1.4610    0.5220    0.7030 C   0  0  0  0  0  0  0  0  0  0  0  0
    1.7680   -0.8830    1.1730 C   0  0  0  0  0  0  0  0  0  0  0  0
    3.1560   -0.9780    1.5210 O   0  0  0  0  0  0  0  0  0  0  0  0
    4.0850   -0.7140    0.5350 C   0  0  0  0  0  0  0  0  0  0  0  0
    4.4070   -1.6770   -0.3050 C   0  0  0  0  0  0  0  0  0  0  0  0
    5.3950   -1.4740   -1.3900 C   0  0  0  0  0  0  0  0  0  0  0  0
    5.9150   -0.1740   -1.3970 O   0  0  0  0  0  0  0  0  0  0  0  0
    5.6080    0.8490   -0.5480 C   0  0  0  0  0  0  0  0  0  0  0  0
    4.7060    0.5900    0.4080 C   0  0  0  0  0  0  0  0  0  0  0  0
    4.3860    1.6220    1.2770 O   0  0  0  0  0  0  0  0  0  0  0  0
  1  2  2  0
  2  3  1  0
  2 10  1  0
  3  4  1  0
  4  5  1  0
  5  6  1  0
  6  7  1  6
  6  8  1  0
  8  9  1  0
 10 11  1  0
 11 12  1  0
 12 13  1  0
 13 14  1  0
 14 15  2  0
 14 19  1  0
 15 16  1  0
 16 17  1  0
 17 18  1  0
 18 19  2  0
 19 20  1  0
M  END
