
     RDKit          3D

 20 19  0  0  0  0  0  0  0  0999 V2000
   -2.8360   -3.0780    1.4140 C   0  0  0  0  0  0  0  0  0  0  0  0
   -2.2380   -1.8120    1.3810 O   0  0  0  0  0  0  0  0  0  0  0  0
   -1.7630   -1.1790    0.2670 C   0  0  0  0  0  0  0  0  0  0  0  0
   -1.8600   -1.7640   -0.8420 O   0  0  0  0  0  0  0  0  0  0  0  0
   -1.1310    0.1720    0.2670 C   0  0  1  0  0  0  0  0  0  0  0  0
   -1.0860    0.7080    1.5530 O   0  0  0  0  0  0  0  0  0  0  0  0
    0.2870   -0.0360   -0.2740 C   0  0  0  0  0  0  0  0  0  0  0  0
    0.9710   -1.0000    0.6720 C   0  0  0  0  0  0  0  0  0  0  0  0
    2.3890   -1.2390    0.1740 C   0  0  0  0  0  0  0  0  0  0  0  0
    3.0200    0.0020    0.1690 O   0  0  0  0  0  0  0  0  0  0  0  0
    4.3250   -0.0870   -0.2680 C   0  0  1  0  0  0  0  0  0  0  0  0
    4.5760    0.8340   -1.4390 C   0  0  0  0  0  0  0  0  0  0  0  0
    5.2120    0.3770    0.8400 C   0  0  0  0  0  0  0  0  0  0  0  0
    6.4610    0.3920    0.6910 O   0  0  0  0  0  0  0  0  0  0  0  0
    4.7040    0.8030    2.0590 O   0  0  0  0  0  0  0  0  0  0  0  0
   -1.8970    1.1430   -0.5970 C   0  0  0  0  0  0  0  0  0  0  0  0
   -3.2980    1.2360   -0.0290 C   0  0  2  0  0  0  0  0  0  0  0  0
   -3.9270    0.0130   -0.0370 O   0  0  0  0  0  0  0  0  0  0  0  0
   -4.1040    2.2440   -0.8580 C   0  0  0  0  0  0  0  0  0  0  0  0
   -4.2330    1.8380   -2.1650 O   0  0  0  0  0  0  0  0  0  0  0  0
  1  2  1  0
  2  3  1  0
  3  4  2  0
  3  5  1  0
  5  6  1  1
  5  7  1  0
  5 16  1  0
  7  8  1  0
  8  9  1  0
  9 10  1  0
 10 11  1  0
 11 12  1  6
 11 13  1  0
 13 14  2  0
 13 15  1  0
 16 17  1  0
 17 18  1  6
 17 19  1  0
 19 20  1  0
M  END
