
     RDKit          3D

 20 19  0  0  0  0  0  0  0  0999 V2000
    4.8650    0.1620    0.9960 C   0  0  0  0  0  0  0  0  0  0  0  0
    3.8810    0.8270    1.6920 O   0  0  0  0  0  0  0  0  0  0  0  0
    3.3470    1.8850    0.9550 C   0  0  0  0  0  0  0  0  0  0  0  0
    2.7430    1.3760   -0.3190 C   0  0  0  0  0  0  0  0  0  0  0  0
    1.7000    0.4440   -0.0460 O   0  0  0  0  0  0  0  0  0  0  0  0
    0.9800   -0.1800   -1.0500 C   0  0  0  0  0  0  0  0  0  0  0  0
    1.3270    0.1470   -2.2210 O   0  0  0  0  0  0  0  0  0  0  0  0
   -0.0900   -1.1380   -0.8170 C   0  0  2  0  0  0  0  0  0  0  0  0
    0.3640   -2.2600    0.0190 C   0  0  0  0  0  0  0  0  0  0  0  0
   -0.4150   -1.6830   -2.1040 O   0  0  0  0  0  0  0  0  0  0  0  0
   -1.4340   -0.5090   -0.3920 C   0  0  1  0  0  0  0  0  0  0  0  0
   -2.3920   -1.6670   -0.2050 C   0  0  0  0  0  0  0  0  0  0  0  0
   -2.0010   -2.5770    0.7530 O   0  0  0  0  0  0  0  0  0  0  0  0
   -1.2010    0.1920    0.8810 C   0  0  0  0  0  0  0  0  0  0  0  0
   -2.2880    0.9210    1.5570 C   0  0  0  0  0  0  0  0  0  0  0  0
   -1.7420    1.4160    2.7930 O   0  0  0  0  0  0  0  0  0  0  0  0
   -1.8680    0.2680   -1.5750 C   0  0  0  0  0  0  0  0  0  0  0  0
   -3.1480    0.9400   -1.5700 C   0  0  0  0  0  0  0  0  0  0  0  0
   -4.0590    0.7720   -0.7260 O   0  0  0  0  0  0  0  0  0  0  0  0
   -3.4870    1.8840   -2.5650 O   0  0  0  0  0  0  0  0  0  0  0  0
  1  2  1  0
  2  3  1  0
  3  4  1  0
  4  5  1  0
  5  6  1  0
  6  7  2  0
  6  8  1  0
  8  9  1  1
  8 10  1  0
  8 11  1  0
 11 12  1  1
 11 14  1  0
 11 17  1  0
 12 13  1  0
 14 15  1  0
 15 16  1  0
 17 18  1  0
 18 19  2  0
 18 20  1  0
M  END
