
     RDKit          3D

 15 16  0  0  0  0  0  0  0  0999 V2000
    3.6060    0.0710   -0.8470 O   0  0  0  0  0  0  0  0  0  0  0  0
    3.0260   -0.0540    0.2520 C   0  0  0  0  0  0  0  0  0  0  0  0
    3.8040   -0.3640    1.3670 O   0  0  0  0  0  0  0  0  0  0  0  0
    1.5880    0.1250    0.3310 C   0  0  0  0  0  0  0  0  0  0  0  0
    0.9200    0.0040    1.4750 C   0  0  0  0  0  0  0  0  0  0  0  0
   -0.5790   -0.0300    1.3370 C   0  0  1  0  0  0  0  0  0  0  0  0
   -0.9930    1.2430    1.1100 O   0  0  0  0  0  0  0  0  0  0  0  0
   -2.2320    1.4110    0.5730 C   0  0  0  0  0  0  0  0  0  0  0  0
   -2.2340    1.1770   -0.9220 C   0  0  0  0  0  0  0  0  0  0  0  0
   -1.4880    0.3360   -1.6270 C   0  0  0  0  0  0  0  0  0  0  0  0
   -0.3700   -0.4800   -1.0850 C   0  0  1  0  0  0  0  0  0  0  0  0
   -0.0020   -1.5120   -1.9350 O   0  0  0  0  0  0  0  0  0  0  0  0
    0.8060    0.4530   -0.8770 C   0  0  0  0  0  0  0  0  0  0  0  0
   -0.8690   -1.0210    0.2580 C   0  0  1  0  0  0  0  0  0  0  0  0
   -0.1890   -2.2030    0.5670 O   0  0  0  0  0  0  0  0  0  0  0  0
  1  2  2  0
  2  3  1  0
  2  4  1  0
  4  5  2  0
  4 13  1  0
  5  6  1  0
  6  7  1  6
  6 14  1  0
  7  8  1  0
  8  9  1  0
  9 10  2  0
 10 11  1  0
 11 12  1  6
 11 13  1  0
 11 14  1  0
 14 15  1  1
M  END
