
     RDKit          3D

 20 19  0  0  0  0  0  0  0  0999 V2000
    3.0240    2.9480   -1.3210 C   0  0  0  0  0  0  0  0  0  0  0  0
    3.1890    2.2900    0.0430 C   0  0  0  0  0  0  0  0  0  0  0  0
    2.4540    1.0900    0.0100 O   0  0  0  0  0  0  0  0  0  0  0  0
    2.3510    0.2020    1.0560 C   0  0  0  0  0  0  0  0  0  0  0  0
    2.9680    0.5080    2.1060 O   0  0  0  0  0  0  0  0  0  0  0  0
    1.5790   -1.0660    1.0280 C   0  0  1  0  0  0  0  0  0  0  0  0
    2.1290   -1.8730   -0.1150 C   0  0  0  0  0  0  0  0  0  0  0  0
    1.8570   -1.7000    2.2540 O   0  0  0  0  0  0  0  0  0  0  0  0
    0.0840   -0.8470    0.8890 C   0  0  2  0  0  0  0  0  0  0  0  0
   -0.2240    0.0190    1.9900 O   0  0  0  0  0  0  0  0  0  0  0  0
   -0.7200   -2.0600    1.1180 C   0  0  0  0  0  0  0  0  0  0  0  0
   -0.5280   -3.2340    0.2400 C   0  0  0  0  0  0  0  0  0  0  0  0
   -0.2080   -0.0890   -0.3260 C   0  0  0  0  0  0  0  0  0  0  0  0
   -1.7060    0.2040   -0.5950 C   0  0  2  0  0  0  0  0  0  0  0  0
   -2.3920   -0.9930   -0.7400 O   0  0  0  0  0  0  0  0  0  0  0  0
   -1.7080    0.8660   -1.9490 C   0  0  0  0  0  0  0  0  0  0  0  0
   -2.9640    1.0990   -2.4770 O   0  0  0  0  0  0  0  0  0  0  0  0
   -2.1030    0.9570    0.4530 O   0  0  0  0  0  0  0  0  0  0  0  0
   -3.3650    1.4060    0.5700 C   0  0  0  0  0  0  0  0  0  0  0  0
   -3.8730    2.2260   -0.3960 O   0  0  0  0  0  0  0  0  0  0  0  0
  1  2  1  0
  2  3  1  0
  3  4  1  0
  4  5  2  0
  4  6  1  0
  6  7  1  6
  6  8  1  0
  6  9  1  0
  9 10  1  1
  9 11  1  0
  9 13  1  0
 11 12  1  0
 13 14  1  0
 14 15  1  6
 14 16  1  0
 14 18  1  0
 16 17  1  0
 18 19  1  0
 19 20  1  0
M  END
