
     RDKit          3D

 20 19  0  0  0  0  0  0  0  0999 V2000
   -2.8520   -3.0870   -0.9060 C   0  0  0  0  0  0  0  0  0  0  0  0
   -1.7880   -2.9390   -0.0570 O   0  0  0  0  0  0  0  0  0  0  0  0
   -1.5690   -1.6170    0.2950 C   0  0  0  0  0  0  0  0  0  0  0  0
   -1.2700   -0.8000   -0.8960 C   0  0  2  0  0  0  0  0  0  0  0  0
   -0.1750   -1.3020   -1.6330 O   0  0  0  0  0  0  0  0  0  0  0  0
   -1.1220    0.6890   -0.6770 C   0  0  1  0  0  0  0  0  0  0  0  0
   -2.4650    1.1470   -0.1370 C   0  0  0  0  0  0  0  0  0  0  0  0
   -2.5650    2.5880    0.1280 C   0  0  0  0  0  0  0  0  0  0  0  0
   -2.7330    3.4110   -0.7920 O   0  0  0  0  0  0  0  0  0  0  0  0
   -2.4740    3.0480    1.4230 O   0  0  0  0  0  0  0  0  0  0  0  0
   -2.5670    4.3670    1.6610 O   0  0  0  0  0  0  0  0  0  0  0  0
   -0.1170    1.0980    0.3140 C   0  0  2  0  0  0  0  0  0  0  0  0
   -0.1590    2.5170    0.3330 O   0  0  0  0  0  0  0  0  0  0  0  0
    1.3110    0.7360    0.1480 C   0  0  2  0  0  0  0  0  0  0  0  0
    2.0400    1.3160    1.3750 C   0  0  0  0  0  0  0  0  0  0  0  0
    1.9690    1.3830   -1.0430 C   0  0  0  0  0  0  0  0  0  0  0  0
    1.5740   -0.5990    0.1220 O   0  0  0  0  0  0  0  0  0  0  0  0
    2.8500   -0.9880   -0.0680 C   0  0  0  0  0  0  0  0  0  0  0  0
    2.8940   -2.5240   -0.0390 C   0  0  0  0  0  0  0  0  0  0  0  0
    4.1980   -2.9780   -0.2320 O   0  0  0  0  0  0  0  0  0  0  0  0
  1  2  1  0
  2  3  1  0
  3  4  1  0
  4  5  1  1
  4  6  1  0
  6  7  1  1
  6 12  1  0
  7  8  1  0
  8  9  2  0
  8 10  1  0
 10 11  1  0
 12 13  1  6
 12 14  1  0
 14 15  1  1
 14 16  1  0
 14 17  1  0
 17 18  1  0
 18 19  1  0
 19 20  1  0
M  END
