
     RDKit          3D

 19 18  0  0  0  0  0  0  0  0999 V2000
    6.1830   -1.2070   -0.5660 C   0  0  0  0  0  0  0  0  0  0  0  0
    5.7670    0.1090   -0.2670 O   0  0  0  0  0  0  0  0  0  0  0  0
    4.5760    0.4040    0.3710 C   0  0  0  0  0  0  0  0  0  0  0  0
    4.6340    0.9910    1.5510 C   0  0  0  0  0  0  0  0  0  0  0  0
    5.8350    1.3010    2.1330 O   0  0  0  0  0  0  0  0  0  0  0  0
    3.3290    0.0560   -0.2840 C   0  0  0  0  0  0  0  0  0  0  0  0
    3.3560   -0.5010   -1.4070 O   0  0  0  0  0  0  0  0  0  0  0  0
    2.0830    0.3050    0.2650 O   0  0  0  0  0  0  0  0  0  0  0  0
    0.8780   -0.0640   -0.4360 C   0  0  0  0  0  0  0  0  0  0  0  0
   -0.3310    0.3030    0.3490 C   0  0  2  0  0  0  0  0  0  0  0  0
   -0.3410   -0.3410    1.6110 O   0  0  0  0  0  0  0  0  0  0  0  0
   -1.6200   -0.0520   -0.3800 C   0  0  2  0  0  0  0  0  0  0  0  0
   -1.7430   -1.5110   -0.6870 C   0  0  0  0  0  0  0  0  0  0  0  0
   -1.7440    0.8400   -1.5810 C   0  0  0  0  0  0  0  0  0  0  0  0
   -1.7870    2.1860   -1.2230 O   0  0  0  0  0  0  0  0  0  0  0  0
   -2.8090    0.2720    0.5460 C   0  0  0  0  0  0  0  0  0  0  0  0
   -4.0760   -0.0790   -0.1580 C   0  0  0  0  0  0  0  0  0  0  0  0
   -5.2930    0.2000    0.7100 C   0  0  0  0  0  0  0  0  0  0  0  0
   -6.4410   -0.1410    0.0160 O   0  0  0  0  0  0  0  0  0  0  0  0
  1  2  1  0
  2  3  1  0
  3  4  2  3
  3  6  1  0
  4  5  1  0
  6  7  2  0
  6  8  1  0
  8  9  1  0
  9 10  1  0
 10 11  1  1
 10 12  1  0
 12 13  1  6
 12 14  1  0
 12 16  1  0
 14 15  1  0
 16 17  1  0
 17 18  1  0
 18 19  1  0
M  END
