
     RDKit          3D

 22 23  0  0  0  0  0  0  0  0999 V2000
   -3.4970   -2.2580    0.1920 O   0  0  0  0  0  0  0  0  0  0  0  0
   -2.9840   -1.6100    1.3280 C   0  0  0  0  0  0  0  0  0  0  0  0
   -1.5820   -1.1080    1.0900 C   0  0  0  0  0  0  0  0  0  0  0  0
   -1.4510   -0.1280   -0.0220 C   0  0  1  0  0  0  0  0  0  0  0  0
   -1.8720   -0.7080   -1.2240 O   0  0  0  0  0  0  0  0  0  0  0  0
   -2.2600    1.1270    0.1580 C   0  0  2  0  0  0  0  0  0  0  0  0
   -3.5460    1.1130   -0.6480 C   0  0  0  0  0  0  0  0  0  0  0  0
   -4.2300    2.3230   -0.5150 O   0  0  0  0  0  0  0  0  0  0  0  0
   -1.5080    2.1800   -0.3560 O   0  0  0  0  0  0  0  0  0  0  0  0
   -0.4150    2.4980    0.4060 C   0  0  0  0  0  0  0  0  0  0  0  0
    0.2400    1.3450    0.7470 O   0  0  0  0  0  0  0  0  0  0  0  0
   -0.0210    0.2970   -0.1760 C   0  0  1  0  0  0  0  0  0  0  0  0
    1.0090   -0.7420    0.1590 C   0  0  0  0  0  0  0  0  0  0  0  0
    2.1230   -0.3210   -0.8240 C   0  0  1  0  0  0  0  0  0  0  0  0
    3.0560   -1.4790   -0.9270 C   0  0  0  0  0  0  0  0  0  0  0  0
    3.8050   -1.5930    0.2290 O   0  0  0  0  0  0  0  0  0  0  0  0
    4.6060   -0.5190    0.5240 C   0  0  1  0  0  0  0  0  0  0  0  0
    4.2520    0.0910    1.7330 O   0  0  0  0  0  0  0  0  0  0  0  0
    5.9540   -0.8860    0.5590 O   0  0  0  0  0  0  0  0  0  0  0  0
    1.3380   -0.1600   -1.9730 O   0  0  0  0  0  0  0  0  0  0  0  0
    0.3640    0.7330   -1.5410 C   0  0  1  0  0  0  0  0  0  0  0  0
   -0.6960    0.8150   -2.4370 O   0  0  0  0  0  0  0  0  0  0  0  0
  1  2  1  0
  2  3  1  0
  3  4  1  0
  4  5  1  6
  4  6  1  0
  4 12  1  0
  6  7  1  6
  6  9  1  0
  7  8  1  0
  9 10  1  0
 10 11  1  0
 11 12  1  0
 12 13  1  1
 12 21  1  0
 13 14  1  0
 14 15  1  6
 14 20  1  0
 15 16  1  0
 16 17  1  0
 17 18  1  1
 17 19  1  0
 20 21  1  0
 21 22  1  6
M  END
