
     RDKit          3D

 23 25  0  0  0  0  0  0  0  0999 V2000
   -2.8550    2.7460   -0.9380 C   0  0  0  0  0  0  0  0  0  0  0  0
   -3.7710    1.5910   -0.7990 C   0  0  0  0  0  0  0  0  0  0  0  0
   -3.3090    0.4010   -0.4960 C   0  0  0  0  0  0  0  0  0  0  0  0
   -1.9250    0.2910   -0.3150 C   0  0  0  0  0  0  0  0  0  0  0  0
   -1.3930   -0.9280   -0.0060 C   0  0  0  0  0  0  0  0  0  0  0  0
    0.0250   -1.1330    0.1910 N   0  0  0  0  0  0  0  0  0  0  0  0
    0.9000   -0.0690    0.0480 N   0  0  0  0  0  0  0  0  0  0  0  0
    2.3260   -0.3680    0.1140 C   0  0  0  0  0  0  0  0  0  0  0  0
    2.6750   -1.5530    0.2980 O   0  0  0  0  0  0  0  0  0  0  0  0
    3.2600    0.6660   -0.0280 N   0  0  0  0  0  0  0  0  0  0  0  0
    4.6420    0.5160    0.0200 C   0  0  0  0  0  0  0  0  0  0  0  0
    5.4360    1.5890   -0.3930 C   0  0  0  0  0  0  0  0  0  0  0  0
    6.8090    1.5480   -0.3720 C   0  0  0  0  0  0  0  0  0  0  0  0
    7.4310    0.4000    0.0770 C   0  0  0  0  0  0  0  0  0  0  0  0
    6.6820   -0.6250    0.4720 N   0  0  0  0  0  0  0  0  0  0  0  0
    5.3190   -0.5880    0.4520 C   0  0  0  0  0  0  0  0  0  0  0  0
   -2.2210   -2.0000    0.1170 N   0  0  0  0  0  0  0  0  0  0  0  0
   -3.5400   -1.9430   -0.0450 C   0  0  0  0  0  0  0  0  0  0  0  0
   -4.1060   -0.7130   -0.3600 C   0  0  0  0  0  0  0  0  0  0  0  0
   -5.4140   -0.6590   -0.5210 C   0  0  0  0  0  0  0  0  0  0  0  0
   -6.2540   -1.8170   -0.3810 N   0  0  0  0  0  0  0  0  0  0  0  0
   -5.7840   -2.9740   -0.0920 C   0  0  0  0  0  0  0  0  0  0  0  0
   -4.3800   -3.0880    0.0910 N   0  0  0  0  0  0  0  0  0  0  0  0
  1  2  1  0
  2  3  2  3
  3  4  1  0
  3 19  1  0
  4  5  2  0
  5  6  1  0
  5 17  1  0
  6  7  1  0
  7  8  1  0
  8  9  2  0
  8 10  1  0
 10 11  1  0
 11 12  2  0
 11 16  1  0
 12 13  1  0
 13 14  2  0
 14 15  1  0
 15 16  2  0
 17 18  2  0
 18 19  1  0
 18 23  1  0
 19 20  2  0
 20 21  1  0
 21 22  2  0
 22 23  1  0
M  END
