
     RDKit          3D

 23 25  0  0  0  0  0  0  0  0999 V2000
   -1.4550    2.6460    2.0370 C   0  0  0  0  0  0  0  0  0  0  0  0
   -2.3660    2.3470    0.8450 C   0  0  0  0  0  0  0  0  0  0  0  0
   -2.1740    1.0080    0.5030 O   0  0  0  0  0  0  0  0  0  0  0  0
   -0.9800    0.4510    0.1150 C   0  0  0  0  0  0  0  0  0  0  0  0
    0.1760    1.1300    0.0110 N   0  0  0  0  0  0  0  0  0  0  0  0
    1.3150    0.5200   -0.3770 C   0  0  0  0  0  0  0  0  0  0  0  0
    2.5490    1.2900   -0.4770 C   0  0  0  0  0  0  0  0  0  0  0  0
    3.7270    0.6910   -0.8720 C   0  0  0  0  0  0  0  0  0  0  0  0
    4.9000    1.3800   -0.9760 C   0  0  0  0  0  0  0  0  0  0  0  0
    6.1120    0.7740   -1.3800 N   0  0  0  0  0  0  0  0  0  0  0  0
    4.8820    2.6900   -0.6790 N   0  0  0  0  0  0  0  0  0  0  0  0
    3.7400    3.2740   -0.2960 C   0  0  0  0  0  0  0  0  0  0  0  0
    2.5760    2.6210   -0.1850 N   0  0  0  0  0  0  0  0  0  0  0  0
    1.3470   -0.7890   -0.6770 N   0  0  0  0  0  0  0  0  0  0  0  0
    0.2330   -1.5050   -0.5910 C   0  0  0  0  0  0  0  0  0  0  0  0
    0.2320   -2.8920   -0.9020 N   0  0  0  0  0  0  0  0  0  0  0  0
   -0.9470   -0.8910   -0.1930 C   0  0  0  0  0  0  0  0  0  0  0  0
   -2.1510   -1.6750   -0.1030 C   0  0  0  0  0  0  0  0  0  0  0  0
   -2.4920   -2.3090    1.0640 C   0  0  0  0  0  0  0  0  0  0  0  0
   -3.6620   -3.0690    1.1490 C   0  0  0  0  0  0  0  0  0  0  0  0
   -4.4460   -3.1530    0.0300 C   0  0  0  0  0  0  0  0  0  0  0  0
   -4.0930   -2.5140   -1.1310 C   0  0  0  0  0  0  0  0  0  0  0  0
   -2.9640   -1.8000   -1.1590 N   0  0  0  0  0  0  0  0  0  0  0  0
  1  2  1  0
  2  3  1  0
  3  4  1  0
  4  5  2  0
  4 17  1  0
  5  6  1  0
  6  7  1  0
  6 14  2  0
  7  8  2  0
  7 13  1  0
  8  9  1  0
  9 10  1  0
  9 11  2  0
 11 12  1  0
 12 13  2  0
 14 15  1  0
 15 16  1  0
 15 17  2  0
 17 18  1  0
 18 19  2  0
 18 23  1  0
 19 20  1  0
 20 21  2  0
 21 22  1  0
 22 23  2  0
M  END
