
     RDKit          3D

 23 25  0  0  0  0  0  0  0  0999 V2000
   -3.1130    2.9060   -0.4230 C   0  0  0  0  0  0  0  0  0  0  0  0
   -3.8300    1.6890   -0.8930 C   0  0  0  0  0  0  0  0  0  0  0  0
   -3.4360    0.4710   -0.6780 C   0  0  0  0  0  0  0  0  0  0  0  0
   -4.2060   -0.6570   -1.1790 C   0  0  0  0  0  0  0  0  0  0  0  0
   -5.3020   -0.5430   -1.8510 N   0  0  0  0  0  0  0  0  0  0  0  0
   -3.7350   -1.9550   -0.9190 O   0  0  0  0  0  0  0  0  0  0  0  0
   -2.3240   -2.1580   -0.7500 C   0  0  0  0  0  0  0  0  0  0  0  0
   -1.8850   -1.1630    0.2490 N   0  0  0  0  0  0  0  0  0  0  0  0
   -1.1650   -1.6640    1.3680 C   0  0  0  0  0  0  0  0  0  0  0  0
   -2.1440   -2.5130    2.2060 C   0  0  0  0  0  0  0  0  0  0  0  0
   -2.1880    0.1970    0.0870 C   0  0  0  0  0  0  0  0  0  0  0  0
   -1.4800    1.1390    0.5300 N   0  0  0  0  0  0  0  0  0  0  0  0
   -0.3180    1.1700    1.2430 N   0  0  0  0  0  0  0  0  0  0  0  0
    0.9790    0.9310    0.6670 C   0  0  0  0  0  0  0  0  0  0  0  0
    1.1080    0.6540   -0.6390 N   0  0  0  0  0  0  0  0  0  0  0  0
    2.2970    0.4180   -1.2450 C   0  0  0  0  0  0  0  0  0  0  0  0
    2.3260    0.1300   -2.6370 N   0  0  0  0  0  0  0  0  0  0  0  0
    3.4420    0.4650   -0.4810 C   0  0  0  0  0  0  0  0  0  0  0  0
    3.3240    0.7490    0.8580 C   0  0  0  0  0  0  0  0  0  0  0  0
    2.1040    0.9730    1.3930 N   0  0  0  0  0  0  0  0  0  0  0  0
    4.7110    0.7360    1.4450 C   0  0  0  0  0  0  0  0  0  0  0  0
    5.4050   -0.2340    0.5130 C   0  0  0  0  0  0  0  0  0  0  0  0
    4.8670    0.2550   -0.8410 C   0  0  0  0  0  0  0  0  0  0  0  0
  1  2  1  0
  2  3  2  3
  3  4  1  0
  3 11  1  0
  4  5  2  0
  4  6  1  0
  6  7  1  0
  7  8  1  0
  8  9  1  0
  8 11  1  0
  9 10  1  0
 11 12  2  3
 12 13  1  0
 13 14  1  0
 14 15  2  0
 14 20  1  0
 15 16  1  0
 16 17  1  0
 16 18  2  0
 18 19  1  0
 18 23  1  0
 19 20  2  0
 19 21  1  0
 21 22  1  0
 22 23  1  0
M  END
