
     RDKit          3D

 12 13  0  0  0  0  0  0  0  0999 V2000
   -3.4950   -0.8090   -0.0260 O   0  0  0  0  0  0  0  0  0  0  0  0
   -2.3610   -1.2970   -0.1800 N   0  0  0  0  0  0  0  0  0  0  0  0
   -2.2510   -2.6180   -0.4720 O   0  0  0  0  0  0  0  0  0  0  0  0
   -1.2100   -0.4690   -0.0500 C   0  0  0  0  0  0  0  0  0  0  0  0
   -1.3200    0.8750    0.2460 C   0  0  0  0  0  0  0  0  0  0  0  0
   -0.2030    1.6640    0.3700 C   0  0  0  0  0  0  0  0  0  0  0  0
    1.0730    1.1650    0.2070 C   0  0  0  0  0  0  0  0  0  0  0  0
    2.3230    1.6630    0.2610 N   0  0  0  0  0  0  0  0  0  0  0  0
    3.1980    0.7090    0.0170 N   0  0  0  0  0  0  0  0  0  0  0  0
    2.5240   -0.3960   -0.1940 N   0  0  0  0  0  0  0  0  0  0  0  0
    1.1940   -0.1890   -0.0920 C   0  0  0  0  0  0  0  0  0  0  0  0
    0.0660   -0.9630   -0.2120 C   0  0  0  0  0  0  0  0  0  0  0  0
  1  2  2  0
  2  3  1  0
  2  4  1  0
  4  5  2  0
  4 12  1  0
  5  6  1  0
  6  7  2  0
  7  8  1  0
  7 11  1  0
  8  9  2  0
  9 10  1  0
 10 11  1  0
 11 12  2  0
M  CHG  2   2   1   3  -1
M  END
