
     RDKit          3D

 23 25  0  0  0  0  0  0  0  0999 V2000
    5.2490    1.0870    1.7320 C   0  0  0  0  0  0  0  0  0  0  0  0
    5.0390    0.1710    0.7640 C   0  0  0  0  0  0  0  0  0  0  0  0
    6.1700   -0.5800    0.3250 C   0  0  0  0  0  0  0  0  0  0  0  0
    6.0810   -1.6290   -0.6970 C   0  0  0  0  0  0  0  0  0  0  0  0
    7.3240   -0.3030    0.8940 N   0  0  0  0  0  0  0  0  0  0  0  0
    3.6600    0.0520    0.2960 C   0  0  0  0  0  0  0  0  0  0  0  0
    2.5640    0.5290    0.9470 N   0  0  0  0  0  0  0  0  0  0  0  0
    1.4560    0.2820    0.2590 C   0  0  0  0  0  0  0  0  0  0  0  0
    0.0830    0.6490    0.6500 C   0  0  0  0  0  0  0  0  0  0  0  0
   -0.0630    1.2530    1.7300 O   0  0  0  0  0  0  0  0  0  0  0  0
   -1.0270    0.3470   -0.1310 N   0  0  0  0  0  0  0  0  0  0  0  0
   -2.3940    0.6320    0.0990 C   0  0  0  0  0  0  0  0  0  0  0  0
   -2.7600    1.5280    1.0680 C   0  0  0  0  0  0  0  0  0  0  0  0
   -4.1110    1.8070    1.3200 C   0  0  0  0  0  0  0  0  0  0  0  0
   -5.0670    1.1630    0.5740 C   0  0  0  0  0  0  0  0  0  0  0  0
   -6.4280    1.1940    0.5530 N   0  0  0  0  0  0  0  0  0  0  0  0
   -6.8730    0.3680   -0.3730 N   0  0  0  0  0  0  0  0  0  0  0  0
   -5.8530   -0.2270   -0.9850 C   0  0  0  0  0  0  0  0  0  0  0  0
   -5.8570   -1.2300   -2.0870 C   0  0  0  0  0  0  0  0  0  0  0  0
   -4.6920    0.2640   -0.3980 C   0  0  0  0  0  0  0  0  0  0  0  0
   -3.3750   -0.0090   -0.6450 C   0  0  0  0  0  0  0  0  0  0  0  0
    1.8500   -0.3620   -0.8460 N   0  0  0  0  0  0  0  0  0  0  0  0
    3.1850   -0.5010   -0.8240 N   0  0  0  0  0  0  0  0  0  0  0  0
  1  2  2  0
  2  3  1  0
  2  6  1  0
  3  4  1  0
  3  5  2  0
  6  7  2  0
  6 23  1  0
  7  8  1  0
  8  9  1  0
  8 22  2  0
  9 10  2  0
  9 11  1  0
 11 12  1  0
 12 13  2  0
 12 21  1  0
 13 14  1  0
 14 15  2  0
 15 16  1  0
 15 20  1  0
 16 17  1  0
 17 18  2  0
 18 19  1  0
 18 20  1  0
 20 21  2  0
 22 23  1  0
M  END
