
     RDKit          3D

 23 25  0  0  0  0  0  0  0  0999 V2000
   -4.5920    1.4390   -1.5100 N   0  0  0  0  0  0  0  0  0  0  0  0
   -5.6960    1.0040   -0.7450 C   0  0  0  0  0  0  0  0  0  0  0  0
   -5.7150   -0.0220    0.0760 C   0  0  0  0  0  0  0  0  0  0  0  0
   -6.8190   -0.4810    0.8610 N   0  0  0  0  0  0  0  0  0  0  0  0
   -6.4410   -1.5310    1.5090 C   0  0  0  0  0  0  0  0  0  0  0  0
   -5.0670   -1.8600    1.2160 C   0  0  0  0  0  0  0  0  0  0  0  0
   -4.6230   -0.9320    0.3380 C   0  0  0  0  0  0  0  0  0  0  0  0
   -3.3030   -0.9630   -0.1800 N   0  0  0  0  0  0  0  0  0  0  0  0
   -2.3560    0.0460    0.1190 C   0  0  0  0  0  0  0  0  0  0  0  0
   -2.6780    0.9930    0.8680 O   0  0  0  0  0  0  0  0  0  0  0  0
   -1.0220   -0.0270   -0.4460 N   0  0  0  0  0  0  0  0  0  0  0  0
   -0.1210    0.9800   -0.1360 N   0  0  0  0  0  0  0  0  0  0  0  0
    1.2460    0.6970   -0.0060 C   0  0  0  0  0  0  0  0  0  0  0  0
    2.0590    0.8580   -1.0940 C   0  0  0  0  0  0  0  0  0  0  0  0
    3.4100    0.6120   -1.0450 C   0  0  0  0  0  0  0  0  0  0  0  0
    4.0190    0.1820    0.1300 C   0  0  0  0  0  0  0  0  0  0  0  0
    5.4120   -0.0720    0.2190 N   0  0  0  0  0  0  0  0  0  0  0  0
    6.2640   -0.4360   -0.7450 C   0  0  0  0  0  0  0  0  0  0  0  0
    7.5200   -0.5660   -0.2090 C   0  0  0  0  0  0  0  0  0  0  0  0
    7.4260   -0.2780    1.0950 N   0  0  0  0  0  0  0  0  0  0  0  0
    6.1390    0.0210    1.3440 C   0  0  0  0  0  0  0  0  0  0  0  0
    3.1770    0.0240    1.2230 C   0  0  0  0  0  0  0  0  0  0  0  0
    1.8240    0.2700    1.1750 C   0  0  0  0  0  0  0  0  0  0  0  0
  1  2  1  0
  2  3  2  3
  3  4  1  0
  3  7  1  0
  4  5  2  0
  5  6  1  0
  6  7  2  0
  7  8  1  0
  8  9  1  0
  9 10  2  0
  9 11  1  0
 11 12  1  0
 12 13  1  0
 13 14  2  0
 13 23  1  0
 14 15  1  0
 15 16  2  0
 16 17  1  0
 16 22  1  0
 17 18  1  0
 17 21  1  0
 18 19  2  0
 19 20  1  0
 20 21  2  0
 22 23  2  0
M  END
