
     RDKit          3D

 23 25  0  0  0  0  0  0  0  0999 V2000
   -0.3330   -2.1310   -1.0090 C   0  0  0  0  0  0  0  0  0  0  0  0
   -1.0920   -0.9240   -0.5810 C   0  0  0  0  0  0  0  0  0  0  0  0
   -2.4670   -0.9760   -0.6170 C   0  0  0  0  0  0  0  0  0  0  0  0
   -3.2190    0.1020   -0.2360 C   0  0  0  0  0  0  0  0  0  0  0  0
   -4.6890    0.1120   -0.2520 C   0  0  0  0  0  0  0  0  0  0  0  0
   -5.3880    1.2420    0.1490 C   0  0  0  0  0  0  0  0  0  0  0  0
   -6.7650    1.3100    0.1560 C   0  0  0  0  0  0  0  0  0  0  0  0
   -7.4640    0.2390   -0.2410 N   0  0  0  0  0  0  0  0  0  0  0  0
   -6.8130   -0.8680   -0.6340 C   0  0  0  0  0  0  0  0  0  0  0  0
   -5.4160   -0.9650   -0.6510 C   0  0  0  0  0  0  0  0  0  0  0  0
   -2.5580    1.1880    0.1650 N   0  0  0  0  0  0  0  0  0  0  0  0
   -1.1880    1.2720    0.2140 C   0  0  0  0  0  0  0  0  0  0  0  0
   -0.4090    0.2260   -0.1550 C   0  0  0  0  0  0  0  0  0  0  0  0
    0.9810    0.1790   -0.1540 N   0  0  0  0  0  0  0  0  0  0  0  0
    1.8490    1.2290    0.2360 C   0  0  0  0  0  0  0  0  0  0  0  0
    1.3920    2.3050    0.6170 O   0  0  0  0  0  0  0  0  0  0  0  0
    3.3140    1.0370    0.1860 C   0  0  0  0  0  0  0  0  0  0  0  0
    4.2230    1.9360    0.5220 N   0  0  0  0  0  0  0  0  0  0  0  0
    5.4520    1.4180    0.3520 N   0  0  0  0  0  0  0  0  0  0  0  0
    5.3080    0.1710   -0.0990 C   0  0  0  0  0  0  0  0  0  0  0  0
    6.3670   -0.7960   -0.4330 C   0  0  0  0  0  0  0  0  0  0  0  0
    7.6560   -0.1740   -0.1910 N   0  0  0  0  0  0  0  0  0  0  0  0
    3.9950   -0.0540   -0.1970 N   0  0  0  0  0  0  0  0  0  0  0  0
  1  2  1  0
  2  3  2  0
  2 13  1  0
  3  4  1  0
  4  5  1  0
  4 11  2  0
  5  6  2  0
  5 10  1  0
  6  7  1  0
  7  8  2  0
  8  9  1  0
  9 10  2  0
 11 12  1  0
 12 13  2  0
 13 14  1  0
 14 15  1  0
 15 16  2  0
 15 17  1  0
 17 18  2  0
 17 23  1  0
 18 19  1  0
 19 20  1  0
 20 21  1  0
 20 23  2  0
 21 22  1  0
M  END
