
     RDKit          3D

 23 25  0  0  0  0  0  0  0  0999 V2000
   -3.4060    0.9120    3.0530 C   0  0  0  0  0  0  0  0  0  0  0  0
   -2.6930    1.3210    1.7400 C   0  0  0  0  0  0  0  0  0  0  0  0
   -3.1020    2.6200    1.2930 N   0  0  0  0  0  0  0  0  0  0  0  0
   -1.9690    0.5440    1.2580 N   0  0  0  0  0  0  0  0  0  0  0  0
   -1.0900    0.0080    0.3730 C   0  0  0  0  0  0  0  0  0  0  0  0
    0.2380   -0.0420    0.4680 N   0  0  0  0  0  0  0  0  0  0  0  0
    1.0650   -0.6900   -0.4010 C   0  0  0  0  0  0  0  0  0  0  0  0
    2.4750   -0.6490   -0.3840 N   0  0  0  0  0  0  0  0  0  0  0  0
    3.2180    0.1770    0.5290 C   0  0  0  0  0  0  0  0  0  0  0  0
    3.3170    1.5630    0.3170 C   0  0  0  0  0  0  0  0  0  0  0  0
    2.8920    2.2280   -0.9510 C   0  0  0  0  0  0  0  0  0  0  0  0
    4.0430    2.0370    1.3320 N   0  0  0  0  0  0  0  0  0  0  0  0
    4.3940    1.0430    2.1420 N   0  0  0  0  0  0  0  0  0  0  0  0
    3.9230   -0.0680    1.6640 C   0  0  0  0  0  0  0  0  0  0  0  0
    4.1450   -1.4910    2.1680 C   0  0  0  0  0  0  0  0  0  0  0  0
    5.6180   -1.5790    2.0420 O   0  0  0  0  0  0  0  0  0  0  0  0
    0.5060   -1.3620   -1.4770 N   0  0  0  0  0  0  0  0  0  0  0  0
   -0.8330   -1.3500   -1.6200 C   0  0  0  0  0  0  0  0  0  0  0  0
   -1.6320   -0.7090   -0.7610 C   0  0  0  0  0  0  0  0  0  0  0  0
   -3.0810   -0.6760   -0.9260 C   0  0  0  0  0  0  0  0  0  0  0  0
   -3.5470   -0.6850   -2.3460 C   0  0  0  0  0  0  0  0  0  0  0  0
   -2.5180   -1.1690   -3.3270 C   0  0  0  0  0  0  0  0  0  0  0  0
   -1.5190   -2.0890   -2.7480 C   0  0  0  0  0  0  0  0  0  0  0  0
  1  2  1  0
  2  3  1  0
  2  4  2  3
  4  5  1  0
  5  6  2  0
  5 19  1  0
  6  7  1  0
  7  8  1  0
  7 17  2  0
  8  9  1  0
  9 10  1  0
  9 14  2  0
 10 11  1  0
 10 12  2  0
 12 13  1  0
 13 14  1  0
 14 15  1  0
 15 16  1  0
 17 18  1  0
 18 19  2  0
 18 23  1  0
 19 20  1  0
 20 21  1  0
 21 22  1  0
 22 23  1  0
M  END
