
     RDKit          3D

 42 45  0  0  0  0  0  0  0  0999 V2000
   -9.4250    1.7500    0.1130 C   0  0  0  0  0  0  0  0  0  0  0  0
   -9.6250    0.4270    0.7700 C   0  0  0  0  0  0  0  0  0  0  0  0
   -8.5200    0.0670    1.7720 C   0  0  1  0  0  0  0  0  0  0  0  0
   -8.9400   -1.5680    2.4640 S   0  0  0  0  0  0  0  0  0  0  0  0
   -8.5940   -2.7080    1.0640 C   0  0  2  0  0  0  0  0  0  0  0  0
   -8.7600   -4.1180    1.5790 C   0  0  0  0  0  0  0  0  0  0  0  0
   -7.1640   -2.4900    0.7450 C   0  0  0  0  0  0  0  0  0  0  0  0
   -6.3730   -3.4840    0.6390 O   0  0  0  0  0  0  0  0  0  0  0  0
   -6.6540   -1.1290    0.5520 C   0  0  0  0  0  0  0  0  0  0  0  0
   -5.4700   -1.0450   -0.1490 C   0  0  0  0  0  0  0  0  0  0  0  0
   -4.8160    0.1620   -0.4230 C   0  0  0  0  0  0  0  0  0  0  0  0
   -3.6700    0.1380   -1.1170 O   0  0  0  0  0  0  0  0  0  0  0  0
   -2.7600    1.0590   -1.5480 C   0  0  0  0  0  0  0  0  0  0  0  0
   -2.0050    1.8050   -0.4860 C   0  0  0  0  0  0  0  0  0  0  0  0
   -1.2660    1.1040    0.3530 O   0  0  0  0  0  0  0  0  0  0  0  0
   -0.2430    0.3100    0.1390 C   0  0  0  0  0  0  0  0  0  0  0  0
    1.0360    0.8000   -0.4460 C   0  0  2  0  0  0  0  0  0  0  0  0
    1.0210    1.3790   -1.7980 C   0  0  0  0  0  0  0  0  0  0  0  0
    1.6930    0.4990   -2.8400 C   0  0  2  0  0  0  0  0  0  0  0  0
    0.9490   -0.7640   -3.1170 C   0  0  0  0  0  0  0  0  0  0  0  0
    3.1340    0.3150   -2.4930 C   0  0  0  0  0  0  0  0  0  0  0  0
    3.2820    0.0180   -1.0960 N   0  0  0  0  0  0  0  0  0  0  0  0
    4.6350   -0.0460   -0.5690 C   0  0  0  0  0  0  0  0  0  0  0  0
    4.7050   -0.2920    0.6590 O   0  0  0  0  0  0  0  0  0  0  0  0
    5.7830    0.1520   -1.4210 C   0  0  0  0  0  0  0  0  0  0  0  0
    6.8730    1.0960   -1.0940 C   0  0  0  0  0  0  0  0  0  0  0  0
    7.5080    0.9260    0.0990 O   0  0  0  0  0  0  0  0  0  0  0  0
    7.1800    1.2790    1.3730 C   0  0  0  0  0  0  0  0  0  0  0  0
    6.1240    1.9100    1.6000 O   0  0  0  0  0  0  0  0  0  0  0  0
    8.0450    0.9280    2.4790 C   0  0  0  0  0  0  0  0  0  0  0  0
    9.1530    0.2660    2.2590 C   0  0  0  0  0  0  0  0  0  0  0  0
    9.5140   -0.1080    0.9540 O   0  0  0  0  0  0  0  0  0  0  0  0
   10.5390   -1.0380    0.6960 C   0  0  0  0  0  0  0  0  0  0  0  0
   11.5300   -1.1540    1.7700 C   0  0  0  0  0  0  0  0  0  0  0  0
   12.6840   -1.5810    1.4770 O   0  0  0  0  0  0  0  0  0  0  0  0
   11.2060   -0.7990    3.0900 N   0  0  0  0  0  0  0  0  0  0  0  0
   10.0140   -0.0800    3.3860 C   0  0  0  0  0  0  0  0  0  0  0  0
    9.6780    0.2620    4.5480 O   0  0  0  0  0  0  0  0  0  0  0  0
    2.1660   -0.2120   -0.2570 C   0  0  0  0  0  0  0  0  0  0  0  0
   -5.4230    1.2860    0.0510 C   0  0  0  0  0  0  0  0  0  0  0  0
   -6.6220    1.1990    0.7610 C   0  0  0  0  0  0  0  0  0  0  0  0
   -7.2470    0.0070    1.0180 C   0  0  0  0  0  0  0  0  0  0  0  0
  1  2  1  0
  3  2  1  6
  3  4  1  0
  3 42  1  0
  4  5  1  0
  5  6  1  1
  5  7  1  0
  7  8  2  0
  7  9  1  0
  9 10  2  0
  9 42  1  0
 10 11  1  0
 11 12  1  0
 11 40  2  0
 12 13  1  0
 13 14  1  0
 14 15  1  0
 15 16  1  0
 17 16  1  6
 17 18  1  0
 17 39  1  0
 18 19  1  0
 19 20  1  1
 19 21  1  0
 21 22  1  0
 22 23  1  0
 22 39  1  0
 23 24  2  0
 23 25  1  0
 25 26  1  0
 26 27  1  0
 27 28  1  0
 28 29  2  0
 28 30  1  0
 30 31  2  3
 31 32  1  0
 31 37  1  0
 32 33  1  0
 33 34  1  0
 34 35  2  0
 34 36  1  0
 36 37  1  0
 37 38  2  0
 40 41  1  0
 41 42  2  0
M  END
