
     RDKit          3D

 41 44  0  0  0  0  0  0  0  0999 V2000
    9.2460   -1.6740   -0.8060 C   0  0  0  0  0  0  0  0  0  0  0  0
    8.5480   -1.1090    0.4300 C   0  0  2  0  0  0  0  0  0  0  0  0
    8.0170   -2.2290    1.2970 C   0  0  0  0  0  0  0  0  0  0  0  0
    7.5080   -0.2400    0.1050 O   0  0  0  0  0  0  0  0  0  0  0  0
    7.5130    1.1330    0.1280 C   0  0  0  0  0  0  0  0  0  0  0  0
    8.6430    1.8850    0.4760 C   0  0  0  0  0  0  0  0  0  0  0  0
    8.5530    3.2620    0.4670 C   0  0  0  0  0  0  0  0  0  0  0  0
    7.3900    3.8940    0.1280 C   0  0  0  0  0  0  0  0  0  0  0  0
    7.2790    5.2820    0.1140 O   0  0  0  0  0  0  0  0  0  0  0  0
    6.2890    3.1260   -0.2100 C   0  0  0  0  0  0  0  0  0  0  0  0
    6.3300    1.7490   -0.2150 C   0  0  0  0  0  0  0  0  0  0  0  0
    5.1360    0.9890   -0.5380 C   0  0  2  0  0  0  0  0  0  0  0  0
    4.8000   -0.0300    0.3130 O   0  0  0  0  0  0  0  0  0  0  0  0
    4.3410   -1.1980   -0.1690 C   0  0  0  0  0  0  0  0  0  0  0  0
    3.6530   -2.1900    0.7430 C   0  0  1  0  0  0  0  0  0  0  0  0
    4.4700   -2.4180    1.9960 C   0  0  0  0  0  0  0  0  0  0  0  0
    2.3360   -1.8360    0.9950 O   0  0  0  0  0  0  0  0  0  0  0  0
    1.2260   -2.5880    0.7010 C   0  0  0  0  0  0  0  0  0  0  0  0
    1.4590   -3.7100    0.1500 O   0  0  0  0  0  0  0  0  0  0  0  0
   -0.1150   -2.0850    1.0250 C   0  0  0  0  0  0  0  0  0  0  0  0
   -0.0200   -0.5960    1.2590 C   0  0  0  0  0  0  0  0  0  0  0  0
   -1.3830   -0.0600    1.6000 C   0  0  0  0  0  0  0  0  0  0  0  0
   -2.3890   -0.3250    0.5070 C   0  0  0  0  0  0  0  0  0  0  0  0
   -3.7010    0.2950    0.9860 C   0  0  0  0  0  0  0  0  0  0  0  0
   -4.7850    0.0890   -0.0020 C   0  0  0  0  0  0  0  0  0  0  0  0
   -4.5250   -0.5930   -1.0180 O   0  0  0  0  0  0  0  0  0  0  0  0
   -6.0850    0.6250    0.1530 N   0  0  0  0  0  0  0  0  0  0  0  0
   -7.1100    0.3970   -0.8280 C   0  0  1  0  0  0  0  0  0  0  0  0
   -7.4390   -1.0740   -0.9900 C   0  0  0  0  0  0  0  0  0  0  0  0
   -8.2870   -1.4760    0.2000 C   0  0  0  0  0  0  0  0  0  0  0  0
   -9.6860   -0.9510   -0.0230 C   0  0  0  0  0  0  0  0  0  0  0  0
   -9.6240    0.3180   -0.8480 C   0  0  0  0  0  0  0  0  0  0  0  0
   -8.3870    1.0930   -0.4120 C   0  0  2  0  0  0  0  0  0  0  0  0
   -8.2970    2.4250   -1.0120 C   0  0  0  0  0  0  0  0  0  0  0  0
   -8.8810    3.4520   -0.6040 O   0  0  0  0  0  0  0  0  0  0  0  0
   -7.4310    2.3110   -2.1270 N   0  0  0  0  0  0  0  0  0  0  0  0
   -7.2390    3.3830   -3.1120 C   0  0  0  0  0  0  0  0  0  0  0  0
   -6.8050    1.0310   -2.1290 C   0  0  0  0  0  0  0  0  0  0  0  0
   -6.1370    0.6020   -3.1020 O   0  0  0  0  0  0  0  0  0  0  0  0
    4.5150   -1.4340   -1.4530 C   0  0  0  0  0  0  0  0  0  0  0  0
    5.3580    0.0140   -2.0890 S   0  0  0  0  0  0  0  0  0  0  0  0
  2  1  1  6
  2  3  1  0
  2  4  1  0
  4  5  1  0
  5  6  2  0
  5 11  1  0
  6  7  1  0
  7  8  2  0
  8  9  1  0
  8 10  1  0
 10 11  2  0
 12 11  1  1
 12 13  1  0
 12 41  1  0
 13 14  1  0
 14 15  1  0
 14 40  2  0
 15 16  1  1
 15 17  1  0
 17 18  1  0
 18 19  2  0
 18 20  1  0
 20 21  1  0
 21 22  1  0
 22 23  1  0
 23 24  1  0
 24 25  1  0
 25 26  2  0
 25 27  1  0
 28 27  1  1
 28 29  1  0
 28 33  1  0
 28 38  1  0
 29 30  1  0
 30 31  1  0
 31 32  1  0
 33 32  1  6
 33 34  1  0
 34 35  2  0
 34 36  1  0
 36 37  1  0
 36 38  1  0
 38 39  2  0
 40 41  1  0
M  END
