
     RDKit          3D

 42 45  0  0  0  0  0  0  0  0999 V2000
   -6.9450    2.3530   -1.2020 C   0  0  0  0  0  0  0  0  0  0  0  0
   -6.6530    1.0090   -0.8930 O   0  0  0  0  0  0  0  0  0  0  0  0
   -6.2070    0.0810   -1.8140 C   0  0  0  0  0  0  0  0  0  0  0  0
   -6.0350    0.4910   -3.1310 C   0  0  0  0  0  0  0  0  0  0  0  0
   -5.5930   -0.4460   -4.0310 C   0  0  0  0  0  0  0  0  0  0  0  0
   -5.3340   -1.7340   -3.6340 C   0  0  0  0  0  0  0  0  0  0  0  0
   -5.5060   -2.1390   -2.3240 C   0  0  0  0  0  0  0  0  0  0  0  0
   -5.9440   -1.2220   -1.4190 C   0  0  0  0  0  0  0  0  0  0  0  0
   -6.1490   -1.5350    0.0270 C   0  0  1  0  0  0  0  0  0  0  0  0
   -6.2150   -3.0590    0.1100 C   0  0  0  0  0  0  0  0  0  0  0  0
   -4.9910   -1.1720    0.8190 N   0  0  0  0  0  0  0  0  0  0  0  0
   -4.9170   -0.1820    1.8070 C   0  0  0  0  0  0  0  0  0  0  0  0
   -5.9940    0.4650    2.0410 O   0  0  0  0  0  0  0  0  0  0  0  0
   -3.7610    0.1840    2.6000 C   0  0  0  0  0  0  0  0  0  0  0  0
   -4.0380    0.4090    3.9570 C   0  0  0  0  0  0  0  0  0  0  0  0
   -3.0420    0.6300    4.8970 C   0  0  0  0  0  0  0  0  0  0  0  0
   -1.7200    0.6340    4.5070 C   0  0  0  0  0  0  0  0  0  0  0  0
   -0.6170    0.8680    5.4540 C   0  0  0  0  0  0  0  0  0  0  0  0
   -0.8310    1.0710    6.6680 O   0  0  0  0  0  0  0  0  0  0  0  0
   -1.4700    0.4150    3.1810 C   0  0  0  0  0  0  0  0  0  0  0  0
   -2.4660    0.1930    2.2190 C   0  0  0  0  0  0  0  0  0  0  0  0
   -2.1070    0.1360    0.8130 C   0  0  0  0  0  0  0  0  0  0  0  0
   -2.9000    0.2220   -0.1280 O   0  0  0  0  0  0  0  0  0  0  0  0
   -0.7700   -0.0310    0.5120 O   0  0  0  0  0  0  0  0  0  0  0  0
   -0.2400   -0.1080   -0.8050 C   0  0  0  0  0  0  0  0  0  0  0  0
    1.2180   -0.4130   -0.7580 C   0  0  2  0  0  0  0  0  0  0  0  0
    1.9520    0.6000    0.0760 C   0  0  0  0  0  0  0  0  0  0  0  0
    3.4010    0.2790    0.0210 N   0  0  0  0  0  0  0  0  0  0  0  0
    4.2910    1.1660    0.6300 C   0  0  0  0  0  0  0  0  0  0  0  0
    3.7900    2.2120    1.1810 O   0  0  0  0  0  0  0  0  0  0  0  0
    5.7680    1.0150    0.7050 C   0  0  2  0  0  0  0  0  0  0  0  0
    6.3040    2.0800    1.4140 O   0  0  0  0  0  0  0  0  0  0  0  0
    7.5250    2.3530    0.8680 C   0  0  0  0  0  0  0  0  0  0  0  0
    7.3880    2.0980   -0.6160 C   0  0  1  0  0  0  0  0  0  0  0  0
    9.0010    1.7660   -1.3100 S   0  0  0  0  0  0  0  0  0  0  0  0
    9.6920    0.2480   -0.6650 C   0  0  0  0  0  0  0  0  0  0  0  0
    6.4590    0.8970   -0.6040 C   0  0  1  0  0  0  0  0  0  0  0  0
    7.2920   -0.2350   -0.6680 O   0  0  0  0  0  0  0  0  0  0  0  0
    3.6940   -0.9460   -0.6710 C   0  0  0  0  0  0  0  0  0  0  0  0
    3.0600   -0.9270   -2.0280 C   0  0  1  0  0  0  0  0  0  0  0  0
    3.0050   -2.3800   -2.5160 C   0  0  0  0  0  0  0  0  0  0  0  0
    1.7340   -0.4890   -2.0450 O   0  0  0  0  0  0  0  0  0  0  0  0
  1  2  1  0
  2  3  1  0
  3  4  2  0
  3  8  1  0
  4  5  1  0
  5  6  2  0
  6  7  1  0
  7  8  2  0
  8  9  1  0
  9 10  1  6
  9 11  1  0
 11 12  1  0
 12 13  2  0
 12 14  1  0
 14 15  2  0
 14 21  1  0
 15 16  1  0
 16 17  2  0
 17 18  1  0
 17 20  1  0
 18 19  2  0
 20 21  2  0
 21 22  1  0
 22 23  2  0
 22 24  1  0
 24 25  1  0
 26 25  1  6
 26 27  1  0
 26 42  1  0
 27 28  1  0
 28 29  1  0
 28 39  1  0
 29 30  2  0
 31 29  1  6
 31 32  1  0
 31 37  1  0
 32 33  1  0
 33 34  1  0
 34 35  1  1
 34 37  1  0
 35 36  1  0
 37 38  1  1
 39 40  1  0
 40 41  1  1
 40 42  1  0
M  END
