
     RDKit          3D

 42 45  0  0  0  0  0  0  0  0999 V2000
    9.7580    2.0980    0.5640 C   0  0  0  0  0  0  0  0  0  0  0  0
    8.8720    1.0410    0.8390 O   0  0  0  0  0  0  0  0  0  0  0  0
    9.1590    0.0310    1.7320 C   0  0  0  0  0  0  0  0  0  0  0  0
   10.3680    0.0640    2.3790 C   0  0  0  0  0  0  0  0  0  0  0  0
   10.6750   -0.9320    3.2720 C   0  0  0  0  0  0  0  0  0  0  0  0
    9.7730   -1.9180    3.4870 C   0  0  0  0  0  0  0  0  0  0  0  0
    8.5420   -1.9590    2.8330 C   0  0  0  0  0  0  0  0  0  0  0  0
    8.2090   -0.9800    1.9380 C   0  0  0  0  0  0  0  0  0  0  0  0
    6.9930   -0.9450    1.2380 N   0  0  0  0  0  0  0  0  0  0  0  0
    5.9250   -1.8540    1.3040 C   0  0  0  0  0  0  0  0  0  0  0  0
    6.0010   -2.8420    2.0600 O   0  0  0  0  0  0  0  0  0  0  0  0
    4.7000   -1.6250    0.4590 C   0  0  0  0  0  0  0  0  0  0  0  0
    4.8440   -0.4600   -0.3000 O   0  0  0  0  0  0  0  0  0  0  0  0
    3.7840   -0.0940   -1.1500 C   0  0  0  0  0  0  0  0  0  0  0  0
    3.9330    1.0620   -1.9000 C   0  0  0  0  0  0  0  0  0  0  0  0
    2.9290    1.4520   -2.7370 C   0  0  0  0  0  0  0  0  0  0  0  0
    1.7770    0.6900   -2.8280 C   0  0  0  0  0  0  0  0  0  0  0  0
    1.6230   -0.4540   -2.0870 C   0  0  0  0  0  0  0  0  0  0  0  0
    0.4910   -1.2010   -2.1670 O   0  0  0  0  0  0  0  0  0  0  0  0
   -0.6480   -1.0050   -2.8680 C   0  0  0  0  0  0  0  0  0  0  0  0
   -1.5230    0.1700   -2.4830 C   0  0  2  0  0  0  0  0  0  0  0  0
   -1.8610   -0.0130   -1.0170 C   0  0  0  0  0  0  0  0  0  0  0  0
   -3.3350    0.0170   -0.8610 N   0  0  0  0  0  0  0  0  0  0  0  0
   -3.9310    0.9000    0.0620 C   0  0  0  0  0  0  0  0  0  0  0  0
   -3.0580    1.6350    0.6920 O   0  0  0  0  0  0  0  0  0  0  0  0
   -5.3560    1.0840    0.3830 C   0  0  1  0  0  0  0  0  0  0  0  0
   -6.0540    1.6370   -0.8190 C   0  0  0  0  0  0  0  0  0  0  0  0
   -7.5270    1.8790   -0.6490 C   0  0  0  0  0  0  0  0  0  0  0  0
   -7.9060    3.0560    0.6530 S   0  0  0  0  0  0  0  0  0  0  0  0
   -9.0920    3.9370    0.2100 O   0  0  0  0  0  0  0  0  0  0  0  0
   -6.0110   -0.1210    0.9700 C   0  0  0  0  0  0  0  0  0  0  0  0
   -5.2370   -0.6780    2.1300 C   0  0  2  0  0  0  0  0  0  0  0  0
   -4.0740   -1.5320    1.7900 C   0  0  0  0  0  0  0  0  0  0  0  0
   -6.1500   -1.4950    2.8400 O   0  0  0  0  0  0  0  0  0  0  0  0
   -4.8670    0.4630    3.0370 C   0  0  0  0  0  0  0  0  0  0  0  0
   -5.6020    1.6960    2.6270 C   0  0  0  0  0  0  0  0  0  0  0  0
   -5.4180    2.1250    1.3470 O   0  0  0  0  0  0  0  0  0  0  0  0
   -3.9700   -0.9210   -1.7410 C   0  0  0  0  0  0  0  0  0  0  0  0
   -3.7040   -0.4900   -3.1570 C   0  0  2  0  0  0  0  0  0  0  0  0
   -3.6560   -1.7170   -4.0610 C   0  0  0  0  0  0  0  0  0  0  0  0
   -2.5900    0.2160   -3.2930 O   0  0  0  0  0  0  0  0  0  0  0  0
    2.6580   -0.8550   -1.2250 C   0  0  0  0  0  0  0  0  0  0  0  0
  1  2  1  0
  2  3  1  0
  3  4  2  0
  3  8  1  0
  4  5  1  0
  5  6  2  0
  6  7  1  0
  7  8  2  0
  8  9  1  0
  9 10  1  0
 10 11  2  0
 10 12  1  0
 12 13  1  0
 13 14  1  0
 14 15  2  0
 14 42  1  0
 15 16  1  0
 16 17  2  0
 17 18  1  0
 18 19  1  0
 18 42  2  0
 19 20  1  0
 21 20  1  6
 21 22  1  0
 21 41  1  0
 22 23  1  0
 23 24  1  0
 23 38  1  0
 24 25  2  0
 24 26  1  0
 26 27  1  6
 26 31  1  0
 26 37  1  0
 27 28  1  0
 28 29  1  0
 29 30  2  0
 31 32  1  0
 32 33  1  6
 32 34  1  0
 32 35  1  0
 35 36  1  0
 36 37  1  0
 38 39  1  0
 39 40  1  6
 39 41  1  0
M  END
