
     RDKit          3D

 42 45  0  0  0  0  0  0  0  0999 V2000
   -2.9120    6.7020   -0.8270 C   0  0  0  0  0  0  0  0  0  0  0  0
   -2.5880    5.4830    0.0330 C   0  0  0  0  0  0  0  0  0  0  0  0
   -1.6560    4.6870   -0.6680 O   0  0  0  0  0  0  0  0  0  0  0  0
   -1.1500    3.4970   -0.1540 C   0  0  0  0  0  0  0  0  0  0  0  0
   -1.5770    3.1720    0.9810 O   0  0  0  0  0  0  0  0  0  0  0  0
   -0.1730    2.6710   -0.9020 C   0  0  1  0  0  0  0  0  0  0  0  0
    1.1170    3.5030   -1.0440 C   0  0  0  0  0  0  0  0  0  0  0  0
    0.2270    1.4690   -0.2270 N   0  0  0  0  0  0  0  0  0  0  0  0
    0.2650    0.1980   -0.8640 C   0  0  0  0  0  0  0  0  0  0  0  0
   -0.0960    0.2290   -2.0930 O   0  0  0  0  0  0  0  0  0  0  0  0
    0.6580   -1.0740   -0.2770 C   0  0  2  0  0  0  0  0  0  0  0  0
   -0.3690   -1.6860    1.0610 S   0  0  0  0  0  0  0  0  0  0  0  0
   -2.0180   -2.1270    0.4830 C   0  0  0  0  0  0  0  0  0  0  0  0
   -2.7550   -0.8940    0.0990 C   0  0  2  0  0  0  0  0  0  0  0  0
   -2.8560    0.0160    1.3360 C   0  0  0  0  0  0  0  0  0  0  0  0
   -3.9210    0.8280    0.9570 O   0  0  0  0  0  0  0  0  0  0  0  0
   -4.7110    0.1380    0.0710 C   0  0  2  0  0  0  0  0  0  0  0  0
   -6.0870    0.0700    0.6210 C   0  0  0  0  0  0  0  0  0  0  0  0
   -6.3190   -0.2420    1.9430 C   0  0  0  0  0  0  0  0  0  0  0  0
   -7.5930   -0.3030    2.4480 C   0  0  0  0  0  0  0  0  0  0  0  0
   -8.6460   -0.0450    1.6030 C   0  0  0  0  0  0  0  0  0  0  0  0
   -9.9260   -0.1150    2.1470 O   0  0  0  0  0  0  0  0  0  0  0  0
   -8.4130    0.2690    0.2740 C   0  0  0  0  0  0  0  0  0  0  0  0
   -7.1420    0.3330   -0.2430 C   0  0  0  0  0  0  0  0  0  0  0  0
   -6.8780    0.6470   -1.5780 O   0  0  0  0  0  0  0  0  0  0  0  0
   -8.0040    0.9080   -2.4220 C   0  0  0  0  0  0  0  0  0  0  0  0
   -4.1290   -1.1240   -0.1000 O   0  0  0  0  0  0  0  0  0  0  0  0
    2.0710   -1.0990    0.2140 C   0  0  0  0  0  0  0  0  0  0  0  0
    2.3840   -0.5410    1.4320 C   0  0  0  0  0  0  0  0  0  0  0  0
    3.6690   -0.5480    1.9110 C   0  0  0  0  0  0  0  0  0  0  0  0
    4.6660   -1.1340    1.1400 C   0  0  0  0  0  0  0  0  0  0  0  0
    4.4240   -1.7060   -0.0790 C   0  0  0  0  0  0  0  0  0  0  0  0
    5.4250   -2.3240   -0.8960 C   0  0  0  0  0  0  0  0  0  0  0  0
    4.9610   -2.7840   -2.0370 O   0  0  0  0  0  0  0  0  0  0  0  0
    6.7910   -2.5430   -0.7360 N   0  0  0  0  0  0  0  0  0  0  0  0
    7.5230   -3.2430   -1.8450 C   0  0  0  0  0  0  0  0  0  0  0  0
    8.4170   -4.2630   -1.2100 C   0  0  0  0  0  0  0  0  0  0  0  0
    9.3980   -3.7200   -0.4060 O   0  0  0  0  0  0  0  0  0  0  0  0
    9.1300   -2.4120   -0.1350 C   0  0  0  0  0  0  0  0  0  0  0  0
    7.6660   -2.2080    0.3520 C   0  0  2  0  0  0  0  0  0  0  0  0
    7.4960   -3.1880    1.5130 C   0  0  0  0  0  0  0  0  0  0  0  0
    3.0870   -1.6610   -0.5040 C   0  0  0  0  0  0  0  0  0  0  0  0
  1  2  1  0
  2  3  1  0
  3  4  1  0
  4  5  2  0
  4  6  1  0
  6  7  1  1
  6  8  1  0
  8  9  1  0
  9 10  2  0
  9 11  1  0
 11 12  1  1
 11 28  1  0
 12 13  1  0
 14 13  1  1
 14 15  1  0
 14 27  1  0
 15 16  1  0
 16 17  1  0
 17 18  1  1
 17 27  1  0
 18 19  2  0
 18 24  1  0
 19 20  1  0
 20 21  2  0
 21 22  1  0
 21 23  1  0
 23 24  2  0
 24 25  1  0
 25 26  1  0
 28 29  2  0
 28 42  1  0
 29 30  1  0
 30 31  2  0
 31 32  1  0
 32 33  1  0
 32 42  2  0
 33 34  2  0
 33 35  1  0
 35 36  1  0
 35 40  1  0
 36 37  1  0
 37 38  1  0
 38 39  1  0
 39 40  1  0
 40 41  1  1
M  END
