
     RDKit          3D

 42 45  0  0  0  0  0  0  0  0999 V2000
  -13.7870   -2.2390   -1.3730 C   0  0  0  0  0  0  0  0  0  0  0  0
  -12.6940   -1.2730   -1.4140 C   0  0  0  0  0  0  0  0  0  0  0  0
  -11.5650   -1.0930   -2.1330 C   0  0  0  0  0  0  0  0  0  0  0  0
  -10.7600   -0.0630   -1.9020 C   0  0  0  0  0  0  0  0  0  0  0  0
  -11.0930    0.8120   -0.9260 C   0  0  0  0  0  0  0  0  0  0  0  0
  -10.4100    2.0520   -0.4240 C   0  0  0  0  0  0  0  0  0  0  0  0
   -9.4430    1.7280    0.6780 C   0  0  1  0  0  0  0  0  0  0  0  0
  -10.1410    1.0530    1.8560 C   0  0  0  0  0  0  0  0  0  0  0  0
   -8.2880    1.0530    0.2830 O   0  0  0  0  0  0  0  0  0  0  0  0
   -7.0470    1.5980    0.5370 C   0  0  0  0  0  0  0  0  0  0  0  0
   -7.0210    2.7060    1.1410 O   0  0  0  0  0  0  0  0  0  0  0  0
   -5.7470    0.9980    0.1660 C   0  0  0  0  0  0  0  0  0  0  0  0
   -5.3510   -0.1680    1.0140 C   0  0  0  0  0  0  0  0  0  0  0  0
   -4.0380   -0.6300    0.5860 N   0  0  0  0  0  0  0  0  0  0  0  0
   -2.8740    0.1820    0.6950 C   0  0  0  0  0  0  0  0  0  0  0  0
   -3.0710    1.3380    1.2090 O   0  0  0  0  0  0  0  0  0  0  0  0
   -1.5750   -0.1930    0.2910 N   0  0  0  0  0  0  0  0  0  0  0  0
   -0.4110    0.6320    0.4420 C   0  0  0  0  0  0  0  0  0  0  0  0
    0.7700   -0.2490    0.0800 C   0  0  2  0  0  0  0  0  0  0  0  0
    1.8310    0.6350   -0.4110 C   0  0  0  0  0  0  0  0  0  0  0  0
    1.6120    1.8630   -0.5380 O   0  0  0  0  0  0  0  0  0  0  0  0
    3.1230    0.2220   -0.7660 O   0  0  0  0  0  0  0  0  0  0  0  0
    4.0690    1.1990   -1.2350 C   0  0  2  0  0  0  0  0  0  0  0  0
    4.4300    0.7990   -2.6570 C   0  0  0  0  0  0  0  0  0  0  0  0
    5.3070    1.2240   -0.4250 C   0  0  0  0  0  0  0  0  0  0  0  0
    5.9220    2.3550    0.1150 C   0  0  0  0  0  0  0  0  0  0  0  0
    7.0260    1.8950    0.7760 C   0  0  0  0  0  0  0  0  0  0  0  0
    7.0510    0.5310    0.6230 C   0  0  0  0  0  0  0  0  0  0  0  0
    8.0750   -0.3420    1.1790 C   0  0  0  0  0  0  0  0  0  0  0  0
    8.0030   -1.5650    0.9650 O   0  0  0  0  0  0  0  0  0  0  0  0
    9.1230    0.1230    1.9330 O   0  0  0  0  0  0  0  0  0  0  0  0
   10.1790   -0.5180    2.5160 C   0  0  0  0  0  0  0  0  0  0  0  0
   11.2220   -1.0510    1.6200 C   0  0  2  0  0  0  0  0  0  0  0  0
   11.9170    0.0370    0.7780 C   0  0  0  0  0  0  0  0  0  0  0  0
   12.7760   -0.8080   -0.1510 C   0  0  0  0  0  0  0  0  0  0  0  0
   12.2000   -2.2120   -0.1330 C   0  0  0  0  0  0  0  0  0  0  0  0
   10.8050   -1.9790    0.5180 C   0  0  0  0  0  0  0  0  0  0  0  0
    6.0220    0.1800   -0.0890 O   0  0  0  0  0  0  0  0  0  0  0  0
    0.1800   -1.1730   -0.9340 C   0  0  1  0  0  0  0  0  0  0  0  0
    0.8410   -2.3920   -1.0130 O   0  0  0  0  0  0  0  0  0  0  0  0
   -1.2180   -1.4380   -0.3470 C   0  0  0  0  0  0  0  0  0  0  0  0
  -12.5890    0.1970   -0.2840 S   0  0  0  0  0  0  0  0  0  0  0  0
  1  2  1  0
  2  3  2  0
  2 42  1  0
  3  4  1  0
  4  5  2  0
  5  6  1  0
  5 42  1  0
  6  7  1  0
  7  8  1  1
  7  9  1  0
  9 10  1  0
 10 11  2  0
 10 12  1  0
 12 13  1  0
 13 14  1  0
 14 15  1  0
 15 16  2  0
 15 17  1  0
 17 18  1  0
 17 41  1  0
 18 19  1  0
 19 20  1  6
 19 39  1  0
 20 21  2  0
 20 22  1  0
 22 23  1  0
 23 24  1  6
 23 25  1  0
 25 26  2  0
 25 38  1  0
 26 27  1  0
 27 28  2  0
 28 29  1  0
 28 38  1  0
 29 30  2  0
 29 31  1  0
 31 32  1  0
 33 32  1  6
 33 34  1  0
 33 37  1  0
 34 35  1  0
 35 36  1  0
 36 37  1  0
 39 40  1  1
 39 41  1  0
M  END
