
     RDKit          3D

 42 45  0  0  0  0  0  0  0  0999 V2000
   -4.6130   -3.2890   -0.9580 C   0  0  0  0  0  0  0  0  0  0  0  0
   -4.7420   -2.9420   -2.4060 C   0  0  0  0  0  0  0  0  0  0  0  0
   -5.4680   -1.7030   -2.7000 C   0  0  0  0  0  0  0  0  0  0  0  0
   -4.8810   -0.1630   -2.1880 S   0  0  2  0  0  0  0  0  0  0  0  0
   -5.7710    0.8870   -2.8720 O   0  0  0  0  0  0  0  0  0  0  0  0
   -3.5420    0.0460   -2.9520 O   0  0  0  0  0  0  0  0  0  0  0  0
   -4.6400    0.2450   -0.6320 N   0  0  0  0  0  0  0  0  0  0  0  0
   -3.6940   -0.4420    0.1850 C   0  0  0  0  0  0  0  0  0  0  0  0
   -2.8640    0.4800    1.0770 C   0  0  1  0  0  0  0  0  0  0  0  0
   -1.4870   -0.1010    1.2730 C   0  0  0  0  0  0  0  0  0  0  0  0
   -0.4030    0.7760    0.9990 N   0  0  0  0  0  0  0  0  0  0  0  0
    0.8870    0.4540    1.5460 C   0  0  0  0  0  0  0  0  0  0  0  0
    0.9460   -0.5840    2.2030 O   0  0  0  0  0  0  0  0  0  0  0  0
    2.0080    1.3140    1.3150 C   0  0  0  0  0  0  0  0  0  0  0  0
    3.2350    1.3420    1.6150 C   0  0  0  0  0  0  0  0  0  0  0  0
    4.1270    0.4880    2.3610 C   0  0  0  0  0  0  0  0  0  0  0  0
    3.9520   -0.6720    3.0400 C   0  0  0  0  0  0  0  0  0  0  0  0
    5.1980   -1.0440    3.5670 C   0  0  0  0  0  0  0  0  0  0  0  0
    6.0790   -0.0790    3.1770 C   0  0  0  0  0  0  0  0  0  0  0  0
    7.5560   -0.0330    3.4980 C   0  0  0  0  0  0  0  0  0  0  0  0
    8.2920   -0.0560    2.2660 O   0  0  0  0  0  0  0  0  0  0  0  0
    8.1640   -1.1190    1.3920 C   0  0  0  0  0  0  0  0  0  0  0  0
    7.4170   -2.0750    1.6560 O   0  0  0  0  0  0  0  0  0  0  0  0
    8.9060   -1.1470    0.1290 C   0  0  0  0  0  0  0  0  0  0  0  0
    8.8830   -2.1260   -0.8390 C   0  0  0  0  0  0  0  0  0  0  0  0
    9.7190   -1.7500   -1.8490 C   0  0  0  0  0  0  0  0  0  0  0  0
   10.2390   -0.5350   -1.4680 C   0  0  0  0  0  0  0  0  0  0  0  0
   11.2100    0.2360   -2.3020 C   0  0  0  0  0  0  0  0  0  0  0  0
   12.5990   -0.2120   -1.9060 C   0  0  0  0  0  0  0  0  0  0  0  0
    9.7400   -0.2130   -0.3050 O   0  0  0  0  0  0  0  0  0  0  0  0
    5.4280    0.7860    2.4860 O   0  0  0  0  0  0  0  0  0  0  0  0
   -0.4840    1.9780    0.1940 C   0  0  0  0  0  0  0  0  0  0  0  0
   -1.8430    1.9850   -0.5300 C   0  0  0  0  0  0  0  0  0  0  0  0
   -2.8650    1.8710    0.5850 C   0  0  2  0  0  0  0  0  0  0  0  0
   -2.3620    2.7240    1.6080 O   0  0  0  0  0  0  0  0  0  0  0  0
   -4.1940    2.3880    0.2280 C   0  0  0  0  0  0  0  0  0  0  0  0
   -5.2740    1.3260    0.0060 C   0  0  1  0  0  0  0  0  0  0  0  0
   -6.4030    2.0050   -0.6650 C   0  0  0  0  0  0  0  0  0  0  0  0
   -7.5020    1.2130   -0.9550 O   0  0  0  0  0  0  0  0  0  0  0  0
   -8.1250    0.6510    0.1280 C   0  0  1  0  0  0  0  0  0  0  0  0
   -9.6070    1.0500    0.1950 C   0  0  0  0  0  0  0  0  0  0  0  0
   -8.1010   -0.8470   -0.0010 C   0  0  0  0  0  0  0  0  0  0  0  0
  1  2  1  0
  2  3  1  0
  4  3  1  1
  4  5  2  0
  4  6  2  0
  4  7  1  0
  7  8  1  0
  7 37  1  0
  9  8  1  6
  9 10  1  0
  9 34  1  0
 10 11  1  0
 11 12  1  0
 11 32  1  0
 12 13  2  0
 12 14  1  0
 14 15  2  3
 15 16  1  0
 16 17  2  0
 16 31  1  0
 17 18  1  0
 18 19  2  0
 19 20  1  0
 19 31  1  0
 20 21  1  0
 21 22  1  0
 22 23  2  0
 22 24  1  0
 24 25  2  0
 24 30  1  0
 25 26  1  0
 26 27  2  0
 27 28  1  0
 27 30  1  0
 28 29  1  0
 32 33  1  0
 33 34  1  0
 34 35  1  1
 34 36  1  0
 36 37  1  0
 37 38  1  6
 38 39  1  0
 39 40  1  0
 40 41  1  6
 40 42  1  0
M  END
