
     RDKit          3D

 24 24  0  0  0  0  0  0  0  0999 V2000
   -1.0160   -0.5010   -2.3680 C   0  0  0  0  0  0  0  0  0  0  0  0
   -0.9610    0.6700   -1.5240 O   0  0  0  0  0  0  0  0  0  0  0  0
   -1.5890    0.4860   -0.2620 C   0  0  0  0  0  0  0  0  0  0  0  0
   -0.8560    0.0780    0.8280 C   0  0  0  0  0  0  0  0  0  0  0  0
    0.5820   -0.2360    1.0040 C   0  0  0  0  0  0  0  0  0  0  0  0
    0.9610   -0.6350    2.1500 O   0  0  0  0  0  0  0  0  0  0  0  0
    1.5690   -0.1350    0.0360 N   0  0  0  0  0  0  0  0  0  0  0  0
    2.9540   -0.4040    0.1010 C   0  0  2  0  0  0  0  0  0  0  0  0
    3.5530   -0.2150   -1.2840 C   0  0  0  0  0  0  0  0  0  0  0  0
    2.8820    0.1170   -2.2410 O   0  0  0  0  0  0  0  0  0  0  0  0
    4.8750   -0.4190   -1.4640 F   0  0  0  0  0  0  0  0  0  0  0  0
    3.4250   -1.6940    0.6260 C   0  0  1  0  0  0  0  0  0  0  0  0
    4.8340   -1.6520    0.5540 F   0  0  0  0  0  0  0  0  0  0  0  0
    3.1910   -1.8810    1.9750 F   0  0  0  0  0  0  0  0  0  0  0  0
    3.0690   -2.7890   -0.1240 F   0  0  0  0  0  0  0  0  0  0  0  0
    3.6100    0.7100    0.9320 C   0  0  1  0  0  0  0  0  0  0  0  0
    3.0560    0.6900    2.1790 F   0  0  0  0  0  0  0  0  0  0  0  0
    4.9750    0.5310    0.9930 F   0  0  0  0  0  0  0  0  0  0  0  0
    3.3160    1.9020    0.2830 F   0  0  0  0  0  0  0  0  0  0  0  0
   -2.0660   -0.0100    2.1170 S   0  0  0  0  0  0  0  0  0  0  0  0
   -3.4430    0.4910    1.1540 C   0  0  0  0  0  0  0  0  0  0  0  0
   -4.8250    0.6320    1.6520 C   0  0  0  0  0  0  0  0  0  0  0  0
   -2.8960    0.6880   -0.0660 C   0  0  0  0  0  0  0  0  0  0  0  0
   -3.7890    1.1250   -1.1440 N   0  0  0  0  0  0  0  0  0  0  0  0
  1  2  1  0
  2  3  1  0
  3  4  2  0
  3 23  1  0
  4  5  1  0
  4 20  1  0
  5  6  2  0
  5  7  1  0
  8  7  1  6
  8  9  1  0
  8 12  1  0
  8 16  1  0
  9 10  2  0
  9 11  1  0
 12 13  1  1
 12 14  1  0
 12 15  1  0
 16 17  1  1
 16 18  1  0
 16 19  1  0
 20 21  1  0
 21 22  1  0
 21 23  2  0
 23 24  1  0
M  END
