
     RDKit          3D

 23 22  0  0  0  0  0  0  0  0999 V2000
    6.0370    0.6750    1.7180 C   0  0  0  0  0  0  0  0  0  0  0  0
    5.4430   -0.1810    0.9330 C   0  0  0  0  0  0  0  0  0  0  0  0
    6.0130   -1.3930    0.7430 F   0  0  0  0  0  0  0  0  0  0  0  0
    4.1900    0.1230    0.2560 C   0  0  0  0  0  0  0  0  0  0  0  0
    3.6460   -0.7150   -0.4870 O   0  0  0  0  0  0  0  0  0  0  0  0
    3.5580    1.3520    0.4140 O   0  0  0  0  0  0  0  0  0  0  0  0
    2.3560    1.6090   -0.2510 C   0  0  0  0  0  0  0  0  0  0  0  0
    1.2770    0.6770    0.1090 C   0  0  0  0  0  0  0  0  0  0  0  0
    1.3920   -0.2680    0.9310 O   0  0  0  0  0  0  0  0  0  0  0  0
    0.0100    0.8530   -0.5140 N   0  0  0  0  0  0  0  0  0  0  0  0
   -1.0560   -0.0400   -0.1800 C   0  0  0  0  0  0  0  0  0  0  0  0
   -0.8310   -1.2420    0.8960 S   0  0  0  0  0  0  0  0  0  0  0  0
   -2.3260    0.1060   -0.7790 N   0  0  0  0  0  0  0  0  0  0  0  0
   -3.3720   -0.7870   -0.4380 C   0  0  0  0  0  0  0  0  0  0  0  0
   -3.4600   -2.0380   -1.1350 C   0  0  0  0  0  0  0  0  0  0  0  0
   -2.6010   -2.3810   -2.0800 C   0  0  0  0  0  0  0  0  0  0  0  0
   -2.6740   -3.5530   -2.7420 F   0  0  0  0  0  0  0  0  0  0  0  0
   -1.6120   -1.5180   -2.3930 F   0  0  0  0  0  0  0  0  0  0  0  0
   -4.2680   -0.4900    0.5110 C   0  0  0  0  0  0  0  0  0  0  0  0
   -4.2450    0.7750    1.2730 C   0  0  2  0  0  0  0  0  0  0  0  0
   -5.2080    1.6560    0.7780 F   0  0  0  0  0  0  0  0  0  0  0  0
   -2.9820    1.3170    1.1770 F   0  0  0  0  0  0  0  0  0  0  0  0
   -4.5010    0.5650    2.6270 F   0  0  0  0  0  0  0  0  0  0  0  0
  1  2  2  0
  2  3  1  0
  2  4  1  0
  4  5  2  0
  4  6  1  0
  6  7  1  0
  7  8  1  0
  8  9  2  0
  8 10  1  0
 10 11  1  0
 11 12  2  0
 11 13  1  0
 13 14  1  0
 14 15  1  0
 14 19  2  3
 15 16  2  3
 16 17  1  0
 16 18  1  0
 19 20  1  0
 20 21  1  6
 20 22  1  0
 20 23  1  0
M  END
