
     RDKit          3D

 23 23  0  0  0  0  0  0  0  0999 V2000
   -3.6300   -0.9590   -2.1160 N   0  0  0  0  0  0  0  0  0  0  0  0
   -2.5900   -0.0690   -1.7870 C   0  0  0  0  0  0  0  0  0  0  0  0
   -2.1060    0.6670   -2.7440 O   0  0  0  0  0  0  0  0  0  0  0  0
   -1.9920    0.1230   -0.4970 C   0  0  0  0  0  0  0  0  0  0  0  0
   -2.3330   -0.5110    0.5730 C   0  0  0  0  0  0  0  0  0  0  0  0
   -3.3590   -1.5420    0.7650 C   0  0  0  0  0  0  0  0  0  0  0  0
   -4.3870   -1.0360    1.7780 C   0  0  2  0  0  0  0  0  0  0  0  0
   -3.7230   -0.7920    2.9450 F   0  0  0  0  0  0  0  0  0  0  0  0
   -5.3900   -1.9540    1.9730 F   0  0  0  0  0  0  0  0  0  0  0  0
   -4.9470    0.1360    1.2850 F   0  0  0  0  0  0  0  0  0  0  0  0
   -0.6790    1.3220   -0.3510 S   0  0  1  0  0  0  0  0  0  0  0  0
   -0.9690    2.4370   -1.2930 O   0  0  0  0  0  0  0  0  0  0  0  0
   -0.7200    1.8170    1.0640 O   0  0  0  0  0  0  0  0  0  0  0  0
    0.7980    0.5480   -0.6230 N   0  0  0  0  0  0  0  0  0  0  0  0
    1.1330   -0.4830    0.2800 C   0  0  0  0  0  0  0  0  0  0  0  0
    2.5870   -0.6790    0.5540 C   0  0  0  0  0  0  0  0  0  0  0  0
    3.4240    0.5460    0.5580 C   0  0  1  0  0  0  0  0  0  0  0  0
    4.7910    0.1800   -0.0120 C   0  0  2  0  0  0  0  0  0  0  0  0
    5.6270    1.2990   -0.0340 F   0  0  0  0  0  0  0  0  0  0  0  0
    4.7090   -0.2590   -1.3090 F   0  0  0  0  0  0  0  0  0  0  0  0
    5.4220   -0.7770    0.7280 F   0  0  0  0  0  0  0  0  0  0  0  0
    2.8730    1.7010   -0.2220 C   0  0  0  0  0  0  0  0  0  0  0  0
    1.8190    1.2970   -1.2170 C   0  0  0  0  0  0  0  0  0  0  0  0
  1  2  1  0
  2  3  2  0
  2  4  1  0
  4  5  2  3
  4 11  1  0
  5  6  1  0
  6  7  1  0
  7  8  1  1
  7  9  1  0
  7 10  1  0
 11 12  2  0
 11 13  2  0
 11 14  1  6
 14 15  1  0
 14 23  1  0
 15 16  1  0
 17 16  1  6
 17 18  1  0
 17 22  1  0
 18 19  1  6
 18 20  1  0
 18 21  1  0
 22 23  1  0
M  END
