
     RDKit          3D

 23 23  0  0  0  0  0  0  0  0999 V2000
    1.8300   -0.2090   -1.0100 O   0  0  0  0  0  0  0  0  0  0  0  0
    2.3200   -0.5350    0.1010 C   0  0  0  0  0  0  0  0  0  0  0  0
    1.4080   -0.9200    1.1880 C   0  0  0  0  0  0  0  0  0  0  0  0
    0.0180   -0.8630    0.7950 N   0  0  0  0  0  0  0  0  0  0  0  0
   -0.5240   -1.9500    0.2770 C   0  0  0  0  0  0  0  0  0  0  0  0
    0.3500   -3.3310    0.0820 S   0  0  0  0  0  0  0  0  0  0  0  0
   -1.8010   -1.9520   -0.1020 N   0  0  0  0  0  0  0  0  0  0  0  0
   -2.6580   -0.8640    0.0020 C   0  0  0  0  0  0  0  0  0  0  0  0
   -3.8720   -1.0230   -0.4100 C   0  0  0  0  0  0  0  0  0  0  0  0
   -4.9060   -0.2160   -0.4500 F   0  0  0  0  0  0  0  0  0  0  0  0
   -4.1560   -2.3160   -0.9180 F   0  0  0  0  0  0  0  0  0  0  0  0
   -2.1230    0.2800    0.5360 C   0  0  0  0  0  0  0  0  0  0  0  0
   -2.7130    1.4130    0.7320 C   0  0  0  0  0  0  0  0  0  0  0  0
   -3.9860    2.0590    0.5640 C   0  0  1  0  0  0  0  0  0  0  0  0
   -3.7990    3.4520    1.0640 F   0  0  0  0  0  0  0  0  0  0  0  0
   -4.3390    2.2870   -0.7440 F   0  0  0  0  0  0  0  0  0  0  0  0
   -5.0220    1.6300    1.3280 F   0  0  0  0  0  0  0  0  0  0  0  0
   -0.7450    0.2090    0.9210 C   0  0  0  0  0  0  0  0  0  0  0  0
   -0.1900    1.2210    1.4190 O   0  0  0  0  0  0  0  0  0  0  0  0
    3.6990   -0.5060    0.2210 O   0  0  0  0  0  0  0  0  0  0  0  0
    4.5870   -0.1410   -0.8040 C   0  0  0  0  0  0  0  0  0  0  0  0
    4.3870    1.2510   -1.3090 C   0  0  0  0  0  0  0  0  0  0  0  0
    4.5490    2.2080   -0.3300 F   0  0  0  0  0  0  0  0  0  0  0  0
  1  2  2  0
  2  3  1  0
  2 20  1  0
  3  4  1  0
  4  5  1  0
  4 18  1  0
  5  6  2  0
  5  7  1  0
  7  8  1  0
  8  9  2  3
  8 12  1  0
  9 10  1  0
  9 11  1  0
 12 13  2  3
 12 18  1  0
 13 14  1  0
 14 15  1  1
 14 16  1  0
 14 17  1  0
 18 19  2  0
 20 21  1  0
 21 22  1  0
 22 23  1  0
M  END
