
     RDKit          3D

 23 23  0  0  0  0  0  0  0  0999 V2000
    1.2970    2.7540   -0.4480 O   0  0  0  0  0  0  0  0  0  0  0  0
    0.7090    1.7200   -0.7900 C   0  0  0  0  0  0  0  0  0  0  0  0
    0.4360    1.5610   -2.0960 F   0  0  0  0  0  0  0  0  0  0  0  0
    0.3540    0.7520    0.2480 C   0  0  1  0  0  0  0  0  0  0  0  0
   -1.1540    0.6800    0.4150 C   0  0  0  0  0  0  0  0  0  0  0  0
   -1.8970    0.2640   -0.7940 C   0  0  0  0  0  0  0  0  0  0  0  0
   -3.3810    0.2300   -0.6020 C   0  0  0  0  0  0  0  0  0  0  0  0
   -3.7940   -0.7260    0.4540 C   0  0  1  0  0  0  0  0  0  0  0  0
   -3.3400   -1.9870    0.0980 F   0  0  0  0  0  0  0  0  0  0  0  0
   -3.3900   -0.4070    1.7160 F   0  0  0  0  0  0  0  0  0  0  0  0
   -5.3480   -0.8250    0.4730 C   0  0  2  0  0  0  0  0  0  0  0  0
   -5.8000    0.4540    0.7430 F   0  0  0  0  0  0  0  0  0  0  0  0
   -5.7390   -1.7450    1.4210 F   0  0  0  0  0  0  0  0  0  0  0  0
   -5.7450   -1.2050   -0.7840 F   0  0  0  0  0  0  0  0  0  0  0  0
    1.0490   -0.8930   -0.0720 S   0  0  0  0  0  0  0  0  0  0  0  0
    2.8290   -0.7690    0.0560 C   0  0  0  0  0  0  0  0  0  0  0  0
    3.4530   -0.9790    1.2600 C   0  0  0  0  0  0  0  0  0  0  0  0
    4.8140   -0.8720    1.3050 N   0  0  0  0  0  0  0  0  0  0  0  0
    5.5310   -0.5720    0.2130 C   0  0  0  0  0  0  0  0  0  0  0  0
    6.7710   -0.4840    0.2970 O   0  0  0  0  0  0  0  0  0  0  0  0
    4.9340   -0.3640   -0.9710 N   0  0  0  0  0  0  0  0  0  0  0  0
    3.5790   -0.4640   -1.0490 C   0  0  0  0  0  0  0  0  0  0  0  0
    3.0070   -0.2700   -2.1610 O   0  0  0  0  0  0  0  0  0  0  0  0
  1  2  2  0
  2  3  1  0
  2  4  1  0
  4  5  1  6
  4 15  1  0
  5  6  1  0
  6  7  1  0
  7  8  1  0
  8  9  1  6
  8 10  1  0
  8 11  1  0
 11 12  1  1
 11 13  1  0
 11 14  1  0
 15 16  1  0
 16 17  2  0
 16 22  1  0
 17 18  1  0
 18 19  1  0
 19 20  2  0
 19 21  1  0
 21 22  1  0
 22 23  2  0
M  END
