
     RDKit          3D

 23 23  0  0  0  0  0  0  0  0999 V2000
    4.6790   -2.2330    0.0340 N   0  0  0  0  0  0  0  0  0  0  0  0
    3.4930   -1.4980   -0.0760 C   0  0  0  0  0  0  0  0  0  0  0  0
    3.4860   -0.4540   -0.7880 O   0  0  0  0  0  0  0  0  0  0  0  0
    2.2830   -1.9750    0.6510 C   0  0  0  0  0  0  0  0  0  0  0  0
    1.1650   -1.0830    0.4250 N   0  0  0  0  0  0  0  0  0  0  0  0
    1.2300    0.2720    0.7820 C   0  0  0  0  0  0  0  0  0  0  0  0
    2.3000    0.7300    1.3140 O   0  0  0  0  0  0  0  0  0  0  0  0
    0.0980    1.1560    0.5530 C   0  0  0  0  0  0  0  0  0  0  0  0
    0.1860    2.4140    0.9080 C   0  0  0  0  0  0  0  0  0  0  0  0
    1.3760    2.8130    1.4810 F   0  0  0  0  0  0  0  0  0  0  0  0
   -0.8510    3.4580    0.7710 C   0  0  1  0  0  0  0  0  0  0  0  0
   -0.6030    4.3540   -0.2360 F   0  0  0  0  0  0  0  0  0  0  0  0
   -2.1100    2.9360    0.6130 F   0  0  0  0  0  0  0  0  0  0  0  0
   -0.8830    4.2250    1.9820 F   0  0  0  0  0  0  0  0  0  0  0  0
   -1.0820    0.6130   -0.1220 C   0  0  0  0  0  0  0  0  0  0  0  0
   -1.6110    1.2330   -1.2620 C   0  0  0  0  0  0  0  0  0  0  0  0
   -2.6910    0.4660   -1.6160 C   0  0  0  0  0  0  0  0  0  0  0  0
   -2.7940   -0.5830   -0.6960 C   0  0  0  0  0  0  0  0  0  0  0  0
   -3.8290   -1.6490   -0.7140 C   0  0  2  0  0  0  0  0  0  0  0  0
   -3.4780   -2.6690    0.1740 F   0  0  0  0  0  0  0  0  0  0  0  0
   -3.9650   -2.2030   -1.9980 F   0  0  0  0  0  0  0  0  0  0  0  0
   -5.0610   -1.1670   -0.3010 F   0  0  0  0  0  0  0  0  0  0  0  0
   -1.8090   -0.4300    0.1520 O   0  0  0  0  0  0  0  0  0  0  0  0
  1  2  1  0
  2  3  2  0
  2  4  1  0
  4  5  1  0
  5  6  1  0
  6  7  2  0
  6  8  1  0
  8  9  2  3
  8 15  1  0
  9 10  1  0
  9 11  1  0
 11 12  1  6
 11 13  1  0
 11 14  1  0
 15 16  2  0
 15 23  1  0
 16 17  1  0
 17 18  2  0
 18 19  1  0
 18 23  1  0
 19 20  1  1
 19 21  1  0
 19 22  1  0
M  END
