
     RDKit          3D

 23 23  0  0  0  0  0  0  0  0999 V2000
    0.9080   -0.3570    0.6220 O   0  0  0  0  0  0  0  0  0  0  0  0
    1.0420   -1.1350   -0.3400 C   0  0  0  0  0  0  0  0  0  0  0  0
    2.4110   -1.7020   -0.7110 C   0  0  0  0  0  0  0  0  0  0  0  0
    3.4230   -0.3680   -1.3090 S   0  0  0  0  0  0  0  0  0  0  0  0
    3.8480    0.7400    0.0020 C   0  0  0  0  0  0  0  0  0  0  0  0
    4.5440    0.3730    1.0370 C   0  0  0  0  0  0  0  0  0  0  0  0
    5.0630   -0.9880    1.2380 C   0  0  2  0  0  0  0  0  0  0  0  0
    5.2730   -1.6470    0.0430 F   0  0  0  0  0  0  0  0  0  0  0  0
    4.3650   -1.7690    2.1050 F   0  0  0  0  0  0  0  0  0  0  0  0
    6.3740   -0.8100    1.7620 F   0  0  0  0  0  0  0  0  0  0  0  0
    3.4640    2.1860   -0.2120 C   0  0  1  0  0  0  0  0  0  0  0  0
    3.9420    2.8920    0.8730 F   0  0  0  0  0  0  0  0  0  0  0  0
    4.0790    2.5540   -1.3880 F   0  0  0  0  0  0  0  0  0  0  0  0
    2.0940    2.2970   -0.2670 F   0  0  0  0  0  0  0  0  0  0  0  0
   -0.0940   -1.4970   -1.0950 N   0  0  0  0  0  0  0  0  0  0  0  0
   -1.3740   -1.0480   -0.8650 N   0  0  0  0  0  0  0  0  0  0  0  0
   -2.0320   -0.8080    0.3450 C   0  0  0  0  0  0  0  0  0  0  0  0
   -1.4130   -1.0160    1.4100 O   0  0  0  0  0  0  0  0  0  0  0  0
   -3.4340   -0.3160    0.4320 C   0  0  1  0  0  0  0  0  0  0  0  0
   -3.5630    1.0520    1.0290 C   0  0  0  0  0  0  0  0  0  0  0  0
   -4.8960    1.5010    0.4530 C   0  0  0  0  0  0  0  0  0  0  0  0
   -5.2460    0.4070   -0.5160 C   0  0  0  0  0  0  0  0  0  0  0  0
   -4.0100   -0.1520   -0.8140 O   0  0  0  0  0  0  0  0  0  0  0  0
  1  2  2  0
  2  3  1  0
  2 15  1  0
  3  4  1  0
  4  5  1  0
  5  6  2  3
  5 11  1  0
  6  7  1  0
  7  8  1  6
  7  9  1  0
  7 10  1  0
 11 12  1  1
 11 13  1  0
 11 14  1  0
 15 16  1  0
 16 17  1  0
 17 18  2  0
 19 17  1  6
 19 20  1  0
 19 23  1  0
 20 21  1  0
 21 22  1  0
 22 23  1  0
M  END
