
     RDKit          3D

 23 23  0  0  0  0  0  0  0  0999 V2000
    1.0920    0.6570    0.0160 O   0  0  0  0  0  0  0  0  0  0  0  0
    1.2150   -0.5500    0.2540 C   0  0  0  0  0  0  0  0  0  0  0  0
    0.1400   -1.4250   -0.1410 N   0  0  0  0  0  0  0  0  0  0  0  0
   -1.0350   -0.9900   -0.7680 C   0  0  0  0  0  0  0  0  0  0  0  0
   -2.0020   -0.1600   -0.0950 C   0  0  0  0  0  0  0  0  0  0  0  0
   -2.1290    0.2100    1.1390 C   0  0  0  0  0  0  0  0  0  0  0  0
   -1.3180   -0.0860    2.3720 C   0  0  1  0  0  0  0  0  0  0  0  0
   -2.2190   -0.1910    3.4670 F   0  0  0  0  0  0  0  0  0  0  0  0
   -0.7360   -1.3300    2.3400 F   0  0  0  0  0  0  0  0  0  0  0  0
   -0.4270    0.9040    2.5680 F   0  0  0  0  0  0  0  0  0  0  0  0
   -3.2680    1.0990    1.3110 N   0  0  0  0  0  0  0  0  0  0  0  0
   -3.8850    1.2760    0.0600 C   0  0  0  0  0  0  0  0  0  0  0  0
   -4.9100    1.9800   -0.2060 O   0  0  0  0  0  0  0  0  0  0  0  0
   -3.1000    0.4820   -0.8710 C   0  0  0  0  0  0  0  0  0  0  0  0
   -3.3380    0.3660   -2.1690 C   0  0  0  0  0  0  0  0  0  0  0  0
   -4.6930    1.1940   -2.9680 S   0  0  0  0  0  0  0  0  0  0  0  0
    2.3580   -1.0010    0.8780 O   0  0  0  0  0  0  0  0  0  0  0  0
    3.4270   -0.1930    1.2800 C   0  0  0  0  0  0  0  0  0  0  0  0
    4.0800    0.5530    0.1600 C   0  0  0  0  0  0  0  0  0  0  0  0
    4.6480   -0.3790   -0.9000 C   0  0  1  0  0  0  0  0  0  0  0  0
    3.6730   -1.1710   -1.4680 F   0  0  0  0  0  0  0  0  0  0  0  0
    5.2640    0.4400   -1.8480 F   0  0  0  0  0  0  0  0  0  0  0  0
    5.5870   -1.2220   -0.3350 F   0  0  0  0  0  0  0  0  0  0  0  0
  1  2  2  0
  2  3  1  0
  2 17  1  0
  3  4  1  0
  4  5  1  0
  5  6  2  0
  5 14  1  0
  6  7  1  0
  6 11  1  0
  7  8  1  1
  7  9  1  0
  7 10  1  0
 11 12  1  0
 12 13  2  0
 12 14  1  0
 14 15  2  3
 15 16  1  0
 17 18  1  0
 18 19  1  0
 19 20  1  0
 20 21  1  6
 20 22  1  0
 20 23  1  0
M  END
