
     RDKit          3D

 23 23  0  0  0  0  0  0  0  0999 V2000
    0.1370   -1.7680    1.0410 C   0  0  0  0  0  0  0  0  0  0  0  0
    1.1680   -1.3310    0.0810 C   0  0  0  0  0  0  0  0  0  0  0  0
    2.3630   -1.9460    0.0210 C   0  0  0  0  0  0  0  0  0  0  0  0
    2.8630   -3.0960    0.8310 C   0  0  2  0  0  0  0  0  0  0  0  0
    3.6110   -2.6500    1.9040 F   0  0  0  0  0  0  0  0  0  0  0  0
    3.7730   -3.8330    0.0360 F   0  0  0  0  0  0  0  0  0  0  0  0
    1.9070   -3.9550    1.2770 F   0  0  0  0  0  0  0  0  0  0  0  0
    3.1550   -1.2470   -1.0000 C   0  0  0  0  0  0  0  0  0  0  0  0
    4.3370   -1.5600   -1.3170 O   0  0  0  0  0  0  0  0  0  0  0  0
    2.3560   -0.2100   -1.5190 N   0  0  0  0  0  0  0  0  0  0  0  0
    1.0610   -0.2400   -0.8410 C   0  0  0  0  0  0  0  0  0  0  0  0
    0.1260    0.5860   -1.1750 C   0  0  0  0  0  0  0  0  0  0  0  0
   -1.2160    0.8530   -0.8490 C   0  0  0  0  0  0  0  0  0  0  0  0
   -1.8610    1.8740   -1.4610 C   0  0  0  0  0  0  0  0  0  0  0  0
   -1.2680    2.7540   -2.4670 C   0  0  2  0  0  0  0  0  0  0  0  0
   -2.2410    3.6780   -2.9010 F   0  0  0  0  0  0  0  0  0  0  0  0
   -0.8700    2.1120   -3.6220 F   0  0  0  0  0  0  0  0  0  0  0  0
   -0.2400    3.4890   -1.8810 F   0  0  0  0  0  0  0  0  0  0  0  0
   -2.0220    0.1510    0.0580 N   0  0  0  0  0  0  0  0  0  0  0  0
   -2.7370    0.8990    1.4450 S   0  0  1  0  0  0  0  0  0  0  0  0
   -1.4220    1.4990    2.4690 C   0  0  0  0  0  0  0  0  0  0  0  0
   -3.6370    2.0310    1.0590 O   0  0  0  0  0  0  0  0  0  0  0  0
   -3.5200   -0.1120    2.2210 O   0  0  0  0  0  0  0  0  0  0  0  0
  1  2  1  0
  2  3  2  0
  2 11  1  0
  3  4  1  0
  3  8  1  0
  4  5  1  1
  4  6  1  0
  4  7  1  0
  8  9  2  0
  8 10  1  0
 10 11  1  0
 11 12  2  3
 12 13  1  0
 13 14  2  3
 13 19  1  0
 14 15  1  0
 15 16  1  6
 15 17  1  0
 15 18  1  0
 19 20  1  0
 20 21  1  1
 20 22  2  0
 20 23  2  0
M  END
