
     RDKit          3D

 23 22  0  0  0  0  0  0  0  0999 V2000
    5.5370   -0.5990    1.2110 N   0  0  0  0  0  0  0  0  0  0  0  0
    5.7640    0.7440    0.8120 C   0  0  0  0  0  0  0  0  0  0  0  0
    6.9530    1.2090    1.0740 O   0  0  0  0  0  0  0  0  0  0  0  0
    4.8690    1.6390    0.1690 C   0  0  0  0  0  0  0  0  0  0  0  0
    3.6440    1.4100   -0.1910 C   0  0  0  0  0  0  0  0  0  0  0  0
    2.9300    0.1790   -0.0070 C   0  0  0  0  0  0  0  0  0  0  0  0
    1.6860    0.0020   -0.3940 C   0  0  0  0  0  0  0  0  0  0  0  0
    0.9210    1.0660   -1.0540 C   0  0  0  0  0  0  0  0  0  0  0  0
   -0.5740    1.5800   -0.1810 S   0  0  0  0  0  0  0  0  0  0  0  0
   -1.9030    0.4200   -0.3390 C   0  0  0  0  0  0  0  0  0  0  0  0
   -1.9170   -0.5670   -1.1130 O   0  0  0  0  0  0  0  0  0  0  0  0
   -3.0810    0.6120    0.4790 N   0  0  0  0  0  0  0  0  0  0  0  0
   -4.1380   -0.3210    0.3400 C   0  0  0  0  0  0  0  0  0  0  0  0
   -4.0840   -1.2870   -0.4560 O   0  0  0  0  0  0  0  0  0  0  0  0
   -5.3520   -0.1460    1.1680 C   0  0  0  0  0  0  0  0  0  0  0  0
   -6.3190   -1.2600    0.8430 C   0  0  2  0  0  0  0  0  0  0  0  0
   -6.6790   -1.2450   -0.4840 F   0  0  0  0  0  0  0  0  0  0  0  0
   -7.4380   -1.1180    1.6420 F   0  0  0  0  0  0  0  0  0  0  0  0
   -5.7390   -2.4950    1.1340 F   0  0  0  0  0  0  0  0  0  0  0  0
    1.1070   -1.3430   -0.1150 C   0  0  1  0  0  0  0  0  0  0  0  0
    2.1520   -2.1370    0.4080 F   0  0  0  0  0  0  0  0  0  0  0  0
    0.1550   -1.1600    0.8840 F   0  0  0  0  0  0  0  0  0  0  0  0
    0.6670   -2.0060   -1.2110 F   0  0  0  0  0  0  0  0  0  0  0  0
  1  2  1  0
  2  3  2  0
  2  4  1  0
  4  5  2  3
  5  6  1  0
  6  7  2  3
  7  8  1  0
  7 20  1  0
  8  9  1  0
  9 10  1  0
 10 11  2  0
 10 12  1  0
 12 13  1  0
 13 14  2  0
 13 15  1  0
 15 16  1  0
 16 17  1  6
 16 18  1  0
 16 19  1  0
 20 21  1  1
 20 22  1  0
 20 23  1  0
M  END
