
     RDKit          3D

 12 12  0  0  0  0  0  0  0  0999 V2000
    1.8330    1.3640   -0.1410 N   0  0  0  0  0  0  0  0  0  0  0  0
    1.8910    0.1170   -0.3620 C   0  0  0  0  0  0  0  0  0  0  0  0
    3.5290   -0.5770   -0.6220 S   0  0  0  0  0  0  0  0  0  0  0  0
    4.7480    0.6180   -0.5190 O   0  0  0  0  0  0  0  0  0  0  0  0
    0.7520   -0.7480   -0.4140 C   0  0  0  0  0  0  0  0  0  0  0  0
    1.0490   -2.1210   -0.6760 O   0  0  0  0  0  0  0  0  0  0  0  0
   -0.5030   -0.4300   -0.2510 C   0  0  0  0  0  0  0  0  0  0  0  0
   -1.0040    0.8880    0.0190 C   0  0  0  0  0  0  0  0  0  0  0  0
   -2.3160    1.1180    0.1710 C   0  0  0  0  0  0  0  0  0  0  0  0
   -3.2930    0.0460    0.0700 C   0  0  0  0  0  0  0  0  0  0  0  0
   -2.8330   -1.1700   -0.1800 C   0  0  0  0  0  0  0  0  0  0  0  0
   -1.4860   -1.4400   -0.3420 O   0  0  0  0  0  0  0  0  0  0  0  0
  1  2  2  0
  2  3  1  0
  2  5  1  0
  3  4  1  0
  5  6  1  0
  5  7  2  3
  7  8  1  0
  7 12  1  0
  8  9  2  0
  9 10  1  0
 10 11  2  0
 11 12  1  0
M  END
