
     RDKit          3D

 12 12  0  0  0  0  0  0  0  0999 V2000
   -3.4510    0.0930   -0.0900 C   0  0  0  0  0  0  0  0  0  0  0  0
   -2.1900    0.5430   -0.0780 C   0  0  0  0  0  0  0  0  0  0  0  0
   -1.9460    1.9790   -0.0220 C   0  0  0  0  0  0  0  0  0  0  0  0
   -2.7590    2.9130    0.0190 O   0  0  0  0  0  0  0  0  0  0  0  0
   -0.1660    2.0860   -0.0270 S   0  0  0  0  0  0  0  0  0  0  0  0
    0.1340    0.3310   -0.0980 C   0  0  0  0  0  0  0  0  0  0  0  0
    1.4790   -0.2400   -0.1270 C   0  0  0  0  0  0  0  0  0  0  0  0
    1.6540   -1.4860   -0.1780 O   0  0  0  0  0  0  0  0  0  0  0  0
    2.6120    0.5580   -0.1010 O   0  0  0  0  0  0  0  0  0  0  0  0
    3.9180    0.0600   -0.1270 C   0  0  0  0  0  0  0  0  0  0  0  0
   -1.0270   -0.2690   -0.1160 C   0  0  0  0  0  0  0  0  0  0  0  0
   -1.0730   -1.7320   -0.1750 N   0  0  0  0  0  0  0  0  0  0  0  0
  1  2  2  0
  2  3  1  0
  2 11  1  0
  3  4  2  0
  3  5  1  0
  5  6  1  0
  6  7  1  0
  6 11  2  0
  7  8  2  0
  7  9  1  0
  9 10  1  0
 11 12  1  0
M  END
