
     RDKit          3D

 12 13  0  0  0  0  0  0  0  0999 V2000
   -2.1940    2.2080   -0.2230 O   0  0  0  0  0  0  0  0  0  0  0  0
   -1.2990    1.3310   -0.0740 C   0  0  0  0  0  0  0  0  0  0  0  0
   -0.0380    1.6610   -0.5240 O   0  0  0  0  0  0  0  0  0  0  0  0
    1.2010    0.9380   -0.3620 C   0  0  0  0  0  0  0  0  0  0  0  0
    2.3210    1.7010   -0.3740 C   0  0  0  0  0  0  0  0  0  0  0  0
    3.6620    0.4560   -0.1480 S   0  0  0  0  0  0  0  0  0  0  0  0
    2.5450   -0.9200   -0.0690 C   0  0  0  0  0  0  0  0  0  0  0  0
    1.2930   -0.3930   -0.2090 C   0  0  0  0  0  0  0  0  0  0  0  0
    0.1630   -1.3160   -0.1830 N   0  0  0  0  0  0  0  0  0  0  0  0
   -1.2440   -1.0550   -0.3950 C   0  0  0  0  0  0  0  0  0  0  0  0
   -1.7070    0.0450    0.5680 C   0  0  2  0  0  0  0  0  0  0  0  0
   -3.0480   -0.0140    0.8290 O   0  0  0  0  0  0  0  0  0  0  0  0
  1  2  2  0
  2  3  1  0
  2 11  1  0
  3  4  1  0
  4  5  2  0
  4  8  1  0
  5  6  1  0
  6  7  1  0
  7  8  2  0
  8  9  1  0
  9 10  1  0
 10 11  1  0
 11 12  1  6
M  END
