
     RDKit          3D

 12 12  0  0  0  0  0  0  0  0999 V2000
    2.4730   -0.6530    1.7770 O   0  0  0  0  0  0  0  0  0  0  0  0
    2.6210   -0.6240    0.2610 S   0  0  1  0  0  0  0  0  0  0  0  0
    4.1680   -0.5480    0.0910 O   0  0  0  0  0  0  0  0  0  0  0  0
    2.1910   -2.0500   -0.4690 O   0  0  0  0  0  0  0  0  0  0  0  0
    2.0100    0.8260   -0.4270 C   0  0  0  0  0  0  0  0  0  0  0  0
    0.6180    1.1450   -0.5380 C   0  0  0  0  0  0  0  0  0  0  0  0
   -0.5130    0.6250   -0.2190 C   0  0  0  0  0  0  0  0  0  0  0  0
   -1.7950    1.3110   -0.5320 C   0  0  0  0  0  0  0  0  0  0  0  0
   -2.9410    0.7650   -0.1800 C   0  0  0  0  0  0  0  0  0  0  0  0
   -3.0690   -0.4990    0.5160 C   0  0  0  0  0  0  0  0  0  0  0  0
   -1.9520   -1.1310    0.8090 C   0  0  0  0  0  0  0  0  0  0  0  0
   -0.6500   -0.5970    0.4560 N   0  0  0  0  0  0  0  0  0  0  0  0
  1  2  2  0
  2  3  2  0
  2  4  1  6
  2  5  1  0
  5  6  1  0
  6  7  2  3
  7  8  1  0
  7 12  1  0
  8  9  2  0
  9 10  1  0
 10 11  2  0
 11 12  1  0
M  END
