
     RDKit          3D

 12 12  0  0  0  0  0  0  0  0999 V2000
    4.0630   -0.3660    0.7520 N   0  0  0  0  0  0  0  0  0  0  0  0
    3.0450   -0.6010   -0.2120 C   0  0  0  0  0  0  0  0  0  0  0  0
    3.3990   -1.2540   -1.6660 S   0  0  0  0  0  0  0  0  0  0  0  0
    1.6610   -0.2550    0.0940 C   0  0  0  0  0  0  0  0  0  0  0  0
    1.3520    0.2510    1.2040 O   0  0  0  0  0  0  0  0  0  0  0  0
    0.6300   -0.4630   -0.8110 O   0  0  0  0  0  0  0  0  0  0  0  0
   -0.6910   -0.1480   -0.5550 C   0  0  0  0  0  0  0  0  0  0  0  0
   -1.1360    1.0520   -0.8690 C   0  0  0  0  0  0  0  0  0  0  0  0
   -2.5430    1.4800   -0.6300 C   0  0  0  0  0  0  0  0  0  0  0  0
   -3.3170    0.4770   -0.0450 O   0  0  0  0  0  0  0  0  0  0  0  0
   -2.8640   -0.7870    0.2910 C   0  0  0  0  0  0  0  0  0  0  0  0
   -1.6080   -1.1000    0.0520 C   0  0  0  0  0  0  0  0  0  0  0  0
  1  2  1  0
  2  3  2  0
  2  4  1  0
  4  5  2  0
  4  6  1  0
  6  7  1  0
  7  8  2  0
  7 12  1  0
  8  9  1  0
  9 10  1  0
 10 11  1  0
 11 12  2  0
M  END
