
     RDKit          3D

 12 13  0  0  0  0  0  0  0  0999 V2000
    0.6890    3.5780   -0.1740 O   0  0  0  0  0  0  0  0  0  0  0  0
    0.5420    2.3220   -0.2470 C   0  0  0  0  0  0  0  0  0  0  0  0
   -0.8070    1.8170   -0.2120 N   0  0  0  0  0  0  0  0  0  0  0  0
   -1.0600    0.4410   -0.3560 C   0  0  2  0  0  0  0  0  0  0  0  0
   -1.8170   -0.1530    0.7990 C   0  0  0  0  0  0  0  0  0  0  0  0
   -2.1370   -1.5920    0.3630 C   0  0  0  0  0  0  0  0  0  0  0  0
   -0.5320   -2.0540   -0.4110 S   0  0  0  0  0  0  0  0  0  0  0  0
    0.1940   -0.3930   -0.4290 C   0  0  0  0  0  0  0  0  0  0  0  0
    1.3970    0.0590   -0.4410 C   0  0  0  0  0  0  0  0  0  0  0  0
    2.5730   -0.8410   -0.5290 C   0  0  0  0  0  0  0  0  0  0  0  0
    3.4210   -0.7270    0.5520 O   0  0  0  0  0  0  0  0  0  0  0  0
    1.5880    1.4460   -0.3550 O   0  0  0  0  0  0  0  0  0  0  0  0
  1  2  2  0
  2  3  1  0
  2 12  1  0
  3  4  1  0
  4  5  1  1
  4  8  1  0
  5  6  1  0
  6  7  1  0
  7  8  1  0
  8  9  2  0
  9 10  1  0
  9 12  1  0
 10 11  1  0
M  END
