
     RDKit          3D

 19 19  0  0  0  0  0  0  0  0999 V2000
    6.1660    0.1260   -0.9190 C   0  0  0  0  0  0  0  0  0  0  0  0
    4.9930   -0.6510   -0.3300 C   0  0  0  0  0  0  0  0  0  0  0  0
    3.7320   -0.3140   -1.0980 C   0  0  0  0  0  0  0  0  0  0  0  0
    2.5840   -1.0790   -0.5180 C   0  0  0  0  0  0  0  0  0  0  0  0
    2.3300   -0.7700    0.9310 C   0  0  0  0  0  0  0  0  0  0  0  0
    2.0130    0.6670    1.1790 C   0  0  0  0  0  0  0  0  0  0  0  0
    0.7540    1.0930    0.4070 C   0  0  0  0  0  0  0  0  0  0  0  0
   -0.2720    0.2900    0.8650 O   0  0  0  0  0  0  0  0  0  0  0  0
   -1.4870    0.5520    0.2620 C   0  0  1  0  0  0  0  0  0  0  0  0
   -1.8890   -0.5830   -0.4100 O   0  0  0  0  0  0  0  0  0  0  0  0
   -3.2020   -0.9320   -0.0960 C   0  0  2  0  0  0  0  0  0  0  0  0
   -3.5920   -2.1880   -0.8170 C   0  0  0  0  0  0  0  0  0  0  0  0
   -4.9210   -2.4800   -0.4550 O   0  0  0  0  0  0  0  0  0  0  0  0
   -4.0710    0.2470   -0.4830 C   0  0  1  0  0  0  0  0  0  0  0  0
   -5.4130   -0.0760   -0.5570 O   0  0  0  0  0  0  0  0  0  0  0  0
   -3.8090    1.3310    0.5580 C   0  0  2  0  0  0  0  0  0  0  0  0
   -3.6190    2.5300   -0.1530 O   0  0  0  0  0  0  0  0  0  0  0  0
   -2.5090    1.0430    1.2660 C   0  0  2  0  0  0  0  0  0  0  0  0
   -2.0280    2.2880    1.7330 O   0  0  0  0  0  0  0  0  0  0  0  0
  1  2  1  0
  2  3  1  0
  3  4  1  0
  4  5  1  0
  5  6  1  0
  6  7  1  0
  7  8  1  0
  9  8  1  1
  9 10  1  0
  9 18  1  0
 10 11  1  0
 11 12  1  6
 11 14  1  0
 12 13  1  0
 14 15  1  1
 14 16  1  0
 16 17  1  6
 16 18  1  0
 18 19  1  6
M  END
