
     RDKit          3D

 33 34  0  0  0  0  0  0  0  0999 V2000
    2.4810   -2.2440   -0.2870 C   0  0  0  0  0  0  0  0  0  0  0  0
    1.9100   -1.0550    0.4850 C   0  0  2  0  0  0  0  0  0  0  0  0
    0.9430   -0.3490   -0.4120 C   0  0  0  0  0  0  0  0  0  0  0  0
   -0.3760   -1.5040   -0.8630 P   0  0  1  0  0  0  0  0  0  0  0  0
   -0.5700   -1.5340   -2.3710 O   0  0  0  0  0  0  0  0  0  0  0  0
    0.0830   -3.0480   -0.3590 O   0  0  0  0  0  0  0  0  0  0  0  0
   -1.9430   -1.0990   -0.1230 C   0  0  2  0  0  0  0  0  0  0  0  0
   -2.9920   -2.0490   -0.6310 C   0  0  0  0  0  0  0  0  0  0  0  0
   -2.7750   -3.4590   -0.3480 C   0  0  0  0  0  0  0  0  0  0  0  0
   -3.2090   -3.9870    0.8500 C   0  0  0  0  0  0  0  0  0  0  0  0
   -3.0330   -5.3290    1.1370 C   0  0  0  0  0  0  0  0  0  0  0  0
   -2.4240   -6.1840    0.2490 C   0  0  0  0  0  0  0  0  0  0  0  0
   -1.9880   -5.6640   -0.9500 C   0  0  0  0  0  0  0  0  0  0  0  0
   -2.1670   -4.3050   -1.2390 C   0  0  0  0  0  0  0  0  0  0  0  0
   -2.3920    0.2450   -0.5190 N   0  0  0  0  0  0  0  0  0  0  0  0
   -2.6440    1.2540    0.4300 C   0  0  0  0  0  0  0  0  0  0  0  0
   -2.4710    0.9670    1.6430 O   0  0  0  0  0  0  0  0  0  0  0  0
   -3.0950    2.6250    0.1160 C   0  0  2  0  0  0  0  0  0  0  0  0
   -3.2610    2.8350   -1.3070 N   0  0  0  0  0  0  0  0  0  0  0  0
   -2.1980    3.6810    0.7150 C   0  0  0  0  0  0  0  0  0  0  0  0
   -2.7460    5.0090    0.3360 C   0  0  0  0  0  0  0  0  0  0  0  0
   -2.4030    5.6730   -0.7730 N   0  0  0  0  0  0  0  0  0  0  0  0
   -3.0860    6.8170   -0.7840 N   0  0  0  0  0  0  0  0  0  0  0  0
   -3.8520    6.8910    0.2910 N   0  0  0  0  0  0  0  0  0  0  0  0
   -3.6410    5.7820    0.9770 N   0  0  0  0  0  0  0  0  0  0  0  0
    3.0340   -0.2250    0.9210 C   0  0  0  0  0  0  0  0  0  0  0  0
    3.2060   -0.0310    2.1510 O   0  0  0  0  0  0  0  0  0  0  0  0
    3.9630    0.3910    0.0450 N   0  0  0  0  0  0  0  0  0  0  0  0
    5.0460    1.1980    0.5720 C   0  0  1  0  0  0  0  0  0  0  0  0
    6.4070    0.6300    0.2300 C   0  0  0  0  0  0  0  0  0  0  0  0
    4.9840    2.5920    0.0130 C   0  0  0  0  0  0  0  0  0  0  0  0
    5.9480    3.5610    0.3850 N   0  0  0  0  0  0  0  0  0  0  0  0
    4.0840    2.9400   -0.7930 O   0  0  0  0  0  0  0  0  0  0  0  0
  2  1  1  6
  2  3  1  0
  2 26  1  0
  3  4  1  0
  4  5  2  0
  4  6  1  1
  4  7  1  0
  7  8  1  6
  7 15  1  0
  8  9  1  0
  9 10  2  0
  9 14  1  0
 10 11  1  0
 11 12  2  0
 12 13  1  0
 13 14  2  0
 15 16  1  0
 16 17  2  0
 16 18  1  0
 18 19  1  6
 18 20  1  0
 20 21  1  0
 21 22  2  0
 21 25  1  0
 22 23  1  0
 23 24  2  0
 24 25  1  0
 26 27  2  0
 26 28  1  0
 28 29  1  0
 29 30  1  6
 29 31  1  0
 31 32  1  0
 31 33  2  0
M  END
