
     RDKit          3D

 32 33  0  0  0  0  0  0  0  0999 V2000
   -0.7170   -2.5040   -4.0230 C   0  0  0  0  0  0  0  0  0  0  0  0
   -1.0320   -1.4030   -3.1960 O   0  0  0  0  0  0  0  0  0  0  0  0
   -0.1470   -0.9560   -2.2200 C   0  0  0  0  0  0  0  0  0  0  0  0
    1.0780   -1.6360   -2.0810 C   0  0  0  0  0  0  0  0  0  0  0  0
    1.9690   -1.2010   -1.1120 C   0  0  0  0  0  0  0  0  0  0  0  0
    1.6990   -0.1390   -0.2900 C   0  0  0  0  0  0  0  0  0  0  0  0
    0.4910    0.4990   -0.4580 C   0  0  0  0  0  0  0  0  0  0  0  0
   -0.4510    0.1020   -1.4240 C   0  0  0  0  0  0  0  0  0  0  0  0
   -1.6990    0.8450   -1.5240 C   0  0  0  0  0  0  0  0  0  0  0  0
   -1.8830    1.8360   -0.7060 O   0  0  0  0  0  0  0  0  0  0  0  0
   -2.7640    0.6350   -2.4060 N   0  0  0  0  0  0  0  0  0  0  0  0
   -3.9780    1.4340   -2.4100 C   0  0  0  0  0  0  0  0  0  0  0  0
   -4.7200    1.2810   -1.0510 C   0  0  2  0  0  0  0  0  0  0  0  0
   -5.0550   -0.1340   -0.8260 C   0  0  0  0  0  0  0  0  0  0  0  0
   -5.7580   -0.5860    0.2700 N   0  0  0  0  0  0  0  0  0  0  0  0
   -5.2580   -0.6540    1.5650 C   0  0  1  0  0  0  0  0  0  0  0  0
   -4.9410    0.6430    2.2460 C   0  0  0  0  0  0  0  0  0  0  0  0
   -6.1850   -1.4960    2.4740 C   0  0  0  0  0  0  0  0  0  0  0  0
   -5.8810    2.0490   -1.1390 O   0  0  0  0  0  0  0  0  0  0  0  0
   -5.8720    3.2000   -0.3950 C   0  0  0  0  0  0  0  0  0  0  0  0
    2.6420    0.3420    0.7900 C   0  0  0  0  0  0  0  0  0  0  0  0
    4.0630    0.1200    0.1960 C   0  0  1  0  0  0  0  0  0  0  0  0
    5.0920    0.7380    1.0550 C   0  0  0  0  0  0  0  0  0  0  0  0
    6.3740    0.7140    0.7510 O   0  0  0  0  0  0  0  0  0  0  0  0
    7.2130   -0.2990    0.6910 C   0  0  0  0  0  0  0  0  0  0  0  0
    7.4880   -1.0000    2.0200 C   0  0  0  0  0  0  0  0  0  0  0  0
    8.2520    0.2250    3.2110 P   0  0  0  0  0  0  0  0  0  0  0  0
    6.9950    0.7680    4.2760 O   0  0  0  0  0  0  0  0  0  0  0  0
    8.9050    1.5230    2.2710 O   0  0  0  0  0  0  0  0  0  0  0  0
    4.1220   -1.3410    0.0520 C   0  0  0  0  0  0  0  0  0  0  0  0
    4.8000   -2.1660    0.6610 O   0  0  0  0  0  0  0  0  0  0  0  0
    3.2330   -1.8710   -0.9700 N   0  0  0  0  0  0  0  0  0  0  0  0
  1  2  1  0
  2  3  1  0
  3  4  2  0
  3  8  1  0
  4  5  1  0
  5  6  2  0
  5 32  1  0
  6  7  1  0
  6 21  1  0
  7  8  2  0
  8  9  1  0
  9 10  2  0
  9 11  1  0
 11 12  1  0
 13 12  1  6
 13 14  1  0
 13 19  1  0
 14 15  1  0
 15 16  1  0
 16 17  1  1
 16 18  1  0
 19 20  1  0
 21 22  1  0
 22 23  1  1
 22 30  1  0
 23 24  1  0
 24 25  1  0
 25 26  1  0
 26 27  1  0
 27 28  1  0
 27 29  1  0
 30 31  2  0
 30 32  1  0
M  END
