
     RDKit          3D

 32 32  0  0  0  0  0  0  0  0999 V2000
   -7.1720    4.1400   -0.0610 C   0  0  0  0  0  0  0  0  0  0  0  0
   -6.7120    2.7520    0.2330 C   0  0  0  0  0  0  0  0  0  0  0  0
   -5.3360    2.5910    0.0920 O   0  0  0  0  0  0  0  0  0  0  0  0
   -4.8110    0.9990    0.4300 P   0  0  0  0  0  0  0  0  0  0  0  0
   -3.5050    0.9360    1.6670 C   0  0  0  0  0  0  0  0  0  0  0  0
   -2.1480    0.7600    1.1430 N   0  0  0  0  0  0  0  0  0  0  0  0
   -1.4650    1.9940    0.8650 C   0  0  0  0  0  0  0  0  0  0  0  0
   -1.5760   -0.4850    0.9490 C   0  0  0  0  0  0  0  0  0  0  0  0
   -2.3190   -1.4900    1.2870 O   0  0  0  0  0  0  0  0  0  0  0  0
   -0.2470   -0.8220    0.4110 C   0  0  1  0  0  0  0  0  0  0  0  0
    0.8380   -0.0160    1.0220 C   0  0  0  0  0  0  0  0  0  0  0  0
    0.6180    0.5600    2.1140 O   0  0  0  0  0  0  0  0  0  0  0  0
    2.0930    0.1420    0.4630 O   0  0  0  0  0  0  0  0  0  0  0  0
    3.0840    0.9480    1.1290 C   0  0  0  0  0  0  0  0  0  0  0  0
    4.3840    0.9840    0.3320 C   0  0  0  0  0  0  0  0  0  0  0  0
    4.9600   -0.3600    0.1800 C   0  0  0  0  0  0  0  0  0  0  0  0
    4.2570   -1.3480    0.6470 O   0  0  0  0  0  0  0  0  0  0  0  0
    6.1760   -0.7210   -0.4060 N   0  0  0  0  0  0  0  0  0  0  0  0
    6.5210   -2.1760   -0.4440 C   0  0  0  0  0  0  0  0  0  0  0  0
    7.1450    0.1210   -0.9640 C   0  0  0  0  0  0  0  0  0  0  0  0
    8.2140   -0.4350   -1.4410 O   0  0  0  0  0  0  0  0  0  0  0  0
    7.1210    1.5860   -1.0870 C   0  0  0  0  0  0  0  0  0  0  0  0
    7.7990    2.1560    0.1680 C   0  0  0  0  0  0  0  0  0  0  0  0
    0.0790   -2.2780    0.8940 C   0  0  0  0  0  0  0  0  0  0  0  0
    1.0370   -2.9520   -0.0380 C   0  0  0  0  0  0  0  0  0  0  0  0
    0.2390   -3.3340   -1.2840 C   0  0  0  0  0  0  0  0  0  0  0  0
   -0.8030   -2.2600   -1.4930 C   0  0  0  0  0  0  0  0  0  0  0  0
   -0.1920   -0.9260   -1.0840 C   0  0  1  0  0  0  0  0  0  0  0  0
   -0.8210    0.1600   -1.7690 N   0  0  0  0  0  0  0  0  0  0  0  0
   -6.1060   -0.1100    0.6690 O   0  0  0  0  0  0  0  0  0  0  0  0
   -6.0380   -1.0980   -0.3050 C   0  0  0  0  0  0  0  0  0  0  0  0
   -7.1310   -2.1230   -0.1850 C   0  0  0  0  0  0  0  0  0  0  0  0
  1  2  1  0
  2  3  1  0
  3  4  1  0
  4  5  1  0
  4 30  1  0
  5  6  1  0
  6  7  1  0
  6  8  1  0
  8  9  2  0
 10  8  1  6
 10 11  1  0
 10 24  1  0
 10 28  1  0
 11 12  2  0
 11 13  1  0
 13 14  1  0
 14 15  1  0
 15 16  1  0
 16 17  2  0
 16 18  1  0
 18 19  1  0
 18 20  1  0
 20 21  2  0
 20 22  1  0
 22 23  1  0
 24 25  1  0
 25 26  1  0
 26 27  1  0
 27 28  1  0
 28 29  1  6
 30 31  1  0
 31 32  1  0
M  END
