
     RDKit          3D

 32 33  0  0  0  0  0  0  0  0999 V2000
   -3.3940    6.8590    0.0690 C   0  0  0  0  0  0  0  0  0  0  0  0
   -3.6580    5.4010   -0.1000 C   0  0  0  0  0  0  0  0  0  0  0  0
   -4.9080    4.9980   -0.2760 C   0  0  0  0  0  0  0  0  0  0  0  0
   -5.1940    3.6640   -0.4350 O   0  0  0  0  0  0  0  0  0  0  0  0
   -4.2350    2.6460   -0.4280 C   0  0  0  0  0  0  0  0  0  0  0  0
   -2.8460    3.1140   -0.2310 C   0  0  0  0  0  0  0  0  0  0  0  0
   -1.7660    2.2200   -0.2020 N   0  0  0  0  0  0  0  0  0  0  0  0
   -1.9810    1.0050    0.0530 C   0  0  0  0  0  0  0  0  0  0  0  0
   -0.7860    0.0830    0.0710 C   0  0  0  0  0  0  0  0  0  0  0  0
    0.4470    0.7500   -0.1920 C   0  0  0  0  0  0  0  0  0  0  0  0
    0.3690    2.0310   -0.4440 O   0  0  0  0  0  0  0  0  0  0  0  0
    1.7560    0.2640   -0.2200 N   0  0  0  0  0  0  0  0  0  0  0  0
    2.8770    1.1570   -0.5330 C   0  0  0  0  0  0  0  0  0  0  0  0
    4.1770    0.3870   -0.5000 C   0  0  0  0  0  0  0  0  0  0  0  0
    5.3370    1.3050   -0.8220 C   0  0  0  0  0  0  0  0  0  0  0  0
    6.6550    0.5820   -0.8020 C   0  0  0  0  0  0  0  0  0  0  0  0
    6.9980   -0.1550    0.8470 P   0  0  0  0  0  0  0  0  0  0  0  0
    6.7760   -1.8530    0.9060 O   0  0  0  0  0  0  0  0  0  0  0  0
    8.4620    0.3840    1.5490 O   0  0  0  0  0  0  0  0  0  0  0  0
   -1.0990   -1.1330    0.3840 C   0  0  0  0  0  0  0  0  0  0  0  0
   -2.4680   -1.4960    0.7070 O   0  0  0  0  0  0  0  0  0  0  0  0
   -2.5250   -2.6330    1.5810 C   0  0  1  0  0  0  0  0  0  0  0  0
   -2.7800   -3.9170    0.8680 C   0  0  0  0  0  0  0  0  0  0  0  0
   -4.0890   -3.9190    0.1130 C   0  0  0  0  0  0  0  0  0  0  0  0
   -4.2150   -5.1590   -0.5080 O   0  0  0  0  0  0  0  0  0  0  0  0
   -1.3230   -2.7650    2.4770 C   0  0  0  0  0  0  0  0  0  0  0  0
   -0.0090   -2.8870    1.7340 C   0  0  0  0  0  0  0  0  0  0  0  0
   -0.2000   -2.2190    0.4330 N   0  0  0  0  0  0  0  0  0  0  0  0
    0.4550   -2.6940   -0.7410 C   0  0  0  0  0  0  0  0  0  0  0  0
    0.1510   -2.0910   -2.0520 C   0  0  0  0  0  0  0  0  0  0  0  0
    0.8970   -2.7090   -3.0890 O   0  0  0  0  0  0  0  0  0  0  0  0
   -2.6170    4.4140   -0.0810 C   0  0  0  0  0  0  0  0  0  0  0  0
  1  2  1  0
  2  3  2  0
  2 32  1  0
  3  4  1  0
  4  5  1  0
  5  6  1  0
  6  7  1  0
  6 32  2  0
  7  8  2  3
  8  9  1  0
  9 10  1  0
  9 20  2  3
 10 11  2  0
 10 12  1  0
 12 13  1  0
 13 14  1  0
 14 15  1  0
 15 16  1  0
 16 17  1  0
 17 18  1  0
 17 19  1  0
 20 21  1  0
 20 28  1  0
 21 22  1  0
 22 23  1  6
 22 26  1  0
 23 24  1  0
 24 25  1  0
 26 27  1  0
 27 28  1  0
 28 29  1  0
 29 30  1  0
 30 31  1  0
M  END
