
     RDKit          3D

 32 33  0  0  0  0  0  0  0  0999 V2000
    2.6280    0.8620    1.8300 C   0  0  0  0  0  0  0  0  0  0  0  0
    3.3060    0.8470    0.5090 C   0  0  2  0  0  0  0  0  0  0  0  0
    4.6320    1.6380    0.7710 C   0  0  0  0  0  0  0  0  0  0  0  0
    2.6710    1.5850   -0.6010 C   0  0  0  0  0  0  0  0  0  0  0  0
    1.4030    1.2970   -1.0390 O   0  0  0  0  0  0  0  0  0  0  0  0
    0.1910    1.4300   -0.4310 C   0  0  0  0  0  0  0  0  0  0  0  0
    0.1700    1.8860    0.7280 O   0  0  0  0  0  0  0  0  0  0  0  0
   -1.1090    1.0680   -1.0740 C   0  0  2  0  0  0  0  0  0  0  0  0
   -2.0700    2.0470   -0.5440 N   0  0  0  0  0  0  0  0  0  0  0  0
   -1.6560    3.3920   -0.9000 C   0  0  0  0  0  0  0  0  0  0  0  0
   -2.6290    4.4010   -0.3350 C   0  0  0  0  0  0  0  0  0  0  0  0
   -2.2150    5.6680   -0.6770 O   0  0  0  0  0  0  0  0  0  0  0  0
   -3.2360    6.9040   -0.0580 P   0  0  0  0  0  0  0  0  0  0  0  0
   -2.4780    7.7620    1.2530 O   0  0  0  0  0  0  0  0  0  0  0  0
   -4.7610    6.2390    0.5250 O   0  0  0  0  0  0  0  0  0  0  0  0
   -1.5580   -0.2990   -0.6880 C   0  0  0  0  0  0  0  0  0  0  0  0
   -1.6050   -1.3570   -1.5930 C   0  0  0  0  0  0  0  0  0  0  0  0
   -2.0190   -2.6170   -1.2350 C   0  0  0  0  0  0  0  0  0  0  0  0
   -2.4060   -2.8630    0.0690 C   0  0  0  0  0  0  0  0  0  0  0  0
   -2.8690   -4.1910    0.5360 C   0  0  1  0  0  0  0  0  0  0  0  0
   -3.6000   -4.0520    1.8620 C   0  0  0  0  0  0  0  0  0  0  0  0
   -3.8260   -4.8220   -0.4440 C   0  0  0  0  0  0  0  0  0  0  0  0
   -1.7800   -5.0120    0.7830 O   0  0  0  0  0  0  0  0  0  0  0  0
   -2.3680   -1.8360    0.9910 C   0  0  0  0  0  0  0  0  0  0  0  0
   -1.9480   -0.5670    0.6110 C   0  0  0  0  0  0  0  0  0  0  0  0
    3.8120   -0.5250    0.1410 C   0  0  0  0  0  0  0  0  0  0  0  0
    3.4800   -1.6270    0.7700 C   0  0  0  0  0  0  0  0  0  0  0  0
    3.9360   -2.9960    0.4570 C   0  0  0  0  0  0  0  0  0  0  0  0
    4.9610   -3.0440   -0.5760 N   0  0  0  0  0  0  0  0  0  0  0  0
    5.3410   -1.8890   -1.2900 C   0  0  0  0  0  0  0  0  0  0  0  0
    6.1740   -1.9940   -2.2310 O   0  0  0  0  0  0  0  0  0  0  0  0
    4.7740   -0.6480   -0.9320 N   0  0  0  0  0  0  0  0  0  0  0  0
  2  1  1  1
  2  3  1  0
  2  4  1  0
  2 26  1  0
  4  5  1  0
  5  6  1  0
  6  7  2  0
  6  8  1  0
  8  9  1  1
  8 16  1  0
  9 10  1  0
 10 11  1  0
 11 12  1  0
 12 13  1  0
 13 14  1  0
 13 15  1  0
 16 17  2  0
 16 25  1  0
 17 18  1  0
 18 19  2  0
 19 20  1  0
 19 24  1  0
 20 21  1  1
 20 22  1  0
 20 23  1  0
 24 25  2  0
 26 27  2  0
 26 32  1  0
 27 28  1  0
 28 29  1  0
 29 30  1  0
 30 31  2  0
 30 32  1  0
M  END
