
     RDKit          3D

 31 32  0  0  0  0  0  0  0  0999 V2000
    3.6540    1.8660   -1.5380 C   0  0  0  0  0  0  0  0  0  0  0  0
    3.6790    1.5050   -0.0820 C   0  0  1  0  0  0  0  0  0  0  0  0
    4.7470    2.2680    0.6520 C   0  0  0  0  0  0  0  0  0  0  0  0
    6.1480    2.0460    0.2660 C   0  0  0  0  0  0  0  0  0  0  0  0
    6.6530    2.4500   -1.4530 P   0  0  0  0  0  0  0  0  0  0  0  0
    8.2300    3.2390   -1.4420 O   0  0  0  0  0  0  0  0  0  0  0  0
    6.7680    1.0130   -2.4580 O   0  0  0  0  0  0  0  0  0  0  0  0
    2.4560    1.7000    0.6050 N   0  0  0  0  0  0  0  0  0  0  0  0
    1.3170    0.9340    0.2060 C   0  0  0  0  0  0  0  0  0  0  0  0
    1.4760   -0.5440    0.4970 C   0  0  0  0  0  0  0  0  0  0  0  0
    0.5650   -1.4120    0.2320 O   0  0  0  0  0  0  0  0  0  0  0  0
   -0.6380   -1.7360    0.5210 C   0  0  2  0  0  0  0  0  0  0  0  0
   -1.7070   -0.7660    0.1910 C   0  0  0  0  0  0  0  0  0  0  0  0
   -2.1040    0.3880    0.8600 C   0  0  0  0  0  0  0  0  0  0  0  0
   -3.1750    0.9380    0.1810 C   0  0  0  0  0  0  0  0  0  0  0  0
   -3.8190    2.1810    0.6040 C   0  0  0  0  0  0  0  0  0  0  0  0
   -5.0790    2.5450   -0.0970 C   0  0  2  0  0  0  0  0  0  0  0  0
   -6.1650    1.4980    0.1020 C   0  0  0  0  0  0  0  0  0  0  0  0
   -4.9310    2.8580   -1.5500 C   0  0  0  0  0  0  0  0  0  0  0  0
   -5.6040    3.8120    0.6030 C   0  0  0  0  0  0  0  0  0  0  0  0
   -3.3920    0.1310   -0.8430 N   0  0  0  0  0  0  0  0  0  0  0  0
   -2.5430   -0.8770   -0.8600 N   0  0  0  0  0  0  0  0  0  0  0  0
   -0.8910   -2.3230    1.9110 C   0  0  0  0  0  0  0  0  0  0  0  0
   -0.3010   -3.5690    1.7950 O   0  0  0  0  0  0  0  0  0  0  0  0
   -0.2840   -3.8880    0.4330 C   0  0  1  0  0  0  0  0  0  0  0  0
    1.0990   -3.9010   -0.1290 C   0  0  0  0  0  0  0  0  0  0  0  0
   -0.8760   -5.2900    0.3420 C   0  0  0  0  0  0  0  0  0  0  0  0
   -0.0440   -6.1430    1.1100 O   0  0  0  0  0  0  0  0  0  0  0  0
   -0.2820   -7.4910    1.2660 C   0  0  0  0  0  0  0  0  0  0  0  0
   -1.2850   -7.9920    0.6960 O   0  0  0  0  0  0  0  0  0  0  0  0
   -1.0370   -2.9310   -0.2190 O   0  0  0  0  0  0  0  0  0  0  0  0
  2  1  1  6
  2  3  1  0
  2  8  1  0
  3  4  1  0
  4  5  1  0
  5  6  1  0
  5  7  1  0
  8  9  1  0
  9 10  1  0
 10 11  1  0
 12 11  1  1
 12 13  1  0
 12 23  1  0
 12 31  1  0
 13 14  1  0
 13 22  2  0
 14 15  2  0
 15 16  1  0
 15 21  1  0
 16 17  1  0
 17 18  1  6
 17 19  1  0
 17 20  1  0
 21 22  1  0
 23 24  1  0
 24 25  1  0
 25 26  1  6
 25 27  1  0
 25 31  1  0
 27 28  1  0
 28 29  1  0
 29 30  2  0
M  END
