
     RDKit          3D

 32 33  0  0  0  0  0  0  0  0999 V2000
   -7.4870   -2.9550   -1.3940 C   0  0  0  0  0  0  0  0  0  0  0  0
   -7.0590   -1.5050   -1.2500 C   0  0  0  0  0  0  0  0  0  0  0  0
   -5.6900   -1.3670   -1.5130 O   0  0  0  0  0  0  0  0  0  0  0  0
   -5.2370    0.2840   -1.3430 P   0  0  0  0  0  0  0  0  0  0  0  0
   -5.1350    0.7840    0.4640 C   0  0  0  0  0  0  0  0  0  0  0  0
   -3.8470    0.3850    0.8870 O   0  0  0  0  0  0  0  0  0  0  0  0
   -2.8700    1.0040    0.1520 C   0  0  0  0  0  0  0  0  0  0  0  0
   -1.5180    0.5820    0.6020 C   0  0  0  0  0  0  0  0  0  0  0  0
   -1.2060   -0.8040    0.5000 N   0  0  0  0  0  0  0  0  0  0  0  0
   -1.9380   -1.6580    1.4250 C   0  0  0  0  0  0  0  0  0  0  0  0
   -1.2920   -1.4090    2.7720 C   0  0  1  0  0  0  0  0  0  0  0  0
   -1.0780   -2.6290    3.5190 N   0  0  0  0  0  0  0  0  0  0  0  0
    0.0930   -0.8660    2.3840 C   0  0  0  0  0  0  0  0  0  0  0  0
    0.1450   -1.1360    0.9190 C   0  0  2  0  0  0  0  0  0  0  0  0
    1.2140   -0.5130    0.1640 C   0  0  0  0  0  0  0  0  0  0  0  0
    1.0420    0.1830   -0.8630 O   0  0  0  0  0  0  0  0  0  0  0  0
    2.5550   -0.6890    0.5990 N   0  0  0  0  0  0  0  0  0  0  0  0
    3.6560   -0.0920   -0.1170 C   0  0  0  0  0  0  0  0  0  0  0  0
    3.3560    0.5740   -1.1260 O   0  0  0  0  0  0  0  0  0  0  0  0
    5.0150   -0.2770    0.3350 C   0  0  0  0  0  0  0  0  0  0  0  0
    5.1480   -0.9880    1.4020 O   0  0  0  0  0  0  0  0  0  0  0  0
    6.2260    0.2440   -0.2710 C   0  0  0  0  0  0  0  0  0  0  0  0
    6.2450    0.9800   -1.3540 C   0  0  0  0  0  0  0  0  0  0  0  0
    7.4940    1.4870   -1.9370 C   0  0  0  0  0  0  0  0  0  0  0  0
    8.7260    1.3180   -1.1400 C   0  0  0  0  0  0  0  0  0  0  0  0
    8.7260   -0.0690   -0.4770 C   0  0  1  0  0  0  0  0  0  0  0  0
    9.9820   -0.2590    0.3280 C   0  0  0  0  0  0  0  0  0  0  0  0
    7.5110   -0.0690    0.3720 C   0  0  0  0  0  0  0  0  0  0  0  0
    7.5350   -0.3230    1.6030 O   0  0  0  0  0  0  0  0  0  0  0  0
   -6.3050    1.3550   -2.1780 O   0  0  0  0  0  0  0  0  0  0  0  0
   -6.6120    2.4440   -1.3390 C   0  0  0  0  0  0  0  0  0  0  0  0
   -7.5550    3.3590   -2.1190 C   0  0  0  0  0  0  0  0  0  0  0  0
  1  2  1  0
  2  3  1  0
  3  4  1  0
  4  5  1  0
  4 30  1  0
  5  6  1  0
  6  7  1  0
  7  8  1  0
  8  9  1  0
  9 10  1  0
  9 14  1  0
 10 11  1  0
 11 12  1  6
 11 13  1  0
 13 14  1  0
 14 15  1  6
 15 16  2  0
 15 17  1  0
 17 18  1  0
 18 19  2  0
 18 20  1  0
 20 21  2  0
 20 22  1  0
 22 23  2  0
 22 28  1  0
 23 24  1  0
 24 25  1  0
 25 26  1  0
 26 27  1  1
 26 28  1  0
 28 29  2  0
 30 31  1  0
 31 32  1  0
M  END
