
     RDKit          3D

 38 42  0  0  0  0  0  0  0  0999 V2000
   -4.5720    1.3630    3.1670 C   0  0  0  0  0  0  0  0  0  0  0  0
   -3.6860    0.9070    2.0340 C   0  0  0  0  0  0  0  0  0  0  0  0
   -3.7070    1.5930    0.8350 C   0  0  0  0  0  0  0  0  0  0  0  0
   -2.8950    1.1880   -0.2250 C   0  0  0  0  0  0  0  0  0  0  0  0
   -2.9640    1.8880   -1.4430 N   0  0  0  0  0  0  0  0  0  0  0  0
   -3.6490    3.1040   -1.6370 C   0  0  0  0  0  0  0  0  0  0  0  0
   -4.2750    3.7150   -0.7560 O   0  0  0  0  0  0  0  0  0  0  0  0
   -3.6350    3.7270   -3.0070 C   0  0  0  0  0  0  0  0  0  0  0  0
   -4.3530    4.9180   -3.0160 O   0  0  0  0  0  0  0  0  0  0  0  0
   -2.0720    0.1060   -0.0800 C   0  0  0  0  0  0  0  0  0  0  0  0
   -1.1780   -0.3870   -1.1100 C   0  0  1  0  0  0  0  0  0  0  0  0
    0.2430   -0.4550   -0.6400 C   0  0  0  0  0  0  0  0  0  0  0  0
    0.7200    0.7090    0.1000 C   0  0  0  0  0  0  0  0  0  0  0  0
   -0.2150    1.6680    0.2330 O   0  0  0  0  0  0  0  0  0  0  0  0
    1.9220    1.0700    0.7080 C   0  0  0  0  0  0  0  0  0  0  0  0
    3.0770    0.4740    0.8320 C   0  0  0  0  0  0  0  0  0  0  0  0
    4.2110    1.0510    1.5210 N   0  0  0  0  0  0  0  0  0  0  0  0
    4.2990    2.2290    2.1290 C   0  0  0  0  0  0  0  0  0  0  0  0
    3.4520    3.1580    2.2820 O   0  0  0  0  0  0  0  0  0  0  0  0
    5.5520    2.4000    2.6620 N   0  0  0  0  0  0  0  0  0  0  0  0
    6.2660    1.3040    2.3800 C   0  0  0  0  0  0  0  0  0  0  0  0
    7.5660    0.9360    2.6640 C   0  0  0  0  0  0  0  0  0  0  0  0
    8.0490   -0.2750    2.2430 C   0  0  0  0  0  0  0  0  0  0  0  0
    7.2260   -1.1130    1.5390 C   0  0  0  0  0  0  0  0  0  0  0  0
    5.9280   -0.7360    1.2590 C   0  0  0  0  0  0  0  0  0  0  0  0
    5.4270    0.4750    1.6740 C   0  0  0  0  0  0  0  0  0  0  0  0
    0.9340   -1.5040   -0.9060 C   0  0  0  0  0  0  0  0  0  0  0  0
    0.4970   -2.6700   -1.6240 N   0  0  0  0  0  0  0  0  0  0  0  0
   -0.8540   -2.6340   -2.0780 C   0  0  0  0  0  0  0  0  0  0  0  0
   -1.3510   -3.7360   -2.7780 C   0  0  0  0  0  0  0  0  0  0  0  0
   -0.4170   -4.8780   -3.0090 C   0  0  0  0  0  0  0  0  0  0  0  0
   -2.6470   -3.7440   -3.2220 C   0  0  0  0  0  0  0  0  0  0  0  0
   -3.4420   -2.6420   -2.9620 C   0  0  0  0  0  0  0  0  0  0  0  0
   -2.9810   -1.5640   -2.2860 C   0  0  0  0  0  0  0  0  0  0  0  0
   -1.6360   -1.5570   -1.8260 C   0  0  0  0  0  0  0  0  0  0  0  0
   -2.0560   -0.5730    1.1170 C   0  0  0  0  0  0  0  0  0  0  0  0
   -2.8580   -0.1730    2.1650 C   0  0  0  0  0  0  0  0  0  0  0  0
   -2.8320   -0.8820    3.3940 N   0  0  0  0  0  0  0  0  0  0  0  0
  1  2  1  0
  2  3  2  0
  2 37  1  0
  3  4  1  0
  4  5  1  0
  4 10  2  0
  5  6  1  0
  6  7  2  0
  6  8  1  0
  8  9  1  0
 11 10  1  1
 10 36  1  0
 11 12  1  0
 11 35  1  0
 12 13  1  0
 12 27  2  0
 13 14  2  0
 13 15  1  0
 15 16  2  3
 16 17  1  0
 17 18  1  0
 17 26  1  0
 18 19  2  0
 18 20  1  0
 20 21  1  0
 21 22  2  0
 21 26  1  0
 22 23  1  0
 23 24  2  0
 24 25  1  0
 25 26  2  0
 27 28  1  0
 28 29  1  0
 29 30  2  0
 29 35  1  0
 30 31  1  0
 30 32  1  0
 32 33  2  0
 33 34  1  0
 34 35  2  0
 36 37  2  0
 37 38  1  0
M  END
