
     RDKit          3D

 38 42  0  0  0  0  0  0  0  0999 V2000
  -11.4790    1.6930   -2.1600 C   0  0  0  0  0  0  0  0  0  0  0  0
  -10.0750    1.6050   -2.3080 O   0  0  0  0  0  0  0  0  0  0  0  0
   -9.3140    1.2150   -1.2090 C   0  0  0  0  0  0  0  0  0  0  0  0
   -9.9110    0.9200    0.0030 C   0  0  0  0  0  0  0  0  0  0  0  0
   -9.1870    0.5320    1.1060 C   0  0  0  0  0  0  0  0  0  0  0  0
   -7.8060    0.4190    1.0470 C   0  0  0  0  0  0  0  0  0  0  0  0
   -7.2040    0.7120   -0.1580 C   0  0  0  0  0  0  0  0  0  0  0  0
   -7.9390    1.1040   -1.2740 C   0  0  0  0  0  0  0  0  0  0  0  0
   -5.7600    0.5380   -0.0350 C   0  0  0  0  0  0  0  0  0  0  0  0
   -4.7330    0.7080   -0.9570 C   0  0  0  0  0  0  0  0  0  0  0  0
   -3.4170    0.4790   -0.6030 C   0  0  0  0  0  0  0  0  0  0  0  0
   -2.3920    0.6310   -1.4630 N   0  0  0  0  0  0  0  0  0  0  0  0
   -1.1000    0.4080   -1.1190 C   0  0  0  0  0  0  0  0  0  0  0  0
   -0.1860    0.5650   -1.9580 O   0  0  0  0  0  0  0  0  0  0  0  0
   -0.7920    0.0080    0.1550 C   0  0  0  0  0  0  0  0  0  0  0  0
    0.5760   -0.2540    0.6120 C   0  0  0  0  0  0  0  0  0  0  0  0
    1.5010    0.5100    0.2610 O   0  0  0  0  0  0  0  0  0  0  0  0
    0.8860   -1.3550    1.4490 N   0  0  0  0  0  0  0  0  0  0  0  0
    2.1950   -1.6770    1.9410 C   0  0  0  0  0  0  0  0  0  0  0  0
    2.9890   -2.2770    0.8430 C   0  0  0  0  0  0  0  0  0  0  0  0
    2.5540   -3.3420    0.1220 C   0  0  0  0  0  0  0  0  0  0  0  0
    3.3080   -3.8860   -0.8890 C   0  0  0  0  0  0  0  0  0  0  0  0
    4.5210   -3.3200   -1.1520 C   0  0  0  0  0  0  0  0  0  0  0  0
    5.0210   -2.2190   -0.4390 C   0  0  0  0  0  0  0  0  0  0  0  0
    6.2940   -1.7100   -0.7690 N   0  0  0  0  0  0  0  0  0  0  0  0
    6.8660   -0.5070   -0.3540 C   0  0  0  0  0  0  0  0  0  0  0  0
    6.2410    0.2720    0.3890 O   0  0  0  0  0  0  0  0  0  0  0  0
    8.1780   -0.1020   -0.7440 N   0  0  0  0  0  0  0  0  0  0  0  0
    8.7030    1.1590   -0.2720 C   0  0  1  0  0  0  0  0  0  0  0  0
    9.9460    0.9740    0.5810 C   0  0  0  0  0  0  0  0  0  0  0  0
    8.9780    2.0310   -1.4790 C   0  0  0  0  0  0  0  0  0  0  0  0
    9.5070    3.3200   -1.1340 N   0  0  0  0  0  0  0  0  0  0  0  0
    4.2360   -1.7090    0.5600 C   0  0  0  0  0  0  0  0  0  0  0  0
   -1.8190   -0.1560    1.0540 C   0  0  0  0  0  0  0  0  0  0  0  0
   -3.1300    0.0720    0.7030 C   0  0  0  0  0  0  0  0  0  0  0  0
   -4.1780   -0.0830    1.5800 C   0  0  0  0  0  0  0  0  0  0  0  0
   -5.5020    0.1380    1.2560 C   0  0  0  0  0  0  0  0  0  0  0  0
   -6.7620    0.0330    2.0380 C   0  0  0  0  0  0  0  0  0  0  0  0
  1  2  1  0
  2  3  1  0
  3  4  2  0
  3  8  1  0
  4  5  1  0
  5  6  2  0
  6  7  1  0
  6 38  1  0
  7  8  2  0
  7  9  1  0
  9 10  2  0
  9 37  1  0
 10 11  1  0
 11 12  1  0
 11 35  2  0
 12 13  1  0
 13 14  2  0
 13 15  1  0
 15 16  1  0
 15 34  2  0
 16 17  2  0
 16 18  1  0
 18 19  1  0
 19 20  1  0
 20 21  2  0
 20 33  1  0
 21 22  1  0
 22 23  2  0
 23 24  1  0
 24 25  1  0
 24 33  2  0
 25 26  1  0
 26 27  2  0
 26 28  1  0
 28 29  1  0
 29 30  1  6
 29 31  1  0
 31 32  1  0
 34 35  1  0
 35 36  1  0
 36 37  2  0
 37 38  1  0
M  END
