
     RDKit          3D

 38 42  0  0  0  0  0  0  0  0999 V2000
    8.2340    1.1200    1.8150 C   0  0  0  0  0  0  0  0  0  0  0  0
    8.4290    0.1190    0.8520 O   0  0  0  0  0  0  0  0  0  0  0  0
    7.3520   -0.3770    0.1000 C   0  0  0  0  0  0  0  0  0  0  0  0
    6.0720    0.0760    0.2590 C   0  0  0  0  0  0  0  0  0  0  0  0
    4.9920   -0.4070   -0.4810 C   0  0  0  0  0  0  0  0  0  0  0  0
    3.6570    0.1280   -0.2750 C   0  0  0  0  0  0  0  0  0  0  0  0
    3.4530    1.0220    0.5960 O   0  0  0  0  0  0  0  0  0  0  0  0
    2.5720   -0.3350   -1.0400 N   0  0  0  0  0  0  0  0  0  0  0  0
    1.2950    0.2180   -0.8190 N   0  0  0  0  0  0  0  0  0  0  0  0
    0.1180   -0.5440   -0.6250 C   0  0  0  0  0  0  0  0  0  0  0  0
    0.3200   -1.8130   -0.6720 O   0  0  0  0  0  0  0  0  0  0  0  0
   -1.2150    0.0040   -0.3910 C   0  0  0  0  0  0  0  0  0  0  0  0
   -1.4030    1.2820   -0.3440 C   0  0  0  0  0  0  0  0  0  0  0  0
   -2.5860    2.0520   -0.1480 C   0  0  0  0  0  0  0  0  0  0  0  0
   -2.5190    3.3820   -0.1200 C   0  0  0  0  0  0  0  0  0  0  0  0
   -1.3850    4.2180   -0.2640 N   0  0  0  0  0  0  0  0  0  0  0  0
   -1.7080    5.6090   -0.1670 C   0  0  0  0  0  0  0  0  0  0  0  0
   -3.1560    5.6520    0.0640 C   0  0  0  0  0  0  0  0  0  0  0  0
   -4.1930    6.4690    0.2570 C   0  0  0  0  0  0  0  0  0  0  0  0
   -5.4350    5.6780    0.4260 C   0  0  0  0  0  0  0  0  0  0  0  0
   -4.9740    4.2760    0.3000 C   0  0  0  0  0  0  0  0  0  0  0  0
   -3.6590    4.3040    0.0940 C   0  0  0  0  0  0  0  0  0  0  0  0
   -2.2470   -0.9560   -0.0360 C   0  0  0  0  0  0  0  0  0  0  0  0
   -2.3620   -2.1380   -0.7510 C   0  0  0  0  0  0  0  0  0  0  0  0
   -3.2640   -3.1090   -0.3900 C   0  0  0  0  0  0  0  0  0  0  0  0
   -3.3530   -4.2840   -1.1520 C   0  0  0  0  0  0  0  0  0  0  0  0
   -4.2600   -5.2590   -0.8120 C   0  0  0  0  0  0  0  0  0  0  0  0
   -4.3920   -6.5140   -1.5990 C   0  0  0  0  0  0  0  0  0  0  0  0
   -5.0560   -5.0210    0.2930 C   0  0  0  0  0  0  0  0  0  0  0  0
   -4.9770   -3.8840    1.0400 C   0  0  0  0  0  0  0  0  0  0  0  0
   -4.0600   -2.8820    0.7080 C   0  0  0  0  0  0  0  0  0  0  0  0
   -3.9850   -1.7580    1.4310 N   0  0  0  0  0  0  0  0  0  0  0  0
   -3.0820   -0.8180    1.0490 C   0  0  0  0  0  0  0  0  0  0  0  0
   -3.0470    0.2250    1.7890 O   0  0  0  0  0  0  0  0  0  0  0  0
    5.2490   -1.3870   -1.4080 C   0  0  0  0  0  0  0  0  0  0  0  0
    6.5370   -1.8770   -1.6000 C   0  0  0  0  0  0  0  0  0  0  0  0
    7.5740   -1.3720   -0.8500 C   0  0  0  0  0  0  0  0  0  0  0  0
    8.8910   -1.8460   -1.0280 N   0  0  0  0  0  0  0  0  0  0  0  0
  1  2  1  0
  2  3  1  0
  3  4  2  0
  3 37  1  0
  4  5  1  0
  5  6  1  0
  5 35  2  0
  6  7  2  0
  6  8  1  0
  8  9  1  0
  9 10  1  0
 10 11  2  0
 10 12  1  0
 12 13  2  3
 12 23  1  0
 13 14  1  0
 14 15  2  3
 15 16  1  0
 15 22  1  0
 16 17  1  0
 17 18  1  0
 18 19  2  0
 18 22  1  0
 19 20  1  0
 20 21  1  0
 21 22  2  0
 23 24  2  0
 23 33  1  0
 24 25  1  0
 25 26  2  0
 25 31  1  0
 26 27  1  0
 27 28  1  0
 27 29  2  0
 29 30  1  0
 30 31  2  0
 31 32  1  0
 32 33  1  0
 33 34  2  0
 35 36  1  0
 36 37  2  0
 37 38  1  0
M  END
