
     RDKit          3D

 38 42  0  0  0  0  0  0  0  0999 V2000
   -5.5250    3.3970   -0.7540 C   0  0  0  0  0  0  0  0  0  0  0  0
   -5.3490    2.1220   -0.5150 C   0  0  0  0  0  0  0  0  0  0  0  0
   -4.0550    1.6110   -0.6610 C   0  0  0  0  0  0  0  0  0  0  0  0
   -3.7550    0.2990   -0.4390 C   0  0  0  0  0  0  0  0  0  0  0  0
   -2.4430   -0.1610   -0.5360 N   0  0  0  0  0  0  0  0  0  0  0  0
   -1.4360    0.5860   -1.1920 C   0  0  0  0  0  0  0  0  0  0  0  0
   -1.7140    1.2480   -2.3570 C   0  0  0  0  0  0  0  0  0  0  0  0
   -0.7320    1.9970   -2.9920 C   0  0  0  0  0  0  0  0  0  0  0  0
    0.5110    2.0490   -2.4170 C   0  0  0  0  0  0  0  0  0  0  0  0
    0.8510    1.3950   -1.2330 C   0  0  0  0  0  0  0  0  0  0  0  0
    2.1440    1.5040   -0.6910 N   0  0  0  0  0  0  0  0  0  0  0  0
    2.7140    0.7150    0.3310 C   0  0  0  0  0  0  0  0  0  0  0  0
    2.0430   -0.2060    0.8520 O   0  0  0  0  0  0  0  0  0  0  0  0
    4.1040    0.9660    0.7970 C   0  0  0  0  0  0  0  0  0  0  0  0
    4.8030    1.8840    0.3040 O   0  0  0  0  0  0  0  0  0  0  0  0
    4.6400    0.1160    1.8500 C   0  0  0  0  0  0  0  0  0  0  0  0
    5.3430   -1.1420    1.2940 C   0  0  2  0  0  0  0  0  0  0  0  0
    5.8320   -1.8940    2.4270 N   0  0  0  0  0  0  0  0  0  0  0  0
    7.0940   -1.6310    3.0120 C   0  0  0  0  0  0  0  0  0  0  0  0
    7.3360   -2.0660    4.1860 O   0  0  0  0  0  0  0  0  0  0  0  0
    8.0630   -0.8930    2.2910 N   0  0  0  0  0  0  0  0  0  0  0  0
    7.7110   -0.4300    0.9820 C   0  0  0  0  0  0  0  0  0  0  0  0
    8.6860    0.1240    0.1980 N   0  0  0  0  0  0  0  0  0  0  0  0
    8.4750    0.4300   -1.0820 C   0  0  0  0  0  0  0  0  0  0  0  0
    7.2440    0.1880   -1.6490 C   0  0  0  0  0  0  0  0  0  0  0  0
    6.2450   -0.3700   -0.8680 C   0  0  0  0  0  0  0  0  0  0  0  0
    5.1070   -0.6170   -1.3320 O   0  0  0  0  0  0  0  0  0  0  0  0
    6.4720   -0.6840    0.4700 C   0  0  0  0  0  0  0  0  0  0  0  0
   -0.1400    0.6730   -0.6430 C   0  0  0  0  0  0  0  0  0  0  0  0
   -4.7610   -0.5710   -0.0500 C   0  0  0  0  0  0  0  0  0  0  0  0
   -6.0300   -0.0750    0.0970 C   0  0  0  0  0  0  0  0  0  0  0  0
   -6.3690    1.2730   -0.1290 C   0  0  0  0  0  0  0  0  0  0  0  0
   -7.6020    1.6700    0.0010 C   0  0  0  0  0  0  0  0  0  0  0  0
   -7.1850   -0.8600    0.5560 C   0  0  0  0  0  0  0  0  0  0  0  0
   -7.4210   -2.1500    0.3840 C   0  0  0  0  0  0  0  0  0  0  0  0
   -6.4870   -3.0620   -0.3470 C   0  0  0  0  0  0  0  0  0  0  0  0
   -5.1270   -3.0620    0.2630 C   0  0  0  0  0  0  0  0  0  0  0  0
   -4.2450   -1.9150    0.1000 C   0  0  0  0  0  0  0  0  0  0  0  0
  1  2  2  0
  2  3  1  0
  2 32  1  0
  3  4  2  0
  4  5  1  0
  4 30  1  0
  5  6  1  0
  6  7  2  0
  6 29  1  0
  7  8  1  0
  8  9  2  0
  9 10  1  0
 10 11  1  0
 10 29  2  0
 11 12  1  0
 12 13  2  0
 12 14  1  0
 14 15  2  0
 14 16  1  0
 17 16  1  1
 17 18  1  0
 17 28  1  0
 18 19  1  0
 19 20  2  0
 19 21  1  0
 21 22  1  0
 22 23  1  0
 22 28  2  0
 23 24  1  0
 24 25  2  0
 25 26  1  0
 26 27  2  0
 26 28  1  0
 30 31  2  0
 30 38  1  0
 31 32  1  0
 31 34  1  0
 32 33  2  0
 34 35  2  0
 35 36  1  0
 36 37  1  0
 37 38  1  0
M  END
