
     RDKit          3D

 38 42  0  0  0  0  0  0  0  0999 V2000
    7.5540    1.2680   -0.2220 C   0  0  0  0  0  0  0  0  0  0  0  0
    7.1360    0.4930    0.8680 O   0  0  0  0  0  0  0  0  0  0  0  0
    5.7810    0.2270    1.0890 C   0  0  0  0  0  0  0  0  0  0  0  0
    4.8020    0.7120    0.2480 C   0  0  0  0  0  0  0  0  0  0  0  0
    3.4640    0.4570    0.4560 C   0  0  0  0  0  0  0  0  0  0  0  0
    2.4380    0.9670   -0.4270 N   0  0  0  0  0  0  0  0  0  0  0  0
    1.5120    0.1390   -0.9280 C   0  0  0  0  0  0  0  0  0  0  0  0
    0.5030    0.6030   -1.7870 C   0  0  0  0  0  0  0  0  0  0  0  0
   -0.3900   -0.3480   -2.2920 C   0  0  1  0  0  0  0  0  0  0  0  0
    0.4310   -1.4810   -2.9910 C   0  0  0  0  0  0  0  0  0  0  0  0
   -0.2980   -1.6940   -4.2670 C   0  0  0  0  0  0  0  0  0  0  0  0
    0.1400   -1.4910   -5.3790 O   0  0  0  0  0  0  0  0  0  0  0  0
   -1.6190   -2.1810   -4.0590 N   0  0  0  0  0  0  0  0  0  0  0  0
   -2.2400   -1.7480   -2.8070 C   0  0  0  0  0  0  0  0  0  0  0  0
   -3.4020   -2.1860   -2.3020 N   0  0  0  0  0  0  0  0  0  0  0  0
   -3.6180   -1.7060   -1.0810 C   0  0  0  0  0  0  0  0  0  0  0  0
   -4.6370   -1.9190   -0.1780 C   0  0  0  0  0  0  0  0  0  0  0  0
   -4.6070   -1.3330    1.0730 C   0  0  0  0  0  0  0  0  0  0  0  0
   -5.6950   -1.5440    2.0220 C   0  0  0  0  0  0  0  0  0  0  0  0
   -6.7540   -2.4490    1.6310 N   0  0  0  0  0  0  0  0  0  0  0  0
   -5.8100   -1.0300    3.1290 O   0  0  0  0  0  0  0  0  0  0  0  0
   -3.5550   -0.5250    1.4300 C   0  0  0  0  0  0  0  0  0  0  0  0
   -3.4340    0.0740    2.7760 C   0  0  0  0  0  0  0  0  0  0  0  0
   -2.5480   -0.3350    0.4760 C   0  0  0  0  0  0  0  0  0  0  0  0
   -1.5070    0.6330    0.8510 C   0  0  0  0  0  0  0  0  0  0  0  0
   -2.1360    2.0680    0.9610 C   0  0  0  0  0  0  0  0  0  0  0  0
   -2.7690    2.4850   -0.3200 C   0  0  0  0  0  0  0  0  0  0  0  0
   -3.8270    1.5990   -0.7570 N   0  0  0  0  0  0  0  0  0  0  0  0
   -2.5200   -0.8970   -0.7820 C   0  0  0  0  0  0  0  0  0  0  0  0
   -1.6260   -0.9110   -1.8760 C   0  0  0  0  0  0  0  0  0  0  0  0
    0.5060    1.9330   -2.0880 C   0  0  0  0  0  0  0  0  0  0  0  0
    1.4660    2.7700   -1.5630 C   0  0  0  0  0  0  0  0  0  0  0  0
    2.4360    2.2670   -0.7250 C   0  0  0  0  0  0  0  0  0  0  0  0
    3.3380    3.0020   -0.2190 O   0  0  0  0  0  0  0  0  0  0  0  0
    3.1460   -0.3140    1.5540 C   0  0  0  0  0  0  0  0  0  0  0  0
    4.1200   -0.8040    2.4010 C   0  0  0  0  0  0  0  0  0  0  0  0
    5.4570   -0.5440    2.1850 C   0  0  0  0  0  0  0  0  0  0  0  0
    6.5250   -1.0630    3.0870 C   0  0  0  0  0  0  0  0  0  0  0  0
  1  2  1  0
  2  3  1  0
  3  4  2  0
  3 37  1  0
  4  5  1  0
  5  6  1  0
  5 35  2  0
  6  7  1  0
  6 33  1  0
  7  8  2  0
  9  8  1  1
  8 31  1  0
  9 10  1  0
  9 30  1  0
 10 11  1  0
 11 12  2  0
 11 13  1  0
 13 14  1  0
 14 15  1  0
 14 30  2  0
 15 16  1  0
 16 17  2  0
 16 29  1  0
 17 18  1  0
 18 19  1  0
 18 22  2  0
 19 20  1  0
 19 21  2  0
 22 23  1  0
 22 24  1  0
 24 25  1  0
 24 29  2  0
 25 26  1  0
 26 27  1  0
 27 28  1  0
 29 30  1  0
 31 32  2  0
 32 33  1  0
 33 34  2  0
 35 36  1  0
 36 37  2  0
 37 38  1  0
M  END
