
     RDKit          3D

 44 49  0  0  0  0  0  0  0  0999 V2000
   -1.7130   -0.7990   -2.2710 O   0  0  0  0  0  0  0  0  0  0  0  0
   -1.3650   -0.7290   -1.0410 C   0  0  0  0  0  0  0  0  0  0  0  0
   -2.4120   -0.6020   -0.1220 N   0  0  0  0  0  0  0  0  0  0  0  0
   -3.8230   -0.5570   -0.5550 C   0  0  2  0  0  0  0  0  0  0  0  0
   -4.5780    0.4450    0.2460 C   0  0  0  0  0  0  0  0  0  0  0  0
   -4.0850    1.8130    0.1150 C   0  0  0  0  0  0  0  0  0  0  0  0
   -3.1120    2.3320   -0.7070 C   0  0  0  0  0  0  0  0  0  0  0  0
   -3.0460    3.6700   -0.4500 N   0  0  0  0  0  0  0  0  0  0  0  0
   -3.9350    3.9930    0.4930 C   0  0  0  0  0  0  0  0  0  0  0  0
   -4.2190    5.2240    1.0620 C   0  0  0  0  0  0  0  0  0  0  0  0
   -5.2050    5.2590    2.0280 C   0  0  0  0  0  0  0  0  0  0  0  0
   -5.9010    4.1280    2.4330 C   0  0  0  0  0  0  0  0  0  0  0  0
   -5.5880    2.9040    1.8380 C   0  0  0  0  0  0  0  0  0  0  0  0
   -4.6040    2.8780    0.8770 C   0  0  0  0  0  0  0  0  0  0  0  0
   -4.4390   -1.9010   -0.1840 C   0  0  0  0  0  0  0  0  0  0  0  0
   -3.7590   -2.7910    0.3500 O   0  0  0  0  0  0  0  0  0  0  0  0
   -5.8060   -2.1360   -0.4500 N   0  0  0  0  0  0  0  0  0  0  0  0
   -6.5420   -3.3040   -0.1780 C   0  0  0  0  0  0  0  0  0  0  0  0
   -6.0740   -4.4410    0.3990 C   0  0  0  0  0  0  0  0  0  0  0  0
   -6.9490   -5.5080    0.5960 C   0  0  0  0  0  0  0  0  0  0  0  0
   -8.2380   -5.4470    0.2320 N   0  0  0  0  0  0  0  0  0  0  0  0
   -8.7490   -4.3480   -0.3420 C   0  0  0  0  0  0  0  0  0  0  0  0
   -7.8970   -3.2950   -0.5390 C   0  0  0  0  0  0  0  0  0  0  0  0
    0.0380   -0.7830   -0.7120 C   0  0  0  0  0  0  0  0  0  0  0  0
    0.9690   -0.8290   -1.7650 C   0  0  0  0  0  0  0  0  0  0  0  0
    2.3220   -0.8780   -1.5500 C   0  0  0  0  0  0  0  0  0  0  0  0
    2.8290   -0.8850   -0.2660 C   0  0  0  0  0  0  0  0  0  0  0  0
    4.2740   -0.9500   -0.0380 N   0  0  0  0  0  0  0  0  0  0  0  0
    4.6770   -0.7790    1.3020 C   0  0  0  0  0  0  0  0  0  0  0  0
    6.1310   -0.6100    1.5270 C   0  0  0  0  0  0  0  0  0  0  0  0
    6.8470   -0.3610    0.3130 N   0  0  0  0  0  0  0  0  0  0  0  0
    7.7860    0.6920    0.2420 C   0  0  0  0  0  0  0  0  0  0  0  0
    7.6420    1.6870   -0.6920 C   0  0  0  0  0  0  0  0  0  0  0  0
    8.5900    2.6880   -0.7270 C   0  0  0  0  0  0  0  0  0  0  0  0
    9.6450    2.6730    0.1580 C   0  0  0  0  0  0  0  0  0  0  0  0
   10.6000    3.6290    0.1650 F   0  0  0  0  0  0  0  0  0  0  0  0
    9.7640    1.6530    1.0930 C   0  0  0  0  0  0  0  0  0  0  0  0
    8.8390    0.6500    1.1480 C   0  0  0  0  0  0  0  0  0  0  0  0
    8.9430   -0.3500    2.0540 F   0  0  0  0  0  0  0  0  0  0  0  0
    6.5980   -1.2100   -0.8700 C   0  0  0  0  0  0  0  0  0  0  0  0
    5.1260   -1.1900   -1.1550 C   0  0  0  0  0  0  0  0  0  0  0  0
    1.9610   -0.8420    0.7820 C   0  0  0  0  0  0  0  0  0  0  0  0
    0.5810   -0.7920    0.5460 C   0  0  0  0  0  0  0  0  0  0  0  0
   -0.2130   -0.7560    1.6150 F   0  0  0  0  0  0  0  0  0  0  0  0
  1  2  2  0
  2  3  1  0
  2 24  1  0
  3  4  1  0
  4  5  1  1
  4 15  1  0
  5  6  1  0
  6  7  2  0
  6 14  1  0
  7  8  1  0
  8  9  1  0
  9 10  2  0
  9 14  1  0
 10 11  1  0
 11 12  2  0
 12 13  1  0
 13 14  2  0
 15 16  2  0
 15 17  1  0
 17 18  1  0
 18 19  2  0
 18 23  1  0
 19 20  1  0
 20 21  2  0
 21 22  1  0
 22 23  2  0
 24 25  2  0
 24 43  1  0
 25 26  1  0
 26 27  2  0
 27 28  1  0
 27 42  1  0
 28 29  1  0
 28 41  1  0
 29 30  1  0
 30 31  1  0
 31 32  1  0
 31 40  1  0
 32 33  2  0
 32 38  1  0
 33 34  1  0
 34 35  2  0
 35 36  1  0
 35 37  1  0
 37 38  2  0
 38 39  1  0
 40 41  1  0
 42 43  2  0
 43 44  1  0
M  END
