
     RDKit          3D

 38 42  0  0  0  0  0  0  0  0999 V2000
   -7.2460   -0.0140   -2.9730 C   0  0  0  0  0  0  0  0  0  0  0  0
   -7.5750   -0.6380   -1.6440 C   0  0  0  0  0  0  0  0  0  0  0  0
   -8.8950   -0.7860   -1.2820 C   0  0  0  0  0  0  0  0  0  0  0  0
   -9.2600   -1.3490   -0.0630 C   0  0  0  0  0  0  0  0  0  0  0  0
   -8.2330   -1.7540    0.7720 C   0  0  0  0  0  0  0  0  0  0  0  0
   -6.9120   -1.6240    0.4450 C   0  0  0  0  0  0  0  0  0  0  0  0
   -6.5730   -1.0550   -0.7870 C   0  0  0  0  0  0  0  0  0  0  0  0
   -5.1890   -0.9710   -1.1410 C   0  0  0  0  0  0  0  0  0  0  0  0
   -4.2140   -0.4150   -0.4530 C   0  0  0  0  0  0  0  0  0  0  0  0
   -4.3990    0.2310    0.8310 C   0  0  0  0  0  0  0  0  0  0  0  0
   -3.4550    0.7930    1.5590 C   0  0  0  0  0  0  0  0  0  0  0  0
   -3.7530    1.3920    2.7820 C   0  0  0  0  0  0  0  0  0  0  0  0
   -5.0910    1.3700    3.2310 N   0  0  0  0  0  0  0  0  0  0  0  0
   -2.7370    1.9820    3.4950 C   0  0  0  0  0  0  0  0  0  0  0  0
   -1.4600    1.9740    3.0010 C   0  0  0  0  0  0  0  0  0  0  0  0
   -1.1310    1.3840    1.7890 C   0  0  0  0  0  0  0  0  0  0  0  0
    0.2390    1.3480    1.3340 C   0  0  0  0  0  0  0  0  0  0  0  0
    0.8470    2.4510    1.1410 O   0  0  0  0  0  0  0  0  0  0  0  0
    1.0010    0.1670    1.0840 N   0  0  0  0  0  0  0  0  0  0  0  0
    2.3370    0.2800    0.5880 C   0  0  0  0  0  0  0  0  0  0  0  0
    2.9950    1.4300    0.2860 N   0  0  0  0  0  0  0  0  0  0  0  0
    4.2520    1.1420   -0.1140 C   0  0  0  0  0  0  0  0  0  0  0  0
    5.3300    1.9260   -0.5280 C   0  0  0  0  0  0  0  0  0  0  0  0
    6.5410    1.3600   -0.8850 C   0  0  0  0  0  0  0  0  0  0  0  0
    6.6900   -0.0330   -0.8290 C   0  0  0  0  0  0  0  0  0  0  0  0
    7.9720   -0.6140   -1.1790 C   0  0  0  0  0  0  0  0  0  0  0  0
    8.1750   -1.8490   -1.0670 O   0  0  0  0  0  0  0  0  0  0  0  0
    9.0040    0.1710   -1.6430 O   0  0  0  0  0  0  0  0  0  0  0  0
   10.2710   -0.3620   -1.9620 C   0  0  0  0  0  0  0  0  0  0  0  0
   10.9130   -0.9260   -0.7280 C   0  0  0  0  0  0  0  0  0  0  0  0
   12.1960   -1.4600   -0.7320 N   0  0  0  0  0  0  0  0  0  0  0  0
   10.2420   -0.9050    0.3530 O   0  0  0  0  0  0  0  0  0  0  0  0
    5.6070   -0.7830   -0.4200 C   0  0  0  0  0  0  0  0  0  0  0  0
    4.4040   -0.2190   -0.0670 C   0  0  0  0  0  0  0  0  0  0  0  0
    3.2100   -0.7150    0.3660 N   0  0  0  0  0  0  0  0  0  0  0  0
   -2.1530    0.7910    1.0710 C   0  0  0  0  0  0  0  0  0  0  0  0
   -1.8610    0.2340   -0.1000 C   0  0  0  0  0  0  0  0  0  0  0  0
   -2.8350   -0.4270   -0.9990 C   0  0  0  0  0  0  0  0  0  0  0  0
  1  2  1  0
  2  3  2  0
  2  7  1  0
  3  4  1  0
  4  5  2  0
  5  6  1  0
  6  7  2  0
  7  8  1  0
  8  9  2  3
  9 10  1  0
  9 38  1  0
 10 11  2  0
 11 12  1  0
 11 36  1  0
 12 13  1  0
 12 14  2  0
 14 15  1  0
 15 16  2  0
 16 17  1  0
 16 36  1  0
 17 18  2  0
 17 19  1  0
 19 20  1  0
 20 21  2  0
 20 35  1  0
 21 22  1  0
 22 23  2  0
 22 34  1  0
 23 24  1  0
 24 25  2  0
 25 26  1  0
 25 33  1  0
 26 27  2  0
 26 28  1  0
 28 29  1  0
 29 30  1  0
 30 31  1  0
 30 32  2  0
 33 34  2  0
 34 35  1  0
 36 37  2  0
 37 38  1  0
M  END
