
     RDKit          3D

 28 30  0  0  0  0  0  0  0  0999 V2000
    7.7270   -1.6890   -0.2350 C   0  0  0  0  0  0  0  0  0  0  0  0
    7.2730   -0.4720   -1.0110 C   0  0  0  0  0  0  0  0  0  0  0  0
    5.8030   -0.2720   -0.9330 C   0  0  0  0  0  0  0  0  0  0  0  0
    5.1650    0.5800   -1.7950 C   0  0  0  0  0  0  0  0  0  0  0  0
    3.7710    0.8480   -1.6670 C   0  0  0  0  0  0  0  0  0  0  0  0
    3.0340    0.2610   -0.6820 C   0  0  0  0  0  0  0  0  0  0  0  0
    1.7380    0.6580   -0.2040 C   0  0  0  0  0  0  0  0  0  0  0  0
    0.5200    0.5980   -0.8440 O   0  0  0  0  0  0  0  0  0  0  0  0
   -0.5410    1.0720    0.0020 C   0  0  0  0  0  0  0  0  0  0  0  0
   -0.2990    1.6890    1.1890 C   0  0  0  0  0  0  0  0  0  0  0  0
   -1.3460    2.0950    2.0140 C   0  0  0  0  0  0  0  0  0  0  0  0
   -2.5910    1.8310    1.5690 C   0  0  0  0  0  0  0  0  0  0  0  0
   -2.9040    1.2080    0.3790 C   0  0  0  0  0  0  0  0  0  0  0  0
   -4.3130    0.9600    0.1170 C   0  0  0  0  0  0  0  0  0  0  0  0
   -4.9010   -0.3040    0.3080 C   0  0  0  0  0  0  0  0  0  0  0  0
   -6.3220   -0.4270    0.2010 C   0  0  0  0  0  0  0  0  0  0  0  0
   -6.9190   -1.7510    0.3930 C   0  0  0  0  0  0  0  0  0  0  0  0
   -6.0150   -2.9360    0.6000 C   0  0  0  0  0  0  0  0  0  0  0  0
   -8.1320   -1.8600    0.3810 O   0  0  0  0  0  0  0  0  0  0  0  0
   -7.1000    0.6610   -0.0820 C   0  0  0  0  0  0  0  0  0  0  0  0
   -6.5080    1.8880   -0.2570 C   0  0  0  0  0  0  0  0  0  0  0  0
   -5.1290    2.0080   -0.1580 C   0  0  0  0  0  0  0  0  0  0  0  0
   -4.5710    3.2940   -0.3600 O   0  0  0  0  0  0  0  0  0  0  0  0
   -1.8120    0.8300   -0.4280 C   0  0  0  0  0  0  0  0  0  0  0  0
    3.7490   -0.6270    0.1880 C   0  0  0  0  0  0  0  0  0  0  0  0
    2.8770   -1.4080    1.1080 C   0  0  0  0  0  0  0  0  0  0  0  0
    3.6250   -2.3370    1.8270 O   0  0  0  0  0  0  0  0  0  0  0  0
    5.0590   -0.8510    0.0360 C   0  0  0  0  0  0  0  0  0  0  0  0
  1  2  1  0
  2  3  1  0
  3  4  2  0
  3 28  1  0
  4  5  1  0
  5  6  2  0
  6  7  1  0
  6 25  1  0
  7  8  1  0
  8  9  1  0
  9 10  2  0
  9 24  1  0
 10 11  1  0
 11 12  2  0
 12 13  1  0
 13 14  1  0
 13 24  2  0
 14 15  2  0
 14 22  1  0
 15 16  1  0
 16 17  1  0
 16 20  2  0
 17 18  1  0
 17 19  2  0
 20 21  1  0
 21 22  2  0
 22 23  1  0
 25 26  1  0
 25 28  2  0
 26 27  1  0
M  END
