
     RDKit          3D

 28 30  0  0  0  0  0  0  0  0999 V2000
   -4.7230   -1.0810    1.9690 O   0  0  0  0  0  0  0  0  0  0  0  0
   -5.7520   -1.3980    1.1000 C   0  0  0  0  0  0  0  0  0  0  0  0
   -5.4560   -0.7270   -0.2340 C   0  0  2  0  0  0  0  0  0  0  0  0
   -4.2610   -1.1640   -0.7620 O   0  0  0  0  0  0  0  0  0  0  0  0
   -3.2500   -0.3640   -0.2480 C   0  0  1  0  0  0  0  0  0  0  0  0
   -2.2250   -0.1960   -1.1890 O   0  0  0  0  0  0  0  0  0  0  0  0
   -1.0210   -0.6970   -0.7580 C   0  0  1  0  0  0  0  0  0  0  0  0
   -0.6290   -1.8220   -1.7030 C   0  0  2  0  0  0  0  0  0  0  0  0
   -1.5720   -2.8600   -1.6140 O   0  0  0  0  0  0  0  0  0  0  0  0
    0.7370   -2.2990   -1.2840 C   0  0  0  0  0  0  0  0  0  0  0  0
    1.1470   -1.7280   -0.0820 O   0  0  0  0  0  0  0  0  0  0  0  0
    1.3230   -0.3480   -0.1880 C   0  0  1  0  0  0  0  0  0  0  0  0
    2.4770   -0.0250   -0.8870 O   0  0  0  0  0  0  0  0  0  0  0  0
    3.3340    0.6490   -0.0640 C   0  0  2  0  0  0  0  0  0  0  0  0
    3.6920    2.0340   -0.5630 C   0  0  0  0  0  0  0  0  0  0  0  0
    4.3940    2.6740    0.4530 O   0  0  0  0  0  0  0  0  0  0  0  0
    5.6140    2.0740    0.7240 C   0  0  1  0  0  0  0  0  0  0  0  0
    6.1920    2.7690    1.7870 O   0  0  0  0  0  0  0  0  0  0  0  0
    5.3940    0.6470    1.2170 C   0  0  2  0  0  0  0  0  0  0  0  0
    6.6160    0.0630    1.5150 O   0  0  0  0  0  0  0  0  0  0  0  0
    4.6680   -0.0860    0.1110 C   0  0  1  0  0  0  0  0  0  0  0  0
    4.4610   -1.4260    0.3990 O   0  0  0  0  0  0  0  0  0  0  0  0
    0.0970    0.3170   -0.7770 C   0  0  2  0  0  0  0  0  0  0  0  0
   -0.3170    1.4150   -0.0270 O   0  0  0  0  0  0  0  0  0  0  0  0
   -3.8400    0.9680    0.0860 C   0  0  2  0  0  0  0  0  0  0  0  0
   -3.5250    1.2960    1.4160 O   0  0  0  0  0  0  0  0  0  0  0  0
   -5.3320    0.7650   -0.0310 C   0  0  1  0  0  0  0  0  0  0  0  0
   -5.8780    1.4600   -1.1050 O   0  0  0  0  0  0  0  0  0  0  0  0
  1  2  1  0
  3  2  1  1
  3  4  1  0
  3 27  1  0
  4  5  1  0
  5  6  1  6
  5 25  1  0
  7  6  1  6
  7  8  1  0
  7 23  1  0
  8  9  1  1
  8 10  1  0
 10 11  1  0
 11 12  1  0
 12 13  1  6
 12 23  1  0
 14 13  1  6
 14 15  1  0
 14 21  1  0
 15 16  1  0
 16 17  1  0
 17 18  1  1
 17 19  1  0
 19 20  1  6
 19 21  1  0
 21 22  1  1
 23 24  1  1
 25 26  1  1
 25 27  1  0
 27 28  1  6
M  END
