
     RDKit          3D

 28 30  0  0  0  0  0  0  0  0999 V2000
    6.2810    0.7550   -2.2750 C   0  0  0  0  0  0  0  0  0  0  0  0
    6.2380   -0.0690   -1.2610 C   0  0  0  0  0  0  0  0  0  0  0  0
    5.1490   -0.0550   -0.3000 C   0  0  0  0  0  0  0  0  0  0  0  0
    4.0850    0.8090   -0.3690 C   0  0  0  0  0  0  0  0  0  0  0  0
    3.0530    0.8090    0.5580 C   0  0  0  0  0  0  0  0  0  0  0  0
    3.0980   -0.0940    1.5880 C   0  0  0  0  0  0  0  0  0  0  0  0
    1.9920   -0.0860    2.5710 C   0  0  0  0  0  0  0  0  0  0  0  0
    0.8830   -1.0000    2.1660 C   0  0  0  0  0  0  0  0  0  0  0  0
    0.9520   -2.2930    2.6040 C   0  0  0  0  0  0  0  0  0  0  0  0
   -0.0040   -3.3150    2.5960 C   0  0  0  0  0  0  0  0  0  0  0  0
   -1.2630   -3.2730    2.0330 C   0  0  0  0  0  0  0  0  0  0  0  0
   -2.0350   -4.2490    2.2830 O   0  0  0  0  0  0  0  0  0  0  0  0
   -1.8090   -2.2810    1.2110 C   0  0  0  0  0  0  0  0  0  0  0  0
   -2.9860   -2.6240    0.5940 O   0  0  0  0  0  0  0  0  0  0  0  0
   -1.3230   -1.0190    0.9440 C   0  0  0  0  0  0  0  0  0  0  0  0
   -2.1680   -0.1730    0.1080 C   0  0  0  0  0  0  0  0  0  0  0  0
   -1.5470    0.5390   -0.9240 C   0  0  0  0  0  0  0  0  0  0  0  0
   -2.2880    1.3620   -1.7570 C   0  0  0  0  0  0  0  0  0  0  0  0
   -1.6740    2.0670   -2.7780 O   0  0  0  0  0  0  0  0  0  0  0  0
   -2.4750    2.8920   -3.5990 C   0  0  0  0  0  0  0  0  0  0  0  0
   -3.6440    1.4600   -1.5430 C   0  0  0  0  0  0  0  0  0  0  0  0
   -4.2960    0.7780   -0.5410 C   0  0  0  0  0  0  0  0  0  0  0  0
   -5.6630    0.9150   -0.3730 O   0  0  0  0  0  0  0  0  0  0  0  0
   -6.3700    1.7660   -1.2490 C   0  0  0  0  0  0  0  0  0  0  0  0
   -3.5250   -0.0370    0.2740 C   0  0  0  0  0  0  0  0  0  0  0  0
   -0.1180   -0.4620    1.3840 C   0  0  0  0  0  0  0  0  0  0  0  0
    4.1320   -0.9690    1.6970 C   0  0  0  0  0  0  0  0  0  0  0  0
    5.1440   -0.9560    0.7730 C   0  0  0  0  0  0  0  0  0  0  0  0
  1  2  2  0
  2  3  1  0
  3  4  2  0
  3 28  1  0
  4  5  1  0
  5  6  2  0
  6  7  1  0
  6 27  1  0
  7  8  1  0
  8  9  1  0
  8 26  2  0
  9 10  2  0
 10 11  1  0
 11 12  2  0
 11 13  1  0
 13 14  1  0
 13 15  2  0
 15 16  1  0
 15 26  1  0
 16 17  2  0
 16 25  1  0
 17 18  1  0
 18 19  1  0
 18 21  2  0
 19 20  1  0
 21 22  1  0
 22 23  1  0
 22 25  2  0
 23 24  1  0
 27 28  2  0
M  END
