
     RDKit          3D

 28 30  0  0  0  0  0  0  0  0999 V2000
    2.3850    5.9010    1.6770 C   0  0  0  0  0  0  0  0  0  0  0  0
    1.3190    5.1630    0.9150 C   0  0  0  0  0  0  0  0  0  0  0  0
    1.5410    3.7600    0.9660 O   0  0  0  0  0  0  0  0  0  0  0  0
    0.6760    2.8670    0.3270 C   0  0  0  0  0  0  0  0  0  0  0  0
   -0.4250    3.2920   -0.3790 C   0  0  0  0  0  0  0  0  0  0  0  0
   -1.2800    2.4040   -1.0110 C   0  0  0  0  0  0  0  0  0  0  0  0
   -1.0710    1.0390   -0.9660 C   0  0  0  0  0  0  0  0  0  0  0  0
   -1.9580    0.0630   -1.6260 C   0  0  1  0  0  0  0  0  0  0  0  0
   -1.2210   -0.9200   -2.3130 O   0  0  0  0  0  0  0  0  0  0  0  0
   -2.8840   -0.6190   -0.7190 C   0  0  0  0  0  0  0  0  0  0  0  0
   -2.8790   -0.3430    0.5670 C   0  0  0  0  0  0  0  0  0  0  0  0
   -3.7160   -0.9090    1.6270 C   0  0  0  0  0  0  0  0  0  0  0  0
   -4.7600   -1.7270    1.5570 C   0  0  0  0  0  0  0  0  0  0  0  0
   -5.3520   -2.2890    0.2950 C   0  0  0  0  0  0  0  0  0  0  0  0
   -4.1480   -2.7580   -0.5320 C   0  0  0  0  0  0  0  0  0  0  0  0
   -3.7670   -1.6000   -1.4170 C   0  0  0  0  0  0  0  0  0  0  0  0
    0.0360    0.6200   -0.2560 C   0  0  0  0  0  0  0  0  0  0  0  0
    0.8990    1.5030    0.3810 C   0  0  0  0  0  0  0  0  0  0  0  0
    1.9820    1.0440    1.0720 O   0  0  0  0  0  0  0  0  0  0  0  0
    2.4410   -0.2360    1.2630 C   0  0  0  0  0  0  0  0  0  0  0  0
    2.8700   -0.9480    0.0470 C   0  0  0  0  0  0  0  0  0  0  0  0
    2.9050   -0.4060   -1.2190 C   0  0  0  0  0  0  0  0  0  0  0  0
    3.3480   -1.1280   -2.3280 C   0  0  0  0  0  0  0  0  0  0  0  0
    3.7640   -2.4190   -2.1730 C   0  0  0  0  0  0  0  0  0  0  0  0
    3.7410   -2.9940   -0.9100 C   0  0  0  0  0  0  0  0  0  0  0  0
    4.1730   -4.3070   -0.7960 O   0  0  0  0  0  0  0  0  0  0  0  0
    3.3010   -2.2590    0.1640 C   0  0  0  0  0  0  0  0  0  0  0  0
    3.2910   -2.9030    1.4990 C   0  0  0  0  0  0  0  0  0  0  0  0
  1  2  1  0
  2  3  1  0
  3  4  1  0
  4  5  2  0
  4 18  1  0
  5  6  1  0
  6  7  2  0
  7  8  1  0
  7 17  1  0
  8  9  1  1
  8 10  1  0
 10 11  2  0
 10 16  1  0
 11 12  1  0
 12 13  2  0
 13 14  1  0
 14 15  1  0
 15 16  1  0
 17 18  2  0
 18 19  1  0
 19 20  1  0
 20 21  1  0
 21 22  2  0
 21 27  1  0
 22 23  1  0
 23 24  2  0
 24 25  1  0
 25 26  1  0
 25 27  2  0
 27 28  1  0
M  END
