
     RDKit          3D

 28 30  0  0  0  0  0  0  0  0999 V2000
   -6.0340   -1.9660   -1.4750 C   0  0  0  0  0  0  0  0  0  0  0  0
   -4.6490   -1.6300   -1.0220 C   0  0  0  0  0  0  0  0  0  0  0  0
   -3.6010   -2.4270   -1.5390 C   0  0  0  0  0  0  0  0  0  0  0  0
   -2.3130   -2.1100   -1.2290 C   0  0  0  0  0  0  0  0  0  0  0  0
   -1.9760   -1.0420   -0.4300 C   0  0  0  0  0  0  0  0  0  0  0  0
   -0.5690   -0.7370   -0.1250 C   0  0  0  0  0  0  0  0  0  0  0  0
   -0.3360    0.2540    0.6120 O   0  0  0  0  0  0  0  0  0  0  0  0
    0.4760   -1.4720   -0.5990 O   0  0  0  0  0  0  0  0  0  0  0  0
    1.8360   -1.1990   -0.3200 C   0  0  0  0  0  0  0  0  0  0  0  0
    2.2720    0.1530   -0.7810 C   0  0  0  0  0  0  0  0  0  0  0  0
    3.7010    0.3250   -0.4370 C   0  0  0  0  0  0  0  0  0  0  0  0
    4.1210    0.8540    0.7530 C   0  0  0  0  0  0  0  0  0  0  0  0
    5.4920    0.9960    1.0300 C   0  0  0  0  0  0  0  0  0  0  0  0
    6.4580    0.6200    0.1420 C   0  0  0  0  0  0  0  0  0  0  0  0
    7.8630    0.7310    0.3500 C   0  0  0  0  0  0  0  0  0  0  0  0
    8.6440    1.1520    1.2810 C   0  0  0  0  0  0  0  0  0  0  0  0
    8.3750    1.7110    2.5640 C   0  0  0  0  0  0  0  0  0  0  0  0
    9.4220    2.0400    3.2780 O   0  0  0  0  0  0  0  0  0  0  0  0
    6.0100    0.0780   -1.0740 C   0  0  0  0  0  0  0  0  0  0  0  0
    4.6660   -0.0580   -1.3400 C   0  0  0  0  0  0  0  0  0  0  0  0
   -3.0030   -0.2820    0.0630 C   0  0  0  0  0  0  0  0  0  0  0  0
   -4.3620   -0.5650   -0.2250 C   0  0  0  0  0  0  0  0  0  0  0  0
   -5.3830    0.2340    0.4490 C   0  0  0  0  0  0  0  0  0  0  0  0
   -5.0850    1.4950    0.8190 C   0  0  0  0  0  0  0  0  0  0  0  0
   -6.0250    2.4060    1.5080 C   0  0  0  0  0  0  0  0  0  0  0  0
   -7.2220    1.7960    1.8660 O   0  0  0  0  0  0  0  0  0  0  0  0
   -7.5790    0.5170    1.5230 C   0  0  0  0  0  0  0  0  0  0  0  0
   -6.6910   -0.2290    0.8430 C   0  0  0  0  0  0  0  0  0  0  0  0
  1  2  1  0
  2  3  2  0
  2 22  1  0
  3  4  1  0
  4  5  2  0
  5  6  1  0
  5 21  1  0
  6  7  2  0
  6  8  1  0
  8  9  1  0
  9 10  1  0
 10 11  1  0
 11 12  2  0
 11 20  1  0
 12 13  1  0
 13 14  2  0
 14 15  1  0
 14 19  1  0
 15 16  2  3
 16 17  1  0
 17 18  2  0
 19 20  2  0
 21 22  2  0
 22 23  1  0
 23 24  2  0
 23 28  1  0
 24 25  1  0
 25 26  1  0
 26 27  1  0
 27 28  2  0
M  END
