
     RDKit          3D

 28 30  0  0  0  0  0  0  0  0999 V2000
   -6.3370   -2.1840   -0.9100 C   0  0  0  0  0  0  0  0  0  0  0  0
   -5.5190   -1.1870   -0.5420 C   0  0  0  0  0  0  0  0  0  0  0  0
   -4.9580   -1.2100    0.8330 C   0  0  0  0  0  0  0  0  0  0  0  0
   -3.4820   -1.2510    0.7390 C   0  0  0  0  0  0  0  0  0  0  0  0
   -2.8660   -2.4990    0.8310 C   0  0  0  0  0  0  0  0  0  0  0  0
   -1.5060   -2.6760    0.7090 C   0  0  0  0  0  0  0  0  0  0  0  0
   -0.9040   -3.9400    0.8040 O   0  0  0  0  0  0  0  0  0  0  0  0
   -0.6940   -1.5880    0.4860 C   0  0  0  0  0  0  0  0  0  0  0  0
    0.7720   -1.7740    0.3500 C   0  0  0  0  0  0  0  0  0  0  0  0
    1.4680   -0.5820    0.1240 O   0  0  0  0  0  0  0  0  0  0  0  0
    2.8340   -0.6000   -0.0290 C   0  0  0  0  0  0  0  0  0  0  0  0
    3.4990   -1.7970    0.0440 C   0  0  0  0  0  0  0  0  0  0  0  0
    4.8600   -1.8120   -0.1100 C   0  0  0  0  0  0  0  0  0  0  0  0
    5.5500   -0.6340   -0.3340 C   0  0  0  0  0  0  0  0  0  0  0  0
    4.9130    0.5860   -0.4130 C   0  0  0  0  0  0  0  0  0  0  0  0
    5.6540    1.8240   -0.6650 C   0  0  0  0  0  0  0  0  0  0  0  0
    6.6180    1.8490   -1.5520 C   0  0  0  0  0  0  0  0  0  0  0  0
    6.9490    0.7070   -2.2650 O   0  0  0  0  0  0  0  0  0  0  0  0
    7.3430    3.0730   -1.7900 C   0  0  0  0  0  0  0  0  0  0  0  0
    8.2640    3.1030   -2.6400 O   0  0  0  0  0  0  0  0  0  0  0  0
    3.5320    0.5570   -0.2520 C   0  0  0  0  0  0  0  0  0  0  0  0
   -1.3080   -0.3300    0.3930 C   0  0  0  0  0  0  0  0  0  0  0  0
   -2.6730   -0.1540    0.5170 C   0  0  0  0  0  0  0  0  0  0  0  0
   -3.2550    1.1950    0.4520 C   0  0  1  0  0  0  0  0  0  0  0  0
   -3.6690    1.7550    1.7660 C   0  0  0  0  0  0  0  0  0  0  0  0
   -3.4800    3.0860    1.7220 C   0  0  0  0  0  0  0  0  0  0  0  0
   -2.9280    3.4820    0.3840 C   0  0  0  0  0  0  0  0  0  0  0  0
   -2.1660    2.1850    0.0590 C   0  0  0  0  0  0  0  0  0  0  0  0
  1  2  2  0
  2  3  1  0
  3  4  1  0
  4  5  2  0
  4 23  1  0
  5  6  1  0
  6  7  1  0
  6  8  2  0
  8  9  1  0
  8 22  1  0
  9 10  1  0
 10 11  1  0
 11 12  2  0
 11 21  1  0
 12 13  1  0
 13 14  2  0
 14 15  1  0
 15 16  1  0
 15 21  2  0
 16 17  2  3
 17 18  1  0
 17 19  1  0
 19 20  2  0
 22 23  2  0
 24 23  1  1
 24 25  1  0
 24 28  1  0
 25 26  2  0
 26 27  1  0
 27 28  1  0
M  END
