
     RDKit          3D

 27 29  0  0  0  0  0  0  0  0999 V2000
    4.7400    2.3620    1.5100 C   0  0  0  0  0  0  0  0  0  0  0  0
    4.6870    1.0830    0.7770 C   0  0  0  0  0  0  0  0  0  0  0  0
    5.8770    0.4330    0.5300 C   0  0  0  0  0  0  0  0  0  0  0  0
    5.8550   -0.7590   -0.1500 C   0  0  0  0  0  0  0  0  0  0  0  0
    7.1520   -1.4530   -0.4100 C   0  0  0  0  0  0  0  0  0  0  0  0
    4.6640   -1.2970   -0.5790 C   0  0  0  0  0  0  0  0  0  0  0  0
    4.7100   -2.5890   -1.3090 C   0  0  0  0  0  0  0  0  0  0  0  0
    3.4250   -0.6730   -0.3530 C   0  0  0  0  0  0  0  0  0  0  0  0
    2.3250   -1.2960   -0.8230 O   0  0  0  0  0  0  0  0  0  0  0  0
    0.9810   -0.9970   -0.7780 C   0  0  0  0  0  0  0  0  0  0  0  0
    0.3780   -0.9460    0.6160 C   0  0  0  0  0  0  0  0  0  0  0  0
   -0.9460   -0.6450    0.6910 O   0  0  0  0  0  0  0  0  0  0  0  0
   -1.7130    0.4300    0.3780 C   0  0  0  0  0  0  0  0  0  0  0  0
   -1.2080    1.5990   -0.1320 C   0  0  0  0  0  0  0  0  0  0  0  0
   -1.9750    2.7110   -0.4560 C   0  0  0  0  0  0  0  0  0  0  0  0
   -3.3240    2.5950   -0.2360 C   0  0  0  0  0  0  0  0  0  0  0  0
   -4.1810    3.7760   -0.5740 C   0  0  0  0  0  0  0  0  0  0  0  0
   -3.4310    4.8220   -1.0700 O   0  0  0  0  0  0  0  0  0  0  0  0
   -3.9020    1.4300    0.2830 C   0  0  0  0  0  0  0  0  0  0  0  0
   -5.2740    1.4690    0.4500 O   0  0  0  0  0  0  0  0  0  0  0  0
   -3.1180    0.3610    0.5870 C   0  0  0  0  0  0  0  0  0  0  0  0
   -3.6350   -0.8840    1.1360 C   0  0  1  0  0  0  0  0  0  0  0  0
   -5.1110   -1.0760    1.1860 C   0  0  0  0  0  0  0  0  0  0  0  0
   -5.4520   -1.4800   -0.2140 C   0  0  0  0  0  0  0  0  0  0  0  0
   -4.4530   -2.6560   -0.3510 C   0  0  0  0  0  0  0  0  0  0  0  0
   -3.2280   -2.1170    0.3570 C   0  0  0  0  0  0  0  0  0  0  0  0
    3.4950    0.5170    0.3310 C   0  0  0  0  0  0  0  0  0  0  0  0
  1  2  1  0
  2  3  2  0
  2 27  1  0
  3  4  1  0
  4  5  1  0
  4  6  2  0
  6  7  1  0
  6  8  1  0
  8  9  1  0
  8 27  2  0
  9 10  1  0
 10 11  1  0
 11 12  1  0
 12 13  1  0
 13 14  2  0
 13 21  1  0
 14 15  1  0
 15 16  2  0
 16 17  1  0
 16 19  1  0
 17 18  1  0
 19 20  1  0
 19 21  2  0
 22 21  1  6
 22 23  1  0
 22 26  1  0
 23 24  1  0
 24 25  1  0
 25 26  1  0
M  END
