
     RDKit          3D

 28 30  0  0  0  0  0  0  0  0999 V2000
    0.6850    4.6560    3.1590 C   0  0  0  0  0  0  0  0  0  0  0  0
    1.4490    3.4310    3.0320 C   0  0  0  0  0  0  0  0  0  0  0  0
    1.2930    2.4390    2.2500 C   0  0  0  0  0  0  0  0  0  0  0  0
    0.2820    2.1950    1.2060 C   0  0  0  0  0  0  0  0  0  0  0  0
    0.2020    1.0830    0.4090 C   0  0  0  0  0  0  0  0  0  0  0  0
    1.1580    0.0130    0.5470 C   0  0  0  0  0  0  0  0  0  0  0  0
    1.3110   -1.1190   -0.0580 C   0  0  0  0  0  0  0  0  0  0  0  0
    2.4240   -2.0550    0.3030 C   0  0  0  0  0  0  0  0  0  0  0  0
    2.5130   -3.2400   -0.3910 C   0  0  0  0  0  0  0  0  0  0  0  0
    3.5190   -4.1660   -0.1170 C   0  0  0  0  0  0  0  0  0  0  0  0
    4.4250   -3.8720    0.8630 C   0  0  0  0  0  0  0  0  0  0  0  0
    5.5150   -4.8240    1.1940 C   0  0  0  0  0  0  0  0  0  0  0  0
    4.3410   -2.7060    1.5500 C   0  0  0  0  0  0  0  0  0  0  0  0
    5.3110   -2.3590    2.6200 C   0  0  0  0  0  0  0  0  0  0  0  0
    3.3360   -1.7750    1.2800 C   0  0  0  0  0  0  0  0  0  0  0  0
   -0.9240    1.2220   -0.4890 C   0  0  0  0  0  0  0  0  0  0  0  0
   -1.4550    0.3500   -1.5300 C   0  0  0  0  0  0  0  0  0  0  0  0
   -0.9860   -0.7330   -1.8330 O   0  0  0  0  0  0  0  0  0  0  0  0
   -2.5900    0.7400   -2.2700 O   0  0  0  0  0  0  0  0  0  0  0  0
   -3.0470   -0.1670   -3.2700 C   0  0  0  0  0  0  0  0  0  0  0  0
   -4.2420    0.4700   -3.9000 C   0  0  0  0  0  0  0  0  0  0  0  0
   -5.2930    0.6920   -2.8410 C   0  0  2  0  0  0  0  0  0  0  0  0
   -5.7790   -0.5430   -2.1470 C   0  0  0  0  0  0  0  0  0  0  0  0
   -6.6760    0.2060   -3.0960 C   0  0  0  0  0  0  0  0  0  0  0  0
   -1.5310    2.3960   -0.2530 C   0  0  0  0  0  0  0  0  0  0  0  0
   -2.6770    2.9110   -0.9240 O   0  0  0  0  0  0  0  0  0  0  0  0
   -0.8120    3.0700    0.8240 C   0  0  1  0  0  0  0  0  0  0  0  0
   -1.6810    3.3520    1.8970 O   0  0  0  0  0  0  0  0  0  0  0  0
  1  2  1  0
  2  3  2  3
  3  4  1  0
  4  5  2  0
  4 27  1  0
  5  6  1  0
  5 16  1  0
  6  7  2  3
  7  8  1  0
  8  9  2  0
  8 15  1  0
  9 10  1  0
 10 11  2  0
 11 12  1  0
 11 13  1  0
 13 14  1  0
 13 15  2  0
 16 17  1  0
 16 25  2  0
 17 18  2  0
 17 19  1  0
 19 20  1  0
 20 21  1  0
 22 21  1  6
 22 23  1  0
 22 24  1  0
 23 24  1  0
 25 26  1  0
 25 27  1  0
 27 28  1  1
M  END
