
     RDKit          3D

 25 28  0  0  0  0  0  0  0  0999 V2000
   -7.2330   -1.2890    0.4010 C   0  0  0  0  0  0  0  0  0  0  0  0
   -5.9490   -1.1510   -0.3760 C   0  0  0  0  0  0  0  0  0  0  0  0
   -5.7540   -1.5140   -1.6920 C   0  0  0  0  0  0  0  0  0  0  0  0
   -4.4190   -1.1960   -1.9550 C   0  0  0  0  0  0  0  0  0  0  0  0
   -3.8860   -0.6720   -0.8140 C   0  0  0  0  0  0  0  0  0  0  0  0
   -2.5000   -0.2140   -0.6830 C   0  0  0  0  0  0  0  0  0  0  0  0
   -1.6880   -0.2760   -1.6420 O   0  0  0  0  0  0  0  0  0  0  0  0
   -1.9910    0.3270    0.5330 N   0  0  0  0  0  0  0  0  0  0  0  0
   -0.6490    0.7780    0.6810 C   0  0  0  0  0  0  0  0  0  0  0  0
   -0.5840    2.0750    1.0090 C   0  0  0  0  0  0  0  0  0  0  0  0
    0.5960    2.9030    1.2480 C   0  0  0  0  0  0  0  0  0  0  0  0
    1.8660    2.6460    1.0800 C   0  0  0  0  0  0  0  0  0  0  0  0
    2.4390    1.4010    0.5870 C   0  0  0  0  0  0  0  0  0  0  0  0
    3.7800    1.4990    0.3730 C   0  0  0  0  0  0  0  0  0  0  0  0
    4.4680    0.4060   -0.0930 C   0  0  0  0  0  0  0  0  0  0  0  0
    5.8250    0.5350   -0.3010 C   0  0  0  0  0  0  0  0  0  0  0  0
    6.5350   -0.5480   -0.7680 C   0  0  0  0  0  0  0  0  0  0  0  0
    8.2490   -0.4800   -1.0600 Cl  0  0  0  0  0  0  0  0  0  0  0  0
    5.8620   -1.7260   -1.0140 C   0  0  0  0  0  0  0  0  0  0  0  0
    4.5020   -1.8480   -0.8030 C   0  0  0  0  0  0  0  0  0  0  0  0
    3.7790   -0.7570   -0.3310 C   0  0  0  0  0  0  0  0  0  0  0  0
    2.4510   -0.8730   -0.1250 N   0  0  0  0  0  0  0  0  0  0  0  0
    1.7830    0.2000    0.3320 C   0  0  0  0  0  0  0  0  0  0  0  0
    0.4070   -0.1320    0.4800 N   0  0  0  0  0  0  0  0  0  0  0  0
   -4.8370   -0.6710    0.0820 O   0  0  0  0  0  0  0  0  0  0  0  0
  1  2  1  0
  2  3  2  0
  2 25  1  0
  3  4  1  0
  4  5  2  0
  5  6  1  0
  5 25  1  0
  6  7  2  0
  6  8  1  0
  8  9  1  0
  9 10  2  0
  9 24  1  0
 10 11  1  0
 11 12  2  0
 12 13  1  0
 13 14  2  0
 13 23  1  0
 14 15  1  0
 15 16  2  0
 15 21  1  0
 16 17  1  0
 17 18  1  0
 17 19  2  0
 19 20  1  0
 20 21  2  0
 21 22  1  0
 22 23  2  0
 23 24  1  0
M  END
