
     RDKit          3D

 25 28  0  0  0  0  0  0  0  0999 V2000
    4.8560    2.7390    1.9950 O   0  0  0  0  0  0  0  0  0  0  0  0
    4.5700    1.5440    1.2830 C   0  0  0  0  0  0  0  0  0  0  0  0
    4.2500    1.8740   -0.1230 C   0  0  0  0  0  0  0  0  0  0  0  0
    3.9140    0.7000   -0.9610 C   0  0  0  0  0  0  0  0  0  0  0  0
    2.7520   -0.0960   -0.5310 C   0  0  0  0  0  0  0  0  0  0  0  0
    1.4860    0.2710   -1.0240 C   0  0  0  0  0  0  0  0  0  0  0  0
    0.3440   -0.3540   -0.6470 C   0  0  0  0  0  0  0  0  0  0  0  0
   -0.9490   -0.2370   -0.9290 O   0  0  0  0  0  0  0  0  0  0  0  0
   -1.6420   -1.1340   -0.2560 C   0  0  0  0  0  0  0  0  0  0  0  0
   -0.8070   -1.9040    0.5230 C   0  0  0  0  0  0  0  0  0  0  0  0
    0.4600   -1.3920    0.2600 C   0  0  0  0  0  0  0  0  0  0  0  0
    1.6780   -1.7640    0.7490 C   0  0  0  0  0  0  0  0  0  0  0  0
    2.8590   -1.1210    0.3610 C   0  0  0  0  0  0  0  0  0  0  0  0
    4.4080   -1.7080    0.9800 Cl  0  0  0  0  0  0  0  0  0  0  0  0
   -1.3530   -2.9130    1.3170 N   0  0  0  0  0  0  0  0  0  0  0  0
   -2.6840   -3.4490    1.1520 C   0  0  0  0  0  0  0  0  0  0  0  0
   -3.4930   -2.8010    0.0870 C   0  0  0  0  0  0  0  0  0  0  0  0
   -3.0670   -1.4140   -0.2150 C   0  0  0  0  0  0  0  0  0  0  0  0
   -3.9600   -0.5330   -0.4230 N   0  0  0  0  0  0  0  0  0  0  0  0
   -3.6200    0.8160   -0.7170 C   0  0  0  0  0  0  0  0  0  0  0  0
   -3.8000    1.8400    0.2160 C   0  0  0  0  0  0  0  0  0  0  0  0
   -3.4790    3.1540   -0.0480 C   0  0  0  0  0  0  0  0  0  0  0  0
   -2.9710    3.4710   -1.2530 N   0  0  0  0  0  0  0  0  0  0  0  0
   -2.7830    2.5150   -2.1760 C   0  0  0  0  0  0  0  0  0  0  0  0
   -3.0960    1.1930   -1.9370 C   0  0  0  0  0  0  0  0  0  0  0  0
  1  2  1  0
  2  3  1  0
  3  4  1  0
  4  5  1  0
  5  6  2  0
  5 13  1  0
  6  7  1  0
  7  8  1  0
  7 11  2  0
  8  9  1  0
  9 10  2  0
  9 18  1  0
 10 11  1  0
 10 15  1  0
 11 12  1  0
 12 13  2  0
 13 14  1  0
 15 16  1  0
 16 17  1  0
 17 18  1  0
 18 19  2  3
 19 20  1  0
 20 21  2  0
 20 25  1  0
 21 22  1  0
 22 23  2  0
 23 24  1  0
 24 25  2  0
M  END
