
     RDKit          3D

 24 27  0  0  0  0  0  0  0  0999 V2000
    7.5250    0.0160    0.0180 C   0  0  0  0  0  0  0  0  0  0  0  0
    6.0620   -0.1650   -0.0500 C   0  0  0  0  0  0  0  0  0  0  0  0
    5.1650    0.8740   -0.1870 C   0  0  0  0  0  0  0  0  0  0  0  0
    3.7920    0.6590   -0.2470 C   0  0  0  0  0  0  0  0  0  0  0  0
    2.7220    1.4590   -0.3740 N   0  0  0  0  0  0  0  0  0  0  0  0
    1.5760    0.7330   -0.3790 C   0  0  0  0  0  0  0  0  0  0  0  0
    0.2430    1.0760   -0.4830 C   0  0  0  0  0  0  0  0  0  0  0  0
   -0.7120    0.0850   -0.4550 C   0  0  0  0  0  0  0  0  0  0  0  0
   -2.1440    0.3740   -0.5600 C   0  0  0  0  0  0  0  0  0  0  0  0
   -2.6260    1.6230   -0.6900 N   0  0  0  0  0  0  0  0  0  0  0  0
   -3.9560    1.5180   -0.7570 N   0  0  0  0  0  0  0  0  0  0  0  0
   -4.2970    0.2190   -0.6690 C   0  0  0  0  0  0  0  0  0  0  0  0
   -5.6680   -0.3540   -0.6990 C   0  0  0  0  0  0  0  0  0  0  0  0
   -6.2630   -0.4540    0.6870 C   0  0  0  0  0  0  0  0  0  0  0  0
   -6.3330    0.9100    1.2880 C   0  0  0  0  0  0  0  0  0  0  0  0
   -7.1210    1.7870    0.5410 O   0  0  0  0  0  0  0  0  0  0  0  0
   -3.1530   -0.4330   -0.5500 O   0  0  0  0  0  0  0  0  0  0  0  0
   -0.2990   -1.2380   -0.3220 C   0  0  0  0  0  0  0  0  0  0  0  0
    1.0340   -1.5780   -0.2180 C   0  0  0  0  0  0  0  0  0  0  0  0
    1.9870   -0.5790   -0.2470 C   0  0  0  0  0  0  0  0  0  0  0  0
    3.3660   -0.6520   -0.1630 C   0  0  0  0  0  0  0  0  0  0  0  0
    4.2330   -1.7190   -0.0250 C   0  0  0  0  0  0  0  0  0  0  0  0
    5.5670   -1.4500    0.0280 C   0  0  0  0  0  0  0  0  0  0  0  0
    6.6760   -2.8140    0.2040 Cl  0  0  0  0  0  0  0  0  0  0  0  0
  1  2  1  0
  2  3  2  0
  2 23  1  0
  3  4  1  0
  4  5  1  0
  4 21  2  0
  5  6  1  0
  6  7  2  0
  6 20  1  0
  7  8  1  0
  8  9  1  0
  8 18  2  0
  9 10  2  0
  9 17  1  0
 10 11  1  0
 11 12  2  0
 12 13  1  0
 12 17  1  0
 13 14  1  0
 14 15  1  0
 15 16  1  0
 18 19  1  0
 19 20  2  0
 20 21  1  0
 21 22  1  0
 22 23  2  0
 23 24  1  0
M  END
