
     RDKit          3D

 36 38  0  0  0  0  0  0  0  0999 V2000
   -4.0390   -4.8060   -0.0350 C   0  0  0  0  0  0  0  0  0  0  0  0
   -4.8000   -3.5290   -0.2640 C   0  0  0  0  0  0  0  0  0  0  0  0
   -4.0510   -2.3830    0.0370 O   0  0  0  0  0  0  0  0  0  0  0  0
   -4.6590   -1.1430   -0.1340 C   0  0  0  0  0  0  0  0  0  0  0  0
   -5.9460   -1.0270   -0.5840 C   0  0  0  0  0  0  0  0  0  0  0  0
   -6.5560    0.1930   -0.7560 C   0  0  0  0  0  0  0  0  0  0  0  0
   -7.9580    0.2800   -1.2490 C   0  0  0  0  0  0  0  0  0  0  0  0
   -5.8060    1.3380   -0.4490 C   0  0  0  0  0  0  0  0  0  0  0  0
   -4.5020    1.2350    0.0100 C   0  0  0  0  0  0  0  0  0  0  0  0
   -3.9030    0.0130    0.1720 C   0  0  0  0  0  0  0  0  0  0  0  0
   -2.6050   -0.2060    0.6060 O   0  0  0  0  0  0  0  0  0  0  0  0
   -1.6290   -0.3470   -0.4250 C   0  0  0  0  0  0  0  0  0  0  0  0
   -0.2570   -0.7020    0.0260 C   0  0  2  0  0  0  0  0  0  0  0  0
   -0.3190   -1.9720    0.6250 O   0  0  0  0  0  0  0  0  0  0  0  0
    0.3020    0.2590    1.0000 C   0  0  0  0  0  0  0  0  0  0  0  0
    1.6290   -0.0260    1.4460 N   0  0  0  0  0  0  0  0  0  0  0  0
    2.7170   -0.0610    0.5470 C   0  0  0  0  0  0  0  0  0  0  0  0
    2.5110    0.1670   -0.6450 O   0  0  0  0  0  0  0  0  0  0  0  0
    4.0860   -0.3650    1.0230 C   0  0  0  0  0  0  0  0  0  0  0  0
    5.0510   -0.2010   -0.1290 C   0  0  2  0  0  0  0  0  0  0  0  0
    4.7220   -1.0660   -1.1720 O   0  0  0  0  0  0  0  0  0  0  0  0
    6.4340   -0.4690    0.3050 C   0  0  0  0  0  0  0  0  0  0  0  0
    6.6860   -0.9620    1.5640 C   0  0  0  0  0  0  0  0  0  0  0  0
    7.9950   -1.2290    1.9840 C   0  0  0  0  0  0  0  0  0  0  0  0
    9.0050   -0.9820    1.0960 C   0  0  0  0  0  0  0  0  0  0  0  0
    8.7500   -0.4870   -0.1690 C   0  0  0  0  0  0  0  0  0  0  0  0
    7.4740   -0.2220   -0.5890 C   0  0  0  0  0  0  0  0  0  0  0  0
    7.2170    0.3080   -1.9260 C   0  0  0  0  0  0  0  0  0  0  0  0
    8.4430    0.5510   -2.7550 C   0  0  0  0  0  0  0  0  0  0  0  0
   -3.7810    2.4610    0.2800 C   0  0  0  0  0  0  0  0  0  0  0  0
   -2.5970    2.4730    0.8860 C   0  0  0  0  0  0  0  0  0  0  0  0
   -1.9550    3.6900    1.1030 N   0  0  0  0  0  0  0  0  0  0  0  0
   -4.4510    3.7470    0.0400 C   0  0  0  0  0  0  0  0  0  0  0  0
   -3.7740    4.7780   -0.1300 O   0  0  0  0  0  0  0  0  0  0  0  0
   -5.9090    3.7930    0.0020 C   0  0  0  0  0  0  0  0  0  0  0  0
   -6.5180    2.6030   -0.6490 C   0  0  0  0  0  0  0  0  0  0  0  0
  1  2  1  0
  2  3  1  0
  3  4  1  0
  4  5  2  0
  4 10  1  0
  5  6  1  0
  6  7  1  0
  6  8  2  0
  8  9  1  0
  8 36  1  0
  9 10  2  0
  9 30  1  0
 10 11  1  0
 11 12  1  0
 12 13  1  0
 13 14  1  1
 13 15  1  0
 15 16  1  0
 16 17  1  0
 17 18  2  0
 17 19  1  0
 19 20  1  0
 20 21  1  6
 20 22  1  0
 22 23  2  0
 22 27  1  0
 23 24  1  0
 24 25  2  0
 25 26  1  0
 26 27  2  0
 27 28  1  0
 28 29  1  0
 30 31  2  3
 30 33  1  0
 31 32  1  0
 33 34  2  0
 33 35  1  0
 35 36  1  0
M  END
