
     RDKit          3D

 36 38  0  0  0  0  0  0  0  0999 V2000
   -0.0540    4.9330    2.2150 C   0  0  0  0  0  0  0  0  0  0  0  0
   -0.4740    5.1320    0.9910 C   0  0  0  0  0  0  0  0  0  0  0  0
   -0.9290    4.0310    0.2630 C   0  0  0  0  0  0  0  0  0  0  0  0
   -1.3730    4.1810   -1.0110 C   0  0  0  0  0  0  0  0  0  0  0  0
   -1.8720    3.0840   -1.8800 C   0  0  0  0  0  0  0  0  0  0  0  0
   -1.5750    1.8060   -1.4110 O   0  0  0  0  0  0  0  0  0  0  0  0
   -0.2820    1.3200   -1.2180 C   0  0  0  0  0  0  0  0  0  0  0  0
    0.8010    2.1120   -1.5020 C   0  0  0  0  0  0  0  0  0  0  0  0
    2.0750    1.5880   -1.2920 C   0  0  0  0  0  0  0  0  0  0  0  0
    2.2240    0.3250   -0.8180 C   0  0  0  0  0  0  0  0  0  0  0  0
    3.5870   -0.2730   -0.5700 C   0  0  0  0  0  0  0  0  0  0  0  0
    4.0320   -0.0180    0.8270 C   0  0  0  0  0  0  0  0  0  0  0  0
    5.3540   -0.6240    1.1240 C   0  0  0  0  0  0  0  0  0  0  0  0
    6.4920   -0.1450    0.3010 C   0  0  2  0  0  0  0  0  0  0  0  0
    6.3700   -0.3740   -1.0480 O   0  0  0  0  0  0  0  0  0  0  0  0
    7.8140   -0.7610    0.7470 C   0  0  0  0  0  0  0  0  0  0  0  0
    7.7990   -2.1190    0.4830 O   0  0  0  0  0  0  0  0  0  0  0  0
    1.1140   -0.4440   -0.5430 C   0  0  0  0  0  0  0  0  0  0  0  0
   -0.1610    0.0030   -0.7240 C   0  0  0  0  0  0  0  0  0  0  0  0
   -1.2960   -0.6840   -0.4800 O   0  0  0  0  0  0  0  0  0  0  0  0
   -1.3840   -1.9860   -0.0040 C   0  0  1  0  0  0  0  0  0  0  0  0
   -1.8840   -1.8620    1.4130 C   0  0  0  0  0  0  0  0  0  0  0  0
   -2.0680   -3.1630    2.1150 C   0  0  0  0  0  0  0  0  0  0  0  0
   -3.3340   -3.8640    1.7890 C   0  0  0  0  0  0  0  0  0  0  0  0
   -4.1020   -3.1410    0.7190 C   0  0  0  0  0  0  0  0  0  0  0  0
   -3.4670   -3.3810   -0.6070 C   0  0  1  0  0  0  0  0  0  0  0  0
   -3.5180   -4.7960   -0.7580 O   0  0  0  0  0  0  0  0  0  0  0  0
   -4.5060   -2.8960   -1.6400 C   0  0  0  0  0  0  0  0  0  0  0  0
   -5.7640   -3.6320   -1.5330 C   0  0  0  0  0  0  0  0  0  0  0  0
   -6.8850   -3.0940   -0.8490 N   0  0  0  0  0  0  0  0  0  0  0  0
   -5.8710   -4.7690   -2.0550 O   0  0  0  0  0  0  0  0  0  0  0  0
   -2.1400   -2.8790   -0.9010 C   0  0  0  0  0  0  0  0  0  0  0  0
   -1.3580    5.4450   -1.5510 C   0  0  0  0  0  0  0  0  0  0  0  0
   -0.9260    6.5120   -0.8680 N   0  0  0  0  0  0  0  0  0  0  0  0
   -0.4750    6.3760    0.4170 C   0  0  0  0  0  0  0  0  0  0  0  0
   -0.0600    7.4720    1.0410 C   0  0  0  0  0  0  0  0  0  0  0  0
  1  2  2  0
  2  3  1  0
  2 35  1  0
  3  4  2  0
  4  5  1  0
  4 33  1  0
  5  6  1  0
  6  7  1  0
  7  8  2  0
  7 19  1  0
  8  9  1  0
  9 10  2  0
 10 11  1  0
 10 18  1  0
 11 12  1  0
 12 13  1  0
 13 14  1  0
 14 15  1  6
 14 16  1  0
 16 17  1  0
 18 19  2  0
 19 20  1  0
 21 20  1  6
 21 22  1  0
 21 32  1  0
 22 23  1  0
 23 24  1  0
 24 25  1  0
 25 26  1  0
 26 27  1  6
 26 28  1  0
 26 32  1  0
 28 29  1  0
 29 30  1  0
 29 31  2  0
 33 34  2  0
 34 35  1  0
 35 36  2  0
M  END
