
     RDKit          3D

 37 40  0  0  0  0  0  0  0  0999 V2000
   -7.3920    1.2130    0.9360 C   0  0  0  0  0  0  0  0  0  0  0  0
   -6.1620    0.3450    0.9120 C   0  0  0  0  0  0  0  0  0  0  0  0
   -5.9890   -0.4300   -0.2340 N   0  0  2  0  0  0  0  0  0  0  0  0
   -4.5760   -0.8590   -0.2880 C   0  0  0  0  0  0  0  0  0  0  0  0
   -4.4390   -2.3650   -0.2320 C   0  0  0  0  0  0  0  0  0  0  0  0
   -5.1200   -2.8910   -1.3310 O   0  0  0  0  0  0  0  0  0  0  0  0
   -6.4030   -0.0830   -1.5070 C   0  0  0  0  0  0  0  0  0  0  0  0
   -5.7290    0.8850   -2.3810 C   0  0  0  0  0  0  0  0  0  0  0  0
   -5.6210    2.2990   -1.9320 C   0  0  0  0  0  0  0  0  0  0  0  0
   -4.9270    2.5970   -0.7870 O   0  0  0  0  0  0  0  0  0  0  0  0
   -3.5940    2.4510   -0.5100 C   0  0  0  0  0  0  0  0  0  0  0  0
   -2.6510    1.9730   -1.3850 C   0  0  0  0  0  0  0  0  0  0  0  0
   -1.3130    1.8550   -1.0200 C   0  0  0  0  0  0  0  0  0  0  0  0
   -0.8600    2.2050    0.2200 C   0  0  0  0  0  0  0  0  0  0  0  0
    0.4550    2.1000    0.6100 C   0  0  0  0  0  0  0  0  0  0  0  0
    1.4470    1.6170   -0.2640 N   0  0  0  0  0  0  0  0  0  0  0  0
    2.8030    1.5220    0.1800 C   0  0  0  0  0  0  0  0  0  0  0  0
    3.8850    1.0740   -0.5480 C   0  0  0  0  0  0  0  0  0  0  0  0
    5.0260    1.1330    0.2380 C   0  0  0  0  0  0  0  0  0  0  0  0
    6.4060    0.7650   -0.0910 C   0  0  0  0  0  0  0  0  0  0  0  0
    6.6730   -0.6870    0.1930 C   0  0  0  0  0  0  0  0  0  0  0  0
    5.7220   -1.3430    0.6510 O   0  0  0  0  0  0  0  0  0  0  0  0
    7.9050   -1.2920   -0.0360 N   0  0  0  0  0  0  0  0  0  0  0  0
    8.2690   -2.6390    0.1930 C   0  0  0  0  0  0  0  0  0  0  0  0
    7.4680   -3.5770    0.7900 C   0  0  0  0  0  0  0  0  0  0  0  0
    7.8670   -4.9100    0.9860 C   0  0  0  0  0  0  0  0  0  0  0  0
    9.1040   -5.3410    0.5790 C   0  0  0  0  0  0  0  0  0  0  0  0
    9.9120   -4.4040   -0.0220 C   0  0  0  0  0  0  0  0  0  0  0  0
   11.1380   -4.8380   -0.4250 F   0  0  0  0  0  0  0  0  0  0  0  0
    9.5280   -3.1020   -0.2160 C   0  0  0  0  0  0  0  0  0  0  0  0
    4.6050    1.6180    1.4290 N   0  0  0  0  0  0  0  0  0  0  0  0
    3.2920    1.8460    1.3920 N   0  0  0  0  0  0  0  0  0  0  0  0
    0.8380    2.4710    1.8690 N   0  0  0  0  0  0  0  0  0  0  0  0
   -0.0720    2.9390    2.7330 C   0  0  0  0  0  0  0  0  0  0  0  0
   -1.3480    3.0360    2.3450 N   0  0  0  0  0  0  0  0  0  0  0  0
   -1.7930    2.6880    1.1150 C   0  0  0  0  0  0  0  0  0  0  0  0
   -3.1120    2.8060    0.7620 C   0  0  0  0  0  0  0  0  0  0  0  0
  1  2  1  0
  3  2  1  1
  3  4  1  0
  3  7  1  0
  4  5  1  0
  5  6  1  0
  7  8  1  0
  8  9  1  0
  9 10  1  0
 10 11  1  0
 11 12  2  0
 11 37  1  0
 12 13  1  0
 13 14  2  0
 14 15  1  0
 14 36  1  0
 15 16  1  0
 15 33  2  0
 16 17  1  0
 17 18  1  0
 17 32  2  0
 18 19  2  0
 19 20  1  0
 19 31  1  0
 20 21  1  0
 21 22  2  0
 21 23  1  0
 23 24  1  0
 24 25  2  0
 24 30  1  0
 25 26  1  0
 26 27  2  0
 27 28  1  0
 28 29  1  0
 28 30  2  0
 31 32  1  0
 33 34  1  0
 34 35  2  0
 35 36  1  0
 36 37  2  0
M  CHG  1   3   1
M  END
