
     RDKit          3D

 36 38  0  0  0  0  0  0  0  0999 V2000
    5.3380   -4.3650   -0.4070 C   0  0  0  0  0  0  0  0  0  0  0  0
    6.0100   -3.1440   -0.4190 O   0  0  0  0  0  0  0  0  0  0  0  0
    5.4770   -1.9120   -0.1500 C   0  0  0  0  0  0  0  0  0  0  0  0
    4.1590   -1.6720    0.1830 C   0  0  0  0  0  0  0  0  0  0  0  0
    3.6890   -0.3910    0.4430 C   0  0  0  0  0  0  0  0  0  0  0  0
    2.2370   -0.2400    0.7970 C   0  0  1  0  0  0  0  0  0  0  0  0
    1.7720    1.1690    0.6150 C   0  0  0  0  0  0  0  0  0  0  0  0
    0.3920    1.2290    0.2480 N   0  0  0  0  0  0  0  0  0  0  0  0
   -0.5220    0.8250    1.2840 C   0  0  0  0  0  0  0  0  0  0  0  0
   -1.9170    0.9490    0.7890 C   0  0  0  0  0  0  0  0  0  0  0  0
   -2.2330    1.8860   -0.1660 C   0  0  0  0  0  0  0  0  0  0  0  0
   -3.5040    1.9990   -0.6320 C   0  0  0  0  0  0  0  0  0  0  0  0
   -4.5270    1.1770   -0.1620 C   0  0  0  0  0  0  0  0  0  0  0  0
   -5.8770    1.3750   -0.6800 C   0  0  0  0  0  0  0  0  0  0  0  0
   -6.1810    2.2400   -1.5910 C   0  0  0  0  0  0  0  0  0  0  0  0
   -7.6100    2.3710   -2.0640 C   0  0  0  0  0  0  0  0  0  0  0  0
   -8.4320    1.4230   -1.3450 N   0  0  0  0  0  0  0  0  0  0  0  0
   -4.2260    0.2280    0.7970 C   0  0  0  0  0  0  0  0  0  0  0  0
   -5.2500   -0.7060    1.2780 C   0  0  0  0  0  0  0  0  0  0  0  0
   -5.4740   -1.9340    0.4850 C   0  0  1  0  0  0  0  0  0  0  0  0
   -6.5990   -2.7010    1.1990 C   0  0  0  0  0  0  0  0  0  0  0  0
   -5.8330   -1.8130   -0.9420 C   0  0  0  0  0  0  0  0  0  0  0  0
   -4.3690   -2.8270    0.5960 O   0  0  0  0  0  0  0  0  0  0  0  0
   -2.9070    0.1290    1.2650 C   0  0  0  0  0  0  0  0  0  0  0  0
    0.1370    0.5820   -1.0240 C   0  0  0  0  0  0  0  0  0  0  0  0
    1.2900   -0.3930   -1.2470 C   0  0  0  0  0  0  0  0  0  0  0  0
    1.5280   -1.0760   -0.0590 O   0  0  0  0  0  0  0  0  0  0  0  0
    4.5590    0.6720    0.3680 C   0  0  0  0  0  0  0  0  0  0  0  0
    5.8700    0.4700    0.0400 C   0  0  0  0  0  0  0  0  0  0  0  0
    6.7770    1.6420   -0.0330 C   0  0  1  0  0  0  0  0  0  0  0  0
    7.3130    1.7690   -1.3230 O   0  0  0  0  0  0  0  0  0  0  0  0
    6.0300    2.8930    0.3540 C   0  0  0  0  0  0  0  0  0  0  0  0
    6.9150    3.9840    0.3300 O   0  0  0  0  0  0  0  0  0  0  0  0
    6.3110   -0.8150   -0.2140 C   0  0  0  0  0  0  0  0  0  0  0  0
    7.6450   -0.9690   -0.5410 O   0  0  0  0  0  0  0  0  0  0  0  0
    8.6290   -1.1890    0.4600 C   0  0  0  0  0  0  0  0  0  0  0  0
  1  2  1  0
  2  3  1  0
  3  4  2  0
  3 34  1  0
  4  5  1  0
  6  5  1  6
  5 28  2  0
  6  7  1  0
  6 27  1  0
  7  8  1  0
  8  9  1  0
  8 25  1  0
  9 10  1  0
 10 11  2  0
 10 24  1  0
 11 12  1  0
 12 13  2  0
 13 14  1  0
 13 18  1  0
 14 15  2  3
 15 16  1  0
 16 17  1  0
 18 19  1  0
 18 24  2  0
 19 20  1  0
 20 21  1  1
 20 22  1  0
 20 23  1  0
 25 26  1  0
 26 27  1  0
 28 29  1  0
 29 30  1  0
 29 34  2  0
 30 31  1  6
 30 32  1  0
 32 33  1  0
 34 35  1  0
 35 36  1  0
M  END
