
     RDKit          3D

 36 38  0  0  0  0  0  0  0  0999 V2000
    8.9970   -2.9410   -0.1510 C   0  0  0  0  0  0  0  0  0  0  0  0
    9.5330   -1.6820   -0.1580 O   0  0  0  0  0  0  0  0  0  0  0  0
    8.6930   -0.6630   -0.5100 C   0  0  0  0  0  0  0  0  0  0  0  0
    7.4850   -0.4970    0.3880 C   0  0  0  0  0  0  0  0  0  0  0  0
    6.6700    0.5690   -0.0370 O   0  0  0  0  0  0  0  0  0  0  0  0
    5.5100    0.9610    0.5890 C   0  0  0  0  0  0  0  0  0  0  0  0
    5.0320    0.3340    1.7160 C   0  0  0  0  0  0  0  0  0  0  0  0
    3.8570    0.7510    2.3280 C   0  0  0  0  0  0  0  0  0  0  0  0
    3.1150    1.8020    1.8460 C   0  0  0  0  0  0  0  0  0  0  0  0
    1.8760    2.2500    2.5070 C   0  0  0  0  0  0  0  0  0  0  0  0
    0.7500    2.3390    1.7270 O   0  0  0  0  0  0  0  0  0  0  0  0
    0.0590    1.3930    1.0250 C   0  0  0  0  0  0  0  0  0  0  0  0
    0.4470    0.0940    1.0230 C   0  0  0  0  0  0  0  0  0  0  0  0
   -0.2790   -0.8140    0.3040 C   0  0  0  0  0  0  0  0  0  0  0  0
   -1.4080   -0.5100   -0.4410 C   0  0  0  0  0  0  0  0  0  0  0  0
   -2.1010   -1.5210   -1.1780 C   0  0  0  0  0  0  0  0  0  0  0  0
   -3.3530   -2.0810   -0.7380 C   0  0  0  0  0  0  0  0  0  0  0  0
   -4.5310   -1.7700   -1.4160 C   0  0  0  0  0  0  0  0  0  0  0  0
   -5.7530   -2.2700   -1.0930 C   0  0  0  0  0  0  0  0  0  0  0  0
   -6.9150   -1.9270   -1.8060 O   0  0  0  0  0  0  0  0  0  0  0  0
   -5.8730   -3.1390   -0.0360 C   0  0  0  0  0  0  0  0  0  0  0  0
   -4.7290   -3.4780    0.6680 C   0  0  0  0  0  0  0  0  0  0  0  0
   -3.4760   -2.9470    0.3130 C   0  0  0  0  0  0  0  0  0  0  0  0
   -2.2580   -3.3190    1.0540 C   0  0  0  0  0  0  0  0  0  0  0  0
   -1.8000    0.8120   -0.4380 C   0  0  0  0  0  0  0  0  0  0  0  0
   -2.9730    1.2440   -1.2120 C   0  0  2  0  0  0  0  0  0  0  0  0
   -2.7280    0.9720   -2.5940 O   0  0  0  0  0  0  0  0  0  0  0  0
   -3.1330    2.7430   -1.1230 C   0  0  2  0  0  0  0  0  0  0  0  0
   -3.4690    3.0610    0.1880 O   0  0  0  0  0  0  0  0  0  0  0  0
   -4.2530    3.2570   -2.0120 C   0  0  0  0  0  0  0  0  0  0  0  0
   -5.5770    2.7000   -1.6850 C   0  0  0  0  0  0  0  0  0  0  0  0
   -6.4960    3.5110   -1.2100 N   0  0  0  0  0  0  0  0  0  0  0  0
   -5.9560    1.3410   -1.8390 N   0  0  0  0  0  0  0  0  0  0  0  0
   -1.0840    1.7490    0.2790 C   0  0  0  0  0  0  0  0  0  0  0  0
    3.6010    2.4310    0.7090 C   0  0  0  0  0  0  0  0  0  0  0  0
    4.7640    2.0300    0.0890 C   0  0  0  0  0  0  0  0  0  0  0  0
  1  2  1  0
  2  3  1  0
  3  4  1  0
  4  5  1  0
  5  6  1  0
  6  7  2  0
  6 36  1  0
  7  8  1  0
  8  9  2  0
  9 10  1  0
  9 35  1  0
 10 11  1  0
 11 12  1  0
 12 13  2  0
 12 34  1  0
 13 14  1  0
 14 15  2  0
 15 16  1  0
 15 25  1  0
 16 17  1  0
 17 18  2  0
 17 23  1  0
 18 19  1  0
 19 20  1  0
 19 21  2  0
 21 22  1  0
 22 23  2  0
 23 24  1  0
 25 26  1  0
 25 34  2  0
 26 27  1  6
 26 28  1  0
 28 29  1  1
 28 30  1  0
 30 31  1  0
 31 32  2  0
 31 33  1  0
 35 36  2  0
M  END
