
     RDKit          3D

 36 38  0  0  0  0  0  0  0  0999 V2000
   -2.5250    7.3970    0.6340 C   0  0  0  0  0  0  0  0  0  0  0  0
   -2.5590    5.9290    0.5120 C   0  0  0  0  0  0  0  0  0  0  0  0
   -1.5290    5.1890    1.0660 C   0  0  0  0  0  0  0  0  0  0  0  0
   -1.5270    3.8100    0.9700 C   0  0  0  0  0  0  0  0  0  0  0  0
   -2.5760    3.2010    0.3110 C   0  0  0  0  0  0  0  0  0  0  0  0
   -2.6730    1.8420    0.1590 O   0  0  0  0  0  0  0  0  0  0  0  0
   -1.7320    0.8970    0.6450 C   0  0  0  0  0  0  0  0  0  0  0  0
   -2.2080   -0.4550    0.2670 C   0  0  0  0  0  0  0  0  0  0  0  0
   -3.2790   -0.5650   -0.4060 O   0  0  0  0  0  0  0  0  0  0  0  0
   -1.4610   -1.5850    0.6630 N   0  0  0  0  0  0  0  0  0  0  0  0
   -0.2590   -1.4460    1.4270 C   0  0  0  0  0  0  0  0  0  0  0  0
    0.9500   -1.3220    0.5700 C   0  0  0  0  0  0  0  0  0  0  0  0
    1.7360   -0.2920    0.6250 C   0  0  0  0  0  0  0  0  0  0  0  0
    2.9140   -0.1680   -0.2070 C   0  0  0  0  0  0  0  0  0  0  0  0
    3.3080   -1.1130   -1.1270 C   0  0  0  0  0  0  0  0  0  0  0  0
    4.4530   -0.9760   -1.9210 C   0  0  0  0  0  0  0  0  0  0  0  0
    5.2220    0.1580   -1.7750 C   0  0  0  0  0  0  0  0  0  0  0  0
    6.3970    0.3770   -2.5380 N   0  0  0  0  0  0  0  0  0  0  0  0
    4.8730    1.1500   -0.8610 C   0  0  0  0  0  0  0  0  0  0  0  0
    5.6590    2.2310   -0.7650 O   0  0  0  0  0  0  0  0  0  0  0  0
    5.6680    3.3720   -0.0160 C   0  0  0  0  0  0  0  0  0  0  0  0
    5.7980    3.2390    1.4630 C   0  0  0  0  0  0  0  0  0  0  0  0
    5.7910    4.5050    2.0950 O   0  0  0  0  0  0  0  0  0  0  0  0
    3.7420    0.9640   -0.1090 C   0  0  0  0  0  0  0  0  0  0  0  0
   -1.9310   -2.8740    0.2910 C   0  0  0  0  0  0  0  0  0  0  0  0
   -2.7780   -3.6020    1.1280 C   0  0  0  0  0  0  0  0  0  0  0  0
   -3.2190   -4.8500    0.7420 C   0  0  0  0  0  0  0  0  0  0  0  0
   -2.8400   -5.4040   -0.4620 C   0  0  0  0  0  0  0  0  0  0  0  0
   -3.3190   -6.7440   -0.8630 C   0  0  1  0  0  0  0  0  0  0  0  0
   -3.1960   -7.5950    0.2360 O   0  0  0  0  0  0  0  0  0  0  0  0
   -4.7820   -6.6390   -1.2460 C   0  0  0  0  0  0  0  0  0  0  0  0
   -5.4690   -6.1190   -0.1370 O   0  0  0  0  0  0  0  0  0  0  0  0
   -2.0030   -4.6620   -1.2680 C   0  0  0  0  0  0  0  0  0  0  0  0
   -1.5450   -3.4110   -0.9130 C   0  0  0  0  0  0  0  0  0  0  0  0
   -3.6120    3.9580   -0.2450 C   0  0  0  0  0  0  0  0  0  0  0  0
   -3.6030    5.3240   -0.1440 C   0  0  0  0  0  0  0  0  0  0  0  0
  1  2  1  0
  2  3  2  0
  2 36  1  0
  3  4  1  0
  4  5  2  0
  5  6  1  0
  5 35  1  0
  6  7  1  0
  7  8  1  0
  8  9  2  0
  8 10  1  0
 10 11  1  0
 10 25  1  0
 11 12  1  0
 12 13  2  3
 13 14  1  0
 14 15  2  0
 14 24  1  0
 15 16  1  0
 16 17  2  0
 17 18  1  0
 17 19  1  0
 19 20  1  0
 19 24  2  0
 20 21  1  0
 21 22  1  0
 22 23  1  0
 25 26  2  0
 25 34  1  0
 26 27  1  0
 27 28  2  0
 28 29  1  0
 28 33  1  0
 29 30  1  1
 29 31  1  0
 31 32  1  0
 33 34  2  0
 35 36  2  0
M  END
