
     RDKit          3D

 35 39  0  0  0  0  0  0  0  0999 V2000
    0.2000   -1.3340    2.2250 O   0  0  0  0  0  0  0  0  0  0  0  0
    0.6570   -0.2870    1.7450 C   0  0  0  0  0  0  0  0  0  0  0  0
   -0.0660    1.0040    1.8780 C   0  0  0  0  0  0  0  0  0  0  0  0
   -1.3820    0.9830    2.5170 C   0  0  0  0  0  0  0  0  0  0  0  0
   -2.5090    0.3090    2.0890 N   0  0  2  0  0  0  0  0  0  0  0  0
   -2.9150   -0.6550    3.1570 C   0  0  0  0  0  0  0  0  0  0  0  0
   -4.3390   -1.0280    2.8090 C   0  0  0  0  0  0  0  0  0  0  0  0
   -4.2330   -2.0020    1.6530 C   0  0  0  0  0  0  0  0  0  0  0  0
   -2.9420   -1.7200    0.8590 C   0  0  0  0  0  0  0  0  0  0  0  0
   -2.7880   -0.2090    0.8170 C   0  0  2  0  0  0  0  0  0  0  0  0
   -2.1270    0.3280   -0.3890 C   0  0  2  0  0  0  0  0  0  0  0  0
   -2.4180    1.8380   -0.4640 C   0  0  0  0  0  0  0  0  0  0  0  0
   -3.8010    2.1500   -0.9210 C   0  0  0  0  0  0  0  0  0  0  0  0
   -4.0050    1.5410   -2.2910 C   0  0  0  0  0  0  0  0  0  0  0  0
   -3.9910    0.0210   -2.0470 C   0  0  0  0  0  0  0  0  0  0  0  0
   -2.5950   -0.3240   -1.6850 C   0  0  0  0  0  0  0  0  0  0  0  0
    1.9040   -0.3620    1.0620 N   0  0  0  0  0  0  0  0  0  0  0  0
    2.7050   -1.4880    0.8530 C   0  0  0  0  0  0  0  0  0  0  0  0
    2.3870   -2.7550    1.2940 C   0  0  0  0  0  0  0  0  0  0  0  0
    3.2080   -3.8120    1.0590 N   0  0  0  0  0  0  0  0  0  0  0  0
    4.3690   -3.6750    0.3860 C   0  0  0  0  0  0  0  0  0  0  0  0
    5.1000   -4.6900    0.1930 O   0  0  0  0  0  0  0  0  0  0  0  0
    4.7060   -2.4150   -0.0640 C   0  0  0  0  0  0  0  0  0  0  0  0
    3.8990   -1.3230    0.1560 C   0  0  0  0  0  0  0  0  0  0  0  0
    4.2300   -0.0300   -0.2970 N   0  0  0  0  0  0  0  0  0  0  0  0
    4.6650    0.9480    0.5440 C   0  0  0  0  0  0  0  0  0  0  0  0
    4.7840    0.7180    1.7740 O   0  0  0  0  0  0  0  0  0  0  0  0
    4.9580    2.1700   -0.0190 C   0  0  0  0  0  0  0  0  0  0  0  0
    4.8400    2.4580   -1.3600 C   0  0  0  0  0  0  0  0  0  0  0  0
    4.3940    1.4350   -2.1880 C   0  0  0  0  0  0  0  0  0  0  0  0
    4.2560    1.6650   -3.5390 C   0  0  0  0  0  0  0  0  0  0  0  0
    3.8160    0.6670   -4.3800 C   0  0  0  0  0  0  0  0  0  0  0  0
    3.5230   -0.5530   -3.8240 C   0  0  0  0  0  0  0  0  0  0  0  0
    3.6610   -0.7790   -2.4760 C   0  0  0  0  0  0  0  0  0  0  0  0
    4.1030    0.2160   -1.6180 C   0  0  0  0  0  0  0  0  0  0  0  0
  1  2  2  0
  2  3  1  0
  2 17  1  0
  3  4  1  0
  5  4  1  6
  5  6  1  0
  5 10  1  0
  6  7  1  0
  7  8  1  0
  8  9  1  0
 10  9  1  1
 10 11  1  0
 11 12  1  6
 11 16  1  0
 12 13  1  0
 13 14  1  0
 14 15  1  0
 15 16  1  0
 17 18  1  0
 18 19  2  0
 18 24  1  0
 19 20  1  0
 20 21  1  0
 21 22  2  0
 21 23  1  0
 23 24  2  0
 24 25  1  0
 25 26  1  0
 25 35  1  0
 26 27  2  0
 26 28  1  0
 28 29  2  0
 29 30  1  0
 30 31  2  0
 30 35  1  0
 31 32  1  0
 32 33  2  0
 33 34  1  0
 34 35  2  0
M  CHG  1   5   1
M  END
