
     RDKit          3D

 35 39  0  0  0  0  0  0  0  0999 V2000
    5.1570    1.4490   -2.5330 C   0  0  0  0  0  0  0  0  0  0  0  0
    4.5830    0.7540   -1.3150 C   0  0  0  0  0  0  0  0  0  0  0  0
    5.3700    0.5770   -0.2790 C   0  0  0  0  0  0  0  0  0  0  0  0
    6.7100    0.9710   -0.1670 C   0  0  0  0  0  0  0  0  0  0  0  0
    7.1200    0.6600    1.0740 N   0  0  0  0  0  0  0  0  0  0  0  0
    6.1020    0.0930    1.7350 C   0  0  0  0  0  0  0  0  0  0  0  0
    5.7080   -0.4340    2.9130 N   0  0  0  0  0  0  0  0  0  0  0  0
    4.4950   -0.8030    2.8600 O   0  0  0  0  0  0  0  0  0  0  0  0
    3.9610   -0.5610    1.6450 C   0  0  0  0  0  0  0  0  0  0  0  0
    2.5810   -0.8870    1.3090 C   0  0  0  0  0  0  0  0  0  0  0  0
    1.6470   -0.8860    2.3700 C   0  0  0  0  0  0  0  0  0  0  0  0
    0.3560   -1.2650    2.1820 C   0  0  0  0  0  0  0  0  0  0  0  0
   -0.1370   -1.6790    0.9400 C   0  0  0  0  0  0  0  0  0  0  0  0
   -1.5230   -2.0570    0.8610 C   0  0  0  0  0  0  0  0  0  0  0  0
   -2.2450   -1.9980    1.9280 O   0  0  0  0  0  0  0  0  0  0  0  0
   -2.2340   -2.5050   -0.2760 N   0  0  0  0  0  0  0  0  0  0  0  0
   -3.6130   -2.8440   -0.1960 C   0  0  0  0  0  0  0  0  0  0  0  0
   -4.5890   -1.8100    0.1910 C   0  0  0  0  0  0  0  0  0  0  0  0
   -4.8120   -0.6400   -0.6770 C   0  0  1  0  0  0  0  0  0  0  0  0
   -5.8660    0.2480   -0.0570 C   0  0  0  0  0  0  0  0  0  0  0  0
   -6.5060   -0.0840    1.1130 C   0  0  0  0  0  0  0  0  0  0  0  0
   -7.4890    0.7360    1.6900 C   0  0  0  0  0  0  0  0  0  0  0  0
   -7.8370    1.9180    1.0760 C   0  0  0  0  0  0  0  0  0  0  0  0
   -7.2020    2.2580   -0.0940 C   0  0  0  0  0  0  0  0  0  0  0  0
   -6.2270    1.4430   -0.6650 C   0  0  0  0  0  0  0  0  0  0  0  0
   -3.6740    0.0950   -1.0880 N   0  0  2  0  0  0  0  0  0  0  0  0
   -3.4380    1.3010   -0.3060 C   0  0  0  0  0  0  0  0  0  0  0  0
   -3.7770    0.4620   -2.5180 C   0  0  0  0  0  0  0  0  0  0  0  0
    0.7600   -1.6820   -0.0790 C   0  0  0  0  0  0  0  0  0  0  0  0
    0.3540   -2.0790   -1.3450 O   0  0  0  0  0  0  0  0  0  0  0  0
    2.1010   -1.2900    0.1120 C   0  0  0  0  0  0  0  0  0  0  0  0
    4.9630    0.0110    0.9200 C   0  0  0  0  0  0  0  0  0  0  0  0
    8.5050    1.0350    1.2820 C   0  0  0  0  0  0  0  0  0  0  0  0
    8.9300    1.6350   -0.0160 C   0  0  0  0  0  0  0  0  0  0  0  0
    7.6930    1.5260   -0.8420 C   0  0  0  0  0  0  0  0  0  0  0  0
  1  2  1  0
  2  3  2  3
  3  4  1  0
  3 32  1  0
  4  5  1  0
  4 35  2  0
  5  6  1  0
  5 33  1  0
  6  7  2  0
  6 32  1  0
  7  8  1  0
  8  9  1  0
  9 10  1  0
  9 32  2  0
 10 11  2  0
 10 31  1  0
 11 12  1  0
 12 13  2  0
 13 14  1  0
 13 29  1  0
 14 15  2  0
 14 16  1  0
 16 17  1  0
 17 18  1  0
 19 18  1  1
 19 20  1  0
 19 26  1  0
 20 21  2  0
 20 25  1  0
 21 22  1  0
 22 23  2  0
 23 24  1  0
 24 25  2  0
 26 27  1  1
 26 28  1  0
 29 30  1  0
 29 31  2  0
 33 34  1  0
 34 35  1  0
M  CHG  1  26   1
M  END
