
     RDKit          3D

 34 39  0  0  0  0  0  0  0  0999 V2000
   -7.7470    0.8570    2.0550 C   0  0  0  0  0  0  0  0  0  0  0  0
   -6.3610    0.6690    1.6830 C   0  0  0  0  0  0  0  0  0  0  0  0
   -5.1480    0.0050    2.7800 S   0  0  0  0  0  0  0  0  0  0  0  0
   -3.7670    0.0990    1.6170 C   0  0  0  0  0  0  0  0  0  0  0  0
   -2.4640   -0.2150    1.7110 N   0  0  0  0  0  0  0  0  0  0  0  0
   -1.6520   -0.0010    0.6410 C   0  0  0  0  0  0  0  0  0  0  0  0
   -0.3320   -0.2070    0.4230 C   0  0  0  0  0  0  0  0  0  0  0  0
   -0.0710    0.2060   -0.8630 C   0  0  0  0  0  0  0  0  0  0  0  0
   -1.2100    0.6370   -1.3770 N   0  0  0  0  0  0  0  0  0  0  0  0
   -2.1970    0.5150   -0.4610 N   0  0  0  0  0  0  0  0  0  0  0  0
   -3.4920    0.8310   -0.5720 C   0  0  0  0  0  0  0  0  0  0  0  0
   -3.8830    1.3140   -1.6700 O   0  0  0  0  0  0  0  0  0  0  0  0
   -4.3900    0.6290    0.5150 C   0  0  0  0  0  0  0  0  0  0  0  0
   -5.6700    0.9070    0.5520 N   0  0  0  0  0  0  0  0  0  0  0  0
   -6.4910    1.4210   -0.5920 C   0  0  0  0  0  0  0  0  0  0  0  0
   -7.2230    0.3380   -1.2940 C   0  0  0  0  0  0  0  0  0  0  0  0
   -6.4660   -0.7510   -1.8770 C   0  0  0  0  0  0  0  0  0  0  0  0
   -7.0410   -1.5690   -2.5780 O   0  0  0  0  0  0  0  0  0  0  0  0
    1.2900    0.1270   -1.4120 C   0  0  0  0  0  0  0  0  0  0  0  0
    2.1500   -0.8060   -0.7090 N   0  0  0  0  0  0  0  0  0  0  0  0
    3.4940   -0.8910   -1.1180 C   0  0  0  0  0  0  0  0  0  0  0  0
    3.9390   -0.1110   -2.0450 O   0  0  0  0  0  0  0  0  0  0  0  0
    4.5160   -1.8190   -0.5820 C   0  0  0  0  0  0  0  0  0  0  0  0
    5.4370   -1.2110    0.3870 C   0  0  0  0  0  0  0  0  0  0  0  0
    5.3800   -1.4640    1.7670 C   0  0  0  0  0  0  0  0  0  0  0  0
    6.3150   -0.7990    2.3930 O   0  0  0  0  0  0  0  0  0  0  0  0
    7.0080   -0.1060    1.5200 C   0  0  0  0  0  0  0  0  0  0  0  0
    8.0790    0.7440    1.6570 C   0  0  0  0  0  0  0  0  0  0  0  0
    8.6260    1.3550    0.5590 C   0  0  0  0  0  0  0  0  0  0  0  0
    8.1110    1.1270   -0.7200 C   0  0  0  0  0  0  0  0  0  0  0  0
    7.0380    0.2750   -0.8550 C   0  0  0  0  0  0  0  0  0  0  0  0
    6.4840   -0.3400    0.2430 C   0  0  0  0  0  0  0  0  0  0  0  0
    1.6990   -1.5900    0.4130 C   0  0  0  0  0  0  0  0  0  0  0  0
    0.7400   -0.7740    1.2720 C   0  0  0  0  0  0  0  0  0  0  0  0
  1  2  1  0
  2  3  1  0
  2 14  2  0
  3  4  1  0
  4  5  1  0
  4 13  2  0
  5  6  2  0
  6  7  1  0
  6 10  1  0
  7  8  2  0
  7 34  1  0
  8  9  1  0
  8 19  1  0
  9 10  1  0
 10 11  1  0
 11 12  2  0
 11 13  1  0
 13 14  1  0
 14 15  1  0
 15 16  1  0
 16 17  1  0
 17 18  2  0
 19 20  1  0
 20 21  1  0
 20 33  1  0
 21 22  2  0
 21 23  1  0
 23 24  1  0
 24 25  2  0
 24 32  1  0
 25 26  1  0
 26 27  1  0
 27 28  2  0
 27 32  1  0
 28 29  1  0
 29 30  2  0
 30 31  1  0
 31 32  2  0
 33 34  1  0
M  CHG  1  14   1
M  END
