
     RDKit          3D

 34 39  0  0  0  0  0  0  0  0999 V2000
    1.9410    0.1420    2.2230 O   0  0  0  0  0  0  0  0  0  0  0  0
    2.3820    0.3300    1.0700 C   0  0  0  0  0  0  0  0  0  0  0  0
    1.5600    1.0910    0.0850 C   0  0  0  0  0  0  0  0  0  0  0  0
    0.3100    1.5450    0.5720 N   0  0  0  0  0  0  0  0  0  0  0  0
   -0.8630    1.0750    0.5490 C   0  0  0  0  0  0  0  0  0  0  0  0
   -1.4220   -0.1380    0.0120 C   0  0  0  0  0  0  0  0  0  0  0  0
   -0.5920   -1.2080   -0.3250 C   0  0  0  0  0  0  0  0  0  0  0  0
   -1.0470   -2.4590   -0.6890 C   0  0  0  0  0  0  0  0  0  0  0  0
   -2.4000   -2.6680   -0.7230 C   0  0  0  0  0  0  0  0  0  0  0  0
   -3.2430   -1.6410   -0.4010 C   0  0  0  0  0  0  0  0  0  0  0  0
   -2.7640   -0.3600   -0.0320 C   0  0  0  0  0  0  0  0  0  0  0  0
   -3.7320    0.6800    0.1310 N   0  0  0  0  0  0  0  0  0  0  0  0
   -3.6680    2.1050    0.2330 C   0  0  0  0  0  0  0  0  0  0  0  0
   -4.9760    2.5230   -0.4790 C   0  0  0  0  0  0  0  0  0  0  0  0
   -5.8420    1.4020   -0.0520 C   0  0  0  0  0  0  0  0  0  0  0  0
   -7.3380    1.5440   -0.0510 C   0  0  0  0  0  0  0  0  0  0  0  0
   -8.2390    0.6000    0.3140 C   0  0  0  0  0  0  0  0  0  0  0  0
   -9.5450    0.9020    0.2520 C   0  0  0  0  0  0  0  0  0  0  0  0
   -9.9200    2.1370   -0.1730 C   0  0  0  0  0  0  0  0  0  0  0  0
   -8.2700    2.8840   -0.4930 S   0  0  0  0  0  0  0  0  0  0  0  0
   -5.1410    0.4100    0.2750 N   0  0  0  0  0  0  0  0  0  0  0  0
   -4.5360   -2.1100   -0.5120 O   0  0  0  0  0  0  0  0  0  0  0  0
   -4.5000   -3.5350   -0.6870 C   0  0  0  0  0  0  0  0  0  0  0  0
   -3.1370   -3.8040   -1.0440 O   0  0  0  0  0  0  0  0  0  0  0  0
    3.6470   -0.1750    0.7060 N   0  0  0  0  0  0  0  0  0  0  0  0
    4.4390   -0.9100    1.6580 C   0  0  0  0  0  0  0  0  0  0  0  0
    5.4810   -1.7700    1.0220 C   0  0  0  0  0  0  0  0  0  0  0  0
    6.1680   -1.1720   -0.0770 N   0  0  0  0  0  0  0  0  0  0  0  0
    7.6020   -1.0920    0.1210 C   0  0  0  0  0  0  0  0  0  0  0  0
    8.1240    0.2630   -0.2510 C   0  0  0  0  0  0  0  0  0  0  0  0
    7.7150    0.6860   -1.5030 O   0  0  0  0  0  0  0  0  0  0  0  0
    6.3610    0.5650   -1.7190 C   0  0  0  0  0  0  0  0  0  0  0  0
    5.7020    0.1280   -0.4510 C   0  0  1  0  0  0  0  0  0  0  0  0
    4.1810    0.0290   -0.6230 C   0  0  0  0  0  0  0  0  0  0  0  0
  1  2  2  0
  2  3  1  0
  2 25  1  0
  3  4  1  0
  4  5  2  3
  5  6  1  0
  6  7  2  0
  6 11  1  0
  7  8  1  0
  8  9  2  0
  9 10  1  0
  9 24  1  0
 10 11  2  0
 10 22  1  0
 11 12  1  0
 12 13  1  0
 12 21  1  0
 13 14  1  0
 14 15  1  0
 15 16  1  0
 15 21  2  0
 16 17  2  0
 16 20  1  0
 17 18  1  0
 18 19  2  0
 19 20  1  0
 22 23  1  0
 23 24  1  0
 25 26  1  0
 25 34  1  0
 26 27  1  0
 27 28  1  0
 28 29  1  0
 28 33  1  0
 29 30  1  0
 30 31  1  0
 31 32  1  0
 33 32  1  6
 33 34  1  0
M  CHG  1   4   1
M  END
