
     RDKit          3D

 35 36  0  0  0  0  0  0  0  0999 V2000
    0.5280   -3.3530   -2.1210 C   0  0  0  0  0  0  0  0  0  0  0  0
    0.3880   -1.8240   -1.8890 C   0  0  0  0  0  0  0  0  0  0  0  0
    0.0120   -1.6930   -0.4480 C   0  0  0  0  0  0  0  0  0  0  0  0
   -0.2050   -0.4020    0.2500 N   0  0  0  0  0  0  0  0  0  0  0  0
   -1.6090   -0.2400    0.3480 C   0  0  0  0  0  0  0  0  0  0  0  0
   -2.3610   -0.7810   -0.5670 O   0  0  0  0  0  0  0  0  0  0  0  0
   -2.3600    0.4300    1.4030 N   0  0  0  0  0  0  0  0  0  0  0  0
   -3.7710    0.2490    1.4020 C   0  0  1  0  0  0  0  0  0  0  0  0
   -4.6580    1.3010    1.9900 C   0  0  0  0  0  0  0  0  0  0  0  0
   -6.3180    0.5740    2.1380 S   0  0  0  0  0  0  0  0  0  0  0  0
   -7.3060    0.0170    0.8970 C   0  0  0  0  0  0  0  0  0  0  0  0
   -8.2220    0.9450    0.1610 C   0  0  1  0  0  0  0  0  0  0  0  0
   -7.6550    2.1610   -0.4410 C   0  0  0  0  0  0  0  0  0  0  0  0
   -8.7780    0.1190   -1.0370 C   0  0  0  0  0  0  0  0  0  0  0  0
   -4.0930    0.4220   -0.1730 C   0  0  0  0  0  0  0  0  0  0  0  0
   -3.6540    1.3980   -0.7730 O   0  0  0  0  0  0  0  0  0  0  0  0
   -4.8320   -0.5510   -0.7730 O   0  0  0  0  0  0  0  0  0  0  0  0
    0.8760    0.4380    0.6750 C   0  0  0  0  0  0  0  0  0  0  0  0
    0.6720    1.5370    1.1010 O   0  0  0  0  0  0  0  0  0  0  0  0
    2.2390   -0.2290    0.4610 C   0  0  0  0  0  0  0  0  0  0  0  0
    2.2370   -1.5410    0.4820 C   0  0  0  0  0  0  0  0  0  0  0  0
    3.2870   -2.3370    0.1300 C   0  0  0  0  0  0  0  0  0  0  0  0
    4.4240   -1.7000   -0.2440 C   0  0  0  0  0  0  0  0  0  0  0  0
    4.4810   -0.2400   -0.2590 C   0  0  0  0  0  0  0  0  0  0  0  0
    5.7940    0.2750   -0.1930 C   0  0  0  0  0  0  0  0  0  0  0  0
    7.0420    0.7440   -0.1300 C   0  0  0  0  0  0  0  0  0  0  0  0
    8.2190    1.1670   -0.0590 C   0  0  0  0  0  0  0  0  0  0  0  0
    8.8950    1.3830    1.2200 C   0  0  0  0  0  0  0  0  0  0  0  0
   10.1430    1.7310    1.4210 C   0  0  0  0  0  0  0  0  0  0  0  0
   11.0620    1.9720    0.3680 C   0  0  0  0  0  0  0  0  0  0  0  0
   12.3020    2.3630    0.5380 F   0  0  0  0  0  0  0  0  0  0  0  0
   10.4730    1.7860   -0.8720 C   0  0  0  0  0  0  0  0  0  0  0  0
    9.2370    1.4430   -1.1460 C   0  0  0  0  0  0  0  0  0  0  0  0
    8.6330    1.2990   -2.3500 F   0  0  0  0  0  0  0  0  0  0  0  0
    3.3500    0.4790    0.1050 C   0  0  0  0  0  0  0  0  0  0  0  0
  1  2  1  0
  2  3  1  0
  3  4  1  0
  4  5  1  0
  4 18  1  0
  5  6  2  0
  5  7  1  0
  7  8  1  0
  8  9  1  1
  8 15  1  0
  9 10  1  0
 10 11  1  0
 11 12  1  0
 12 13  1  6
 12 14  1  0
 15 16  2  0
 15 17  1  0
 18 19  2  0
 18 20  1  0
 20 21  2  0
 20 35  1  0
 21 22  1  0
 22 23  2  0
 23 24  1  0
 24 25  1  0
 24 35  2  0
 25 26  3  0
 26 27  1  0
 27 28  2  0
 27 33  1  0
 28 29  1  0
 29 30  2  0
 30 31  1  0
 30 32  1  0
 32 33  2  0
 33 34  1  0
M  END
