
     RDKit          3D

 34 38  0  0  0  0  0  0  0  0999 V2000
   -1.7930   -3.6420   -1.6900 C   0  0  0  0  0  0  0  0  0  0  0  0
   -2.8780   -2.8980   -0.9290 C   0  0  0  0  0  0  0  0  0  0  0  0
   -4.2570   -3.5600   -0.1450 S   0  0  0  0  0  0  0  0  0  0  0  0
   -4.9240   -1.9830    0.4470 C   0  0  0  0  0  0  0  0  0  0  0  0
   -6.1950   -1.9060    1.2050 C   0  0  0  0  0  0  0  0  0  0  0  0
   -4.0040   -1.0730   -0.0240 C   0  0  0  0  0  0  0  0  0  0  0  0
   -4.1930    0.3690    0.3080 C   0  0  0  0  0  0  0  0  0  0  0  0
   -4.7940    0.8090    1.3640 C   0  0  0  0  0  0  0  0  0  0  0  0
   -4.9270    2.1890    1.5900 O   0  0  0  0  0  0  0  0  0  0  0  0
   -4.6230    3.1760    0.6640 C   0  0  0  0  0  0  0  0  0  0  0  0
   -3.9740    2.6320   -0.4720 N   0  0  0  0  0  0  0  0  0  0  0  0
   -3.7620    1.3780   -0.6700 C   0  0  0  0  0  0  0  0  0  0  0  0
   -2.9590   -1.5050   -0.7200 C   0  0  0  0  0  0  0  0  0  0  0  0
   -1.8430   -0.7140   -1.2710 C   0  0  0  0  0  0  0  0  0  0  0  0
   -1.0230    0.0050   -0.5240 C   0  0  0  0  0  0  0  0  0  0  0  0
   -1.1460    0.0850    0.9760 C   0  0  0  0  0  0  0  0  0  0  0  0
    0.2450    0.0060    1.5260 C   0  0  0  0  0  0  0  0  0  0  0  0
    0.4290    0.1130    2.7230 O   0  0  0  0  0  0  0  0  0  0  0  0
    1.4250   -0.2020    0.6480 C   0  0  0  0  0  0  0  0  0  0  0  0
    1.3350    0.6410   -0.5240 N   0  0  0  0  0  0  0  0  0  0  0  0
    2.4590    1.3310   -1.0280 C   0  0  0  0  0  0  0  0  0  0  0  0
    2.3430    2.0650   -2.0620 O   0  0  0  0  0  0  0  0  0  0  0  0
    3.7780    1.2710   -0.4420 C   0  0  0  0  0  0  0  0  0  0  0  0
    4.1280    2.1820    0.5330 C   0  0  0  0  0  0  0  0  0  0  0  0
    5.3650    2.1380    1.0950 N   0  0  0  0  0  0  0  0  0  0  0  0
    6.2830    1.2300    0.7400 C   0  0  0  0  0  0  0  0  0  0  0  0
    7.5490    1.2130    1.3410 C   0  0  0  0  0  0  0  0  0  0  0  0
    8.4590    0.3060    0.9830 N   0  0  0  0  0  0  0  0  0  0  0  0
    8.1400   -0.5950    0.0340 C   0  0  0  0  0  0  0  0  0  0  0  0
    6.8940   -0.5740   -0.5540 C   0  0  0  0  0  0  0  0  0  0  0  0
    5.9600    0.3330   -0.2080 N   0  0  0  0  0  0  0  0  0  0  0  0
    4.7420    0.3470   -0.7880 C   0  0  0  0  0  0  0  0  0  0  0  0
    4.4330   -0.4990   -1.6850 O   0  0  0  0  0  0  0  0  0  0  0  0
    0.0540    0.7630   -1.1780 C   0  0  0  0  0  0  0  0  0  0  0  0
  1  2  1  0
  2  3  1  0
  2 13  2  0
  3  4  1  0
  4  5  1  0
  4  6  2  0
  6  7  1  0
  6 13  1  0
  7  8  2  0
  7 12  1  0
  8  9  1  0
  9 10  1  0
 10 11  1  0
 11 12  2  0
 13 14  1  0
 14 15  2  3
 15 16  1  0
 15 34  1  0
 16 17  1  0
 17 18  2  0
 17 19  1  0
 19 20  1  0
 20 21  1  0
 20 34  1  0
 21 22  2  0
 21 23  1  0
 23 24  2  0
 23 32  1  0
 24 25  1  0
 25 26  2  0
 26 27  1  0
 26 31  1  0
 27 28  2  0
 28 29  1  0
 29 30  2  0
 30 31  1  0
 31 32  1  0
 32 33  2  0
M  END
