
     RDKit          3D

 35 39  0  0  0  0  0  0  0  0999 V2000
   -4.6780   -2.6020   -1.3880 N   0  0  0  0  0  0  0  0  0  0  0  0
   -5.7450   -2.7600   -0.4530 C   0  0  0  0  0  0  0  0  0  0  0  0
   -5.2960   -2.4320    1.0010 C   0  0  2  0  0  0  0  0  0  0  0  0
   -6.4820   -2.6400    1.8350 C   0  0  0  0  0  0  0  0  0  0  0  0
   -7.2460   -1.4290    2.1160 C   0  0  0  0  0  0  0  0  0  0  0  0
   -6.8860   -0.1810    1.9160 C   0  0  0  0  0  0  0  0  0  0  0  0
   -5.5480    0.0110    1.3280 C   0  0  0  0  0  0  0  0  0  0  0  0
   -4.7630   -1.0540    1.0060 C   0  0  0  0  0  0  0  0  0  0  0  0
   -3.4590   -0.8540    0.5690 C   0  0  0  0  0  0  0  0  0  0  0  0
   -2.8930    0.3920    0.4310 C   0  0  0  0  0  0  0  0  0  0  0  0
   -1.5150    0.5110   -0.0320 C   0  0  0  0  0  0  0  0  0  0  0  0
   -0.9260   -0.6090   -0.3070 O   0  0  0  0  0  0  0  0  0  0  0  0
   -0.7430    1.5940   -0.2240 O   0  0  0  0  0  0  0  0  0  0  0  0
    0.5670    1.6630   -0.6670 C   0  0  0  0  0  0  0  0  0  0  0  0
    1.5550    0.9600    0.1690 C   0  0  0  0  0  0  0  0  0  0  0  0
    1.1780    0.3560    1.1970 O   0  0  0  0  0  0  0  0  0  0  0  0
    2.9080    0.9810   -0.2080 N   0  0  0  0  0  0  0  0  0  0  0  0
    3.8600    0.2810    0.6320 C   0  0  0  0  0  0  0  0  0  0  0  0
    5.2500    0.8550    0.5150 C   0  0  0  0  0  0  0  0  0  0  0  0
    5.6210    1.2270   -0.8110 N   0  0  0  0  0  0  0  0  0  0  0  0
    5.8000    0.1180   -1.6950 C   0  0  0  0  0  0  0  0  0  0  0  0
    6.8680   -0.7810   -1.1980 C   0  0  0  0  0  0  0  0  0  0  0  0
    8.1650   -0.5480   -1.6030 C   0  0  0  0  0  0  0  0  0  0  0  0
    9.1830   -1.3650   -1.1610 C   0  0  0  0  0  0  0  0  0  0  0  0
    8.8630   -2.4190   -0.3020 C   0  0  0  0  0  0  0  0  0  0  0  0
    7.5560   -2.6250    0.0850 C   0  0  0  0  0  0  0  0  0  0  0  0
    6.5790   -1.8160   -0.3590 N   0  0  0  0  0  0  0  0  0  0  0  0
    4.7170    2.2080   -1.3190 C   0  0  0  0  0  0  0  0  0  0  0  0
    3.2930    1.6940   -1.4060 C   0  0  0  0  0  0  0  0  0  0  0  0
   -3.6970    1.4630    0.7540 C   0  0  0  0  0  0  0  0  0  0  0  0
   -3.2020    2.7320    0.6350 C   0  0  0  0  0  0  0  0  0  0  0  0
   -4.0140    3.8040    0.9570 C   0  0  0  0  0  0  0  0  0  0  0  0
   -5.2920    3.6470    1.3900 C   0  0  0  0  0  0  0  0  0  0  0  0
   -5.8190    2.3690    1.5190 C   0  0  0  0  0  0  0  0  0  0  0  0
   -5.0170    1.2950    1.2010 C   0  0  0  0  0  0  0  0  0  0  0  0
  1  2  1  0
  3  2  1  6
  3  4  1  0
  3  8  1  0
  4  5  1  0
  5  6  2  0
  6  7  1  0
  7  8  2  0
  7 35  1  0
  8  9  1  0
  9 10  2  0
 10 11  1  0
 10 30  1  0
 11 12  2  0
 11 13  1  0
 13 14  1  0
 14 15  1  0
 15 16  2  0
 15 17  1  0
 17 18  1  0
 17 29  1  0
 18 19  1  0
 19 20  1  0
 20 21  1  0
 20 28  1  0
 21 22  1  0
 22 23  2  0
 22 27  1  0
 23 24  1  0
 24 25  2  0
 25 26  1  0
 26 27  2  0
 28 29  1  0
 30 31  2  0
 30 35  1  0
 31 32  1  0
 32 33  2  0
 33 34  1  0
 34 35  2  0
M  CHG  1   1   1
M  END
