
     RDKit          3D

 35 39  0  0  0  0  0  0  0  0999 V2000
    2.9120    1.3820    0.6300 O   0  0  0  0  0  0  0  0  0  0  0  0
    2.4760    0.5920   -0.2420 C   0  0  0  0  0  0  0  0  0  0  0  0
    3.4040   -0.1520   -0.9520 O   0  0  0  0  0  0  0  0  0  0  0  0
    4.7730    0.0010   -0.6790 C   0  0  0  0  0  0  0  0  0  0  0  0
    5.1080   -0.3350    0.7280 C   0  0  0  0  0  0  0  0  0  0  0  0
    4.2540   -0.7360    1.6650 N   0  0  0  0  0  0  0  0  0  0  0  0
    4.9400   -0.9400    2.8090 C   0  0  0  0  0  0  0  0  0  0  0  0
    6.2540   -0.6420    2.5150 C   0  0  0  0  0  0  0  0  0  0  0  0
    6.3600   -0.2630    1.2140 N   0  0  0  0  0  0  0  0  0  0  0  0
    7.5640    0.1230    0.5400 C   0  0  0  0  0  0  0  0  0  0  0  0
    8.2730    1.2450    0.9400 C   0  0  0  0  0  0  0  0  0  0  0  0
    9.4310    1.6100    0.2870 C   0  0  0  0  0  0  0  0  0  0  0  0
    9.9340    0.8900   -0.7780 C   0  0  0  0  0  0  0  0  0  0  0  0
    9.2330   -0.2260   -1.1810 C   0  0  0  0  0  0  0  0  0  0  0  0
    8.0670   -0.5940   -0.5230 C   0  0  0  0  0  0  0  0  0  0  0  0
    1.0540    0.4380   -0.5200 C   0  0  0  0  0  0  0  0  0  0  0  0
    0.6070   -0.4390   -1.4840 C   0  0  0  0  0  0  0  0  0  0  0  0
   -0.7600   -0.5970   -1.7620 C   0  0  0  0  0  0  0  0  0  0  0  0
   -1.6810    0.1360   -1.0620 C   0  0  0  0  0  0  0  0  0  0  0  0
   -3.0580   -0.0010   -1.3190 N   0  0  0  0  0  0  0  0  0  0  0  0
   -3.8220   -0.1890   -0.1250 C   0  0  2  0  0  0  0  0  0  0  0  0
   -4.4820   -1.4670    0.0360 C   0  0  0  0  0  0  0  0  0  0  0  0
   -4.4200   -2.1010    1.2590 C   0  0  0  0  0  0  0  0  0  0  0  0
   -5.0300   -3.3210    1.4750 C   0  0  0  0  0  0  0  0  0  0  0  0
   -5.7370   -3.9620    0.4540 C   0  0  0  0  0  0  0  0  0  0  0  0
   -5.7990   -3.3250   -0.7780 C   0  0  0  0  0  0  0  0  0  0  0  0
   -5.1830   -2.1060   -0.9710 C   0  0  0  0  0  0  0  0  0  0  0  0
   -4.8120    0.9790   -0.0240 C   0  0  2  0  0  0  0  0  0  0  0  0
   -5.6830    0.8570    1.1990 C   0  0  0  0  0  0  0  0  0  0  0  0
   -6.8940    1.6540    0.9440 N   0  0  0  0  0  0  0  0  0  0  0  0
   -6.5370    2.7950    0.1020 C   0  0  0  0  0  0  0  0  0  0  0  0
   -6.0950    2.3350   -1.2770 C   0  0  0  0  0  0  0  0  0  0  0  0
   -5.6610    1.0090   -1.1280 O   0  0  0  0  0  0  0  0  0  0  0  0
   -1.2440    1.0080   -0.1040 C   0  0  0  0  0  0  0  0  0  0  0  0
    0.1020    1.1650    0.1710 C   0  0  0  0  0  0  0  0  0  0  0  0
  1  2  2  0
  2  3  1  0
  2 16  1  0
  3  4  1  0
  4  5  1  0
  5  6  2  0
  5  9  1  0
  6  7  1  0
  7  8  2  0
  8  9  1  0
  9 10  1  0
 10 11  2  0
 10 15  1  0
 11 12  1  0
 12 13  2  0
 13 14  1  0
 14 15  2  0
 16 17  2  0
 16 35  1  0
 17 18  1  0
 18 19  2  0
 19 20  1  0
 19 34  1  0
 21 20  1  6
 21 22  1  0
 21 28  1  0
 22 23  2  0
 22 27  1  0
 23 24  1  0
 24 25  2  0
 25 26  1  0
 26 27  2  0
 28 29  1  1
 28 33  1  0
 29 30  1  0
 30 31  1  0
 31 32  1  0
 32 33  1  0
 34 35  2  0
M  CHG  1  20   1
M  END
