
     RDKit          3D

 35 39  0  0  0  0  0  0  0  0999 V2000
    4.6810   -4.0450    1.4590 C   0  0  0  0  0  0  0  0  0  0  0  0
    5.7300   -3.2520    0.7700 C   0  0  0  0  0  0  0  0  0  0  0  0
    6.8690   -3.7600    0.6530 O   0  0  0  0  0  0  0  0  0  0  0  0
    5.4510   -1.9350    0.2480 C   0  0  0  0  0  0  0  0  0  0  0  0
    4.1690   -1.3970    0.3950 C   0  0  0  0  0  0  0  0  0  0  0  0
    3.8730   -0.1650   -0.0820 C   0  0  0  0  0  0  0  0  0  0  0  0
    2.5730    0.4570    0.0310 C   0  0  0  0  0  0  0  0  0  0  0  0
    1.5730   -0.1290    0.6100 C   0  0  0  0  0  0  0  0  0  0  0  0
    0.2630    0.4570    0.7440 C   0  0  0  0  0  0  0  0  0  0  0  0
   -0.6420   -0.2130    1.3320 O   0  0  0  0  0  0  0  0  0  0  0  0
   -0.0560    1.7310    0.2540 N   0  0  0  0  0  0  0  0  0  0  0  0
   -1.3670    2.3050    0.3910 C   0  0  0  0  0  0  0  0  0  0  0  0
   -1.8370    2.4590    1.8190 C   0  0  0  0  0  0  0  0  0  0  0  0
   -3.1710    3.1160    1.8370 C   0  0  0  0  0  0  0  0  0  0  0  0
   -4.2460    2.3270    1.1890 C   0  0  0  0  0  0  0  0  0  0  0  0
   -4.1210    1.0630    0.8930 C   0  0  0  0  0  0  0  0  0  0  0  0
   -5.0630    0.1660    0.2640 C   0  0  0  0  0  0  0  0  0  0  0  0
   -4.7520   -1.1840   -0.0230 C   0  0  0  0  0  0  0  0  0  0  0  0
   -5.8020   -1.7590   -0.5900 N   0  0  0  0  0  0  0  0  0  0  0  0
   -5.9140   -3.1460   -1.0480 C   0  0  0  0  0  0  0  0  0  0  0  0
   -6.7850   -0.8650   -0.6920 C   0  0  0  0  0  0  0  0  0  0  0  0
   -8.0570   -0.9640   -1.1970 C   0  0  0  0  0  0  0  0  0  0  0  0
   -8.9220    0.0960   -1.2030 C   0  0  0  0  0  0  0  0  0  0  0  0
   -8.4830    1.2840   -0.6820 C   0  0  0  0  0  0  0  0  0  0  0  0
   -7.2150    1.4040   -0.1710 C   0  0  0  0  0  0  0  0  0  0  0  0
   -6.3510    0.3530   -0.1640 C   0  0  0  0  0  0  0  0  0  0  0  0
    4.8810    0.5140   -0.7060 N   0  0  0  0  0  0  0  0  0  0  0  0
    6.1170    0.0550   -0.8750 C   0  0  0  0  0  0  0  0  0  0  0  0
    7.2760    0.5570   -1.4650 C   0  0  0  0  0  0  0  0  0  0  0  0
    8.2230   -0.4130   -1.3090 C   0  0  0  0  0  0  0  0  0  0  0  0
    7.7000   -1.4310   -0.6780 O   0  0  0  0  0  0  0  0  0  0  0  0
    6.4200   -1.2000   -0.3900 C   0  0  0  0  0  0  0  0  0  0  0  0
    9.3350    0.0730   -1.8760 C   0  0  0  0  0  0  0  0  0  0  0  0
    9.0990    1.3670   -2.4010 N   0  0  0  0  0  0  0  0  0  0  0  0
    7.7360    1.6180   -2.0960 C   0  0  0  0  0  0  0  0  0  0  0  0
  1  2  1  0
  2  3  2  0
  2  4  1  0
  4  5  2  0
  4 32  1  0
  5  6  1  0
  6  7  1  0
  6 27  2  0
  7  8  2  3
  8  9  1  0
  9 10  2  0
  9 11  1  0
 11 12  1  0
 12 13  1  0
 13 14  1  0
 14 15  1  0
 15 16  2  3
 16 17  1  0
 17 18  2  0
 17 26  1  0
 18 19  1  0
 19 20  1  0
 19 21  1  0
 21 22  2  0
 21 26  1  0
 22 23  1  0
 23 24  2  0
 24 25  1  0
 25 26  2  0
 27 28  1  0
 28 29  1  0
 28 32  2  0
 29 30  1  0
 29 35  2  0
 30 31  1  0
 30 33  2  0
 31 32  1  0
 33 34  1  0
 34 35  1  0
M  CHG  1  34   1
M  END
