
     RDKit          3D

 37 40  0  0  0  0  0  0  0  0999 V2000
   -7.0100   -4.3320    0.4250 C   0  0  0  0  0  0  0  0  0  0  0  0
   -6.3310   -2.9980    0.3290 C   0  0  0  0  0  0  0  0  0  0  0  0
   -5.2230   -2.7400    1.0750 C   0  0  0  0  0  0  0  0  0  0  0  0
   -4.6000   -1.4900    0.9710 C   0  0  0  0  0  0  0  0  0  0  0  0
   -5.0290   -0.4820    0.1530 C   0  0  0  0  0  0  0  0  0  0  0  0
   -4.3770    0.8090   -0.0400 C   0  0  0  0  0  0  0  0  0  0  0  0
   -5.0520    1.8260   -0.6450 N   0  0  0  0  0  0  0  0  0  0  0  0
   -4.5500    3.0270   -0.9260 C   0  0  0  0  0  0  0  0  0  0  0  0
   -5.2510    3.9300   -1.4980 O   0  0  0  0  0  0  0  0  0  0  0  0
   -3.2660    3.3090   -0.5990 C   0  0  0  0  0  0  0  0  0  0  0  0
   -2.7680    4.5720   -0.9060 C   0  0  0  0  0  0  0  0  0  0  0  0
   -1.4720    4.8730   -0.5860 C   0  0  0  0  0  0  0  0  0  0  0  0
   -0.7070    3.9020    0.0340 C   0  0  0  0  0  0  0  0  0  0  0  0
   -1.2040    2.6500    0.3370 C   0  0  0  0  0  0  0  0  0  0  0  0
   -2.4950    2.3620    0.0140 C   0  0  0  0  0  0  0  0  0  0  0  0
   -3.0770    1.1100    0.2850 C   0  0  0  0  0  0  0  0  0  0  0  0
   -2.2170    0.1700    0.8990 N   0  0  0  0  0  0  0  0  0  0  0  0
   -1.4190   -0.7450    0.1760 C   0  0  0  0  0  0  0  0  0  0  0  0
   -1.4390   -0.7500   -1.0730 O   0  0  0  0  0  0  0  0  0  0  0  0
   -0.5940   -1.6630    0.8640 N   0  0  0  0  0  0  0  0  0  0  0  0
    0.2600   -2.6380    0.2070 C   0  0  0  0  0  0  0  0  0  0  0  0
    1.4630   -1.9610   -0.2880 C   0  0  0  0  0  0  0  0  0  0  0  0
    1.6520   -0.6130   -0.0780 C   0  0  0  0  0  0  0  0  0  0  0  0
    2.7870    0.0300   -0.5320 C   0  0  0  0  0  0  0  0  0  0  0  0
    3.7640   -0.6720   -1.2110 C   0  0  0  0  0  0  0  0  0  0  0  0
    5.1950    0.1560   -1.7700 S   0  0  1  0  0  0  0  0  0  0  0  0
    5.7350   -0.4350   -3.0290 O   0  0  0  0  0  0  0  0  0  0  0  0
    4.8630    1.6200   -2.0250 O   0  0  0  0  0  0  0  0  0  0  0  0
    6.4350    0.1400   -0.5630 N   0  0  2  0  0  0  0  0  0  0  0  0
    6.2240   -1.0230    0.2870 C   0  0  0  0  0  0  0  0  0  0  0  0
    6.3370    1.3510    0.2340 C   0  0  0  0  0  0  0  0  0  0  0  0
    7.5190    2.2720    0.0080 C   0  0  0  0  0  0  0  0  0  0  0  0
    8.7270    1.6770    0.3380 O   0  0  0  0  0  0  0  0  0  0  0  0
    3.5820   -2.0060   -1.4220 C   0  0  0  0  0  0  0  0  0  0  0  0
    2.4590   -2.6640   -0.9770 C   0  0  0  0  0  0  0  0  0  0  0  0
   -6.1700   -0.8020   -0.5890 C   0  0  0  0  0  0  0  0  0  0  0  0
   -6.8080   -2.0220   -0.5100 C   0  0  0  0  0  0  0  0  0  0  0  0
  1  2  1  0
  2  3  2  0
  2 37  1  0
  3  4  1  0
  4  5  2  0
  5  6  1  0
  5 36  1  0
  6  7  1  0
  6 16  2  0
  7  8  1  0
  8  9  2  0
  8 10  1  0
 10 11  2  0
 10 15  1  0
 11 12  1  0
 12 13  2  0
 13 14  1  0
 14 15  2  0
 15 16  1  0
 16 17  1  0
 17 18  1  0
 18 19  2  0
 18 20  1  0
 20 21  1  0
 21 22  1  0
 22 23  2  0
 22 35  1  0
 23 24  1  0
 24 25  2  0
 26 25  1  1
 25 34  1  0
 26 27  2  0
 26 28  2  0
 26 29  1  0
 29 30  1  1
 29 31  1  0
 31 32  1  0
 32 33  1  0
 34 35  2  0
 36 37  2  0
M  CHG  1  29   1
M  END
