
     RDKit          3D

 37 40  0  0  0  0  0  0  0  0999 V2000
    9.1930    1.1040   -1.9340 C   0  0  0  0  0  0  0  0  0  0  0  0
    8.8590   -0.0960   -1.5060 C   0  0  0  0  0  0  0  0  0  0  0  0
    8.7010   -1.1170   -2.4570 O   0  0  0  0  0  0  0  0  0  0  0  0
    8.3550   -2.4080   -2.1080 C   0  0  0  0  0  0  0  0  0  0  0  0
    8.1650   -2.6980   -0.8290 C   0  0  0  0  0  0  0  0  0  0  0  0
    8.3130   -1.6890    0.1850 C   0  0  0  0  0  0  0  0  0  0  0  0
    8.6490   -0.4190   -0.1080 C   0  0  0  0  0  0  0  0  0  0  0  0
    8.7670    0.4530    0.8870 O   0  0  0  0  0  0  0  0  0  0  0  0
    8.3620    1.6630    1.3060 C   0  0  0  0  0  0  0  0  0  0  0  0
    6.9100    1.9150    1.4900 C   0  0  0  0  0  0  0  0  0  0  0  0
    6.5880    3.0610    1.9040 O   0  0  0  0  0  0  0  0  0  0  0  0
    5.9060    0.9730    1.2330 N   0  0  0  0  0  0  0  0  0  0  0  0
    4.5120    1.1350    1.3890 C   0  0  0  0  0  0  0  0  0  0  0  0
    3.6430    0.2720    0.7260 C   0  0  0  0  0  0  0  0  0  0  0  0
    2.2910    0.4290    0.9020 C   0  0  0  0  0  0  0  0  0  0  0  0
    1.7230    1.3870    1.6940 C   0  0  0  0  0  0  0  0  0  0  0  0
    0.3380    1.5920    1.8870 N   0  0  0  0  0  0  0  0  0  0  0  0
   -0.6660    1.0290    1.0860 C   0  0  0  0  0  0  0  0  0  0  0  0
   -0.4100    0.3020    0.1260 O   0  0  0  0  0  0  0  0  0  0  0  0
   -2.0730    1.3340    1.4260 C   0  0  0  0  0  0  0  0  0  0  0  0
   -2.9420    0.6500    0.4610 N   0  0  0  0  0  0  0  0  0  0  0  0
   -4.3400    0.8090    0.6220 C   0  0  0  0  0  0  0  0  0  0  0  0
   -4.7390    1.5370    1.5860 O   0  0  0  0  0  0  0  0  0  0  0  0
   -5.2930    0.1570   -0.2980 C   0  0  1  0  0  0  0  0  0  0  0  0
   -4.7960   -0.9430   -1.0440 N   0  0  0  0  0  0  0  0  0  0  0  0
   -4.1660   -2.0140   -0.3670 C   0  0  2  0  0  0  0  0  0  0  0  0
   -3.0650   -2.6600   -1.1960 C   0  0  0  0  0  0  0  0  0  0  0  0
   -3.7240   -3.2990   -2.3960 C   0  0  0  0  0  0  0  0  0  0  0  0
   -5.3090   -3.8830   -1.6730 S   0  0  0  0  0  0  0  0  0  0  0  0
   -5.0880   -3.1690   -0.0050 C   0  0  0  0  0  0  0  0  0  0  0  0
   -6.5610   -0.2250    0.4300 C   0  0  0  0  0  0  0  0  0  0  0  0
   -7.4800    0.9990    0.5440 C   0  0  0  0  0  0  0  0  0  0  0  0
   -8.0740    1.2050   -0.8490 C   0  0  0  0  0  0  0  0  0  0  0  0
   -6.9990    1.0360   -1.9090 C   0  0  0  0  0  0  0  0  0  0  0  0
   -5.6260    1.2620   -1.3350 C   0  0  0  0  0  0  0  0  0  0  0  0
    2.5980    2.2590    2.3670 C   0  0  0  0  0  0  0  0  0  0  0  0
    3.9670    2.1010    2.1890 C   0  0  0  0  0  0  0  0  0  0  0  0
  1  2  2  0
  2  3  1  0
  2  7  1  0
  3  4  1  0
  4  5  2  0
  5  6  1  0
  6  7  2  0
  7  8  1  0
  8  9  1  0
  9 10  1  0
 10 11  2  0
 10 12  1  0
 12 13  1  0
 13 14  2  0
 13 37  1  0
 14 15  1  0
 15 16  2  0
 16 17  1  0
 16 36  1  0
 17 18  1  0
 18 19  2  0
 18 20  1  0
 20 21  1  0
 21 22  1  0
 22 23  2  0
 22 24  1  0
 24 25  1  6
 24 31  1  0
 24 35  1  0
 26 25  1  6
 26 27  1  0
 26 30  1  0
 27 28  1  0
 28 29  1  0
 29 30  1  0
 31 32  1  0
 32 33  1  0
 33 34  1  0
 34 35  1  0
 36 37  2  0
M  CHG  1  25   1
M  END
