
     RDKit          3D

 39 41  0  0  0  0  0  0  0  0999 V2000
   -0.8190   -2.3770    0.3730 C   0  0  0  0  0  0  0  0  0  0  0  0
   -1.9450   -1.6820    1.0500 C   0  0  0  0  0  0  0  0  0  0  0  0
   -1.4440   -0.2770    1.4890 C   0  0  0  0  0  0  0  0  0  0  0  0
   -1.0370    0.4700    0.3120 N   0  0  0  0  0  0  0  0  0  0  0  0
   -2.1710    1.1050   -0.3770 C   0  0  0  0  0  0  0  0  0  0  0  0
   -3.3110    0.9950    0.1830 O   0  0  0  0  0  0  0  0  0  0  0  0
   -2.0970    1.8080   -1.5610 N   0  0  0  0  0  0  0  0  0  0  0  0
   -3.1090    2.4900   -2.2820 C   0  0  1  0  0  0  0  0  0  0  0  0
   -4.4920    1.9080   -2.3010 C   0  0  0  0  0  0  0  0  0  0  0  0
   -4.6560    0.3310   -3.0660 S   0  0  0  0  0  0  0  0  0  0  0  0
   -4.1540   -1.1220   -2.2470 C   0  0  0  0  0  0  0  0  0  0  0  0
   -5.0050   -1.7330   -1.2290 C   0  0  0  0  0  0  0  0  0  0  0  0
   -5.1080   -3.1400   -1.2390 C   0  0  0  0  0  0  0  0  0  0  0  0
   -5.8430   -3.7850   -0.2860 C   0  0  0  0  0  0  0  0  0  0  0  0
   -6.5060   -3.1190    0.7040 C   0  0  0  0  0  0  0  0  0  0  0  0
   -7.5430   -3.9650    2.0400 Br  0  0  0  0  0  0  0  0  0  0  0  0
   -6.4030   -1.7160    0.7120 C   0  0  0  0  0  0  0  0  0  0  0  0
   -5.6730   -1.0940   -0.2400 C   0  0  0  0  0  0  0  0  0  0  0  0
   -3.1780    3.9060   -1.7950 C   0  0  0  0  0  0  0  0  0  0  0  0
   -2.4360    4.1940   -0.7820 O   0  0  0  0  0  0  0  0  0  0  0  0
   -3.9440    4.9130   -2.3190 O   0  0  0  0  0  0  0  0  0  0  0  0
    0.2880    0.7680    0.0240 C   0  0  0  0  0  0  0  0  0  0  0  0
    0.6650    1.1010   -1.1570 O   0  0  0  0  0  0  0  0  0  0  0  0
    1.3800    0.7520    0.9930 C   0  0  0  0  0  0  0  0  0  0  0  0
    1.0910    0.8930    2.3320 C   0  0  0  0  0  0  0  0  0  0  0  0
    2.0640    0.8190    3.2860 C   0  0  0  0  0  0  0  0  0  0  0  0
    3.3430    0.6100    2.8870 C   0  0  0  0  0  0  0  0  0  0  0  0
    3.6950    0.4640    1.4970 C   0  0  0  0  0  0  0  0  0  0  0  0
    5.0900    0.3810    1.2510 C   0  0  0  0  0  0  0  0  0  0  0  0
    6.2830    0.3120    1.0200 C   0  0  0  0  0  0  0  0  0  0  0  0
    7.7190    0.2540    0.7410 C   0  0  0  0  0  0  0  0  0  0  0  0
    8.4880    1.4000    0.7560 C   0  0  0  0  0  0  0  0  0  0  0  0
    9.8550    1.3600    0.5000 C   0  0  0  0  0  0  0  0  0  0  0  0
   10.4520    0.1490    0.2230 C   0  0  0  0  0  0  0  0  0  0  0  0
   11.8130    0.1050   -0.0420 F   0  0  0  0  0  0  0  0  0  0  0  0
    9.7140   -0.9990    0.2000 C   0  0  0  0  0  0  0  0  0  0  0  0
    8.3370   -0.9430    0.4610 C   0  0  0  0  0  0  0  0  0  0  0  0
    7.6170   -2.0810    0.4240 F   0  0  0  0  0  0  0  0  0  0  0  0
    2.7140    0.5340    0.5900 C   0  0  0  0  0  0  0  0  0  0  0  0
  1  2  1  0
  2  3  1  0
  3  4  1  0
  4  5  1  0
  4 22  1  0
  5  6  2  0
  5  7  1  0
  7  8  1  0
  8  9  1  1
  8 19  1  0
  9 10  1  0
 10 11  1  0
 11 12  1  0
 12 13  2  0
 12 18  1  0
 13 14  1  0
 14 15  2  0
 15 16  1  0
 15 17  1  0
 17 18  2  0
 19 20  2  0
 19 21  1  0
 22 23  2  0
 22 24  1  0
 24 25  2  0
 24 39  1  0
 25 26  1  0
 26 27  2  0
 27 28  1  0
 28 29  1  0
 28 39  2  0
 29 30  3  0
 30 31  1  0
 31 32  2  0
 31 37  1  0
 32 33  1  0
 33 34  2  0
 34 35  1  0
 34 36  1  0
 36 37  2  0
 37 38  1  0
M  END
