
     RDKit          3D

 37 40  0  0  0  0  0  0  0  0999 V2000
    4.8580   -1.2360    0.1630 C   0  0  0  0  0  0  0  0  0  0  0  0
    5.8660   -0.2140   -0.2260 C   0  0  0  0  0  0  0  0  0  0  0  0
    5.4640    1.0550   -0.5030 C   0  0  0  0  0  0  0  0  0  0  0  0
    4.1310    1.5490   -0.6530 C   0  0  0  0  0  0  0  0  0  0  0  0
    4.0420    2.8620   -0.6110 O   0  0  0  0  0  0  0  0  0  0  0  0
    2.8450    0.9390   -0.8530 C   0  0  0  0  0  0  0  0  0  0  0  0
    2.6860   -0.2570   -1.2320 O   0  0  0  0  0  0  0  0  0  0  0  0
    1.6370    1.6320   -0.6380 N   0  0  0  0  0  0  0  0  0  0  0  0
    0.2920    1.2630   -0.8050 C   0  0  2  0  0  0  0  0  0  0  0  0
   -0.4170    0.6000    0.2740 C   0  0  0  0  0  0  0  0  0  0  0  0
    0.0260   -0.3460    0.9220 O   0  0  0  0  0  0  0  0  0  0  0  0
   -1.7520    1.0280    0.6820 N   0  0  0  0  0  0  0  0  0  0  0  0
   -2.4700    0.4240    1.6650 C   0  0  0  0  0  0  0  0  0  0  0  0
   -3.2050   -0.1980    2.6870 C   0  0  0  0  0  0  0  0  0  0  0  0
   -4.5970   -0.5720    2.3570 N   0  0  0  0  0  0  0  0  0  0  0  0
   -5.1360    0.1940    1.2640 C   0  0  0  0  0  0  0  0  0  0  0  0
   -6.5280   -0.1540    0.9140 C   0  0  0  0  0  0  0  0  0  0  0  0
   -7.5120    0.7380    1.0450 C   0  0  0  0  0  0  0  0  0  0  0  0
   -8.9270    0.5310    0.7340 C   0  0  0  0  0  0  0  0  0  0  0  0
   -9.2220   -0.8150    0.2430 C   0  0  0  0  0  0  0  0  0  0  0  0
   -8.2700   -1.7640    0.0810 C   0  0  0  0  0  0  0  0  0  0  0  0
   -8.5620   -3.0370   -0.3870 O   0  0  0  0  0  0  0  0  0  0  0  0
   -7.0310   -3.8520   -0.4470 S   0  0  0  0  0  0  0  0  0  0  0  0
   -6.0560   -2.4670    0.1320 C   0  0  0  0  0  0  0  0  0  0  0  0
   -6.9120   -1.4960    0.3970 C   0  0  0  0  0  0  0  0  0  0  0  0
    0.1110    0.2960   -2.0360 C   0  0  1  0  0  0  0  0  0  0  0  0
   -1.3910   -0.0210   -2.0760 C   0  0  0  0  0  0  0  0  0  0  0  0
    0.4290    1.0360   -3.3180 C   0  0  0  0  0  0  0  0  0  0  0  0
    6.5050    1.9640   -0.6400 N   0  0  0  0  0  0  0  0  0  0  0  0
    7.7890    1.6000   -0.5150 C   0  0  0  0  0  0  0  0  0  0  0  0
    8.6660    2.5110   -0.6600 O   0  0  0  0  0  0  0  0  0  0  0  0
    8.1740    0.3140   -0.2450 C   0  0  0  0  0  0  0  0  0  0  0  0
    9.5130   -0.0240   -0.1560 C   0  0  0  0  0  0  0  0  0  0  0  0
    9.8400   -1.3340    0.0890 C   0  0  0  0  0  0  0  0  0  0  0  0
    8.8670   -2.3170    0.2520 C   0  0  0  0  0  0  0  0  0  0  0  0
    7.5460   -1.9590    0.1610 C   0  0  0  0  0  0  0  0  0  0  0  0
    7.1950   -0.6550   -0.0870 C   0  0  0  0  0  0  0  0  0  0  0  0
  1  2  1  0
  2  3  2  0
  2 37  1  0
  3  4  1  0
  3 29  1  0
  4  5  2  0
  4  6  1  0
  6  7  2  0
  6  8  1  0
  9  8  1  1
  9 10  1  0
  9 26  1  0
 10 11  2  0
 10 12  1  0
 12 13  1  0
 13 14  1  0
 14 15  1  0
 15 16  1  0
 16 17  1  0
 17 18  2  0
 17 25  1  0
 18 19  1  0
 19 20  1  0
 20 21  2  0
 21 22  1  0
 21 25  1  0
 22 23  1  0
 23 24  1  0
 24 25  2  0
 26 27  1  6
 26 28  1  0
 29 30  1  0
 30 31  2  0
 30 32  1  0
 32 33  2  0
 32 37  1  0
 33 34  1  0
 34 35  2  0
 35 36  1  0
 36 37  2  0
M  CHG  1  15   1
M  END
