
     RDKit          3D

 37 40  0  0  0  0  0  0  0  0999 V2000
   -3.4720   -5.0020    0.3700 C   0  0  0  0  0  0  0  0  0  0  0  0
   -2.0140   -4.8100    0.0030 C   0  0  0  0  0  0  0  0  0  0  0  0
   -1.5460   -3.6040   -0.2020 C   0  0  0  0  0  0  0  0  0  0  0  0
   -0.1690   -3.3260   -0.5550 C   0  0  0  0  0  0  0  0  0  0  0  0
    0.6900   -4.3940   -0.6790 C   0  0  0  0  0  0  0  0  0  0  0  0
    2.0120   -4.2040   -1.0170 C   0  0  0  0  0  0  0  0  0  0  0  0
    2.4220   -2.8630   -1.2240 C   0  0  0  0  0  0  0  0  0  0  0  0
    3.6270   -2.7330   -1.5290 O   0  0  0  0  0  0  0  0  0  0  0  0
    1.5870   -1.8230   -1.1030 N   0  0  0  0  0  0  0  0  0  0  0  0
    1.9330   -0.5120   -1.2910 N   0  0  0  0  0  0  0  0  0  0  0  0
    3.1500    0.0870   -1.6360 C   0  0  0  0  0  0  0  0  0  0  0  0
    4.1430   -0.6070   -1.8240 O   0  0  0  0  0  0  0  0  0  0  0  0
    3.2950    1.5820   -1.7900 C   0  0  2  0  0  0  0  0  0  0  0  0
    4.6440    1.8620   -2.1450 N   0  0  0  0  0  0  0  0  0  0  0  0
    2.8660    2.2080   -0.4880 C   0  0  0  0  0  0  0  0  0  0  0  0
    3.6760    1.7660    0.6550 C   0  0  0  0  0  0  0  0  0  0  0  0
    4.6280    0.9520    0.5710 O   0  0  0  0  0  0  0  0  0  0  0  0
    3.3660    2.2920    1.9370 N   0  0  0  0  0  0  0  0  0  0  0  0
    4.1090    1.9130    3.1100 C   0  0  0  0  0  0  0  0  0  0  0  0
    2.2800    3.2440    2.1390 C   0  0  0  0  0  0  0  0  0  0  0  0
    0.2810   -2.0520   -0.7660 C   0  0  0  0  0  0  0  0  0  0  0  0
   -0.6220   -0.9290   -0.6360 C   0  0  0  0  0  0  0  0  0  0  0  0
   -1.3640   -0.4250   -1.6710 C   0  0  0  0  0  0  0  0  0  0  0  0
   -2.1970    0.6570   -1.4260 C   0  0  0  0  0  0  0  0  0  0  0  0
   -2.3350    1.2690   -0.1990 C   0  0  0  0  0  0  0  0  0  0  0  0
   -3.2250    2.4110    0.0310 C   0  0  0  0  0  0  0  0  0  0  0  0
   -3.3060    2.9480    1.2250 C   0  0  0  0  0  0  0  0  0  0  0  0
   -4.1440    4.0970    1.6420 C   0  0  0  0  0  0  0  0  0  0  0  0
   -5.1240    4.7970    0.3870 S   0  0  1  0  0  0  0  0  0  0  0  0
   -6.5770    4.7160    0.8100 O   0  0  0  0  0  0  0  0  0  0  0  0
   -4.7770    6.2520    0.1270 O   0  0  0  0  0  0  0  0  0  0  0  0
   -4.8370    3.9170   -1.0790 C   0  0  0  0  0  0  0  0  0  0  0  0
   -3.9960    2.9100   -1.0990 C   0  0  0  0  0  0  0  0  0  0  0  0
   -1.5780    0.7400    0.8180 C   0  0  0  0  0  0  0  0  0  0  0  0
   -0.7260   -0.3530    0.6020 C   0  0  0  0  0  0  0  0  0  0  0  0
    0.2340   -5.7780   -0.4510 C   0  0  0  0  0  0  0  0  0  0  0  0
   -1.1740   -6.0050   -0.1160 C   0  0  0  0  0  0  0  0  0  0  0  0
  1  2  1  0
  2  3  2  0
  2 37  1  0
  3  4  1  0
  4  5  1  0
  4 21  2  0
  5  6  2  0
  5 36  1  0
  6  7  1  0
  7  8  2  0
  7  9  1  0
  9 10  1  0
  9 21  1  0
 10 11  1  0
 11 12  2  0
 11 13  1  0
 13 14  1  1
 13 15  1  0
 15 16  1  0
 16 17  2  0
 16 18  1  0
 18 19  1  0
 18 20  1  0
 21 22  1  0
 22 23  2  0
 22 35  1  0
 23 24  1  0
 24 25  2  0
 25 26  1  0
 25 34  1  0
 26 27  2  0
 26 33  1  0
 27 28  1  0
 29 28  1  1
 29 30  2  0
 29 31  2  0
 29 32  1  0
 32 33  2  0
 34 35  2  0
 36 37  1  0
M  CHG  1  14   1
M  END
