
     RDKit          3D

 37 40  0  0  0  0  0  0  0  0999 V2000
   13.1780   -2.2310   -2.2410 O   0  0  0  0  0  0  0  0  0  0  0  0
   12.8890   -0.7210   -2.4980 S   0  0  0  0  0  0  0  0  0  0  0  0
   11.4860   -0.3000   -1.4130 C   0  0  0  0  0  0  0  0  0  0  0  0
   10.5130   -1.2620   -1.2240 C   0  0  0  0  0  0  0  0  0  0  0  0
    9.4090   -1.0350   -0.4940 C   0  0  0  0  0  0  0  0  0  0  0  0
    9.3110    0.3400    0.0840 C   0  0  0  0  0  0  0  0  0  0  0  0
    7.8270    0.5210    0.2510 C   0  0  0  0  0  0  0  0  0  0  0  0
    6.5280    0.6690    0.3980 C   0  0  0  0  0  0  0  0  0  0  0  0
    5.2670    0.8100    0.5460 C   0  0  0  0  0  0  0  0  0  0  0  0
    4.3200    0.0570    1.1530 C   0  0  0  0  0  0  0  0  0  0  0  0
    2.9800    0.3400    0.9690 C   0  0  0  0  0  0  0  0  0  0  0  0
    2.4470    1.3320    0.2170 C   0  0  0  0  0  0  0  0  0  0  0  0
    1.1130    1.4290   -0.1290 N   0  0  0  0  0  0  0  0  0  0  0  0
   -0.0520    0.7800    0.1140 C   0  0  0  0  0  0  0  0  0  0  0  0
    0.3440   -0.2640    1.1140 O   0  0  0  0  0  0  0  0  0  0  0  0
   -1.3800    0.6080   -0.1010 C   0  0  0  0  0  0  0  0  0  0  0  0
   -2.1050    1.0670   -1.0340 O   0  0  0  0  0  0  0  0  0  0  0  0
   -2.2310   -0.2710    0.8930 C   0  0  0  0  0  0  0  0  0  0  0  0
   -2.4680   -1.4850    0.0550 C   0  0  0  0  0  0  0  0  0  0  0  0
   -3.2250   -2.5010    0.6090 N   0  0  0  0  0  0  0  0  0  0  0  0
   -3.8180   -2.2030    1.8960 C   0  0  0  0  0  0  0  0  0  0  0  0
   -4.9630   -1.2620    1.6850 C   0  0  0  0  0  0  0  0  0  0  0  0
   -5.1860   -0.2950    2.7150 C   0  0  0  0  0  0  0  0  0  0  0  0
   -6.2230    0.6340    2.4900 C   0  0  0  0  0  0  0  0  0  0  0  0
   -6.4650    1.5190    3.3460 O   0  0  0  0  0  0  0  0  0  0  0  0
   -6.9380    0.5500    1.3240 N   0  0  0  0  0  0  0  0  0  0  0  0
   -6.6940   -0.3850    0.3680 C   0  0  0  0  0  0  0  0  0  0  0  0
   -7.4770   -0.3610   -0.8740 C   0  0  1  0  0  0  0  0  0  0  0  0
   -8.9620   -0.5160   -0.5950 C   0  0  0  0  0  0  0  0  0  0  0  0
   -9.4710    0.2030   -1.8940 C   0  0  0  0  0  0  0  0  0  0  0  0
   -8.5850    1.4440   -1.6950 C   0  0  0  0  0  0  0  0  0  0  0  0
   -7.3390    0.9630   -1.3570 O   0  0  0  0  0  0  0  0  0  0  0  0
   -5.7040   -1.2380    0.6350 N   0  0  0  0  0  0  0  0  0  0  0  0
    3.3840    2.1850   -0.4570 C   0  0  0  0  0  0  0  0  0  0  0  0
    4.6860    1.8790   -0.2590 C   0  0  0  0  0  0  0  0  0  0  0  0
   10.2050    1.2250   -0.0810 C   0  0  0  0  0  0  0  0  0  0  0  0
   11.3870    0.9640   -0.8470 C   0  0  0  0  0  0  0  0  0  0  0  0
  1  2  2  0
  2  3  1  0
  3  4  2  0
  3 37  1  0
  4  5  1  0
  5  6  2  0
  6  7  1  0
  6 36  1  0
  7  8  3  0
  8  9  1  0
  9 10  2  0
  9 35  1  0
 10 11  1  0
 11 12  2  0
 12 13  1  0
 12 34  1  0
 13 14  1  0
 14 15  2  0
 14 16  1  0
 16 17  2  0
 16 18  1  0
 18 19  1  0
 19 20  1  0
 20 21  1  0
 21 22  1  0
 22 23  2  0
 22 33  1  0
 23 24  1  0
 24 25  2  0
 24 26  1  0
 26 27  1  0
 28 27  1  1
 27 33  2  0
 28 29  1  0
 28 32  1  0
 29 30  1  0
 30 31  1  0
 31 32  1  0
 34 35  2  0
 36 37  2  0
M  CHG  1  20   1
M  END
