
     RDKit          3D

 37 40  0  0  0  0  0  0  0  0999 V2000
   -7.1970    1.8020   -1.0690 C   0  0  0  0  0  0  0  0  0  0  0  0
   -6.1570    0.8690   -0.5670 C   0  0  0  0  0  0  0  0  0  0  0  0
   -4.9310    1.3200   -0.1840 C   0  0  0  0  0  0  0  0  0  0  0  0
   -3.9250    0.4640    0.2950 C   0  0  0  0  0  0  0  0  0  0  0  0
   -4.2400   -0.8530    0.3600 C   0  0  0  0  0  0  0  0  0  0  0  0
   -5.4950   -1.3460   -0.0280 C   0  0  0  0  0  0  0  0  0  0  0  0
   -6.4700   -0.5030   -0.4950 C   0  0  0  0  0  0  0  0  0  0  0  0
   -7.7030   -0.9170   -0.8860 O   0  0  0  0  0  0  0  0  0  0  0  0
   -8.3280   -2.1260   -0.9680 C   0  0  0  0  0  0  0  0  0  0  0  0
   -7.7590   -3.1470   -1.9020 C   0  0  0  0  0  0  0  0  0  0  0  0
   -8.5050   -4.3390   -1.8820 O   0  0  0  0  0  0  0  0  0  0  0  0
   -3.2260   -1.8340    0.8610 C   0  0  0  0  0  0  0  0  0  0  0  0
   -1.8210   -1.2340    0.7000 C   0  0  0  0  0  0  0  0  0  0  0  0
   -1.8670    0.0100    1.4230 N   0  0  1  0  0  0  0  0  0  0  0  0
   -0.5850    0.4980    1.8350 C   0  0  0  0  0  0  0  0  0  0  0  0
    0.5790   -0.1830    1.1700 C   0  0  0  0  0  0  0  0  0  0  0  0
    0.5580    0.0090   -0.6230 S   0  0  0  0  0  0  0  0  0  0  0  0
    0.8480    1.6860   -1.1810 C   0  0  0  0  0  0  0  0  0  0  0  0
    2.2240    2.1720   -0.9590 C   0  0  0  0  0  0  0  0  0  0  0  0
    2.4770    3.3550   -1.2650 O   0  0  0  0  0  0  0  0  0  0  0  0
    3.2840    1.3810   -0.4210 N   0  0  0  0  0  0  0  0  0  0  0  0
    4.5580    1.9520   -0.2550 C   0  0  0  0  0  0  0  0  0  0  0  0
    5.6280    1.3690    0.2240 C   0  0  0  0  0  0  0  0  0  0  0  0
    6.8670    2.1810    0.2980 C   0  0  0  0  0  0  0  0  0  0  0  0
    6.6720    3.4230    0.2950 O   0  0  0  0  0  0  0  0  0  0  0  0
    8.2260    1.7150    0.3690 N   0  0  0  0  0  0  0  0  0  0  0  0
    8.6960    0.3550    0.2770 C   0  0  0  0  0  0  0  0  0  0  0  0
   10.0730    0.3440    0.1090 C   0  0  0  0  0  0  0  0  0  0  0  0
   10.7760   -0.8590   -0.0070 C   0  0  0  0  0  0  0  0  0  0  0  0
   10.0760   -2.0390    0.0470 C   0  0  0  0  0  0  0  0  0  0  0  0
    8.7080   -2.0200    0.2140 C   0  0  0  0  0  0  0  0  0  0  0  0
    7.9990   -0.8330    0.3310 C   0  0  0  0  0  0  0  0  0  0  0  0
    6.5900   -1.0200    0.5000 N   0  0  0  0  0  0  0  0  0  0  0  0
    5.5650   -0.0150    0.6680 C   0  0  0  0  0  0  0  0  0  0  0  0
    4.5260   -0.3560    1.2460 O   0  0  0  0  0  0  0  0  0  0  0  0
   -2.6080    0.9920    0.6850 C   0  0  2  0  0  0  0  0  0  0  0  0
   -2.8790    2.1400    1.6710 C   0  0  0  0  0  0  0  0  0  0  0  0
  1  2  1  0
  2  3  2  0
  2  7  1  0
  3  4  1  0
  4  5  2  0
  4 36  1  0
  5  6  1  0
  5 12  1  0
  6  7  2  0
  7  8  1  0
  8  9  1  0
  9 10  1  0
 10 11  1  0
 12 13  1  0
 13 14  1  0
 14 15  1  6
 14 36  1  0
 15 16  1  0
 16 17  1  0
 17 18  1  0
 18 19  1  0
 19 20  2  0
 19 21  1  0
 21 22  1  0
 22 23  2  3
 23 24  1  0
 23 34  1  0
 24 25  2  0
 24 26  1  0
 26 27  1  0
 27 28  2  0
 27 32  1  0
 28 29  1  0
 29 30  2  0
 30 31  1  0
 31 32  2  0
 32 33  1  0
 33 34  1  0
 34 35  2  0
 36 37  1  1
M  CHG  1  14   1
M  END
