
     RDKit          3D

 16 16  0  0  0  0  0  0  0  0999 V2000
   -2.2080   -0.7380    1.7560 C   0  0  0  0  0  0  0  0  0  0  0  0
   -2.3190   -0.1770    0.3530 C   0  0  1  0  0  0  0  0  0  0  0  0
   -3.3460   -1.0320   -0.3570 C   0  0  0  0  0  0  0  0  0  0  0  0
   -2.7480    1.1220    0.3640 O   0  0  0  0  0  0  0  0  0  0  0  0
   -1.9210    1.9940    1.0380 C   0  0  0  0  0  0  0  0  0  0  0  0
   -0.4790    1.8690    0.7630 C   0  0  0  0  0  0  0  0  0  0  0  0
    0.0200    0.4600    0.4820 C   0  0  2  0  0  0  0  0  0  0  0  0
    0.2260   -0.1630    1.7040 O   0  0  0  0  0  0  0  0  0  0  0  0
    1.4020    0.5680   -0.1650 C   0  0  0  0  0  0  0  0  0  0  0  0
    2.0250   -1.0980   -0.4880 S   0  0  0  0  0  0  0  0  0  0  0  0
    3.6440   -1.1040   -1.2410 C   0  0  0  0  0  0  0  0  0  0  0  0
    4.7310   -0.5690   -0.3240 C   0  0  0  0  0  0  0  0  0  0  0  0
    4.5010    0.7290    0.0610 O   0  0  0  0  0  0  0  0  0  0  0  0
   -0.9930   -0.1980   -0.3860 C   0  0  2  0  0  0  0  0  0  0  0  0
   -1.1800    0.7010   -1.6140 C   0  0  0  0  0  0  0  0  0  0  0  0
   -0.6530   -1.5550   -0.8970 C   0  0  0  0  0  0  0  0  0  0  0  0
  2  1  1  1
  2  3  1  0
  2  4  1  0
  2 14  1  0
  4  5  1  0
  5  6  1  0
  6  7  1  0
  7  8  1  1
  7  9  1  0
  7 14  1  0
  9 10  1  0
 10 11  1  0
 11 12  1  0
 12 13  1  0
 14 15  1  6
 14 16  1  0
M  END
