
     RDKit          3D

 16 16  0  0  0  0  0  0  0  0999 V2000
   -4.3820    1.4420   -0.7500 C   0  0  0  0  0  0  0  0  0  0  0  0
   -2.9190    1.3280   -0.9380 C   0  0  0  0  0  0  0  0  0  0  0  0
   -2.1400    0.3540   -0.5920 C   0  0  0  0  0  0  0  0  0  0  0  0
   -0.6640    0.3670   -0.8390 C   0  0  0  0  0  0  0  0  0  0  0  0
   -0.0680   -0.2080    0.4270 C   0  0  2  0  0  0  0  0  0  0  0  0
    1.3890   -0.1450    0.4630 C   0  0  0  0  0  0  0  0  0  0  0  0
    2.0360   -1.2130    0.5920 O   0  0  0  0  0  0  0  0  0  0  0  0
    2.1290    1.0230    0.3650 O   0  0  0  0  0  0  0  0  0  0  0  0
    3.5380    1.0290    0.4050 C   0  0  0  0  0  0  0  0  0  0  0  0
    4.1820    0.2360   -0.6870 C   0  0  0  0  0  0  0  0  0  0  0  0
    5.6990    0.3480   -0.4990 C   0  0  0  0  0  0  0  0  0  0  0  0
   -0.4890   -1.5220    0.5500 O   0  0  0  0  0  0  0  0  0  0  0  0
   -1.7760   -1.4880    1.1370 C   0  0  0  0  0  0  0  0  0  0  0  0
   -2.6310   -0.8420    0.0750 C   0  0  0  0  0  0  0  0  0  0  0  0
   -3.7590   -1.3930   -0.2340 C   0  0  0  0  0  0  0  0  0  0  0  0
   -4.3050   -2.8660    0.6350 S   0  0  0  0  0  0  0  0  0  0  0  0
  1  2  1  0
  2  3  2  3
  3  4  1  0
  3 14  1  0
  4  5  1  0
  5  6  1  6
  5 12  1  0
  6  7  2  0
  6  8  1  0
  8  9  1  0
  9 10  1  0
 10 11  1  0
 12 13  1  0
 13 14  1  0
 14 15  2  3
 15 16  1  0
M  END
