
     RDKit          3D

 16 16  0  0  0  0  0  0  0  0999 V2000
   -3.2120    0.6490   -0.7400 C   0  0  0  0  0  0  0  0  0  0  0  0
   -2.0780    0.6300   -0.1050 C   0  0  0  0  0  0  0  0  0  0  0  0
   -1.3610    2.2360    0.2490 S   0  0  0  0  0  0  0  0  0  0  0  0
    0.4450    2.0540    0.4560 C   0  0  2  0  0  0  0  0  0  0  0  0
    1.0310    3.3970    0.2620 C   0  0  0  0  0  0  0  0  0  0  0  0
    1.0890    3.8660   -0.8480 O   0  0  0  0  0  0  0  0  0  0  0  0
    1.0290    1.1280   -0.5550 C   0  0  0  0  0  0  0  0  0  0  0  0
    0.9290   -0.3130   -0.2520 C   0  0  0  0  0  0  0  0  0  0  0  0
    2.1740   -1.0820   -0.3060 C   0  0  0  0  0  0  0  0  0  0  0  0
    2.1950   -2.3170   -0.0640 O   0  0  0  0  0  0  0  0  0  0  0  0
    3.3840   -0.4960   -0.6250 O   0  0  0  0  0  0  0  0  0  0  0  0
    4.5640   -1.2690   -0.6680 C   0  0  0  0  0  0  0  0  0  0  0  0
   -0.1190   -1.0480    0.0700 C   0  0  0  0  0  0  0  0  0  0  0  0
   -1.5470   -0.6910    0.2390 C   0  0  0  0  0  0  0  0  0  0  0  0
   -2.3650   -1.5700    0.7650 C   0  0  0  0  0  0  0  0  0  0  0  0
   -3.7760   -1.4350    1.0800 C   0  0  0  0  0  0  0  0  0  0  0  0
  1  2  2  0
  2  3  1  0
  2 14  1  0
  3  4  1  0
  4  5  1  6
  4  7  1  0
  5  6  2  0
  7  8  1  0
  8  9  1  0
  8 13  2  0
  9 10  2  0
  9 11  1  0
 11 12  1  0
 13 14  1  0
 14 15  2  3
 15 16  1  0
M  END
