
     RDKit          3D

 16 17  0  0  0  0  0  0  0  0999 V2000
    5.7960    0.5050   -0.0940 C   0  0  0  0  0  0  0  0  0  0  0  0
    4.6830   -0.5030    0.0970 C   0  0  0  0  0  0  0  0  0  0  0  0
    3.4700    0.2240    0.1580 O   0  0  0  0  0  0  0  0  0  0  0  0
    2.2340   -0.4020    0.3300 C   0  0  0  0  0  0  0  0  0  0  0  0
    2.2390   -1.6400    0.4290 O   0  0  0  0  0  0  0  0  0  0  0  0
    0.9650    0.3620    0.3940 C   0  0  0  0  0  0  0  0  0  0  0  0
   -0.1040   -0.5330    0.5720 O   0  0  0  0  0  0  0  0  0  0  0  0
   -1.4010   -0.0200    0.6580 C   0  0  0  0  0  0  0  0  0  0  0  0
   -1.6500    0.8630    1.5990 C   0  0  0  0  0  0  0  0  0  0  0  0
   -2.9800    1.3990    1.7700 C   0  0  0  0  0  0  0  0  0  0  0  0
   -3.9960    0.9490    0.9990 C   0  0  0  0  0  0  0  0  0  0  0  0
   -3.8490   -0.0710    0.0300 C   0  0  1  0  0  0  0  0  0  0  0  0
   -4.4770    0.2370   -1.6420 S   0  0  0  0  0  0  0  0  0  0  0  0
   -3.5180   -1.2820   -2.2650 C   0  0  0  0  0  0  0  0  0  0  0  0
   -2.2910   -0.9990   -1.4740 C   0  0  0  0  0  0  0  0  0  0  0  0
   -2.4550   -0.4160   -0.3050 C   0  0  0  0  0  0  0  0  0  0  0  0
  1  2  1  0
  2  3  1  0
  3  4  1  0
  4  5  2  0
  4  6  1  0
  6  7  1  0
  7  8  1  0
  8  9  2  0
  8 16  1  0
  9 10  1  0
 10 11  2  0
 11 12  1  0
 12 13  1  6
 12 16  1  0
 13 14  1  0
 14 15  1  0
 15 16  2  0
M  END
