
     RDKit          3D

 16 16  0  0  0  0  0  0  0  0999 V2000
    4.4460    1.2610    0.1180 C   0  0  0  0  0  0  0  0  0  0  0  0
    3.1520    1.4240    0.0780 C   0  0  0  0  0  0  0  0  0  0  0  0
    2.2120    0.3330   -0.1150 C   0  0  0  0  0  0  0  0  0  0  0  0
    2.7910   -1.0310   -0.2740 C   0  0  0  0  0  0  0  0  0  0  0  0
    0.9230    0.5720   -0.1440 C   0  0  0  0  0  0  0  0  0  0  0  0
   -0.1240   -0.4350   -0.3300 C   0  0  1  0  0  0  0  0  0  0  0  0
   -0.0890   -1.1130   -1.6760 C   0  0  0  0  0  0  0  0  0  0  0  0
    0.1450   -1.7400    0.9360 S   0  0  0  0  0  0  0  0  0  0  0  0
   -1.5840   -1.7830    1.3870 C   0  0  0  0  0  0  0  0  0  0  0  0
   -2.1140   -2.7010    2.0240 O   0  0  0  0  0  0  0  0  0  0  0  0
   -2.1690   -0.5640    0.8580 C   0  0  0  0  0  0  0  0  0  0  0  0
   -3.5120   -0.1670    1.3050 C   0  0  0  0  0  0  0  0  0  0  0  0
   -4.0950    1.0760    0.7590 C   0  0  0  0  0  0  0  0  0  0  0  0
   -4.1620   -0.8580    2.1320 O   0  0  0  0  0  0  0  0  0  0  0  0
   -1.4390    0.0870    0.0150 C   0  0  0  0  0  0  0  0  0  0  0  0
   -1.8480    1.2920   -0.5980 O   0  0  0  0  0  0  0  0  0  0  0  0
  1  2  2  0
  2  3  1  0
  3  4  1  0
  3  5  2  3
  5  6  1  0
  6  7  1  6
  6  8  1  0
  6 15  1  0
  8  9  1  0
  9 10  2  0
  9 11  1  0
 11 12  1  0
 11 15  2  0
 12 13  1  0
 12 14  2  0
 15 16  1  0
M  END
