
     RDKit          3D

 16 16  0  0  0  0  0  0  0  0999 V2000
   -4.5560    0.8510   -0.7640 C   0  0  0  0  0  0  0  0  0  0  0  0
   -4.4560   -0.0690    0.3720 C   0  0  0  0  0  0  0  0  0  0  0  0
   -3.4510   -0.7850    0.7910 C   0  0  0  0  0  0  0  0  0  0  0  0
   -2.0860   -0.9500    0.3170 C   0  0  1  0  0  0  0  0  0  0  0  0
   -1.7510   -0.3040   -0.9720 C   0  0  0  0  0  0  0  0  0  0  0  0
   -1.0880   -0.5390    1.3740 C   0  0  0  0  0  0  0  0  0  0  0  0
   -1.5480   -0.0450    2.3860 O   0  0  0  0  0  0  0  0  0  0  0  0
    0.6130   -0.7920    1.0840 S   0  0  1  0  0  0  0  0  0  0  0  0
    1.2340   -1.1860    2.3890 O   0  0  0  0  0  0  0  0  0  0  0  0
    0.8090   -1.9860    0.1580 O   0  0  0  0  0  0  0  0  0  0  0  0
    1.3340    0.5920    0.3360 C   0  0  0  0  0  0  0  0  0  0  0  0
    2.7850    0.4570    0.0630 C   0  0  0  0  0  0  0  0  0  0  0  0
    3.5640   -0.5790    0.3240 C   0  0  0  0  0  0  0  0  0  0  0  0
    4.9440   -0.2780   -0.1170 C   0  0  0  0  0  0  0  0  0  0  0  0
    4.8090    1.0930   -0.6660 C   0  0  0  0  0  0  0  0  0  0  0  0
    3.5610    1.5220   -0.5640 C   0  0  0  0  0  0  0  0  0  0  0  0
  1  2  1  0
  2  3  2  3
  3  4  1  0
  4  5  1  6
  4  6  1  0
  6  7  2  0
  6  8  1  0
  8  9  2  0
  8 10  2  0
  8 11  1  6
 11 12  1  0
 12 13  2  0
 12 16  1  0
 13 14  1  0
 14 15  1  0
 15 16  2  0
M  END
