
     RDKit          3D

 29 33  0  0  0  0  0  0  0  0999 V2000
   -7.3130   -1.4070   -0.1850 C   0  0  0  0  0  0  0  0  0  0  0  0
   -6.2270   -0.4770    0.1010 N   0  0  0  0  0  0  0  0  0  0  0  0
   -6.5170    0.8210    0.6470 C   0  0  0  0  0  0  0  0  0  0  0  0
   -5.3060    1.6470    0.9090 C   0  0  0  0  0  0  0  0  0  0  0  0
   -4.1500    0.8440    1.4630 C   0  0  0  0  0  0  0  0  0  0  0  0
   -3.8140   -0.2330    0.4770 C   0  0  0  0  0  0  0  0  0  0  0  0
   -2.4880   -0.5870    0.2270 C   0  0  0  0  0  0  0  0  0  0  0  0
   -2.2260   -1.5740   -0.6810 C   0  0  0  0  0  0  0  0  0  0  0  0
   -0.9390   -1.9910   -0.9910 N   0  0  0  0  0  0  0  0  0  0  0  0
    0.1740   -1.3240   -0.2990 C   0  0  0  0  0  0  0  0  0  0  0  0
    0.4780   -0.5090    0.4830 N   0  0  0  0  0  0  0  0  0  0  0  0
    1.6740   -0.1890    0.8560 N   0  0  0  0  0  0  0  0  0  0  0  0
    2.6570   -0.6900    0.4470 C   0  0  0  0  0  0  0  0  0  0  0  0
    4.0810   -0.6260    0.5950 N   0  0  0  0  0  0  0  0  0  0  0  0
    4.7820    0.3200    0.0700 C   0  0  0  0  0  0  0  0  0  0  0  0
    4.2180    1.3060   -0.6490 N   0  0  0  0  0  0  0  0  0  0  0  0
    4.9630    2.3040   -1.2020 C   0  0  0  0  0  0  0  0  0  0  0  0
    4.4190    3.2190   -1.8720 O   0  0  0  0  0  0  0  0  0  0  0  0
    6.2810    2.3280   -1.0420 N   0  0  0  0  0  0  0  0  0  0  0  0
    6.8790    1.3670   -0.3350 C   0  0  0  0  0  0  0  0  0  0  0  0
    8.2480    1.4360   -0.1980 C   0  0  0  0  0  0  0  0  0  0  0  0
    8.8760    0.4490    0.5300 C   0  0  0  0  0  0  0  0  0  0  0  0
    8.1030   -0.5420    1.0740 C   0  0  0  0  0  0  0  0  0  0  0  0
    6.7690   -0.6130    0.9430 N   0  0  0  0  0  0  0  0  0  0  0  0
    6.1390    0.3300    0.2430 C   0  0  0  0  0  0  0  0  0  0  0  0
    1.8990   -1.9350   -0.7640 S   0  0  0  0  0  0  0  0  0  0  0  0
   -3.3030   -2.1950   -1.3280 C   0  0  0  0  0  0  0  0  0  0  0  0
   -4.5940   -1.8360   -1.0720 C   0  0  0  0  0  0  0  0  0  0  0  0
   -4.8780   -0.8380   -0.1550 C   0  0  0  0  0  0  0  0  0  0  0  0
  1  2  1  0
  2  3  1  0
  2 29  1  0
  3  4  1  0
  4  5  1  0
  5  6  1  0
  6  7  2  0
  6 29  1  0
  7  8  1  0
  8  9  1  0
  8 27  2  0
  9 10  1  0
 10 11  2  0
 10 26  1  0
 11 12  1  0
 12 13  2  0
 13 14  1  0
 13 26  1  0
 14 15  2  3
 15 16  1  0
 15 25  1  0
 16 17  1  0
 17 18  2  0
 17 19  1  0
 19 20  1  0
 20 21  2  0
 20 25  1  0
 21 22  1  0
 22 23  2  0
 23 24  1  0
 24 25  2  0
 27 28  1  0
 28 29  2  0
M  END
