
     RDKit          3D

 30 33  0  0  0  0  0  0  0  0999 V2000
   -4.1670    1.4880    2.2440 C   0  0  0  0  0  0  0  0  0  0  0  0
   -3.2610    0.9710    1.2560 N   0  0  0  0  0  0  0  0  0  0  0  0
   -3.6010   -0.2540    0.5440 C   0  0  0  0  0  0  0  0  0  0  0  0
   -4.5660   -1.1020    0.8990 C   0  0  0  0  0  0  0  0  0  0  0  0
   -4.8130   -2.2960    0.2030 C   0  0  0  0  0  0  0  0  0  0  0  0
   -6.0020   -3.1060    0.6470 C   0  0  0  0  0  0  0  0  0  0  0  0
   -4.0210   -2.5480   -0.8420 C   0  0  0  0  0  0  0  0  0  0  0  0
   -4.2790   -4.0520   -1.7700 Cl  0  0  0  0  0  0  0  0  0  0  0  0
   -3.0370   -1.7110   -1.2250 C   0  0  0  0  0  0  0  0  0  0  0  0
   -2.7380   -0.4750   -0.5620 C   0  0  0  0  0  0  0  0  0  0  0  0
   -1.8470    0.4000   -0.9660 N   0  0  0  0  0  0  0  0  0  0  0  0
   -0.6860    0.7740   -0.9650 C   0  0  0  0  0  0  0  0  0  0  0  0
    0.7950    0.2250   -0.2850 S   0  0  0  0  0  0  0  0  0  0  0  0
    2.0600    1.4090   -0.5740 C   0  0  0  0  0  0  0  0  0  0  0  0
    3.4080    0.9600   -0.1570 C   0  0  0  0  0  0  0  0  0  0  0  0
    3.6570   -0.1620    0.5970 N   0  0  0  0  0  0  0  0  0  0  0  0
    5.1400   -0.5460    0.5670 C   0  0  0  0  0  0  0  0  0  0  0  0
    6.0820    0.1500    0.3000 C   0  0  0  0  0  0  0  0  0  0  0  0
    7.1990   -0.6670    0.1690 N   0  0  0  0  0  0  0  0  0  0  0  0
    6.7690   -1.8880    0.3920 N   0  0  0  0  0  0  0  0  0  0  0  0
    5.3810   -1.9610    0.6750 C   0  0  0  0  0  0  0  0  0  0  0  0
    4.4960   -3.0900    0.6920 C   0  0  0  0  0  0  0  0  0  0  0  0
    3.8170   -3.9710    0.6880 N   0  0  0  0  0  0  0  0  0  0  0  0
    4.3670    1.8690   -0.5550 N   0  0  0  0  0  0  0  0  0  0  0  0
    4.0770    3.0260   -1.2310 C   0  0  0  0  0  0  0  0  0  0  0  0
    2.8480    3.3110   -1.5340 C   0  0  0  0  0  0  0  0  0  0  0  0
    1.7890    2.4370   -1.1800 C   0  0  0  0  0  0  0  0  0  0  0  0
    0.5020    2.8230   -1.7100 N   0  0  0  0  0  0  0  0  0  0  0  0
   -0.4430    2.1010   -1.5850 C   0  0  0  0  0  0  0  0  0  0  0  0
   -1.6430    2.4890   -2.1140 O   0  0  0  0  0  0  0  0  0  0  0  0
  1  2  1  0
  2  3  1  0
  3  4  2  0
  3 10  1  0
  4  5  1  0
  5  6  1  0
  5  7  2  0
  7  8  1  0
  7  9  1  0
  9 10  2  0
 10 11  1  0
 11 12  2  3
 12 13  1  0
 12 29  1  0
 13 14  1  0
 14 15  2  0
 14 27  1  0
 15 16  1  0
 15 24  1  0
 16 17  1  0
 17 18  1  0
 17 21  2  0
 18 19  2  0
 19 20  1  0
 20 21  1  0
 21 22  1  0
 22 23  3  0
 24 25  2  0
 25 26  1  0
 26 27  2  0
 27 28  1  0
 28 29  1  0
 29 30  2  0
M  END
