
     RDKit          3D

 30 33  0  0  0  0  0  0  0  0999 V2000
   -1.0420   -3.6220    0.1880 C   0  0  0  0  0  0  0  0  0  0  0  0
   -1.2930   -2.8290   -1.0370 C   0  0  0  0  0  0  0  0  0  0  0  0
   -1.4990   -1.4010   -0.8140 N   0  0  0  0  0  0  0  0  0  0  0  0
   -0.3490   -0.5810   -0.8370 C   0  0  0  0  0  0  0  0  0  0  0  0
   -0.6810    0.7280   -0.9180 O   0  0  0  0  0  0  0  0  0  0  0  0
    1.0510   -0.9260   -0.7980 C   0  0  0  0  0  0  0  0  0  0  0  0
    2.0000    0.2450   -0.7480 C   0  0  0  0  0  0  0  0  0  0  0  0
    3.2600   -0.3200   -0.7220 C   0  0  0  0  0  0  0  0  0  0  0  0
    4.5650    0.2690   -0.5220 C   0  0  0  0  0  0  0  0  0  0  0  0
    5.0580    0.6630    0.6540 C   0  0  0  0  0  0  0  0  0  0  0  0
    4.2630    0.4470    1.8410 N   0  0  0  0  0  0  0  0  0  0  0  0
    5.0520    0.9710    2.9120 N   0  0  0  0  0  0  0  0  0  0  0  0
    6.1760    1.4500    2.4300 C   0  0  0  0  0  0  0  0  0  0  0  0
    6.2250    1.2730    1.0020 N   0  0  0  0  0  0  0  0  0  0  0  0
    7.2560    1.6020    0.0820 C   0  0  0  0  0  0  0  0  0  0  0  0
    8.3130    1.4020   -0.3680 C   0  0  0  0  0  0  0  0  0  0  0  0
    9.5770    0.1910   -0.0380 Cl  0  0  0  0  0  0  0  0  0  0  0  0
    3.0990   -1.7060   -0.7380 N   0  0  0  0  0  0  0  0  0  0  0  0
    1.8740   -1.8390   -0.7790 N   0  0  0  0  0  0  0  0  0  0  0  0
   -2.7370   -0.7550   -0.6730 C   0  0  0  0  0  0  0  0  0  0  0  0
   -4.0000   -0.4220   -2.0100 S   0  0  0  0  0  0  0  0  0  0  0  0
   -5.1810    0.4440   -1.0310 C   0  0  0  0  0  0  0  0  0  0  0  0
   -4.5080    0.4770    0.4210 C   0  0  0  0  0  0  0  0  0  0  0  0
   -3.4440   -0.1790    0.1470 C   0  0  0  0  0  0  0  0  0  0  0  0
   -3.5170   -1.4260    1.2900 C   0  0  0  0  0  0  0  0  0  0  0  0
   -3.5870   -2.4440    2.1950 N   0  0  0  0  0  0  0  0  0  0  0  0
   -5.4270    1.2210    1.2590 C   0  0  0  0  0  0  0  0  0  0  0  0
   -5.8160    2.5430    0.6800 C   0  0  0  0  0  0  0  0  0  0  0  0
   -6.5580    2.4280   -0.5290 N   0  0  0  0  0  0  0  0  0  0  0  0
   -6.4730    1.0820   -1.0960 C   0  0  0  0  0  0  0  0  0  0  0  0
  1  2  1  0
  2  3  1  0
  3  4  1  0
  3 20  1  0
  4  5  2  0
  4  6  1  0
  6  7  1  0
  6 19  2  0
  7  8  2  0
  8  9  1  0
  8 18  1  0
  9 10  2  3
 10 11  1  0
 10 14  1  0
 11 12  1  0
 12 13  2  0
 13 14  1  0
 14 15  1  0
 15 16  2  3
 16 17  1  0
 18 19  1  0
 20 21  1  0
 20 24  2  0
 21 22  1  0
 22 23  2  0
 22 30  1  0
 23 24  1  0
 23 27  1  0
 24 25  1  0
 25 26  3  0
 27 28  1  0
 28 29  1  0
 29 30  1  0
M  END
