
     RDKit          3D

 29 32  0  0  0  0  0  0  0  0999 V2000
    6.0200   -2.9420    1.9390 C   0  0  0  0  0  0  0  0  0  0  0  0
    6.4910   -1.8790    1.1520 O   0  0  0  0  0  0  0  0  0  0  0  0
    5.6190   -0.9470    0.5610 C   0  0  0  0  0  0  0  0  0  0  0  0
    6.1700    0.0630   -0.1950 C   0  0  0  0  0  0  0  0  0  0  0  0
    5.3900    1.0100   -0.8040 C   0  0  0  0  0  0  0  0  0  0  0  0
    4.0110    0.9270   -0.6390 C   0  0  0  0  0  0  0  0  0  0  0  0
    3.2320    1.8420   -1.2270 N   0  0  0  0  0  0  0  0  0  0  0  0
    1.8730    1.7440   -1.0540 C   0  0  0  0  0  0  0  0  0  0  0  0
    1.0430    2.7150   -1.6880 N   0  0  0  0  0  0  0  0  0  0  0  0
    1.3090    0.7510   -0.3090 C   0  0  0  0  0  0  0  0  0  0  0  0
   -0.0990    0.6220   -0.1020 N   0  0  0  0  0  0  0  0  0  0  0  0
   -0.4910   -0.5500    0.6860 C   0  0  0  0  0  0  0  0  0  0  0  0
   -1.9460   -0.6900    0.9310 C   0  0  1  0  0  0  0  0  0  0  0  0
   -2.7630   -0.9530   -0.3100 C   0  0  0  0  0  0  0  0  0  0  0  0
   -3.6560   -2.0860   -0.1070 N   0  0  0  0  0  0  0  0  0  0  0  0
   -2.9950   -3.3490   -0.2190 C   0  0  0  0  0  0  0  0  0  0  0  0
   -4.3770   -1.9420    1.1550 C   0  0  0  0  0  0  0  0  0  0  0  0
   -3.3770   -1.8090    2.3050 C   0  0  0  0  0  0  0  0  0  0  0  0
   -2.0880   -1.8610    1.7260 O   0  0  0  0  0  0  0  0  0  0  0  0
   -1.0470    1.5190   -0.5940 C   0  0  0  0  0  0  0  0  0  0  0  0
   -1.5060    1.5450   -1.8940 C   0  0  0  0  0  0  0  0  0  0  0  0
   -2.4580    2.4240   -2.3380 C   0  0  0  0  0  0  0  0  0  0  0  0
   -3.0200    3.3490   -1.4980 C   0  0  0  0  0  0  0  0  0  0  0  0
   -3.9920    4.2600   -1.9190 O   0  0  0  0  0  0  0  0  0  0  0  0
   -2.5670    3.3340   -0.1880 C   0  0  0  0  0  0  0  0  0  0  0  0
   -1.6160    2.4610    0.2720 C   0  0  0  0  0  0  0  0  0  0  0  0
    2.1620   -0.1480    0.2620 N   0  0  0  0  0  0  0  0  0  0  0  0
    3.4950   -0.0980    0.1240 C   0  0  0  0  0  0  0  0  0  0  0  0
    4.2940   -1.0220    0.7160 N   0  0  0  0  0  0  0  0  0  0  0  0
  1  2  1  0
  2  3  1  0
  3  4  2  0
  3 29  1  0
  4  5  1  0
  5  6  2  0
  6  7  1  0
  6 28  1  0
  7  8  2  0
  8  9  1  0
  8 10  1  0
 10 11  1  0
 10 27  2  0
 11 12  1  0
 11 20  1  0
 13 12  1  6
 13 14  1  0
 13 19  1  0
 14 15  1  0
 15 16  1  0
 15 17  1  0
 17 18  1  0
 18 19  1  0
 20 21  2  0
 20 26  1  0
 21 22  1  0
 22 23  2  0
 23 24  1  0
 23 25  1  0
 25 26  2  0
 27 28  1  0
 28 29  2  0
M  END
