
     RDKit          3D

 29 32  0  0  0  0  0  0  0  0999 V2000
   -6.7070   -0.6050   -0.9890 C   0  0  0  0  0  0  0  0  0  0  0  0
   -5.7970   -1.3690   -0.0330 C   0  0  0  0  0  0  0  0  0  0  0  0
   -4.4400   -1.3550   -0.6300 C   0  0  0  0  0  0  0  0  0  0  0  0
   -3.4420   -0.8010    0.0450 C   0  0  0  0  0  0  0  0  0  0  0  0
   -2.0220   -0.6470   -0.2990 C   0  0  0  0  0  0  0  0  0  0  0  0
   -1.3630    0.4420   -0.0820 C   0  0  0  0  0  0  0  0  0  0  0  0
   -1.8170    1.6860    0.4970 C   0  0  0  0  0  0  0  0  0  0  0  0
   -0.9730    2.7230    0.6850 C   0  0  0  0  0  0  0  0  0  0  0  0
   -1.6810    3.8480    1.2770 C   0  0  0  0  0  0  0  0  0  0  0  0
   -3.0600    3.4050    1.4130 C   0  0  0  0  0  0  0  0  0  0  0  0
   -3.1060    2.1380    0.9510 C   0  0  0  0  0  0  0  0  0  0  0  0
   -1.2700   -1.7590   -0.9560 C   0  0  0  0  0  0  0  0  0  0  0  0
   -0.1330   -2.0300   -0.5200 N   0  0  0  0  0  0  0  0  0  0  0  0
    0.5330   -1.4280    0.5120 N   0  0  0  0  0  0  0  0  0  0  0  0
    1.9410   -1.2250    0.4010 C   0  0  0  0  0  0  0  0  0  0  0  0
    2.5170   -1.6070   -0.6420 O   0  0  0  0  0  0  0  0  0  0  0  0
    2.7160   -0.5830    1.4780 C   0  0  0  0  0  0  0  0  0  0  0  0
    4.1520   -0.5150    1.0550 C   0  0  0  0  0  0  0  0  0  0  0  0
    5.0990   -1.4380    1.2710 N   0  0  0  0  0  0  0  0  0  0  0  0
    6.2130   -0.9790    0.7360 N   0  0  0  0  0  0  0  0  0  0  0  0
    5.9860    0.2160    0.1880 C   0  0  0  0  0  0  0  0  0  0  0  0
    6.9450    1.0940   -0.5190 C   0  0  1  0  0  0  0  0  0  0  0  0
    8.3950    0.9570   -0.2850 C   0  0  0  0  0  0  0  0  0  0  0  0
    7.8750    0.3470   -1.5250 C   0  0  0  0  0  0  0  0  0  0  0  0
    4.7210    0.4670    0.4010 O   0  0  0  0  0  0  0  0  0  0  0  0
   -1.8100   -2.5440   -2.0490 N   0  0  0  0  0  0  0  0  0  0  0  0
   -3.1740   -2.6810   -2.4620 C   0  0  0  0  0  0  0  0  0  0  0  0
   -3.4160   -3.4830   -3.3910 O   0  0  0  0  0  0  0  0  0  0  0  0
   -4.3150   -1.9860   -1.9170 N   0  0  0  0  0  0  0  0  0  0  0  0
  1  2  1  0
  2  3  1  0
  3  4  2  0
  3 29  1  0
  4  5  1  0
  5  6  2  3
  5 12  1  0
  6  7  1  0
  7  8  2  0
  7 11  1  0
  8  9  1  0
  9 10  1  0
 10 11  2  0
 12 13  2  3
 12 26  1  0
 13 14  1  0
 14 15  1  0
 15 16  2  0
 15 17  1  0
 17 18  1  0
 18 19  2  0
 18 25  1  0
 19 20  1  0
 20 21  2  0
 22 21  1  1
 21 25  1  0
 22 23  1  0
 22 24  1  0
 23 24  1  0
 26 27  1  0
 27 28  2  0
 27 29  1  0
M  END
