
     RDKit          3D

 29 32  0  0  0  0  0  0  0  0999 V2000
    5.6120    0.7800   -0.1700 C   0  0  0  0  0  0  0  0  0  0  0  0
    4.3830    0.0370   -0.0380 N   0  0  0  0  0  0  0  0  0  0  0  0
    3.2160    0.7350    0.3740 C   0  0  0  0  0  0  0  0  0  0  0  0
    2.0880    0.4330   -0.2310 C   0  0  0  0  0  0  0  0  0  0  0  0
    0.8730    1.1810    0.2200 C   0  0  0  0  0  0  0  0  0  0  0  0
    1.0420    2.0270    1.1330 O   0  0  0  0  0  0  0  0  0  0  0  0
   -0.3540    0.8600   -0.4300 C   0  0  0  0  0  0  0  0  0  0  0  0
   -1.5150    1.3720   -0.2080 C   0  0  0  0  0  0  0  0  0  0  0  0
   -2.5490    0.8200   -1.0440 O   0  0  0  0  0  0  0  0  0  0  0  0
   -2.9850   -0.4300   -0.7070 C   0  0  0  0  0  0  0  0  0  0  0  0
   -2.4620   -1.1020    0.3610 C   0  0  0  0  0  0  0  0  0  0  0  0
   -2.8840   -2.3740    0.7280 C   0  0  0  0  0  0  0  0  0  0  0  0
   -3.8740   -2.9340   -0.0510 C   0  0  0  0  0  0  0  0  0  0  0  0
   -4.3630   -4.2320    0.2570 N   0  0  0  0  0  0  0  0  0  0  0  0
   -4.4370   -2.2870   -1.1470 C   0  0  0  0  0  0  0  0  0  0  0  0
   -3.9700   -1.0240   -1.4570 C   0  0  0  0  0  0  0  0  0  0  0  0
   -1.8600    2.3810    0.7380 C   0  0  0  0  0  0  0  0  0  0  0  0
   -1.1120    3.0410    1.6110 N   0  0  0  0  0  0  0  0  0  0  0  0
   -1.8130    3.9100    2.3210 N   0  0  0  0  0  0  0  0  0  0  0  0
   -3.0820    3.8050    1.8810 C   0  0  0  0  0  0  0  0  0  0  0  0
   -3.1280    2.8700    0.9100 N   0  0  0  0  0  0  0  0  0  0  0  0
   -4.4820    2.7370    0.4190 C   0  0  0  0  0  0  0  0  0  0  0  0
   -5.3010    3.2650    1.5740 C   0  0  0  0  0  0  0  0  0  0  0  0
   -4.4080    4.3240    2.0690 N   0  0  0  0  0  0  0  0  0  0  0  0
    4.2840   -1.3690   -0.3020 C   0  0  2  0  0  0  0  0  0  0  0  0
    5.2330   -2.0860    0.6470 C   0  0  0  0  0  0  0  0  0  0  0  0
    6.3650   -2.4680   -0.2630 C   0  0  0  0  0  0  0  0  0  0  0  0
    6.1810   -1.7680   -1.4530 O   0  0  0  0  0  0  0  0  0  0  0  0
    4.8220   -1.7110   -1.6790 C   0  0  0  0  0  0  0  0  0  0  0  0
  1  2  1  0
  2  3  1  0
 25  2  1  1
  3  4  2  3
  4  5  1  0
  5  6  2  0
  5  7  1  0
  7  8  2  3
  8  9  1  0
  8 17  1  0
  9 10  1  0
 10 11  2  0
 10 16  1  0
 11 12  1  0
 12 13  2  0
 13 14  1  0
 13 15  1  0
 15 16  2  0
 17 18  2  0
 17 21  1  0
 18 19  1  0
 19 20  2  0
 20 21  1  0
 20 24  1  0
 21 22  1  0
 22 23  1  0
 23 24  1  0
 25 26  1  0
 25 29  1  0
 26 27  1  0
 27 28  1  0
 28 29  1  0
M  END
