
     RDKit          3D

 30 33  0  0  0  0  0  0  0  0999 V2000
   -7.5410   -0.4100   -0.0310 C   0  0  0  0  0  0  0  0  0  0  0  0
   -6.6290   -1.3650   -0.7400 C   0  0  0  0  0  0  0  0  0  0  0  0
   -6.8980   -2.7360   -0.8920 C   0  0  0  0  0  0  0  0  0  0  0  0
   -5.8810   -3.2660   -1.5570 N   0  0  0  0  0  0  0  0  0  0  0  0
   -4.9980   -2.3440   -1.8340 N   0  0  0  0  0  0  0  0  0  0  0  0
   -5.4370   -1.1430   -1.3370 C   0  0  0  0  0  0  0  0  0  0  0  0
   -4.6850    0.1460   -1.4750 C   0  0  2  0  0  0  0  0  0  0  0  0
   -3.3300   -0.1600   -1.1190 N   0  0  0  0  0  0  0  0  0  0  0  0
   -2.6920    0.3220   -0.1420 C   0  0  0  0  0  0  0  0  0  0  0  0
   -1.3540   -0.0870    0.0830 N   0  0  0  0  0  0  0  0  0  0  0  0
   -0.4480    0.8650    0.0640 C   0  0  0  0  0  0  0  0  0  0  0  0
    0.8510    0.7850    0.2380 N   0  0  0  0  0  0  0  0  0  0  0  0
    1.6140    1.8370    0.1870 C   0  0  0  0  0  0  0  0  0  0  0  0
    3.0940    1.7960    0.3790 C   0  0  0  0  0  0  0  0  0  0  0  0
    3.8380    2.9390    0.3130 C   0  0  0  0  0  0  0  0  0  0  0  0
    5.2120    2.9010    0.4910 C   0  0  0  0  0  0  0  0  0  0  0  0
    5.8480    1.7150    0.7370 C   0  0  0  0  0  0  0  0  0  0  0  0
    7.5910    1.6360    0.9670 Cl  0  0  0  0  0  0  0  0  0  0  0  0
    5.1220    0.5220    0.8120 C   0  0  0  0  0  0  0  0  0  0  0  0
    5.8300   -0.7460    1.0960 C   0  0  0  0  0  0  0  0  0  0  0  0
    4.9140   -1.8470    1.0950 N   0  0  0  0  0  0  0  0  0  0  0  0
    5.6840   -3.0530    1.5080 C   0  0  0  0  0  0  0  0  0  0  0  0
    4.4660   -2.1100   -0.2830 C   0  0  0  0  0  0  0  0  0  0  0  0
    3.7430    0.6200    0.6250 C   0  0  0  0  0  0  0  0  0  0  0  0
    0.9810    3.0690   -0.0650 C   0  0  0  0  0  0  0  0  0  0  0  0
   -0.7350    2.5680   -0.2110 S   0  0  0  0  0  0  0  0  0  0  0  0
   -3.2520    1.2990    0.7040 N   0  0  0  0  0  0  0  0  0  0  0  0
   -4.5740    1.7700    0.4550 C   0  0  0  0  0  0  0  0  0  0  0  0
   -5.1560    2.6270    1.1510 O   0  0  0  0  0  0  0  0  0  0  0  0
   -5.2310    1.1830   -0.6880 N   0  0  0  0  0  0  0  0  0  0  0  0
  1  2  1  0
  2  3  1  0
  2  6  2  0
  3  4  2  0
  4  5  1  0
  5  6  1  0
  7  6  1  1
  7  8  1  0
  7 30  1  0
  8  9  2  0
  9 10  1  0
  9 27  1  0
 10 11  2  3
 11 12  1  0
 11 26  1  0
 12 13  1  0
 13 14  1  0
 13 25  2  0
 14 15  2  0
 14 24  1  0
 15 16  1  0
 16 17  2  0
 17 18  1  0
 17 19  1  0
 19 20  1  0
 19 24  2  0
 20 21  1  0
 21 22  1  0
 21 23  1  0
 25 26  1  0
 27 28  1  0
 28 29  2  0
 28 30  1  0
M  END
