
     RDKit          3D

 30 33  0  0  0  0  0  0  0  0999 V2000
    5.5370   -1.6600    0.1040 C   0  0  0  0  0  0  0  0  0  0  0  0
    4.7150   -0.4380    0.4660 C   0  0  2  0  0  0  0  0  0  0  0  0
    3.4430   -0.5030   -0.0270 O   0  0  0  0  0  0  0  0  0  0  0  0
    2.2600   -0.8270    0.5200 C   0  0  0  0  0  0  0  0  0  0  0  0
    1.1350   -0.7090   -0.3470 C   0  0  0  0  0  0  0  0  0  0  0  0
   -0.1050   -1.0140    0.1140 C   0  0  0  0  0  0  0  0  0  0  0  0
   -1.2950   -0.9110   -0.7440 C   0  0  0  0  0  0  0  0  0  0  0  0
   -1.4440   -1.1030   -2.0880 C   0  0  0  0  0  0  0  0  0  0  0  0
   -2.7410   -0.8720   -2.3710 N   0  0  0  0  0  0  0  0  0  0  0  0
   -3.4270   -0.5460   -1.2940 N   0  0  0  0  0  0  0  0  0  0  0  0
   -4.8450   -0.2160   -1.1680 C   0  0  1  0  0  0  0  0  0  0  0  0
   -5.5570   -1.2430   -0.3210 C   0  0  0  0  0  0  0  0  0  0  0  0
   -7.0050   -0.7370   -0.2960 C   0  0  0  0  0  0  0  0  0  0  0  0
   -7.0940    0.4510    0.5130 N   0  0  0  0  0  0  0  0  0  0  0  0
   -6.0700    1.3980    0.3490 C   0  0  0  0  0  0  0  0  0  0  0  0
   -5.0330    1.1670   -0.6690 C   0  0  0  0  0  0  0  0  0  0  0  0
   -2.5380   -0.5660   -0.2680 C   0  0  0  0  0  0  0  0  0  0  0  0
   -0.2850   -1.4340    1.4050 C   0  0  0  0  0  0  0  0  0  0  0  0
    0.7700   -1.5420    2.2090 N   0  0  0  0  0  0  0  0  0  0  0  0
    2.0100   -1.2530    1.7960 C   0  0  0  0  0  0  0  0  0  0  0  0
    3.1130   -1.4150    2.7220 N   0  0  0  0  0  0  0  0  0  0  0  0
    5.4240    0.8010    0.0620 C   0  0  0  0  0  0  0  0  0  0  0  0
    4.9220    1.9720    0.6520 C   0  0  0  0  0  0  0  0  0  0  0  0
    3.5860    1.8480    1.7790 Cl  0  0  0  0  0  0  0  0  0  0  0  0
    5.4500    3.2130    0.3720 C   0  0  0  0  0  0  0  0  0  0  0  0
    6.5020    3.3450   -0.5080 C   0  0  0  0  0  0  0  0  0  0  0  0
    6.9990    2.2180   -1.0900 C   0  0  0  0  0  0  0  0  0  0  0  0
    8.0280    2.3130   -1.9550 F   0  0  0  0  0  0  0  0  0  0  0  0
    6.4530    0.9500   -0.7990 C   0  0  0  0  0  0  0  0  0  0  0  0
    7.1480   -0.4140   -1.6300 Cl  0  0  0  0  0  0  0  0  0  0  0  0
  2  1  1  6
  2  3  1  0
  2 22  1  0
  3  4  1  0
  4  5  2  0
  4 20  1  0
  5  6  1  0
  6  7  1  0
  6 18  2  0
  7  8  1  0
  7 17  2  0
  8  9  2  0
  9 10  1  0
 11 10  1  1
 10 17  1  0
 11 12  1  0
 11 16  1  0
 12 13  1  0
 13 14  1  0
 14 15  1  0
 15 16  1  0
 18 19  1  0
 19 20  2  0
 20 21  1  0
 22 23  2  0
 22 29  1  0
 23 24  1  0
 23 25  1  0
 25 26  2  0
 26 27  1  0
 27 28  1  0
 27 29  2  0
 29 30  1  0
M  CHG  1  14   1
M  END
