
     RDKit          3D

 19 19  0  0  0  0  0  0  0  0999 V2000
   -6.8900    0.4260    0.4220 C   0  0  0  0  0  0  0  0  0  0  0  0
   -5.6210    0.7410    0.5420 C   0  0  0  0  0  0  0  0  0  0  0  0
   -4.5780   -0.0780   -0.0560 C   0  0  0  0  0  0  0  0  0  0  0  0
   -3.3040    0.2450    0.0700 C   0  0  0  0  0  0  0  0  0  0  0  0
   -2.2600   -0.5600   -0.5190 C   0  0  0  0  0  0  0  0  0  0  0  0
   -0.9800   -0.2890   -0.4280 C   0  0  0  0  0  0  0  0  0  0  0  0
   -0.4900    0.8380    0.2680 N   0  0  0  0  0  0  0  0  0  0  0  0
    0.9130    1.0730    0.3280 C   0  0  0  0  0  0  0  0  0  0  0  0
    1.3260    2.2980    1.0920 C   0  0  0  0  0  0  0  0  0  0  0  0
    1.7680    0.2800   -0.2410 C   0  0  0  0  0  0  0  0  0  0  0  0
    3.2060    0.5850   -0.1380 C   0  0  0  0  0  0  0  0  0  0  0  0
    3.6040    1.5760    0.4770 O   0  0  0  0  0  0  0  0  0  0  0  0
    4.1670   -0.2380   -0.7330 O   0  0  0  0  0  0  0  0  0  0  0  0
    5.5340    0.0640   -0.6270 C   0  0  0  0  0  0  0  0  0  0  0  0
    1.3660   -0.9240   -0.9930 C   0  0  1  0  0  0  0  0  0  0  0  0
    2.1060   -2.1320   -0.4950 C   0  0  0  0  0  0  0  0  0  0  0  0
    1.9570   -2.5080    0.8530 N   0  0  0  0  0  0  0  0  0  0  0  0
    3.0570   -2.9930   -1.4770 S   0  0  0  0  0  0  0  0  0  0  0  0
   -0.0340   -1.1440   -1.0430 N   0  0  0  0  0  0  0  0  0  0  0  0
  1  2  2  0
  2  3  1  0
  3  4  2  3
  4  5  1  0
  5  6  2  3
  6  7  1  0
  6 19  1  0
  7  8  1  0
  8  9  1  0
  8 10  2  0
 10 11  1  0
 10 15  1  0
 11 12  2  0
 11 13  1  0
 13 14  1  0
 15 16  1  1
 15 19  1  0
 16 17  1  0
 16 18  2  0
M  END
