
     RDKit          3D

 19 19  0  0  0  0  0  0  0  0999 V2000
   -0.9070   -2.6640   -1.6850 C   0  0  0  0  0  0  0  0  0  0  0  0
   -1.5420   -2.1000   -0.7500 C   0  0  0  0  0  0  0  0  0  0  0  0
   -2.9340   -2.9550    0.0380 S   0  0  0  0  0  0  0  0  0  0  0  0
   -4.2120   -1.6570   -0.1860 C   0  0  0  0  0  0  0  0  0  0  0  0
   -5.3100   -1.8800    0.1230 O   0  0  0  0  0  0  0  0  0  0  0  0
   -3.7200   -0.3930   -0.7620 C   0  0  0  0  0  0  0  0  0  0  0  0
   -2.5050    0.0950   -0.1420 N   0  0  0  0  0  0  0  0  0  0  0  0
   -2.4190    1.3200    0.5790 C   0  0  0  0  0  0  0  0  0  0  0  0
   -2.5110    2.5700   -0.2580 C   0  0  0  0  0  0  0  0  0  0  0  0
   -1.4910    2.6230   -1.1930 O   0  0  0  0  0  0  0  0  0  0  0  0
   -1.3120   -0.7380   -0.2650 C   0  0  0  0  0  0  0  0  0  0  0  0
   -0.1440   -0.3320    0.1030 C   0  0  0  0  0  0  0  0  0  0  0  0
    1.1600   -0.8990    0.2070 C   0  0  0  0  0  0  0  0  0  0  0  0
    1.4660   -2.3180    0.0630 C   0  0  0  0  0  0  0  0  0  0  0  0
    2.2000   -0.1110    0.5860 C   0  0  0  0  0  0  0  0  0  0  0  0
    3.5590   -0.5530    0.7260 C   0  0  0  0  0  0  0  0  0  0  0  0
    4.5120    0.3110    1.1030 C   0  0  0  0  0  0  0  0  0  0  0  0
    4.2120    1.6660    1.3730 N   0  0  0  0  0  0  0  0  0  0  0  0
    4.2830    2.6410    0.3970 N   0  0  0  0  0  0  0  0  0  0  0  0
  1  2  2  0
  2  3  1  0
  2 11  1  0
  3  4  1  0
  4  5  2  0
  4  6  1  0
  6  7  1  0
  7  8  1  0
  7 11  1  0
  8  9  1  0
  9 10  1  0
 11 12  2  3
 12 13  1  0
 13 14  1  0
 13 15  2  3
 15 16  1  0
 16 17  2  3
 17 18  1  0
 18 19  1  0
M  END
