
     RDKit          3D

 19 19  0  0  0  0  0  0  0  0999 V2000
    4.8070   -0.0100    2.2010 C   0  0  0  0  0  0  0  0  0  0  0  0
    5.3970   -0.9680    1.5400 C   0  0  0  0  0  0  0  0  0  0  0  0
    5.3560   -1.1890    0.0730 C   0  0  0  0  0  0  0  0  0  0  0  0
    4.5600   -0.2680   -0.6620 N   0  0  0  0  0  0  0  0  0  0  0  0
    3.1640   -0.1280   -0.4720 C   0  0  0  0  0  0  0  0  0  0  0  0
    2.6040   -0.8580    0.3810 O   0  0  0  0  0  0  0  0  0  0  0  0
    2.3680    0.8700   -1.2720 C   0  0  0  0  0  0  0  0  0  0  0  0
    0.6400    0.7610   -0.7620 S   0  0  0  0  0  0  0  0  0  0  0  0
   -0.0870   -0.8000   -1.1970 C   0  0  0  0  0  0  0  0  0  0  0  0
    0.7440   -1.7610   -1.8770 N   0  0  0  0  0  0  0  0  0  0  0  0
   -1.2800   -1.1460   -0.9590 N   0  0  0  0  0  0  0  0  0  0  0  0
   -2.2800   -0.3860   -0.3090 C   0  0  0  0  0  0  0  0  0  0  0  0
   -2.4500    0.8600   -0.7200 C   0  0  0  0  0  0  0  0  0  0  0  0
   -3.3930    1.9300   -0.2710 C   0  0  0  0  0  0  0  0  0  0  0  0
   -4.6330    1.2780    0.2340 C   0  0  0  0  0  0  0  0  0  0  0  0
   -5.7360    1.4900   -0.4770 C   0  0  0  0  0  0  0  0  0  0  0  0
   -4.7130    0.4330    1.4440 C   0  0  0  0  0  0  0  0  0  0  0  0
   -3.4920   -0.1660    1.7490 O   0  0  0  0  0  0  0  0  0  0  0  0
   -3.0620   -1.0360    0.7800 C   0  0  0  0  0  0  0  0  0  0  0  0
  1  2  2  0
  2  3  1  0
  3  4  1  0
  4  5  1  0
  5  6  2  0
  5  7  1  0
  7  8  1  0
  8  9  1  0
  9 10  1  0
  9 11  2  3
 11 12  1  0
 12 13  2  0
 12 19  1  0
 13 14  1  0
 14 15  1  0
 15 16  2  0
 15 17  1  0
 17 18  1  0
 18 19  1  0
M  END
