
     RDKit          3D

 12 13  0  0  0  0  0  0  0  0999 V2000
   -3.3810    2.2080    0.1660 Cl  0  0  0  0  0  0  0  0  0  0  0  0
   -2.3340    0.8060    0.0350 C   0  0  0  0  0  0  0  0  0  0  0  0
   -2.9740   -0.4240   -0.1150 C   0  0  0  0  0  0  0  0  0  0  0  0
   -2.2200   -1.5390   -0.2200 N   0  0  0  0  0  0  0  0  0  0  0  0
   -0.8760   -1.4660   -0.1820 C   0  0  0  0  0  0  0  0  0  0  0  0
   -0.2680   -0.2360   -0.0320 C   0  0  0  0  0  0  0  0  0  0  0  0
    1.1900   -0.1690    0.0090 C   0  0  0  0  0  0  0  0  0  0  0  0
    2.0480   -1.1740   -0.0830 N   0  0  0  0  0  0  0  0  0  0  0  0
    3.2970   -0.7590   -0.0080 N   0  0  0  0  0  0  0  0  0  0  0  0
    3.2210    0.5760    0.1370 C   0  0  0  0  0  0  0  0  0  0  0  0
    1.9290    0.9500    0.1490 N   0  0  0  0  0  0  0  0  0  0  0  0
   -0.9920    0.8940    0.0760 N   0  0  0  0  0  0  0  0  0  0  0  0
  1  2  1  0
  2  3  2  0
  2 12  1  0
  3  4  1  0
  4  5  2  0
  5  6  1  0
  6  7  1  0
  6 12  2  0
  7  8  2  0
  7 11  1  0
  8  9  1  0
  9 10  2  0
 10 11  1  0
M  END
