
     RDKit          3D

 11 11  0  0  0  0  0  0  0  0999 V2000
    2.6240    0.8970    1.3780 O   0  0  0  0  0  0  0  0  0  0  0  0
    2.6800    0.4390    0.0650 C   0  0  0  0  0  0  0  0  0  0  0  0
    2.2250   -0.9930   -0.0480 C   0  0  0  0  0  0  0  0  0  0  0  0
    0.9400   -1.2190    0.3630 O   0  0  0  0  0  0  0  0  0  0  0  0
   -0.0470   -0.5450   -0.3070 C   0  0  1  0  0  0  0  0  0  0  0  0
   -0.9490   -1.4020   -0.9510 O   0  0  0  0  0  0  0  0  0  0  0  0
   -2.1170   -0.6380   -1.0320 C   0  0  0  0  0  0  0  0  0  0  0  0
   -2.2600   -0.2710    0.4530 C   0  0  2  0  0  0  0  0  0  0  0  0
   -3.2650    0.6290    0.6750 O   0  0  0  0  0  0  0  0  0  0  0  0
   -0.8750    0.3070    0.6520 C   0  0  2  0  0  0  0  0  0  0  0  0
   -0.9270    1.6250    0.1560 O   0  0  0  0  0  0  0  0  0  0  0  0
  1  2  1  0
  2  3  1  0
  3  4  1  0
  5  4  1  1
  5  6  1  0
  5 10  1  0
  6  7  1  0
  7  8  1  0
  8  9  1  6
  8 10  1  0
 10 11  1  6
M  END
