
     RDKit          3D

 19 19  0  0  0  0  0  0  0  0999 V2000
    1.9110   -2.0480   -1.9160 C   0  0  0  0  0  0  0  0  0  0  0  0
    1.0690   -1.2710   -1.0650 N   0  0  0  0  0  0  0  0  0  0  0  0
    1.4740   -0.5780   -0.0490 C   0  0  0  0  0  0  0  0  0  0  0  0
    0.5910    0.1680    0.7520 N   0  0  0  0  0  0  0  0  0  0  0  0
   -0.6240    0.6980    0.1410 C   0  0  0  0  0  0  0  0  0  0  0  0
   -0.4710    1.7530   -0.8820 C   0  0  0  0  0  0  0  0  0  0  0  0
    0.1290    2.8460   -0.2530 O   0  0  0  0  0  0  0  0  0  0  0  0
    0.3160    3.9030   -1.1500 C   0  0  0  0  0  0  0  0  0  0  0  0
   -1.7950    0.2060    0.4870 C   0  0  0  0  0  0  0  0  0  0  0  0
   -1.6920   -0.8840    1.5030 C   0  0  0  0  0  0  0  0  0  0  0  0
   -2.3060   -2.0410    1.5820 C   0  0  0  0  0  0  0  0  0  0  0  0
   -3.3070   -2.6830    0.7090 C   0  0  0  0  0  0  0  0  0  0  0  0
   -4.5640   -1.4900    0.2180 S   0  0  0  0  0  0  0  0  0  0  0  0
   -3.7460   -0.3190   -0.9430 C   0  0  0  0  0  0  0  0  0  0  0  0
   -3.0620    0.7200   -0.0700 C   0  0  0  0  0  0  0  0  0  0  0  0
    2.8950   -0.5830    0.2610 C   0  0  0  0  0  0  0  0  0  0  0  0
    3.7260   -1.2440   -0.4330 O   0  0  0  0  0  0  0  0  0  0  0  0
    3.3720    0.1670    1.3670 N   0  0  0  0  0  0  0  0  0  0  0  0
    4.8150    0.1490    1.6650 C   0  0  0  0  0  0  0  0  0  0  0  0
  1  2  1  0
  2  3  2  3
  3  4  1  0
  3 16  1  0
  4  5  1  0
  5  6  1  0
  5  9  2  3
  6  7  1  0
  7  8  1  0
  9 10  1  0
  9 15  1  0
 10 11  2  0
 11 12  1  0
 12 13  1  0
 13 14  1  0
 14 15  1  0
 16 17  2  0
 16 18  1  0
 18 19  1  0
M  END
