
     RDKit          3D

 11 11  0  0  0  0  0  0  0  0999 V2000
    2.4310    2.0820   -0.0330 O   0  0  0  0  0  0  0  0  0  0  0  0
    2.5060    0.7080    0.0780 C   0  0  0  0  0  0  0  0  0  0  0  0
    1.0960    0.1440    0.3150 C   0  0  2  0  0  0  0  0  0  0  0  0
    1.2360   -1.2110    0.4160 O   0  0  0  0  0  0  0  0  0  0  0  0
    0.2650   -1.9450   -0.2250 C   0  0  0  0  0  0  0  0  0  0  0  0
   -1.0560   -1.2000    0.0210 C   0  0  1  0  0  0  0  0  0  0  0  0
   -1.1440   -0.9280    1.3680 O   0  0  0  0  0  0  0  0  0  0  0  0
   -0.9280    0.0570   -0.8150 C   0  0  1  0  0  0  0  0  0  0  0  0
   -2.0460    1.0310   -0.5430 C   0  0  0  0  0  0  0  0  0  0  0  0
   -1.9610    1.5480    0.7400 O   0  0  0  0  0  0  0  0  0  0  0  0
    0.3190    0.5970   -0.7060 O   0  0  0  0  0  0  0  0  0  0  0  0
  1  2  1  0
  3  2  1  6
  3  4  1  0
  3 11  1  0
  4  5  1  0
  5  6  1  0
  6  7  1  1
  6  8  1  0
  8  9  1  1
  8 11  1  0
  9 10  1  0
M  END
