
     RDKit          3D

 28 30  0  0  0  0  0  0  0  0999 V2000
   -5.0380    2.0430   -2.2930 C   0  0  0  0  0  0  0  0  0  0  0  0
   -4.3380    1.0880   -1.4000 C   0  0  0  0  0  0  0  0  0  0  0  0
   -4.6000    1.0580   -0.0970 C   0  0  0  0  0  0  0  0  0  0  0  0
   -5.5600    1.9050    0.6290 C   0  0  0  0  0  0  0  0  0  0  0  0
   -5.4580    1.4640    2.0370 C   0  0  0  0  0  0  0  0  0  0  0  0
   -4.5730    0.5070    2.1080 C   0  0  0  0  0  0  0  0  0  0  0  0
   -4.0110    0.2060    0.8580 N   0  0  0  0  0  0  0  0  0  0  0  0
   -3.0010   -0.7870    0.5260 C   0  0  0  0  0  0  0  0  0  0  0  0
   -1.7810   -0.3690    0.4480 C   0  0  0  0  0  0  0  0  0  0  0  0
   -0.6520   -1.1890    0.1350 C   0  0  0  0  0  0  0  0  0  0  0  0
    0.5630   -0.6200    0.0870 C   0  0  0  0  0  0  0  0  0  0  0  0
    1.8780   -1.2450   -0.2120 C   0  0  0  0  0  0  0  0  0  0  0  0
    2.8130   -0.4150    0.6490 C   0  0  1  0  0  0  0  0  0  0  0  0
    4.2230   -0.3940    0.1130 C   0  0  1  0  0  0  0  0  0  0  0  0
    4.3540    0.1660   -1.2440 C   0  0  0  0  0  0  0  0  0  0  0  0
    5.2490    1.3590   -1.3750 C   0  0  0  0  0  0  0  0  0  0  0  0
    6.7030    1.0520   -1.4250 C   0  0  0  0  0  0  0  0  0  0  0  0
    7.2820    0.4890   -0.1750 C   0  0  0  0  0  0  0  0  0  0  0  0
    6.3750    0.7960    0.9360 N   0  0  0  0  0  0  0  0  0  0  0  0
    5.0950    0.2180    1.1220 C   0  0  0  0  0  0  0  0  0  0  0  0
    4.6510    0.2290    2.2910 O   0  0  0  0  0  0  0  0  0  0  0  0
    2.1670    0.8930    0.6540 C   0  0  0  0  0  0  0  0  0  0  0  0
    2.6940    1.9940    0.9120 O   0  0  0  0  0  0  0  0  0  0  0  0
    0.8360    0.7190    0.3180 O   0  0  0  0  0  0  0  0  0  0  0  0
   -3.4270   -2.1580    0.3100 C   0  0  0  0  0  0  0  0  0  0  0  0
   -2.6890   -3.1120    0.0210 O   0  0  0  0  0  0  0  0  0  0  0  0
   -4.8290   -2.4950    0.4280 N   0  0  0  0  0  0  0  0  0  0  0  0
   -5.2990   -3.8530    0.2200 C   0  0  0  0  0  0  0  0  0  0  0  0
  1  2  1  0
  2  3  2  3
  3  4  1  0
  3  7  1  0
  4  5  1  0
  5  6  2  0
  6  7  1  0
  7  8  1  0
  8  9  2  3
  8 25  1  0
  9 10  1  0
 10 11  2  3
 11 12  1  0
 11 24  1  0
 13 12  1  6
 13 14  1  0
 13 22  1  0
 14 15  1  6
 14 20  1  0
 15 16  1  0
 16 17  1  0
 17 18  1  0
 18 19  1  0
 19 20  1  0
 20 21  2  0
 22 23  2  0
 22 24  1  0
 25 26  2  0
 25 27  1  0
 27 28  1  0
M  END
