
     RDKit          3D

 14 13  0  0  0  0  0  0  0  0999 V2000
    5.0230   -0.6810   -0.3270 C   0  0  0  0  0  0  0  0  0  0  0  0
    3.9540   -0.0790    0.5470 C   0  0  1  0  0  0  0  0  0  0  0  0
    3.8440    1.4000    0.3420 C   0  0  0  0  0  0  0  0  0  0  0  0
    2.6500   -0.7840    0.2790 C   0  0  0  0  0  0  0  0  0  0  0  0
    1.5840   -0.1780   -0.0800 C   0  0  0  0  0  0  0  0  0  0  0  0
    0.2740   -0.7330   -0.3670 C   0  0  0  0  0  0  0  0  0  0  0  0
    0.0100   -2.1550   -0.2670 C   0  0  0  0  0  0  0  0  0  0  0  0
    0.9220   -2.9410    0.0730 O   0  0  0  0  0  0  0  0  0  0  0  0
   -0.7040    0.1130   -0.7310 C   0  0  0  0  0  0  0  0  0  0  0  0
   -2.0640   -0.2710   -1.0520 C   0  0  0  0  0  0  0  0  0  0  0  0
   -3.0890    0.3790   -0.1260 C   0  0  2  0  0  0  0  0  0  0  0  0
   -2.8210   -0.0280    1.3030 C   0  0  0  0  0  0  0  0  0  0  0  0
   -4.4600   -0.1440   -0.5010 C   0  0  0  0  0  0  0  0  0  0  0  0
   -3.0880    1.8690   -0.2400 C   0  0  0  0  0  0  0  0  0  0  0  0
  2  1  1  6
  2  3  1  0
  2  4  1  0
  4  5  2  3
  5  6  1  0
  6  7  1  0
  6  9  2  3
  7  8  2  0
  9 10  1  0
 10 11  1  0
 11 12  1  1
 11 13  1  0
 11 14  1  0
M  END
