
     RDKit          3D

 14 13  0  0  0  0  0  0  0  0999 V2000
   -2.6910    2.2970    0.5030 C   0  0  0  0  0  0  0  0  0  0  0  0
   -3.1960    1.0840    0.3690 C   0  0  0  0  0  0  0  0  0  0  0  0
   -2.3200   -0.0560    0.1100 C   0  0  0  0  0  0  0  0  0  0  0  0
   -2.8570   -1.2580   -0.0190 C   0  0  0  0  0  0  0  0  0  0  0  0
   -4.3380   -1.4420    0.1010 C   0  0  0  0  0  0  0  0  0  0  0  0
   -0.8470    0.1130   -0.0070 C   0  0  0  0  0  0  0  0  0  0  0  0
   -0.1500   -1.1860   -0.2620 C   0  0  0  0  0  0  0  0  0  0  0  0
    1.3400   -1.0400   -0.4080 C   0  0  1  0  0  0  0  0  0  0  0  0
    1.9600   -2.4320   -0.6580 C   0  0  0  0  0  0  0  0  0  0  0  0
    1.4770   -0.4340   -1.8420 C   0  0  0  0  0  0  0  0  0  0  0  0
    2.0350   -0.2520    0.3430 O   0  0  0  0  0  0  0  0  0  0  0  0
    2.1060    1.0080    0.5880 C   0  0  1  0  0  0  0  0  0  0  0  0
    2.0140    1.5580    1.9710 C   0  0  0  0  0  0  0  0  0  0  0  0
    3.4680    1.5260    0.0550 C   0  0  0  0  0  0  0  0  0  0  0  0
  1  2  2  0
  2  3  1  0
  3  4  2  3
  3  6  1  0
  4  5  1  0
  6  7  1  0
  7  8  1  0
  8  9  1  6
  8 10  1  0
  8 11  1  0
 11 12  1  0
 12 13  1  1
 12 14  1  0
M  END
