
     RDKit          3D

 14 13  0  0  0  0  0  0  0  0999 V2000
    2.6210    2.8190   -0.3170 C   0  0  0  0  0  0  0  0  0  0  0  0
    1.3640    2.5680   -0.0100 C   0  0  0  0  0  0  0  0  0  0  0  0
    1.0510    1.5410    1.0160 C   0  0  0  0  0  0  0  0  0  0  0  0
    0.2270    0.4440    0.4470 C   0  0  0  0  0  0  0  0  0  0  0  0
    0.6250   -0.7800    0.4110 C   0  0  0  0  0  0  0  0  0  0  0  0
    1.8000   -1.4810    0.8190 C   0  0  0  0  0  0  0  0  0  0  0  0
    1.8080   -2.8250    0.5890 C   0  0  0  0  0  0  0  0  0  0  0  0
    3.0290   -0.9530    1.4560 C   0  0  0  0  0  0  0  0  0  0  0  0
   -1.1150    0.8220   -0.0840 C   0  0  0  0  0  0  0  0  0  0  0  0
   -1.4150    2.0380   -0.0040 O   0  0  0  0  0  0  0  0  0  0  0  0
   -2.0720   -0.1080   -0.6720 C   0  0  2  0  0  0  0  0  0  0  0  0
   -2.5320   -1.2000    0.2550 C   0  0  0  0  0  0  0  0  0  0  0  0
   -1.5760   -0.7640   -1.9330 C   0  0  0  0  0  0  0  0  0  0  0  0
   -3.3190    0.7050   -1.0580 C   0  0  0  0  0  0  0  0  0  0  0  0
  1  2  2  0
  2  3  1  0
  3  4  1  0
  4  5  2  3
  4  9  1  0
  5  6  1  0
  6  7  2  0
  6  8  1  0
  9 10  2  0
  9 11  1  0
 11 12  1  1
 11 13  1  0
 11 14  1  0
M  END
