
     RDKit          3D

 14 13  0  0  0  0  0  0  0  0999 V2000
    4.6060    0.8400   -0.2480 C   0  0  0  0  0  0  0  0  0  0  0  0
    3.5870   -0.1790   -0.6410 C   0  0  0  0  0  0  0  0  0  0  0  0
    2.2740    0.0540   -0.6470 C   0  0  0  0  0  0  0  0  0  0  0  0
    1.8620    1.4150   -0.2320 C   0  0  0  0  0  0  0  0  0  0  0  0
    1.3750   -1.0200   -1.0560 C   0  0  0  0  0  0  0  0  0  0  0  0
    0.3780   -1.4790   -0.0560 C   0  0  1  0  0  0  0  0  0  0  0  0
    1.0200   -2.0040    1.2030 C   0  0  0  0  0  0  0  0  0  0  0  0
   -0.6750   -0.4790    0.1580 C   0  0  0  0  0  0  0  0  0  0  0  0
   -1.9240   -0.6600   -0.2520 C   0  0  0  0  0  0  0  0  0  0  0  0
   -2.9410    0.3950   -0.0030 C   0  0  2  0  0  0  0  0  0  0  0  0
   -2.7400    0.9210    1.4100 C   0  0  0  0  0  0  0  0  0  0  0  0
   -4.2970   -0.2300   -0.1710 C   0  0  0  0  0  0  0  0  0  0  0  0
   -2.7310    1.5170   -0.9650 C   0  0  0  0  0  0  0  0  0  0  0  0
   -2.8260    2.6740   -0.6150 O   0  0  0  0  0  0  0  0  0  0  0  0
  1  2  1  0
  2  3  2  3
  3  4  1  0
  3  5  1  0
  5  6  1  0
  6  7  1  1
  6  8  1  0
  8  9  2  3
  9 10  1  0
 10 11  1  1
 10 12  1  0
 10 13  1  0
 13 14  2  0
M  END
