
     RDKit          3D

 28 30  0  0  0  0  0  0  0  0999 V2000
   -7.0200   -0.6930   -0.4620 C   0  0  0  0  0  0  0  0  0  0  0  0
   -5.9590    0.2870   -0.6930 C   0  0  0  0  0  0  0  0  0  0  0  0
   -6.3240    1.5910   -0.6260 C   0  0  0  0  0  0  0  0  0  0  0  0
   -5.4200    2.6240   -0.8240 O   0  0  0  0  0  0  0  0  0  0  0  0
   -4.6170   -0.0070   -1.0590 C   0  0  0  0  0  0  0  0  0  0  0  0
   -3.5570   -0.4930   -0.1600 C   0  0  1  0  0  0  0  0  0  0  0  0
   -3.6470   -1.7580    0.5630 C   0  0  0  0  0  0  0  0  0  0  0  0
   -4.6830   -2.0380    1.5680 C   0  0  0  0  0  0  0  0  0  0  0  0
   -4.3580   -3.3600    2.0680 O   0  0  0  0  0  0  0  0  0  0  0  0
   -2.3180   -0.6260   -1.0970 C   0  0  0  0  0  0  0  0  0  0  0  0
   -1.0150   -0.5410   -0.3240 C   0  0  0  0  0  0  0  0  0  0  0  0
   -0.8470    0.8010    0.1190 N   0  0  0  0  0  0  0  0  0  0  0  0
    0.3480    1.3980    0.4820 C   0  0  0  0  0  0  0  0  0  0  0  0
    0.1920    2.6760    0.7990 O   0  0  0  0  0  0  0  0  0  0  0  0
    1.6560    0.9430    0.5800 N   0  0  0  0  0  0  0  0  0  0  0  0
    2.7000    1.9250    0.9480 C   0  0  0  0  0  0  0  0  0  0  0  0
    3.9190    1.7390    0.0750 C   0  0  0  0  0  0  0  0  0  0  0  0
    4.1190    0.4430   -0.4510 N   0  0  0  0  0  0  0  0  0  0  0  0
    5.3710   -0.1850   -0.5900 C   0  0  0  0  0  0  0  0  0  0  0  0
    5.4380   -1.3720   -1.0720 O   0  0  0  0  0  0  0  0  0  0  0  0
    6.6280    0.4600   -0.2060 C   0  0  1  0  0  0  0  0  0  0  0  0
    7.5860   -0.4960    0.5100 C   0  0  0  0  0  0  0  0  0  0  0  0
    7.9160    0.0560   -0.8360 C   0  0  1  0  0  0  0  0  0  0  0  0
    7.9340   -0.9330   -1.9690 C   0  0  0  0  0  0  0  0  0  0  0  0
    2.9480   -0.3360   -0.9050 C   0  0  0  0  0  0  0  0  0  0  0  0
    2.0760   -0.4090    0.3650 C   0  0  0  0  0  0  0  0  0  0  0  0
   -2.1380    1.5560    0.1820 C   0  0  0  0  0  0  0  0  0  0  0  0
   -3.1440    0.6460    0.8210 C   0  0  0  0  0  0  0  0  0  0  0  0
  1  2  1  0
  2  3  2  3
  2  5  1  0
  3  4  1  0
  6  5  1  6
  6  7  1  0
  6 10  1  0
  6 28  1  0
  7  8  1  0
  8  9  1  0
 10 11  1  0
 11 12  1  0
 12 13  1  0
 12 27  1  0
 13 14  2  0
 13 15  1  0
 15 16  1  0
 15 26  1  0
 16 17  1  0
 17 18  1  0
 18 19  1  0
 18 25  1  0
 19 20  2  0
 21 19  1  6
 21 22  1  0
 21 23  1  0
 22 23  1  0
 23 24  1  6
 25 26  1  0
 27 28  1  0
M  END
