
     RDKit          3D

 14 13  0  0  0  0  0  0  0  0999 V2000
    1.4690    4.3850   -1.9840 C   0  0  0  0  0  0  0  0  0  0  0  0
    1.5130    3.1340   -2.3340 C   0  0  0  0  0  0  0  0  0  0  0  0
    1.4470    2.0100   -1.3720 C   0  0  0  0  0  0  0  0  0  0  0  0
    0.2290    1.1340   -1.6000 C   0  0  0  0  0  0  0  0  0  0  0  0
    0.1880    0.0440   -0.6110 C   0  0  0  0  0  0  0  0  0  0  0  0
    1.2060   -0.1060    0.2150 C   0  0  0  0  0  0  0  0  0  0  0  0
    1.1770   -1.1810    1.1790 C   0  0  0  0  0  0  0  0  0  0  0  0
    2.0330   -1.4960    2.0530 C   0  0  0  0  0  0  0  0  0  0  0  0
    3.0380   -1.7470    2.9740 C   0  0  0  0  0  0  0  0  0  0  0  0
   -0.8720   -0.8550   -0.4720 O   0  0  0  0  0  0  0  0  0  0  0  0
   -2.1340   -0.3650   -0.0160 C   0  0  0  0  0  0  0  0  0  0  0  0
   -3.0590   -1.5160    0.0650 C   0  0  0  0  0  0  0  0  0  0  0  0
   -3.6170   -1.8430    1.2400 C   0  0  0  0  0  0  0  0  0  0  0  0
   -3.3510   -2.2930   -1.1860 C   0  0  0  0  0  0  0  0  0  0  0  0
  1  2  2  0
  2  3  1  0
  3  4  1  0
  4  5  1  0
  5  6  2  3
  5 10  1  0
  6  7  1  0
  7  8  2  3
  8  9  1  0
 10 11  1  0
 11 12  1  0
 12 13  2  0
 12 14  1  0
M  END
