
     RDKit          3D

 14 13  0  0  0  0  0  0  0  0999 V2000
    4.2970   -0.3170   -1.6480 C   0  0  0  0  0  0  0  0  0  0  0  0
    2.8740    0.0310   -1.3670 C   0  0  0  0  0  0  0  0  0  0  0  0
    2.3520   -0.3140   -0.2230 C   0  0  0  0  0  0  0  0  0  0  0  0
    3.1890   -1.0450    0.7660 C   0  0  0  0  0  0  0  0  0  0  0  0
    0.9450    0.0270    0.1110 C   0  0  0  0  0  0  0  0  0  0  0  0
    0.4880   -0.3570    1.2530 C   0  0  0  0  0  0  0  0  0  0  0  0
   -0.7380   -0.2550    1.9600 C   0  0  0  0  0  0  0  0  0  0  0  0
   -0.7590   -0.8390    3.1270 O   0  0  0  0  0  0  0  0  0  0  0  0
   -1.9300    0.4100    1.5350 C   0  0  0  0  0  0  0  0  0  0  0  0
   -2.9350   -0.3800    0.7460 C   0  0  1  0  0  0  0  0  0  0  0  0
   -3.4670   -1.5730    1.5060 C   0  0  0  0  0  0  0  0  0  0  0  0
   -4.1070    0.5430    0.4780 C   0  0  0  0  0  0  0  0  0  0  0  0
    0.1950    0.7250   -0.9220 C   0  0  0  0  0  0  0  0  0  0  0  0
    0.7350    2.1300   -1.2070 C   0  0  0  0  0  0  0  0  0  0  0  0
  1  2  1  0
  2  3  2  3
  3  4  1  0
  3  5  1  0
  5  6  2  3
  5 13  1  0
  6  7  1  0
  7  8  2  0
  7  9  1  0
  9 10  1  0
 10 11  1  1
 10 12  1  0
 13 14  1  0
M  END
