
     RDKit          3D

 33 35  0  0  0  0  0  0  0  0999 V2000
   -3.7920    0.4340   -3.4870 C   0  0  0  0  0  0  0  0  0  0  0  0
   -3.2380   -0.9050   -3.0460 C   0  0  0  0  0  0  0  0  0  0  0  0
   -3.3560   -1.1750   -1.5840 C   0  0  0  0  0  0  0  0  0  0  0  0
   -2.6360   -0.1690   -0.7650 N   0  0  0  0  0  0  0  0  0  0  0  0
   -3.4580    0.9110   -0.2850 C   0  0  0  0  0  0  0  0  0  0  0  0
   -4.0840    0.5190    1.0260 C   0  0  0  0  0  0  0  0  0  0  0  0
   -5.0040    1.3220    1.6100 C   0  0  0  0  0  0  0  0  0  0  0  0
   -5.5720    0.9250    2.8200 C   0  0  0  0  0  0  0  0  0  0  0  0
   -5.1980   -0.2680    3.4080 C   0  0  0  0  0  0  0  0  0  0  0  0
   -5.5810   -0.8920    4.5630 C   0  0  0  0  0  0  0  0  0  0  0  0
   -4.8550   -2.0770    4.6310 C   0  0  0  0  0  0  0  0  0  0  0  0
   -4.0560   -2.1550    3.5380 N   0  0  0  0  0  0  0  0  0  0  0  0
   -4.2560   -1.0620    2.7870 C   0  0  0  0  0  0  0  0  0  0  0  0
   -3.6870   -0.6740    1.5840 C   0  0  0  0  0  0  0  0  0  0  0  0
   -1.3070   -0.3390   -0.4470 C   0  0  0  0  0  0  0  0  0  0  0  0
   -0.8660   -1.5420   -0.8530 O   0  0  0  0  0  0  0  0  0  0  0  0
   -0.2760    0.4380    0.2000 C   0  0  1  0  0  0  0  0  0  0  0  0
    0.9430   -0.3930    0.3710 N   0  0  0  0  0  0  0  0  0  0  0  0
    1.6480   -0.8840   -0.7690 C   0  0  0  0  0  0  0  0  0  0  0  0
    1.2800   -0.6030   -1.9390 O   0  0  0  0  0  0  0  0  0  0  0  0
    2.7910   -1.7100   -0.6340 N   0  0  0  0  0  0  0  0  0  0  0  0
    3.5680   -2.2420   -1.7270 C   0  0  0  0  0  0  0  0  0  0  0  0
    4.1600   -1.1130   -2.5120 C   0  0  0  0  0  0  0  0  0  0  0  0
    5.0330   -0.2520   -1.8090 N   0  0  0  0  0  0  0  0  0  0  0  0
    5.8170   -0.7810   -0.7540 C   0  0  1  0  0  0  0  0  0  0  0  0
    7.0300   -1.5260   -1.3240 C   0  0  0  0  0  0  0  0  0  0  0  0
    6.4150    0.3740    0.0630 C   0  0  0  0  0  0  0  0  0  0  0  0
    5.2970    1.0900    0.5540 O   0  0  0  0  0  0  0  0  0  0  0  0
    0.1700    1.5610   -0.7430 C   0  0  0  0  0  0  0  0  0  0  0  0
   -0.0230    2.9130   -0.0890 C   0  0  0  0  0  0  0  0  0  0  0  0
    0.6780    2.9910    1.2490 C   0  0  0  0  0  0  0  0  0  0  0  0
    0.4980    1.8150    2.0310 N   0  0  0  0  0  0  0  0  0  0  0  0
   -0.6290    1.0120    1.5320 C   0  0  0  0  0  0  0  0  0  0  0  0
  1  2  1  0
  2  3  1  0
  3  4  1  0
  4  5  1  0
  4 15  1  0
  5  6  1  0
  6  7  2  0
  6 14  1  0
  7  8  1  0
  8  9  2  0
  9 10  1  0
  9 13  1  0
 10 11  2  0
 11 12  1  0
 12 13  1  0
 13 14  2  0
 15 16  2  0
 15 17  1  0
 17 18  1  1
 17 29  1  0
 17 33  1  0
 18 19  1  0
 19 20  2  0
 19 21  1  0
 21 22  1  0
 22 23  1  0
 23 24  1  0
 24 25  1  0
 25 26  1  6
 25 27  1  0
 27 28  1  0
 29 30  1  0
 30 31  1  0
 31 32  1  0
 32 33  1  0
M  CHG  2  24   1  32   1
M  END
