
     RDKit          3D

 33 35  0  0  0  0  0  0  0  0999 V2000
   12.6530   -1.1760   -1.3330 C   0  0  0  0  0  0  0  0  0  0  0  0
   11.1900   -1.0540   -1.0720 C   0  0  0  0  0  0  0  0  0  0  0  0
   10.3250   -0.5280   -2.0080 C   0  0  0  0  0  0  0  0  0  0  0  0
    8.9720   -0.4190   -1.7580 C   0  0  0  0  0  0  0  0  0  0  0  0
    8.4230   -0.8300   -0.5620 C   0  0  0  0  0  0  0  0  0  0  0  0
    6.9630   -0.7160   -0.2860 C   0  0  0  0  0  0  0  0  0  0  0  0
    6.7250    0.6270    0.3420 C   0  0  0  0  0  0  0  0  0  0  0  0
    5.2650    0.8590    0.6690 C   0  0  0  0  0  0  0  0  0  0  0  0
    4.7590   -0.1930    1.6430 C   0  0  0  0  0  0  0  0  0  0  0  0
    3.3730    0.0580    1.9320 N   0  0  0  0  0  0  0  0  0  0  0  0
    2.3610    0.0570    0.9430 C   0  0  0  0  0  0  0  0  0  0  0  0
    2.6420   -0.1700   -0.2690 O   0  0  0  0  0  0  0  0  0  0  0  0
    0.9600    0.3280    1.3440 C   0  0  0  0  0  0  0  0  0  0  0  0
    0.7260    0.5460    2.5340 O   0  0  0  0  0  0  0  0  0  0  0  0
   -0.0670    0.3330    0.3880 N   0  0  0  0  0  0  0  0  0  0  0  0
   -1.4500    0.5750    0.6100 C   0  0  0  0  0  0  0  0  0  0  0  0
   -1.9980    0.9290    1.8210 C   0  0  0  0  0  0  0  0  0  0  0  0
   -3.3800    1.1350    1.9200 C   0  0  0  0  0  0  0  0  0  0  0  0
   -4.2310    1.0010    0.8520 C   0  0  0  0  0  0  0  0  0  0  0  0
   -5.6670    1.2140    0.9530 C   0  0  0  0  0  0  0  0  0  0  0  0
   -6.1240    1.5410    2.0960 O   0  0  0  0  0  0  0  0  0  0  0  0
   -6.5370    1.0710   -0.1550 N   0  0  0  0  0  0  0  0  0  0  0  0
   -7.9530    1.3130    0.0760 C   0  0  0  0  0  0  0  0  0  0  0  0
   -8.7640    1.1280   -1.1780 C   0  0  1  0  0  0  0  0  0  0  0  0
   -8.6650   -0.2590   -1.7550 C   0  0  0  0  0  0  0  0  0  0  0  0
   -9.6440   -1.0460   -0.9470 C   0  0  1  0  0  0  0  0  0  0  0  0
   -8.9970   -2.0270   -0.0880 N   0  0  0  0  0  0  0  0  0  0  0  0
  -10.4280   -0.0350   -0.1790 C   0  0  0  0  0  0  0  0  0  0  0  0
  -10.1660    1.2290   -0.8330 N   0  0  0  0  0  0  0  0  0  0  0  0
   -3.6480    0.6540   -0.3090 N   0  0  0  0  0  0  0  0  0  0  0  0
   -2.3450    0.4480   -0.4510 C   0  0  0  0  0  0  0  0  0  0  0  0
    9.2920   -1.3580    0.3770 C   0  0  0  0  0  0  0  0  0  0  0  0
   10.6460   -1.4670    0.1270 C   0  0  0  0  0  0  0  0  0  0  0  0
  1  2  1  0
  2  3  2  0
  2 33  1  0
  3  4  1  0
  4  5  2  0
  5  6  1  0
  5 32  1  0
  6  7  1  0
  7  8  1  0
  8  9  1  0
  9 10  1  0
 10 11  1  0
 11 12  2  0
 11 13  1  0
 13 14  2  0
 13 15  1  0
 15 16  1  0
 16 17  2  0
 16 31  1  0
 17 18  1  0
 18 19  2  0
 19 20  1  0
 19 30  1  0
 20 21  2  0
 20 22  1  0
 22 23  1  0
 24 23  1  1
 24 25  1  0
 24 29  1  0
 25 26  1  0
 26 27  1  1
 26 28  1  0
 28 29  1  0
 30 31  2  0
 32 33  2  0
M  CHG  2  27   1  29   1
M  END
