
     RDKit          3D

 33 36  0  0  0  0  0  0  0  0999 V2000
   -3.1920    3.5100    3.4850 C   0  0  0  0  0  0  0  0  0  0  0  0
   -3.1100    2.1070    2.8530 C   0  0  0  0  0  0  0  0  0  0  0  0
   -2.9700    2.3180    1.4410 O   0  0  0  0  0  0  0  0  0  0  0  0
   -4.0470    2.8930    0.7050 C   0  0  0  0  0  0  0  0  0  0  0  0
   -5.1600    3.1500    1.4140 C   0  0  0  0  0  0  0  0  0  0  0  0
   -6.3080    3.7110    0.8020 C   0  0  0  0  0  0  0  0  0  0  0  0
   -7.4770    4.0080    1.4940 N   0  0  0  0  0  0  0  0  0  0  0  0
   -6.1580    3.9440   -0.5740 C   0  0  0  0  0  0  0  0  0  0  0  0
   -7.5880    4.6450   -1.3630 Cl  0  0  0  0  0  0  0  0  0  0  0  0
   -5.0400    3.6760   -1.2510 C   0  0  0  0  0  0  0  0  0  0  0  0
   -3.8590    3.1110   -0.6410 C   0  0  0  0  0  0  0  0  0  0  0  0
   -2.5990    3.0220   -1.3400 C   0  0  0  0  0  0  0  0  0  0  0  0
   -1.8050    1.8180   -1.2960 C   0  0  0  0  0  0  0  0  0  0  0  0
   -0.6940    1.5150   -0.4320 C   0  0  0  0  0  0  0  0  0  0  0  0
   -0.0790    0.4260   -0.6420 N   0  0  0  0  0  0  0  0  0  0  0  0
   -0.2510   -0.4290   -1.4570 C   0  0  0  0  0  0  0  0  0  0  0  0
    0.3560   -1.6230   -1.9630 N   0  0  0  0  0  0  0  0  0  0  0  0
    1.6400   -2.0680   -1.5380 C   0  0  0  0  0  0  0  0  0  0  0  0
    2.2520   -1.3490   -0.5580 N   0  0  0  0  0  0  0  0  0  0  0  0
    3.4980   -1.7350   -0.1580 C   0  0  0  0  0  0  0  0  0  0  0  0
    4.0730   -0.9020    0.8700 N   0  0  0  0  0  0  0  0  0  0  0  0
    5.0940    0.0990    0.6200 C   0  0  0  0  0  0  0  0  0  0  0  0
    3.5540   -1.0860    2.2240 C   0  0  0  0  0  0  0  0  0  0  0  0
    4.1010   -2.7760   -0.7020 C   0  0  0  0  0  0  0  0  0  0  0  0
    3.4800   -3.5750   -1.7460 C   0  0  0  0  0  0  0  0  0  0  0  0
    2.2430   -3.1560   -2.1260 C   0  0  0  0  0  0  0  0  0  0  0  0
    1.5750   -3.7200   -3.2900 C   0  0  0  0  0  0  0  0  0  0  0  0
    1.0500   -4.1620   -4.2380 N   0  0  0  0  0  0  0  0  0  0  0  0
    4.1340   -4.7470   -2.3100 C   0  0  0  0  0  0  0  0  0  0  0  0
    5.0770   -5.4110   -1.4020 N   0  0  0  0  0  0  0  0  0  0  0  0
    5.6060   -4.6000   -0.3580 C   0  0  0  0  0  0  0  0  0  0  0  0
    5.3850   -3.2730   -0.3740 O   0  0  0  0  0  0  0  0  0  0  0  0
   -1.7570    0.3290   -2.3390 S   0  0  0  0  0  0  0  0  0  0  0  0
  1  2  1  0
  2  3  1  0
  3  4  1  0
  4  5  2  0
  4 11  1  0
  5  6  1  0
  6  7  1  0
  6  8  2  0
  8  9  1  0
  8 10  1  0
 10 11  2  0
 11 12  1  0
 12 13  1  0
 13 14  2  0
 13 33  1  0
 14 15  1  0
 15 16  2  0
 16 17  1  0
 16 33  1  0
 17 18  1  0
 18 19  2  0
 18 26  1  0
 19 20  1  0
 20 21  1  0
 20 24  2  0
 21 22  1  0
 21 23  1  0
 24 25  1  0
 24 32  1  0
 25 26  2  0
 25 29  1  0
 26 27  1  0
 27 28  3  0
 29 30  1  0
 30 31  1  0
 31 32  1  0
M  CHG  1  30   1
M  END
