
     RDKit          3D

 33 36  0  0  0  0  0  0  0  0999 V2000
   -5.4370    2.5040    1.8540 C   0  0  0  0  0  0  0  0  0  0  0  0
   -4.0360    2.0420    1.6600 C   0  0  0  0  0  0  0  0  0  0  0  0
   -3.0870    2.5990    2.3890 C   0  0  0  0  0  0  0  0  0  0  0  0
   -1.7200    2.1370    2.1980 C   0  0  0  0  0  0  0  0  0  0  0  0
   -1.4280    1.1980    1.3410 C   0  0  0  0  0  0  0  0  0  0  0  0
   -0.0260    0.7390    1.1510 C   0  0  0  0  0  0  0  0  0  0  0  0
    0.2110   -0.1850    0.3030 O   0  0  0  0  0  0  0  0  0  0  0  0
    1.0550    1.2730    1.8600 N   0  0  0  0  0  0  0  0  0  0  0  0
    2.4180    0.7930    1.6460 C   0  0  0  0  0  0  0  0  0  0  0  0
    3.5170    0.9460    1.9820 N   0  0  0  0  0  0  0  0  0  0  0  0
    4.6020    0.3770    1.6420 N   0  0  0  0  0  0  0  0  0  0  0  0
    5.9380    0.7250    2.2060 C   0  0  0  0  0  0  0  0  0  0  0  0
    4.4830   -0.6200    0.6910 C   0  0  0  0  0  0  0  0  0  0  0  0
    5.2940   -1.3770    0.1230 N   0  0  0  0  0  0  0  0  0  0  0  0
    6.6580   -1.4320    0.3070 N   0  0  0  0  0  0  0  0  0  0  0  0
    7.5840   -1.3810   -0.7520 C   0  0  0  0  0  0  0  0  0  0  0  0
    8.0170   -2.5360   -1.3520 C   0  0  0  0  0  0  0  0  0  0  0  0
    8.9350   -2.5120   -2.4090 C   0  0  0  0  0  0  0  0  0  0  0  0
    9.4010   -1.2750   -2.8370 C   0  0  0  0  0  0  0  0  0  0  0  0
   10.5510   -1.1580   -4.1530 Cl  0  0  0  0  0  0  0  0  0  0  0  0
    8.9810   -0.1140   -2.2530 C   0  0  0  0  0  0  0  0  0  0  0  0
    8.0650   -0.1750   -1.2010 C   0  0  0  0  0  0  0  0  0  0  0  0
    2.6940   -0.5930    0.4010 S   0  0  0  0  0  0  0  0  0  0  0  0
   -2.4480    0.5050    0.5520 C   0  0  1  0  0  0  0  0  0  0  0  0
   -2.5410   -0.9360    1.0870 C   0  0  0  0  0  0  0  0  0  0  0  0
   -3.7460    1.0680    0.6840 N   0  0  0  0  0  0  0  0  0  0  0  0
   -4.8280    0.6700   -0.1900 C   0  0  0  0  0  0  0  0  0  0  0  0
   -5.9830    1.1380   -0.1140 O   0  0  0  0  0  0  0  0  0  0  0  0
   -4.5730   -0.3540   -1.2470 C   0  0  0  0  0  0  0  0  0  0  0  0
   -5.7670   -0.6120   -2.0250 N   0  0  0  0  0  0  0  0  0  0  0  0
   -6.7950   -1.1150   -1.1380 C   0  0  2  0  0  0  0  0  0  0  0  0
   -7.9420   -1.7620   -1.8640 C   0  0  0  0  0  0  0  0  0  0  0  0
   -8.1350   -0.4250   -1.1770 C   0  0  0  0  0  0  0  0  0  0  0  0
  1  2  1  0
  2  3  2  0
  2 26  1  0
  3  4  1  0
  4  5  2  0
  5  6  1  0
  5 24  1  0
  6  7  2  0
  6  8  1  0
  8  9  1  0
  9 10  2  0
  9 23  1  0
 10 11  1  0
 11 12  1  0
 11 13  1  0
 13 14  2  3
 13 23  1  0
 14 15  1  0
 15 16  1  0
 16 17  2  0
 16 22  1  0
 17 18  1  0
 18 19  2  0
 19 20  1  0
 19 21  1  0
 21 22  2  0
 24 25  1  1
 24 26  1  0
 26 27  1  0
 27 28  2  0
 27 29  1  0
 29 30  1  0
 31 30  1  6
 31 32  1  0
 31 33  1  0
 32 33  1  0
M  CHG  1  30   1
M  END
