
     RDKit          3D

 33 36  0  0  0  0  0  0  0  0999 V2000
   -4.1840   -2.4940    0.8230 C   0  0  0  0  0  0  0  0  0  0  0  0
   -4.0390   -1.0110    0.5430 C   0  0  0  0  0  0  0  0  0  0  0  0
   -5.0530   -0.3190    0.1560 N   0  0  0  0  0  0  0  0  0  0  0  0
   -4.9820    0.9270   -0.1780 C   0  0  0  0  0  0  0  0  0  0  0  0
   -6.0060    1.8720   -0.6310 C   0  0  2  0  0  0  0  0  0  0  0  0
   -7.3430    1.1450   -0.4970 C   0  0  0  0  0  0  0  0  0  0  0  0
   -5.7580    2.2340   -1.9410 O   0  0  0  0  0  0  0  0  0  0  0  0
   -6.1310    3.1180    0.2200 C   0  0  0  0  0  0  0  0  0  0  0  0
   -4.9670    3.8900    0.2100 O   0  0  0  0  0  0  0  0  0  0  0  0
   -3.2140    1.2220    0.0760 S   0  0  0  0  0  0  0  0  0  0  0  0
   -2.8120   -0.3670    0.6030 C   0  0  0  0  0  0  0  0  0  0  0  0
   -1.5020   -0.9130    1.0020 C   0  0  0  0  0  0  0  0  0  0  0  0
   -1.3940   -1.8450    2.0080 C   0  0  0  0  0  0  0  0  0  0  0  0
   -0.2550   -2.4340    2.3330 N   0  0  0  0  0  0  0  0  0  0  0  0
    0.9110   -2.1790    1.7150 C   0  0  0  0  0  0  0  0  0  0  0  0
    2.1070   -2.8210    2.1500 N   0  0  0  0  0  0  0  0  0  0  0  0
    0.9070   -1.2350    0.6610 C   0  0  0  0  0  0  0  0  0  0  0  0
    2.0000   -1.0050    0.0560 O   0  0  0  0  0  0  0  0  0  0  0  0
    3.1480   -0.7530   -0.5920 C   0  0  2  0  0  0  0  0  0  0  0  0
    3.3300   -2.1100   -1.4160 C   0  0  0  0  0  0  0  0  0  0  0  0
    4.3980   -0.5650    0.2100 C   0  0  0  0  0  0  0  0  0  0  0  0
    4.9070   -1.6200    0.9260 C   0  0  0  0  0  0  0  0  0  0  0  0
    5.9630   -1.4240    1.8230 C   0  0  0  0  0  0  0  0  0  0  0  0
    6.4350   -2.4640    2.5010 F   0  0  0  0  0  0  0  0  0  0  0  0
    6.5360   -0.1680    2.0300 C   0  0  0  0  0  0  0  0  0  0  0  0
    6.0110    0.8680    1.3010 C   0  0  0  0  0  0  0  0  0  0  0  0
    4.9540    0.6770    0.3940 C   0  0  0  0  0  0  0  0  0  0  0  0
    4.6470    1.7530   -0.5030 N   0  0  0  0  0  0  0  0  0  0  0  0
    3.8500    2.7440   -0.5720 N   0  0  0  0  0  0  0  0  0  0  0  0
    4.0570    3.4580   -1.7150 C   0  0  0  0  0  0  0  0  0  0  0  0
    5.0680    2.8300   -2.3740 C   0  0  0  0  0  0  0  0  0  0  0  0
    5.4200    1.7970   -1.6320 N   0  0  0  0  0  0  0  0  0  0  0  0
   -0.3310   -0.6340    0.3540 C   0  0  0  0  0  0  0  0  0  0  0  0
  1  2  1  0
  2  3  1  0
  2 11  2  0
  3  4  2  0
  4  5  1  0
  4 10  1  0
  5  6  1  6
  5  7  1  0
  5  8  1  0
  8  9  1  0
 10 11  1  0
 11 12  1  0
 12 13  2  0
 12 33  1  0
 13 14  1  0
 14 15  2  0
 15 16  1  0
 15 17  1  0
 17 18  1  0
 17 33  2  0
 18 19  1  0
 19 20  1  6
 19 21  1  0
 21 22  2  0
 21 27  1  0
 22 23  1  0
 23 24  1  0
 23 25  2  0
 25 26  1  0
 26 27  2  0
 27 28  1  0
 28 29  1  0
 28 32  1  0
 29 30  2  0
 30 31  1  0
 31 32  2  0
M  END
