
     RDKit          3D

 33 36  0  0  0  0  0  0  0  0999 V2000
    6.0070   -2.8900    0.4120 C   0  0  0  0  0  0  0  0  0  0  0  0
    4.6310   -2.3490    0.1270 C   0  0  0  0  0  0  0  0  0  0  0  0
    3.6910   -3.4660    0.1560 N   0  0  0  0  0  0  0  0  0  0  0  0
    2.3780   -3.0670   -0.2550 C   0  0  0  0  0  0  0  0  0  0  0  0
    1.7620   -2.2000    0.8550 C   0  0  0  0  0  0  0  0  0  0  0  0
    1.0700   -2.8120    1.8420 C   0  0  0  0  0  0  0  0  0  0  0  0
    0.5730   -1.3660    2.8570 S   0  0  0  0  0  0  0  0  0  0  0  0
    1.3420   -0.1920    1.8400 C   0  0  0  0  0  0  0  0  0  0  0  0
    1.3630    1.1140    2.0160 N   0  0  0  0  0  0  0  0  0  0  0  0
    2.0280    1.9710    1.1130 C   0  0  0  0  0  0  0  0  0  0  0  0
    3.2850    1.7430    0.6900 N   0  0  0  0  0  0  0  0  0  0  0  0
    3.9350    2.5730   -0.1400 C   0  0  0  0  0  0  0  0  0  0  0  0
    5.5630    2.1690   -0.6180 Cl  0  0  0  0  0  0  0  0  0  0  0  0
    3.3480    3.7200   -0.6140 C   0  0  0  0  0  0  0  0  0  0  0  0
    2.0600    3.9990   -0.2100 C   0  0  0  0  0  0  0  0  0  0  0  0
    1.4140    3.1120    0.6540 C   0  0  0  0  0  0  0  0  0  0  0  0
    0.0550    3.3840    1.0420 C   0  0  0  0  0  0  0  0  0  0  0  0
   -0.9700    2.6960    0.5750 C   0  0  0  0  0  0  0  0  0  0  0  0
   -0.8430    1.6000   -0.3830 C   0  0  0  0  0  0  0  0  0  0  0  0
    0.2910    1.2860   -0.8410 O   0  0  0  0  0  0  0  0  0  0  0  0
   -2.0160    0.8910   -0.7990 N   0  0  0  0  0  0  0  0  0  0  0  0
   -3.2770    1.2630   -0.2790 C   0  0  0  0  0  0  0  0  0  0  0  0
   -4.3740    0.6410   -0.6380 N   0  0  0  0  0  0  0  0  0  0  0  0
   -4.2430   -0.4360   -1.5820 C   0  0  0  0  0  0  0  0  0  0  0  0
   -5.5440   -1.1300   -1.7970 C   0  0  0  0  0  0  0  0  0  0  0  0
   -5.9090   -2.2800   -1.1390 C   0  0  0  0  0  0  0  0  0  0  0  0
   -7.1670   -2.6080   -1.6030 C   0  0  0  0  0  0  0  0  0  0  0  0
   -7.5230   -1.6480   -2.5260 C   0  0  0  0  0  0  0  0  0  0  0  0
   -6.5260   -0.8080   -2.5950 O   0  0  0  0  0  0  0  0  0  0  0  0
   -3.3220    2.3340    0.6430 N   0  0  0  0  0  0  0  0  0  0  0  0
   -2.3290    3.0160    1.0660 C   0  0  0  0  0  0  0  0  0  0  0  0
   -2.4860    4.1290    2.0410 C   0  0  0  0  0  0  0  0  0  0  0  0
    1.8810   -0.9080    0.8770 N   0  0  0  0  0  0  0  0  0  0  0  0
  1  2  1  0
  2  3  1  0
  3  4  1  0
  4  5  1  0
  5  6  2  0
  5 33  1  0
  6  7  1  0
  7  8  1  0
  8  9  2  3
  8 33  1  0
  9 10  1  0
 10 11  2  0
 10 16  1  0
 11 12  1  0
 12 13  1  0
 12 14  2  0
 14 15  1  0
 15 16  2  0
 16 17  1  0
 17 18  2  3
 18 19  1  0
 18 31  1  0
 19 20  2  0
 19 21  1  0
 21 22  1  0
 22 23  2  3
 22 30  1  0
 23 24  1  0
 24 25  1  0
 25 26  2  0
 25 29  1  0
 26 27  1  0
 27 28  2  0
 28 29  1  0
 30 31  2  0
 31 32  1  0
M  CHG  1   3   1
M  END
