
     RDKit          3D

 32 35  0  0  0  0  0  0  0  0999 V2000
    6.9420    2.3110   -0.9550 C   0  0  0  0  0  0  0  0  0  0  0  0
    7.1130    1.8900    0.3640 O   0  0  0  0  0  0  0  0  0  0  0  0
    6.3970    0.8710    0.9540 C   0  0  0  0  0  0  0  0  0  0  0  0
    5.4330    0.1990    0.2100 C   0  0  0  0  0  0  0  0  0  0  0  0
    4.6860   -0.8240    0.7390 C   0  0  0  0  0  0  0  0  0  0  0  0
    3.6590   -1.5550   -0.0250 C   0  0  0  0  0  0  0  0  0  0  0  0
    3.5080   -1.0970   -1.3840 N   0  0  0  0  0  0  0  0  0  0  0  0
    2.6020   -2.0130   -2.0750 C   0  0  0  0  0  0  0  0  0  0  0  0
    1.1760   -1.6020   -1.9250 C   0  0  0  0  0  0  0  0  0  0  0  0
    0.3580   -0.8750   -2.6400 N   0  0  0  0  0  0  0  0  0  0  0  0
   -0.8670   -0.6600   -2.2870 C   0  0  0  0  0  0  0  0  0  0  0  0
   -1.3650   -1.1750   -1.1590 C   0  0  0  0  0  0  0  0  0  0  0  0
   -2.5850   -1.1810   -0.4100 C   0  0  0  0  0  0  0  0  0  0  0  0
   -2.5910   -1.8990    0.6470 O   0  0  0  0  0  0  0  0  0  0  0  0
   -3.7270   -0.4730   -0.7600 N   0  0  0  0  0  0  0  0  0  0  0  0
   -3.7110    0.6040   -1.7290 C   0  0  0  0  0  0  0  0  0  0  0  0
   -4.9180    1.5160   -1.5690 C   0  0  0  0  0  0  0  0  0  0  0  0
   -5.0470    2.0210   -0.2440 N   0  0  0  0  0  0  0  0  0  0  0  0
   -5.3240    3.4440   -0.3070 C   0  0  0  0  0  0  0  0  0  0  0  0
   -6.0810    1.4070    0.5280 C   0  0  0  0  0  0  0  0  0  0  0  0
   -5.9100   -0.0700    0.4960 C   0  0  0  0  0  0  0  0  0  0  0  0
   -6.9950   -0.6880    1.1590 C   0  0  0  0  0  0  0  0  0  0  0  0
   -7.0080   -2.0130    1.2300 N   0  0  0  0  0  0  0  0  0  0  0  0
   -6.0570   -2.8100    0.7140 C   0  0  0  0  0  0  0  0  0  0  0  0
   -4.9750   -2.2710    0.0560 C   0  0  0  0  0  0  0  0  0  0  0  0
   -4.9240   -0.8650   -0.0410 C   0  0  0  0  0  0  0  0  0  0  0  0
    0.0840   -2.0520   -0.5630 S   0  0  0  0  0  0  0  0  0  0  0  0
    4.9100   -1.1930    2.0660 C   0  0  0  0  0  0  0  0  0  0  0  0
    3.9720   -2.5020    2.7820 Cl  0  0  0  0  0  0  0  0  0  0  0  0
    5.8620   -0.5330    2.8100 C   0  0  0  0  0  0  0  0  0  0  0  0
    6.6010    0.4910    2.2620 C   0  0  0  0  0  0  0  0  0  0  0  0
    7.5850    1.1520    3.0730 N   0  0  0  0  0  0  0  0  0  0  0  0
  1  2  1  0
  2  3  1  0
  3  4  2  0
  3 31  1  0
  4  5  1  0
  5  6  1  0
  5 28  2  0
  6  7  1  0
  7  8  1  0
  8  9  1  0
  9 10  2  0
  9 27  1  0
 10 11  1  0
 11 12  2  0
 12 13  1  0
 12 27  1  0
 13 14  2  0
 13 15  1  0
 15 16  1  0
 15 26  1  0
 16 17  1  0
 17 18  1  0
 18 19  1  0
 18 20  1  0
 20 21  1  0
 21 22  2  0
 21 26  1  0
 22 23  1  0
 23 24  2  0
 24 25  1  0
 25 26  2  0
 28 29  1  0
 28 30  1  0
 30 31  2  0
 31 32  1  0
M  CHG  1   7   1
M  END
