
     RDKit          3D

 18 20  0  0  0  0  0  0  0  0999 V2000
   -2.9080    2.2690   -1.3800 C   0  0  0  0  0  0  0  0  0  0  0  0
   -3.8250    1.4900   -0.8370 C   0  0  0  0  0  0  0  0  0  0  0  0
   -3.3970    0.2880   -0.1420 C   0  0  0  0  0  0  0  0  0  0  0  0
   -4.3030   -0.4940    0.4030 C   0  0  0  0  0  0  0  0  0  0  0  0
   -6.0190   -0.1520    0.3300 Cl  0  0  0  0  0  0  0  0  0  0  0  0
   -2.0310   -0.0640   -0.0360 N   0  0  0  0  0  0  0  0  0  0  0  0
   -1.0500   -0.8450   -0.7870 C   0  0  0  0  0  0  0  0  0  0  0  0
   -0.2540   -1.0470    0.4800 C   0  0  1  0  0  0  0  0  0  0  0  0
    1.1900   -0.7810    0.3610 C   0  0  0  0  0  0  0  0  0  0  0  0
    1.8320    0.2160   -0.2760 N   0  0  0  0  0  0  0  0  0  0  0  0
    3.1640    0.0580   -0.1190 C   0  0  0  0  0  0  0  0  0  0  0  0
    3.3580   -1.0600    0.6320 N   0  0  0  0  0  0  0  0  0  0  0  0
    2.1510   -1.5350    0.9000 N   0  0  0  0  0  0  0  0  0  0  0  0
    4.7540   -1.2310    0.8000 C   0  0  0  0  0  0  0  0  0  0  0  0
    5.3030   -2.1550    1.4360 O   0  0  0  0  0  0  0  0  0  0  0  0
    5.4230   -0.1490    0.1080 C   0  0  0  0  0  0  0  0  0  0  0  0
    4.4790    0.6040   -0.4300 C   0  0  0  0  0  0  0  0  0  0  0  0
   -0.9710    0.2210    0.9190 C   0  0  0  0  0  0  0  0  0  0  0  0
  1  2  2  0
  2  3  1  0
  3  4  2  3
  3  6  1  0
  4  5  1  0
  6  7  1  0
  6 18  1  0
  7  8  1  0
  8  9  1  6
  8 18  1  0
  9 10  1  0
  9 13  2  0
 10 11  2  0
 11 12  1  0
 11 17  1  0
 12 13  1  0
 12 14  1  0
 14 15  2  0
 14 16  1  0
 16 17  2  0
M  END
