
     RDKit          3D

 18 19  0  0  0  0  0  0  0  0999 V2000
   -4.4730    0.7500    0.6760 C   0  0  0  0  0  0  0  0  0  0  0  0
   -3.6350    0.2040   -0.4430 C   0  0  0  0  0  0  0  0  0  0  0  0
   -2.1990    0.1880   -0.0790 C   0  0  0  0  0  0  0  0  0  0  0  0
   -1.8620    0.6070    1.0530 O   0  0  0  0  0  0  0  0  0  0  0  0
   -1.1860   -0.2940   -0.9900 C   0  0  0  0  0  0  0  0  0  0  0  0
   -1.5940   -0.7670   -2.2770 C   0  0  0  0  0  0  0  0  0  0  0  0
   -1.9280   -1.1710   -3.3310 N   0  0  0  0  0  0  0  0  0  0  0  0
    0.0800   -0.2850   -0.6120 C   0  0  0  0  0  0  0  0  0  0  0  0
    1.1410   -0.7710   -1.5200 C   0  0  0  0  0  0  0  0  0  0  0  0
    2.4120   -0.7670   -1.1540 C   0  0  0  0  0  0  0  0  0  0  0  0
    2.7170   -0.2770    0.1460 N   0  0  0  0  0  0  0  0  0  0  0  0
    4.0720   -0.2590    0.5730 C   0  0  0  0  0  0  0  0  0  0  0  0
    5.3910   -0.8140   -0.4340 Cl  0  0  0  0  0  0  0  0  0  0  0  0
    4.3600    0.2030    1.7980 C   0  0  0  0  0  0  0  0  0  0  0  0
    3.3480    0.6720    2.6770 N   0  0  0  0  0  0  0  0  0  0  0  0
    2.0940    0.6950    2.3830 C   0  0  0  0  0  0  0  0  0  0  0  0
    1.7210    0.1970    1.0430 C   0  0  0  0  0  0  0  0  0  0  0  0
    0.4840    0.1850    0.6670 N   0  0  0  0  0  0  0  0  0  0  0  0
  1  2  1  0
  2  3  1  0
  3  4  2  0
  3  5  1  0
  5  6  1  0
  5  8  2  3
  6  7  3  0
  8  9  1  0
  8 18  1  0
  9 10  2  0
 10 11  1  0
 11 12  1  0
 11 17  1  0
 12 13  1  0
 12 14  2  0
 14 15  1  0
 15 16  2  0
 16 17  1  0
 17 18  2  0
M  END
