
     RDKit          3D

 18 20  0  0  0  0  0  0  0  0999 V2000
    5.9310   -1.0730    1.1960 Cl  0  0  0  0  0  0  0  0  0  0  0  0
    4.6070   -0.4320    0.2420 C   0  0  0  0  0  0  0  0  0  0  0  0
    3.3730   -0.8790    0.2930 C   0  0  0  0  0  0  0  0  0  0  0  0
    2.5220   -0.1250   -0.6290 C   0  0  0  0  0  0  0  0  0  0  0  0
    1.0500   -0.3840   -0.8160 C   0  0  0  0  0  0  0  0  0  0  0  0
    0.4010   -0.1410    0.4170 N   0  0  0  0  0  0  0  0  0  0  0  0
    0.3590    1.2100    0.8520 C   0  0  0  0  0  0  0  0  0  0  0  0
   -0.7810    2.0050    0.2260 C   0  0  0  0  0  0  0  0  0  0  0  0
   -1.9210    1.1570   -0.2270 C   0  0  0  0  0  0  0  0  0  0  0  0
   -2.0320   -0.0130    0.7370 C   0  0  1  0  0  0  0  0  0  0  0  0
   -3.2420   -0.8370    0.4650 C   0  0  0  0  0  0  0  0  0  0  0  0
   -4.3070   -0.9680    1.3080 N   0  0  0  0  0  0  0  0  0  0  0  0
   -5.2140   -1.7870    0.7460 C   0  0  0  0  0  0  0  0  0  0  0  0
   -4.7160   -2.1510   -0.4170 O   0  0  0  0  0  0  0  0  0  0  0  0
   -3.5510   -1.5980   -0.5970 N   0  0  0  0  0  0  0  0  0  0  0  0
   -0.7810   -0.8720    0.7020 C   0  0  0  0  0  0  0  0  0  0  0  0
    3.2710    0.7470   -1.1990 N   0  0  0  0  0  0  0  0  0  0  0  0
    4.6350    0.6710   -0.7410 C   0  0  0  0  0  0  0  0  0  0  0  0
  1  2  1  0
  2  3  2  0
  2 18  1  0
  3  4  1  0
  4  5  1  0
  4 17  2  0
  5  6  1  0
  6  7  1  0
  6 16  1  0
  7  8  1  0
  8  9  1  0
  9 10  1  0
 10 11  1  6
 10 16  1  0
 11 12  1  0
 11 15  2  0
 12 13  2  0
 13 14  1  0
 14 15  1  0
 17 18  1  0
M  END
