
     RDKit          3D

 17 19  0  0  0  0  0  0  0  0999 V2000
   -2.5130   -2.8580    0.4550 C   0  0  0  0  0  0  0  0  0  0  0  0
   -2.9060   -1.4860    0.4720 N   0  0  0  0  0  0  0  0  0  0  0  0
   -4.2820   -1.0260    0.6360 C   0  0  0  0  0  0  0  0  0  0  0  0
   -4.2280    0.4830    0.7250 C   0  0  0  0  0  0  0  0  0  0  0  0
   -2.9530    0.7810    0.0930 N   0  0  0  0  0  0  0  0  0  0  0  0
   -2.6750    1.9920   -0.6490 C   0  0  0  0  0  0  0  0  0  0  0  0
   -2.0910   -0.3090    0.3400 C   0  0  0  0  0  0  0  0  0  0  0  0
   -0.7940   -0.2800    0.4320 C   0  0  0  0  0  0  0  0  0  0  0  0
    0.1220    0.8460    0.3170 C   0  0  0  0  0  0  0  0  0  0  0  0
    1.3490    0.3760    0.4830 C   0  0  0  0  0  0  0  0  0  0  0  0
    2.5500    1.0830    0.4560 O   0  0  0  0  0  0  0  0  0  0  0  0
    3.4660    0.7320   -0.5630 C   0  0  1  0  0  0  0  0  0  0  0  0
    4.7500    1.5080   -0.5690 C   0  0  0  0  0  0  0  0  0  0  0  0
    5.4620    0.1970   -0.9220 C   0  0  0  0  0  0  0  0  0  0  0  0
    4.2800   -0.5130   -0.2660 C   0  0  0  0  0  0  0  0  0  0  0  0
    1.2730   -1.0340    0.7050 N   0  0  0  0  0  0  0  0  0  0  0  0
    0.0640   -1.4150    0.6790 N   0  0  0  0  0  0  0  0  0  0  0  0
  1  2  1  0
  2  3  1  0
  2  7  1  0
  3  4  1  0
  4  5  1  0
  5  6  1  0
  5  7  1  0
  7  8  2  3
  8  9  1  0
  8 17  1  0
  9 10  2  0
 10 11  1  0
 10 16  1  0
 12 11  1  1
 12 13  1  0
 12 15  1  0
 13 14  1  0
 14 15  1  0
 16 17  2  0
M  END
