
     RDKit          3D

 18 20  0  0  0  0  0  0  0  0999 V2000
    6.4080    0.6920   -1.6330 Cl  0  0  0  0  0  0  0  0  0  0  0  0
    4.9520    0.6590   -0.6500 C   0  0  0  0  0  0  0  0  0  0  0  0
    3.7790    0.4520   -1.2660 C   0  0  0  0  0  0  0  0  0  0  0  0
    2.5990    0.4290   -0.4420 C   0  0  0  0  0  0  0  0  0  0  0  0
    1.2910    0.2080   -1.0560 C   0  0  0  0  0  0  0  0  0  0  0  0
    1.1690    0.0260   -2.3840 N   0  0  0  0  0  0  0  0  0  0  0  0
   -0.0380   -0.1800   -2.9650 C   0  0  0  0  0  0  0  0  0  0  0  0
   -1.1610   -0.2060   -2.2110 N   0  0  0  0  0  0  0  0  0  0  0  0
   -1.0530   -0.0250   -0.8840 C   0  0  0  0  0  0  0  0  0  0  0  0
   -2.2160   -0.0430   -0.0350 N   0  0  0  0  0  0  0  0  0  0  0  0
   -2.2620    0.1350    1.4010 C   0  0  0  0  0  0  0  0  0  0  0  0
   -3.1650   -1.0310    1.8060 C   0  0  0  0  0  0  0  0  0  0  0  0
   -4.2500   -0.9400    0.7420 C   0  0  0  0  0  0  0  0  0  0  0  0
   -3.5910   -0.2450   -0.4460 C   0  0  0  0  0  0  0  0  0  0  0  0
    0.1540    0.1760   -0.3370 N   0  0  0  0  0  0  0  0  0  0  0  0
    2.6670    0.6030    0.8620 C   0  0  0  0  0  0  0  0  0  0  0  0
    3.9400    0.8320    1.5760 C   0  0  0  0  0  0  0  0  0  0  0  0
    5.0330    0.8410    0.7100 O   0  0  0  0  0  0  0  0  0  0  0  0
  1  2  1  0
  2  3  2  0
  2 18  1  0
  3  4  1  0
  4  5  1  0
  4 16  2  0
  5  6  2  0
  5 15  1  0
  6  7  1  0
  7  8  2  0
  8  9  1  0
  9 10  1  0
  9 15  2  0
 10 11  1  0
 10 14  1  0
 11 12  1  0
 12 13  1  0
 13 14  1  0
 16 17  1  0
 17 18  1  0
M  END
