
     RDKit          3D

 18 19  0  0  0  0  0  0  0  0999 V2000
    4.9190    1.7900    0.3670 C   0  0  0  0  0  0  0  0  0  0  0  0
    4.2660    0.5380    0.1170 N   0  0  0  0  0  0  0  0  0  0  0  0
    4.7720   -0.7600    0.3860 C   0  0  0  0  0  0  0  0  0  0  0  0
    2.9180    0.6470   -0.4890 C   0  0  0  0  0  0  0  0  0  0  0  0
    2.8320    1.3490   -2.0660 Cl  0  0  0  0  0  0  0  0  0  0  0  0
    1.9800    0.1910    0.2630 C   0  0  0  0  0  0  0  0  0  0  0  0
    0.5600    0.1150    0.0450 C   0  0  0  0  0  0  0  0  0  0  0  0
   -0.1660   -0.4350    1.0630 C   0  0  0  0  0  0  0  0  0  0  0  0
   -1.6030   -0.5740    0.9780 C   0  0  0  0  0  0  0  0  0  0  0  0
   -2.3090   -1.0860    1.9280 N   0  0  0  0  0  0  0  0  0  0  0  0
   -3.7310   -1.2460    1.9000 C   0  0  0  0  0  0  0  0  0  0  0  0
   -4.2050   -1.3810    0.4900 C   0  0  0  0  0  0  0  0  0  0  0  0
   -3.6760   -0.2780   -0.2930 N   0  0  0  0  0  0  0  0  0  0  0  0
   -4.4460    0.6190   -1.0980 C   0  0  0  0  0  0  0  0  0  0  0  0
   -2.2540   -0.1050   -0.2380 C   0  0  0  0  0  0  0  0  0  0  0  0
   -1.5750    0.4080   -1.1870 N   0  0  0  0  0  0  0  0  0  0  0  0
   -0.1380    0.5600   -1.1300 C   0  0  0  0  0  0  0  0  0  0  0  0
    0.4410    1.0760   -2.1130 O   0  0  0  0  0  0  0  0  0  0  0  0
  1  2  1  0
  2  3  1  0
  2  4  1  0
  4  5  1  0
  4  6  2  3
  6  7  1  0
  7  8  2  0
  7 17  1  0
  8  9  1  0
  9 10  2  0
  9 15  1  0
 10 11  1  0
 11 12  1  0
 12 13  1  0
 13 14  1  0
 13 15  1  0
 15 16  2  0
 16 17  1  0
 17 18  2  0
M  END
