
     RDKit          3D

 18 20  0  0  0  0  0  0  0  0999 V2000
    3.3920   -0.4930   -2.1600 C   0  0  0  0  0  0  0  0  0  0  0  0
    3.0510    0.1210   -1.0090 C   0  0  0  0  0  0  0  0  0  0  0  0
    1.6690    0.1840   -0.6280 C   0  0  0  0  0  0  0  0  0  0  0  0
    1.2530    0.7560    0.4610 C   0  0  0  0  0  0  0  0  0  0  0  0
    2.2030    1.3950    1.4030 C   0  0  0  0  0  0  0  0  0  0  0  0
    2.1270    0.6230    3.0240 Cl  0  0  0  0  0  0  0  0  0  0  0  0
   -0.1960    0.7740    0.8030 C   0  0  2  0  0  0  0  0  0  0  0  0
   -0.4770   -0.0710    1.9940 C   0  0  0  0  0  0  0  0  0  0  0  0
   -1.7610   -0.8190    2.0160 C   0  0  0  0  0  0  0  0  0  0  0  0
   -2.2330   -1.2660    3.0600 O   0  0  0  0  0  0  0  0  0  0  0  0
   -2.4880   -1.0390    0.8030 N   0  0  0  0  0  0  0  0  0  0  0  0
   -3.5440   -1.7410    0.3670 N   0  0  0  0  0  0  0  0  0  0  0  0
   -3.7240   -1.4880   -0.9780 C   0  0  0  0  0  0  0  0  0  0  0  0
   -2.7210   -0.5890   -1.3570 C   0  0  0  0  0  0  0  0  0  0  0  0
   -2.0700    0.2010   -2.2930 C   0  0  0  0  0  0  0  0  0  0  0  0
   -1.0360    0.8210   -1.6290 N   0  0  0  0  0  0  0  0  0  0  0  0
   -1.0100    0.4640   -0.3580 N   0  0  0  0  0  0  0  0  0  0  0  0
   -2.0190   -0.3690   -0.2290 C   0  0  0  0  0  0  0  0  0  0  0  0
  1  2  2  0
  2  3  1  0
  3  4  2  3
  4  5  1  0
  7  4  1  6
  5  6  1  0
  7  8  1  0
  7 17  1  0
  8  9  1  0
  9 10  2  0
  9 11  1  0
 11 12  1  0
 11 18  1  0
 12 13  2  0
 13 14  1  0
 14 15  1  0
 14 18  2  0
 15 16  2  0
 16 17  1  0
 17 18  1  0
M  END
