
     RDKit          3D

 25 27  0  0  0  0  0  0  0  0999 V2000
    4.3100   -1.2100   -1.9030 O   0  0  0  0  0  0  0  0  0  0  0  0
    4.0240    0.1500   -1.8940 C   0  0  0  0  0  0  0  0  0  0  0  0
    3.1040    0.5040   -0.7180 C   0  0  1  0  0  0  0  0  0  0  0  0
    1.9630   -0.2190   -0.8900 O   0  0  0  0  0  0  0  0  0  0  0  0
    1.0410   -0.0690    0.1770 C   0  0  1  0  0  0  0  0  0  0  0  0
   -0.0670   -0.7710   -0.2600 O   0  0  0  0  0  0  0  0  0  0  0  0
   -1.2010   -0.0400   -0.4210 C   0  0  1  0  0  0  0  0  0  0  0  0
   -1.7290   -0.0690   -1.8520 C   0  0  2  0  0  0  0  0  0  0  0  0
   -1.5310    1.1640   -2.4690 O   0  0  0  0  0  0  0  0  0  0  0  0
   -3.2020   -0.3890   -1.9090 C   0  0  2  0  0  0  0  0  0  0  0  0
   -3.7050    0.0220   -3.1400 O   0  0  0  0  0  0  0  0  0  0  0  0
   -3.9180    0.3920   -0.8670 C   0  0  0  0  0  0  0  0  0  0  0  0
   -4.9570    1.2170   -0.8150 N   0  0  0  0  0  0  0  0  0  0  0  0
   -5.1210    1.6110    0.4630 C   0  0  0  0  0  0  0  0  0  0  0  0
   -4.1470    1.0050    1.2190 C   0  0  0  0  0  0  0  0  0  0  0  0
   -3.4180    0.2620    0.4010 N   0  0  0  0  0  0  0  0  0  0  0  0
   -2.2700   -0.6200    0.4710 C   0  0  2  0  0  0  0  0  0  0  0  0
   -1.7600   -0.8780    1.8410 C   0  0  0  0  0  0  0  0  0  0  0  0
   -2.7320   -1.4110    2.6890 O   0  0  0  0  0  0  0  0  0  0  0  0
    1.7120   -0.6200    1.3920 C   0  0  1  0  0  0  0  0  0  0  0  0
    2.2950   -1.8520    1.0160 O   0  0  0  0  0  0  0  0  0  0  0  0
    2.9070    0.3000    1.6860 C   0  0  1  0  0  0  0  0  0  0  0  0
    3.5140   -0.0590    2.8860 O   0  0  0  0  0  0  0  0  0  0  0  0
    3.8680    0.1140    0.5320 C   0  0  2  0  0  0  0  0  0  0  0  0
    4.9680    0.9420    0.6700 O   0  0  0  0  0  0  0  0  0  0  0  0
  1  2  1  0
  3  2  1  6
  3  4  1  0
  3 24  1  0
  4  5  1  0
  5  6  1  6
  5 20  1  0
  7  6  1  6
  7  8  1  0
  7 17  1  0
  8  9  1  1
  8 10  1  0
 10 11  1  6
 10 12  1  0
 12 13  2  0
 12 16  1  0
 13 14  1  0
 14 15  2  0
 15 16  1  0
 16 17  1  0
 17 18  1  1
 18 19  1  0
 20 21  1  6
 20 22  1  0
 22 23  1  1
 22 24  1  0
 24 25  1  1
M  END
