
     RDKit          3D

 25 26  0  0  0  0  0  0  0  0999 V2000
    5.9170    0.5360    1.4640 N   0  0  0  0  0  0  0  0  0  0  0  0
    4.6120    0.0450    1.6490 C   0  0  0  0  0  0  0  0  0  0  0  0
    4.3820   -0.6730    2.6610 O   0  0  0  0  0  0  0  0  0  0  0  0
    3.5360    0.3160    0.7560 N   0  0  0  0  0  0  0  0  0  0  0  0
    2.2350   -0.2150    1.0060 C   0  0  0  0  0  0  0  0  0  0  0  0
    2.0930   -0.9190    2.0310 O   0  0  0  0  0  0  0  0  0  0  0  0
    1.0780    0.0400    0.1040 C   0  0  1  0  0  0  0  0  0  0  0  0
    1.3280   -0.7540   -1.1360 C   0  0  0  0  0  0  0  0  0  0  0  0
    1.2700   -2.0480   -0.5460 O   0  0  0  0  0  0  0  0  0  0  0  0
    0.2320   -1.9510    0.3520 C   0  0  1  0  0  0  0  0  0  0  0  0
    0.0030   -0.6270    0.6360 O   0  0  0  0  0  0  0  0  0  0  0  0
   -1.0770   -2.5100   -0.1880 C   0  0  1  0  0  0  0  0  0  0  0  0
   -1.0020   -4.0180   -0.0380 C   0  0  0  0  0  0  0  0  0  0  0  0
    0.0070   -4.5710   -0.8120 O   0  0  0  0  0  0  0  0  0  0  0  0
   -2.1270   -2.0860    0.6400 O   0  0  0  0  0  0  0  0  0  0  0  0
   -2.9120   -1.1110    0.0840 C   0  0  0  0  0  0  0  0  0  0  0  0
   -3.0950   -0.0090    1.1190 C   0  0  0  0  0  0  0  0  0  0  0  0
   -3.0930    1.3650    0.4940 C   0  0  2  0  0  0  0  0  0  0  0  0
   -3.2040    1.2670   -0.8980 O   0  0  0  0  0  0  0  0  0  0  0  0
   -1.8850    2.1890    0.9070 C   0  0  0  0  0  0  0  0  0  0  0  0
   -1.1790    2.8450   -0.2020 C   0  0  0  0  0  0  0  0  0  0  0  0
   -0.1040    2.0570   -0.9050 C   0  0  1  0  0  0  0  0  0  0  0  0
   -0.7230    1.1910   -1.7670 O   0  0  0  0  0  0  0  0  0  0  0  0
    0.5170    3.0080   -1.7650 O   0  0  0  0  0  0  0  0  0  0  0  0
    0.9370    1.4980   -0.0340 C   0  0  0  0  0  0  0  0  0  0  0  0
  1  2  1  0
  2  3  2  0
  2  4  1  0
  4  5  1  0
  5  6  2  0
  7  5  1  1
  7  8  1  0
  7 11  1  0
  7 25  1  0
  8  9  1  0
 10  9  1  6
 10 11  1  0
 10 12  1  0
 12 13  1  1
 12 15  1  0
 13 14  1  0
 15 16  1  0
 16 17  1  0
 17 18  1  0
 18 19  1  6
 18 20  1  0
 20 21  1  0
 21 22  1  0
 22 23  1  6
 22 24  1  0
 22 25  1  0
M  END
