
     RDKit          3D

 24 25  0  0  0  0  0  0  0  0999 V2000
   -3.0520   -2.6860   -0.1940 C   0  0  0  0  0  0  0  0  0  0  0  0
   -3.1140   -1.1810    0.1000 C   0  0  2  0  0  0  0  0  0  0  0  0
   -2.7190   -1.0320    1.5760 C   0  0  0  0  0  0  0  0  0  0  0  0
   -4.3810   -0.7730   -0.0420 O   0  0  0  0  0  0  0  0  0  0  0  0
   -4.7330    0.0270   -1.0600 C   0  0  1  0  0  0  0  0  0  0  0  0
   -5.2880    1.3350   -0.4760 C   0  0  0  0  0  0  0  0  0  0  0  0
   -6.4010    0.9970    0.3120 O   0  0  0  0  0  0  0  0  0  0  0  0
   -3.7960    0.2770   -2.0260 O   0  0  0  0  0  0  0  0  0  0  0  0
   -2.6200    0.6980   -1.4440 C   0  0  0  0  0  0  0  0  0  0  0  0
   -2.0660   -0.5240   -0.7110 C   0  0  1  0  0  0  0  0  0  0  0  0
   -0.9400   -0.0260    0.0910 N   0  0  0  0  0  0  0  0  0  0  0  0
    0.3910   -0.3930   -0.1830 C   0  0  0  0  0  0  0  0  0  0  0  0
    0.6160   -1.1650   -1.1390 O   0  0  0  0  0  0  0  0  0  0  0  0
    1.5010    0.0710    0.5730 N   0  0  0  0  0  0  0  0  0  0  0  0
    2.8630   -0.3420    0.2440 C   0  0  2  0  0  0  0  0  0  0  0  0
    3.4640   -1.0150    1.4170 C   0  0  0  0  0  0  0  0  0  0  0  0
    3.1860   -2.2370    1.5840 O   0  0  0  0  0  0  0  0  0  0  0  0
    4.2930   -0.3550    2.3030 O   0  0  0  0  0  0  0  0  0  0  0  0
    4.8150    0.9270    2.1070 C   0  0  0  0  0  0  0  0  0  0  0  0
    4.0470    1.7100    1.0480 C   0  0  0  0  0  0  0  0  0  0  0  0
    3.7130    0.8430   -0.1380 C   0  0  2  0  0  0  0  0  0  0  0  0
    3.1330    1.6250   -1.1120 O   0  0  0  0  0  0  0  0  0  0  0  0
    5.0170    0.2960   -0.6990 C   0  0  0  0  0  0  0  0  0  0  0  0
    5.8800    1.3450   -1.0430 O   0  0  0  0  0  0  0  0  0  0  0  0
  2  1  1  6
  2  3  1  0
  2  4  1  0
  2 10  1  0
  4  5  1  0
  5  6  1  1
  5  8  1  0
  6  7  1  0
  8  9  1  0
  9 10  1  0
 10 11  1  1
 11 12  1  0
 12 13  2  0
 12 14  1  0
 15 14  1  1
 15 16  1  0
 15 21  1  0
 16 17  2  0
 16 18  1  0
 18 19  1  0
 19 20  1  0
 20 21  1  0
 21 22  1  6
 21 23  1  0
 23 24  1  0
M  END
