
     RDKit          3D

 25 26  0  0  0  0  0  0  0  0999 V2000
   -5.6190    2.9240    0.4070 C   0  0  0  0  0  0  0  0  0  0  0  0
   -5.9480    1.6690   -0.4190 C   0  0  1  0  0  0  0  0  0  0  0  0
   -4.6550    1.0030   -0.6750 C   0  0  0  0  0  0  0  0  0  0  0  0
   -4.4230   -0.1970   -0.2250 C   0  0  0  0  0  0  0  0  0  0  0  0
   -3.1870   -0.8220   -0.4750 O   0  0  0  0  0  0  0  0  0  0  0  0
   -2.1260   -0.6350    0.3960 N   0  0  0  0  0  0  0  0  0  0  0  0
   -0.7850   -0.7710   -0.0530 C   0  0  0  0  0  0  0  0  0  0  0  0
   -0.5900   -1.0630   -1.2430 O   0  0  0  0  0  0  0  0  0  0  0  0
    0.3300   -0.5640    0.8950 C   0  0  0  0  0  0  0  0  0  0  0  0
    0.1220   -0.2770    2.1060 O   0  0  0  0  0  0  0  0  0  0  0  0
    1.6890   -0.6770    0.4940 N   0  0  0  0  0  0  0  0  0  0  0  0
    2.7870   -0.4840    1.3850 C   0  0  0  0  0  0  0  0  0  0  0  0
    4.1260   -0.6280    0.7820 C   0  0  1  0  0  0  0  0  0  0  0  0
    5.1430   -0.4220    1.7390 O   0  0  0  0  0  0  0  0  0  0  0  0
    4.3910   -1.8810    0.0190 C   0  0  0  0  0  0  0  0  0  0  0  0
    5.2290   -1.5590   -1.0440 O   0  0  0  0  0  0  0  0  0  0  0  0
    5.6710   -0.2540   -0.8780 C   0  0  1  0  0  0  0  0  0  0  0  0
    6.1040    0.4020   -2.1470 C   0  0  0  0  0  0  0  0  0  0  0  0
    6.5180    1.7120   -1.8100 O   0  0  0  0  0  0  0  0  0  0  0  0
    4.4110    0.4140   -0.3050 C   0  0  0  0  0  0  0  0  0  0  0  0
   -5.4230   -0.9120    0.5350 C   0  0  0  0  0  0  0  0  0  0  0  0
   -5.2040   -2.2030    1.0310 O   0  0  0  0  0  0  0  0  0  0  0  0
   -6.5990   -0.3650    0.7950 C   0  0  0  0  0  0  0  0  0  0  0  0
   -7.5770   -1.0420    1.5290 O   0  0  0  0  0  0  0  0  0  0  0  0
   -6.8480    0.9100    0.3210 O   0  0  0  0  0  0  0  0  0  0  0  0
  2  1  1  1
  2  3  1  0
  2 25  1  0
  3  4  2  0
  4  5  1  0
  4 21  1  0
  5  6  1  0
  6  7  1  0
  7  8  2  0
  7  9  1  0
  9 10  2  0
  9 11  1  0
 11 12  1  0
 12 13  1  0
 13 14  1  1
 13 15  1  0
 13 20  1  0
 15 16  1  0
 16 17  1  0
 17 18  1  6
 17 20  1  0
 18 19  1  0
 21 22  1  0
 21 23  2  0
 23 24  1  0
 23 25  1  0
M  END
