
     RDKit          3D

 24 26  0  0  0  0  0  0  0  0999 V2000
    0.4180   -3.6890    0.4260 O   0  0  0  0  0  0  0  0  0  0  0  0
    0.6640   -2.4320    0.5590 C   0  0  0  0  0  0  0  0  0  0  0  0
   -0.2200   -1.7120    1.4030 N   0  0  0  0  0  0  0  0  0  0  0  0
   -0.9200   -0.5090    1.0830 C   0  0  0  0  0  0  0  0  0  0  0  0
   -0.7940    0.4170    1.9630 O   0  0  0  0  0  0  0  0  0  0  0  0
   -1.7290   -0.2880   -0.1250 C   0  0  1  0  0  0  0  0  0  0  0  0
   -2.2900   -1.5100   -0.7770 C   0  0  0  0  0  0  0  0  0  0  0  0
   -3.5270   -1.7890   -0.2030 O   0  0  0  0  0  0  0  0  0  0  0  0
   -3.6580   -1.4100    1.1170 C   0  0  0  0  0  0  0  0  0  0  0  0
   -3.6170    0.1200    1.3000 C   0  0  0  0  0  0  0  0  0  0  0  0
   -2.9670    0.6070    0.0930 C   0  0  2  0  0  0  0  0  0  0  0  0
   -3.8320    0.4710   -1.0220 O   0  0  0  0  0  0  0  0  0  0  0  0
   -2.1140    1.7500   -0.0450 C   0  0  0  0  0  0  0  0  0  0  0  0
   -1.2520    0.8470   -0.9520 C   0  0  1  0  0  0  0  0  0  0  0  0
    0.0890    1.0220   -0.8100 O   0  0  0  0  0  0  0  0  0  0  0  0
    0.6080    2.0650   -1.5700 C   0  0  0  0  0  0  0  0  0  0  0  0
    2.1010    1.8360   -1.6470 C   0  0  0  0  0  0  0  0  0  0  0  0
    2.3910    0.5030   -1.3930 O   0  0  0  0  0  0  0  0  0  0  0  0
    2.8660    0.3470   -0.1160 C   0  0  2  0  0  0  0  0  0  0  0  0
    4.3180    0.8290    0.0110 C   0  0  0  0  0  0  0  0  0  0  0  0
    4.6690    0.6150    1.3490 O   0  0  0  0  0  0  0  0  0  0  0  0
    2.7790   -1.0320    0.4370 C   0  0  1  0  0  0  0  0  0  0  0  0
    2.7070   -0.9400    1.8240 O   0  0  0  0  0  0  0  0  0  0  0  0
    1.7820   -1.8760   -0.1370 N   0  0  0  0  0  0  0  0  0  0  0  0
  1  2  2  0
  2  3  1  0
  2 24  1  0
  3  4  1  0
  4  5  2  0
  4  6  1  0
  6  7  1  6
  6 11  1  0
  6 14  1  0
  7  8  1  0
  8  9  1  0
  9 10  1  0
 10 11  1  0
 11 12  1  6
 11 13  1  0
 14 13  1  1
 14 15  1  0
 15 16  1  0
 16 17  1  0
 17 18  1  0
 18 19  1  0
 19 20  1  6
 19 22  1  0
 20 21  1  0
 22 23  1  1
 22 24  1  0
M  END
