
     RDKit          3D

 25 26  0  0  0  0  0  0  0  0999 V2000
    2.4090    0.3640   -1.3400 O   0  0  0  0  0  0  0  0  0  0  0  0
    2.7040    0.6660   -0.1370 C   0  0  0  0  0  0  0  0  0  0  0  0
    2.1100   -0.1360    0.8790 N   0  0  0  0  0  0  0  0  0  0  0  0
    1.2110   -1.2460    0.5600 C   0  0  1  0  0  0  0  0  0  0  0  0
    1.7240   -2.5610    1.0450 C   0  0  0  0  0  0  0  0  0  0  0  0
    1.0820   -2.7820    2.2440 O   0  0  0  0  0  0  0  0  0  0  0  0
   -0.2370   -2.3290    2.0370 C   0  0  0  0  0  0  0  0  0  0  0  0
   -0.1220   -1.0960    1.2090 C   0  0  2  0  0  0  0  0  0  0  0  0
   -1.2590   -0.9470    0.2200 C   0  0  1  0  0  0  0  0  0  0  0  0
   -1.0390    0.2390   -0.5990 N   0  0  0  0  0  0  0  0  0  0  0  0
   -1.9440    0.6370   -1.6140 C   0  0  0  0  0  0  0  0  0  0  0  0
   -2.9550   -0.0960   -1.7670 O   0  0  0  0  0  0  0  0  0  0  0  0
   -1.7750    1.8130   -2.4650 C   0  0  1  0  0  0  0  0  0  0  0  0
   -2.8520    1.8930   -3.3460 O   0  0  0  0  0  0  0  0  0  0  0  0
   -1.7860    3.1160   -1.6880 C   0  0  0  0  0  0  0  0  0  0  0  0
   -2.9810    3.2770   -0.9890 O   0  0  0  0  0  0  0  0  0  0  0  0
   -1.3780   -2.1090   -0.7060 C   0  0  0  0  0  0  0  0  0  0  0  0
   -2.6490   -2.8010   -0.3130 C   0  0  0  0  0  0  0  0  0  0  0  0
   -3.2650   -2.0320    0.6750 O   0  0  0  0  0  0  0  0  0  0  0  0
   -2.5570   -0.8700    0.9120 C   0  0  0  0  0  0  0  0  0  0  0  0
   -3.0110    0.0820    1.6270 O   0  0  0  0  0  0  0  0  0  0  0  0
    3.5980    1.7710    0.1530 C   0  0  0  0  0  0  0  0  0  0  0  0
    4.1110    2.4760   -0.9230 O   0  0  0  0  0  0  0  0  0  0  0  0
    3.9290    2.1180    1.3630 C   0  0  0  0  0  0  0  0  0  0  0  0
    4.8010    3.2000    1.5840 O   0  0  0  0  0  0  0  0  0  0  0  0
  1  2  2  0
  2  3  1  0
  2 22  1  0
  4  3  1  1
  4  5  1  0
  4  8  1  0
  5  6  1  0
  6  7  1  0
  8  7  1  6
  8  9  1  0
  9 10  1  6
  9 17  1  0
  9 20  1  0
 10 11  1  0
 11 12  2  0
 11 13  1  0
 13 14  1  6
 13 15  1  0
 15 16  1  0
 17 18  1  0
 18 19  1  0
 19 20  1  0
 20 21  2  0
 22 23  1  0
 22 24  2  3
 24 25  1  0
M  END
