
     RDKit          3D

 17 18  0  0  0  0  0  0  0  0999 V2000
   -2.2330    3.5050    0.3070 C   0  0  0  0  0  0  0  0  0  0  0  0
   -1.2410    2.5530    0.8880 C   0  0  0  0  0  0  0  0  0  0  0  0
   -1.3420    1.2070    0.2920 N   0  0  2  0  0  0  0  0  0  0  0  0
   -2.2820    0.4990    1.1200 C   0  0  0  0  0  0  0  0  0  0  0  0
   -3.0430   -0.3870    0.1500 C   0  0  0  0  0  0  0  0  0  0  0  0
   -2.0710   -1.3930   -0.4570 C   0  0  1  0  0  0  0  0  0  0  0  0
   -2.8870   -2.7170   -0.4390 C   0  0  0  0  0  0  0  0  0  0  0  0
   -1.8150   -1.1860   -1.9070 C   0  0  0  0  0  0  0  0  0  0  0  0
   -0.9660   -1.6660    0.3690 N   0  0  0  0  0  0  0  0  0  0  0  0
    0.1410   -0.8060    0.4840 C   0  0  1  0  0  0  0  0  0  0  0  0
    1.3530   -1.3880   -0.2030 C   0  0  0  0  0  0  0  0  0  0  0  0
    2.6070   -0.6650   -0.1810 C   0  0  2  0  0  0  0  0  0  0  0  0
    3.2470   -0.3390    1.1390 C   0  0  0  0  0  0  0  0  0  0  0  0
    4.5840    0.2390    0.6410 C   0  0  0  0  0  0  0  0  0  0  0  0
    4.3060    0.6240   -0.8060 C   0  0  0  0  0  0  0  0  0  0  0  0
    2.8180    0.5210   -0.9160 N   0  0  0  0  0  0  0  0  0  0  0  0
   -0.0520    0.6420    0.2390 C   0  0  0  0  0  0  0  0  0  0  0  0
  1  2  1  0
  3  2  1  1
  3  4  1  0
  3 17  1  0
  4  5  1  0
  5  6  1  0
  6  7  1  6
  6  8  1  0
  6  9  1  0
  9 10  1  0
 10 11  1  6
 10 17  1  0
 12 11  1  1
 12 13  1  0
 12 16  1  0
 13 14  1  0
 14 15  1  0
 15 16  1  0
M  CHG  3   3   1   9   1  16   1
M  END
