
     RDKit          3D

 42 46  0  0  0  0  0  0  0  0999 V2000
   -0.9940    9.9910    1.4020 C   0  0  0  0  0  0  0  0  0  0  0  0
   -0.9200    8.8600    0.5060 N   0  0  0  0  0  0  0  0  0  0  0  0
   -1.3740    7.6820    1.2320 C   0  0  0  0  0  0  0  0  0  0  0  0
   -1.3340    6.4620    0.3890 C   0  0  0  0  0  0  0  0  0  0  0  0
   -2.3920    6.0650   -0.3950 C   0  0  0  0  0  0  0  0  0  0  0  0
   -1.9920    4.9080   -1.0220 C   0  0  0  0  0  0  0  0  0  0  0  0
   -0.7100    4.6360   -0.6040 C   0  0  0  0  0  0  0  0  0  0  0  0
    0.1010    3.5170   -1.0070 C   0  0  0  0  0  0  0  0  0  0  0  0
   -0.2690    2.1960   -0.9390 C   0  0  0  0  0  0  0  0  0  0  0  0
   -1.5310    1.8870   -0.4330 C   0  0  0  0  0  0  0  0  0  0  0  0
   -2.3070    0.8600   -0.2510 C   0  0  0  0  0  0  0  0  0  0  0  0
   -3.6710    0.9390    0.3820 C   0  0  0  0  0  0  0  0  0  0  0  0
   -4.1690    1.9840    0.8480 O   0  0  0  0  0  0  0  0  0  0  0  0
   -4.2470   -0.3400    0.3450 N   0  0  0  0  0  0  0  0  0  0  0  0
   -5.5770   -0.6820    0.8690 C   0  0  0  0  0  0  0  0  0  0  0  0
   -5.4610   -1.0950    2.3050 C   0  0  0  0  0  0  0  0  0  0  0  0
   -6.4590   -1.4340    2.9780 O   0  0  0  0  0  0  0  0  0  0  0  0
   -4.2010   -1.1170    2.9590 N   0  0  0  0  0  0  0  0  0  0  0  0
   -4.0790   -1.5230    4.3670 C   0  0  0  0  0  0  0  0  0  0  0  0
   -3.3340   -1.2200   -0.2730 C   0  0  0  0  0  0  0  0  0  0  0  0
   -3.4290   -2.5710   -0.5710 C   0  0  0  0  0  0  0  0  0  0  0  0
   -2.4380   -3.2810   -1.2150 C   0  0  0  0  0  0  0  0  0  0  0  0
   -1.2970   -2.6170   -1.5820 C   0  0  0  0  0  0  0  0  0  0  0  0
   -1.2000   -1.2700   -1.2850 C   0  0  0  0  0  0  0  0  0  0  0  0
   -2.1720   -0.5380   -0.6400 C   0  0  0  0  0  0  0  0  0  0  0  0
   -0.3720   -3.5550   -2.2530 C   0  0  0  0  0  0  0  0  0  0  0  0
    0.5930   -3.2170   -2.9800 O   0  0  0  0  0  0  0  0  0  0  0  0
   -0.8340   -4.9150   -1.8790 C   0  0  0  0  0  0  0  0  0  0  0  0
   -2.3030   -4.6990   -1.6390 C   0  0  0  0  0  0  0  0  0  0  0  0
    0.8290    1.3810   -1.3600 N   0  0  0  0  0  0  0  0  0  0  0  0
    1.5590    0.5950   -0.4120 C   0  0  0  0  0  0  0  0  0  0  0  0
    1.1840    0.6660    0.7860 O   0  0  0  0  0  0  0  0  0  0  0  0
    2.6920   -0.2600   -0.7860 C   0  0  0  0  0  0  0  0  0  0  0  0
    3.3100   -0.9420    0.4200 C   0  0  0  0  0  0  0  0  0  0  0  0
    4.4830   -1.8250   -0.0130 C   0  0  1  0  0  0  0  0  0  0  0  0
    5.1000   -2.5000    1.1850 C   0  0  0  0  0  0  0  0  0  0  0  0
    6.0590   -3.5790    0.8410 C   0  0  0  0  0  0  0  0  0  0  0  0
    5.5140   -4.5990   -0.1120 C   0  0  0  0  0  0  0  0  0  0  0  0
    4.9890   -3.9180   -1.3230 C   0  0  1  0  0  0  0  0  0  0  0  0
    4.3050   -4.9950   -2.1760 C   0  0  0  0  0  0  0  0  0  0  0  0
    4.1010   -2.7550   -1.1030 C   0  0  0  0  0  0  0  0  0  0  0  0
   -0.3720    5.6060    0.2420 O   0  0  0  0  0  0  0  0  0  0  0  0
  1  2  1  0
  2  3  1  0
  3  4  1  0
  4  5  2  0
  4 42  1  0
  5  6  1  0
  6  7  2  0
  7  8  1  0
  7 42  1  0
  8  9  2  3
  9 10  1  0
  9 30  1  0
 10 11  2  3
 11 12  1  0
 11 25  1  0
 12 13  2  0
 12 14  1  0
 14 15  1  0
 14 20  1  0
 15 16  1  0
 16 17  2  0
 16 18  1  0
 18 19  1  0
 20 21  2  0
 20 25  1  0
 21 22  1  0
 22 23  2  0
 22 29  1  0
 23 24  1  0
 23 26  1  0
 24 25  2  0
 26 27  2  0
 26 28  1  0
 28 29  1  0
 30 31  1  0
 31 32  2  0
 31 33  1  0
 33 34  1  0
 35 34  1  1
 35 36  1  0
 35 41  1  0
 36 37  1  0
 37 38  1  0
 38 39  1  0
 39 40  1  1
 39 41  1  0
M  END
