
     RDKit          3D

 41 44  0  0  0  0  0  0  0  0999 V2000
    7.0970    4.3820   -1.0260 C   0  0  0  0  0  0  0  0  0  0  0  0
    6.3310    3.2520   -0.6920 O   0  0  0  0  0  0  0  0  0  0  0  0
    6.8560    2.1430   -0.0720 C   0  0  0  0  0  0  0  0  0  0  0  0
    8.1980    2.0900    0.2590 C   0  0  0  0  0  0  0  0  0  0  0  0
    8.6970    0.9460    0.8890 C   0  0  0  0  0  0  0  0  0  0  0  0
    7.8880   -0.1280    1.1880 C   0  0  0  0  0  0  0  0  0  0  0  0
    8.4150   -1.2490    1.8140 O   0  0  0  0  0  0  0  0  0  0  0  0
    6.5510   -0.0340    0.8400 C   0  0  0  0  0  0  0  0  0  0  0  0
    6.0300    1.0790    0.2190 C   0  0  0  0  0  0  0  0  0  0  0  0
    4.6010    1.1360   -0.1350 C   0  0  0  0  0  0  0  0  0  0  0  0
    3.8500    0.1410    0.1420 N   0  0  0  0  0  0  0  0  0  0  0  0
    2.5120    0.1740   -0.1800 N   0  0  0  0  0  0  0  0  0  0  0  0
    1.6740    1.3580   -0.0450 C   0  0  0  0  0  0  0  0  0  0  0  0
    0.9520    1.6360   -1.3450 C   0  0  0  0  0  0  0  0  0  0  0  0
    0.9950    0.5980   -2.2210 O   0  0  0  0  0  0  0  0  0  0  0  0
    0.8060   -0.6740   -1.7120 C   0  0  2  0  0  0  0  0  0  0  0  0
   -0.5490   -0.8720   -1.1620 C   0  0  0  0  0  0  0  0  0  0  0  0
   -1.3410    0.0970   -1.0680 O   0  0  0  0  0  0  0  0  0  0  0  0
   -1.0250   -2.1670   -0.7140 C   0  0  0  0  0  0  0  0  0  0  0  0
   -0.1990   -3.2580   -0.8690 C   0  0  0  0  0  0  0  0  0  0  0  0
   -0.6190   -4.5210   -0.4720 C   0  0  0  0  0  0  0  0  0  0  0  0
    0.2900   -5.6850   -0.6480 C   0  0  0  0  0  0  0  0  0  0  0  0
   -1.8770   -4.6390    0.0750 C   0  0  0  0  0  0  0  0  0  0  0  0
   -2.3320   -5.9810    0.5000 C   0  0  0  0  0  0  0  0  0  0  0  0
   -2.6930   -3.5570    0.2260 C   0  0  0  0  0  0  0  0  0  0  0  0
   -4.0390   -3.7550    0.8230 C   0  0  0  0  0  0  0  0  0  0  0  0
   -2.2880   -2.3200   -0.1600 C   0  0  0  0  0  0  0  0  0  0  0  0
   -3.1010   -1.1600   -0.0240 N   0  0  0  0  0  0  0  0  0  0  0  0
   -3.0710   -0.3660    1.1290 C   0  0  0  0  0  0  0  0  0  0  0  0
   -2.3030   -0.6790    2.0830 O   0  0  0  0  0  0  0  0  0  0  0  0
   -3.8970    0.8490    1.3190 C   0  0  0  0  0  0  0  0  0  0  0  0
   -4.7160    1.0940    0.1800 O   0  0  0  0  0  0  0  0  0  0  0  0
   -5.5490    2.2090    0.2190 C   0  0  0  0  0  0  0  0  0  0  0  0
   -5.5960    3.0560    1.3070 C   0  0  0  0  0  0  0  0  0  0  0  0
   -6.4230    4.1600    1.3450 C   0  0  0  0  0  0  0  0  0  0  0  0
   -7.2540    4.4770    0.2830 C   0  0  0  0  0  0  0  0  0  0  0  0
   -8.1100    5.6100    0.3060 N   0  0  0  0  0  0  0  0  0  0  0  0
   -7.2010    3.6230   -0.8030 C   0  0  0  0  0  0  0  0  0  0  0  0
   -6.3760    2.5190   -0.8410 C   0  0  0  0  0  0  0  0  0  0  0  0
   -6.3350    1.4600   -2.2340 Cl  0  0  0  0  0  0  0  0  0  0  0  0
    1.8810   -1.0270   -0.6830 C   0  0  0  0  0  0  0  0  0  0  0  0
  1  2  1  0
  2  3  1  0
  3  4  2  0
  3  9  1  0
  4  5  1  0
  5  6  2  0
  6  7  1  0
  6  8  1  0
  8  9  2  0
  9 10  1  0
 10 11  2  3
 11 12  1  0
 12 13  1  0
 12 41  1  0
 13 14  1  0
 14 15  1  0
 15 16  1  0
 16 17  1  1
 16 41  1  0
 17 18  2  0
 17 19  1  0
 19 20  2  0
 19 27  1  0
 20 21  1  0
 21 22  1  0
 21 23  2  0
 23 24  1  0
 23 25  1  0
 25 26  1  0
 25 27  2  0
 27 28  1  0
 28 29  1  0
 29 30  2  0
 29 31  1  0
 31 32  1  0
 32 33  1  0
 33 34  2  0
 33 39  1  0
 34 35  1  0
 35 36  2  0
 36 37  1  0
 36 38  1  0
 38 39  2  0
 39 40  1  0
M  END
