
     RDKit          3D

 42 45  0  0  0  0  0  0  0  0999 V2000
    1.4260   -5.3050   -0.1290 C   0  0  0  0  0  0  0  0  0  0  0  0
    0.2810   -4.6650    0.0340 C   0  0  0  0  0  0  0  0  0  0  0  0
   -0.4470   -4.1070   -1.1290 C   0  0  0  0  0  0  0  0  0  0  0  0
   -0.5920   -2.6600   -1.0170 N   0  0  2  0  0  0  0  0  0  0  0  0
    0.6120   -1.9630   -0.7170 C   0  0  0  0  0  0  0  0  0  0  0  0
    1.5450   -1.7250   -1.8240 C   0  0  0  0  0  0  0  0  0  0  0  0
    1.2540   -2.1690   -3.0910 C   0  0  0  0  0  0  0  0  0  0  0  0
    2.1840   -1.9300   -4.0850 C   0  0  0  0  0  0  0  0  0  0  0  0
    3.3830   -1.2670   -3.8470 C   0  0  0  0  0  0  0  0  0  0  0  0
    3.6180   -0.8440   -2.5560 C   0  0  0  0  0  0  0  0  0  0  0  0
    2.7190   -1.0550   -1.5090 C   0  0  0  0  0  0  0  0  0  0  0  0
    3.0210   -0.5730   -0.1700 C   0  0  0  0  0  0  0  0  0  0  0  0
    2.3320    0.3220    0.4210 O   0  0  0  0  0  0  0  0  0  0  0  0
    4.1380   -1.1210    0.5110 N   0  0  0  0  0  0  0  0  0  0  0  0
    4.5540   -0.7280    1.8490 C   0  0  0  0  0  0  0  0  0  0  0  0
    5.2320    0.5780    1.7340 C   0  0  0  0  0  0  0  0  0  0  0  0
    4.5880    1.7160    2.1450 C   0  0  0  0  0  0  0  0  0  0  0  0
    5.1710    2.9660    2.0570 C   0  0  0  0  0  0  0  0  0  0  0  0
    6.4510    3.1200    1.5420 C   0  0  0  0  0  0  0  0  0  0  0  0
    7.0140    4.3860    1.4630 O   0  0  0  0  0  0  0  0  0  0  0  0
    8.3050    4.5830    0.9420 C   0  0  0  0  0  0  0  0  0  0  0  0
    7.1100    1.9650    1.1230 C   0  0  0  0  0  0  0  0  0  0  0  0
    6.5080    0.7280    1.2190 C   0  0  0  0  0  0  0  0  0  0  0  0
   -1.5180   -2.4770    0.1120 C   0  0  0  0  0  0  0  0  0  0  0  0
   -2.2320   -1.2020    0.0960 C   0  0  0  0  0  0  0  0  0  0  0  0
   -2.1120   -0.2290   -0.8480 C   0  0  0  0  0  0  0  0  0  0  0  0
   -2.8150    0.9680   -0.8150 C   0  0  0  0  0  0  0  0  0  0  0  0
   -3.6960    1.2070    0.2340 C   0  0  0  0  0  0  0  0  0  0  0  0
   -3.8350    0.2420    1.1990 C   0  0  0  0  0  0  0  0  0  0  0  0
   -3.1300   -0.9310    1.1410 C   0  0  0  0  0  0  0  0  0  0  0  0
   -3.3330   -1.9300    2.2000 C   0  0  0  0  0  0  0  0  0  0  0  0
   -4.2490   -2.7770    2.0000 O   0  0  0  0  0  0  0  0  0  0  0  0
   -2.6050   -1.9900    3.3590 O   0  0  0  0  0  0  0  0  0  0  0  0
   -4.7240    0.4580    2.2820 O   0  0  0  0  0  0  0  0  0  0  0  0
   -5.8520    1.2810    1.9800 C   0  0  0  0  0  0  0  0  0  0  0  0
   -5.3370    2.5500    1.3660 C   0  0  2  0  0  0  0  0  0  0  0  0
   -6.5330    3.3780    0.9630 C   0  0  0  0  0  0  0  0  0  0  0  0
   -7.4280    2.7170   -0.0260 C   0  0  0  0  0  0  0  0  0  0  0  0
   -8.5790    3.6420   -0.3420 C   0  0  0  0  0  0  0  0  0  0  0  0
   -8.6560    4.7600    0.2270 O   0  0  0  0  0  0  0  0  0  0  0  0
   -9.5580    3.3020   -1.2400 O   0  0  0  0  0  0  0  0  0  0  0  0
   -4.4220    2.3780    0.3210 O   0  0  0  0  0  0  0  0  0  0  0  0
  1  2  2  0
  2  3  1  0
  4  3  1  1
  4  5  1  0
  4 24  1  0
  5  6  1  0
  6  7  2  0
  6 11  1  0
  7  8  1  0
  8  9  2  0
  9 10  1  0
 10 11  2  0
 11 12  1  0
 12 13  2  0
 12 14  1  0
 14 15  1  0
 15 16  1  0
 16 17  2  0
 16 23  1  0
 17 18  1  0
 18 19  2  0
 19 20  1  0
 19 22  1  0
 20 21  1  0
 22 23  2  0
 24 25  1  0
 25 26  2  0
 25 30  1  0
 26 27  1  0
 27 28  2  0
 28 29  1  0
 28 42  1  0
 29 30  2  0
 29 34  1  0
 30 31  1  0
 31 32  2  0
 31 33  1  0
 34 35  1  0
 35 36  1  0
 36 37  1  6
 36 42  1  0
 37 38  1  0
 38 39  1  0
 39 40  2  0
 39 41  1  0
M  CHG  1   4   1
M  END
