
     RDKit          3D

 25 27  0  0  0  0  0  0  0  0999 V2000
    7.5090    0.0170    1.5710 C   0  0  0  0  0  0  0  0  0  0  0  0
    8.0460   -0.2190    0.1760 C   0  0  0  0  0  0  0  0  0  0  0  0
    7.4630    0.6680   -0.7280 O   0  0  0  0  0  0  0  0  0  0  0  0
    6.1110    0.6790   -0.9790 C   0  0  0  0  0  0  0  0  0  0  0  0
    5.2940   -0.2080   -0.3510 C   0  0  0  0  0  0  0  0  0  0  0  0
    3.9310   -0.1830   -0.6140 C   0  0  0  0  0  0  0  0  0  0  0  0
    3.4140    0.7270   -1.4980 C   0  0  0  0  0  0  0  0  0  0  0  0
    2.0140    0.8110   -1.8150 C   0  0  0  0  0  0  0  0  0  0  0  0
    1.5770    1.6530   -2.6410 O   0  0  0  0  0  0  0  0  0  0  0  0
    1.0850   -0.0660   -1.1940 N   0  0  0  0  0  0  0  0  0  0  0  0
   -0.3360    0.0390   -1.5350 C   0  0  0  0  0  0  0  0  0  0  0  0
   -1.0900   -1.0200   -0.7180 C   0  0  1  0  0  0  0  0  0  0  0  0
   -0.8350   -0.6960    0.7060 C   0  0  0  0  0  0  0  0  0  0  0  0
   -1.9760   -0.1360    1.4410 C   0  0  0  0  0  0  0  0  0  0  0  0
   -3.2200   -0.2470    1.0350 C   0  0  0  0  0  0  0  0  0  0  0  0
   -4.1050    0.4450    2.0370 C   0  0  0  0  0  0  0  0  0  0  0  0
   -5.1600    1.2740    1.4120 C   0  0  0  0  0  0  0  0  0  0  0  0
   -6.2360    0.6530    0.6500 C   0  0  0  0  0  0  0  0  0  0  0  0
   -6.5950   -0.7620    0.8600 C   0  0  0  0  0  0  0  0  0  0  0  0
   -5.9450   -1.5900   -0.2230 C   0  0  0  0  0  0  0  0  0  0  0  0
   -4.6750   -1.6280   -0.6040 C   0  0  0  0  0  0  0  0  0  0  0  0
   -3.4780   -0.9430   -0.1720 N   0  0  0  0  0  0  0  0  0  0  0  0
   -2.4940   -1.0450   -1.1850 C   0  0  0  0  0  0  0  0  0  0  0  0
    4.2640    1.5810   -2.0920 N   0  0  0  0  0  0  0  0  0  0  0  0
    5.5800    1.6080   -1.8830 C   0  0  0  0  0  0  0  0  0  0  0  0
  1  2  1  0
  2  3  1  0
  3  4  1  0
  4  5  2  0
  4 25  1  0
  5  6  1  0
  6  7  2  0
  7  8  1  0
  7 24  1  0
  8  9  2  0
  8 10  1  0
 10 11  1  0
 12 11  1  6
 12 13  1  0
 12 23  1  0
 13 14  1  0
 14 15  2  0
 15 16  1  0
 15 22  1  0
 16 17  1  0
 17 18  1  0
 18 19  1  0
 19 20  1  0
 20 21  2  0
 21 22  1  0
 22 23  1  0
 24 25  2  0
M  END
