
     RDKit          3D

 24 26  0  0  0  0  0  0  0  0999 V2000
   -1.0930   -0.4310   -0.1230 O   0  0  0  0  0  0  0  0  0  0  0  0
   -1.6310    0.5730   -0.5990 C   0  0  0  0  0  0  0  0  0  0  0  0
   -3.0470    0.4960   -1.0640 C   0  0  0  0  0  0  0  0  0  0  0  0
   -3.5630   -0.8690   -0.8470 N   0  0  0  0  0  0  0  0  0  0  0  0
   -4.2200   -1.3010    0.3840 C   0  0  0  0  0  0  0  0  0  0  0  0
   -5.5150   -1.9900   -0.0200 C   0  0  0  0  0  0  0  0  0  0  0  0
   -4.8120   -3.0430   -1.3670 S   0  0  0  0  0  0  0  0  0  0  0  0
   -3.4830   -1.9230   -1.7870 C   0  0  0  0  0  0  0  0  0  0  0  0
   -2.6800   -2.0770   -2.7170 O   0  0  0  0  0  0  0  0  0  0  0  0
   -0.9440    1.7920   -0.7150 N   0  0  0  0  0  0  0  0  0  0  0  0
    0.3970    2.0500   -0.3370 C   0  0  0  0  0  0  0  0  0  0  0  0
    0.8400    3.3610   -0.1790 C   0  0  0  0  0  0  0  0  0  0  0  0
    2.1190    3.5940    0.1630 C   0  0  0  0  0  0  0  0  0  0  0  0
    3.0310    2.5940    0.3700 C   0  0  0  0  0  0  0  0  0  0  0  0
    4.3250    2.9230    0.7190 O   0  0  0  0  0  0  0  0  0  0  0  0
    2.6380    1.2470    0.2230 C   0  0  0  0  0  0  0  0  0  0  0  0
    3.6440    0.2500    0.4530 C   0  0  0  0  0  0  0  0  0  0  0  0
    4.8200    0.7260    0.7720 O   0  0  0  0  0  0  0  0  0  0  0  0
    3.5410   -1.1830    0.3820 C   0  0  0  0  0  0  0  0  0  0  0  0
    2.5660   -2.0060    0.1070 C   0  0  0  0  0  0  0  0  0  0  0  0
    3.0780   -3.3980    0.1940 C   0  0  0  0  0  0  0  0  0  0  0  0
    4.3800   -3.2330    0.2180 C   0  0  0  0  0  0  0  0  0  0  0  0
    4.7330   -2.0610    0.6630 C   0  0  0  0  0  0  0  0  0  0  0  0
    1.3250    1.0460   -0.1270 C   0  0  0  0  0  0  0  0  0  0  0  0
  1  2  2  0
  2  3  1  0
  2 10  1  0
  3  4  1  0
  4  5  1  0
  4  8  1  0
  5  6  1  0
  6  7  1  0
  7  8  1  0
  8  9  2  0
 10 11  1  0
 11 12  2  0
 11 24  1  0
 12 13  1  0
 13 14  2  0
 14 15  1  0
 14 16  1  0
 16 17  1  0
 16 24  2  0
 17 18  2  0
 17 19  1  0
 19 20  2  0
 19 23  1  0
 20 21  1  0
 21 22  2  0
 22 23  2  0
M  END
