
     RDKit          3D

 24 26  0  0  0  0  0  0  0  0999 V2000
    7.8780   -1.7160   -0.2020 C   0  0  0  0  0  0  0  0  0  0  0  0
    6.8470   -0.5340    0.7210 S   0  0  0  0  0  0  0  0  0  0  0  0
    5.8710    0.4000   -0.4150 C   0  0  0  0  0  0  0  0  0  0  0  0
    6.5590    0.9600   -1.3710 O   0  0  0  0  0  0  0  0  0  0  0  0
    4.4680    0.5450   -0.3300 N   0  0  0  0  0  0  0  0  0  0  0  0
    3.7510   -0.1180    0.7150 C   0  0  0  0  0  0  0  0  0  0  0  0
    2.3950    0.4690    1.0140 C   0  0  0  0  0  0  0  0  0  0  0  0
    1.7940    1.0560   -0.0770 N   0  0  0  0  0  0  0  0  0  0  0  0
    0.4850    1.4430   -0.2350 C   0  0  0  0  0  0  0  0  0  0  0  0
   -0.6270    0.5090   -0.0440 C   0  0  0  0  0  0  0  0  0  0  0  0
   -1.6660    0.8180    0.8030 C   0  0  0  0  0  0  0  0  0  0  0  0
   -2.8360    0.0450    0.8270 C   0  0  0  0  0  0  0  0  0  0  0  0
   -2.9540   -1.0360    0.0190 C   0  0  0  0  0  0  0  0  0  0  0  0
   -1.9250   -1.3830   -0.8510 C   0  0  0  0  0  0  0  0  0  0  0  0
   -0.7710   -0.5860   -0.8600 C   0  0  0  0  0  0  0  0  0  0  0  0
    0.2490   -0.9240   -1.7320 O   0  0  0  0  0  0  0  0  0  0  0  0
   -4.2910   -1.6920    0.2680 C   0  0  0  0  0  0  0  0  0  0  0  0
   -5.0170   -0.6430    1.0760 C   0  0  2  0  0  0  0  0  0  0  0  0
   -6.0230    0.1430    0.3020 C   0  0  0  0  0  0  0  0  0  0  0  0
   -7.1070   -0.7560   -0.2500 C   0  0  0  0  0  0  0  0  0  0  0  0
   -8.0090    0.0220   -0.9700 O   0  0  0  0  0  0  0  0  0  0  0  0
   -4.0000    0.2310    1.5910 O   0  0  0  0  0  0  0  0  0  0  0  0
    2.6840    2.1080   -0.6110 C   0  0  0  0  0  0  0  0  0  0  0  0
    3.8000    1.3780   -1.2990 C   0  0  0  0  0  0  0  0  0  0  0  0
  1  2  1  0
  2  3  1  0
  3  4  2  0
  3  5  1  0
  5  6  1  0
  5 24  1  0
  6  7  1  0
  7  8  1  0
  8  9  1  0
  8 23  1  0
  9 10  1  0
 10 11  2  0
 10 15  1  0
 11 12  1  0
 12 13  2  0
 12 22  1  0
 13 14  1  0
 13 17  1  0
 14 15  2  0
 15 16  1  0
 17 18  1  0
 18 19  1  6
 18 22  1  0
 19 20  1  0
 20 21  1  0
 23 24  1  0
M  END
