
     RDKit          3D

 25 27  0  0  0  0  0  0  0  0999 V2000
    7.0300   -0.4860   -1.4680 C   0  0  0  0  0  0  0  0  0  0  0  0
    5.7300   -0.4510   -1.5250 C   0  0  0  0  0  0  0  0  0  0  0  0
    5.0410   -0.5370   -2.6300 O   0  0  0  0  0  0  0  0  0  0  0  0
    3.7370   -0.4840   -2.4010 C   0  0  0  0  0  0  0  0  0  0  0  0
    3.5510   -0.3580   -1.0620 C   0  0  0  0  0  0  0  0  0  0  0  0
    2.3540   -0.4870   -0.2330 C   0  0  0  0  0  0  0  0  0  0  0  0
    1.3840    0.3770    0.1220 N   0  0  0  0  0  0  0  0  0  0  0  0
    0.5550   -0.2430    1.2080 C   0  0  0  0  0  0  0  0  0  0  0  0
   -0.1340   -1.4470    0.6900 C   0  0  0  0  0  0  0  0  0  0  0  0
   -1.4900   -1.1260    0.1030 C   0  0  0  0  0  0  0  0  0  0  0  0
   -1.7420    0.3440    0.0410 C   0  0  0  0  0  0  0  0  0  0  0  0
   -3.0910    0.5900    0.3050 C   0  0  0  0  0  0  0  0  0  0  0  0
   -4.0580   -0.4780    0.1300 C   0  0  0  0  0  0  0  0  0  0  0  0
   -5.4750   -0.2080    0.5490 C   0  0  2  0  0  0  0  0  0  0  0  0
   -6.2300   -1.5110    0.1630 C   0  0  0  0  0  0  0  0  0  0  0  0
   -6.1170    0.9070   -0.2310 C   0  0  0  0  0  0  0  0  0  0  0  0
   -3.4600    1.8420    0.4820 N   0  0  0  0  0  0  0  0  0  0  0  0
   -2.5830    2.8790    0.4080 N   0  0  0  0  0  0  0  0  0  0  0  0
   -1.2730    2.6470    0.1420 C   0  0  0  0  0  0  0  0  0  0  0  0
   -0.4820    3.6090    0.0870 O   0  0  0  0  0  0  0  0  0  0  0  0
   -0.8210    1.3570   -0.0560 C   0  0  0  0  0  0  0  0  0  0  0  0
    0.6370    1.3050   -0.5150 C   0  0  0  0  0  0  0  0  0  0  0  0
    4.8700   -0.3280   -0.4980 C   0  0  0  0  0  0  0  0  0  0  0  0
    4.9840   -0.1160    0.7800 C   0  0  0  0  0  0  0  0  0  0  0  0
    6.2170    0.0770    1.5410 C   0  0  0  0  0  0  0  0  0  0  0  0
  1  2  2  0
  2  3  1  0
  2 23  1  0
  3  4  1  0
  4  5  2  0
  5  6  1  0
  5 23  1  0
  6  7  1  0
  7  8  1  0
  7 22  1  0
  8  9  1  0
  9 10  1  0
 10 11  1  0
 11 12  1  0
 11 21  2  0
 12 13  1  0
 12 17  2  0
 13 14  1  0
 14 15  1  6
 14 16  1  0
 17 18  1  0
 18 19  1  0
 19 20  2  0
 19 21  1  0
 21 22  1  0
 23 24  2  3
 24 25  1  0
M  END
