
     RDKit          3D

 25 27  0  0  0  0  0  0  0  0999 V2000
    3.0130   -0.0320    1.5300 C   0  0  0  0  0  0  0  0  0  0  0  0
    2.5380    0.3670    0.2070 C   0  0  0  0  0  0  0  0  0  0  0  0
    3.3410    0.3440   -0.9790 C   0  0  0  0  0  0  0  0  0  0  0  0
    4.5070    0.1310   -1.3380 C   0  0  0  0  0  0  0  0  0  0  0  0
    5.7520   -0.2180   -0.7150 C   0  0  0  0  0  0  0  0  0  0  0  0
    6.2070   -0.1660    0.5600 C   0  0  0  0  0  0  0  0  0  0  0  0
    7.5050   -0.7050    0.6740 C   0  0  0  0  0  0  0  0  0  0  0  0
    7.8140   -1.0840   -0.5980 C   0  0  0  0  0  0  0  0  0  0  0  0
    6.8000   -0.8060   -1.4230 N   0  0  0  0  0  0  0  0  0  0  0  0
    1.2500    0.7310    0.0610 C   0  0  0  0  0  0  0  0  0  0  0  0
    0.2620    0.7850    1.0510 C   0  0  0  0  0  0  0  0  0  0  0  0
    0.4440    0.4980    2.2840 O   0  0  0  0  0  0  0  0  0  0  0  0
   -1.0810    1.1770    0.7580 N   0  0  0  0  0  0  0  0  0  0  0  0
   -1.3800    1.5340   -0.5980 C   0  0  0  0  0  0  0  0  0  0  0  0
   -1.6780    0.3020   -1.3960 C   0  0  0  0  0  0  0  0  0  0  0  0
   -1.9630   -0.8560   -0.4470 C   0  0  0  0  0  0  0  0  0  0  0  0
   -3.0050   -0.4790    0.4540 N   0  0  0  0  0  0  0  0  0  0  0  0
   -4.3480   -0.4420    0.0200 C   0  0  0  0  0  0  0  0  0  0  0  0
   -4.8650   -1.4370   -0.6700 C   0  0  0  0  0  0  0  0  0  0  0  0
   -6.2740   -1.4630   -1.1590 C   0  0  0  0  0  0  0  0  0  0  0  0
   -6.9400   -0.2960   -0.7790 O   0  0  0  0  0  0  0  0  0  0  0  0
   -6.4110    0.7450   -0.0610 C   0  0  0  0  0  0  0  0  0  0  0  0
   -5.1680    0.7090    0.3400 C   0  0  0  0  0  0  0  0  0  0  0  0
   -2.8410   -0.1050    1.8470 C   0  0  0  0  0  0  0  0  0  0  0  0
   -2.0030    1.1570    1.9030 C   0  0  0  0  0  0  0  0  0  0  0  0
  1  2  1  0
  2  3  1  0
  2 10  2  3
  3  4  2  3
  4  5  1  0
  5  6  2  0
  5  9  1  0
  6  7  1  0
  7  8  2  0
  8  9  1  0
 10 11  1  0
 11 12  2  0
 11 13  1  0
 13 14  1  0
 13 25  1  0
 14 15  1  0
 15 16  1  0
 16 17  1  0
 17 18  1  0
 17 24  1  0
 18 19  2  0
 18 23  1  0
 19 20  1  0
 20 21  1  0
 21 22  1  0
 22 23  2  0
 24 25  1  0
M  END
