
     RDKit          3D

 23 26  0  0  0  0  0  0  0  0999 V2000
    0.3720   -4.4210   -0.7870 O   0  0  0  0  0  0  0  0  0  0  0  0
    0.1850   -3.2120   -0.5980 C   0  0  0  0  0  0  0  0  0  0  0  0
    1.2810   -2.3620   -0.4530 C   0  0  0  0  0  0  0  0  0  0  0  0
    1.0190   -1.0340   -0.2460 C   0  0  0  0  0  0  0  0  0  0  0  0
    2.1190   -0.1410   -0.0930 N   0  0  0  0  0  0  0  0  0  0  0  0
    1.8110    1.2550    0.0980 C   0  0  0  0  0  0  0  0  0  0  0  0
    2.8240    1.8500    1.0500 C   0  0  0  0  0  0  0  0  0  0  0  0
    4.1110    1.7140    0.3820 N   0  0  0  0  0  0  0  0  0  0  0  0
    4.5130    0.3380    0.3280 C   0  0  0  0  0  0  0  0  0  0  0  0
    3.4600   -0.6110   -0.1290 C   0  0  0  0  0  0  0  0  0  0  0  0
   -0.2370   -0.5910   -0.1890 O   0  0  0  0  0  0  0  0  0  0  0  0
   -1.2770   -1.3780   -0.3240 C   0  0  0  0  0  0  0  0  0  0  0  0
   -2.5590   -0.8570   -0.2550 C   0  0  0  0  0  0  0  0  0  0  0  0
   -2.7970    0.5670   -0.0320 C   0  0  0  0  0  0  0  0  0  0  0  0
   -2.0950    1.2550    0.9380 C   0  0  0  0  0  0  0  0  0  0  0  0
   -2.2740    2.5920    1.1940 C   0  0  0  0  0  0  0  0  0  0  0  0
   -3.2000    3.2830    0.4450 C   0  0  0  0  0  0  0  0  0  0  0  0
   -3.9250    2.6220   -0.5390 C   0  0  0  0  0  0  0  0  0  0  0  0
   -3.7290    1.2760   -0.7800 C   0  0  0  0  0  0  0  0  0  0  0  0
   -3.6130   -1.7340   -0.4040 C   0  0  0  0  0  0  0  0  0  0  0  0
   -3.4340   -3.0880   -0.6160 C   0  0  0  0  0  0  0  0  0  0  0  0
   -2.1600   -3.6130   -0.6860 C   0  0  0  0  0  0  0  0  0  0  0  0
   -1.1050   -2.7380   -0.5370 C   0  0  0  0  0  0  0  0  0  0  0  0
  1  2  2  0
  2  3  1  0
  2 23  1  0
  3  4  2  0
  4  5  1  0
  4 11  1  0
  5  6  1  0
  5 10  1  0
  6  7  1  0
  7  8  1  0
  8  9  1  0
  9 10  1  0
 11 12  1  0
 12 13  2  0
 12 23  1  0
 13 14  1  0
 13 20  1  0
 14 15  2  0
 14 19  1  0
 15 16  1  0
 16 17  2  0
 17 18  1  0
 18 19  2  0
 20 21  2  0
 21 22  1  0
 22 23  2  0
M  CHG  1   8   1
M  END
