
     RDKit          3D

 25 27  0  0  0  0  0  0  0  0999 V2000
    5.9030   -1.8860   -1.4860 C   0  0  0  0  0  0  0  0  0  0  0  0
    4.6300   -1.5570   -1.3010 C   0  0  0  0  0  0  0  0  0  0  0  0
    4.0570   -1.4670    0.0490 C   0  0  0  0  0  0  0  0  0  0  0  0
    3.5230   -0.0760    0.3540 C   0  0  1  0  0  0  0  0  0  0  0  0
    4.6780    0.8820    0.2400 C   0  0  0  0  0  0  0  0  0  0  0  0
    2.4200    0.2430   -0.4870 N   0  0  0  0  0  0  0  0  0  0  0  0
    1.1350    0.4710    0.0530 C   0  0  0  0  0  0  0  0  0  0  0  0
    1.0070    0.3820    1.2930 O   0  0  0  0  0  0  0  0  0  0  0  0
    0.0140    0.7980   -0.8280 C   0  0  0  0  0  0  0  0  0  0  0  0
   -1.2250    1.0070   -0.1890 N   0  0  0  0  0  0  0  0  0  0  0  0
   -2.1480    0.0880   -0.0090 C   0  0  0  0  0  0  0  0  0  0  0  0
   -1.9890   -1.3210   -0.3840 C   0  0  0  0  0  0  0  0  0  0  0  0
   -0.9620   -2.0290   -0.7520 C   0  0  0  0  0  0  0  0  0  0  0  0
   -1.4020   -3.4200   -1.0170 C   0  0  0  0  0  0  0  0  0  0  0  0
   -2.6810   -3.5320   -0.8090 C   0  0  0  0  0  0  0  0  0  0  0  0
   -3.1700   -2.2330   -0.3960 C   0  0  0  0  0  0  0  0  0  0  0  0
   -4.4190   -1.9970   -0.1250 C   0  0  0  0  0  0  0  0  0  0  0  0
   -3.3300    0.4220    0.6210 N   0  0  0  0  0  0  0  0  0  0  0  0
   -3.5730    1.6550    1.0600 C   0  0  0  0  0  0  0  0  0  0  0  0
   -2.6250    2.6550    0.8910 C   0  0  0  0  0  0  0  0  0  0  0  0
   -1.4610    2.2850    0.2590 C   0  0  0  0  0  0  0  0  0  0  0  0
   -0.5550    3.1290    0.0680 O   0  0  0  0  0  0  0  0  0  0  0  0
   -3.0640    3.7930    1.3940 C   0  0  0  0  0  0  0  0  0  0  0  0
   -4.4070    3.5450    1.9440 C   0  0  0  0  0  0  0  0  0  0  0  0
   -4.6470    2.1090    1.6730 C   0  0  0  0  0  0  0  0  0  0  0  0
  1  2  2  0
  2  3  1  0
  3  4  1  0
  4  5  1  6
  4  6  1  0
  6  7  1  0
  7  8  2  0
  7  9  1  0
  9 10  1  0
 10 11  1  0
 10 21  1  0
 11 12  1  0
 11 18  2  0
 12 13  2  0
 12 16  1  0
 13 14  1  0
 14 15  2  0
 15 16  1  0
 16 17  2  0
 18 19  1  0
 19 20  1  0
 19 25  2  0
 20 21  1  0
 20 23  2  0
 21 22  2  0
 23 24  1  0
 24 25  1  0
M  END
