
     RDKit          3D

 25 27  0  0  0  0  0  0  0  0999 V2000
   -2.8870   -3.6440   -1.2170 C   0  0  0  0  0  0  0  0  0  0  0  0
   -1.4970   -3.3020   -1.7690 C   0  0  0  0  0  0  0  0  0  0  0  0
   -1.2590   -1.9440   -1.5750 O   0  0  0  0  0  0  0  0  0  0  0  0
   -1.2960   -1.5940   -0.2280 C   0  0  0  0  0  0  0  0  0  0  0  0
   -1.0410   -0.1330   -0.1430 C   0  0  0  0  0  0  0  0  0  0  0  0
   -1.9260    0.6600    0.3780 C   0  0  0  0  0  0  0  0  0  0  0  0
   -3.2510    0.2740    0.9370 C   0  0  0  0  0  0  0  0  0  0  0  0
   -3.3630    0.6120    2.4100 C   0  0  0  0  0  0  0  0  0  0  0  0
   -1.6160    2.0730    0.4170 N   0  0  0  0  0  0  0  0  0  0  0  0
   -0.3910    2.5390   -0.0980 C   0  0  0  0  0  0  0  0  0  0  0  0
    0.5170    1.7460   -0.6270 C   0  0  0  0  0  0  0  0  0  0  0  0
    1.7440    2.3390   -1.1280 C   0  0  0  0  0  0  0  0  0  0  0  0
    2.8360    1.6890   -1.0610 O   0  0  0  0  0  0  0  0  0  0  0  0
    1.7040    3.7010   -1.7140 C   0  0  0  0  0  0  0  0  0  0  0  0
    0.4990    4.4930   -1.3250 C   0  0  0  0  0  0  0  0  0  0  0  0
   -0.1220    4.0040   -0.0320 C   0  0  0  0  0  0  0  0  0  0  0  0
    0.2940    0.2940   -0.6850 C   0  0  1  0  0  0  0  0  0  0  0  0
    1.3860   -0.4510    0.0090 C   0  0  0  0  0  0  0  0  0  0  0  0
    1.9000   -0.1630    1.2530 C   0  0  0  0  0  0  0  0  0  0  0  0
    1.4350    0.9440    2.1270 C   0  0  0  0  0  0  0  0  0  0  0  0
    2.8700   -1.0690    1.4800 N   0  0  0  0  0  0  0  0  0  0  0  0
    2.9800   -1.8880    0.4600 N   0  0  0  0  0  0  0  0  0  0  0  0
    3.9280   -2.9870    0.3710 C   0  0  0  0  0  0  0  0  0  0  0  0
    2.0740   -1.5350   -0.4750 C   0  0  0  0  0  0  0  0  0  0  0  0
    1.9350   -2.2540   -1.7750 C   0  0  0  0  0  0  0  0  0  0  0  0
  1  2  1  0
  2  3  1  0
  3  4  1  0
  4  5  1  0
  5  6  2  0
  5 17  1  0
  6  7  1  0
  6  9  1  0
  7  8  1  0
  9 10  1  0
 10 11  2  0
 10 16  1  0
 11 12  1  0
 11 17  1  0
 12 13  2  0
 12 14  1  0
 14 15  1  0
 15 16  1  0
 17 18  1  1
 18 19  1  0
 18 24  2  0
 19 20  1  0
 19 21  2  0
 21 22  1  0
 22 23  1  0
 22 24  1  0
 24 25  1  0
M  END
