
     RDKit          3D

 25 27  0  0  0  0  0  0  0  0999 V2000
    5.8720    3.3360    1.5950 C   0  0  0  0  0  0  0  0  0  0  0  0
    5.7920    2.2310    1.0100 C   0  0  0  0  0  0  0  0  0  0  0  0
    5.6820    0.9140    0.3250 C   0  0  0  0  0  0  0  0  0  0  0  0
    4.2360    0.6570    0.2370 N   0  0  0  0  0  0  0  0  0  0  0  0
    3.6290    0.2380    1.3070 C   0  0  0  0  0  0  0  0  0  0  0  0
    4.1290   -0.0480    2.6480 C   0  0  0  0  0  0  0  0  0  0  0  0
    3.0010   -0.4560    3.5320 C   0  0  0  0  0  0  0  0  0  0  0  0
    1.7820   -0.5260    2.6530 C   0  0  0  0  0  0  0  0  0  0  0  0
    0.5780   -0.8960    3.0030 C   0  0  0  0  0  0  0  0  0  0  0  0
   -0.4040   -0.8780    1.9310 N   0  0  0  0  0  0  0  0  0  0  0  0
   -0.0700   -0.4830    0.6240 C   0  0  0  0  0  0  0  0  0  0  0  0
   -0.8730   -0.5360   -0.4230 C   0  0  0  0  0  0  0  0  0  0  0  0
   -2.2220   -0.9670   -0.6480 C   0  0  0  0  0  0  0  0  0  0  0  0
   -2.6210   -0.8200   -1.9540 C   0  0  0  0  0  0  0  0  0  0  0  0
   -1.7090   -0.2550   -2.9220 C   0  0  0  0  0  0  0  0  0  0  0  0
   -2.0630    0.9180   -3.6660 C   0  0  0  0  0  0  0  0  0  0  0  0
   -1.0180    1.2100   -4.4770 C   0  0  0  0  0  0  0  0  0  0  0  0
   -0.0630    0.2530   -4.2450 C   0  0  0  0  0  0  0  0  0  0  0  0
   -0.5460   -0.5500   -3.3350 O   0  0  0  0  0  0  0  0  0  0  0  0
   -3.1820   -1.4520    0.3650 C   0  0  0  0  0  0  0  0  0  0  0  0
   -4.4470   -1.7550    0.0350 O   0  0  0  0  0  0  0  0  0  0  0  0
   -5.2920   -1.0320   -0.6560 C   0  0  0  0  0  0  0  0  0  0  0  0
   -5.3520    0.4350   -0.6570 C   0  0  0  0  0  0  0  0  0  0  0  0
    1.3150   -0.0750    0.3550 N   0  0  0  0  0  0  0  0  0  0  0  0
    2.1710   -0.1150    1.3570 C   0  0  0  0  0  0  0  0  0  0  0  0
  1  2  3  0
  2  3  1  0
  3  4  1  0
  4  5  2  3
  5  6  1  0
  5 25  1  0
  6  7  1  0
  7  8  1  0
  8  9  2  0
  8 25  1  0
  9 10  1  0
 10 11  1  0
 11 12  2  3
 11 24  1  0
 12 13  1  0
 13 14  2  3
 13 20  1  0
 14 15  1  0
 15 16  2  0
 15 19  1  0
 16 17  1  0
 17 18  2  0
 18 19  1  0
 20 21  1  0
 21 22  1  0
 22 23  1  0
 24 25  2  0
M  END
