
     RDKit          3D

 25 26  0  0  0  0  0  0  0  0999 V2000
    5.1870   -3.3300   -1.5140 C   0  0  0  0  0  0  0  0  0  0  0  0
    4.6470   -2.2950   -0.9000 C   0  0  0  0  0  0  0  0  0  0  0  0
    3.2310   -1.9880   -0.9880 C   0  0  0  0  0  0  0  0  0  0  0  0
    2.6460   -0.9480   -0.3860 C   0  0  0  0  0  0  0  0  0  0  0  0
    1.2420   -0.7600   -0.5510 C   0  0  0  0  0  0  0  0  0  0  0  0
    0.4360    0.1560   -0.0650 C   0  0  0  0  0  0  0  0  0  0  0  0
    0.9580    1.1940    0.8000 C   0  0  0  0  0  0  0  0  0  0  0  0
    0.2340    2.2380    1.1150 N   0  0  0  0  0  0  0  0  0  0  0  0
   -1.0970    2.4220    0.6530 C   0  0  0  0  0  0  0  0  0  0  0  0
   -1.7810    3.5870    1.0650 N   0  0  0  0  0  0  0  0  0  0  0  0
   -1.3760    4.8750    0.5860 C   0  0  0  0  0  0  0  0  0  0  0  0
   -1.6220    1.4990   -0.1100 C   0  0  0  0  0  0  0  0  0  0  0  0
   -3.0030    1.7000   -0.5950 C   0  0  0  0  0  0  0  0  0  0  0  0
   -3.4490    3.0890   -0.9110 C   0  0  0  0  0  0  0  0  0  0  0  0
   -3.8090    0.6460   -0.7460 C   0  0  0  0  0  0  0  0  0  0  0  0
   -3.2850   -0.6820   -0.4220 C   0  0  0  0  0  0  0  0  0  0  0  0
   -4.0070   -1.6980   -0.5480 O   0  0  0  0  0  0  0  0  0  0  0  0
   -1.8760   -0.8540    0.0680 C   0  0  0  0  0  0  0  0  0  0  0  0
   -1.6390   -1.8330    0.8620 C   0  0  0  0  0  0  0  0  0  0  0  0
   -2.7190   -2.7890    1.2990 C   0  0  0  0  0  0  0  0  0  0  0  0
   -0.3650   -2.0830    1.4130 N   0  0  0  0  0  0  0  0  0  0  0  0
    0.3120   -3.3670    1.2750 C   0  0  0  0  0  0  0  0  0  0  0  0
   -0.9610    0.1840   -0.4390 C   0  0  2  0  0  0  0  0  0  0  0  0
    3.5220   -0.1550    0.3490 O   0  0  0  0  0  0  0  0  0  0  0  0
    4.2860    0.8760   -0.2640 C   0  0  0  0  0  0  0  0  0  0  0  0
  1  2  2  0
  2  3  1  0
  3  4  2  3
  4  5  1  0
  4 24  1  0
  5  6  2  3
  6  7  1  0
 23  6  1  1
  7  8  2  0
  8  9  1  0
  9 10  1  0
  9 12  2  0
 10 11  1  0
 12 13  1  0
 12 23  1  0
 13 14  1  0
 13 15  2  0
 15 16  1  0
 16 17  2  0
 16 18  1  0
 18 19  2  3
 18 23  1  0
 19 20  1  0
 19 21  1  0
 21 22  1  0
 24 25  1  0
M  END
