
     RDKit          3D

 20 22  0  0  0  0  0  0  0  0999 V2000
   -4.4310   -1.4990   -1.0580 C   0  0  0  0  0  0  0  0  0  0  0  0
   -3.4910   -0.4800   -0.5370 C   0  0  0  0  0  0  0  0  0  0  0  0
   -3.8990    0.7550   -0.0820 C   0  0  0  0  0  0  0  0  0  0  0  0
   -3.0130    1.6760    0.3930 C   0  0  0  0  0  0  0  0  0  0  0  0
   -3.4750    2.8930    0.8340 O   0  0  0  0  0  0  0  0  0  0  0  0
   -1.6370    1.3560    0.4200 C   0  0  0  0  0  0  0  0  0  0  0  0
   -0.8560    2.3560    0.9150 O   0  0  0  0  0  0  0  0  0  0  0  0
   -1.1900    0.1240   -0.0290 C   0  0  0  0  0  0  0  0  0  0  0  0
    0.2270   -0.2180   -0.0060 C   0  0  0  0  0  0  0  0  0  0  0  0
    0.6360   -1.4010   -0.4400 C   0  0  0  0  0  0  0  0  0  0  0  0
    2.0720   -1.7200   -0.4060 C   0  0  0  0  0  0  0  0  0  0  0  0
    2.9750   -0.8660    0.0440 C   0  0  0  0  0  0  0  0  0  0  0  0
    4.4080   -1.2000    0.0720 C   0  0  0  0  0  0  0  0  0  0  0  0
    5.2440   -0.1940    0.5760 O   0  0  0  0  0  0  0  0  0  0  0  0
    4.8360    1.0380    1.0300 C   0  0  0  0  0  0  0  0  0  0  0  0
    5.7090    1.8320    1.4520 O   0  0  0  0  0  0  0  0  0  0  0  0
    3.4080    1.3230    0.9820 C   0  0  0  0  0  0  0  0  0  0  0  0
    2.5320    0.4320    0.5210 C   0  0  0  0  0  0  0  0  0  0  0  0
    1.1770    0.6870    0.4690 O   0  0  0  0  0  0  0  0  0  0  0  0
   -2.1270   -0.7680   -0.4980 C   0  0  0  0  0  0  0  0  0  0  0  0
  1  2  1  0
  2  3  2  0
  2 20  1  0
  3  4  1  0
  4  5  1  0
  4  6  2  0
  6  7  1  0
  6  8  1  0
  8  9  1  0
  8 20  2  0
  9 10  2  0
  9 19  1  0
 10 11  1  0
 11 12  2  0
 12 13  1  0
 12 18  1  0
 13 14  1  0
 14 15  1  0
 15 16  2  0
 15 17  1  0
 17 18  2  0
 18 19  1  0
M  END
