
     RDKit          3D

 17 17  0  0  0  0  0  0  0  0999 V2000
   -3.4890   -1.5130    0.1710 N   0  0  0  0  0  0  0  0  0  0  0  0
   -2.3290   -0.6400    0.2400 C   0  0  1  0  0  0  0  0  0  0  0  0
   -1.1910   -1.3700   -0.3960 C   0  0  0  0  0  0  0  0  0  0  0  0
   -0.0410   -1.0730    0.3170 O   0  0  0  0  0  0  0  0  0  0  0  0
    1.1190   -1.1420   -0.4540 C   0  0  0  0  0  0  0  0  0  0  0  0
    2.1970   -0.4640    0.3570 C   0  0  1  0  0  0  0  0  0  0  0  0
    3.4750   -1.3130    0.2990 C   0  0  0  0  0  0  0  0  0  0  0  0
    3.2350   -2.6020    0.7250 O   0  0  0  0  0  0  0  0  0  0  0  0
    2.4910    0.8800   -0.0980 N   0  0  0  0  0  0  0  0  0  0  0  0
    1.6790    1.7410   -0.8330 C   0  0  0  0  0  0  0  0  0  0  0  0
    2.1930    2.2980   -1.8720 O   0  0  0  0  0  0  0  0  0  0  0  0
    0.2820    2.1140   -0.5850 C   0  0  0  0  0  0  0  0  0  0  0  0
   -0.0970    2.1730    0.8740 C   0  0  0  0  0  0  0  0  0  0  0  0
   -1.4700    2.3450    1.0180 O   0  0  0  0  0  0  0  0  0  0  0  0
   -2.4880    1.9090    0.2060 C   0  0  0  0  0  0  0  0  0  0  0  0
   -3.4250    2.7190   -0.0280 O   0  0  0  0  0  0  0  0  0  0  0  0
   -2.6110    0.6420   -0.4080 N   0  0  0  0  0  0  0  0  0  0  0  0
  2  1  1  6
  2  3  1  0
  2 17  1  0
  3  4  1  0
  4  5  1  0
  5  6  1  0
  6  7  1  6
  6  9  1  0
  7  8  1  0
  9 10  1  0
 10 11  2  0
 10 12  1  0
 12 13  1  0
 13 14  1  0
 14 15  1  0
 15 16  2  0
 15 17  1  0
M  CHG  1   1   1
M  END
