
     RDKit          3D

 17 17  0  0  0  0  0  0  0  0999 V2000
   -5.2520    0.7650   -0.8530 N   0  0  0  0  0  0  0  0  0  0  0  0
   -4.9140   -0.3280   -0.0040 C   0  0  0  0  0  0  0  0  0  0  0  0
   -5.8350   -1.1280    0.2940 O   0  0  0  0  0  0  0  0  0  0  0  0
   -3.5690   -0.5080    0.4940 C   0  0  0  0  0  0  0  0  0  0  0  0
   -3.3020   -1.5900    1.3170 O   0  0  0  0  0  0  0  0  0  0  0  0
   -2.6280    0.3670    0.1510 C   0  0  0  0  0  0  0  0  0  0  0  0
   -1.2750    0.1870    0.6510 C   0  0  0  0  0  0  0  0  0  0  0  0
   -0.3530    1.0620    0.3020 C   0  0  0  0  0  0  0  0  0  0  0  0
    0.9270    0.8970    0.7710 O   0  0  0  0  0  0  0  0  0  0  0  0
    1.7160   -0.2580    0.4970 C   0  0  2  0  0  0  0  0  0  0  0  0
    3.0090   -0.0370    1.1780 C   0  0  0  0  0  0  0  0  0  0  0  0
    3.1280   -0.3290    2.3830 O   0  0  0  0  0  0  0  0  0  0  0  0
    4.0840    0.5050    0.4330 N   0  0  0  0  0  0  0  0  0  0  0  0
    4.2060    0.2680   -0.9900 C   0  0  0  0  0  0  0  0  0  0  0  0
    3.2870   -0.8230   -1.3490 N   0  0  0  0  0  0  0  0  0  0  0  0
    1.9970   -0.3960   -0.9490 C   0  0  0  0  0  0  0  0  0  0  0  0
    1.1710   -0.1580   -1.7990 O   0  0  0  0  0  0  0  0  0  0  0  0
  1  2  1  0
  2  3  2  0
  2  4  1  0
  4  5  1  0
  4  6  2  3
  6  7  1  0
  7  8  2  3
  8  9  1  0
 10  9  1  6
 10 11  1  0
 10 16  1  0
 11 12  2  0
 11 13  1  0
 13 14  1  0
 14 15  1  0
 15 16  1  0
 16 17  2  0
M  CHG  1  15   1
M  END
