
     RDKit          3D

 20 22  0  0  0  0  0  0  0  0999 V2000
    1.9180    0.8300    1.3420 O   0  0  0  0  0  0  0  0  0  0  0  0
    2.0340    1.0220    0.0840 C   0  0  0  0  0  0  0  0  0  0  0  0
    3.3800    0.9490   -0.5080 C   0  0  0  0  0  0  0  0  0  0  0  0
    3.8460   -0.4700   -0.7190 C   0  0  0  0  0  0  0  0  0  0  0  0
    3.8920   -1.1710    0.5020 O   0  0  0  0  0  0  0  0  0  0  0  0
    0.8830    1.2840   -0.6230 O   0  0  0  0  0  0  0  0  0  0  0  0
   -0.3760    1.3480   -0.0430 C   0  0  0  0  0  0  0  0  0  0  0  0
   -0.7960    2.5810    0.4340 C   0  0  0  0  0  0  0  0  0  0  0  0
   -0.0050    3.7190    0.3440 O   0  0  0  0  0  0  0  0  0  0  0  0
   -2.0400    2.6950    1.0190 C   0  0  0  0  0  0  0  0  0  0  0  0
   -2.5040    3.9250    1.5150 O   0  0  0  0  0  0  0  0  0  0  0  0
   -2.8200    1.5620    1.1050 C   0  0  0  0  0  0  0  0  0  0  0  0
   -2.4110    0.3200    0.6310 C   0  0  0  0  0  0  0  0  0  0  0  0
   -1.1690    0.2250    0.0510 C   0  0  0  0  0  0  0  0  0  0  0  0
   -0.9710   -1.1760   -0.3660 C   0  0  0  0  0  0  0  0  0  0  0  0
   -0.0890   -1.9680   -0.9470 C   0  0  0  0  0  0  0  0  0  0  0  0
   -0.6590   -3.3320   -1.0100 C   0  0  0  0  0  0  0  0  0  0  0  0
   -1.9830   -3.1820   -0.3810 C   0  0  0  0  0  0  0  0  0  0  0  0
   -2.1450   -1.9350   -0.0160 C   0  0  0  0  0  0  0  0  0  0  0  0
   -3.1070   -0.9980    0.6350 C   0  0  0  0  0  0  0  0  0  0  0  0
  1  2  2  0
  2  3  1  0
  2  6  1  0
  3  4  1  0
  4  5  1  0
  6  7  1  0
  7  8  2  0
  7 14  1  0
  8  9  1  0
  8 10  1  0
 10 11  1  0
 10 12  2  0
 12 13  1  0
 13 14  2  0
 13 20  1  0
 14 15  1  0
 15 16  2  0
 15 19  1  0
 16 17  1  0
 17 18  1  0
 18 19  2  0
 19 20  1  0
M  END
