
     RDKit          3D

 20 22  0  0  0  0  0  0  0  0999 V2000
    4.5770   -0.7840    0.3850 C   0  0  0  0  0  0  0  0  0  0  0  0
    3.7770   -0.5680   -0.7710 O   0  0  0  0  0  0  0  0  0  0  0  0
    2.4090   -0.5310   -0.5920 C   0  0  0  0  0  0  0  0  0  0  0  0
    1.6900   -1.6930   -0.6870 C   0  0  0  0  0  0  0  0  0  0  0  0
    2.3460   -2.8770   -0.9660 O   0  0  0  0  0  0  0  0  0  0  0  0
    0.3480   -1.6690   -0.5070 C   0  0  0  0  0  0  0  0  0  0  0  0
   -0.3120   -0.4470   -0.2200 C   0  0  0  0  0  0  0  0  0  0  0  0
   -1.7530   -0.5640    0.0260 C   0  0  0  0  0  0  0  0  0  0  0  0
   -2.6070   -0.0130    0.8300 C   0  0  0  0  0  0  0  0  0  0  0  0
   -3.9960   -0.4980    0.6600 C   0  0  0  0  0  0  0  0  0  0  0  0
   -3.8310   -1.4790   -0.4360 C   0  0  0  0  0  0  0  0  0  0  0  0
   -2.5660   -1.5120   -0.7890 C   0  0  0  0  0  0  0  0  0  0  0  0
    0.4030    0.7080   -0.1350 C   0  0  0  0  0  0  0  0  0  0  0  0
    1.7980    0.6720   -0.3210 C   0  0  0  0  0  0  0  0  0  0  0  0
    2.2980    1.9500   -0.1910 O   0  0  0  0  0  0  0  0  0  0  0  0
    1.3290    2.8530    0.0590 C   0  0  0  0  0  0  0  0  0  0  0  0
    1.4050    4.0840    0.2330 O   0  0  0  0  0  0  0  0  0  0  0  0
    0.0450    2.1050    0.1000 C   0  0  0  0  0  0  0  0  0  0  0  0
   -1.1240    2.6680    0.1340 C   0  0  0  0  0  0  0  0  0  0  0  0
   -1.1970    4.0510    0.3970 O   0  0  0  0  0  0  0  0  0  0  0  0
  1  2  1  0
  2  3  1  0
  3  4  2  0
  3 14  1  0
  4  5  1  0
  4  6  1  0
  6  7  2  0
  7  8  1  0
  7 13  1  0
  8  9  2  0
  8 12  1  0
  9 10  1  0
 10 11  1  0
 11 12  2  0
 13 14  2  0
 13 18  1  0
 14 15  1  0
 15 16  1  0
 16 17  2  0
 16 18  1  0
 18 19  2  3
 19 20  1  0
M  END
