
     RDKit          3D

 17 18  0  0  0  0  0  0  0  0999 V2000
   -3.2330   -1.2990   -1.2240 C   0  0  0  0  0  0  0  0  0  0  0  0
   -3.0680   -0.6730    0.1140 C   0  0  2  0  0  0  0  0  0  0  0  0
   -4.3250   -0.4020    0.6990 O   0  0  0  0  0  0  0  0  0  0  0  0
   -2.3080    0.6160    0.1060 C   0  0  2  0  0  0  0  0  0  0  0  0
   -2.9590    1.6070   -0.6270 O   0  0  0  0  0  0  0  0  0  0  0  0
   -0.9100    0.5090   -0.3940 C   0  0  1  0  0  0  0  0  0  0  0  0
   -0.2470    1.8640   -0.1030 C   0  0  0  0  0  0  0  0  0  0  0  0
    1.1330    1.8800   -0.4450 N   0  0  0  0  0  0  0  0  0  0  0  0
    1.9500    0.7740   -0.1040 C   0  0  0  0  0  0  0  0  0  0  0  0
    3.2890    0.8220   -0.1190 N   0  0  0  0  0  0  0  0  0  0  0  0
    4.0460   -0.2200    0.2020 C   0  0  0  0  0  0  0  0  0  0  0  0
    5.4750   -0.1710    0.1870 N   0  0  0  0  0  0  0  0  0  0  0  0
    3.4210   -1.3720    0.5570 N   0  0  0  0  0  0  0  0  0  0  0  0
    2.0860   -1.4830    0.5910 C   0  0  0  0  0  0  0  0  0  0  0  0
    1.5700   -2.5980    0.9350 O   0  0  0  0  0  0  0  0  0  0  0  0
    1.2980   -0.4010    0.2580 C   0  0  0  0  0  0  0  0  0  0  0  0
   -0.1230   -0.4870    0.2850 N   0  0  0  0  0  0  0  0  0  0  0  0
  2  1  1  6
  2  3  1  0
  2  4  1  0
  4  5  1  6
  4  6  1  0
  6  7  1  1
  6 17  1  0
  7  8  1  0
  8  9  1  0
  9 10  1  0
  9 16  2  0
 10 11  2  0
 11 12  1  0
 11 13  1  0
 13 14  1  0
 14 15  2  0
 14 16  1  0
 16 17  1  0
M  END
