
     RDKit          3D

 29 31  0  0  0  0  0  0  0  0999 V2000
   -7.1920   -0.9360    0.8780 C   0  0  0  0  0  0  0  0  0  0  0  0
   -5.9050   -0.2040    0.8160 C   0  0  0  0  0  0  0  0  0  0  0  0
   -5.0630   -0.1780    1.8990 C   0  0  0  0  0  0  0  0  0  0  0  0
   -3.8770    0.4990    1.8360 C   0  0  0  0  0  0  0  0  0  0  0  0
   -2.9400    0.5420    3.0060 C   0  0  0  0  0  0  0  0  0  0  0  0
   -3.5230    1.1670    0.6600 C   0  0  0  0  0  0  0  0  0  0  0  0
   -2.2610    1.8760    0.6210 C   0  0  0  0  0  0  0  0  0  0  0  0
   -2.2220    3.0790    0.9680 O   0  0  0  0  0  0  0  0  0  0  0  0
   -1.0770    1.2390    0.2010 N   0  0  0  0  0  0  0  0  0  0  0  0
    0.1490    1.9620    0.1740 C   0  0  0  0  0  0  0  0  0  0  0  0
    1.3560    1.1560   -0.1650 C   0  0  0  0  0  0  0  0  0  0  0  0
    1.0900   -0.0010   -1.0280 C   0  0  0  0  0  0  0  0  0  0  0  0
    2.0480   -0.7610   -1.3970 N   0  0  0  0  0  0  0  0  0  0  0  0
    3.3990   -0.5320   -0.9990 C   0  0  0  0  0  0  0  0  0  0  0  0
    4.3630   -0.1400   -1.8860 C   0  0  0  0  0  0  0  0  0  0  0  0
    5.5440   -0.0130   -1.1620 C   0  0  0  0  0  0  0  0  0  0  0  0
    5.3010   -0.3240    0.1440 C   0  0  0  0  0  0  0  0  0  0  0  0
    6.2020   -0.3330    1.2700 C   0  0  0  0  0  0  0  0  0  0  0  0
    7.4400   -0.0490    1.4140 C   0  0  0  0  0  0  0  0  0  0  0  0
    8.4800    0.4070    0.5120 C   0  0  0  0  0  0  0  0  0  0  0  0
    9.5050   -0.5740    0.5260 O   0  0  0  0  0  0  0  0  0  0  0  0
    3.9710   -0.6330    0.1810 N   0  0  0  0  0  0  0  0  0  0  0  0
   -0.2960   -0.2660   -1.4570 C   0  0  1  0  0  0  0  0  0  0  0  0
   -0.4580   -1.6190   -2.1020 C   0  0  0  0  0  0  0  0  0  0  0  0
   -0.1010   -2.6940   -1.2180 N   0  0  0  0  0  0  0  0  0  0  0  0
   -1.1500   -0.1530   -0.1940 C   0  0  0  0  0  0  0  0  0  0  0  0
   -4.3950    1.1200   -0.4130 C   0  0  0  0  0  0  0  0  0  0  0  0
   -5.5780    0.4450   -0.3510 C   0  0  0  0  0  0  0  0  0  0  0  0
   -6.5030    0.4140   -1.5370 C   0  0  0  0  0  0  0  0  0  0  0  0
  1  2  1  0
  2  3  2  0
  2 28  1  0
  3  4  1  0
  4  5  1  0
  4  6  2  0
  6  7  1  0
  6 27  1  0
  7  8  2  0
  7  9  1  0
  9 10  1  0
  9 26  1  0
 10 11  1  0
 11 12  1  0
 12 13  2  3
 12 23  1  0
 13 14  1  0
 14 15  2  0
 14 22  1  0
 15 16  1  0
 16 17  2  0
 17 18  1  0
 17 22  1  0
 18 19  2  3
 19 20  1  0
 20 21  1  0
 23 24  1  1
 23 26  1  0
 24 25  1  0
 27 28  2  0
 28 29  1  0
M  CHG  1  25   1
M  END
