
     RDKit          3D

 29 31  0  0  0  0  0  0  0  0999 V2000
   -7.2260    3.3620    1.2190 C   0  0  0  0  0  0  0  0  0  0  0  0
   -5.8960    2.6960    1.4360 C   0  0  0  0  0  0  0  0  0  0  0  0
   -5.6430    1.5430    0.7610 C   0  0  0  0  0  0  0  0  0  0  0  0
   -6.6030    0.9590   -0.1560 C   0  0  0  0  0  0  0  0  0  0  0  0
   -6.2910   -0.2010   -0.7740 C   0  0  0  0  0  0  0  0  0  0  0  0
   -5.0480   -0.9080   -0.5690 C   0  0  0  0  0  0  0  0  0  0  0  0
   -4.7600   -2.1000   -1.2510 C   0  0  0  0  0  0  0  0  0  0  0  0
   -5.6950   -2.6020   -2.3120 C   0  0  0  0  0  0  0  0  0  0  0  0
   -3.5970   -2.6830   -1.0060 N   0  0  0  0  0  0  0  0  0  0  0  0
   -2.6830   -2.1920   -0.1610 C   0  0  0  0  0  0  0  0  0  0  0  0
   -2.9340   -1.0300    0.4990 C   0  0  0  0  0  0  0  0  0  0  0  0
   -1.9200   -0.3870    1.3380 C   0  0  0  0  0  0  0  0  0  0  0  0
   -2.1280    0.6690    1.9740 O   0  0  0  0  0  0  0  0  0  0  0  0
   -0.5280   -0.9400    1.4620 C   0  0  0  0  0  0  0  0  0  0  0  0
    0.1120   -0.7860    0.1430 N   0  0  1  0  0  0  0  0  0  0  0  0
    0.3050    0.5910   -0.0960 C   0  0  0  0  0  0  0  0  0  0  0  0
    1.7390    0.9020    0.1340 C   0  0  0  0  0  0  0  0  0  0  0  0
    2.5440    0.1740   -0.9550 C   0  0  1  0  0  0  0  0  0  0  0  0
    3.9510    0.6260   -0.7910 C   0  0  0  0  0  0  0  0  0  0  0  0
    4.5580    1.2790   -1.6710 O   0  0  0  0  0  0  0  0  0  0  0  0
    4.6770    0.3480    0.4160 N   0  0  0  0  0  0  0  0  0  0  0  0
    5.9870    0.8110    0.6450 C   0  0  0  0  0  0  0  0  0  0  0  0
    7.0850    0.4420   -0.2720 C   0  0  1  0  0  0  0  0  0  0  0  0
    8.3250    1.1700    0.3170 C   0  0  0  0  0  0  0  0  0  0  0  0
    7.4880   -0.9940   -0.3310 C   0  0  0  0  0  0  0  0  0  0  0  0
    2.2860   -1.2730   -0.8540 C   0  0  0  0  0  0  0  0  0  0  0  0
    1.2120   -1.6640    0.1410 C   0  0  0  0  0  0  0  0  0  0  0  0
   -4.1180   -0.3550    0.3240 C   0  0  0  0  0  0  0  0  0  0  0  0
   -4.4270    0.8550    0.9730 N   0  0  0  0  0  0  0  0  0  0  0  0
  1  2  1  0
  2  3  2  3
  3  4  1  0
  3 29  1  0
  4  5  2  0
  5  6  1  0
  6  7  2  0
  6 28  1  0
  7  8  1  0
  7  9  1  0
  9 10  2  0
 10 11  1  0
 11 12  1  0
 11 28  2  0
 12 13  2  0
 12 14  1  0
 15 14  1  1
 15 16  1  0
 15 27  1  0
 16 17  1  0
 17 18  1  0
 18 19  1  1
 18 26  1  0
 19 20  2  0
 19 21  1  0
 21 22  1  0
 22 23  1  0
 23 24  1  1
 23 25  1  0
 26 27  1  0
 28 29  1  0
M  CHG  1  15   1
M  END
