
     RDKit          3D

 29 32  0  0  0  0  0  0  0  0999 V2000
    6.3380    3.1180    1.3110 C   0  0  0  0  0  0  0  0  0  0  0  0
    5.5800    1.9670    0.6940 C   0  0  0  0  0  0  0  0  0  0  0  0
    6.0310    1.2530   -0.3710 C   0  0  0  0  0  0  0  0  0  0  0  0
    5.0430    0.2900   -0.6270 C   0  0  0  0  0  0  0  0  0  0  0  0
    4.0170    0.4250    0.2760 C   0  0  0  0  0  0  0  0  0  0  0  0
    2.7030   -0.1750    0.3410 C   0  0  0  0  0  0  0  0  0  0  0  0
    1.8400    0.5890    0.9630 O   0  0  0  0  0  0  0  0  0  0  0  0
    2.1880   -1.4130   -0.1430 C   0  0  0  0  0  0  0  0  0  0  0  0
    2.9390   -2.4240   -0.5340 C   0  0  0  0  0  0  0  0  0  0  0  0
    4.3480   -2.4070   -0.5020 N   0  0  0  0  0  0  0  0  0  0  0  0
    2.3810   -3.6980   -1.0490 C   0  0  0  0  0  0  0  0  0  0  0  0
    3.2010   -4.5960   -1.3920 O   0  0  0  0  0  0  0  0  0  0  0  0
    0.9540   -3.8700   -1.1430 C   0  0  0  0  0  0  0  0  0  0  0  0
    0.1600   -2.8730   -0.7620 C   0  0  0  0  0  0  0  0  0  0  0  0
    0.6980   -1.6250   -0.2580 C   0  0  0  0  0  0  0  0  0  0  0  0
   -0.1400   -0.6460    0.0340 C   0  0  0  0  0  0  0  0  0  0  0  0
   -1.5940   -0.7810   -0.0490 C   0  0  0  0  0  0  0  0  0  0  0  0
   -2.4760    0.1430    0.2040 C   0  0  0  0  0  0  0  0  0  0  0  0
   -3.9480   -0.1490    0.0860 C   0  0  0  0  0  0  0  0  0  0  0  0
   -4.8360    0.7920    0.3070 C   0  0  0  0  0  0  0  0  0  0  0  0
   -6.2670    0.5040    0.1870 C   0  0  0  0  0  0  0  0  0  0  0  0
   -6.7080   -0.6740   -0.1390 C   0  0  0  0  0  0  0  0  0  0  0  0
   -5.7800   -1.7820   -0.4080 C   0  0  0  0  0  0  0  0  0  0  0  0
   -4.3930   -1.4440   -0.2420 N   0  0  0  0  0  0  0  0  0  0  0  0
   -4.4390    2.1930    0.6970 C   0  0  0  0  0  0  0  0  0  0  0  0
   -3.1670    2.1050    1.4990 C   0  0  0  0  0  0  0  0  0  0  0  0
   -2.2160    1.4870    0.5610 N   0  0  0  0  0  0  0  0  0  0  0  0
   -1.1490    2.2460    0.0230 C   0  0  0  0  0  0  0  0  0  0  0  0
    4.4090    1.4850    1.0700 N   0  0  0  0  0  0  0  0  0  0  0  0
  1  2  1  0
  2  3  2  0
  2 29  1  0
  3  4  1  0
  4  5  2  0
  5  6  1  0
  5 29  1  0
  6  7  2  0
  6  8  1  0
  8  9  2  0
  8 15  1  0
  9 10  1  0
  9 11  1  0
 11 12  2  0
 11 13  1  0
 13 14  2  0
 14 15  1  0
 15 16  2  3
 16 17  1  0
 17 18  2  3
 18 19  1  0
 18 27  1  0
 19 20  2  0
 19 24  1  0
 20 21  1  0
 20 25  1  0
 21 22  2  0
 22 23  1  0
 23 24  1  0
 25 26  1  0
 26 27  1  0
 27 28  1  0
M  END
