
     RDKit          3D

 31 34  0  0  0  0  0  0  0  0999 V2000
    3.9170    3.6340   -0.4610 N   0  0  0  0  0  0  0  0  0  0  0  0
    4.3260    2.2900   -0.7410 C   0  0  0  0  0  0  0  0  0  0  0  0
    4.3220    1.5180    0.5770 C   0  0  0  0  0  0  0  0  0  0  0  0
    4.7480    0.1030    0.3210 C   0  0  0  0  0  0  0  0  0  0  0  0
    4.7520   -0.6930    1.6050 C   0  0  0  0  0  0  0  0  0  0  0  0
    3.4110   -0.7510    2.2600 C   0  0  0  0  0  0  0  0  0  0  0  0
    2.3530   -1.3620    1.4510 C   0  0  0  0  0  0  0  0  0  0  0  0
    2.5080   -1.8310    0.2800 O   0  0  0  0  0  0  0  0  0  0  0  0
    1.0280   -1.4420    2.0190 N   0  0  0  0  0  0  0  0  0  0  0  0
   -0.0540   -2.0190    1.2850 C   0  0  1  0  0  0  0  0  0  0  0  0
   -0.7420   -3.1680    1.8960 C   0  0  0  0  0  0  0  0  0  0  0  0
   -2.1220   -3.0490    1.3560 C   0  0  0  0  0  0  0  0  0  0  0  0
   -3.1070   -4.0100    1.3590 C   0  0  0  0  0  0  0  0  0  0  0  0
   -4.3630   -3.7170    0.8500 C   0  0  0  0  0  0  0  0  0  0  0  0
   -4.5910   -2.4570    0.3510 C   0  0  0  0  0  0  0  0  0  0  0  0
   -3.6290   -1.4920    0.3390 C   0  0  0  0  0  0  0  0  0  0  0  0
   -2.3600   -1.7800    0.8480 C   0  0  0  0  0  0  0  0  0  0  0  0
   -1.1600   -0.9890    0.9930 C   0  0  2  0  0  0  0  0  0  0  0  0
   -0.6170   -0.1500   -0.0860 C   0  0  0  0  0  0  0  0  0  0  0  0
   -1.3890    0.9040   -0.6850 C   0  0  0  0  0  0  0  0  0  0  0  0
   -1.5460    2.1200   -0.0120 C   0  0  0  0  0  0  0  0  0  0  0  0
   -2.3430    3.1330   -0.4980 C   0  0  0  0  0  0  0  0  0  0  0  0
   -3.0240    2.9560   -1.7040 C   0  0  0  0  0  0  0  0  0  0  0  0
   -2.8820    1.7690   -2.3830 C   0  0  0  0  0  0  0  0  0  0  0  0
   -2.0650    0.7630   -1.8630 C   0  0  0  0  0  0  0  0  0  0  0  0
   -1.8950   -0.4150   -2.6860 C   0  0  0  0  0  0  0  0  0  0  0  0
   -0.9810   -0.4630   -3.5800 O   0  0  0  0  0  0  0  0  0  0  0  0
   -2.6770   -1.5360   -2.5800 O   0  0  0  0  0  0  0  0  0  0  0  0
   -3.6490    1.8510   -3.5280 O   0  0  0  0  0  0  0  0  0  0  0  0
   -4.3030    3.0910   -3.5980 C   0  0  0  0  0  0  0  0  0  0  0  0
   -3.8790    3.7600   -2.4370 O   0  0  0  0  0  0  0  0  0  0  0  0
  1  2  1  0
  2  3  1  0
  3  4  1  0
  4  5  1  0
  5  6  1  0
  6  7  1  0
  7  8  2  0
  7  9  1  0
 10  9  1  1
 10 11  1  0
 10 18  1  0
 11 12  1  0
 12 13  2  0
 12 17  1  0
 13 14  1  0
 14 15  2  0
 15 16  1  0
 16 17  2  0
 17 18  1  0
 18 19  1  6
 19 20  1  0
 20 21  2  0
 20 25  1  0
 21 22  1  0
 22 23  2  0
 23 24  1  0
 23 31  1  0
 24 25  2  0
 24 29  1  0
 25 26  1  0
 26 27  2  0
 26 28  1  0
 29 30  1  0
 30 31  1  0
M  CHG  1   1   1
M  END
