
     RDKit          3D

 29 31  0  0  0  0  0  0  0  0999 V2000
    6.3080    2.7480    0.5760 C   0  0  0  0  0  0  0  0  0  0  0  0
    4.9510    2.4780    1.0560 C   0  0  0  0  0  0  0  0  0  0  0  0
    4.2770    1.4000    1.1380 C   0  0  0  0  0  0  0  0  0  0  0  0
    4.5190    0.0440    0.8250 C   0  0  0  0  0  0  0  0  0  0  0  0
    5.6770   -0.6420    0.6040 C   0  0  0  0  0  0  0  0  0  0  0  0
    7.1110   -0.2600    0.7790 C   0  0  0  0  0  0  0  0  0  0  0  0
    5.3280   -1.9060    0.2240 N   0  0  0  0  0  0  0  0  0  0  0  0
    4.0060   -2.0330    0.2040 C   0  0  0  0  0  0  0  0  0  0  0  0
    3.1460   -3.0950   -0.1080 C   0  0  0  0  0  0  0  0  0  0  0  0
    1.7830   -2.9300   -0.0400 C   0  0  0  0  0  0  0  0  0  0  0  0
    1.1930   -1.7400    0.3310 C   0  0  0  0  0  0  0  0  0  0  0  0
   -0.2910   -1.5690    0.3920 C   0  0  0  0  0  0  0  0  0  0  0  0
   -0.7030   -1.0020   -0.9380 C   0  0  0  0  0  0  0  0  0  0  0  0
   -2.1340   -0.8000   -0.9750 N   0  0  0  0  0  0  0  0  0  0  0  0
   -3.0950   -1.8940   -1.0140 C   0  0  0  0  0  0  0  0  0  0  0  0
   -4.0750   -1.6160   -2.1290 C   0  0  1  0  0  0  0  0  0  0  0  0
   -3.3840   -2.1120   -3.4070 C   0  0  0  0  0  0  0  0  0  0  0  0
   -5.1870   -2.4580   -1.9590 O   0  0  0  0  0  0  0  0  0  0  0  0
   -4.5080   -0.2030   -2.2560 C   0  0  0  0  0  0  0  0  0  0  0  0
   -3.7470    0.7800   -1.5500 N   0  0  0  0  0  0  0  0  0  0  0  0
   -2.6610    0.5220   -0.9610 C   0  0  0  0  0  0  0  0  0  0  0  0
   -1.9470    1.5770   -0.2720 N   0  0  0  0  0  0  0  0  0  0  0  0
   -2.6480    2.6770    0.3360 C   0  0  0  0  0  0  0  0  0  0  0  0
   -3.4540    2.3200    1.5460 C   0  0  1  0  0  0  0  0  0  0  0  0
   -4.4740    1.2540    1.3750 C   0  0  0  0  0  0  0  0  0  0  0  0
   -2.5200    1.8620    2.6730 C   0  0  0  0  0  0  0  0  0  0  0  0
   -4.0590    3.4920    2.0000 O   0  0  0  0  0  0  0  0  0  0  0  0
    2.0580   -0.7090    0.6340 C   0  0  0  0  0  0  0  0  0  0  0  0
    3.4240   -0.8530    0.5710 C   0  0  0  0  0  0  0  0  0  0  0  0
  1  2  1  0
  2  3  2  3
  3  4  1  0
  4  5  2  0
  4 29  1  0
  5  6  1  0
  5  7  1  0
  7  8  1  0
  8  9  2  0
  8 29  1  0
  9 10  1  0
 10 11  2  0
 11 12  1  0
 11 28  1  0
 12 13  1  0
 13 14  1  0
 14 15  1  0
 14 21  1  0
 15 16  1  0
 16 17  1  6
 16 18  1  0
 16 19  1  0
 19 20  1  0
 20 21  2  0
 21 22  1  0
 22 23  1  0
 23 24  1  0
 24 25  1  6
 24 26  1  0
 24 27  1  0
 28 29  2  0
M  CHG  1  20   1
M  END
