
     RDKit          3D

 30 32  0  0  0  0  0  0  0  0999 V2000
    3.6050   -1.5670    2.0560 C   0  0  0  0  0  0  0  0  0  0  0  0
    2.7170   -1.0470    0.9260 C   0  0  0  0  0  0  0  0  0  0  0  0
    1.3220   -1.1700    1.0580 N   0  0  0  0  0  0  0  0  0  0  0  0
    0.3490   -0.7500    0.1430 C   0  0  0  0  0  0  0  0  0  0  0  0
    0.6850   -0.2020   -0.9130 O   0  0  0  0  0  0  0  0  0  0  0  0
   -1.0800   -0.9680    0.4530 C   0  0  0  0  0  0  0  0  0  0  0  0
   -1.5970   -1.8110    1.4100 C   0  0  0  0  0  0  0  0  0  0  0  0
   -2.9410   -1.7450    1.4120 N   0  0  0  0  0  0  0  0  0  0  0  0
   -3.3090   -0.8720    0.4710 C   0  0  0  0  0  0  0  0  0  0  0  0
   -4.6820   -0.4820    0.0870 C   0  0  0  0  0  0  0  0  0  0  0  0
   -5.5720   -1.2680   -0.4520 C   0  0  0  0  0  0  0  0  0  0  0  0
   -5.3220   -2.7040   -0.7780 C   0  0  0  0  0  0  0  0  0  0  0  0
   -4.0530   -3.0590   -0.4440 O   0  0  0  0  0  0  0  0  0  0  0  0
   -6.8930   -0.7100   -0.7490 C   0  0  0  0  0  0  0  0  0  0  0  0
   -7.7540   -1.5030   -1.2470 O   0  0  0  0  0  0  0  0  0  0  0  0
   -7.2860    0.6710   -0.5170 C   0  0  0  0  0  0  0  0  0  0  0  0
   -6.2050    1.4500    0.0880 C   0  0  0  0  0  0  0  0  0  0  0  0
   -5.0440    0.9290    0.3570 C   0  0  0  0  0  0  0  0  0  0  0  0
   -2.1580   -0.3680   -0.1470 C   0  0  0  0  0  0  0  0  0  0  0  0
    3.2430   -0.5170   -0.0930 N   0  0  0  0  0  0  0  0  0  0  0  0
    2.6850    0.0060   -1.1980 O   0  0  0  0  0  0  0  0  0  0  0  0
    4.7140   -0.4550   -0.0960 C   0  0  0  0  0  0  0  0  0  0  0  0
    5.2180    0.9190   -0.3010 C   0  0  0  0  0  0  0  0  0  0  0  0
    5.3060    1.8600    0.6930 C   0  0  0  0  0  0  0  0  0  0  0  0
    5.7900    3.1340    0.4800 C   0  0  0  0  0  0  0  0  0  0  0  0
    6.2070    3.4980   -0.7710 C   0  0  0  0  0  0  0  0  0  0  0  0
    6.1370    2.5840   -1.7960 C   0  0  0  0  0  0  0  0  0  0  0  0
    6.5660    2.9180   -3.1330 C   0  0  0  0  0  0  0  0  0  0  0  0
    6.9330    3.2010   -4.2200 N   0  0  0  0  0  0  0  0  0  0  0  0
    5.6410    1.2950   -1.5540 C   0  0  0  0  0  0  0  0  0  0  0  0
  1  2  1  0
  2  3  1  0
  2 20  2  3
  3  4  1  0
  4  5  2  0
  4  6  1  0
  6  7  2  0
  6 19  1  0
  7  8  1  0
  8  9  1  0
  9 10  1  0
  9 19  2  0
 10 11  2  0
 10 18  1  0
 11 12  1  0
 11 14  1  0
 12 13  1  0
 14 15  2  0
 14 16  1  0
 16 17  1  0
 17 18  2  0
 20 21  1  0
 20 22  1  0
 22 23  1  0
 23 24  2  0
 23 30  1  0
 24 25  1  0
 25 26  2  0
 26 27  1  0
 27 28  1  0
 27 30  2  0
 28 29  3  0
M  CHG  2  20   1  21  -1
M  END
