
     RDKit          3D

 29 31  0  0  0  0  0  0  0  0999 V2000
   -3.6460   -2.4820    1.9650 C   0  0  0  0  0  0  0  0  0  0  0  0
   -2.7070   -3.0780    0.9600 C   0  0  1  0  0  0  0  0  0  0  0  0
   -3.3620   -3.4270   -0.3510 C   0  0  0  0  0  0  0  0  0  0  0  0
   -1.6130   -2.0750    0.6610 N   0  0  0  0  0  0  0  0  0  0  0  0
   -0.3150   -2.4620    0.9390 C   0  0  0  0  0  0  0  0  0  0  0  0
   -0.1840   -3.6730    1.4220 O   0  0  0  0  0  0  0  0  0  0  0  0
    0.9050   -1.7300    0.7730 C   0  0  0  0  0  0  0  0  0  0  0  0
    2.1110   -2.3660    1.1240 C   0  0  0  0  0  0  0  0  0  0  0  0
    3.2880   -1.6930    0.9790 C   0  0  0  0  0  0  0  0  0  0  0  0
    3.3640   -0.4020    0.5010 C   0  0  0  0  0  0  0  0  0  0  0  0
    4.6380    0.2660    0.3670 C   0  0  0  0  0  0  0  0  0  0  0  0
    4.7400    1.4910   -0.0840 C   0  0  0  0  0  0  0  0  0  0  0  0
    6.0480    2.0690   -0.1810 N   0  0  0  0  0  0  0  0  0  0  0  0
    6.5860    2.5170   -1.4180 C   0  0  0  0  0  0  0  0  0  0  0  0
    7.8680    3.0880   -1.5380 N   0  0  0  0  0  0  0  0  0  0  0  0
    5.8390    2.3750   -2.4340 O   0  0  0  0  0  0  0  0  0  0  0  0
    2.1940    0.2010    0.1660 C   0  0  0  0  0  0  0  0  0  0  0  0
    0.9670   -0.4580    0.3000 C   0  0  0  0  0  0  0  0  0  0  0  0
   -2.0990   -0.8730    0.1340 C   0  0  0  0  0  0  0  0  0  0  0  0
   -2.2220   -0.7250   -1.2500 C   0  0  0  0  0  0  0  0  0  0  0  0
   -2.7340    0.4310   -1.7990 C   0  0  0  0  0  0  0  0  0  0  0  0
   -3.1330    1.4640   -0.9810 C   0  0  0  0  0  0  0  0  0  0  0  0
   -3.6390    2.6150   -1.4610 N   0  0  0  0  0  0  0  0  0  0  0  0
   -4.0380    3.6390   -0.7110 C   0  0  0  0  0  0  0  0  0  0  0  0
   -4.5070    4.7020   -1.1910 O   0  0  0  0  0  0  0  0  0  0  0  0
   -3.9420    3.5560    0.6590 C   0  0  0  0  0  0  0  0  0  0  0  0
   -3.4310    2.4010    1.2070 C   0  0  0  0  0  0  0  0  0  0  0  0
   -3.0300    1.3650    0.3950 C   0  0  0  0  0  0  0  0  0  0  0  0
   -2.5090    0.1840    0.9190 C   0  0  0  0  0  0  0  0  0  0  0  0
  2  1  1  1
  2  3  1  0
  2  4  1  0
  4  5  1  0
  4 19  1  0
  5  6  2  0
  5  7  1  0
  7  8  2  0
  7 18  1  0
  8  9  1  0
  9 10  2  0
 10 11  1  0
 10 17  1  0
 11 12  2  3
 12 13  1  0
 13 14  1  0
 14 15  1  0
 14 16  2  0
 17 18  2  0
 19 20  2  0
 19 29  1  0
 20 21  1  0
 21 22  2  0
 22 23  1  0
 22 28  1  0
 23 24  1  0
 24 25  2  0
 24 26  1  0
 26 27  2  0
 27 28  1  0
 28 29  2  0
M  END
