
     RDKit          3D

 30 32  0  0  0  0  0  0  0  0999 V2000
    8.3080    2.0940   -1.8580 C   0  0  0  0  0  0  0  0  0  0  0  0
    8.0980    0.6030   -1.8170 C   0  0  0  0  0  0  0  0  0  0  0  0
    6.9330    0.2390   -0.9520 C   0  0  0  0  0  0  0  0  0  0  0  0
    5.6710    0.1450   -1.4760 C   0  0  0  0  0  0  0  0  0  0  0  0
    4.5740   -0.1960   -0.6680 C   0  0  0  0  0  0  0  0  0  0  0  0
    4.6870   -0.4540    0.6780 C   0  0  0  0  0  0  0  0  0  0  0  0
    3.6090   -0.8010    1.5170 N   0  0  0  0  0  0  0  0  0  0  0  0
    2.2580   -0.9340    1.1510 C   0  0  0  0  0  0  0  0  0  0  0  0
    1.9190   -0.7410   -0.0070 O   0  0  0  0  0  0  0  0  0  0  0  0
    1.2490   -1.2930    2.0930 N   0  0  0  0  0  0  0  0  0  0  0  0
   -0.1140   -1.4510    1.8450 C   0  0  0  0  0  0  0  0  0  0  0  0
   -0.8980   -1.9640    2.8840 C   0  0  0  0  0  0  0  0  0  0  0  0
   -2.2540   -2.1610    2.7700 C   0  0  0  0  0  0  0  0  0  0  0  0
   -2.9120   -1.8540    1.6040 C   0  0  0  0  0  0  0  0  0  0  0  0
   -2.1770   -1.3410    0.5440 C   0  0  0  0  0  0  0  0  0  0  0  0
   -2.8750   -1.0100   -0.6870 C   0  0  0  0  0  0  0  0  0  0  0  0
   -2.3840   -1.1810   -1.8450 N   0  0  0  0  0  0  0  0  0  0  0  0
   -1.1340   -1.7020   -2.0230 O   0  0  0  0  0  0  0  0  0  0  0  0
   -4.2030   -0.4570   -0.5770 N   0  0  0  0  0  0  0  0  0  0  0  0
   -5.2640   -1.1660   -1.2230 C   0  0  0  0  0  0  0  0  0  0  0  0
   -6.4840   -0.2870   -1.3460 C   0  0  0  0  0  0  0  0  0  0  0  0
   -6.1430    1.0440   -1.5820 O   0  0  0  0  0  0  0  0  0  0  0  0
   -5.4970    1.6180   -0.4990 C   0  0  1  0  0  0  0  0  0  0  0  0
   -4.8040    2.8780   -1.0070 C   0  0  0  0  0  0  0  0  0  0  0  0
   -6.5340    2.0970    0.5120 C   0  0  0  0  0  0  0  0  0  0  0  0
   -4.4690    0.7480    0.1460 C   0  0  0  0  0  0  0  0  0  0  0  0
   -0.7970   -1.1530    0.6930 C   0  0  0  0  0  0  0  0  0  0  0  0
    5.9840   -0.3550    1.2070 C   0  0  0  0  0  0  0  0  0  0  0  0
    6.1980   -0.5940    2.5370 O   0  0  0  0  0  0  0  0  0  0  0  0
    7.0640   -0.0140    0.3830 C   0  0  0  0  0  0  0  0  0  0  0  0
  1  2  1  0
  2  3  1  0
  3  4  2  0
  3 30  1  0
  4  5  1  0
  5  6  2  0
  6  7  1  0
  6 28  1  0
  7  8  1  0
  8  9  2  0
  8 10  1  0
 10 11  1  0
 11 12  2  0
 11 27  1  0
 12 13  1  0
 13 14  2  0
 14 15  1  0
 15 16  1  0
 15 27  2  0
 16 17  2  3
 16 19  1  0
 17 18  1  0
 19 20  1  0
 19 26  1  0
 20 21  1  0
 21 22  1  0
 22 23  1  0
 23 24  1  6
 23 25  1  0
 23 26  1  0
 28 29  1  0
 28 30  2  0
M  CHG  2  17   1  18  -1
M  END
