
     RDKit          3D

 40 43  0  0  0  0  0  0  0  0999 V2000
  -10.7160   -2.0920    1.6760 C   0  0  0  0  0  0  0  0  0  0  0  0
  -10.5870   -2.6350    0.2760 C   0  0  0  0  0  0  0  0  0  0  0  0
  -11.3480   -3.5660   -0.0820 O   0  0  0  0  0  0  0  0  0  0  0  0
   -9.6290   -2.1090   -0.6220 N   0  0  0  0  0  0  0  0  0  0  0  0
   -9.4920   -2.6020   -1.9320 C   0  0  0  0  0  0  0  0  0  0  0  0
  -10.2420   -3.5410   -2.3270 O   0  0  0  0  0  0  0  0  0  0  0  0
   -8.4620   -2.0000   -2.8220 C   0  0  1  0  0  0  0  0  0  0  0  0
   -9.1340   -1.4270   -4.0650 C   0  0  0  0  0  0  0  0  0  0  0  0
   -7.7720   -0.9790   -2.1390 O   0  0  0  0  0  0  0  0  0  0  0  0
   -6.3990   -1.0590   -2.0100 C   0  0  0  0  0  0  0  0  0  0  0  0
   -5.7890   -2.0410   -2.5030 O   0  0  0  0  0  0  0  0  0  0  0  0
   -5.6570   -0.0200   -1.3090 C   0  0  0  0  0  0  0  0  0  0  0  0
   -6.3400    1.0640   -0.7620 C   0  0  0  0  0  0  0  0  0  0  0  0
   -5.6720    2.0480   -0.1070 C   0  0  0  0  0  0  0  0  0  0  0  0
   -4.2810    1.9400    0.0020 C   0  0  0  0  0  0  0  0  0  0  0  0
   -3.6020    0.8660   -0.5400 C   0  0  0  0  0  0  0  0  0  0  0  0
   -4.2960   -0.1320   -1.2070 C   0  0  0  0  0  0  0  0  0  0  0  0
   -2.2470    0.7940   -0.4140 O   0  0  0  0  0  0  0  0  0  0  0  0
   -1.4170    1.7400    0.2580 C   0  0  0  0  0  0  0  0  0  0  0  0
   -2.1680    2.8030    0.9750 C   0  0  2  0  0  0  0  0  0  0  0  0
   -2.0290    2.8050    2.4640 C   0  0  0  0  0  0  0  0  0  0  0  0
   -0.5790    3.1070    3.2760 S   0  0  0  0  0  0  0  0  0  0  0  0
    0.9630    2.3750    3.2880 C   0  0  0  0  0  0  0  0  0  0  0  0
    2.0230    2.6880    2.3070 C   0  0  0  0  0  0  0  0  0  0  0  0
    1.8820    2.4500    0.8730 C   0  0  0  0  0  0  0  0  0  0  0  0
    1.6990    1.1580    0.4660 O   0  0  0  0  0  0  0  0  0  0  0  0
    2.6870    0.2660    0.7780 C   0  0  0  0  0  0  0  0  0  0  0  0
    4.0390    0.5910    0.1860 C   0  0  0  0  0  0  0  0  0  0  0  0
    5.0260   -0.4900    0.6220 C   0  0  0  0  0  0  0  0  0  0  0  0
    6.3460   -0.1690    0.0300 C   0  0  0  0  0  0  0  0  0  0  0  0
    6.4180    0.8480   -0.7270 O   0  0  0  0  0  0  0  0  0  0  0  0
    7.5140   -0.9240    0.2600 N   0  0  0  0  0  0  0  0  0  0  0  0
    8.7480   -0.5480   -0.3500 C   0  0  1  0  0  0  0  0  0  0  0  0
    9.7480   -0.0100    0.6920 C   0  0  0  0  0  0  0  0  0  0  0  0
   11.0280   -0.6450    0.1920 C   0  0  2  0  0  0  0  0  0  0  0  0
   11.2170   -0.2260   -1.2030 C   0  0  0  0  0  0  0  0  0  0  0  0
   10.4240   -0.9430   -2.0220 C   0  0  0  0  0  0  0  0  0  0  0  0
    9.4680   -1.6170   -1.0880 C   0  0  1  0  0  0  0  0  0  0  0  0
   10.4870   -2.0730   -0.0250 C   0  0  0  0  0  0  0  0  0  0  0  0
   -3.5340    2.9010    0.6530 O   0  0  0  0  0  0  0  0  0  0  0  0
  1  2  1  0
  2  3  2  0
  2  4  1  0
  4  5  1  0
  5  6  2  0
  5  7  1  0
  7  8  1  6
  7  9  1  0
  9 10  1  0
 10 11  2  0
 10 12  1  0
 12 13  2  0
 12 17  1  0
 13 14  1  0
 14 15  2  0
 15 16  1  0
 15 40  1  0
 16 17  2  0
 16 18  1  0
 18 19  1  0
 19 20  1  0
 20 21  1  1
 20 40  1  0
 21 22  1  0
 22 23  1  0
 23 24  1  0
 24 25  1  0
 25 26  1  0
 26 27  1  0
 27 28  1  0
 28 29  1  0
 29 30  1  0
 30 31  2  0
 30 32  1  0
 33 32  1  1
 33 34  1  0
 33 38  1  0
 35 34  1  6
 35 36  1  0
 35 39  1  0
 36 37  2  0
 38 37  1  6
 38 39  1  0
M  END
