
     RDKit          3D

 40 43  0  0  0  0  0  0  0  0999 V2000
    7.4420   -3.8990   -0.5300 C   0  0  0  0  0  0  0  0  0  0  0  0
    7.3290   -2.5810   -0.0090 O   0  0  0  0  0  0  0  0  0  0  0  0
    8.4320   -1.8800    0.4970 C   0  0  0  0  0  0  0  0  0  0  0  0
    9.5260   -2.4640    0.4680 O   0  0  0  0  0  0  0  0  0  0  0  0
    8.1980   -0.5360    1.0080 C   0  0  1  0  0  0  0  0  0  0  0  0
    8.5510   -0.3980    2.4570 C   0  0  0  0  0  0  0  0  0  0  0  0
    8.7950    0.5760    0.1650 C   0  0  0  0  0  0  0  0  0  0  0  0
    7.9450    1.6730    0.2960 O   0  0  0  0  0  0  0  0  0  0  0  0
    6.8930    1.3030    1.1330 C   0  0  1  0  0  0  0  0  0  0  0  0
    5.2890    1.9140    0.5530 S   0  0  0  0  0  0  0  0  0  0  0  0
    4.6590    0.3090   -0.1060 C   0  0  2  0  0  0  0  0  0  0  0  0
    3.2530    0.1920    0.0910 N   0  0  0  0  0  0  0  0  0  0  0  0
    2.3720   -0.0140   -1.0030 C   0  0  0  0  0  0  0  0  0  0  0  0
    2.8940   -0.0840   -2.1430 O   0  0  0  0  0  0  0  0  0  0  0  0
    0.8830   -0.1390   -0.7850 C   0  0  0  0  0  0  0  0  0  0  0  0
    0.1640   -0.2530   -2.1240 C   0  0  2  0  0  0  0  0  0  0  0  0
    0.6430   -1.4440   -2.9140 C   0  0  0  0  0  0  0  0  0  0  0  0
    0.2850    0.9830   -2.9630 C   0  0  0  0  0  0  0  0  0  0  0  0
   -0.3290    2.2160   -2.2880 C   0  0  0  0  0  0  0  0  0  0  0  0
   -1.7780    2.0620   -2.0650 C   0  0  0  0  0  0  0  0  0  0  0  0
   -2.6720    2.4920   -3.0520 C   0  0  0  0  0  0  0  0  0  0  0  0
   -4.0390    2.3770   -2.9100 C   0  0  0  0  0  0  0  0  0  0  0  0
   -4.5590    1.8210   -1.7660 C   0  0  0  0  0  0  0  0  0  0  0  0
   -5.9060    1.6680   -1.5520 C   0  0  0  0  0  0  0  0  0  0  0  0
   -6.3870    1.1040   -0.3950 C   0  0  0  0  0  0  0  0  0  0  0  0
   -7.7600    0.9550   -0.1880 O   0  0  0  0  0  0  0  0  0  0  0  0
   -8.6460    1.3960   -1.1900 C   0  0  0  0  0  0  0  0  0  0  0  0
   -5.5480    0.6570    0.6210 C   0  0  0  0  0  0  0  0  0  0  0  0
   -6.1000    0.1050    1.7470 O   0  0  0  0  0  0  0  0  0  0  0  0
   -5.3700   -0.3770    2.8280 C   0  0  1  0  0  0  0  0  0  0  0  0
   -5.8730    0.1630    4.1560 C   0  0  0  0  0  0  0  0  0  0  0  0
   -5.5820   -1.9040    2.8300 C   0  0  0  0  0  0  0  0  0  0  0  0
   -7.0430   -2.2090    2.9810 C   0  0  0  0  0  0  0  0  0  0  0  0
   -7.8230   -1.6890    1.9760 O   0  0  0  0  0  0  0  0  0  0  0  0
   -4.2000    0.8160    0.3930 C   0  0  0  0  0  0  0  0  0  0  0  0
   -3.7060    1.3890   -0.7810 C   0  0  0  0  0  0  0  0  0  0  0  0
   -2.3260    1.5140   -0.9410 C   0  0  0  0  0  0  0  0  0  0  0  0
    5.4720   -0.5920    0.7500 C   0  0  0  0  0  0  0  0  0  0  0  0
    5.0160   -1.6580    1.2480 O   0  0  0  0  0  0  0  0  0  0  0  0
    6.7810   -0.1240    0.9320 N   0  0  0  0  0  0  0  0  0  0  0  0
  1  2  1  0
  2  3  1  0
  3  4  2  0
  3  5  1  0
  5  6  1  1
  5  7  1  0
  5 40  1  0
  7  8  1  0
  9  8  1  6
  9 10  1  0
  9 40  1  0
 10 11  1  0
 11 12  1  1
 11 38  1  0
 12 13  1  0
 13 14  2  0
 13 15  1  0
 15 16  1  0
 16 17  1  6
 16 18  1  0
 18 19  1  0
 19 20  1  0
 20 21  2  0
 20 37  1  0
 21 22  1  0
 22 23  2  0
 23 24  1  0
 23 36  1  0
 24 25  2  0
 25 26  1  0
 25 28  1  0
 26 27  1  0
 28 29  1  0
 28 35  2  0
 29 30  1  0
 30 31  1  1
 30 32  1  0
 32 33  1  0
 33 34  1  0
 35 36  1  0
 36 37  2  0
 38 39  2  0
 38 40  1  0
M  END
