
     RDKit          3D

 37 40  0  0  0  0  0  0  0  0999 V2000
    8.9670    2.4260    0.3600 C   0  0  0  0  0  0  0  0  0  0  0  0
    8.1420    1.3040    0.5500 O   0  0  0  0  0  0  0  0  0  0  0  0
    6.8430    1.3250    0.1060 C   0  0  0  0  0  0  0  0  0  0  0  0
    6.3460    2.4300   -0.5230 C   0  0  0  0  0  0  0  0  0  0  0  0
    5.0410    2.4420   -0.9650 C   0  0  0  0  0  0  0  0  0  0  0  0
    4.1900    1.3680   -0.8010 C   0  0  0  0  0  0  0  0  0  0  0  0
    2.7840    1.4090   -1.2720 C   0  0  0  0  0  0  0  0  0  0  0  0
    2.0630    0.1870   -1.1120 N   0  0  0  0  0  0  0  0  0  0  0  0
    1.5960   -0.2840    0.1720 C   0  0  0  0  0  0  0  0  0  0  0  0
    1.8580    0.4180    1.1650 O   0  0  0  0  0  0  0  0  0  0  0  0
    0.8600   -1.5120    0.3080 C   0  0  0  0  0  0  0  0  0  0  0  0
    1.3400   -2.6930   -0.2000 C   0  0  0  0  0  0  0  0  0  0  0  0
    0.6830   -3.8830   -0.1400 C   0  0  0  0  0  0  0  0  0  0  0  0
    1.1540   -5.0670   -0.6470 C   0  0  0  0  0  0  0  0  0  0  0  0
    0.4410   -6.2350   -0.5560 C   0  0  0  0  0  0  0  0  0  0  0  0
   -0.7920   -6.2580    0.0570 C   0  0  0  0  0  0  0  0  0  0  0  0
   -1.2590   -5.0570    0.5650 C   0  0  0  0  0  0  0  0  0  0  0  0
   -0.5680   -3.8700    0.4900 C   0  0  0  0  0  0  0  0  0  0  0  0
   -1.1040   -2.6920    1.0260 C   0  0  0  0  0  0  0  0  0  0  0  0
   -0.3880   -1.5300    0.9300 C   0  0  0  0  0  0  0  0  0  0  0  0
   -0.8680   -0.2630    1.4670 C   0  0  0  0  0  0  0  0  0  0  0  0
   -2.1600   -0.3740    2.0950 N   0  0  1  0  0  0  0  0  0  0  0  0
   -2.2500    0.4970    3.2770 C   0  0  0  0  0  0  0  0  0  0  0  0
   -3.2570   -0.2500    1.2070 C   0  0  0  0  0  0  0  0  0  0  0  0
   -3.5730    1.0560    0.6500 C   0  0  0  0  0  0  0  0  0  0  0  0
   -2.9230    2.2280    0.8740 C   0  0  0  0  0  0  0  0  0  0  0  0
   -3.3020    3.4320    0.2890 C   0  0  0  0  0  0  0  0  0  0  0  0
   -4.3800    3.4760   -0.5630 C   0  0  0  0  0  0  0  0  0  0  0  0
   -5.0690    2.2950   -0.8160 C   0  0  0  0  0  0  0  0  0  0  0  0
   -6.1770    2.3000   -1.6830 O   0  0  0  0  0  0  0  0  0  0  0  0
   -6.5360    3.5380   -2.2600 C   0  0  0  0  0  0  0  0  0  0  0  0
   -4.6810    1.1220   -0.2310 C   0  0  0  0  0  0  0  0  0  0  0  0
   -5.4160   -0.0920   -0.5070 C   0  0  0  0  0  0  0  0  0  0  0  0
   -6.3990   -0.3420    0.2780 O   0  0  0  0  0  0  0  0  0  0  0  0
   -5.1890   -0.9950   -1.4980 O   0  0  0  0  0  0  0  0  0  0  0  0
    4.7060    0.2600   -0.1660 C   0  0  0  0  0  0  0  0  0  0  0  0
    6.0330    0.2370    0.2880 C   0  0  0  0  0  0  0  0  0  0  0  0
  1  2  1  0
  2  3  1  0
  3  4  2  0
  3 37  1  0
  4  5  1  0
  5  6  2  0
  6  7  1  0
  6 36  1  0
  7  8  1  0
  8  9  1  0
  9 10  2  0
  9 11  1  0
 11 12  2  0
 11 20  1  0
 12 13  1  0
 13 14  2  0
 13 18  1  0
 14 15  1  0
 15 16  2  0
 16 17  1  0
 17 18  2  0
 18 19  1  0
 19 20  2  0
 20 21  1  0
 21 22  1  0
 22 23  1  1
 22 24  1  0
 24 25  1  0
 25 26  2  0
 25 32  1  0
 26 27  1  0
 27 28  2  0
 28 29  1  0
 29 30  1  0
 29 32  2  0
 30 31  1  0
 32 33  1  0
 33 34  2  0
 33 35  1  0
 36 37  2  0
M  CHG  1  22   1
M  END
