
     RDKit          3D

 40 43  0  0  0  0  0  0  0  0999 V2000
    7.5000   -2.5140    2.3920 C   0  0  0  0  0  0  0  0  0  0  0  0
    6.7160   -3.2070    1.2660 C   0  0  0  0  0  0  0  0  0  0  0  0
    7.4980   -2.9750   -0.0080 C   0  0  0  0  0  0  0  0  0  0  0  0
    6.8010   -3.6340   -1.1650 C   0  0  0  0  0  0  0  0  0  0  0  0
    5.4480   -3.0670   -1.3210 C   0  0  0  0  0  0  0  0  0  0  0  0
    4.3640   -3.6330   -0.6740 C   0  0  0  0  0  0  0  0  0  0  0  0
    3.1150   -3.0860   -0.8420 C   0  0  0  0  0  0  0  0  0  0  0  0
    2.8990   -1.9860   -1.6370 C   0  0  0  0  0  0  0  0  0  0  0  0
    1.4930   -1.4500   -1.7700 C   0  0  2  0  0  0  0  0  0  0  0  0
    1.3660   -1.2330   -3.1740 O   0  0  0  0  0  0  0  0  0  0  0  0
    1.3720   -0.1140   -1.1070 C   0  0  0  0  0  0  0  0  0  0  0  0
    0.1260    0.4990   -1.3720 N   0  0  0  0  0  0  0  0  0  0  0  0
    0.3670    1.9490   -1.0700 C   0  0  0  0  0  0  0  0  0  0  0  0
   -0.9310    2.6570   -0.9560 C   0  0  2  0  0  0  0  0  0  0  0  0
   -0.7050    4.1340   -0.9310 C   0  0  0  0  0  0  0  0  0  0  0  0
   -0.2090    4.6440   -1.9550 O   0  0  0  0  0  0  0  0  0  0  0  0
   -1.0370    4.8950    0.1850 N   0  0  0  0  0  0  0  0  0  0  0  0
   -0.8850    6.2800    0.3320 C   0  0  0  0  0  0  0  0  0  0  0  0
   -0.6490    7.1260   -0.6950 C   0  0  0  0  0  0  0  0  0  0  0  0
   -0.4850    8.5090   -0.5050 C   0  0  0  0  0  0  0  0  0  0  0  0
   -0.5700    9.0060    0.7730 C   0  0  0  0  0  0  0  0  0  0  0  0
   -0.8070    8.1920    1.8510 C   0  0  0  0  0  0  0  0  0  0  0  0
   -0.8900    8.7670    3.2110 C   0  0  0  0  0  0  0  0  0  0  0  0
   -0.9590    6.8520    1.6050 C   0  0  0  0  0  0  0  0  0  0  0  0
   -1.4920    2.2930    0.2600 O   0  0  0  0  0  0  0  0  0  0  0  0
   -1.0880    1.0030    0.6320 C   0  0  0  0  0  0  0  0  0  0  0  0
   -1.0210    0.1560   -0.6260 C   0  0  2  0  0  0  0  0  0  0  0  0
   -1.3410   -1.2660   -0.3680 C   0  0  0  0  0  0  0  0  0  0  0  0
   -2.6210   -1.4250    0.4300 C   0  0  0  0  0  0  0  0  0  0  0  0
   -2.5300   -1.5180    1.6370 O   0  0  0  0  0  0  0  0  0  0  0  0
   -3.9050   -1.4690   -0.1610 N   0  0  0  0  0  0  0  0  0  0  0  0
   -4.5300   -2.7590   -0.0660 C   0  0  2  0  0  0  0  0  0  0  0  0
   -5.2340   -3.0810   -1.3610 C   0  0  0  0  0  0  0  0  0  0  0  0
   -5.7840   -4.4590   -1.4370 C   0  0  0  0  0  0  0  0  0  0  0  0
   -6.2690   -5.1730    0.1260 S   0  0  0  0  0  0  0  0  0  0  0  0
   -5.7830   -4.1460    1.5230 C   0  0  2  0  0  0  0  0  0  0  0  0
   -6.8550   -4.1020    2.5950 C   0  0  0  0  0  0  0  0  0  0  0  0
   -5.5780   -2.7510    1.0280 C   0  0  0  0  0  0  0  0  0  0  0  0
    3.9760   -1.4220   -2.2810 C   0  0  0  0  0  0  0  0  0  0  0  0
    5.2310   -1.9500   -2.1280 C   0  0  0  0  0  0  0  0  0  0  0  0
  1  2  1  0
  2  3  1  0
  3  4  1  0
  4  5  1  0
  5  6  2  0
  5 40  1  0
  6  7  1  0
  7  8  2  0
  8  9  1  0
  8 39  1  0
  9 10  1  6
  9 11  1  0
 11 12  1  0
 12 13  1  0
 12 27  1  0
 13 14  1  0
 14 15  1  1
 14 25  1  0
 15 16  2  0
 15 17  1  0
 17 18  1  0
 18 19  2  0
 18 24  1  0
 19 20  1  0
 20 21  2  0
 21 22  1  0
 22 23  1  0
 22 24  2  0
 25 26  1  0
 26 27  1  0
 27 28  1  1
 28 29  1  0
 29 30  2  0
 29 31  1  0
 32 31  1  6
 32 33  1  0
 32 38  1  0
 33 34  1  0
 34 35  1  0
 35 36  1  0
 36 37  1  1
 36 38  1  0
 39 40  2  0
M  CHG  1  31   1
M  END
