
     RDKit          3D

 40 43  0  0  0  0  0  0  0  0999 V2000
    8.3890   -3.3420    1.0780 C   0  0  0  0  0  0  0  0  0  0  0  0
    7.3500   -2.7460    0.3450 O   0  0  0  0  0  0  0  0  0  0  0  0
    6.0770   -2.5430    0.8030 C   0  0  0  0  0  0  0  0  0  0  0  0
    5.7960   -2.9170    1.9800 O   0  0  0  0  0  0  0  0  0  0  0  0
    5.1160   -1.9390   -0.0090 N   0  0  0  0  0  0  0  0  0  0  0  0
    5.4350   -1.5170   -1.3390 C   0  0  0  0  0  0  0  0  0  0  0  0
    4.2440   -1.2550   -2.1970 C   0  0  2  0  0  0  0  0  0  0  0  0
    4.6870   -0.4260   -3.3830 C   0  0  0  0  0  0  0  0  0  0  0  0
    3.1090   -0.5360   -1.5260 C   0  0  0  0  0  0  0  0  0  0  0  0
    3.3720   -0.3770   -0.0700 C   0  0  1  0  0  0  0  0  0  0  0  0
    2.3100    0.2970    0.7280 C   0  0  2  0  0  0  0  0  0  0  0  0
    2.8020    0.3480    2.1710 C   0  0  0  0  0  0  0  0  0  0  0  0
    1.0160   -0.3550    0.6720 N   0  0  0  0  0  0  0  0  0  0  0  0
   -0.0400    0.5300    0.2330 C   0  0  1  0  0  0  0  0  0  0  0  0
   -1.2560   -0.2940   -0.0570 C   0  0  0  0  0  0  0  0  0  0  0  0
   -1.0880   -1.3300   -1.1390 C   0  0  0  0  0  0  0  0  0  0  0  0
   -2.3610   -2.0600   -1.3070 C   0  0  0  0  0  0  0  0  0  0  0  0
   -3.2930   -1.6270   -2.2370 C   0  0  0  0  0  0  0  0  0  0  0  0
   -4.5200   -2.2280   -2.4130 C   0  0  0  0  0  0  0  0  0  0  0  0
   -4.8110   -3.3090   -1.6140 C   0  0  0  0  0  0  0  0  0  0  0  0
   -3.9100   -3.7780   -0.6700 C   0  0  0  0  0  0  0  0  0  0  0  0
   -2.6700   -3.1390   -0.5230 C   0  0  0  0  0  0  0  0  0  0  0  0
   -1.6920   -3.6850    0.4150 C   0  0  0  0  0  0  0  0  0  0  0  0
   -2.2160   -4.8100    1.1940 N   0  0  0  0  0  0  0  0  0  0  0  0
   -3.2790   -4.6420    2.1380 C   0  0  0  0  0  0  0  0  0  0  0  0
   -3.7870   -5.8070    2.9040 C   0  0  0  0  0  0  0  0  0  0  0  0
   -3.8010   -3.5210    2.3390 O   0  0  0  0  0  0  0  0  0  0  0  0
   -0.2640    1.6280    1.2140 C   0  0  2  0  0  0  0  0  0  0  0  0
   -0.6360    1.0060    2.4080 O   0  0  0  0  0  0  0  0  0  0  0  0
   -1.1800    2.6650    0.9070 C   0  0  0  0  0  0  0  0  0  0  0  0
   -1.8580    3.1910   -0.0840 C   0  0  0  0  0  0  0  0  0  0  0  0
   -2.6690    4.2440    0.0770 C   0  0  0  0  0  0  0  0  0  0  0  0
   -2.8100    4.8070    1.3080 C   0  0  0  0  0  0  0  0  0  0  0  0
   -1.6840    3.7190    2.2720 S   0  0  0  0  0  0  0  0  0  0  0  0
   -3.6050    5.9290    1.7350 C   0  0  0  0  0  0  0  0  0  0  0  0
   -4.1850    6.7100    0.5760 C   0  0  0  0  0  0  0  0  0  0  0  0
   -3.4370    6.4280   -0.7100 C   0  0  2  0  0  0  0  0  0  0  0  0
   -4.0940    7.1910   -1.8120 C   0  0  0  0  0  0  0  0  0  0  0  0
   -3.5150    4.9610   -0.9840 C   0  0  0  0  0  0  0  0  0  0  0  0
    3.7850   -1.7260    0.4790 C   0  0  0  0  0  0  0  0  0  0  0  0
  1  2  1  0
  2  3  1  0
  3  4  2  0
  3  5  1  0
  5  6  1  0
  5 40  1  0
  6  7  1  0
  7  8  1  6
  7  9  1  0
 10  9  1  6
 10 11  1  0
 10 40  1  0
 11 12  1  1
 11 13  1  0
 13 14  1  0
 14 15  1  1
 14 28  1  0
 15 16  1  0
 16 17  1  0
 17 18  2  0
 17 22  1  0
 18 19  1  0
 19 20  2  0
 20 21  1  0
 21 22  2  0
 22 23  1  0
 23 24  1  0
 24 25  1  0
 25 26  1  0
 25 27  2  0
 28 29  1  1
 28 30  1  0
 30 31  2  0
 30 34  1  0
 31 32  1  0
 32 33  2  0
 32 39  1  0
 33 34  1  0
 33 35  1  0
 35 36  1  0
 36 37  1  0
 37 38  1  6
 37 39  1  0
M  CHG  1  13   1
M  END
