
     RDKit          3D

 40 42  0  0  0  0  0  0  0  0999 V2000
    1.7520    0.0540    1.0590 C   0  0  0  0  0  0  0  0  0  0  0  0
    1.8020   -1.0750    0.3350 C   0  0  0  0  0  0  0  0  0  0  0  0
    2.9010   -1.2810   -0.5740 C   0  0  0  0  0  0  0  0  0  0  0  0
    4.0990   -0.7520   -0.5190 C   0  0  0  0  0  0  0  0  0  0  0  0
    4.7420    0.1370    0.3820 C   0  0  0  0  0  0  0  0  0  0  0  0
    5.9940    0.5670    0.1950 C   0  0  0  0  0  0  0  0  0  0  0  0
    6.8150    0.1990   -0.9010 C   0  0  0  0  0  0  0  0  0  0  0  0
    8.0450    0.6460   -1.0460 C   0  0  0  0  0  0  0  0  0  0  0  0
    8.6610    1.5480   -0.1020 C   0  0  0  0  0  0  0  0  0  0  0  0
    9.9290    1.9870   -0.2830 C   0  0  0  0  0  0  0  0  0  0  0  0
   10.5750    2.9140    0.6780 C   0  0  0  0  0  0  0  0  0  0  0  0
   12.3010    2.6430    0.2900 S   0  0  1  0  0  0  0  0  0  0  0  0
   12.9470    3.8890   -0.2260 O   0  0  0  0  0  0  0  0  0  0  0  0
   13.0370    2.0490    1.4520 O   0  0  0  0  0  0  0  0  0  0  0  0
   12.0780    1.4410   -1.0090 C   0  0  0  0  0  0  0  0  0  0  0  0
   10.7130    1.6360   -1.3290 O   0  0  0  0  0  0  0  0  0  0  0  0
    2.6970   -2.3740   -1.5290 N   0  0  0  0  0  0  0  0  0  0  0  0
    1.5020   -3.1000   -1.4890 C   0  0  0  0  0  0  0  0  0  0  0  0
    1.4680   -4.3090   -1.9100 O   0  0  0  0  0  0  0  0  0  0  0  0
    0.2320   -2.4740   -0.9510 C   0  0  0  0  0  0  0  0  0  0  0  0
    0.5850   -1.8980    0.3430 N   0  0  0  0  0  0  0  0  0  0  0  0
   -0.1470   -2.0130    1.5110 C   0  0  0  0  0  0  0  0  0  0  0  0
    0.4700   -1.6390    2.5990 O   0  0  0  0  0  0  0  0  0  0  0  0
   -1.4790   -2.4770    1.6920 C   0  0  0  0  0  0  0  0  0  0  0  0
   -2.4050   -2.8690    0.8730 C   0  0  0  0  0  0  0  0  0  0  0  0
   -3.7530   -3.3180    1.4170 C   0  0  1  0  0  0  0  0  0  0  0  0
   -3.5860   -3.5520    2.7700 O   0  0  0  0  0  0  0  0  0  0  0  0
   -4.7630   -2.2310    1.1400 C   0  0  0  0  0  0  0  0  0  0  0  0
   -4.8850   -1.9810   -0.3140 C   0  0  1  0  0  0  0  0  0  0  0  0
   -5.3350   -3.2950   -0.9680 C   0  0  0  0  0  0  0  0  0  0  0  0
   -5.9150   -0.9680   -0.7020 C   0  0  0  0  0  0  0  0  0  0  0  0
   -5.7330    0.4020   -0.1530 C   0  0  1  0  0  0  0  0  0  0  0  0
   -4.4540    1.0160   -0.5700 C   0  0  0  0  0  0  0  0  0  0  0  0
   -4.5150    2.2920   -1.3330 C   0  0  0  0  0  0  0  0  0  0  0  0
   -5.7960    2.5680   -2.0340 C   0  0  0  0  0  0  0  0  0  0  0  0
   -6.7790    1.6230   -1.8440 O   0  0  0  0  0  0  0  0  0  0  0  0
   -6.9600    1.2140   -0.5590 C   0  0  2  0  0  0  0  0  0  0  0  0
   -7.1330    2.3060    0.4600 C   0  0  0  0  0  0  0  0  0  0  0  0
   -8.2090    3.1260    0.2330 O   0  0  0  0  0  0  0  0  0  0  0  0
   -8.2100    4.0770    1.2800 C   0  0  0  0  0  0  0  0  0  0  0  0
  1  2  2  0
  2  3  1  0
  2 21  1  0
  3  4  2  3
  3 17  1  0
  4  5  1  0
  5  6  2  3
  6  7  1  0
  7  8  2  3
  8  9  1  0
  9 10  2  3
 10 11  1  0
 10 16  1  0
 12 11  1  1
 12 13  2  0
 12 14  2  0
 12 15  1  0
 15 16  1  0
 17 18  1  0
 18 19  2  0
 18 20  1  0
 20 21  1  0
 21 22  1  0
 22 23  2  0
 22 24  1  0
 24 25  2  3
 25 26  1  0
 26 27  1  1
 26 28  1  0
 28 29  1  0
 29 30  1  6
 29 31  1  0
 32 31  1  6
 32 33  1  0
 32 37  1  0
 33 34  1  0
 34 35  1  0
 35 36  1  0
 36 37  1  0
 37 38  1  1
 38 39  1  0
 39 40  1  0
M  END
