
     RDKit          3D

 40 43  0  0  0  0  0  0  0  0999 V2000
  -10.2630   -0.6940   -2.8480 C   0  0  0  0  0  0  0  0  0  0  0  0
   -9.0430   -0.6820   -1.9170 C   0  0  0  0  0  0  0  0  0  0  0  0
   -8.2220    0.5220   -2.2770 C   0  0  0  0  0  0  0  0  0  0  0  0
   -6.9950    0.7160   -1.4740 C   0  0  0  0  0  0  0  0  0  0  0  0
   -7.1740    0.9760   -0.0230 C   0  0  0  0  0  0  0  0  0  0  0  0
   -8.3130    1.3160    0.4510 C   0  0  0  0  0  0  0  0  0  0  0  0
   -8.7790    1.6350    1.7970 C   0  0  0  0  0  0  0  0  0  0  0  0
   -9.7230    0.6500    2.4090 C   0  0  0  0  0  0  0  0  0  0  0  0
  -10.9150    0.5370    1.5890 N   0  0  0  0  0  0  0  0  0  0  0  0
   -6.0060    0.6790    0.8140 C   0  0  0  0  0  0  0  0  0  0  0  0
   -5.8640    0.4200    2.1440 C   0  0  0  0  0  0  0  0  0  0  0  0
   -4.5140    0.2150    2.4160 C   0  0  0  0  0  0  0  0  0  0  0  0
   -3.8630    0.3590    1.2150 C   0  0  0  0  0  0  0  0  0  0  0  0
   -2.4200    0.2350    0.9980 C   0  0  0  0  0  0  0  0  0  0  0  0
   -1.9090    0.4730   -0.2440 C   0  0  0  0  0  0  0  0  0  0  0  0
   -0.5420    0.3660   -0.5080 C   0  0  0  0  0  0  0  0  0  0  0  0
    0.3320    0.0070    0.5140 C   0  0  0  0  0  0  0  0  0  0  0  0
    1.7150   -0.0680    0.2290 N   0  0  0  0  0  0  0  0  0  0  0  0
    2.7140   -0.6980    0.9770 C   0  0  0  0  0  0  0  0  0  0  0  0
    2.4220   -1.2940    2.0330 O   0  0  0  0  0  0  0  0  0  0  0  0
    4.1630   -0.6830    0.5470 C   0  0  1  0  0  0  0  0  0  0  0  0
    4.6700    0.7170    0.7380 C   0  0  0  0  0  0  0  0  0  0  0  0
    5.0460    1.5160   -0.2290 C   0  0  0  0  0  0  0  0  0  0  0  0
    5.4900    2.7850    0.1380 O   0  0  0  0  0  0  0  0  0  0  0  0
    5.0030    1.0980   -1.6270 C   0  0  1  0  0  0  0  0  0  0  0  0
    5.6270    1.9440   -2.6930 C   0  0  0  0  0  0  0  0  0  0  0  0
    6.2970    0.6630   -2.1570 C   0  0  1  0  0  0  0  0  0  0  0  0
    7.4500    0.8640   -1.2250 C   0  0  0  0  0  0  0  0  0  0  0  0
    8.2320   -0.1520   -0.8620 C   0  0  0  0  0  0  0  0  0  0  0  0
    9.5760    0.1790    0.2460 S   0  0  0  0  0  0  0  0  0  0  0  0
   11.1140   -0.4990   -0.4070 C   0  0  0  0  0  0  0  0  0  0  0  0
    9.7570    1.6380    0.5430 O   0  0  0  0  0  0  0  0  0  0  0  0
    8.0490   -1.5530   -1.3300 C   0  0  0  0  0  0  0  0  0  0  0  0
    8.1860   -2.4580   -0.1340 C   0  0  0  0  0  0  0  0  0  0  0  0
    7.2400   -2.1280    0.9840 C   0  0  0  0  0  0  0  0  0  0  0  0
    5.7880   -2.3750    0.6290 C   0  0  0  0  0  0  0  0  0  0  0  0
    4.9440   -1.5410    1.4320 N   0  0  0  0  0  0  0  0  0  0  0  0
   -0.1850   -0.2310    1.7600 C   0  0  0  0  0  0  0  0  0  0  0  0
   -1.5710   -0.1160    2.0000 C   0  0  0  0  0  0  0  0  0  0  0  0
   -4.7710    0.6250    0.3250 O   0  0  0  0  0  0  0  0  0  0  0  0
  1  2  1  0
  2  3  1  0
  3  4  1  0
  4  5  1  0
  5  6  2  3
  5 10  1  0
  6  7  1  0
  7  8  1  0
  8  9  1  0
 10 11  2  0
 10 40  1  0
 11 12  1  0
 12 13  2  0
 13 14  1  0
 13 40  1  0
 14 15  2  0
 14 39  1  0
 15 16  1  0
 16 17  2  0
 17 18  1  0
 17 38  1  0
 18 19  1  0
 19 20  2  0
 21 19  1  1
 21 22  1  0
 21 37  1  0
 22 23  2  0
 23 24  1  0
 23 25  1  0
 25 26  1  6
 25 27  1  0
 27 26  1  6
 27 28  1  0
 28 29  2  0
 29 30  1  0
 29 33  1  0
 30 31  1  6
 30 32  2  0
 33 34  1  0
 34 35  1  0
 35 36  1  0
 36 37  1  0
 38 39  2  0
M  CHG  1  37   1
M  END
