
     RDKit          3D

 40 42  0  0  0  0  0  0  0  0999 V2000
   -2.9880   -2.9000    1.4880 C   0  0  0  0  0  0  0  0  0  0  0  0
   -4.2820   -3.1710    1.4980 C   0  0  0  0  0  0  0  0  0  0  0  0
   -4.7810   -3.9560    2.5930 C   0  0  0  0  0  0  0  0  0  0  0  0
   -4.0330   -4.3890    3.5320 O   0  0  0  0  0  0  0  0  0  0  0  0
   -5.1390   -2.6840    0.4610 C   0  0  0  0  0  0  0  0  0  0  0  0
   -6.4200   -2.9430    0.4340 C   0  0  0  0  0  0  0  0  0  0  0  0
   -7.3320   -2.4490   -0.6320 C   0  0  0  0  0  0  0  0  0  0  0  0
   -4.6600   -1.8740   -0.6350 N   0  0  0  0  0  0  0  0  0  0  0  0
   -4.1290   -0.5780   -0.3790 C   0  0  0  0  0  0  0  0  0  0  0  0
   -4.1170   -0.2040    0.8230 O   0  0  0  0  0  0  0  0  0  0  0  0
   -3.6180    0.2800   -1.4890 C   0  0  1  0  0  0  0  0  0  0  0  0
   -4.6850    0.5960   -2.5180 C   0  0  2  0  0  0  0  0  0  0  0  0
   -4.0090    1.2290   -3.7030 C   0  0  0  0  0  0  0  0  0  0  0  0
   -5.6280    1.8450   -1.5760 S   0  0  0  0  0  0  0  0  0  0  0  0
   -4.2980    2.2930   -0.3800 C   0  0  2  0  0  0  0  0  0  0  0  0
   -4.1560    3.7920   -0.4650 C   0  0  0  0  0  0  0  0  0  0  0  0
   -5.5170    4.3990   -0.0890 C   0  0  0  0  0  0  0  0  0  0  0  0
   -5.8040    3.9260    1.3300 C   0  0  0  0  0  0  0  0  0  0  0  0
   -3.1920    1.5560   -0.9240 N   0  0  0  0  0  0  0  0  0  0  0  0
   -1.8260    2.0040   -0.9190 C   0  0  0  0  0  0  0  0  0  0  0  0
   -1.5700    3.1230   -0.3970 O   0  0  0  0  0  0  0  0  0  0  0  0
   -0.7010    1.2440   -1.4830 C   0  0  0  0  0  0  0  0  0  0  0  0
    0.0690    0.4420   -0.4550 C   0  0  1  0  0  0  0  0  0  0  0  0
    1.1760   -0.2670   -1.2010 C   0  0  0  0  0  0  0  0  0  0  0  0
    2.2730   -0.2940   -0.2350 C   0  0  0  0  0  0  0  0  0  0  0  0
    3.4300   -1.0340   -0.1830 C   0  0  0  0  0  0  0  0  0  0  0  0
    4.3390   -0.8760    0.8550 C   0  0  0  0  0  0  0  0  0  0  0  0
    5.5200   -1.6050    0.9430 O   0  0  0  0  0  0  0  0  0  0  0  0
    6.6970   -1.1450    0.3350 C   0  0  0  0  0  0  0  0  0  0  0  0
    6.6120   -0.0610   -0.2760 O   0  0  0  0  0  0  0  0  0  0  0  0
    7.8760   -1.8160    0.3890 O   0  0  0  0  0  0  0  0  0  0  0  0
    9.0860   -1.4470   -0.1660 C   0  0  0  0  0  0  0  0  0  0  0  0
    9.6360   -0.1840    0.4310 C   0  0  1  0  0  0  0  0  0  0  0  0
    8.8520    0.9310    0.2770 O   0  0  0  0  0  0  0  0  0  0  0  0
    9.8540   -0.4250    1.9340 C   0  0  0  0  0  0  0  0  0  0  0  0
   10.8350   -1.5650    2.1190 C   0  0  0  0  0  0  0  0  0  0  0  0
    4.0610    0.0460    1.8480 C   0  0  0  0  0  0  0  0  0  0  0  0
    2.8950    0.7730    1.7700 C   0  0  0  0  0  0  0  0  0  0  0  0
    1.9770    0.6300    0.7440 C   0  0  0  0  0  0  0  0  0  0  0  0
    0.7540    1.2400    0.4570 O   0  0  0  0  0  0  0  0  0  0  0  0
  1  2  2  0
  2  3  1  0
  2  5  1  0
  3  4  2  0
  5  6  2  3
  5  8  1  0
  6  7  1  0
  8  9  1  0
  9 10  2  0
 11  9  1  1
 11 12  1  0
 11 19  1  0
 12 13  1  6
 12 14  1  0
 14 15  1  0
 15 16  1  6
 15 19  1  0
 16 17  1  0
 17 18  1  0
 19 20  1  0
 20 21  2  0
 20 22  1  0
 23 22  1  6
 23 24  1  0
 23 40  1  0
 24 25  1  0
 25 26  2  0
 25 39  1  0
 26 27  1  0
 27 28  1  0
 27 37  2  0
 28 29  1  0
 29 30  2  0
 29 31  1  0
 31 32  1  0
 32 33  1  0
 33 34  1  1
 33 35  1  0
 35 36  1  0
 37 38  1  0
 38 39  2  0
 39 40  1  0
M  END
