
     RDKit          3D

 19 20  0  0  0  0  0  0  0  0999 V2000
   -3.0060   -1.6810   -0.5380 C   0  0  0  0  0  0  0  0  0  0  0  0
   -3.7000   -0.7030    0.3690 C   0  0  0  0  0  0  0  0  0  0  0  0
   -2.6460    0.0080    1.6270 S   0  0  0  0  0  0  0  0  0  0  0  0
   -1.3690    1.0470    0.9470 C   0  0  0  0  0  0  0  0  0  0  0  0
   -1.5510    2.4040    0.7300 C   0  0  0  0  0  0  0  0  0  0  0  0
   -0.5670    3.1760    0.2130 N   0  0  0  0  0  0  0  0  0  0  0  0
    0.6310    2.6550   -0.1120 C   0  0  0  0  0  0  0  0  0  0  0  0
    1.5620    3.3540   -0.5940 O   0  0  0  0  0  0  0  0  0  0  0  0
    0.8920    1.3000    0.0760 C   0  0  0  0  0  0  0  0  0  0  0  0
    2.1130    0.7490   -0.2500 C   0  0  0  0  0  0  0  0  0  0  0  0
    3.3630    1.7770   -0.9170 Cl  0  0  0  0  0  0  0  0  0  0  0  0
    2.2840   -0.5970   -0.0310 C   0  0  0  0  0  0  0  0  0  0  0  0
    3.8240   -1.3420   -0.4320 S   0  0  2  0  0  0  0  0  0  0  0  0
    3.8190   -2.7860   -0.0770 O   0  0  0  0  0  0  0  0  0  0  0  0
    4.9070   -0.6860    0.4060 O   0  0  0  0  0  0  0  0  0  0  0  0
    4.1510   -1.1590   -2.0520 O   0  0  0  0  0  0  0  0  0  0  0  0
    1.2810   -1.3720    0.4940 C   0  0  0  0  0  0  0  0  0  0  0  0
    0.0610   -0.8180    0.8200 C   0  0  0  0  0  0  0  0  0  0  0  0
   -0.1350    0.5300    0.6090 C   0  0  0  0  0  0  0  0  0  0  0  0
  1  2  1  0
  2  3  1  0
  3  4  1  0
  4  5  2  0
  4 19  1  0
  5  6  1  0
  6  7  1  0
  7  8  2  0
  7  9  1  0
  9 10  2  0
  9 19  1  0
 10 11  1  0
 10 12  1  0
 12 13  1  0
 12 17  2  0
 13 14  2  0
 13 15  2  0
 13 16  1  6
 17 18  1  0
 18 19  2  0
M  END
