
     RDKit          3D

 19 20  0  0  0  0  0  0  0  0999 V2000
   -2.3450   -1.6460   -2.4170 N   0  0  0  0  0  0  0  0  0  0  0  0
   -2.0240   -0.9000   -1.2530 C   0  0  0  0  0  0  0  0  0  0  0  0
   -0.7120   -0.5660   -0.9290 C   0  0  0  0  0  0  0  0  0  0  0  0
   -0.3850    0.1550    0.1930 C   0  0  0  0  0  0  0  0  0  0  0  0
    0.9470    0.4410    0.4370 O   0  0  0  0  0  0  0  0  0  0  0  0
    1.9570    0.0110   -0.4340 C   0  0  0  0  0  0  0  0  0  0  0  0
    3.3010    0.4260    0.0190 C   0  0  0  0  0  0  0  0  0  0  0  0
    4.4560    0.1160   -0.6810 C   0  0  0  0  0  0  0  0  0  0  0  0
    5.5220    0.6540    0.0180 C   0  0  0  0  0  0  0  0  0  0  0  0
    4.9550    1.2740    1.1240 C   0  0  0  0  0  0  0  0  0  0  0  0
    3.6680    1.1060    1.0650 O   0  0  0  0  0  0  0  0  0  0  0  0
   -1.3990    0.5650    1.0320 C   0  0  0  0  0  0  0  0  0  0  0  0
   -2.7190    0.2610    0.7560 C   0  0  0  0  0  0  0  0  0  0  0  0
   -4.0170    0.7830    1.8250 S   0  0  2  0  0  0  0  0  0  0  0  0
   -4.8000   -0.4200    2.2550 O   0  0  0  0  0  0  0  0  0  0  0  0
   -4.8860    1.7150    1.0240 O   0  0  0  0  0  0  0  0  0  0  0  0
   -3.2740    1.8410    3.4260 Cl  0  0  0  0  0  0  0  0  0  0  0  0
   -3.0020   -0.4590   -0.3710 C   0  0  0  0  0  0  0  0  0  0  0  0
   -4.7020   -0.8520   -0.7270 S   0  0  0  0  0  0  0  0  0  0  0  0
  1  2  1  0
  2  3  2  0
  2 18  1  0
  3  4  1  0
  4  5  1  0
  4 12  2  0
  5  6  1  0
  6  7  1  0
  7  8  2  0
  7 11  1  0
  8  9  1  0
  9 10  2  0
 10 11  1  0
 12 13  1  0
 13 14  1  0
 13 18  2  0
 14 15  2  0
 14 16  2  0
 14 17  1  1
 18 19  1  0
M  END
