
     RDKit          3D

 19 20  0  0  0  0  0  0  0  0999 V2000
    3.2710   -0.1230    2.5330 C   0  0  0  0  0  0  0  0  0  0  0  0
    2.4840   -0.2820    1.3710 O   0  0  0  0  0  0  0  0  0  0  0  0
    3.0100   -0.8230    0.2440 C   0  0  0  0  0  0  0  0  0  0  0  0
    4.2400   -1.1680    0.3180 O   0  0  0  0  0  0  0  0  0  0  0  0
    2.3340   -1.0440   -1.0010 C   0  0  0  0  0  0  0  0  0  0  0  0
    3.1830   -1.7890   -2.4410 S   0  0  0  0  0  0  0  0  0  0  0  0
    1.7090   -1.7040   -3.4960 C   0  0  0  0  0  0  0  0  0  0  0  0
    1.6510   -2.2490   -5.1470 Cl  0  0  0  0  0  0  0  0  0  0  0  0
    0.7420   -1.1440   -2.7060 C   0  0  0  0  0  0  0  0  0  0  0  0
    1.0650   -0.8130   -1.4450 C   0  0  0  0  0  0  0  0  0  0  0  0
    0.1170   -0.2120   -0.5170 N   0  0  0  0  0  0  0  0  0  0  0  0
   -1.2180    0.0960   -0.7930 C   0  0  0  0  0  0  0  0  0  0  0  0
   -1.6860   -0.1510   -1.9340 O   0  0  0  0  0  0  0  0  0  0  0  0
   -2.0780    0.7010    0.2240 C   0  0  0  0  0  0  0  0  0  0  0  0
   -1.5260    1.1160    1.9310 S   0  0  0  0  0  0  0  0  0  0  0  0
   -3.1330    1.7870    2.4830 C   0  0  0  0  0  0  0  0  0  0  0  0
   -3.8840    1.6310    1.3580 C   0  0  0  0  0  0  0  0  0  0  0  0
   -3.3700    1.0990    0.2500 C   0  0  0  0  0  0  0  0  0  0  0  0
   -4.1210    0.9080   -0.9740 O   0  0  0  0  0  0  0  0  0  0  0  0
  1  2  1  0
  2  3  1  0
  3  4  2  0
  3  5  1  0
  5  6  1  0
  5 10  2  0
  6  7  1  0
  7  8  1  0
  7  9  2  0
  9 10  1  0
 10 11  1  0
 11 12  1  0
 12 13  2  0
 12 14  1  0
 14 15  1  0
 14 18  2  0
 15 16  1  0
 16 17  2  0
 17 18  1  0
 18 19  1  0
M  END
