
     RDKit          3D

 15 15  0  0  0  0  0  0  0  0999 V2000
   -1.5430   -1.0830    1.9670 O   0  0  0  0  0  0  0  0  0  0  0  0
   -2.0000   -1.4430    0.8570 C   0  0  0  0  0  0  0  0  0  0  0  0
   -2.8970   -2.4930    0.7970 O   0  0  0  0  0  0  0  0  0  0  0  0
   -1.6070   -0.7730   -0.4090 C   0  0  2  0  0  0  0  0  0  0  0  0
   -2.3020   -1.4210   -1.4680 O   0  0  0  0  0  0  0  0  0  0  0  0
   -0.1820   -0.9470   -0.7140 C   0  0  0  0  0  0  0  0  0  0  0  0
    0.7130   -0.0600   -0.3620 C   0  0  0  0  0  0  0  0  0  0  0  0
    2.1670   -0.2640   -0.6880 C   0  0  0  0  0  0  0  0  0  0  0  0
    2.9360   -0.2970    0.6040 C   0  0  0  0  0  0  0  0  0  0  0  0
    4.2970   -0.4860    0.3450 O   0  0  0  0  0  0  0  0  0  0  0  0
    0.3000    1.1600    0.3660 C   0  0  1  0  0  0  0  0  0  0  0  0
    1.2760    2.1600    0.1760 O   0  0  0  0  0  0  0  0  0  0  0  0
   -0.9780    1.6650   -0.2080 C   0  0  2  0  0  0  0  0  0  0  0  0
   -1.4260    2.7110    0.6220 O   0  0  0  0  0  0  0  0  0  0  0  0
   -2.0610    0.6620   -0.3090 C   0  0  0  0  0  0  0  0  0  0  0  0
  1  2  2  0
  2  3  1  0
  2  4  1  0
  4  5  1  6
  4  6  1  0
  4 15  1  0
  6  7  2  0
  7  8  1  0
  7 11  1  0
  8  9  1  0
  9 10  1  0
 11 12  1  6
 11 13  1  0
 13 14  1  1
 13 15  1  0
M  END
