
     RDKit          3D

 19 20  0  0  0  0  0  0  0  0999 V2000
   -0.0510    1.8900    0.1000 O   0  0  0  0  0  0  0  0  0  0  0  0
   -0.3470    0.6920   -0.0040 C   0  0  0  0  0  0  0  0  0  0  0  0
    0.6380   -0.3050   -0.0180 N   0  0  0  0  0  0  0  0  0  0  0  0
    2.0190   -0.1110    0.0780 C   0  0  0  0  0  0  0  0  0  0  0  0
    2.6210    1.0970    0.2010 C   0  0  0  0  0  0  0  0  0  0  0  0
    4.0220    1.2300    0.2940 C   0  0  0  0  0  0  0  0  0  0  0  0
    4.7930    0.1170    0.2590 C   0  0  0  0  0  0  0  0  0  0  0  0
    6.1780    0.2720    0.3530 O   0  0  0  0  0  0  0  0  0  0  0  0
    4.2330   -1.1220    0.1370 C   0  0  0  0  0  0  0  0  0  0  0  0
    2.8570   -1.2240    0.0480 C   0  0  0  0  0  0  0  0  0  0  0  0
    2.1220   -2.8240   -0.1120 Cl  0  0  0  0  0  0  0  0  0  0  0  0
   -1.8050    0.3130   -0.1180 C   0  0  0  0  0  0  0  0  0  0  0  0
   -2.3550   -0.9320   -0.2410 C   0  0  0  0  0  0  0  0  0  0  0  0
   -3.6820   -1.0000   -0.3240 C   0  0  0  0  0  0  0  0  0  0  0  0
   -4.4400    0.1060   -0.2900 C   0  0  0  0  0  0  0  0  0  0  0  0
   -6.1260    0.4160   -0.3670 S   0  0  2  0  0  0  0  0  0  0  0  0
   -6.4120    1.8070    0.1810 O   0  0  0  0  0  0  0  0  0  0  0  0
   -6.9180   -0.5640    0.4390 O   0  0  0  0  0  0  0  0  0  0  0  0
   -3.1420    1.3830   -0.1200 S   0  0  0  0  0  0  0  0  0  0  0  0
  1  2  2  0
  2  3  1  0
  2 12  1  0
  3  4  1  0
  4  5  2  0
  4 10  1  0
  5  6  1  0
  6  7  2  0
  7  8  1  0
  7  9  1  0
  9 10  2  0
 10 11  1  0
 12 13  2  0
 12 19  1  0
 13 14  1  0
 14 15  2  0
 16 15  1  1
 15 19  1  0
 16 17  2  0
 16 18  2  0
M  END
