
     RDKit          3D

 19 20  0  0  0  0  0  0  0  0999 V2000
   -3.2880   -0.3540    2.3370 C   0  0  0  0  0  0  0  0  0  0  0  0
   -2.1380    0.2440    1.5710 C   0  0  1  0  0  0  0  0  0  0  0  0
   -1.4650   -0.8630    0.7980 C   0  0  0  0  0  0  0  0  0  0  0  0
   -0.2620   -0.2180    0.0970 C   0  0  0  0  0  0  0  0  0  0  0  0
   -0.7030    0.8050   -0.8820 C   0  0  2  0  0  0  0  0  0  0  0  0
    0.7080    1.7260   -1.4410 S   0  0  2  0  0  0  0  0  0  0  0  0
    1.3430    2.3820   -0.2220 O   0  0  0  0  0  0  0  0  0  0  0  0
    0.2740    2.8190   -2.4090 O   0  0  0  0  0  0  0  0  0  0  0  0
    1.8730    0.7210   -2.1810 N   0  0  0  0  0  0  0  0  0  0  0  0
    2.5100   -0.3340   -1.4230 C   0  0  0  0  0  0  0  0  0  0  0  0
    2.9900   -0.0770   -0.2230 C   0  0  0  0  0  0  0  0  0  0  0  0
    3.6620   -1.5970    0.3330 S   0  0  2  0  0  0  0  0  0  0  0  0
    2.9390   -2.1050    1.5440 O   0  0  0  0  0  0  0  0  0  0  0  0
    5.1340   -1.5120    0.5400 O   0  0  0  0  0  0  0  0  0  0  0  0
    3.2610   -2.5160   -1.0960 C   0  0  0  0  0  0  0  0  0  0  0  0
    2.6600   -1.6690   -1.8950 C   0  0  0  0  0  0  0  0  0  0  0  0
    2.0830   -2.2240   -3.4880 Cl  0  0  0  0  0  0  0  0  0  0  0  0
   -1.6920    1.8070   -0.3390 C   0  0  0  0  0  0  0  0  0  0  0  0
   -2.6960    1.2650    0.6090 C   0  0  0  0  0  0  0  0  0  0  0  0
  2  1  1  6
  2  3  1  0
  2 19  1  0
  3  4  1  0
  5  4  1  1
  5  6  1  0
  5 18  1  0
  6  7  2  0
  6  8  2  0
  6  9  1  6
  9 10  1  0
 10 11  2  0
 10 16  1  0
 12 11  1  6
 12 13  2  0
 12 14  2  0
 12 15  1  0
 15 16  2  0
 16 17  1  0
 18 19  1  0
M  END
