
     RDKit          3D

 24 26  0  0  0  0  0  0  0  0999 V2000
    2.6160   -3.7100    1.4430 C   0  0  0  0  0  0  0  0  0  0  0  0
    2.9920   -2.2520    1.3320 C   0  0  0  0  0  0  0  0  0  0  0  0
    1.7210   -1.5370    0.7540 C   0  0  0  0  0  0  0  0  0  0  0  0
    1.9640   -0.1250    0.6030 C   0  0  0  0  0  0  0  0  0  0  0  0
    1.2920    0.8920    0.1300 C   0  0  0  0  0  0  0  0  0  0  0  0
    0.0430    1.0040   -0.4220 C   0  0  0  0  0  0  0  0  0  0  0  0
   -0.9340    0.1320   -0.5710 C   0  0  0  0  0  0  0  0  0  0  0  0
   -1.1370   -1.2740   -0.2340 C   0  0  0  0  0  0  0  0  0  0  0  0
   -2.6080   -1.6000   -0.6500 C   0  0  1  0  0  0  0  0  0  0  0  0
   -3.2280   -2.5490    0.3460 C   0  0  0  0  0  0  0  0  0  0  0  0
   -3.2500   -0.2450   -0.5620 C   0  0  2  0  0  0  0  0  0  0  0  0
   -4.5150   -0.1280   -1.3250 C   0  0  1  0  0  0  0  0  0  0  0  0
   -4.3800   -0.3600   -2.6700 F   0  0  0  0  0  0  0  0  0  0  0  0
   -5.4890   -0.9230   -0.7610 F   0  0  0  0  0  0  0  0  0  0  0  0
   -4.9500    1.2000   -1.2040 F   0  0  0  0  0  0  0  0  0  0  0  0
   -2.1690    0.5270   -1.2250 N   0  0  0  0  0  0  0  0  0  0  0  0
   -0.0520    2.3700   -0.7870 C   0  0  0  0  0  0  0  0  0  0  0  0
   -1.0540    2.8810   -1.3310 O   0  0  0  0  0  0  0  0  0  0  0  0
    1.0520    3.0070   -0.4720 N   0  0  0  0  0  0  0  0  0  0  0  0
    1.8740    2.1620    0.0750 N   0  0  0  0  0  0  0  0  0  0  0  0
    3.0830    2.8430    0.4260 C   0  0  0  0  0  0  0  0  0  0  0  0
    4.1820    2.3040    0.6100 O   0  0  0  0  0  0  0  0  0  0  0  0
    2.7010    4.2970    0.5100 C   0  0  0  0  0  0  0  0  0  0  0  0
    1.6300    4.3500   -0.5460 C   0  0  0  0  0  0  0  0  0  0  0  0
  1  2  1  0
  2  3  1  0
  3  4  1  0
  4  5  2  3
  5  6  1  0
  5 20  1  0
  6  7  2  3
  6 17  1  0
  7  8  1  0
  7 16  1  0
  8  9  1  0
  9 10  1  1
  9 11  1  0
 11 12  1  0
 11 16  1  6
 12 13  1  6
 12 14  1  0
 12 15  1  0
 17 18  2  0
 17 19  1  0
 19 20  1  0
 19 24  1  0
 20 21  1  0
 21 22  2  0
 21 23  1  0
 23 24  1  0
M  END
