
     RDKit          3D

 19 19  0  0  0  0  0  0  0  0999 V2000
    5.6100   -0.9220    0.3600 C   0  0  0  0  0  0  0  0  0  0  0  0
    4.3110   -0.3660    0.5770 O   0  0  0  0  0  0  0  0  0  0  0  0
    4.1180    0.9910    0.5130 C   0  0  0  0  0  0  0  0  0  0  0  0
    5.1520    1.7030    0.2580 O   0  0  0  0  0  0  0  0  0  0  0  0
    2.8140    1.6870    0.7110 C   0  0  0  0  0  0  0  0  0  0  0  0
    1.9380    1.5430   -0.8730 S   0  0  0  0  0  0  0  0  0  0  0  0
    1.4110   -0.1590   -1.1640 C   0  0  0  0  0  0  0  0  0  0  0  0
    0.2780   -0.5140   -0.2280 C   0  0  0  0  0  0  0  0  0  0  0  0
    0.4970   -1.1360    0.7910 O   0  0  0  0  0  0  0  0  0  0  0  0
   -1.0030   -0.0900   -0.6070 N   0  0  0  0  0  0  0  0  0  0  0  0
   -2.2570   -0.2620    0.0170 C   0  0  0  0  0  0  0  0  0  0  0  0
   -3.2920    0.2780   -0.6100 C   0  0  0  0  0  0  0  0  0  0  0  0
   -3.1300    1.0400   -1.9240 C   0  0  0  0  0  0  0  0  0  0  0  0
   -3.6450    2.7330   -1.7200 Cl  0  0  0  0  0  0  0  0  0  0  0  0
   -4.7100    0.2530   -0.1930 C   0  0  0  0  0  0  0  0  0  0  0  0
   -5.0350   -0.6670    1.2720 S   0  0  0  0  0  0  0  0  0  0  0  0
   -3.5010   -1.2610    1.8850 C   0  0  0  0  0  0  0  0  0  0  0  0
   -2.3510   -1.0260    1.2570 C   0  0  0  0  0  0  0  0  0  0  0  0
   -1.2610   -1.5710    1.8880 O   0  0  0  0  0  0  0  0  0  0  0  0
  1  2  1  0
  2  3  1  0
  3  4  2  0
  3  5  1  0
  5  6  1  0
  6  7  1  0
  7  8  1  0
  8  9  2  0
  8 10  1  0
 10 11  1  0
 11 12  2  0
 11 18  1  0
 12 13  1  0
 12 15  1  0
 13 14  1  0
 15 16  1  0
 16 17  1  0
 17 18  2  0
 18 19  1  0
M  END
