
     RDKit          3D

 28 30  0  0  0  0  0  0  0  0999 V2000
   -4.1030   -2.2940    3.2410 C   0  0  0  0  0  0  0  0  0  0  0  0
   -5.0350   -1.4900    2.3810 C   0  0  0  0  0  0  0  0  0  0  0  0
   -4.6360   -1.5110    0.9210 C   0  0  2  0  0  0  0  0  0  0  0  0
   -4.6330   -2.9250    0.3680 C   0  0  0  0  0  0  0  0  0  0  0  0
   -3.4120   -0.9410    0.6680 O   0  0  0  0  0  0  0  0  0  0  0  0
   -3.1140    0.1400   -0.1380 C   0  0  0  0  0  0  0  0  0  0  0  0
   -4.0600    0.8430   -0.8470 C   0  0  0  0  0  0  0  0  0  0  0  0
   -3.7660    1.9320   -1.6600 C   0  0  0  0  0  0  0  0  0  0  0  0
   -4.8350    2.6300   -2.3840 C   0  0  0  0  0  0  0  0  0  0  0  0
   -6.0180    2.2230   -2.2540 O   0  0  0  0  0  0  0  0  0  0  0  0
   -4.5770    3.7140   -3.1980 O   0  0  0  0  0  0  0  0  0  0  0  0
   -2.4500    2.3130   -1.7480 C   0  0  0  0  0  0  0  0  0  0  0  0
   -1.4460    1.6450   -1.0570 C   0  0  0  0  0  0  0  0  0  0  0  0
   -1.7910    0.5770   -0.2690 C   0  0  0  0  0  0  0  0  0  0  0  0
   -0.8500   -0.1310    0.4440 O   0  0  0  0  0  0  0  0  0  0  0  0
    0.4810    0.2220    0.3830 C   0  0  0  0  0  0  0  0  0  0  0  0
    1.3830   -0.5940   -0.0800 C   0  0  0  0  0  0  0  0  0  0  0  0
    2.7720   -0.2470   -0.1510 N   0  0  0  0  0  0  0  0  0  0  0  0
    3.2100    1.0140    0.2860 C   0  0  0  0  0  0  0  0  0  0  0  0
    4.4400    1.4380    0.2570 C   0  0  0  0  0  0  0  0  0  0  0  0
    5.6150    0.7560   -0.2130 C   0  0  0  0  0  0  0  0  0  0  0  0
    6.8490    1.3150   -0.1700 C   0  0  0  0  0  0  0  0  0  0  0  0
    7.7890    0.4620   -0.6730 O   0  0  0  0  0  0  0  0  0  0  0  0
    7.1940   -0.5770   -1.2680 N   0  0  0  0  0  0  0  0  0  0  0  0
    7.8160   -1.8100   -0.8150 C   0  0  0  0  0  0  0  0  0  0  0  0
    5.8130   -0.5450   -0.8290 C   0  0  0  0  0  0  0  0  0  0  0  0
    2.1720    1.9400    0.8150 C   0  0  0  0  0  0  0  0  0  0  0  0
    0.9240    1.5290    0.8400 C   0  0  0  0  0  0  0  0  0  0  0  0
  1  2  1  0
  2  3  1  0
  3  4  1  1
  3  5  1  0
  5  6  1  0
  6  7  2  0
  6 14  1  0
  7  8  1  0
  8  9  1  0
  8 12  2  0
  9 10  2  0
  9 11  1  0
 12 13  1  0
 13 14  2  0
 14 15  1  0
 15 16  1  0
 16 17  2  0
 16 28  1  0
 17 18  1  0
 18 19  1  0
 19 20  2  3
 19 27  1  0
 20 21  1  0
 21 22  2  0
 21 26  1  0
 22 23  1  0
 23 24  1  0
 24 25  1  0
 24 26  1  0
 27 28  2  0
M  END
