
     RDKit          3D

 28 30  0  0  0  0  0  0  0  0999 V2000
    1.5300    3.6780    0.7320 C   0  0  0  0  0  0  0  0  0  0  0  0
    1.8610    2.4540    0.1410 O   0  0  0  0  0  0  0  0  0  0  0  0
    0.9810    1.4410   -0.1270 C   0  0  0  0  0  0  0  0  0  0  0  0
   -0.3780    1.5350    0.1740 C   0  0  0  0  0  0  0  0  0  0  0  0
   -1.2140    0.4760   -0.1210 C   0  0  0  0  0  0  0  0  0  0  0  0
   -0.6930   -0.6800   -0.7190 C   0  0  0  0  0  0  0  0  0  0  0  0
    0.6470   -0.7750   -1.0170 C   0  0  0  0  0  0  0  0  0  0  0  0
    1.4650    0.2840   -0.7180 C   0  0  0  0  0  0  0  0  0  0  0  0
    2.8110    0.1970   -1.0140 O   0  0  0  0  0  0  0  0  0  0  0  0
    3.3480   -0.9600   -1.6150 C   0  0  0  0  0  0  0  0  0  0  0  0
    4.8280   -0.8520   -1.8530 C   0  0  0  0  0  0  0  0  0  0  0  0
    5.6050   -0.6490   -0.6060 C   0  0  0  0  0  0  0  0  0  0  0  0
    6.5030   -1.5210   -0.2570 C   0  0  0  0  0  0  0  0  0  0  0  0
    7.3210   -1.4040    0.9610 C   0  0  0  0  0  0  0  0  0  0  0  0
    7.0330   -0.2600    1.6820 O   0  0  0  0  0  0  0  0  0  0  0  0
    6.0800    0.6660    1.3110 C   0  0  0  0  0  0  0  0  0  0  0  0
    5.3560    0.5240    0.2040 C   0  0  0  0  0  0  0  0  0  0  0  0
   -1.2820   -1.9070   -1.1350 N   0  0  0  0  0  0  0  0  0  0  0  0
   -2.5400   -2.6120   -1.0310 C   0  0  0  0  0  0  0  0  0  0  0  0
   -3.4000   -2.0840    0.0910 C   0  0  0  0  0  0  0  0  0  0  0  0
   -4.3090   -0.9770   -0.3470 C   0  0  0  0  0  0  0  0  0  0  0  0
   -3.8380    0.2500    0.2730 N   0  0  0  0  0  0  0  0  0  0  0  0
   -4.8540    0.9890    0.9950 C   0  0  2  0  0  0  0  0  0  0  0  0
   -5.5390    0.1450    2.0480 C   0  0  0  0  0  0  0  0  0  0  0  0
   -5.8520    1.4820   -0.0500 C   0  0  0  0  0  0  0  0  0  0  0  0
   -6.8590    2.2020    0.5790 O   0  0  0  0  0  0  0  0  0  0  0  0
   -2.5530    0.8680    0.3050 C   0  0  0  0  0  0  0  0  0  0  0  0
   -2.5880    2.0350    0.8280 O   0  0  0  0  0  0  0  0  0  0  0  0
  1  2  1  0
  2  3  1  0
  3  4  2  0
  3  8  1  0
  4  5  1  0
  5  6  2  0
  5 27  1  0
  6  7  1  0
  6 18  1  0
  7  8  2  0
  8  9  1  0
  9 10  1  0
 10 11  1  0
 11 12  1  0
 12 13  2  0
 12 17  1  0
 13 14  1  0
 14 15  1  0
 15 16  1  0
 16 17  2  0
 18 19  1  0
 19 20  1  0
 20 21  1  0
 21 22  1  0
 22 23  1  0
 22 27  1  0
 23 24  1  1
 23 25  1  0
 25 26  1  0
 27 28  2  0
M  END
