
     RDKit          3D

 28 30  0  0  0  0  0  0  0  0999 V2000
   -1.7380    5.0040   -2.1830 C   0  0  0  0  0  0  0  0  0  0  0  0
   -2.1770    4.3770   -1.1290 C   0  0  0  0  0  0  0  0  0  0  0  0
   -1.8610    2.9460   -0.9060 C   0  0  0  0  0  0  0  0  0  0  0  0
   -2.3080    2.3340    0.1530 C   0  0  0  0  0  0  0  0  0  0  0  0
   -2.1490    0.9790    0.5980 C   0  0  0  0  0  0  0  0  0  0  0  0
   -2.7640    0.6920    1.7130 N   0  0  0  0  0  0  0  0  0  0  0  0
   -2.7420   -0.5100    2.2880 O   0  0  0  0  0  0  0  0  0  0  0  0
   -2.0250   -1.5940    1.8160 C   0  0  1  0  0  0  0  0  0  0  0  0
   -2.8720   -2.7940    1.7160 C   0  0  0  0  0  0  0  0  0  0  0  0
   -2.5270   -3.8350    2.4890 C   0  0  0  0  0  0  0  0  0  0  0  0
   -4.0180   -2.9530    0.8630 C   0  0  0  0  0  0  0  0  0  0  0  0
   -4.4740   -2.0290    0.0610 C   0  0  0  0  0  0  0  0  0  0  0  0
   -1.3380   -1.2750    0.5200 C   0  0  0  0  0  0  0  0  0  0  0  0
   -1.3800   -0.0830   -0.0480 C   0  0  0  0  0  0  0  0  0  0  0  0
   -0.5020   -0.0600   -1.2250 C   0  0  1  0  0  0  0  0  0  0  0  0
    0.8600    0.5310   -0.8610 C   0  0  0  0  0  0  0  0  0  0  0  0
    1.0160    1.7040   -0.5190 O   0  0  0  0  0  0  0  0  0  0  0  0
    1.9970   -0.3060   -0.9170 N   0  0  0  0  0  0  0  0  0  0  0  0
    3.3230    0.0700   -0.6150 C   0  0  0  0  0  0  0  0  0  0  0  0
    3.7430    1.2690   -0.1590 C   0  0  0  0  0  0  0  0  0  0  0  0
    5.0960    1.5320    0.1040 C   0  0  0  0  0  0  0  0  0  0  0  0
    6.0540    0.5670   -0.0970 C   0  0  0  0  0  0  0  0  0  0  0  0
    5.6580   -0.6460   -0.5550 C   0  0  0  0  0  0  0  0  0  0  0  0
    6.6370   -1.6320   -0.7590 O   0  0  0  0  0  0  0  0  0  0  0  0
    4.3290   -0.8870   -0.8070 C   0  0  0  0  0  0  0  0  0  0  0  0
   -0.2800   -1.4520   -1.5090 O   0  0  0  0  0  0  0  0  0  0  0  0
   -0.6250   -2.1650   -0.4110 C   0  0  0  0  0  0  0  0  0  0  0  0
   -0.4170   -3.3920   -0.1350 O   0  0  0  0  0  0  0  0  0  0  0  0
  1  2  2  0
  2  3  1  0
  3  4  2  3
  4  5  1  0
  5  6  2  0
  5 14  1  0
  6  7  1  0
  7  8  1  0
  8  9  1  6
  8 13  1  0
  9 10  2  0
  9 11  1  0
 11 12  2  0
 13 14  2  0
 13 27  1  0
 14 15  1  0
 15 16  1  1
 15 26  1  0
 16 17  2  0
 16 18  1  0
 18 19  1  0
 19 20  2  0
 19 25  1  0
 20 21  1  0
 21 22  2  0
 22 23  1  0
 23 24  1  0
 23 25  2  0
 26 27  1  0
 27 28  2  0
M  END
