
     RDKit          3D

 28 30  0  0  0  0  0  0  0  0999 V2000
   -5.7960    1.9430    0.2300 C   0  0  0  0  0  0  0  0  0  0  0  0
   -6.6060    0.9410    0.3820 C   0  0  0  0  0  0  0  0  0  0  0  0
   -7.9320    1.1000    0.8130 O   0  0  0  0  0  0  0  0  0  0  0  0
   -8.7460   -0.0130    0.9520 C   0  0  0  0  0  0  0  0  0  0  0  0
   -8.3530   -1.2390    0.7020 C   0  0  0  0  0  0  0  0  0  0  0  0
   -6.9920   -1.4480    0.2550 C   0  0  0  0  0  0  0  0  0  0  0  0
   -6.1780   -0.4100    0.1090 C   0  0  0  0  0  0  0  0  0  0  0  0
   -4.8450   -0.6790   -0.3390 N   0  0  0  0  0  0  0  0  0  0  0  0
   -3.6820   -0.4350    0.4330 C   0  0  0  0  0  0  0  0  0  0  0  0
   -3.8160    0.0410    1.5870 O   0  0  0  0  0  0  0  0  0  0  0  0
   -2.3420   -0.7350   -0.1070 C   0  0  0  0  0  0  0  0  0  0  0  0
   -2.0610   -1.2540   -1.3440 C   0  0  0  0  0  0  0  0  0  0  0  0
   -0.6720   -1.3550   -1.3880 C   0  0  0  0  0  0  0  0  0  0  0  0
   -0.1970   -0.8930   -0.1810 C   0  0  0  0  0  0  0  0  0  0  0  0
    1.2130   -0.7920    0.2750 C   0  0  0  0  0  0  0  0  0  0  0  0
    1.7080    0.5700   -0.1310 C   0  0  2  0  0  0  0  0  0  0  0  0
    1.6130    0.6850   -1.6300 C   0  0  0  0  0  0  0  0  0  0  0  0
    3.0640    0.8520    0.3140 N   0  0  0  0  0  0  0  0  0  0  0  0
    3.2420    1.9400    1.2250 C   0  0  0  0  0  0  0  0  0  0  0  0
    4.1000    0.0600   -0.1660 C   0  0  0  0  0  0  0  0  0  0  0  0
    3.7730   -0.8740   -0.9900 O   0  0  0  0  0  0  0  0  0  0  0  0
    5.5350    0.1580    0.1540 C   0  0  0  0  0  0  0  0  0  0  0  0
    6.1820    0.9820    0.9430 C   0  0  0  0  0  0  0  0  0  0  0  0
    7.6230    0.6650    0.9210 C   0  0  0  0  0  0  0  0  0  0  0  0
    7.7370   -0.4720    0.0030 C   0  0  0  0  0  0  0  0  0  0  0  0
    6.5350   -0.7620   -0.4370 C   0  0  0  0  0  0  0  0  0  0  0  0
    6.3010   -1.8150   -1.3450 O   0  0  0  0  0  0  0  0  0  0  0  0
   -1.2290   -0.5400    0.5370 O   0  0  0  0  0  0  0  0  0  0  0  0
  1  2  2  0
  2  3  1  0
  2  7  1  0
  3  4  1  0
  4  5  2  0
  5  6  1  0
  6  7  2  0
  7  8  1  0
  8  9  1  0
  9 10  2  0
  9 11  1  0
 11 12  2  0
 11 28  1  0
 12 13  1  0
 13 14  2  0
 14 15  1  0
 14 28  1  0
 15 16  1  0
 16 17  1  6
 16 18  1  0
 18 19  1  0
 18 20  1  0
 20 21  2  0
 20 22  1  0
 22 23  2  0
 22 26  1  0
 23 24  1  0
 24 25  1  0
 25 26  2  0
 26 27  1  0
M  END
