
     RDKit          3D

 28 29  0  0  0  0  0  0  0  0999 V2000
    1.0260    0.3260    0.5380 C   0  0  0  0  0  0  0  0  0  0  0  0
    0.6950   -0.0380   -0.8610 C   0  0  0  0  0  0  0  0  0  0  0  0
   -0.5270    0.0890   -1.4010 C   0  0  0  0  0  0  0  0  0  0  0  0
   -1.7550    0.6160   -0.7070 C   0  0  0  0  0  0  0  0  0  0  0  0
   -2.2470    1.8280   -1.4660 C   0  0  0  0  0  0  0  0  0  0  0  0
   -3.4190    2.3610   -0.8240 N   0  0  0  0  0  0  0  0  0  0  0  0
   -4.6160    1.6550   -0.6470 C   0  0  0  0  0  0  0  0  0  0  0  0
   -4.7030    0.4780   -1.0690 O   0  0  0  0  0  0  0  0  0  0  0  0
   -5.8120    2.2390    0.0260 C   0  0  0  0  0  0  0  0  0  0  0  0
   -6.9670    1.3180    0.1490 C   0  0  0  0  0  0  0  0  0  0  0  0
   -6.7500    0.0730    0.9310 C   0  0  2  0  0  0  0  0  0  0  0  0
   -8.0520   -0.7420    0.9440 C   0  0  0  0  0  0  0  0  0  0  0  0
   -6.3990    0.3140    2.3710 C   0  0  0  0  0  0  0  0  0  0  0  0
   -0.4250   -0.3590   -2.6910 O   0  0  0  0  0  0  0  0  0  0  0  0
    0.8350   -0.7750   -3.0050 N   0  0  0  0  0  0  0  0  0  0  0  0
    1.6420   -0.5830   -1.8110 C   0  0  0  0  0  0  0  0  0  0  0  0
    2.9200   -0.8330   -1.8100 C   0  0  0  0  0  0  0  0  0  0  0  0
    3.7340   -1.4390   -2.9530 C   0  0  0  0  0  0  0  0  0  0  0  0
    4.7590   -2.2290   -2.2140 C   0  0  0  0  0  0  0  0  0  0  0  0
    4.7500   -1.8380   -0.7510 C   0  0  0  0  0  0  0  0  0  0  0  0
    3.9300   -0.5770   -0.7770 C   0  0  0  0  0  0  0  0  0  0  0  0
    4.0970    0.5260   -0.0940 C   0  0  0  0  0  0  0  0  0  0  0  0
    5.1210    0.7100    0.9230 C   0  0  0  0  0  0  0  0  0  0  0  0
    5.2000    1.8290    1.5260 O   0  0  0  0  0  0  0  0  0  0  0  0
    6.0370   -0.2350    1.3090 O   0  0  0  0  0  0  0  0  0  0  0  0
    7.0180   -0.0510    2.2890 C   0  0  0  0  0  0  0  0  0  0  0  0
    7.8030   -1.3520    2.3890 C   0  0  0  0  0  0  0  0  0  0  0  0
    6.9160   -2.3720    2.7470 O   0  0  0  0  0  0  0  0  0  0  0  0
  1  2  1  0
  2  3  2  0
  2 16  1  0
  3  4  1  0
  3 14  1  0
  4  5  1  0
  5  6  1  0
  6  7  1  0
  7  8  2  0
  7  9  1  0
  9 10  1  0
 10 11  1  0
 11 12  1  1
 11 13  1  0
 14 15  1  0
 15 16  1  0
 16 17  2  3
 17 18  1  0
 17 21  1  0
 18 19  1  0
 19 20  1  0
 20 21  1  0
 21 22  2  3
 22 23  1  0
 23 24  2  0
 23 25  1  0
 25 26  1  0
 26 27  1  0
 27 28  1  0
M  END
