
     RDKit          3D

 28 30  0  0  0  0  0  0  0  0999 V2000
   -4.6940    3.1680    1.4610 C   0  0  0  0  0  0  0  0  0  0  0  0
   -3.9020    2.2370    0.7520 O   0  0  0  0  0  0  0  0  0  0  0  0
   -2.5330    2.1180    1.0180 C   0  0  0  0  0  0  0  0  0  0  0  0
   -2.0910    2.8740    1.8980 O   0  0  0  0  0  0  0  0  0  0  0  0
   -1.7060    1.1700    0.3020 C   0  0  0  0  0  0  0  0  0  0  0  0
   -0.4180    0.9870    0.4800 C   0  0  0  0  0  0  0  0  0  0  0  0
    0.4510    1.6600    1.3980 C   0  0  0  0  0  0  0  0  0  0  0  0
    1.7360    1.4190    1.5190 C   0  0  0  0  0  0  0  0  0  0  0  0
    2.5350    0.4310    0.7580 C   0  0  0  0  0  0  0  0  0  0  0  0
    3.6470    1.1060   -0.0250 C   0  0  1  0  0  0  0  0  0  0  0  0
    4.5730    1.8350    0.8960 C   0  0  0  0  0  0  0  0  0  0  0  0
    4.3480    0.1240   -0.9040 C   0  0  0  0  0  0  0  0  0  0  0  0
    4.3100    0.2160   -2.2240 C   0  0  0  0  0  0  0  0  0  0  0  0
    4.9760   -0.7140   -3.1390 C   0  0  0  0  0  0  0  0  0  0  0  0
    5.6720   -1.7310   -2.4700 O   0  0  0  0  0  0  0  0  0  0  0  0
    5.7370   -1.8630   -1.1050 C   0  0  0  0  0  0  0  0  0  0  0  0
    5.1130   -0.9900   -0.3370 C   0  0  0  0  0  0  0  0  0  0  0  0
   -2.3110    0.3450   -0.6940 O   0  0  0  0  0  0  0  0  0  0  0  0
   -3.0420   -0.7290   -0.1930 C   0  0  0  0  0  0  0  0  0  0  0  0
   -3.1790   -0.9870    1.1520 C   0  0  0  0  0  0  0  0  0  0  0  0
   -3.8880   -2.0310    1.6860 C   0  0  0  0  0  0  0  0  0  0  0  0
   -4.5120   -2.8880    0.7980 C   0  0  0  0  0  0  0  0  0  0  0  0
   -4.3960   -2.6590   -0.5730 C   0  0  0  0  0  0  0  0  0  0  0  0
   -4.8890   -3.3190   -1.6440 N   0  0  0  0  0  0  0  0  0  0  0  0
   -4.4900   -2.6940   -2.7710 C   0  0  0  0  0  0  0  0  0  0  0  0
   -4.7230   -2.9760   -3.9580 O   0  0  0  0  0  0  0  0  0  0  0  0
   -3.7330   -1.6220   -2.4130 N   0  0  0  0  0  0  0  0  0  0  0  0
   -3.6770   -1.6010   -1.0870 C   0  0  0  0  0  0  0  0  0  0  0  0
  1  2  1  0
  2  3  1  0
  3  4  2  0
  3  5  1  0
  5  6  2  3
  5 18  1  0
  6  7  1  0
  7  8  2  3
  8  9  1  0
  9 10  1  0
 10 11  1  1
 10 12  1  0
 12 13  2  0
 12 17  1  0
 13 14  1  0
 14 15  1  0
 15 16  1  0
 16 17  2  0
 18 19  1  0
 19 20  2  0
 19 28  1  0
 20 21  1  0
 21 22  2  0
 22 23  1  0
 23 24  1  0
 23 28  2  0
 24 25  1  0
 25 26  2  0
 25 27  1  0
 27 28  1  0
M  END
