
     RDKit          3D

 28 30  0  0  0  0  0  0  0  0999 V2000
   -3.7150    2.9320   -0.5470 C   0  0  0  0  0  0  0  0  0  0  0  0
   -4.9460    2.1150   -0.7300 C   0  0  0  0  0  0  0  0  0  0  0  0
   -4.7940    0.8190   -1.4290 C   0  0  1  0  0  0  0  0  0  0  0  0
   -4.2540    0.9490   -2.7110 O   0  0  0  0  0  0  0  0  0  0  0  0
   -4.3050   -0.3500   -0.6780 C   0  0  0  0  0  0  0  0  0  0  0  0
   -2.9380   -0.5010   -0.3960 N   0  0  0  0  0  0  0  0  0  0  0  0
   -2.4030    0.3500    0.5620 C   0  0  0  0  0  0  0  0  0  0  0  0
   -1.6380   -0.6010    1.5270 C   0  0  0  0  0  0  0  0  0  0  0  0
   -0.3590   -0.9030    0.7250 C   0  0  1  0  0  0  0  0  0  0  0  0
    0.5920   -1.5320    1.6360 C   0  0  0  0  0  0  0  0  0  0  0  0
    0.1120   -2.0270    2.8360 C   0  0  0  0  0  0  0  0  0  0  0  0
    0.9270   -2.6720    3.7290 C   0  0  0  0  0  0  0  0  0  0  0  0
    0.4800   -3.1260    4.8320 O   0  0  0  0  0  0  0  0  0  0  0  0
    2.2270   -2.8500    3.4760 N   0  0  0  0  0  0  0  0  0  0  0  0
    2.7510   -2.3980    2.3410 C   0  0  0  0  0  0  0  0  0  0  0  0
    1.9400   -1.7330    1.4070 C   0  0  0  0  0  0  0  0  0  0  0  0
    2.5580   -1.2150    0.2000 C   0  0  0  0  0  0  0  0  0  0  0  0
    1.9880   -0.4620   -0.5910 O   0  0  0  0  0  0  0  0  0  0  0  0
    3.8600   -1.5810   -0.0880 O   0  0  0  0  0  0  0  0  0  0  0  0
    4.6130   -1.1820   -1.1990 C   0  0  0  0  0  0  0  0  0  0  0  0
    4.7310    0.3070   -1.1600 C   0  0  0  0  0  0  0  0  0  0  0  0
    5.7030    1.0040   -0.4640 C   0  0  0  0  0  0  0  0  0  0  0  0
    5.4770    2.3600   -0.6750 C   0  0  0  0  0  0  0  0  0  0  0  0
    4.3690    2.4130   -1.4980 C   0  0  0  0  0  0  0  0  0  0  0  0
    3.7320    3.6610   -2.0120 C   0  0  0  0  0  0  0  0  0  0  0  0
    3.9700    1.1910   -1.7530 O   0  0  0  0  0  0  0  0  0  0  0  0
   -0.8230   -1.7580   -0.4070 C   0  0  0  0  0  0  0  0  0  0  0  0
   -2.3040   -1.7300   -0.6500 C   0  0  0  0  0  0  0  0  0  0  0  0
  1  2  1  0
  2  3  1  0
  3  4  1  6
  3  5  1  0
  5  6  1  0
  6  7  1  0
  6 28  1  0
  7  8  1  0
  8  9  1  0
  9 10  1  1
  9 27  1  0
 10 11  2  0
 10 16  1  0
 11 12  1  0
 12 13  2  0
 12 14  1  0
 14 15  1  0
 15 16  2  0
 16 17  1  0
 17 18  2  0
 17 19  1  0
 19 20  1  0
 20 21  1  0
 21 22  2  0
 21 26  1  0
 22 23  1  0
 23 24  2  0
 24 25  1  0
 24 26  1  0
 27 28  1  0
M  END
