
     RDKit          3D

 28 30  0  0  0  0  0  0  0  0999 V2000
   -0.2510    3.9410   -0.2220 C   0  0  0  0  0  0  0  0  0  0  0  0
    0.4160    3.2590    0.9500 C   0  0  2  0  0  0  0  0  0  0  0  0
    1.6400    4.1210    1.2950 C   0  0  0  0  0  0  0  0  0  0  0  0
    1.0290    1.9290    0.4440 C   0  0  0  0  0  0  0  0  0  0  0  0
   -0.0130    1.0390   -0.1170 C   0  0  2  0  0  0  0  0  0  0  0  0
   -1.0660    0.7230    0.9300 C   0  0  0  0  0  0  0  0  0  0  0  0
   -2.1270   -0.1170    0.4730 N   0  0  0  0  0  0  0  0  0  0  0  0
   -2.9800    0.2360   -0.6040 C   0  0  0  0  0  0  0  0  0  0  0  0
   -2.8390    1.3390   -1.2200 O   0  0  0  0  0  0  0  0  0  0  0  0
   -4.0470   -0.6560   -1.0370 C   0  0  0  0  0  0  0  0  0  0  0  0
   -4.2110   -1.9280   -0.5810 C   0  0  0  0  0  0  0  0  0  0  0  0
   -5.2380   -2.7790   -0.9970 C   0  0  0  0  0  0  0  0  0  0  0  0
   -6.1040   -2.3010   -1.8970 N   0  0  0  0  0  0  0  0  0  0  0  0
   -5.9780   -1.0440   -2.3760 C   0  0  0  0  0  0  0  0  0  0  0  0
   -4.9730   -0.1980   -1.9750 C   0  0  0  0  0  0  0  0  0  0  0  0
    0.5280   -0.1490   -0.8020 C   0  0  0  0  0  0  0  0  0  0  0  0
    1.3460   -1.1180   -0.1130 C   0  0  0  0  0  0  0  0  0  0  0  0
    0.7080   -2.2020    0.5490 C   0  0  0  0  0  0  0  0  0  0  0  0
    1.3980   -3.1580    1.2440 C   0  0  0  0  0  0  0  0  0  0  0  0
    2.7680   -3.1070    1.3320 C   0  0  0  0  0  0  0  0  0  0  0  0
    3.4080   -2.0820    0.7090 C   0  0  0  0  0  0  0  0  0  0  0  0
    2.6920   -1.0940   -0.0100 C   0  0  0  0  0  0  0  0  0  0  0  0
    3.5270   -0.1010   -0.6410 C   0  0  0  0  0  0  0  0  0  0  0  0
    3.8920    0.9200   -0.0560 O   0  0  0  0  0  0  0  0  0  0  0  0
    3.9560   -0.2790   -1.9690 O   0  0  0  0  0  0  0  0  0  0  0  0
    4.7640   -2.2570    0.9470 O   0  0  0  0  0  0  0  0  0  0  0  0
    4.9860   -3.5910    1.4280 C   0  0  0  0  0  0  0  0  0  0  0  0
    3.7130   -3.9410    1.9710 O   0  0  0  0  0  0  0  0  0  0  0  0
  2  1  1  6
  2  3  1  0
  2  4  1  0
  5  4  1  1
  5  6  1  0
  5 16  1  0
  6  7  1  0
  7  8  1  0
  8  9  2  0
  8 10  1  0
 10 11  2  0
 10 15  1  0
 11 12  1  0
 12 13  2  0
 13 14  1  0
 14 15  2  0
 16 17  1  0
 17 18  2  0
 17 22  1  0
 18 19  1  0
 19 20  2  0
 20 21  1  0
 20 28  1  0
 21 22  2  0
 21 26  1  0
 22 23  1  0
 23 24  2  0
 23 25  1  0
 26 27  1  0
 27 28  1  0
M  END
