
     RDKit          3D

 28 30  0  0  0  0  0  0  0  0999 V2000
   -6.2550   -2.7670   -1.9830 C   0  0  0  0  0  0  0  0  0  0  0  0
   -4.9320   -2.1120   -1.6620 C   0  0  0  0  0  0  0  0  0  0  0  0
   -4.6550   -1.1180   -2.6010 O   0  0  0  0  0  0  0  0  0  0  0  0
   -3.5060   -0.3310   -2.6040 C   0  0  0  0  0  0  0  0  0  0  0  0
   -3.3690    0.6170   -3.6010 C   0  0  0  0  0  0  0  0  0  0  0  0
   -2.2690    1.4210   -3.6690 C   0  0  0  0  0  0  0  0  0  0  0  0
   -1.2500    1.3000   -2.7220 C   0  0  0  0  0  0  0  0  0  0  0  0
   -1.4220    0.3530   -1.7500 C   0  0  0  0  0  0  0  0  0  0  0  0
   -2.5300   -0.4440   -1.6990 N   0  0  0  0  0  0  0  0  0  0  0  0
   -0.4580    0.1840   -0.6530 C   0  0  0  0  0  0  0  0  0  0  0  0
   -0.6830   -0.8490    0.3570 C   0  0  0  0  0  0  0  0  0  0  0  0
   -1.7070   -1.6040    0.2540 O   0  0  0  0  0  0  0  0  0  0  0  0
    0.1320   -1.0760    1.4300 O   0  0  0  0  0  0  0  0  0  0  0  0
   -0.0400   -2.0560    2.4300 C   0  0  1  0  0  0  0  0  0  0  0  0
    1.1140   -2.9770    2.6150 C   0  0  0  0  0  0  0  0  0  0  0  0
   -0.4220   -1.3780    3.7640 C   0  0  0  0  0  0  0  0  0  0  0  0
    0.5700    0.9810   -0.6350 C   0  0  0  0  0  0  0  0  0  0  0  0
    1.5180    0.7910    0.4530 N   0  0  0  0  0  0  0  0  0  0  0  0
    1.6230    1.8490    1.4270 C   0  0  0  0  0  0  0  0  0  0  0  0
    2.8040    1.5750    2.3550 C   0  0  1  0  0  0  0  0  0  0  0  0
    2.6480    0.3770    3.0210 O   0  0  0  0  0  0  0  0  0  0  0  0
    4.0210    1.5030    1.4810 C   0  0  0  0  0  0  0  0  0  0  0  0
    4.9760    2.4700    1.2830 C   0  0  0  0  0  0  0  0  0  0  0  0
    5.9000    1.9470    0.3960 C   0  0  0  0  0  0  0  0  0  0  0  0
    5.4570    0.6820    0.0980 C   0  0  0  0  0  0  0  0  0  0  0  0
    4.3470    0.4550    0.7560 O   0  0  0  0  0  0  0  0  0  0  0  0
    0.8010    2.0680   -1.5920 C   0  0  0  0  0  0  0  0  0  0  0  0
   -0.0350    2.0900   -2.8000 C   0  0  0  0  0  0  0  0  0  0  0  0
  1  2  1  0
  2  3  1  0
  3  4  1  0
  4  5  2  0
  4  9  1  0
  5  6  1  0
  6  7  2  0
  7  8  1  0
  7 28  1  0
  8  9  2  0
  8 10  1  0
 10 11  1  0
 10 17  2  0
 11 12  2  0
 11 13  1  0
 13 14  1  0
 14 15  1  1
 14 16  1  0
 17 18  1  0
 17 27  1  0
 18 19  1  0
 19 20  1  0
 20 21  1  6
 20 22  1  0
 22 23  2  0
 22 26  1  0
 23 24  1  0
 24 25  2  0
 25 26  1  0
 27 28  1  0
M  END
