
     RDKit          3D

 10 10  0  0  0  0  0  0  0  0999 V2000
   -0.2160   -2.2100   -0.0000 C   0  0  0  0  0  0  0  0  0  0  0  0
    0.3470   -0.8450   -0.0290 C   0  0  0  0  0  0  0  0  0  0  0  0
    1.7150   -0.6480   -0.1210 C   0  0  0  0  0  0  0  0  0  0  0  0
    2.2020    0.5990   -0.1460 N   0  0  0  0  0  0  0  0  0  0  0  0
    1.4040    1.6810   -0.0840 C   0  0  0  0  0  0  0  0  0  0  0  0
    1.9540    2.8340   -0.1140 O   0  0  0  0  0  0  0  0  0  0  0  0
    0.0300    1.5400    0.0080 C   0  0  0  0  0  0  0  0  0  0  0  0
   -0.7760    2.6660    0.0710 O   0  0  0  0  0  0  0  0  0  0  0  0
   -0.4910    0.2690    0.0350 C   0  0  0  0  0  0  0  0  0  0  0  0
   -1.9460    0.0410    0.1320 C   0  0  0  0  0  0  0  0  0  0  0  0
  1  2  1  0
  2  3  2  0
  2  9  1  0
  3  4  1  0
  4  5  1  0
  5  6  2  0
  5  7  1  0
  7  8  1  0
  7  9  2  0
  9 10  1  0
M  END
