
     RDKit          3D

 28 30  0  0  0  0  0  0  0  0999 V2000
    2.9190    1.3520    1.1640 O   0  0  0  0  0  0  0  0  0  0  0  0
    3.5730    1.1290    0.1240 C   0  0  0  0  0  0  0  0  0  0  0  0
    5.0690    1.0460    0.1970 C   0  0  0  0  0  0  0  0  0  0  0  0
    5.5480    1.2440    1.5740 C   0  0  0  0  0  0  0  0  0  0  0  0
    6.2460    0.3270    2.2140 C   0  0  0  0  0  0  0  0  0  0  0  0
    6.7070    0.4730    3.4910 O   0  0  0  0  0  0  0  0  0  0  0  0
    2.8680    0.9630   -1.0910 N   0  0  0  0  0  0  0  0  0  0  0  0
    1.4560    1.0420   -1.1540 C   0  0  0  0  0  0  0  0  0  0  0  0
    0.6840    0.0710   -0.2970 C   0  0  1  0  0  0  0  0  0  0  0  0
   -0.7450    0.3730   -0.4970 C   0  0  0  0  0  0  0  0  0  0  0  0
   -1.8110   -0.3420    0.1860 C   0  0  0  0  0  0  0  0  0  0  0  0
   -3.0780    0.2220   -0.3090 N   0  0  0  0  0  0  0  0  0  0  0  0
   -3.4390   -0.0420   -1.6690 C   0  0  0  0  0  0  0  0  0  0  0  0
   -4.9020   -0.3480   -1.8460 C   0  0  0  0  0  0  0  0  0  0  0  0
   -5.6550    0.6090   -1.1310 O   0  0  0  0  0  0  0  0  0  0  0  0
   -5.2270    1.1700    0.0450 C   0  0  0  0  0  0  0  0  0  0  0  0
   -6.1000    1.9230    0.7980 C   0  0  0  0  0  0  0  0  0  0  0  0
   -5.6710    2.4880    1.9790 C   0  0  0  0  0  0  0  0  0  0  0  0
   -4.3620    2.3120    2.4320 C   0  0  0  0  0  0  0  0  0  0  0  0
   -3.4740    1.5630    1.6920 C   0  0  0  0  0  0  0  0  0  0  0  0
   -3.9150    1.0020    0.5110 C   0  0  0  0  0  0  0  0  0  0  0  0
    1.1040   -1.3320   -0.3960 C   0  0  0  0  0  0  0  0  0  0  0  0
    1.8500   -1.7300   -1.4150 C   0  0  0  0  0  0  0  0  0  0  0  0
    2.3460   -3.1090   -1.6360 C   0  0  0  0  0  0  0  0  0  0  0  0
    1.5000   -4.0840   -0.8980 C   0  0  0  0  0  0  0  0  0  0  0  0
    1.2610   -3.6220    0.4230 O   0  0  0  0  0  0  0  0  0  0  0  0
    0.7620   -2.3110    0.6210 C   0  0  0  0  0  0  0  0  0  0  0  0
    0.0720   -2.0860    1.6460 O   0  0  0  0  0  0  0  0  0  0  0  0
  1  2  2  0
  2  3  1  0
  2  7  1  0
  3  4  1  0
  4  5  2  3
  5  6  1  0
  7  8  1  0
  9  8  1  6
  9 10  1  0
  9 22  1  0
 10 11  1  0
 11 12  1  0
 12 13  1  0
 12 21  1  0
 13 14  1  0
 14 15  1  0
 15 16  1  0
 16 17  2  0
 16 21  1  0
 17 18  1  0
 18 19  2  0
 19 20  1  0
 20 21  2  0
 22 23  2  0
 22 27  1  0
 23 24  1  0
 24 25  1  0
 25 26  1  0
 26 27  1  0
 27 28  2  0
M  END
