
     RDKit          3D

 28 30  0  0  0  0  0  0  0  0999 V2000
   -2.8910   -3.6210    2.4530 C   0  0  0  0  0  0  0  0  0  0  0  0
   -3.3160   -2.3260    1.8280 C   0  0  0  0  0  0  0  0  0  0  0  0
   -2.7980   -1.1390    2.6040 C   0  0  0  0  0  0  0  0  0  0  0  0
   -3.2480    0.0540    1.9430 O   0  0  0  0  0  0  0  0  0  0  0  0
   -2.8580    0.2890    0.5920 C   0  0  0  0  0  0  0  0  0  0  0  0
   -1.8790   -0.3130    0.2040 N   0  0  0  0  0  0  0  0  0  0  0  0
   -0.9850   -0.6120   -0.7800 C   0  0  1  0  0  0  0  0  0  0  0  0
   -0.8840    0.3270   -1.9800 C   0  0  0  0  0  0  0  0  0  0  0  0
   -0.5430    1.6130   -1.6410 O   0  0  0  0  0  0  0  0  0  0  0  0
    0.4170   -0.9880   -0.3450 C   0  0  0  0  0  0  0  0  0  0  0  0
    1.0880    0.0830    0.4170 C   0  0  0  0  0  0  0  0  0  0  0  0
    0.5940    1.1840    0.6950 O   0  0  0  0  0  0  0  0  0  0  0  0
    2.4130   -0.1800    0.8670 N   0  0  0  0  0  0  0  0  0  0  0  0
    3.1770    0.8010    1.6290 C   0  0  0  0  0  0  0  0  0  0  0  0
    4.1440    1.4240    0.6620 C   0  0  0  0  0  0  0  0  0  0  0  0
    4.9000    0.3080   -0.0060 C   0  0  0  0  0  0  0  0  0  0  0  0
    6.0590    0.4050   -0.6270 C   0  0  0  0  0  0  0  0  0  0  0  0
    6.8360    1.5490   -0.8040 O   0  0  0  0  0  0  0  0  0  0  0  0
    6.4110   -0.9280   -1.1190 C   0  0  0  0  0  0  0  0  0  0  0  0
    5.2890   -1.7890   -0.6880 C   0  0  0  0  0  0  0  0  0  0  0  0
    4.4130   -1.0550   -0.0390 C   0  0  0  0  0  0  0  0  0  0  0  0
    3.1010   -1.4310    0.6060 C   0  0  0  0  0  0  0  0  0  0  0  0
   -3.7170    1.2370   -0.1250 C   0  0  0  0  0  0  0  0  0  0  0  0
   -4.8390    1.9060    0.3740 C   0  0  0  0  0  0  0  0  0  0  0  0
   -5.3610    2.6990   -0.6110 C   0  0  0  0  0  0  0  0  0  0  0  0
   -4.5460    2.5010   -1.6970 C   0  0  0  0  0  0  0  0  0  0  0  0
   -4.7530    3.1800   -3.0060 C   0  0  0  0  0  0  0  0  0  0  0  0
   -3.6150    1.6490   -1.3620 O   0  0  0  0  0  0  0  0  0  0  0  0
  1  2  1  0
  2  3  1  0
  3  4  1  0
  4  5  1  0
  5  6  2  3
  5 23  1  0
  6  7  1  0
  7  8  1  6
  7 10  1  0
  8  9  1  0
 10 11  1  0
 11 12  2  0
 11 13  1  0
 13 14  1  0
 13 22  1  0
 14 15  1  0
 15 16  1  0
 16 17  2  0
 16 21  1  0
 17 18  1  0
 17 19  1  0
 19 20  1  0
 20 21  2  0
 21 22  1  0
 23 24  2  0
 23 28  1  0
 24 25  1  0
 25 26  2  0
 26 27  1  0
 26 28  1  0
M  END
