
     RDKit          3D

 32 34  0  0  0  0  0  0  0  0999 V2000
   -7.2550    1.1330    1.5490 C   0  0  0  0  0  0  0  0  0  0  0  0
   -6.3700    0.5530    0.4970 C   0  0  0  0  0  0  0  0  0  0  0  0
   -5.4570    1.2510   -0.2740 C   0  0  0  0  0  0  0  0  0  0  0  0
   -4.8550    0.3430   -1.0990 C   0  0  0  0  0  0  0  0  0  0  0  0
   -3.7820    0.6970   -2.0910 C   0  0  0  0  0  0  0  0  0  0  0  0
   -3.1150    1.9560   -1.5660 C   0  0  0  0  0  0  0  0  0  0  0  0
   -2.5630    1.6550   -0.2650 N   0  0  0  0  0  0  0  0  0  0  0  0
   -1.5350    0.7130   -0.0130 C   0  0  0  0  0  0  0  0  0  0  0  0
   -1.0250    0.0870   -0.9850 O   0  0  0  0  0  0  0  0  0  0  0  0
   -1.1140    0.5090    1.3240 N   0  0  0  0  0  0  0  0  0  0  0  0
   -0.0610   -0.3920    1.6680 C   0  0  0  0  0  0  0  0  0  0  0  0
    1.2460    0.0420    1.0390 C   0  0  0  0  0  0  0  0  0  0  0  0
    1.2360    1.0630    0.3360 O   0  0  0  0  0  0  0  0  0  0  0  0
    2.4370   -0.6720    1.2400 N   0  0  0  0  0  0  0  0  0  0  0  0
    3.7180   -0.3780    0.7370 C   0  0  0  0  0  0  0  0  0  0  0  0
    3.9930    0.7130   -0.0350 C   0  0  0  0  0  0  0  0  0  0  0  0
    5.3120    0.9410   -0.4620 C   0  0  0  0  0  0  0  0  0  0  0  0
    6.3360    0.1020   -0.1310 C   0  0  0  0  0  0  0  0  0  0  0  0
    7.6530    0.3940   -0.5750 N   0  0  0  0  0  0  0  0  0  0  0  0
    8.5390   -0.4250   -1.1040 N   0  0  0  0  0  0  0  0  0  0  0  0
    9.6770    0.2380   -1.3940 C   0  0  0  0  0  0  0  0  0  0  0  0
    9.4680    1.4770   -1.0330 O   0  0  0  0  0  0  0  0  0  0  0  0
    8.2680    1.5960   -0.5410 C   0  0  0  0  0  0  0  0  0  0  0  0
    7.7660    2.6540   -0.1080 O   0  0  0  0  0  0  0  0  0  0  0  0
    6.0740   -1.0040    0.6460 C   0  0  0  0  0  0  0  0  0  0  0  0
    4.7630   -1.2420    1.0790 C   0  0  0  0  0  0  0  0  0  0  0  0
    4.4800   -2.3770    1.8830 N   0  0  0  0  0  0  0  0  0  0  0  0
   -5.3860   -0.9040   -0.8470 C   0  0  0  0  0  0  0  0  0  0  0  0
   -5.0130   -2.1360   -1.5200 C   0  0  0  0  0  0  0  0  0  0  0  0
   -5.7000   -3.3190   -1.1390 N   0  0  0  0  0  0  0  0  0  0  0  0
   -4.1300   -2.1720   -2.4010 O   0  0  0  0  0  0  0  0  0  0  0  0
   -6.3020   -0.7280    0.1300 N   0  0  0  0  0  0  0  0  0  0  0  0
  1  2  1  0
  2  3  2  0
  2 32  1  0
  3  4  1  0
  4  5  1  0
  4 28  2  0
  5  6  1  0
  6  7  1  0
  7  8  1  0
  8  9  2  0
  8 10  1  0
 10 11  1  0
 11 12  1  0
 12 13  2  0
 12 14  1  0
 14 15  1  0
 15 16  2  0
 15 26  1  0
 16 17  1  0
 17 18  2  0
 18 19  1  0
 18 25  1  0
 19 20  1  0
 19 23  1  0
 20 21  2  0
 21 22  1  0
 22 23  1  0
 23 24  2  0
 25 26  2  0
 26 27  1  0
 28 29  1  0
 28 32  1  0
 29 30  1  0
 29 31  2  0
M  END
