
     RDKit          3D

 32 34  0  0  0  0  0  0  0  0999 V2000
    7.0270    1.3050   -0.0280 C   0  0  0  0  0  0  0  0  0  0  0  0
    5.9900    0.2660   -0.1750 C   0  0  0  0  0  0  0  0  0  0  0  0
    6.0850   -0.8760    0.5990 O   0  0  0  0  0  0  0  0  0  0  0  0
    5.0040    0.4500   -1.0360 C   0  0  0  0  0  0  0  0  0  0  0  0
    4.9380    1.6920   -1.8490 C   0  0  0  0  0  0  0  0  0  0  0  0
    3.9690   -0.6020   -1.1740 C   0  0  1  0  0  0  0  0  0  0  0  0
    4.2210   -1.6410   -0.2890 O   0  0  0  0  0  0  0  0  0  0  0  0
    2.6080   -0.0220   -0.8290 C   0  0  0  0  0  0  0  0  0  0  0  0
    1.6250   -1.0720   -0.9690 N   0  0  0  0  0  0  0  0  0  0  0  0
    0.2720   -0.7550   -0.6950 C   0  0  0  0  0  0  0  0  0  0  0  0
   -0.1010    0.4990   -0.3100 N   0  0  0  0  0  0  0  0  0  0  0  0
   -1.3870    0.7950   -0.0510 C   0  0  0  0  0  0  0  0  0  0  0  0
   -1.7450    2.1290    0.3520 N   0  0  0  0  0  0  0  0  0  0  0  0
   -0.7300    3.1170    0.4710 C   0  0  0  0  0  0  0  0  0  0  0  0
    0.4490    2.7640    0.2120 O   0  0  0  0  0  0  0  0  0  0  0  0
   -0.9900    4.4810    0.8680 C   0  0  0  0  0  0  0  0  0  0  0  0
   -0.0660    5.4940    1.0060 C   0  0  0  0  0  0  0  0  0  0  0  0
   -0.7310    6.5930    1.3910 N   0  0  0  0  0  0  0  0  0  0  0  0
   -2.0300    6.2510    1.4830 C   0  0  0  0  0  0  0  0  0  0  0  0
   -2.1940    4.9650    1.1650 N   0  0  0  0  0  0  0  0  0  0  0  0
   -2.2980   -0.1710   -0.1790 N   0  0  0  0  0  0  0  0  0  0  0  0
   -2.0040   -1.4420   -0.5570 C   0  0  0  0  0  0  0  0  0  0  0  0
   -0.6850   -1.7420   -0.8210 C   0  0  0  0  0  0  0  0  0  0  0  0
   -0.6740   -3.0400   -1.1670 N   0  0  0  0  0  0  0  0  0  0  0  0
   -1.9110   -3.5590   -1.1300 C   0  0  0  0  0  0  0  0  0  0  0  0
   -2.2040   -4.7590   -1.4060 O   0  0  0  0  0  0  0  0  0  0  0  0
   -2.7230   -2.5610   -0.7520 N   0  0  0  0  0  0  0  0  0  0  0  0
   -4.1390   -2.6590   -0.5790 C   0  0  0  0  0  0  0  0  0  0  0  0
   -4.5580   -3.0500    0.8040 C   0  0  1  0  0  0  0  0  0  0  0  0
   -4.1040   -2.0800    1.8600 C   0  0  0  0  0  0  0  0  0  0  0  0
   -6.0680   -3.1400    0.8760 C   0  0  0  0  0  0  0  0  0  0  0  0
   -6.4700   -3.5050    2.1670 O   0  0  0  0  0  0  0  0  0  0  0  0
  1  2  1  0
  2  3  1  0
  2  4  2  3
  4  5  1  0
  4  6  1  0
  6  7  1  1
  6  8  1  0
  8  9  1  0
  9 10  1  0
 10 11  2  0
 10 23  1  0
 11 12  1  0
 12 13  1  0
 12 21  2  0
 13 14  1  0
 14 15  2  0
 14 16  1  0
 16 17  2  0
 16 20  1  0
 17 18  1  0
 18 19  2  0
 19 20  1  0
 21 22  1  0
 22 23  2  0
 22 27  1  0
 23 24  1  0
 24 25  1  0
 25 26  2  0
 25 27  1  0
 27 28  1  0
 28 29  1  0
 29 30  1  1
 29 31  1  0
 31 32  1  0
M  END
