
     RDKit          3D

 33 32  0  0  0  0  0  0  0  0999 V2000
   -5.9120   -3.1760   -0.5100 C   0  0  0  0  0  0  0  0  0  0  0  0
   -4.6930   -3.2070   -0.0540 C   0  0  0  0  0  0  0  0  0  0  0  0
   -4.1330   -4.5000   -0.2280 F   0  0  0  0  0  0  0  0  0  0  0  0
   -3.8440   -2.2340    0.5560 C   0  0  0  0  0  0  0  0  0  0  0  0
   -2.5990   -2.6370    0.9200 C   0  0  0  0  0  0  0  0  0  0  0  0
   -2.0760   -3.9720    0.7270 C   0  0  0  0  0  0  0  0  0  0  0  0
   -4.1680   -0.8410    0.7840 C   0  0  0  0  0  0  0  0  0  0  0  0
   -5.2620   -0.1760    0.5720 C   0  0  0  0  0  0  0  0  0  0  0  0
   -5.2830    1.3060    0.9260 C   0  0  2  0  0  0  0  0  0  0  0  0
   -5.3070    1.4150    2.3080 F   0  0  0  0  0  0  0  0  0  0  0  0
   -6.4250    1.8540    0.4030 F   0  0  0  0  0  0  0  0  0  0  0  0
   -3.1070    0.0360    1.3310 N   0  0  0  0  0  0  0  0  0  0  0  0
   -1.9390    0.3410    0.6600 C   0  0  0  0  0  0  0  0  0  0  0  0
   -1.7280   -0.1500   -0.4980 O   0  0  0  0  0  0  0  0  0  0  0  0
   -0.8380    1.2370    1.1800 C   0  0  2  0  0  0  0  0  0  0  0  0
   -0.8680    1.2830    2.6800 C   0  0  0  0  0  0  0  0  0  0  0  0
   -1.3830    2.6290    0.7740 C   0  0  0  0  0  0  0  0  0  0  0  0
    0.3930    0.9210    0.5490 N   0  0  1  0  0  0  0  0  0  0  0  0
    0.6590    1.5440   -0.7050 C   0  0  0  0  0  0  0  0  0  0  0  0
    1.6260    2.6920   -0.6610 C   0  0  0  0  0  0  0  0  0  0  0  0
    1.7890    3.2250   -2.0930 C   0  0  0  0  0  0  0  0  0  0  0  0
    2.7560    4.3790   -2.0180 C   0  0  0  0  0  0  0  0  0  0  0  0
    3.0200    5.0020   -3.3580 C   0  0  0  0  0  0  0  0  0  0  0  0
    1.4950    0.9690    1.4680 C   0  0  0  0  0  0  0  0  0  0  0  0
    2.5470   -0.0390    1.2860 C   0  0  0  0  0  0  0  0  0  0  0  0
    3.5210    0.0140    2.0930 O   0  0  0  0  0  0  0  0  0  0  0  0
    2.6060   -1.0630    0.3190 N   0  0  0  0  0  0  0  0  0  0  0  0
    3.7370   -2.0070    0.2610 C   0  0  1  0  0  0  0  0  0  0  0  0
    3.2120   -3.4020    0.3140 C   0  0  0  0  0  0  0  0  0  0  0  0
    2.2930   -3.6550   -0.8580 C   0  0  0  0  0  0  0  0  0  0  0  0
    4.5190   -1.8120   -0.9610 C   0  0  0  0  0  0  0  0  0  0  0  0
    5.6450   -2.6260   -1.1980 N   0  0  0  0  0  0  0  0  0  0  0  0
    4.1890   -0.9330   -1.7830 O   0  0  0  0  0  0  0  0  0  0  0  0
  1  2  2  0
  2  3  1  0
  2  4  1  0
  4  5  2  3
  4  7  1  0
  5  6  1  0
  7  8  2  3
  7 12  1  0
  8  9  1  0
  9 10  1  1
  9 11  1  0
 12 13  1  0
 13 14  2  0
 13 15  1  0
 15 16  1  1
 15 17  1  0
 15 18  1  0
 18 19  1  6
 18 24  1  0
 19 20  1  0
 20 21  1  0
 21 22  1  0
 22 23  1  0
 24 25  1  0
 25 26  2  0
 25 27  1  0
 27 28  1  0
 28 29  1  6
 28 31  1  0
 29 30  1  0
 31 32  1  0
 31 33  2  0
M  CHG  1  18   1
M  END
