
     RDKit          3D

 32 34  0  0  0  0  0  0  0  0999 V2000
   -1.3020   -1.5270   -3.0110 C   0  0  0  0  0  0  0  0  0  0  0  0
   -1.2680   -1.2730   -1.6290 C   0  0  0  0  0  0  0  0  0  0  0  0
    0.0530   -1.1710   -1.0860 C   0  0  0  0  0  0  0  0  0  0  0  0
    1.0330   -1.3220   -1.9650 O   0  0  0  0  0  0  0  0  0  0  0  0
    0.5230   -0.9410    0.2040 N   0  0  0  0  0  0  0  0  0  0  0  0
    1.9550   -0.8770    0.5180 C   0  0  0  0  0  0  0  0  0  0  0  0
    2.5550    0.4050    0.1030 C   0  0  0  0  0  0  0  0  0  0  0  0
    1.8510    1.4920   -0.2160 N   0  0  0  0  0  0  0  0  0  0  0  0
    2.4820    2.6180   -0.5870 C   0  0  0  0  0  0  0  0  0  0  0  0
    1.7030    3.7670   -0.9230 N   0  0  0  0  0  0  0  0  0  0  0  0
    3.8680    2.6940   -0.6500 C   0  0  0  0  0  0  0  0  0  0  0  0
    4.5800    1.5670   -0.3180 C   0  0  0  0  0  0  0  0  0  0  0  0
    6.0490    1.5460   -0.3560 C   0  0  0  0  0  0  0  0  0  0  0  0
    6.8350    2.6180   -0.7050 C   0  0  0  0  0  0  0  0  0  0  0  0
    8.1570    2.1680   -0.6080 C   0  0  0  0  0  0  0  0  0  0  0  0
    8.0810    0.8500   -0.2050 C   0  0  0  0  0  0  0  0  0  0  0  0
    6.8150    0.5180   -0.0660 O   0  0  0  0  0  0  0  0  0  0  0  0
    3.8960    0.4620    0.0470 N   0  0  0  0  0  0  0  0  0  0  0  0
   -2.5130   -1.1850   -0.9850 C   0  0  0  0  0  0  0  0  0  0  0  0
   -2.7960   -0.9340    0.2510 C   0  0  0  0  0  0  0  0  0  0  0  0
   -4.2090   -0.8880    0.7230 C   0  0  0  0  0  0  0  0  0  0  0  0
   -4.5170   -0.6350    1.9760 C   0  0  0  0  0  0  0  0  0  0  0  0
   -3.5930   -0.3720    3.0500 N   0  0  0  0  0  0  0  0  0  0  0  0
   -4.3200   -0.1490    4.2410 C   0  0  0  0  0  0  0  0  0  0  0  0
   -3.8170    0.1050    5.3510 O   0  0  0  0  0  0  0  0  0  0  0  0
   -5.7040   -0.2590    3.9780 N   0  0  0  0  0  0  0  0  0  0  0  0
   -5.8340   -0.5560    2.5950 C   0  0  0  0  0  0  0  0  0  0  0  0
   -6.9100   -0.7320    1.9590 O   0  0  0  0  0  0  0  0  0  0  0  0
   -3.7020   -1.4210   -1.8260 N   0  0  0  0  0  0  0  0  0  0  0  0
   -3.9520   -2.6960   -2.3460 C   0  0  0  0  0  0  0  0  0  0  0  0
   -5.0880   -2.9880   -3.1790 N   0  0  0  0  0  0  0  0  0  0  0  0
   -3.1480   -3.6310   -2.0710 O   0  0  0  0  0  0  0  0  0  0  0  0
  1  2  2  0
  2  3  1  0
  2 19  1  0
  3  4  2  0
  3  5  1  0
  5  6  1  0
  6  7  1  0
  7  8  2  0
  7 18  1  0
  8  9  1  0
  9 10  1  0
  9 11  2  0
 11 12  1  0
 12 13  1  0
 12 18  2  0
 13 14  2  0
 13 17  1  0
 14 15  1  0
 15 16  2  0
 16 17  1  0
 19 20  2  3
 19 29  1  0
 20 21  1  0
 21 22  2  3
 22 23  1  0
 22 27  1  0
 23 24  1  0
 24 25  2  0
 24 26  1  0
 26 27  1  0
 27 28  2  0
 29 30  1  0
 30 31  1  0
 30 32  2  0
M  END
