
     RDKit          3D

 33 34  0  0  0  0  0  0  0  0999 V2000
   -4.3470    2.3880    1.3550 C   0  0  0  0  0  0  0  0  0  0  0  0
   -3.3560    2.0320    0.2430 C   0  0  0  0  0  0  0  0  0  0  0  0
   -2.4110    1.0270    0.8360 C   0  0  0  0  0  0  0  0  0  0  0  0
   -1.3550    0.5660   -0.1610 C   0  0  0  0  0  0  0  0  0  0  0  0
   -0.4810   -0.4140    0.5150 C   0  0  1  0  0  0  0  0  0  0  0  0
    0.2310    0.0680    1.7170 C   0  0  0  0  0  0  0  0  0  0  0  0
    1.1670    1.1660    1.7220 C   0  0  1  0  0  0  0  0  0  0  0  0
    0.7680    2.5160    1.3460 C   0  0  0  0  0  0  0  0  0  0  0  0
    1.6950    3.4990    1.4850 C   0  0  0  0  0  0  0  0  0  0  0  0
    3.0610    3.1340    2.0140 C   0  0  0  0  0  0  0  0  0  0  0  0
    2.7840    2.2160    3.1540 C   0  0  0  0  0  0  0  0  0  0  0  0
    1.8650    1.2370    3.0550 C   0  0  0  0  0  0  0  0  0  0  0  0
    1.6230    0.3570    4.1890 C   0  0  1  0  0  0  0  0  0  0  0  0
    1.9720   -0.9630    4.0080 F   0  0  0  0  0  0  0  0  0  0  0  0
    2.3820    0.7770    5.2920 F   0  0  0  0  0  0  0  0  0  0  0  0
    0.3040    0.4530    4.6620 F   0  0  0  0  0  0  0  0  0  0  0  0
   -1.3580   -1.5200    0.9870 N   0  0  0  0  0  0  0  0  0  0  0  0
   -2.0970   -2.3300    0.0930 C   0  0  0  0  0  0  0  0  0  0  0  0
   -2.0310   -2.1490   -1.1250 O   0  0  0  0  0  0  0  0  0  0  0  0
   -2.9490   -3.3890    0.5670 N   0  0  0  0  0  0  0  0  0  0  0  0
   -3.6800   -4.1860   -0.4100 C   0  0  0  0  0  0  0  0  0  0  0  0
   -4.5220   -5.2390    0.2880 C   0  0  0  0  0  0  0  0  0  0  0  0
   -5.4750   -4.5860    1.1750 N   0  0  0  0  0  0  0  0  0  0  0  0
    0.4470   -1.1130   -0.4260 C   0  0  0  0  0  0  0  0  0  0  0  0
    0.5130   -2.3510   -0.5850 O   0  0  0  0  0  0  0  0  0  0  0  0
    1.3080   -0.2930   -1.1930 N   0  0  0  0  0  0  0  0  0  0  0  0
    2.2590   -0.8510   -2.1420 C   0  0  2  0  0  0  0  0  0  0  0  0
    3.6490   -0.4700   -1.6340 C   0  0  0  0  0  0  0  0  0  0  0  0
    4.3500   -0.0780   -2.7740 O   0  0  0  0  0  0  0  0  0  0  0  0
    3.4840    0.6630   -3.5420 C   0  0  2  0  0  0  0  0  0  0  0  0
    3.9590    0.6330   -4.9980 C   0  0  0  0  0  0  0  0  0  0  0  0
    3.4600    2.1200   -3.1300 C   0  0  0  0  0  0  0  0  0  0  0  0
    2.1730   -0.0310   -3.4040 C   0  0  0  0  0  0  0  0  0  0  0  0
  1  2  1  0
  2  3  1  0
  3  4  1  0
  5  4  1  6
  5  6  1  0
  5 17  1  0
  5 24  1  0
  7  6  1  1
  7  8  1  0
  7 12  1  0
  8  9  2  0
  9 10  1  0
 10 11  1  0
 11 12  2  0
 12 13  1  0
 13 14  1  6
 13 15  1  0
 13 16  1  0
 17 18  1  0
 18 19  2  0
 18 20  1  0
 20 21  1  0
 21 22  1  0
 22 23  1  0
 24 25  2  0
 24 26  1  0
 27 26  1  1
 27 28  1  0
 27 33  1  0
 28 29  1  0
 29 30  1  0
 30 31  1  6
 30 32  1  0
 30 33  1  0
M  END
