
     RDKit          3D

 32 35  0  0  0  0  0  0  0  0999 V2000
   -2.3450   -3.2960   -0.5900 C   0  0  0  0  0  0  0  0  0  0  0  0
   -1.2000   -2.2240   -0.8270 C   0  0  2  0  0  0  0  0  0  0  0  0
   -0.1000   -2.8460    0.0700 C   0  0  0  0  0  0  0  0  0  0  0  0
   -1.7780   -0.9910   -0.2570 C   0  0  0  0  0  0  0  0  0  0  0  0
   -1.1620    0.3240   -0.3350 C   0  0  2  0  0  0  0  0  0  0  0  0
    0.2200    0.4310    0.2380 C   0  0  0  0  0  0  0  0  0  0  0  0
    1.2370   -0.3090   -0.4480 N   0  0  0  0  0  0  0  0  0  0  0  0
    2.5710   -0.3590    0.0240 C   0  0  0  0  0  0  0  0  0  0  0  0
    2.8160    0.2880    1.0830 O   0  0  0  0  0  0  0  0  0  0  0  0
    3.6530   -1.1000   -0.6280 C   0  0  0  0  0  0  0  0  0  0  0  0
    4.9120   -0.9410    0.1430 C   0  0  0  0  0  0  0  0  0  0  0  0
    5.4590   -1.8980    0.9970 C   0  0  0  0  0  0  0  0  0  0  0  0
    6.5950   -1.4490    1.5470 N   0  0  0  0  0  0  0  0  0  0  0  0
    6.8250   -0.1920    1.0730 C   0  0  0  0  0  0  0  0  0  0  0  0
    7.8090    0.7270    1.2800 C   0  0  0  0  0  0  0  0  0  0  0  0
    7.7990    1.9440    0.6600 C   0  0  0  0  0  0  0  0  0  0  0  0
    6.7720    2.2550   -0.1960 C   0  0  0  0  0  0  0  0  0  0  0  0
    5.7600    1.3490   -0.4300 C   0  0  0  0  0  0  0  0  0  0  0  0
    5.7860    0.1190    0.2070 C   0  0  0  0  0  0  0  0  0  0  0  0
   -1.9780    1.3930    0.3460 C   0  0  0  0  0  0  0  0  0  0  0  0
   -3.3310    1.6380   -0.1270 C   0  0  0  0  0  0  0  0  0  0  0  0
   -3.5020    2.4460   -1.2770 C   0  0  0  0  0  0  0  0  0  0  0  0
   -4.7280    2.7030   -1.8300 C   0  0  0  0  0  0  0  0  0  0  0  0
   -5.8590    2.1710   -1.2700 C   0  0  0  0  0  0  0  0  0  0  0  0
   -5.7400    1.3860   -0.1580 C   0  0  0  0  0  0  0  0  0  0  0  0
   -4.4670    1.1260    0.4070 C   0  0  0  0  0  0  0  0  0  0  0  0
   -4.4660    0.3340    1.6040 C   0  0  0  0  0  0  0  0  0  0  0  0
   -4.5240    0.8440    2.7670 O   0  0  0  0  0  0  0  0  0  0  0  0
   -4.4130   -1.0360    1.5670 O   0  0  0  0  0  0  0  0  0  0  0  0
   -7.0110    0.9710    0.2160 O   0  0  0  0  0  0  0  0  0  0  0  0
   -7.9430    1.9010   -0.3660 C   0  0  0  0  0  0  0  0  0  0  0  0
   -7.2310    2.2190   -1.5570 O   0  0  0  0  0  0  0  0  0  0  0  0
  2  1  1  1
  2  3  1  0
  2  4  1  0
  5  4  1  1
  5  6  1  0
  5 20  1  0
  6  7  1  0
  7  8  1  0
  8  9  2  0
  8 10  1  0
 10 11  1  0
 11 12  2  0
 11 19  1  0
 12 13  1  0
 13 14  1  0
 14 15  2  0
 14 19  1  0
 15 16  1  0
 16 17  2  0
 17 18  1  0
 18 19  2  0
 20 21  1  0
 21 22  2  0
 21 26  1  0
 22 23  1  0
 23 24  2  0
 24 25  1  0
 24 32  1  0
 25 26  2  0
 25 30  1  0
 26 27  1  0
 27 28  2  0
 27 29  1  0
 30 31  1  0
 31 32  1  0
M  END
