
     RDKit          3D

 32 33  0  0  0  0  0  0  0  0999 V2000
   -3.0520    3.2610    3.2630 C   0  0  0  0  0  0  0  0  0  0  0  0
   -3.4490    1.8820    2.8800 C   0  0  0  0  0  0  0  0  0  0  0  0
   -3.2410    1.4780    1.6580 C   0  0  0  0  0  0  0  0  0  0  0  0
   -2.6480    2.3370    0.7110 N   0  0  0  0  0  0  0  0  0  0  0  0
   -3.6140    0.1660    1.2790 N   0  0  0  0  0  0  0  0  0  0  0  0
   -2.6410   -0.7210    0.8090 C   0  0  0  0  0  0  0  0  0  0  0  0
   -1.4500   -0.2880    0.7490 O   0  0  0  0  0  0  0  0  0  0  0  0
   -2.8540   -2.1230    0.3710 C   0  0  2  0  0  0  0  0  0  0  0  0
   -2.1520   -2.2380   -0.9740 C   0  0  0  0  0  0  0  0  0  0  0  0
   -0.7930   -1.7500   -0.8630 N   0  0  0  0  0  0  0  0  0  0  0  0
    0.1610   -2.3570    0.0060 C   0  0  0  0  0  0  0  0  0  0  0  0
   -0.1040   -3.3440    0.7230 O   0  0  0  0  0  0  0  0  0  0  0  0
    1.4990   -1.7920    0.0510 C   0  0  0  0  0  0  0  0  0  0  0  0
    1.8350   -0.7210   -0.7050 N   0  0  0  0  0  0  0  0  0  0  0  0
    3.1050   -0.2640   -0.5950 C   0  0  0  0  0  0  0  0  0  0  0  0
    4.0390   -0.8250    0.2280 C   0  0  0  0  0  0  0  0  0  0  0  0
    5.3740   -0.3930    0.4080 N   0  0  0  0  0  0  0  0  0  0  0  0
    5.8750    0.8440   -0.0410 C   0  0  0  0  0  0  0  0  0  0  0  0
    5.1570    1.6720   -0.6370 O   0  0  0  0  0  0  0  0  0  0  0  0
    7.2720    1.1620    0.2000 N   0  0  0  0  0  0  0  0  0  0  0  0
    7.8170    2.4060   -0.2410 C   0  0  0  0  0  0  0  0  0  0  0  0
    7.7520    2.6340   -1.7290 C   0  0  0  0  0  0  0  0  0  0  0  0
    8.3320    3.8990   -1.9690 O   0  0  0  0  0  0  0  0  0  0  0  0
    3.6400   -1.9330    0.9890 C   0  0  0  0  0  0  0  0  0  0  0  0
    2.3990   -2.3670    0.8710 N   0  0  0  0  0  0  0  0  0  0  0  0
   -4.1390   -2.5860    0.4050 O   0  0  0  0  0  0  0  0  0  0  0  0
   -5.3040   -2.2410   -0.1830 C   0  0  0  0  0  0  0  0  0  0  0  0
   -5.5690   -2.0320   -1.4560 C   0  0  0  0  0  0  0  0  0  0  0  0
   -6.9640   -1.6860   -1.5830 C   0  0  0  0  0  0  0  0  0  0  0  0
   -7.5660   -1.6770   -0.4120 C   0  0  0  0  0  0  0  0  0  0  0  0
   -6.5450   -2.0310    0.5540 C   0  0  0  0  0  0  0  0  0  0  0  0
   -6.7210   -2.1380    1.8490 N   0  0  0  0  0  0  0  0  0  0  0  0
  1  2  1  0
  2  3  2  3
  3  4  1  0
  3  5  1  0
  5  6  1  0
  6  7  2  0
  6  8  1  0
  8  9  1  6
  8 26  1  0
  9 10  1  0
 10 11  1  0
 11 12  2  0
 11 13  1  0
 13 14  2  0
 13 25  1  0
 14 15  1  0
 15 16  2  0
 16 17  1  0
 16 24  1  0
 17 18  1  0
 18 19  2  0
 18 20  1  0
 20 21  1  0
 21 22  1  0
 22 23  1  0
 24 25  2  0
 26 27  1  0
 27 28  2  0
 27 31  1  0
 28 29  1  0
 29 30  2  0
 30 31  1  0
 31 32  2  0
M  END
