
     RDKit          3D

 32 34  0  0  0  0  0  0  0  0999 V2000
    5.6860   -1.9670    2.7620 N   0  0  0  0  0  0  0  0  0  0  0  0
    6.4800   -1.3100    1.9950 C   0  0  0  0  0  0  0  0  0  0  0  0
    7.6470   -0.8020    2.5270 O   0  0  0  0  0  0  0  0  0  0  0  0
    6.1540   -1.1000    0.5640 C   0  0  0  0  0  0  0  0  0  0  0  0
    6.0510    0.2730    0.2060 N   0  0  0  0  0  0  0  0  0  0  0  0
    4.9240    0.9880    0.7730 C   0  0  0  0  0  0  0  0  0  0  0  0
    3.6070    0.5470    0.1880 C   0  0  0  0  0  0  0  0  0  0  0  0
    3.7680   -0.3360   -0.7250 O   0  0  0  0  0  0  0  0  0  0  0  0
    2.3350    1.0440    0.5950 C   0  0  0  0  0  0  0  0  0  0  0  0
    1.0910    0.5840    0.0070 C   0  0  0  0  0  0  0  0  0  0  0  0
    1.0010   -0.3140   -0.9190 C   0  0  0  0  0  0  0  0  0  0  0  0
   -0.3190   -0.7500   -1.4890 C   0  0  0  0  0  0  0  0  0  0  0  0
   -0.3060   -1.6600   -2.4190 C   0  0  0  0  0  0  0  0  0  0  0  0
    0.8970   -2.1910   -2.8500 O   0  0  0  0  0  0  0  0  0  0  0  0
   -1.4980   -0.1380   -0.9740 C   0  0  0  0  0  0  0  0  0  0  0  0
   -2.8480   -0.4750   -1.4580 C   0  0  0  0  0  0  0  0  0  0  0  0
   -3.1390   -1.3790   -2.3720 N   0  0  0  0  0  0  0  0  0  0  0  0
   -4.3580   -1.6900   -2.8260 C   0  0  0  0  0  0  0  0  0  0  0  0
   -4.5910   -2.6810   -3.8110 N   0  0  0  0  0  0  0  0  0  0  0  0
   -5.4150   -0.9660   -2.2550 C   0  0  0  0  0  0  0  0  0  0  0  0
   -5.1670   -0.0140   -1.3010 C   0  0  0  0  0  0  0  0  0  0  0  0
   -6.2840    0.7370   -0.7110 C   0  0  0  0  0  0  0  0  0  0  0  0
   -7.6150    0.6050   -1.0200 C   0  0  0  0  0  0  0  0  0  0  0  0
   -8.3080    1.4750   -0.2540 N   0  0  0  0  0  0  0  0  0  0  0  0
   -7.4760    2.1440    0.5190 N   0  0  0  0  0  0  0  0  0  0  0  0
   -6.2310    1.7120    0.2600 C   0  0  0  0  0  0  0  0  0  0  0  0
   -3.9110    0.2150   -0.9210 N   0  0  0  0  0  0  0  0  0  0  0  0
   -1.3570    0.7810   -0.0220 C   0  0  0  0  0  0  0  0  0  0  0  0
   -0.1360    1.1330    0.4530 O   0  0  0  0  0  0  0  0  0  0  0  0
    2.2090    1.9650    1.5280 C   0  0  0  0  0  0  0  0  0  0  0  0
    3.2610    2.5570    2.2220 N   0  0  0  0  0  0  0  0  0  0  0  0
    0.9130    2.4260    1.8970 O   0  0  0  0  0  0  0  0  0  0  0  0
  1  2  2  0
  2  3  1  0
  2  4  1  0
  4  5  1  0
  5  6  1  0
  6  7  1  0
  7  8  2  0
  7  9  1  0
  9 10  1  0
  9 30  2  3
 10 11  2  0
 10 29  1  0
 11 12  1  0
 12 13  2  3
 12 15  1  0
 13 14  1  0
 15 16  1  0
 15 28  2  0
 16 17  2  0
 16 27  1  0
 17 18  1  0
 18 19  1  0
 18 20  2  0
 20 21  1  0
 21 22  1  0
 21 27  2  0
 22 23  1  0
 22 26  2  0
 23 24  2  0
 24 25  1  0
 25 26  1  0
 28 29  1  0
 30 31  1  0
 30 32  1  0
M  END
