
     RDKit          3D

 37 40  0  0  0  0  0  0  0  0999 V2000
   -5.5110    6.3650   -0.2520 C   0  0  0  0  0  0  0  0  0  0  0  0
   -4.4800    5.4120    0.1040 N   0  0  0  0  0  0  0  0  0  0  0  0
   -4.5520    4.1080   -0.4470 C   0  0  0  0  0  0  0  0  0  0  0  0
   -5.5310    3.8590   -1.2270 O   0  0  0  0  0  0  0  0  0  0  0  0
   -3.5820    3.0700   -0.1650 C   0  0  0  0  0  0  0  0  0  0  0  0
   -2.6250    3.3110    0.5950 O   0  0  0  0  0  0  0  0  0  0  0  0
   -3.7300    1.8040   -0.7500 N   0  0  0  0  0  0  0  0  0  0  0  0
   -2.7830    0.7060   -0.5100 C   0  0  0  0  0  0  0  0  0  0  0  0
   -2.5420   -0.3890   -0.7590 N   0  0  0  0  0  0  0  0  0  0  0  0
   -1.5390   -1.1520   -0.3560 C   0  0  0  0  0  0  0  0  0  0  0  0
   -1.4250   -2.5630   -0.8200 C   0  0  0  0  0  0  0  0  0  0  0  0
   -1.6450   -3.5720    0.0690 C   0  0  0  0  0  0  0  0  0  0  0  0
   -1.9810   -3.3900    1.3610 F   0  0  0  0  0  0  0  0  0  0  0  0
   -1.5330   -4.8980   -0.3450 C   0  0  0  0  0  0  0  0  0  0  0  0
   -1.7610   -6.0220    0.5870 C   0  0  0  0  0  0  0  0  0  0  0  0
   -1.2030   -5.1250   -1.6510 C   0  0  0  0  0  0  0  0  0  0  0  0
   -0.9850   -4.1010   -2.5350 C   0  0  0  0  0  0  0  0  0  0  0  0
   -0.6550   -4.3000   -3.8370 F   0  0  0  0  0  0  0  0  0  0  0  0
   -1.0960   -2.7930   -2.1180 C   0  0  0  0  0  0  0  0  0  0  0  0
   -0.8940   -1.7400   -2.9390 F   0  0  0  0  0  0  0  0  0  0  0  0
   -0.6440   -0.6170    0.4650 C   0  0  0  0  0  0  0  0  0  0  0  0
    0.5670   -0.9950    1.1570 C   0  0  0  0  0  0  0  0  0  0  0  0
    0.5950   -1.6540    2.3560 C   0  0  0  0  0  0  0  0  0  0  0  0
    1.7560   -2.0190    2.9960 C   0  0  0  0  0  0  0  0  0  0  0  0
    2.9390   -1.6880    2.3680 C   0  0  0  0  0  0  0  0  0  0  0  0
    2.9570   -1.0400    1.1870 N   0  0  0  0  0  0  0  0  0  0  0  0
    1.8280   -0.6920    0.5790 C   0  0  0  0  0  0  0  0  0  0  0  0
    1.8080    0.0020   -0.7300 C   0  0  0  0  0  0  0  0  0  0  0  0
    3.0420    0.3360   -1.2530 O   0  0  0  0  0  0  0  0  0  0  0  0
    3.9930    1.1940   -0.7530 C   0  0  0  0  0  0  0  0  0  0  0  0
    3.8760    1.9170    0.4020 C   0  0  0  0  0  0  0  0  0  0  0  0
    4.8790    2.7470    0.8170 C   0  0  0  0  0  0  0  0  0  0  0  0
    6.0610    2.9020    0.0950 C   0  0  0  0  0  0  0  0  0  0  0  0
    6.1630    2.1680   -1.0650 C   0  0  0  0  0  0  0  0  0  0  0  0
    5.1620    1.3290   -1.4930 C   0  0  0  0  0  0  0  0  0  0  0  0
    5.3220    0.6220   -2.6610 F   0  0  0  0  0  0  0  0  0  0  0  0
   -1.3280    1.0810    0.6380 S   0  0  0  0  0  0  0  0  0  0  0  0
  1  2  1  0
  2  3  1  0
  3  4  2  0
  3  5  1  0
  5  6  2  0
  5  7  1  0
  7  8  1  0
  8  9  2  0
  8 37  1  0
  9 10  1  0
 10 11  1  0
 10 21  2  0
 11 12  2  0
 11 19  1  0
 12 13  1  0
 12 14  1  0
 14 15  1  0
 14 16  2  0
 16 17  1  0
 17 18  1  0
 17 19  2  0
 19 20  1  0
 21 22  1  0
 21 37  1  0
 22 23  2  0
 22 27  1  0
 23 24  1  0
 24 25  2  0
 25 26  1  0
 26 27  2  0
 27 28  1  0
 28 29  1  0
 29 30  1  0
 30 31  2  0
 30 35  1  0
 31 32  1  0
 32 33  2  0
 33 34  1  0
 34 35  2  0
 35 36  1  0
M  CHG  1  26   1
M  END
