
     RDKit          3D

 36 40  0  0  0  0  0  0  0  0999 V2000
   -0.7320    1.2400    3.4100 C   0  0  0  0  0  0  0  0  0  0  0  0
   -0.8140    2.3220    2.4010 C   0  0  0  0  0  0  0  0  0  0  0  0
   -0.9940    1.9220    0.9850 C   0  0  2  0  0  0  0  0  0  0  0  0
   -2.2130    1.1510    0.6880 C   0  0  0  0  0  0  0  0  0  0  0  0
   -2.3820   -0.1240    1.1850 C   0  0  0  0  0  0  0  0  0  0  0  0
   -3.5110   -0.8740    0.9280 C   0  0  0  0  0  0  0  0  0  0  0  0
   -4.4930   -0.3200    0.1490 C   0  0  0  0  0  0  0  0  0  0  0  0
   -4.3650    0.9440   -0.3660 C   0  0  0  0  0  0  0  0  0  0  0  0
   -3.2290    1.6560   -0.0870 C   0  0  0  0  0  0  0  0  0  0  0  0
   -5.5650    1.3160   -1.1770 C   0  0  0  0  0  0  0  0  0  0  0  0
   -6.4100    0.1140   -1.0730 C   0  0  0  0  0  0  0  0  0  0  0  0
   -7.6680   -0.2210   -1.5890 C   0  0  0  0  0  0  0  0  0  0  0  0
   -8.2650   -1.4370   -1.3480 C   0  0  0  0  0  0  0  0  0  0  0  0
   -9.6200   -1.7550   -1.9230 C   0  0  0  0  0  0  0  0  0  0  0  0
   -7.6170   -2.3710   -0.5720 C   0  0  0  0  0  0  0  0  0  0  0  0
   -6.3600   -2.0760   -0.0380 C   0  0  0  0  0  0  0  0  0  0  0  0
   -5.7890   -0.8420   -0.3020 C   0  0  0  0  0  0  0  0  0  0  0  0
    0.4170    1.0810    0.3010 S   0  0  2  0  0  0  0  0  0  0  0  0
    0.1570    0.8510   -1.1620 O   0  0  0  0  0  0  0  0  0  0  0  0
    0.5550   -0.2890    0.9170 O   0  0  0  0  0  0  0  0  0  0  0  0
    1.8880    2.0060    0.4650 C   0  0  0  0  0  0  0  0  0  0  0  0
    3.0910    1.3450   -0.1250 C   0  0  0  0  0  0  0  0  0  0  0  0
    3.4500    0.0350    0.4790 C   0  0  0  0  0  0  0  0  0  0  0  0
    4.6570   -0.4410   -0.1990 N   0  0  0  0  0  0  0  0  0  0  0  0
    5.8340   -0.0800    0.3190 C   0  0  0  0  0  0  0  0  0  0  0  0
    6.9710   -0.5320   -0.3280 C   0  0  0  0  0  0  0  0  0  0  0  0
    6.8890   -1.3160   -1.4480 C   0  0  0  0  0  0  0  0  0  0  0  0
    5.6260   -1.6580   -1.9390 C   0  0  0  0  0  0  0  0  0  0  0  0
    4.5240   -1.2000   -1.2850 C   0  0  0  0  0  0  0  0  0  0  0  0
    3.3500   -1.4820   -1.6880 O   0  0  0  0  0  0  0  0  0  0  0  0
    8.0630   -1.8200   -2.1660 C   0  0  0  0  0  0  0  0  0  0  0  0
    9.3280   -1.3950   -1.5710 C   0  0  0  0  0  0  0  0  0  0  0  0
   10.4250   -1.7600   -2.1080 O   0  0  0  0  0  0  0  0  0  0  0  0
    9.4630   -0.5840   -0.4120 N   0  0  0  0  0  0  0  0  0  0  0  0
    8.2790   -0.1390    0.2310 C   0  0  0  0  0  0  0  0  0  0  0  0
    8.3410    0.5770    1.2550 O   0  0  0  0  0  0  0  0  0  0  0  0
  1  2  1  0
  3  2  1  1
  3  4  1  0
  3 18  1  0
  4  5  2  0
  4  9  1  0
  5  6  1  0
  6  7  2  0
  7  8  1  0
  7 17  1  0
  8  9  2  0
  8 10  1  0
 10 11  1  0
 11 12  2  0
 11 17  1  0
 12 13  1  0
 13 14  1  0
 13 15  2  0
 15 16  1  0
 16 17  2  0
 18 19  2  0
 18 20  2  0
 18 21  1  6
 21 22  1  0
 22 23  1  0
 23 24  1  0
 24 25  1  0
 24 29  1  0
 25 26  2  0
 26 27  1  0
 26 35  1  0
 27 28  2  0
 27 31  1  0
 28 29  1  0
 29 30  2  0
 31 32  1  0
 32 33  2  0
 32 34  1  0
 34 35  1  0
 35 36  2  0
M  END
