
     RDKit          3D

 35 39  0  0  0  0  0  0  0  0999 V2000
    7.3980    1.4570   -2.6090 C   0  0  0  0  0  0  0  0  0  0  0  0
    6.8280    0.9530   -1.2710 C   0  0  2  0  0  0  0  0  0  0  0  0
    6.3760   -0.4630   -1.2940 C   0  0  0  0  0  0  0  0  0  0  0  0
    5.9440    1.9100   -0.5030 C   0  0  1  0  0  0  0  0  0  0  0  0
    4.7480    1.4460    0.2220 C   0  0  0  0  0  0  0  0  0  0  0  0
    3.6760    2.1590    0.1000 O   0  0  0  0  0  0  0  0  0  0  0  0
    4.6450    0.3070    1.0370 N   0  0  0  0  0  0  0  0  0  0  0  0
    3.3970   -0.0590    1.7040 C   0  0  0  0  0  0  0  0  0  0  0  0
    2.3280   -0.3260    0.6850 C   0  0  0  0  0  0  0  0  0  0  0  0
    1.0720   -0.7040    1.4550 C   0  0  0  0  0  0  0  0  0  0  0  0
    1.1270   -0.7390    2.6930 O   0  0  0  0  0  0  0  0  0  0  0  0
   -0.1130   -1.0020    0.7690 N   0  0  0  0  0  0  0  0  0  0  0  0
   -1.3350   -1.3710    1.3990 C   0  0  0  0  0  0  0  0  0  0  0  0
   -1.4260   -1.8110    2.6810 C   0  0  0  0  0  0  0  0  0  0  0  0
   -2.6760   -2.1140    3.1910 C   0  0  0  0  0  0  0  0  0  0  0  0
   -3.8070   -1.9830    2.4410 C   0  0  0  0  0  0  0  0  0  0  0  0
   -3.7470   -1.5450    1.1560 C   0  0  0  0  0  0  0  0  0  0  0  0
   -2.4930   -1.2450    0.6580 C   0  0  0  0  0  0  0  0  0  0  0  0
   -5.0060   -1.4090    0.4820 C   0  0  0  0  0  0  0  0  0  0  0  0
   -5.1590   -1.0160   -0.7380 O   0  0  0  0  0  0  0  0  0  0  0  0
   -6.1790   -1.7470    1.2510 C   0  0  0  0  0  0  0  0  0  0  0  0
   -7.4530   -1.6490    0.9660 C   0  0  0  0  0  0  0  0  0  0  0  0
   -8.0380   -1.1500   -0.2460 C   0  0  0  0  0  0  0  0  0  0  0  0
   -8.9770   -1.9060   -0.9230 C   0  0  0  0  0  0  0  0  0  0  0  0
   -9.6000   -1.4740   -2.0640 C   0  0  0  0  0  0  0  0  0  0  0  0
   -9.2650   -0.2160   -2.5570 C   0  0  0  0  0  0  0  0  0  0  0  0
   -8.3420    0.5540   -1.9110 C   0  0  0  0  0  0  0  0  0  0  0  0
   -7.7260    0.0880   -0.7510 C   0  0  0  0  0  0  0  0  0  0  0  0
   -8.2000    1.7450   -2.6070 O   0  0  0  0  0  0  0  0  0  0  0  0
   -9.2750    1.8240   -3.5210 C   0  0  0  0  0  0  0  0  0  0  0  0
   -9.7100    0.4900   -3.6680 O   0  0  0  0  0  0  0  0  0  0  0  0
   -5.4970   -2.3390    2.8300 S   0  0  0  0  0  0  0  0  0  0  0  0
    7.3160    1.6660   -0.0600 C   0  0  1  0  0  0  0  0  0  0  0  0
    7.6990    0.8880    1.1430 C   0  0  0  0  0  0  0  0  0  0  0  0
    8.2570    2.8700   -0.3080 C   0  0  0  0  0  0  0  0  0  0  0  0
  2  1  1  6
  2  3  1  0
  2  4  1  0
  2 33  1  0
  4  5  1  1
  4 33  1  0
  5  6  2  0
  5  7  1  0
  7  8  1  0
  8  9  1  0
  9 10  1  0
 10 11  2  0
 10 12  1  0
 12 13  1  0
 13 14  2  0
 13 18  1  0
 14 15  1  0
 15 16  2  0
 16 17  1  0
 16 32  1  0
 17 18  2  0
 17 19  1  0
 19 20  2  0
 19 21  1  0
 21 22  2  3
 21 32  1  0
 22 23  1  0
 23 24  2  0
 23 28  1  0
 24 25  1  0
 25 26  2  0
 26 27  1  0
 26 31  1  0
 27 28  2  0
 27 29  1  0
 29 30  1  0
 30 31  1  0
 33 34  1  1
 33 35  1  0
M  END
