
     RDKit          3D

 36 39  0  0  0  0  0  0  0  0999 V2000
    9.7820   -1.2060    0.7860 C   0  0  0  0  0  0  0  0  0  0  0  0
    8.6490   -0.4070    1.0930 O   0  0  0  0  0  0  0  0  0  0  0  0
    7.3570   -0.8540    0.8530 C   0  0  0  0  0  0  0  0  0  0  0  0
    7.0850   -2.0920    0.3050 C   0  0  0  0  0  0  0  0  0  0  0  0
    5.7750   -2.4370    0.1090 C   0  0  0  0  0  0  0  0  0  0  0  0
    4.7280   -1.6000    0.4340 C   0  0  0  0  0  0  0  0  0  0  0  0
    3.3720   -2.1100    0.1590 C   0  0  0  0  0  0  0  0  0  0  0  0
    2.3290   -1.0950    0.3850 N   0  0  0  0  0  0  0  0  0  0  0  0
    2.1550   -0.0330   -0.5600 C   0  0  0  0  0  0  0  0  0  0  0  0
    2.9590   -0.0500   -1.5280 O   0  0  0  0  0  0  0  0  0  0  0  0
    1.1360    0.9810   -0.4070 C   0  0  0  0  0  0  0  0  0  0  0  0
    1.5170    2.2480   -0.0360 C   0  0  0  0  0  0  0  0  0  0  0  0
    0.6050    3.2290    0.1690 C   0  0  0  0  0  0  0  0  0  0  0  0
   -0.7260    2.9350   -0.0030 C   0  0  0  0  0  0  0  0  0  0  0  0
   -1.1160    1.6350   -0.3840 C   0  0  0  0  0  0  0  0  0  0  0  0
   -0.2320    0.6320   -0.5970 C   0  0  0  0  0  0  0  0  0  0  0  0
   -0.4930   -0.7320   -1.0200 C   0  0  0  0  0  0  0  0  0  0  0  0
   -1.7070   -1.3210   -1.2980 N   0  0  1  0  0  0  0  0  0  0  0  0
   -1.9120   -2.5640   -0.4890 C   0  0  0  0  0  0  0  0  0  0  0  0
   -2.9300   -0.7090   -1.5640 C   0  0  0  0  0  0  0  0  0  0  0  0
   -3.8970   -0.4190   -0.5300 C   0  0  0  0  0  0  0  0  0  0  0  0
   -3.7370   -0.6210    0.7960 C   0  0  0  0  0  0  0  0  0  0  0  0
   -4.7240   -0.2800    1.7340 C   0  0  0  0  0  0  0  0  0  0  0  0
   -5.8950    0.2770    1.3040 C   0  0  0  0  0  0  0  0  0  0  0  0
   -6.0830    0.4940   -0.0530 C   0  0  0  0  0  0  0  0  0  0  0  0
   -7.2520    1.0590   -0.5620 O   0  0  0  0  0  0  0  0  0  0  0  0
   -8.2970    1.4320    0.3070 C   0  0  0  0  0  0  0  0  0  0  0  0
   -5.1080    0.1540   -0.9430 C   0  0  0  0  0  0  0  0  0  0  0  0
   -5.3440    0.3860   -2.3690 C   0  0  0  0  0  0  0  0  0  0  0  0
   -5.0250    1.4500   -2.9360 O   0  0  0  0  0  0  0  0  0  0  0  0
   -5.9510   -0.6570   -3.0720 O   0  0  0  0  0  0  0  0  0  0  0  0
   -1.4200    4.1070    0.2680 O   0  0  0  0  0  0  0  0  0  0  0  0
   -0.5160    5.2110    0.2290 C   0  0  0  0  0  0  0  0  0  0  0  0
    0.7100    4.5830    0.5440 O   0  0  0  0  0  0  0  0  0  0  0  0
    4.9960   -0.3750    0.9750 C   0  0  0  0  0  0  0  0  0  0  0  0
    6.3160   -0.0170    1.1790 C   0  0  0  0  0  0  0  0  0  0  0  0
  1  2  1  0
  2  3  1  0
  3  4  2  0
  3 36  1  0
  4  5  1  0
  5  6  2  0
  6  7  1  0
  6 35  1  0
  7  8  1  0
  8  9  1  0
  9 10  2  0
  9 11  1  0
 11 12  2  0
 11 16  1  0
 12 13  1  0
 13 14  2  0
 13 34  1  0
 14 15  1  0
 14 32  1  0
 15 16  2  0
 16 17  1  0
 17 18  1  0
 18 19  1  1
 18 20  1  0
 20 21  1  0
 21 22  2  0
 21 28  1  0
 22 23  1  0
 23 24  2  0
 24 25  1  0
 25 26  1  0
 25 28  2  0
 26 27  1  0
 28 29  1  0
 29 30  2  0
 29 31  1  0
 32 33  1  0
 33 34  1  0
 35 36  2  0
M  CHG  1  18   1
M  END
