
     RDKit          3D

 37 40  0  0  0  0  0  0  0  0999 V2000
   -8.2680   -0.3380    2.0750 C   0  0  0  0  0  0  0  0  0  0  0  0
   -7.2240   -1.0250    1.6130 C   0  0  0  0  0  0  0  0  0  0  0  0
   -5.9570   -0.3740    1.3450 C   0  0  0  0  0  0  0  0  0  0  0  0
   -4.9270   -1.0550    0.8700 C   0  0  0  0  0  0  0  0  0  0  0  0
   -3.6480   -0.3510    0.6030 C   0  0  0  0  0  0  0  0  0  0  0  0
   -3.5950    0.9010    0.8530 O   0  0  0  0  0  0  0  0  0  0  0  0
   -2.5150   -0.9830    0.0860 N   0  0  0  0  0  0  0  0  0  0  0  0
   -1.3010   -0.3680   -0.3080 C   0  0  0  0  0  0  0  0  0  0  0  0
   -0.2990   -1.2230   -0.7960 C   0  0  0  0  0  0  0  0  0  0  0  0
    0.8720   -0.7570   -1.3700 C   0  0  0  0  0  0  0  0  0  0  0  0
    1.8310   -1.5810   -1.9750 N   0  0  0  0  0  0  0  0  0  0  0  0
    2.9430   -2.6760   -1.3920 S   0  0  2  0  0  0  0  0  0  0  0  0
    3.6940   -3.3420   -2.5430 O   0  0  0  0  0  0  0  0  0  0  0  0
    2.3140   -3.7940   -0.5790 O   0  0  0  0  0  0  0  0  0  0  0  0
    4.1940   -2.0020   -0.3730 C   0  0  0  0  0  0  0  0  0  0  0  0
    5.3280   -1.4660   -1.0270 C   0  0  0  0  0  0  0  0  0  0  0  0
    6.3750   -0.9310   -0.3140 C   0  0  0  0  0  0  0  0  0  0  0  0
    6.3540   -0.8990    1.0720 C   0  0  0  0  0  0  0  0  0  0  0  0
    7.5270   -0.3430    1.8280 C   0  0  1  0  0  0  0  0  0  0  0  0
    8.6480   -0.2830    1.0390 F   0  0  0  0  0  0  0  0  0  0  0  0
    7.1960    0.9100    2.3640 F   0  0  0  0  0  0  0  0  0  0  0  0
    7.7610   -1.2040    2.9030 F   0  0  0  0  0  0  0  0  0  0  0  0
    5.2500   -1.4210    1.7100 C   0  0  0  0  0  0  0  0  0  0  0  0
    4.1890   -1.9630    0.9930 C   0  0  0  0  0  0  0  0  0  0  0  0
    0.9870    0.6250   -1.4240 C   0  0  0  0  0  0  0  0  0  0  0  0
    0.0180    1.4790   -0.9470 C   0  0  0  0  0  0  0  0  0  0  0  0
    0.1970    2.9380   -1.0300 C   0  0  0  0  0  0  0  0  0  0  0  0
   -0.6470    3.7580   -0.3410 C   0  0  0  0  0  0  0  0  0  0  0  0
   -0.5240    5.1470   -0.4380 C   0  0  0  0  0  0  0  0  0  0  0  0
    0.4680    5.6830   -1.2360 C   0  0  0  0  0  0  0  0  0  0  0  0
    0.5630    7.0430   -1.3240 F   0  0  0  0  0  0  0  0  0  0  0  0
    1.3290    4.8670   -1.9390 C   0  0  0  0  0  0  0  0  0  0  0  0
    1.1810    3.4940   -1.8250 C   0  0  0  0  0  0  0  0  0  0  0  0
   -1.1020    0.9450   -0.4000 N   0  0  0  0  0  0  0  0  0  0  0  0
   -5.0660   -2.4750    0.6150 C   0  0  0  0  0  0  0  0  0  0  0  0
   -6.1960   -3.1360    0.8370 C   0  0  0  0  0  0  0  0  0  0  0  0
   -7.3110   -2.4310    1.3440 N   0  0  0  0  0  0  0  0  0  0  0  0
  1  2  2  0
  2  3  1  0
  2 37  1  0
  3  4  2  0
  4  5  1  0
  4 35  1  0
  5  6  2  0
  5  7  1  0
  7  8  1  0
  8  9  2  0
  8 34  1  0
  9 10  1  0
 10 11  1  0
 10 25  2  0
 12 11  1  6
 12 13  2  0
 12 14  2  0
 12 15  1  0
 15 16  2  0
 15 24  1  0
 16 17  1  0
 17 18  2  0
 18 19  1  0
 18 23  1  0
 19 20  1  6
 19 21  1  0
 19 22  1  0
 23 24  2  0
 25 26  1  0
 26 27  1  0
 26 34  2  0
 27 28  2  0
 27 33  1  0
 28 29  1  0
 29 30  2  0
 30 31  1  0
 30 32  1  0
 32 33  2  0
 35 36  2  0
 36 37  1  0
M  CHG  1  34   1
M  END
