
     RDKit          3D

 26 27  0  0  0  0  0  0  0  0999 V2000
   -1.5650   -0.1200    3.4140 C   0  0  0  0  0  0  0  0  0  0  0  0
   -1.3770    1.0170    2.3470 C   0  0  2  0  0  0  0  0  0  0  0  0
   -2.7260    1.6110    2.2390 C   0  0  0  0  0  0  0  0  0  0  0  0
   -0.7830    0.3210    1.1990 C   0  0  0  0  0  0  0  0  0  0  0  0
   -0.3950    0.9950   -0.0250 C   0  0  2  0  0  0  0  0  0  0  0  0
    0.6100    2.1300    0.1880 C   0  0  0  0  0  0  0  0  0  0  0  0
    1.8560    1.6850    0.7570 N   0  0  0  0  0  0  0  0  0  0  0  0
    2.7500    0.8230    0.0950 C   0  0  0  0  0  0  0  0  0  0  0  0
    2.4990    0.4180   -1.0540 O   0  0  0  0  0  0  0  0  0  0  0  0
    4.0230    0.3440    0.7030 C   0  0  0  0  0  0  0  0  0  0  0  0
    4.8260   -0.4790   -0.2520 C   0  0  0  0  0  0  0  0  0  0  0  0
    6.0990   -0.9210    0.4380 C   0  0  0  0  0  0  0  0  0  0  0  0
    6.9360    0.1570    0.8640 N   0  0  0  0  0  0  0  0  0  0  0  0
   -1.2860    1.1890   -1.1680 C   0  0  0  0  0  0  0  0  0  0  0  0
   -1.8370   -0.0450   -1.7670 C   0  0  0  0  0  0  0  0  0  0  0  0
   -0.9760   -1.0340   -2.2710 C   0  0  0  0  0  0  0  0  0  0  0  0
   -1.4930   -2.2290   -2.7020 C   0  0  0  0  0  0  0  0  0  0  0  0
   -2.8410   -2.5090   -2.6640 C   0  0  0  0  0  0  0  0  0  0  0  0
   -3.7090   -1.5290   -2.1670 C   0  0  0  0  0  0  0  0  0  0  0  0
   -3.1810   -0.3050   -1.7270 C   0  0  0  0  0  0  0  0  0  0  0  0
   -4.1970    0.6740   -1.3370 C   0  0  0  0  0  0  0  0  0  0  0  0
   -4.6510    0.8900   -0.2140 O   0  0  0  0  0  0  0  0  0  0  0  0
   -4.7400    1.4870   -2.3740 O   0  0  0  0  0  0  0  0  0  0  0  0
   -5.0060   -2.0100   -2.2210 O   0  0  0  0  0  0  0  0  0  0  0  0
   -4.8770   -3.4320   -2.3630 C   0  0  0  0  0  0  0  0  0  0  0  0
   -3.6370   -3.5910   -3.0120 O   0  0  0  0  0  0  0  0  0  0  0  0
  2  1  1  1
  2  3  1  0
  2  4  1  0
  5  4  1  1
  5  6  1  0
  5 14  1  0
  6  7  1  0
  7  8  1  0
  8  9  2  0
  8 10  1  0
 10 11  1  0
 11 12  1  0
 12 13  1  0
 14 15  1  0
 15 16  2  0
 15 20  1  0
 16 17  1  0
 17 18  2  0
 18 19  1  0
 18 26  1  0
 19 20  2  0
 19 24  1  0
 20 21  1  0
 21 22  2  0
 21 23  1  0
 24 25  1  0
 25 26  1  0
M  CHG  1  13   1
M  END
