
     RDKit          3D

 26 27  0  0  0  0  0  0  0  0999 V2000
    2.7560    1.9620    4.7340 C   0  0  0  0  0  0  0  0  0  0  0  0
    1.7600    0.5260    4.3060 S   0  0  0  0  0  0  0  0  0  0  0  0
    2.2780   -0.1970    2.7250 C   0  0  0  0  0  0  0  0  0  0  0  0
    1.9860    0.7780    1.6040 C   0  0  0  0  0  0  0  0  0  0  0  0
    2.4340    0.1640    0.2490 C   0  0  1  0  0  0  0  0  0  0  0  0
    3.8270   -0.0980    0.3680 N   0  0  0  0  0  0  0  0  0  0  0  0
    4.3490   -1.4010    0.3690 C   0  0  0  0  0  0  0  0  0  0  0  0
    5.5940   -1.5940    0.6110 O   0  0  0  0  0  0  0  0  0  0  0  0
    3.4830   -2.4810    0.1010 N   0  0  0  0  0  0  0  0  0  0  0  0
    2.0940   -2.1950   -0.1430 C   0  0  0  0  0  0  0  0  0  0  0  0
    1.2130   -3.3820   -0.4600 C   0  0  0  0  0  0  0  0  0  0  0  0
    1.6150   -0.9770   -0.0900 C   0  0  0  0  0  0  0  0  0  0  0  0
    0.1890   -0.8110   -0.4370 C   0  0  0  0  0  0  0  0  0  0  0  0
   -0.5290   -1.8210   -0.7280 O   0  0  0  0  0  0  0  0  0  0  0  0
   -0.4630    0.4460   -0.4780 N   0  0  0  0  0  0  0  0  0  0  0  0
   -1.8370    0.4950   -0.8100 N   0  0  0  0  0  0  0  0  0  0  0  0
   -2.3340    1.3110   -1.8360 C   0  0  0  0  0  0  0  0  0  0  0  0
   -1.5020    2.0230   -2.4720 O   0  0  0  0  0  0  0  0  0  0  0  0
   -3.7550    1.3900   -2.2160 C   0  0  2  0  0  0  0  0  0  0  0  0
   -4.6610    1.6910   -1.0880 C   0  0  0  0  0  0  0  0  0  0  0  0
   -4.6680    0.9120    0.0820 N   0  0  0  0  0  0  0  0  0  0  0  0
   -5.4440    2.6790   -1.1940 O   0  0  0  0  0  0  0  0  0  0  0  0
   -4.1250    0.0880   -2.9100 C   0  0  0  0  0  0  0  0  0  0  0  0
   -3.7340    0.3950   -4.3340 C   0  0  0  0  0  0  0  0  0  0  0  0
   -3.6580    1.6660   -4.4390 N   0  0  0  0  0  0  0  0  0  0  0  0
   -3.9440    2.3100   -3.2770 O   0  0  0  0  0  0  0  0  0  0  0  0
  1  2  1  0
  2  3  1  0
  3  4  1  0
  5  4  1  1
  5  6  1  0
  5 12  1  0
  6  7  1  0
  7  8  2  0
  7  9  1  0
  9 10  1  0
 10 11  1  0
 10 12  2  0
 12 13  1  0
 13 14  2  0
 13 15  1  0
 15 16  1  0
 16 17  1  0
 17 18  2  0
 19 17  1  1
 19 20  1  0
 19 23  1  0
 19 26  1  0
 20 21  1  0
 20 22  2  0
 23 24  1  0
 24 25  2  0
 25 26  1  0
M  END
