
     RDKit          3D

 26 27  0  0  0  0  0  0  0  0999 V2000
    9.2910   -0.8900    1.5100 C   0  0  0  0  0  0  0  0  0  0  0  0
    8.5230    0.3030    1.0870 C   0  0  0  0  0  0  0  0  0  0  0  0
    9.1150    1.4340    1.0280 O   0  0  0  0  0  0  0  0  0  0  0  0
    7.1650    0.2750    0.7420 N   0  0  0  0  0  0  0  0  0  0  0  0
    6.4820    1.5000    0.3290 C   0  0  1  0  0  0  0  0  0  0  0  0
    5.6770    1.2880   -0.9420 C   0  0  0  0  0  0  0  0  0  0  0  0
    5.0480    1.6360    0.3880 C   0  0  1  0  0  0  0  0  0  0  0  0
    4.1400    0.6090    0.8900 N   0  0  0  0  0  0  0  0  0  0  0  0
    2.7780    0.6020    0.4980 C   0  0  0  0  0  0  0  0  0  0  0  0
    2.3860    1.4880   -0.2740 O   0  0  0  0  0  0  0  0  0  0  0  0
    1.8340   -0.3750    0.9400 N   0  0  0  0  0  0  0  0  0  0  0  0
    0.5060   -0.3430    0.4400 N   0  0  0  0  0  0  0  0  0  0  0  0
    0.2650   -1.1550   -0.6870 C   0  0  0  0  0  0  0  0  0  0  0  0
    1.2560   -1.8330   -1.1260 O   0  0  0  0  0  0  0  0  0  0  0  0
   -1.0280   -1.2800   -1.4000 C   0  0  0  0  0  0  0  0  0  0  0  0
   -2.0320   -0.5130   -0.8070 N   0  0  0  0  0  0  0  0  0  0  0  0
   -3.3940   -0.5310   -1.4660 C   0  0  0  0  0  0  0  0  0  0  0  0
   -3.4890   -1.1810   -2.4460 O   0  0  0  0  0  0  0  0  0  0  0  0
   -4.2140    0.2720   -0.6870 N   0  0  0  0  0  0  0  0  0  0  0  0
   -5.6690   -0.0390   -1.6140 C   0  0  0  0  0  0  0  0  0  0  0  0
   -5.5480   -0.7300   -2.5090 O   0  0  0  0  0  0  0  0  0  0  0  0
   -6.7460    0.6830   -1.0030 C   0  0  2  0  0  0  0  0  0  0  0  0
   -6.8150    0.4830    0.4950 C   0  0  0  0  0  0  0  0  0  0  0  0
   -8.2200    0.6740    0.9550 C   0  0  0  0  0  0  0  0  0  0  0  0
   -9.0830   -0.2860    0.1600 C   0  0  0  0  0  0  0  0  0  0  0  0
   -8.3730   -0.0410   -1.4960 S   0  0  0  0  0  0  0  0  0  0  0  0
  1  2  1  0
  2  3  2  0
  2  4  1  0
  5  4  1  1
  5  6  1  0
  5  7  1  0
  6  7  1  0
  7  8  1  1
  8  9  1  0
  9 10  2  0
  9 11  1  0
 11 12  1  0
 12 13  1  0
 13 14  2  0
 13 15  1  0
 15 16  1  0
 16 17  1  0
 17 18  2  0
 17 19  1  0
 19 20  1  0
 20 21  2  0
 22 20  1  6
 22 23  1  0
 22 26  1  0
 23 24  1  0
 24 25  1  0
 25 26  1  0
M  END
