
     RDKit          3D

 26 27  0  0  0  0  0  0  0  0999 V2000
   -7.1090    1.3790    0.5950 C   0  0  0  0  0  0  0  0  0  0  0  0
   -6.7970    0.3370   -0.4280 C   0  0  2  0  0  0  0  0  0  0  0  0
   -7.8130   -0.6140   -0.4980 O   0  0  0  0  0  0  0  0  0  0  0  0
   -5.4830   -0.3700   -0.1510 C   0  0  1  0  0  0  0  0  0  0  0  0
   -5.2520   -1.3790   -1.0800 O   0  0  0  0  0  0  0  0  0  0  0  0
   -4.3840    0.5600   -0.0650 N   0  0  0  0  0  0  0  0  0  0  0  0
   -3.2100    0.0880    0.1350 C   0  0  0  0  0  0  0  0  0  0  0  0
   -3.0420   -1.3170    0.2630 N   0  0  0  0  0  0  0  0  0  0  0  0
   -1.9020   -2.1130   -0.1350 C   0  0  0  0  0  0  0  0  0  0  0  0
   -2.1180   -3.3270   -0.2880 O   0  0  0  0  0  0  0  0  0  0  0  0
   -0.5680   -1.6770   -0.3730 N   0  0  0  0  0  0  0  0  0  0  0  0
   -0.0490   -0.3700   -0.1660 C   0  0  0  0  0  0  0  0  0  0  0  0
    1.3510   -0.3320   -0.2410 C   0  0  0  0  0  0  0  0  0  0  0  0
    2.0450    0.8210   -0.0710 C   0  0  0  0  0  0  0  0  0  0  0  0
    3.4350    0.9200   -0.1120 N   0  0  0  0  0  0  0  0  0  0  0  0
    4.2950   -0.1890    0.0090 C   0  0  0  0  0  0  0  0  0  0  0  0
    3.8840   -1.3660    0.1770 O   0  0  0  0  0  0  0  0  0  0  0  0
    5.7140    0.0410   -0.0650 N   0  0  0  0  0  0  0  0  0  0  0  0
    6.5840   -1.1120    0.0610 C   0  0  0  0  0  0  0  0  0  0  0  0
    8.0100   -0.6230   -0.0470 C   0  0  0  0  0  0  0  0  0  0  0  0
    8.2910    0.5530    1.2880 S   0  0  0  0  0  0  0  0  0  0  0  0
    6.9970    0.8460    2.0380 O   0  0  0  0  0  0  0  0  0  0  0  0
    1.3450    2.0080    0.1840 C   0  0  0  0  0  0  0  0  0  0  0  0
   -0.0230    1.9880    0.2600 C   0  0  0  0  0  0  0  0  0  0  0  0
   -0.7100    0.8070    0.0860 C   0  0  0  0  0  0  0  0  0  0  0  0
   -2.1340    1.0420    0.2110 N   0  0  0  0  0  0  0  0  0  0  0  0
  2  1  1  1
  2  3  1  0
  2  4  1  0
  4  5  1  6
  4  6  1  0
  6  7  2  3
  7  8  1  0
  7 26  1  0
  8  9  1  0
  9 10  2  0
  9 11  1  0
 11 12  1  0
 12 13  2  0
 12 25  1  0
 13 14  1  0
 14 15  1  0
 14 23  2  0
 15 16  1  0
 16 17  2  0
 16 18  1  0
 18 19  1  0
 19 20  1  0
 20 21  1  0
 21 22  2  0
 23 24  1  0
 24 25  2  0
 25 26  1  0
M  END
