
     RDKit          3D

 26 27  0  0  0  0  0  0  0  0999 V2000
    7.4620   -1.2530    1.6400 C   0  0  0  0  0  0  0  0  0  0  0  0
    6.9870    0.4820    1.9600 S   0  0  0  0  0  0  0  0  0  0  0  0
    5.2640    0.7480    1.3560 C   0  0  0  0  0  0  0  0  0  0  0  0
    5.3440    0.5930   -0.1280 C   0  0  2  0  0  0  0  0  0  0  0  0
    6.2140    1.5460   -0.6270 O   0  0  0  0  0  0  0  0  0  0  0  0
    4.0670    0.6320   -0.8500 C   0  0  0  0  0  0  0  0  0  0  0  0
    3.9150    1.4710   -1.7750 O   0  0  0  0  0  0  0  0  0  0  0  0
    2.9630   -0.2230   -0.5820 N   0  0  0  0  0  0  0  0  0  0  0  0
    1.7820   -0.1770   -1.2970 N   0  0  0  0  0  0  0  0  0  0  0  0
    0.5610    0.3370   -0.7890 C   0  0  0  0  0  0  0  0  0  0  0  0
    0.5400    0.7950    0.3560 O   0  0  0  0  0  0  0  0  0  0  0  0
   -0.6290    0.3480   -1.5350 N   0  0  0  0  0  0  0  0  0  0  0  0
   -1.9320    0.7980   -1.2410 C   0  0  0  0  0  0  0  0  0  0  0  0
   -2.6860    0.2260   -0.1130 C   0  0  2  0  0  0  0  0  0  0  0  0
   -2.8170   -1.2800   -0.1730 C   0  0  1  0  0  0  0  0  0  0  0  0
   -3.5550   -1.7050    0.9210 O   0  0  0  0  0  0  0  0  0  0  0  0
   -3.4050   -1.8080   -1.4010 C   0  0  0  0  0  0  0  0  0  0  0  0
   -2.6260   -2.3730   -2.4270 C   0  0  0  0  0  0  0  0  0  0  0  0
   -3.4740   -2.7680   -3.3760 N   0  0  0  0  0  0  0  0  0  0  0  0
   -4.7290   -2.4790   -2.9970 N   0  0  0  0  0  0  0  0  0  0  0  0
   -4.6710   -1.9000   -1.8030 N   0  0  0  0  0  0  0  0  0  0  0  0
   -4.1620    0.7560   -0.2490 C   0  0  0  0  0  0  0  0  0  0  0  0
   -4.1650    2.1410    0.3180 C   0  0  0  0  0  0  0  0  0  0  0  0
   -4.1950    2.0280    1.7100 O   0  0  0  0  0  0  0  0  0  0  0  0
   -3.4650    0.9340    2.1560 C   0  0  0  0  0  0  0  0  0  0  0  0
   -2.2570    0.6830    1.2270 C   0  0  0  0  0  0  0  0  0  0  0  0
  1  2  1  0
  2  3  1  0
  3  4  1  0
  4  5  1  6
  4  6  1  0
  6  7  2  0
  6  8  1  0
  8  9  1  0
  9 10  1  0
 10 11  2  0
 10 12  1  0
 12 13  1  0
 14 13  1  6
 14 15  1  0
 14 22  1  0
 14 26  1  0
 15 16  1  1
 15 17  1  0
 17 18  2  0
 17 21  1  0
 18 19  1  0
 19 20  2  0
 20 21  1  0
 22 23  1  0
 23 24  1  0
 24 25  1  0
 25 26  1  0
M  END
