
     RDKit          3D

 26 28  0  0  0  0  0  0  0  0999 V2000
   -3.7450   -1.4340   -2.4170 N   0  0  0  0  0  0  0  0  0  0  0  0
   -2.6630   -0.4540   -2.3390 C   0  0  0  0  0  0  0  0  0  0  0  0
   -2.0970   -0.2860   -3.4220 O   0  0  0  0  0  0  0  0  0  0  0  0
   -2.3780    0.1770   -1.1020 C   0  0  0  0  0  0  0  0  0  0  0  0
   -1.3810    1.1950   -0.7900 C   0  0  0  0  0  0  0  0  0  0  0  0
   -0.0130    0.9300   -0.8010 N   0  0  0  0  0  0  0  0  0  0  0  0
    0.8560    0.6350   -1.7680 C   0  0  0  0  0  0  0  0  0  0  0  0
    0.4720    0.5830   -3.0040 O   0  0  0  0  0  0  0  0  0  0  0  0
    2.1820    0.3580   -1.6740 N   0  0  0  0  0  0  0  0  0  0  0  0
    3.4640    0.0930   -1.5530 C   0  0  0  0  0  0  0  0  0  0  0  0
    3.9940   -0.1410   -2.7190 O   0  0  0  0  0  0  0  0  0  0  0  0
    4.2910    0.0250   -0.4820 N   0  0  0  0  0  0  0  0  0  0  0  0
    5.6830   -0.2860   -0.5720 C   0  0  0  0  0  0  0  0  0  0  0  0
    6.1880   -0.2570    0.8120 C   0  0  0  0  0  0  0  0  0  0  0  0
    6.7210    0.8650    1.4330 C   0  0  0  0  0  0  0  0  0  0  0  0
    7.0650    0.4620    2.7060 C   0  0  0  0  0  0  0  0  0  0  0  0
    6.7270   -0.8650    2.7860 C   0  0  0  0  0  0  0  0  0  0  0  0
    6.2120   -1.2720    1.6640 O   0  0  0  0  0  0  0  0  0  0  0  0
   -3.1810   -0.1750   -0.0650 C   0  0  0  0  0  0  0  0  0  0  0  0
   -3.1710    0.2550    1.2720 N   0  0  0  0  0  0  0  0  0  0  0  0
   -4.4200    0.1630    1.9470 C   0  0  1  0  0  0  0  0  0  0  0  0
   -5.3670    1.1890    1.6090 N   0  0  0  0  0  0  0  0  0  0  0  0
   -6.5410    0.6470    1.9790 O   0  0  0  0  0  0  0  0  0  0  0  0
   -6.5640   -0.6590    1.4740 C   0  0  0  0  0  0  0  0  0  0  0  0
   -5.1400   -1.0970    1.5610 C   0  0  1  0  0  0  0  0  0  0  0  0
   -4.5270   -1.3390   -0.1570 S   0  0  0  0  0  0  0  0  0  0  0  0
  1  2  1  0
  2  3  2  0
  2  4  1  0
  4  5  1  0
  4 19  2  3
  5  6  1  0
  6  7  1  0
  7  8  2  0
  7  9  1  0
  9 10  1  0
 10 11  2  0
 10 12  1  0
 12 13  1  0
 13 14  1  0
 14 15  2  0
 14 18  1  0
 15 16  1  0
 16 17  2  0
 17 18  1  0
 19 20  1  0
 19 26  1  0
 21 20  1  6
 21 22  1  0
 21 25  1  0
 22 23  1  0
 23 24  1  0
 25 24  1  6
 25 26  1  0
M  END
