
     RDKit          3D

 26 27  0  0  0  0  0  0  0  0999 V2000
    4.3670   -2.7470   -1.3710 C   0  0  0  0  0  0  0  0  0  0  0  0
    5.4540   -1.5380   -0.6040 S   0  0  0  0  0  0  0  0  0  0  0  0
    4.5570   -0.0650   -0.1430 C   0  0  0  0  0  0  0  0  0  0  0  0
    5.1580    0.8750    0.5770 C   0  0  0  0  0  0  0  0  0  0  0  0
    6.5210    0.6910    0.9850 C   0  0  0  0  0  0  0  0  0  0  0  0
    7.2430   -0.4640    0.6410 N   0  0  0  0  0  0  0  0  0  0  0  0
    7.1040    1.5790    1.6720 O   0  0  0  0  0  0  0  0  0  0  0  0
    4.3640    1.9620    0.8500 O   0  0  0  0  0  0  0  0  0  0  0  0
    2.9380    1.9560    0.7950 C   0  0  0  0  0  0  0  0  0  0  0  0
    2.3970    0.8880   -0.0080 C   0  0  0  0  0  0  0  0  0  0  0  0
    1.2040    0.5720   -0.7180 N   0  0  0  0  0  0  0  0  0  0  0  0
   -0.0080    0.6090   -0.1010 C   0  0  0  0  0  0  0  0  0  0  0  0
    0.1530    0.8370    1.1530 O   0  0  0  0  0  0  0  0  0  0  0  0
   -1.3160    0.4180   -0.6510 C   0  0  0  0  0  0  0  0  0  0  0  0
   -2.2900    0.1030    0.4760 C   0  0  0  0  0  0  0  0  0  0  0  0
   -3.6160   -0.1420   -0.1820 C   0  0  1  0  0  0  0  0  0  0  0  0
   -3.5000   -1.2900   -1.1460 C   0  0  0  0  0  0  0  0  0  0  0  0
   -3.1110   -2.5870   -0.6990 N   0  0  0  0  0  0  0  0  0  0  0  0
   -3.7470   -1.1220   -2.3660 O   0  0  0  0  0  0  0  0  0  0  0  0
   -4.6640   -0.5350    0.8360 C   0  0  0  0  0  0  0  0  0  0  0  0
   -5.3490    0.6060    1.4830 C   0  0  0  0  0  0  0  0  0  0  0  0
   -4.9150    1.9030    1.1290 N   0  0  0  0  0  0  0  0  0  0  0  0
   -4.6270    2.1100   -0.1920 N   0  0  0  0  0  0  0  0  0  0  0  0
   -4.0390    1.0400   -0.9340 C   0  0  0  0  0  0  0  0  0  0  0  0
   -3.8930    1.1140   -2.1720 O   0  0  0  0  0  0  0  0  0  0  0  0
    3.2280    0.0060   -0.3960 N   0  0  0  0  0  0  0  0  0  0  0  0
  1  2  1  0
  2  3  1  0
  3  4  2  0
  3 26  1  0
  4  5  1  0
  4  8  1  0
  5  6  1  0
  5  7  2  0
  8  9  1  0
  9 10  1  0
 10 11  1  0
 10 26  2  0
 11 12  1  0
 12 13  2  0
 12 14  1  0
 14 15  1  0
 16 15  1  1
 16 17  1  0
 16 20  1  0
 16 24  1  0
 17 18  1  0
 17 19  2  0
 20 21  1  0
 21 22  1  0
 22 23  1  0
 23 24  1  0
 24 25  2  0
M  END
