
     RDKit          3D

 19 20  0  0  0  0  0  0  0  0999 V2000
    3.0900   -2.3090   -0.1330 C   0  0  0  0  0  0  0  0  0  0  0  0
    3.1840   -1.0010   -0.1740 C   0  0  0  0  0  0  0  0  0  0  0  0
    4.3550   -0.2840    0.3950 C   0  0  0  0  0  0  0  0  0  0  0  0
    4.1480    1.0020    0.1950 C   0  0  0  0  0  0  0  0  0  0  0  0
    5.1270    2.0520    0.6390 C   0  0  0  0  0  0  0  0  0  0  0  0
    2.8900    1.1870   -0.4840 C   0  0  0  0  0  0  0  0  0  0  0  0
    2.2960   -0.0060   -0.7140 C   0  0  0  0  0  0  0  0  0  0  0  0
    1.0590   -0.1350   -1.3660 N   0  0  0  0  0  0  0  0  0  0  0  0
    0.2160   -1.2780   -1.4660 C   0  0  0  0  0  0  0  0  0  0  0  0
   -0.4140   -1.7230   -0.1760 C   0  0  0  0  0  0  0  0  0  0  0  0
   -1.2930   -0.6520    0.4540 C   0  0  0  0  0  0  0  0  0  0  0  0
   -2.4120   -0.2510   -0.4700 C   0  0  0  0  0  0  0  0  0  0  0  0
   -3.2490    0.8010    0.2280 C   0  0  2  0  0  0  0  0  0  0  0  0
   -3.8130    0.2930    1.4500 N   0  0  0  0  0  0  0  0  0  0  0  0
   -5.1460    0.7740    1.5360 C   0  0  0  0  0  0  0  0  0  0  0  0
   -5.8460    0.6950    2.6030 O   0  0  0  0  0  0  0  0  0  0  0  0
   -5.5400    1.3270    0.2910 N   0  0  0  0  0  0  0  0  0  0  0  0
   -4.4280    1.1830   -0.5770 C   0  0  0  0  0  0  0  0  0  0  0  0
   -4.5020    1.3670   -1.8280 O   0  0  0  0  0  0  0  0  0  0  0  0
  1  2  2  0
  2  3  1  0
  2  7  1  0
  3  4  2  0
  4  5  1  0
  4  6  1  0
  6  7  2  0
  7  8  1  0
  8  9  1  0
  9 10  1  0
 10 11  1  0
 11 12  1  0
 13 12  1  6
 13 14  1  0
 13 18  1  0
 14 15  1  0
 15 16  2  0
 15 17  1  0
 17 18  1  0
 18 19  2  0
M  END
