
     RDKit          3D

 19 20  0  0  0  0  0  0  0  0999 V2000
   -0.0280    0.3270    0.2190 O   0  0  0  0  0  0  0  0  0  0  0  0
   -0.0950    0.0090    1.4240 C   0  0  0  0  0  0  0  0  0  0  0  0
    1.1720   -0.1150    2.1860 C   0  0  0  0  0  0  0  0  0  0  0  0
    2.3330    0.1600    1.3980 N   0  0  0  0  0  0  0  0  0  0  0  0
    2.6680   -0.5950    0.2320 C   0  0  0  0  0  0  0  0  0  0  0  0
    1.8830   -1.5270   -0.0730 O   0  0  0  0  0  0  0  0  0  0  0  0
    3.8770   -0.2830   -0.5600 C   0  0  0  0  0  0  0  0  0  0  0  0
    4.1950   -0.9760   -1.6400 C   0  0  0  0  0  0  0  0  0  0  0  0
    5.4340   -0.4300   -2.1960 C   0  0  0  0  0  0  0  0  0  0  0  0
    5.7760    0.6750   -1.2770 C   0  0  0  0  0  0  0  0  0  0  0  0
    4.8560    0.7440   -0.3290 C   0  0  0  0  0  0  0  0  0  0  0  0
   -1.3710   -0.2150    1.9910 N   0  0  0  0  0  0  0  0  0  0  0  0
   -2.6180   -0.1240    1.3570 C   0  0  0  0  0  0  0  0  0  0  0  0
   -2.8500    0.1860    0.1170 C   0  0  0  0  0  0  0  0  0  0  0  0
   -4.2400    0.2360   -0.3920 C   0  0  0  0  0  0  0  0  0  0  0  0
   -4.6620    0.5440   -1.6640 C   0  0  0  0  0  0  0  0  0  0  0  0
   -6.0380    0.4700   -1.6960 C   0  0  0  0  0  0  0  0  0  0  0  0
   -6.4590    0.1240   -0.4660 N   0  0  0  0  0  0  0  0  0  0  0  0
   -5.3940   -0.0190    0.3250 C   0  0  0  0  0  0  0  0  0  0  0  0
  1  2  2  0
  2  3  1  0
  2 12  1  0
  3  4  1  0
  4  5  1  0
  5  6  2  0
  5  7  1  0
  7  8  2  0
  7 11  1  0
  8  9  1  0
  9 10  1  0
 10 11  2  0
 12 13  1  0
 13 14  2  3
 14 15  1  0
 15 16  1  0
 15 19  2  0
 16 17  2  0
 17 18  1  0
 18 19  1  0
M  END
