
     RDKit          3D

 19 20  0  0  0  0  0  0  0  0999 V2000
    5.5740    0.3760    0.8810 C   0  0  0  0  0  0  0  0  0  0  0  0
    5.3380   -0.0870   -0.5190 C   0  0  0  0  0  0  0  0  0  0  0  0
    3.9960   -0.7230   -0.7220 C   0  0  0  0  0  0  0  0  0  0  0  0
    2.8500    0.1850   -0.4160 C   0  0  0  0  0  0  0  0  0  0  0  0
    1.6200   -0.5710   -0.6600 N   0  0  0  0  0  0  0  0  0  0  0  0
    0.3410    0.0310   -0.4550 C   0  0  0  0  0  0  0  0  0  0  0  0
    0.2260    1.2140   -0.0640 O   0  0  0  0  0  0  0  0  0  0  0  0
   -0.8560   -0.7020   -0.6920 N   0  0  0  0  0  0  0  0  0  0  0  0
   -2.1550   -0.1480   -0.5020 C   0  0  0  0  0  0  0  0  0  0  0  0
   -2.7580    0.4870   -1.5640 C   0  0  0  0  0  0  0  0  0  0  0  0
   -2.1020    0.6140   -2.8970 C   0  0  0  0  0  0  0  0  0  0  0  0
   -3.9860    0.9960   -1.3390 N   0  0  0  0  0  0  0  0  0  0  0  0
   -4.6200    0.9090   -0.1580 C   0  0  0  0  0  0  0  0  0  0  0  0
   -5.7770    1.4210   -0.0440 O   0  0  0  0  0  0  0  0  0  0  0  0
   -4.0150    0.2720    0.9080 C   0  0  0  0  0  0  0  0  0  0  0  0
   -2.7620   -0.2710    0.7500 C   0  0  0  0  0  0  0  0  0  0  0  0
   -2.3350   -0.8430    1.8760 C   0  0  0  0  0  0  0  0  0  0  0  0
   -3.3910   -0.6810    2.9070 C   0  0  0  0  0  0  0  0  0  0  0  0
   -4.4410    0.0600    2.1670 C   0  0  0  0  0  0  0  0  0  0  0  0
  1  2  1  0
  2  3  1  0
  3  4  1  0
  4  5  1  0
  5  6  1  0
  6  7  2  0
  6  8  1  0
  8  9  1  0
  9 10  2  0
  9 16  1  0
 10 11  1  0
 10 12  1  0
 12 13  1  0
 13 14  2  0
 13 15  1  0
 15 16  1  0
 15 19  2  0
 16 17  2  0
 17 18  1  0
 18 19  1  0
M  END
