
     RDKit          3D

 19 21  0  0  0  0  0  0  0  0999 V2000
    7.3650   -0.4510   -0.2010 Cl  0  0  0  0  0  0  0  0  0  0  0  0
    5.6360   -0.1920   -0.2610 C   0  0  0  0  0  0  0  0  0  0  0  0
    4.7360   -1.2350   -0.1890 C   0  0  0  0  0  0  0  0  0  0  0  0
    3.3780   -1.0550   -0.2340 C   0  0  0  0  0  0  0  0  0  0  0  0
    2.8550    0.2080   -0.3570 C   0  0  0  0  0  0  0  0  0  0  0  0
    1.3710    0.4170   -0.4050 C   0  0  0  0  0  0  0  0  0  0  0  0
    0.7660   -0.4880    0.5380 N   0  0  0  0  0  0  0  0  0  0  0  0
   -0.6620   -0.5360    0.7210 C   0  0  0  0  0  0  0  0  0  0  0  0
   -1.2690   -1.3580    1.5840 N   0  0  0  0  0  0  0  0  0  0  0  0
   -2.5950   -1.1490    1.5050 N   0  0  0  0  0  0  0  0  0  0  0  0
   -2.8370   -0.1930    0.5910 C   0  0  0  0  0  0  0  0  0  0  0  0
   -4.1350    0.3370    0.1950 C   0  0  0  0  0  0  0  0  0  0  0  0
   -5.3550   -0.0660    0.7050 C   0  0  0  0  0  0  0  0  0  0  0  0
   -6.3340    0.6680    0.0790 C   0  0  0  0  0  0  0  0  0  0  0  0
   -5.6810    1.5000   -0.7990 C   0  0  0  0  0  0  0  0  0  0  0  0
   -4.3840    1.2660   -0.6920 O   0  0  0  0  0  0  0  0  0  0  0  0
   -1.6200    0.1600    0.1300 N   0  0  0  0  0  0  0  0  0  0  0  0
    3.7190    1.2740   -0.4310 C   0  0  0  0  0  0  0  0  0  0  0  0
    5.0770    1.0670   -0.3840 C   0  0  0  0  0  0  0  0  0  0  0  0
  1  2  1  0
  2  3  2  0
  2 19  1  0
  3  4  1  0
  4  5  2  0
  5  6  1  0
  5 18  1  0
  6  7  1  0
  7  8  1  0
  8  9  2  0
  8 17  1  0
  9 10  1  0
 10 11  2  0
 11 12  1  0
 11 17  1  0
 12 13  2  0
 12 16  1  0
 13 14  1  0
 14 15  2  0
 15 16  1  0
 18 19  2  0
M  END
