
     RDKit          3D

 19 20  0  0  0  0  0  0  0  0999 V2000
   -2.5810    0.2430   -2.7210 C   0  0  0  0  0  0  0  0  0  0  0  0
   -1.9420    0.1690   -1.3600 C   0  0  2  0  0  0  0  0  0  0  0  0
   -0.8580   -0.7580   -1.2900 N   0  0  0  0  0  0  0  0  0  0  0  0
    0.4890   -0.4070   -0.9450 C   0  0  0  0  0  0  0  0  0  0  0  0
    0.6740    0.8190   -0.6940 O   0  0  0  0  0  0  0  0  0  0  0  0
    1.5240   -1.3790   -0.8930 N   0  0  0  0  0  0  0  0  0  0  0  0
    2.8530   -1.0000   -0.5460 C   0  0  0  0  0  0  0  0  0  0  0  0
    2.9350   -0.3820    0.8470 C   0  0  0  0  0  0  0  0  0  0  0  0
    4.3520   -0.0080    1.1500 C   0  0  0  0  0  0  0  0  0  0  0  0
    5.3730   -0.1870    0.3330 C   0  0  0  0  0  0  0  0  0  0  0  0
    6.6190    0.3030    0.9700 C   0  0  0  0  0  0  0  0  0  0  0  0
    6.1660    0.7930    2.2810 C   0  0  0  0  0  0  0  0  0  0  0  0
    4.8630    0.6030    2.3580 C   0  0  0  0  0  0  0  0  0  0  0  0
   -2.9840   -0.2330   -0.3830 C   0  0  0  0  0  0  0  0  0  0  0  0
   -2.8280   -1.2370    0.3270 O   0  0  0  0  0  0  0  0  0  0  0  0
   -4.1710    0.5330   -0.2540 N   0  0  0  0  0  0  0  0  0  0  0  0
   -5.1690    0.1160    0.7070 C   0  0  2  0  0  0  0  0  0  0  0  0
   -6.5920    0.2880    0.2310 C   0  0  0  0  0  0  0  0  0  0  0  0
   -6.0780    1.1260    1.3150 C   0  0  0  0  0  0  0  0  0  0  0  0
  2  1  1  6
  2  3  1  0
  2 14  1  0
  3  4  1  0
  4  5  2  0
  4  6  1  0
  6  7  1  0
  7  8  1  0
  8  9  1  0
  9 10  2  0
  9 13  1  0
 10 11  1  0
 11 12  1  0
 12 13  2  0
 14 15  2  0
 14 16  1  0
 17 16  1  6
 17 18  1  0
 17 19  1  0
 18 19  1  0
M  END
