
     RDKit          3D

 28 30  0  0  0  0  0  0  0  0999 V2000
    7.7010    2.1140    0.4190 C   0  0  0  0  0  0  0  0  0  0  0  0
    8.1260    0.9950   -0.2290 O   0  0  0  0  0  0  0  0  0  0  0  0
    7.2680    0.3890   -1.0780 C   0  0  0  0  0  0  0  0  0  0  0  0
    6.0050   -0.1380   -0.5160 C   0  0  0  0  0  0  0  0  0  0  0  0
    4.9370    0.5800   -0.0140 C   0  0  0  0  0  0  0  0  0  0  0  0
    4.0240   -0.3670    0.3740 C   0  0  0  0  0  0  0  0  0  0  0  0
    2.6870   -0.0980    0.8970 C   0  0  0  0  0  0  0  0  0  0  0  0
    2.3770   -0.1560    2.0960 O   0  0  0  0  0  0  0  0  0  0  0  0
    1.6560    0.2580   -0.0320 N   0  0  0  0  0  0  0  0  0  0  0  0
    0.3380    0.5150    0.2720 N   0  0  0  0  0  0  0  0  0  0  0  0
   -0.5000   -0.6170    0.4370 C   0  0  0  0  0  0  0  0  0  0  0  0
    0.0080   -1.7780    0.3290 O   0  0  0  0  0  0  0  0  0  0  0  0
   -1.9030   -0.4460    0.7120 C   0  0  0  0  0  0  0  0  0  0  0  0
   -2.8650   -0.1100   -0.2490 C   0  0  0  0  0  0  0  0  0  0  0  0
   -4.0520   -0.0800    0.4390 C   0  0  0  0  0  0  0  0  0  0  0  0
   -5.3300    0.2040   -0.2290 C   0  0  0  0  0  0  0  0  0  0  0  0
   -5.3880    0.5060   -1.5790 C   0  0  0  0  0  0  0  0  0  0  0  0
   -6.5560    0.7570   -2.2620 C   0  0  0  0  0  0  0  0  0  0  0  0
   -7.7530    0.7050   -1.5770 C   0  0  0  0  0  0  0  0  0  0  0  0
   -8.9320    0.9430   -2.2160 F   0  0  0  0  0  0  0  0  0  0  0  0
   -7.7170    0.4020   -0.2230 C   0  0  0  0  0  0  0  0  0  0  0  0
   -6.5270    0.1550    0.4440 C   0  0  0  0  0  0  0  0  0  0  0  0
   -6.5660   -0.1560    1.8940 C   0  0  0  0  0  0  0  0  0  0  0  0
   -3.7870   -0.3770    1.7060 N   0  0  0  0  0  0  0  0  0  0  0  0
   -2.4980   -0.6000    1.8950 N   0  0  0  0  0  0  0  0  0  0  0  0
    4.5310   -1.6170    0.1100 C   0  0  0  0  0  0  0  0  0  0  0  0
    3.8470   -2.9300    0.3850 C   0  0  0  0  0  0  0  0  0  0  0  0
    5.7160   -1.4360   -0.4210 O   0  0  0  0  0  0  0  0  0  0  0  0
  1  2  1  0
  2  3  1  0
  3  4  1  0
  4  5  2  0
  4 28  1  0
  5  6  1  0
  6  7  1  0
  6 26  2  0
  7  8  2  0
  7  9  1  0
  9 10  1  0
 10 11  1  0
 11 12  2  0
 11 13  1  0
 13 14  2  0
 13 25  1  0
 14 15  1  0
 15 16  1  0
 15 24  2  0
 16 17  2  0
 16 22  1  0
 17 18  1  0
 18 19  2  0
 19 20  1  0
 19 21  1  0
 21 22  2  0
 22 23  1  0
 24 25  1  0
 26 27  1  0
 26 28  1  0
M  END
