
     RDKit          3D

 29 31  0  0  0  0  0  0  0  0999 V2000
    9.0030    1.3330    1.3740 C   0  0  0  0  0  0  0  0  0  0  0  0
    7.5620    1.2570    1.5920 N   0  0  0  0  0  0  0  0  0  0  0  0
    6.7290    0.4820    0.7260 C   0  0  0  0  0  0  0  0  0  0  0  0
    7.3000   -0.1130   -0.2020 O   0  0  0  0  0  0  0  0  0  0  0  0
    5.3440    0.3800    0.8910 N   0  0  0  0  0  0  0  0  0  0  0  0
    4.4300   -0.3590    0.1160 C   0  0  0  0  0  0  0  0  0  0  0  0
    4.8500   -1.3580   -0.7130 C   0  0  0  0  0  0  0  0  0  0  0  0
    3.9180   -2.0500   -1.4810 C   0  0  0  0  0  0  0  0  0  0  0  0
    2.5850   -1.7250   -1.4010 C   0  0  0  0  0  0  0  0  0  0  0  0
    1.5170   -2.2810   -2.0690 C   0  0  0  0  0  0  0  0  0  0  0  0
    0.4030   -1.5780   -1.6140 C   0  0  0  0  0  0  0  0  0  0  0  0
    0.7620   -0.6430   -0.7180 N   0  0  0  0  0  0  0  0  0  0  0  0
   -0.0630    0.2710   -0.0060 C   0  0  0  0  0  0  0  0  0  0  0  0
    0.4980    1.1090    0.7940 O   0  0  0  0  0  0  0  0  0  0  0  0
   -1.5020    0.3480   -0.1040 C   0  0  0  0  0  0  0  0  0  0  0  0
   -2.1570    1.5310   -0.3570 C   0  0  0  0  0  0  0  0  0  0  0  0
   -3.5370    1.6030   -0.4190 C   0  0  0  0  0  0  0  0  0  0  0  0
   -4.2860    0.4720   -0.2250 C   0  0  0  0  0  0  0  0  0  0  0  0
   -5.7480    0.4510   -0.2780 C   0  0  0  0  0  0  0  0  0  0  0  0
   -6.4660    1.5180   -0.5330 C   0  0  0  0  0  0  0  0  0  0  0  0
   -7.9490    1.3880   -0.5640 C   0  0  0  0  0  0  0  0  0  0  0  0
   -8.5010    2.2100    0.3880 F   0  0  0  0  0  0  0  0  0  0  0  0
   -6.4110   -0.7630   -0.0460 O   0  0  0  0  0  0  0  0  0  0  0  0
   -6.7650   -1.2280    1.2290 C   0  0  0  0  0  0  0  0  0  0  0  0
   -3.6420   -0.6920    0.0250 N   0  0  0  0  0  0  0  0  0  0  0  0
   -2.2930   -0.7560    0.0850 C   0  0  0  0  0  0  0  0  0  0  0  0
   -1.8260   -1.9170    0.3330 O   0  0  0  0  0  0  0  0  0  0  0  0
    2.1180   -0.7250   -0.5770 C   0  0  0  0  0  0  0  0  0  0  0  0
    3.0550   -0.0530    0.1730 C   0  0  0  0  0  0  0  0  0  0  0  0
  1  2  1  0
  2  3  1  0
  3  4  2  0
  3  5  1  0
  5  6  1  0
  6  7  2  0
  6 29  1  0
  7  8  1  0
  8  9  2  0
  9 10  1  0
  9 28  1  0
 10 11  2  0
 11 12  1  0
 12 13  1  0
 12 28  1  0
 13 14  2  0
 13 15  1  0
 15 16  2  0
 15 26  1  0
 16 17  1  0
 17 18  2  0
 18 19  1  0
 18 25  1  0
 19 20  2  3
 19 23  1  0
 20 21  1  0
 21 22  1  0
 23 24  1  0
 25 26  1  0
 26 27  2  0
 28 29  2  0
M  END
