
     RDKit          3D

 31 34  0  0  0  0  0  0  0  0999 V2000
   -4.2190   -3.3050   -2.1130 C   0  0  0  0  0  0  0  0  0  0  0  0
   -3.7050   -2.0580   -1.5010 C   0  0  0  0  0  0  0  0  0  0  0  0
   -2.6450   -2.0710   -0.7650 C   0  0  0  0  0  0  0  0  0  0  0  0
   -1.9340   -3.3810   -0.5370 C   0  0  0  0  0  0  0  0  0  0  0  0
   -1.9280   -3.6470    0.8980 N   0  0  0  0  0  0  0  0  0  0  0  0
   -2.0680   -0.8890   -0.1230 C   0  0  0  0  0  0  0  0  0  0  0  0
   -2.6080    0.3810   -0.2400 C   0  0  0  0  0  0  0  0  0  0  0  0
   -2.0260    1.4630    0.3860 C   0  0  0  0  0  0  0  0  0  0  0  0
   -2.5580    2.8040    0.2890 C   0  0  0  0  0  0  0  0  0  0  0  0
   -1.9210    3.8320    0.9420 C   0  0  0  0  0  0  0  0  0  0  0  0
   -2.3790    5.1390    0.8900 C   0  0  0  0  0  0  0  0  0  0  0  0
   -3.4970    5.4280    0.1700 C   0  0  0  0  0  0  0  0  0  0  0  0
   -4.1690    4.4210   -0.5030 C   0  0  0  0  0  0  0  0  0  0  0  0
   -3.6850    3.1080   -0.4340 C   0  0  0  0  0  0  0  0  0  0  0  0
   -0.9060    1.2460    1.1220 N   0  0  0  0  0  0  0  0  0  0  0  0
   -0.3540    0.0280    1.2580 C   0  0  0  0  0  0  0  0  0  0  0  0
    0.8830   -0.1700    2.0790 C   0  0  0  0  0  0  0  0  0  0  0  0
    2.0810   -0.0240    1.3110 N   0  0  0  0  0  0  0  0  0  0  0  0
    2.6540    1.1800    1.2000 C   0  0  0  0  0  0  0  0  0  0  0  0
    2.1680    2.2080    1.7590 O   0  0  0  0  0  0  0  0  0  0  0  0
    3.7850    1.3800    0.4890 N   0  0  0  0  0  0  0  0  0  0  0  0
    4.3620    0.3340   -0.1350 C   0  0  0  0  0  0  0  0  0  0  0  0
    3.8170   -0.9250   -0.0550 C   0  0  0  0  0  0  0  0  0  0  0  0
    2.6490   -1.0660    0.6940 C   0  0  0  0  0  0  0  0  0  0  0  0
    2.1620   -2.2340    0.7550 O   0  0  0  0  0  0  0  0  0  0  0  0
    4.4520   -2.0960   -0.7400 C   0  0  1  0  0  0  0  0  0  0  0  0
    4.0680   -2.1560   -2.4580 Cl  0  0  0  0  0  0  0  0  0  0  0  0
    6.2810   -1.9600   -0.5890 S   0  0  0  0  0  0  0  0  0  0  0  0
    6.7170   -0.2190   -0.2440 C   0  0  0  0  0  0  0  0  0  0  0  0
    5.6010    0.5970   -0.9100 C   0  0  0  0  0  0  0  0  0  0  0  0
   -0.9620   -0.9880    0.6280 N   0  0  0  0  0  0  0  0  0  0  0  0
  1  2  1  0
  2  3  2  3
  3  4  1  0
  3  6  1  0
  4  5  1  0
  6  7  2  0
  6 31  1  0
  7  8  1  0
  8  9  1  0
  8 15  2  0
  9 10  2  0
  9 14  1  0
 10 11  1  0
 11 12  2  0
 12 13  1  0
 13 14  2  0
 15 16  1  0
 16 17  1  0
 16 31  2  0
 17 18  1  0
 18 19  1  0
 18 24  1  0
 19 20  2  0
 19 21  1  0
 21 22  1  0
 22 23  2  0
 22 30  1  0
 23 24  1  0
 23 26  1  0
 24 25  2  0
 26 27  1  6
 26 28  1  0
 28 29  1  0
 29 30  1  0
M  CHG  1   5   1
M  END
