
     RDKit          3D

 29 31  0  0  0  0  0  0  0  0999 V2000
   -7.5000    2.8800    0.2960 C   0  0  0  0  0  0  0  0  0  0  0  0
   -6.1530    2.2770    0.0610 C   0  0  0  0  0  0  0  0  0  0  0  0
   -6.0890    0.8760    0.3850 N   0  0  0  0  0  0  0  0  0  0  0  0
   -4.8800    0.1750    0.2130 C   0  0  0  0  0  0  0  0  0  0  0  0
   -4.8060   -1.0960   -0.1250 C   0  0  0  0  0  0  0  0  0  0  0  0
   -5.9020   -2.0250   -0.3850 C   0  0  0  0  0  0  0  0  0  0  0  0
   -7.1150   -1.6980   -0.3130 O   0  0  0  0  0  0  0  0  0  0  0  0
   -5.3230   -3.2400   -0.7020 O   0  0  0  0  0  0  0  0  0  0  0  0
   -3.9370   -3.1550   -0.6630 C   0  0  0  0  0  0  0  0  0  0  0  0
   -2.9270   -4.0600   -0.8930 C   0  0  0  0  0  0  0  0  0  0  0  0
   -1.6000   -3.6890   -0.7780 C   0  0  0  0  0  0  0  0  0  0  0  0
   -1.2100   -2.4010   -0.4300 C   0  0  0  0  0  0  0  0  0  0  0  0
    0.1720   -2.1090   -0.3340 N   0  0  0  0  0  0  0  0  0  0  0  0
    0.7470   -0.8640   -0.0380 C   0  0  0  0  0  0  0  0  0  0  0  0
    0.0440    0.1450    0.1750 O   0  0  0  0  0  0  0  0  0  0  0  0
    2.2280   -0.7620    0.0180 C   0  0  0  0  0  0  0  0  0  0  0  0
    2.9420   -1.7620   -0.1930 O   0  0  0  0  0  0  0  0  0  0  0  0
    2.8610    0.4570    0.3090 N   0  0  0  0  0  0  0  0  0  0  0  0
    4.2450    0.7260    0.4010 C   0  0  0  0  0  0  0  0  0  0  0  0
    5.2230   -0.2090    0.2110 C   0  0  0  0  0  0  0  0  0  0  0  0
    6.5490    0.1840    0.3290 C   0  0  0  0  0  0  0  0  0  0  0  0
    7.6270   -0.8090    0.1280 C   0  0  0  0  0  0  0  0  0  0  0  0
    6.8950    1.4800    0.6310 C   0  0  0  0  0  0  0  0  0  0  0  0
    5.8790    2.4220    0.8210 C   0  0  0  0  0  0  0  0  0  0  0  0
    6.2180    3.8360    1.1490 C   0  0  0  0  0  0  0  0  0  0  0  0
    6.2780    3.9140    2.5410 F   0  0  0  0  0  0  0  0  0  0  0  0
    4.6220    2.0080    0.7000 N   0  0  0  0  0  0  0  0  0  0  0  0
   -2.2340   -1.5200   -0.2070 C   0  0  0  0  0  0  0  0  0  0  0  0
   -3.5860   -1.8690   -0.3160 C   0  0  0  0  0  0  0  0  0  0  0  0
  1  2  1  0
  2  3  1  0
  3  4  1  0
  4  5  2  3
  5  6  1  0
  5 29  1  0
  6  7  2  0
  6  8  1  0
  8  9  1  0
  9 10  2  0
  9 29  1  0
 10 11  1  0
 11 12  2  0
 12 13  1  0
 12 28  1  0
 13 14  1  0
 14 15  2  0
 14 16  1  0
 16 17  2  0
 16 18  1  0
 18 19  1  0
 19 20  2  0
 19 27  1  0
 20 21  1  0
 21 22  1  0
 21 23  2  0
 23 24  1  0
 24 25  1  0
 24 27  2  0
 25 26  1  0
 28 29  2  0
M  END
