
     RDKit          3D

 30 33  0  0  0  0  0  0  0  0999 V2000
    0.9330    1.8350   -2.5970 C   0  0  0  0  0  0  0  0  0  0  0  0
    1.4620    2.4200   -1.3400 C   0  0  1  0  0  0  0  0  0  0  0  0
    0.4880    2.8340   -0.3640 O   0  0  0  0  0  0  0  0  0  0  0  0
   -0.6360    2.0290   -0.0250 C   0  0  0  0  0  0  0  0  0  0  0  0
   -0.5340    0.8210    0.6120 C   0  0  0  0  0  0  0  0  0  0  0  0
   -1.6760    0.1140    0.8290 C   0  0  0  0  0  0  0  0  0  0  0  0
   -2.8980    0.6820    0.4010 C   0  0  0  0  0  0  0  0  0  0  0  0
   -3.0120    1.8700   -0.2060 N   0  0  0  0  0  0  0  0  0  0  0  0
   -1.8620    2.5540   -0.4230 C   0  0  0  0  0  0  0  0  0  0  0  0
   -2.0530    3.8270   -1.0290 N   0  0  0  0  0  0  0  0  0  0  0  0
   -1.8530   -1.3030    1.2830 C   0  0  0  0  0  0  0  0  0  0  0  0
   -0.8550   -2.2700    1.1390 C   0  0  0  0  0  0  0  0  0  0  0  0
   -1.3990   -3.4210    1.5760 N   0  0  0  0  0  0  0  0  0  0  0  0
   -2.6240   -3.2360    1.9770 N   0  0  0  0  0  0  0  0  0  0  0  0
   -3.4940   -4.2900    2.5030 C   0  0  0  0  0  0  0  0  0  0  0  0
   -2.9480   -1.9460    1.8140 C   0  0  0  0  0  0  0  0  0  0  0  0
   -4.2410   -1.4080    2.1620 C   0  0  0  0  0  0  0  0  0  0  0  0
   -5.3250   -0.9580    2.4730 N   0  0  0  0  0  0  0  0  0  0  0  0
    0.5270   -2.0570    0.7030 C   0  0  0  0  0  0  0  0  0  0  0  0
    0.7280   -1.5010   -0.5970 N   0  0  0  0  0  0  0  0  0  0  0  0
   -0.3400   -1.6610   -1.5860 C   0  0  0  0  0  0  0  0  0  0  0  0
    1.9320   -0.8540   -1.0580 C   0  0  0  0  0  0  0  0  0  0  0  0
    2.4140   -1.5140   -2.1190 O   0  0  0  0  0  0  0  0  0  0  0  0
    2.7160    0.2910   -0.6580 C   0  0  0  0  0  0  0  0  0  0  0  0
    3.9650   -0.1260   -0.0930 C   0  0  0  0  0  0  0  0  0  0  0  0
    4.9030    0.7270    0.4040 C   0  0  0  0  0  0  0  0  0  0  0  0
    4.6850    2.0670    0.3810 C   0  0  0  0  0  0  0  0  0  0  0  0
    5.5780    2.9770    0.8710 F   0  0  0  0  0  0  0  0  0  0  0  0
    3.5330    2.5100   -0.1420 C   0  0  0  0  0  0  0  0  0  0  0  0
    2.5320    1.6400   -0.6740 C   0  0  0  0  0  0  0  0  0  0  0  0
  2  1  1  6
  2  3  1  0
  2 30  1  0
  3  4  1  0
  4  5  1  0
  4  9  2  0
  5  6  2  0
  6  7  1  0
  6 11  1  0
  7  8  2  0
  8  9  1  0
  9 10  1  0
 11 12  1  0
 11 16  2  0
 12 13  2  0
 12 19  1  0
 13 14  1  0
 14 15  1  0
 14 16  1  0
 16 17  1  0
 17 18  3  0
 19 20  1  0
 20 21  1  0
 20 22  1  0
 22 23  2  0
 22 24  1  0
 24 25  2  0
 24 30  1  0
 25 26  1  0
 26 27  2  0
 27 28  1  0
 27 29  1  0
 29 30  2  0
M  END
