
     RDKit          3D

 29 31  0  0  0  0  0  0  0  0999 V2000
    1.5860    3.6250    0.7430 C   0  0  0  0  0  0  0  0  0  0  0  0
    0.3670    3.8350    0.3470 C   0  0  0  0  0  0  0  0  0  0  0  0
   -0.6100    2.8630    0.0300 C   0  0  0  0  0  0  0  0  0  0  0  0
   -1.8110    3.2930   -0.3570 C   0  0  0  0  0  0  0  0  0  0  0  0
   -2.0740    4.7430   -0.4410 C   0  0  0  0  0  0  0  0  0  0  0  0
   -0.3910    1.4110    0.1020 C   0  0  0  0  0  0  0  0  0  0  0  0
    0.7750    0.8930    0.4550 N   0  0  0  0  0  0  0  0  0  0  0  0
    1.0260   -0.4380    0.5450 C   0  0  0  0  0  0  0  0  0  0  0  0
    2.3860   -0.7810    0.9270 C   0  0  0  0  0  0  0  0  0  0  0  0
    2.7480   -1.6560    1.8310 C   0  0  0  0  0  0  0  0  0  0  0  0
    4.1340   -2.0120    2.2130 C   0  0  0  0  0  0  0  0  0  0  0  0
    5.0810   -1.2890    1.4990 O   0  0  0  0  0  0  0  0  0  0  0  0
    4.7490   -0.3480    0.5270 C   0  0  0  0  0  0  0  0  0  0  0  0
    5.8250    0.3850   -0.2050 C   0  0  0  0  0  0  0  0  0  0  0  0
    3.5030   -0.0870    0.2360 C   0  0  0  0  0  0  0  0  0  0  0  0
    3.1560    0.8240   -0.7110 F   0  0  0  0  0  0  0  0  0  0  0  0
   -0.0080   -1.2600    0.2370 C   0  0  0  0  0  0  0  0  0  0  0  0
    0.1190   -2.6260    0.2040 C   0  0  0  0  0  0  0  0  0  0  0  0
    1.2240   -3.1760    0.5050 O   0  0  0  0  0  0  0  0  0  0  0  0
   -0.9040   -3.4280   -0.1550 N   0  0  0  0  0  0  0  0  0  0  0  0
   -2.0880   -2.9590   -0.5010 C   0  0  0  0  0  0  0  0  0  0  0  0
   -3.1480   -3.8230   -0.8710 N   0  0  0  0  0  0  0  0  0  0  0  0
   -2.3120   -1.5990   -0.5060 C   0  0  0  0  0  0  0  0  0  0  0  0
   -3.6190   -1.0530   -0.8880 C   0  0  0  0  0  0  0  0  0  0  0  0
   -3.7570    0.1850   -0.8720 O   0  0  0  0  0  0  0  0  0  0  0  0
   -4.6610   -1.8520   -1.2510 O   0  0  0  0  0  0  0  0  0  0  0  0
   -5.9440   -1.3920   -1.6290 C   0  0  0  0  0  0  0  0  0  0  0  0
   -1.2690   -0.7710   -0.1410 C   0  0  0  0  0  0  0  0  0  0  0  0
   -1.4270    0.5660   -0.1980 N   0  0  0  0  0  0  0  0  0  0  0  0
  1  2  2  0
  2  3  1  0
  3  4  2  3
  3  6  1  0
  4  5  1  0
  6  7  2  0
  6 29  1  0
  7  8  1  0
  8  9  1  0
  8 17  2  0
  9 10  2  0
  9 15  1  0
 10 11  1  0
 11 12  1  0
 12 13  1  0
 13 14  1  0
 13 15  2  0
 15 16  1  0
 17 18  1  0
 17 28  1  0
 18 19  2  0
 18 20  1  0
 20 21  1  0
 21 22  1  0
 21 23  2  0
 23 24  1  0
 23 28  1  0
 24 25  2  0
 24 26  1  0
 26 27  1  0
 28 29  2  0
M  END
