
     RDKit          3D

 29 31  0  0  0  0  0  0  0  0999 V2000
   -2.0010    5.8930   -1.4770 C   0  0  0  0  0  0  0  0  0  0  0  0
   -1.4340    4.7820   -0.8090 O   0  0  0  0  0  0  0  0  0  0  0  0
   -2.0700    4.2690    0.3300 C   0  0  0  0  0  0  0  0  0  0  0  0
   -3.2210    4.6890    0.9470 C   0  0  0  0  0  0  0  0  0  0  0  0
   -3.4470    3.8720    2.0330 C   0  0  0  0  0  0  0  0  0  0  0  0
   -2.4670    3.0050    2.0550 O   0  0  0  0  0  0  0  0  0  0  0  0
   -1.6170    3.1740    1.0860 C   0  0  0  0  0  0  0  0  0  0  0  0
   -0.4370    2.4530    0.7800 C   0  0  0  0  0  0  0  0  0  0  0  0
   -0.2790    1.1240    0.6050 C   0  0  0  0  0  0  0  0  0  0  0  0
   -1.4190    0.3140    0.7280 C   0  0  0  0  0  0  0  0  0  0  0  0
   -2.5470    0.9500    0.9540 O   0  0  0  0  0  0  0  0  0  0  0  0
   -1.5820   -1.0960    0.6530 N   0  0  0  0  0  0  0  0  0  0  0  0
   -2.9590   -1.5990    0.8300 C   0  0  0  0  0  0  0  0  0  0  0  0
   -2.9930   -3.0570    0.7300 C   0  0  0  0  0  0  0  0  0  0  0  0
   -3.1660   -3.8670   -0.3930 C   0  0  0  0  0  0  0  0  0  0  0  0
   -3.1260   -5.1970    0.0110 C   0  0  0  0  0  0  0  0  0  0  0  0
   -2.9340   -5.1490    1.3450 N   0  0  0  0  0  0  0  0  0  0  0  0
   -2.8570   -3.9030    1.7630 N   0  0  0  0  0  0  0  0  0  0  0  0
    1.0860    0.7320    0.3050 C   0  0  0  0  0  0  0  0  0  0  0  0
    1.9690    1.7050    0.2620 O   0  0  0  0  0  0  0  0  0  0  0  0
    1.6430   -0.5080    0.0460 N   0  0  0  0  0  0  0  0  0  0  0  0
    3.0110   -0.8000   -0.2270 C   0  0  0  0  0  0  0  0  0  0  0  0
    3.3430   -1.9820   -0.9080 C   0  0  0  0  0  0  0  0  0  0  0  0
    4.6520   -2.2980   -1.1580 C   0  0  0  0  0  0  0  0  0  0  0  0
    4.9830   -3.5620   -1.8850 C   0  0  0  0  0  0  0  0  0  0  0  0
    5.6700   -1.4650   -0.7470 C   0  0  0  0  0  0  0  0  0  0  0  0
    5.3700   -0.3070   -0.0800 C   0  0  0  0  0  0  0  0  0  0  0  0
    6.3760    0.4890    0.3110 F   0  0  0  0  0  0  0  0  0  0  0  0
    4.0240    0.0130    0.1750 C   0  0  0  0  0  0  0  0  0  0  0  0
  1  2  1  0
  2  3  1  0
  3  4  1  0
  3  7  2  0
  4  5  2  0
  5  6  1  0
  6  7  1  0
  7  8  1  0
  8  9  2  3
  9 10  1  0
  9 19  1  0
 10 11  2  0
 10 12  1  0
 12 13  1  0
 13 14  1  0
 14 15  2  0
 14 18  1  0
 15 16  1  0
 16 17  2  0
 17 18  1  0
 19 20  2  0
 19 21  1  0
 21 22  1  0
 22 23  2  0
 22 29  1  0
 23 24  1  0
 24 25  1  0
 24 26  2  0
 26 27  1  0
 27 28  1  0
 27 29  2  0
M  END
