
     RDKit          3D

 29 31  0  0  0  0  0  0  0  0999 V2000
   -5.2310    3.2760    1.2770 C   0  0  0  0  0  0  0  0  0  0  0  0
   -4.3770    2.5130    2.2370 C   0  0  0  0  0  0  0  0  0  0  0  0
   -3.3460    1.7710    1.6270 O   0  0  0  0  0  0  0  0  0  0  0  0
   -3.5550    0.7520    0.7080 C   0  0  0  0  0  0  0  0  0  0  0  0
   -4.7990    0.3500    0.2950 C   0  0  0  0  0  0  0  0  0  0  0  0
   -4.9650   -0.6630   -0.6200 C   0  0  0  0  0  0  0  0  0  0  0  0
   -3.9000   -1.3350   -1.1740 C   0  0  0  0  0  0  0  0  0  0  0  0
   -4.0970   -2.2830   -2.1060 N   0  0  0  0  0  0  0  0  0  0  0  0
   -3.0450   -2.8870   -2.6710 C   0  0  0  0  0  0  0  0  0  0  0  0
   -3.2730   -3.7820   -3.5560 O   0  0  0  0  0  0  0  0  0  0  0  0
   -1.7670   -2.5560   -2.3140 C   0  0  0  0  0  0  0  0  0  0  0  0
   -1.5430   -1.5710   -1.3410 C   0  0  0  0  0  0  0  0  0  0  0  0
   -0.1540   -1.2260   -1.0060 C   0  0  0  0  0  0  0  0  0  0  0  0
    0.7400   -1.1950   -2.2200 C   0  0  0  0  0  0  0  0  0  0  0  0
    0.3140   -0.9470    0.1590 C   0  0  0  0  0  0  0  0  0  0  0  0
    1.6020   -0.5900    0.6470 C   0  0  0  0  0  0  0  0  0  0  0  0
    1.6730   -0.3690    1.9330 O   0  0  0  0  0  0  0  0  0  0  0  0
    2.8200   -0.4290   -0.0040 N   0  0  0  0  0  0  0  0  0  0  0  0
    3.9870   -0.0600    0.7130 C   0  0  0  0  0  0  0  0  0  0  0  0
    3.9640    0.1450    2.0210 N   0  0  0  0  0  0  0  0  0  0  0  0
    5.0750    0.5000    2.7230 C   0  0  0  0  0  0  0  0  0  0  0  0
    6.2820    0.6600    2.0840 C   0  0  0  0  0  0  0  0  0  0  0  0
    7.3800    1.0120    2.7910 F   0  0  0  0  0  0  0  0  0  0  0  0
    6.3050    0.4470    0.7300 C   0  0  0  0  0  0  0  0  0  0  0  0
    7.5860    0.6100    0.0130 C   0  0  0  0  0  0  0  0  0  0  0  0
    7.4440    0.3590   -1.3550 O   0  0  0  0  0  0  0  0  0  0  0  0
    5.1850    0.1010    0.0930 N   0  0  0  0  0  0  0  0  0  0  0  0
   -2.6090   -0.9430   -0.7630 C   0  0  0  0  0  0  0  0  0  0  0  0
   -2.4630    0.0730    0.1480 C   0  0  0  0  0  0  0  0  0  0  0  0
  1  2  1  0
  2  3  1  0
  3  4  1  0
  4  5  2  0
  4 29  1  0
  5  6  1  0
  6  7  2  0
  7  8  1  0
  7 28  1  0
  8  9  1  0
  9 10  2  0
  9 11  1  0
 11 12  2  0
 12 13  1  0
 12 28  1  0
 13 14  1  0
 13 15  2  3
 15 16  1  0
 16 17  2  0
 16 18  1  0
 18 19  1  0
 19 20  2  0
 19 27  1  0
 20 21  1  0
 21 22  2  0
 22 23  1  0
 22 24  1  0
 24 25  1  0
 24 27  2  0
 25 26  1  0
 28 29  2  0
M  END
