
     RDKit          3D

 29 31  0  0  0  0  0  0  0  0999 V2000
    8.8270   -1.1100   -1.7650 C   0  0  0  0  0  0  0  0  0  0  0  0
    7.3790   -1.0610   -1.8290 N   0  0  0  0  0  0  0  0  0  0  0  0
    6.6050   -0.4100   -0.8160 C   0  0  0  0  0  0  0  0  0  0  0  0
    7.2340    0.1100    0.1140 O   0  0  0  0  0  0  0  0  0  0  0  0
    5.1910   -0.3560   -0.8670 N   0  0  0  0  0  0  0  0  0  0  0  0
    4.3420    0.2610    0.0660 C   0  0  0  0  0  0  0  0  0  0  0  0
    4.7690    1.0690    1.0800 C   0  0  0  0  0  0  0  0  0  0  0  0
    3.8910    1.6510    1.9960 C   0  0  0  0  0  0  0  0  0  0  0  0
    2.5390    1.4090    1.8820 C   0  0  0  0  0  0  0  0  0  0  0  0
    1.4620    1.8180    2.5970 C   0  0  0  0  0  0  0  0  0  0  0  0
    0.3590    1.2460    2.0030 C   0  0  0  0  0  0  0  0  0  0  0  0
    0.6970    0.4950    0.9440 N   0  0  0  0  0  0  0  0  0  0  0  0
   -0.1270   -0.2360    0.0570 C   0  0  0  0  0  0  0  0  0  0  0  0
    0.3510   -0.9160   -0.8770 O   0  0  0  0  0  0  0  0  0  0  0  0
   -1.5750   -0.2390    0.1800 C   0  0  0  0  0  0  0  0  0  0  0  0
   -2.2650   -1.4230    0.2800 C   0  0  0  0  0  0  0  0  0  0  0  0
   -3.6570   -1.3750    0.3570 C   0  0  0  0  0  0  0  0  0  0  0  0
   -4.3670   -0.2170    0.3370 C   0  0  0  0  0  0  0  0  0  0  0  0
   -5.7970   -0.1500    0.3240 C   0  0  0  0  0  0  0  0  0  0  0  0
   -6.6660   -1.0260    0.0120 C   0  0  0  0  0  0  0  0  0  0  0  0
   -6.5280   -2.3890   -0.4530 C   0  0  0  0  0  0  0  0  0  0  0  0
   -7.0610   -3.2590    0.4920 F   0  0  0  0  0  0  0  0  0  0  0  0
   -6.3310    1.1460    0.7450 O   0  0  0  0  0  0  0  0  0  0  0  0
   -7.0030    1.8110   -0.3100 C   0  0  0  0  0  0  0  0  0  0  0  0
   -3.6520    0.9630    0.2370 N   0  0  0  0  0  0  0  0  0  0  0  0
   -2.3160    0.9220    0.1630 C   0  0  0  0  0  0  0  0  0  0  0  0
   -1.7470    2.0450    0.0690 O   0  0  0  0  0  0  0  0  0  0  0  0
    2.0630    0.6000    0.8740 C   0  0  0  0  0  0  0  0  0  0  0  0
    2.9670    0.0510   -0.0020 C   0  0  0  0  0  0  0  0  0  0  0  0
  1  2  1  0
  2  3  1  0
  3  4  2  0
  3  5  1  0
  5  6  1  0
  6  7  2  0
  6 29  1  0
  7  8  1  0
  8  9  2  0
  9 10  1  0
  9 28  1  0
 10 11  2  0
 11 12  1  0
 12 13  1  0
 12 28  1  0
 13 14  2  0
 13 15  1  0
 15 16  2  0
 15 26  1  0
 16 17  1  0
 17 18  2  0
 18 19  1  0
 18 25  1  0
 19 20  2  3
 19 23  1  0
 20 21  1  0
 21 22  1  0
 23 24  1  0
 25 26  1  0
 26 27  2  0
 28 29  2  0
M  END
