
     RDKit          3D

 31 34  0  0  0  0  0  0  0  0999 V2000
   -5.5690   -1.6230    1.8000 N   0  0  0  0  0  0  0  0  0  0  0  0
   -6.5030   -0.8790    0.9740 C   0  0  0  0  0  0  0  0  0  0  0  0
   -5.8640    0.3650    0.4120 C   0  0  0  0  0  0  0  0  0  0  0  0
   -4.7110    0.0870   -0.4150 N   0  0  2  0  0  0  0  0  0  0  0  0
   -5.0820   -0.8060   -1.4870 C   0  0  0  0  0  0  0  0  0  0  0  0
   -3.9200   -0.9660   -2.4220 C   0  0  0  0  0  0  0  0  0  0  0  0
   -2.4730    0.0160   -1.9960 S   0  0  0  0  0  0  0  0  0  0  0  0
   -2.3710    0.2680   -0.1860 C   0  0  2  0  0  0  0  0  0  0  0  0
   -1.1270   -0.3070    0.3070 C   0  0  0  0  0  0  0  0  0  0  0  0
   -1.1420   -1.4500    1.0660 C   0  0  0  0  0  0  0  0  0  0  0  0
    0.0050   -2.0310    1.5420 C   0  0  0  0  0  0  0  0  0  0  0  0
    1.2260   -1.4470    1.2510 C   0  0  0  0  0  0  0  0  0  0  0  0
    1.2930   -0.2950    0.4910 C   0  0  0  0  0  0  0  0  0  0  0  0
    2.5600    0.3070    0.2960 N   0  0  0  0  0  0  0  0  0  0  0  0
    3.8290   -0.3040    0.4450 C   0  0  0  0  0  0  0  0  0  0  0  0
    3.9020   -1.4890    0.7680 O   0  0  0  0  0  0  0  0  0  0  0  0
    4.9960    0.4530    0.2230 N   0  0  0  0  0  0  0  0  0  0  0  0
    6.3110   -0.0370    0.3430 C   0  0  0  0  0  0  0  0  0  0  0  0
    7.3750    0.7740   -0.0800 C   0  0  0  0  0  0  0  0  0  0  0  0
    8.6890    0.4080   -0.0020 C   0  0  0  0  0  0  0  0  0  0  0  0
    9.0450   -0.8150    0.5120 C   0  0  0  0  0  0  0  0  0  0  0  0
    8.0260   -1.6300    0.9350 C   0  0  0  0  0  0  0  0  0  0  0  0
    6.6790   -1.2570    0.8560 C   0  0  0  0  0  0  0  0  0  0  0  0
    0.1010    0.2800    0.0130 C   0  0  0  0  0  0  0  0  0  0  0  0
    0.1670    1.4800   -0.7940 C   0  0  0  0  0  0  0  0  0  0  0  0
    1.1970    2.1570   -1.2720 N   0  0  0  0  0  0  0  0  0  0  0  0
    0.7930    3.2220   -1.9820 C   0  0  0  0  0  0  0  0  0  0  0  0
    1.7500    4.4260   -2.8150 Cl  0  0  0  0  0  0  0  0  0  0  0  0
   -0.5860    3.1880   -1.9300 C   0  0  0  0  0  0  0  0  0  0  0  0
   -0.8930    2.1400   -1.2170 O   0  0  0  0  0  0  0  0  0  0  0  0
   -3.6030   -0.4760    0.3540 C   0  0  0  0  0  0  0  0  0  0  0  0
  1  2  1  0
  2  3  1  0
  4  3  1  1
  4  5  1  0
  4 31  1  0
  5  6  1  0
  6  7  1  0
  7  8  1  0
  8  9  1  1
  8 31  1  0
  9 10  2  0
  9 24  1  0
 10 11  1  0
 11 12  2  0
 12 13  1  0
 13 14  1  0
 13 24  2  0
 14 15  1  0
 15 16  2  0
 15 17  1  0
 17 18  1  0
 18 19  2  0
 18 23  1  0
 19 20  1  0
 20 21  2  0
 21 22  1  0
 22 23  2  0
 24 25  1  0
 25 26  2  0
 25 30  1  0
 26 27  1  0
 27 28  1  0
 27 29  2  0
 29 30  1  0
M  CHG  1   4   1
M  END
