
     RDKit          3D

 29 31  0  0  0  0  0  0  0  0999 V2000
   -3.6630    2.3490   -1.4280 C   0  0  0  0  0  0  0  0  0  0  0  0
   -2.7220    3.2350   -1.2790 C   0  0  0  0  0  0  0  0  0  0  0  0
   -1.3890    2.9490   -0.7960 C   0  0  0  0  0  0  0  0  0  0  0  0
   -0.5790    4.0090   -0.7510 C   0  0  0  0  0  0  0  0  0  0  0  0
    0.8000    3.9310   -0.2940 C   0  0  0  0  0  0  0  0  0  0  0  0
   -0.9650    1.6110   -0.4300 C   0  0  0  0  0  0  0  0  0  0  0  0
    0.3830    1.4830   -0.2770 N   0  0  0  0  0  0  0  0  0  0  0  0
    0.9790    0.3680    0.0960 C   0  0  0  0  0  0  0  0  0  0  0  0
    2.4530    0.3490    0.2330 C   0  0  0  0  0  0  0  0  0  0  0  0
    3.0590    1.2140    1.0260 C   0  0  0  0  0  0  0  0  0  0  0  0
    4.5190    1.2690    1.2250 C   0  0  0  0  0  0  0  0  0  0  0  0
    5.1920    0.5240    0.2470 O   0  0  0  0  0  0  0  0  0  0  0  0
    4.5910   -0.3790   -0.5930 C   0  0  0  0  0  0  0  0  0  0  0  0
    5.4730   -1.2360   -1.4710 C   0  0  0  0  0  0  0  0  0  0  0  0
    3.2880   -0.4820   -0.6190 C   0  0  0  0  0  0  0  0  0  0  0  0
    2.7810   -1.3570   -1.5560 F   0  0  0  0  0  0  0  0  0  0  0  0
    0.2270   -0.7400    0.3610 C   0  0  0  0  0  0  0  0  0  0  0  0
    0.7710   -1.9100    0.8170 C   0  0  0  0  0  0  0  0  0  0  0  0
    2.0110   -2.0080    0.9750 O   0  0  0  0  0  0  0  0  0  0  0  0
   -0.0190   -2.9670    1.1130 N   0  0  0  0  0  0  0  0  0  0  0  0
   -1.3390   -2.8740    0.9660 C   0  0  0  0  0  0  0  0  0  0  0  0
   -2.1620   -3.9830    1.2740 N   0  0  0  0  0  0  0  0  0  0  0  0
   -1.9490   -1.7100    0.5140 C   0  0  0  0  0  0  0  0  0  0  0  0
   -3.3800   -1.7180    0.4220 C   0  0  0  0  0  0  0  0  0  0  0  0
   -4.0750   -0.7630    0.0460 O   0  0  0  0  0  0  0  0  0  0  0  0
   -4.1290   -2.8650    0.7700 O   0  0  0  0  0  0  0  0  0  0  0  0
   -5.5420   -2.8920    0.6850 C   0  0  0  0  0  0  0  0  0  0  0  0
   -1.1740   -0.6130    0.2020 C   0  0  0  0  0  0  0  0  0  0  0  0
   -1.7490    0.5520   -0.1900 N   0  0  0  0  0  0  0  0  0  0  0  0
  1  2  2  0
  2  3  1  0
  3  4  2  3
  3  6  1  0
  4  5  1  0
  6  7  2  0
  6 29  1  0
  7  8  1  0
  8  9  1  0
  8 17  2  0
  9 10  2  0
  9 15  1  0
 10 11  1  0
 11 12  1  0
 12 13  1  0
 13 14  1  0
 13 15  2  0
 15 16  1  0
 17 18  1  0
 17 28  1  0
 18 19  2  0
 18 20  1  0
 20 21  1  0
 21 22  1  0
 21 23  2  0
 23 24  1  0
 23 28  1  0
 24 25  2  0
 24 26  1  0
 26 27  1  0
 28 29  2  0
M  END
