
     RDKit          3D

 29 31  0  0  0  0  0  0  0  0999 V2000
    5.8220    2.7720    1.2590 C   0  0  0  0  0  0  0  0  0  0  0  0
    6.2240    2.3010   -0.1400 C   0  0  0  0  0  0  0  0  0  0  0  0
    6.2480    0.8340   -0.1280 N   0  0  0  0  0  0  0  0  0  0  0  0
    5.0070    0.1680    0.0140 C   0  0  0  0  0  0  0  0  0  0  0  0
    4.9360   -1.0860    0.4420 C   0  0  0  0  0  0  0  0  0  0  0  0
    6.0090   -1.9900    0.8300 C   0  0  0  0  0  0  0  0  0  0  0  0
    7.2510   -1.7350    0.8320 O   0  0  0  0  0  0  0  0  0  0  0  0
    5.3840   -3.1710    1.1890 O   0  0  0  0  0  0  0  0  0  0  0  0
    4.0170   -3.0690    1.0540 C   0  0  0  0  0  0  0  0  0  0  0  0
    2.9800   -3.9650    1.2860 C   0  0  0  0  0  0  0  0  0  0  0  0
    1.6810   -3.6030    1.0690 C   0  0  0  0  0  0  0  0  0  0  0  0
    1.3380   -2.3230    0.6070 C   0  0  0  0  0  0  0  0  0  0  0  0
   -0.0540   -2.0320    0.3970 N   0  0  0  0  0  0  0  0  0  0  0  0
   -0.6050   -0.7770    0.1650 C   0  0  0  0  0  0  0  0  0  0  0  0
    0.1120    0.2430    0.1250 O   0  0  0  0  0  0  0  0  0  0  0  0
   -2.0710   -0.6190   -0.0410 C   0  0  0  0  0  0  0  0  0  0  0  0
   -2.8420   -1.6100   -0.0220 O   0  0  0  0  0  0  0  0  0  0  0  0
   -2.6180    0.6560   -0.2600 N   0  0  0  0  0  0  0  0  0  0  0  0
   -4.0240    0.8760   -0.4650 C   0  0  0  0  0  0  0  0  0  0  0  0
   -4.5600    2.1040   -0.6710 C   0  0  0  0  0  0  0  0  0  0  0  0
   -5.9220    2.2100   -0.8590 C   0  0  0  0  0  0  0  0  0  0  0  0
   -6.6020    3.5080   -1.0890 C   0  0  0  0  0  0  0  0  0  0  0  0
   -6.7210    1.0660   -0.8340 C   0  0  0  0  0  0  0  0  0  0  0  0
   -6.1470   -0.1510   -0.6240 C   0  0  0  0  0  0  0  0  0  0  0  0
   -6.9210   -1.4310   -0.5810 C   0  0  0  0  0  0  0  0  0  0  0  0
   -7.3090   -1.6610    0.7160 F   0  0  0  0  0  0  0  0  0  0  0  0
   -4.8160   -0.2060   -0.4470 N   0  0  0  0  0  0  0  0  0  0  0  0
    2.3380   -1.4410    0.3770 C   0  0  0  0  0  0  0  0  0  0  0  0
    3.6610   -1.8180    0.6010 C   0  0  0  0  0  0  0  0  0  0  0  0
  1  2  1  0
  2  3  1  0
  3  4  1  0
  4  5  2  3
  5  6  1  0
  5 29  1  0
  6  7  2  0
  6  8  1  0
  8  9  1  0
  9 10  2  0
  9 29  1  0
 10 11  1  0
 11 12  2  0
 12 13  1  0
 12 28  1  0
 13 14  1  0
 14 15  2  0
 14 16  1  0
 16 17  2  0
 16 18  1  0
 18 19  1  0
 19 20  2  0
 19 27  1  0
 20 21  1  0
 21 22  1  0
 21 23  2  0
 23 24  1  0
 24 25  1  0
 24 27  2  0
 25 26  1  0
 28 29  2  0
M  END
