
     RDKit          3D

 30 33  0  0  0  0  0  0  0  0999 V2000
   -3.2240    2.0360   -2.4090 C   0  0  0  0  0  0  0  0  0  0  0  0
   -2.1910    1.2050   -1.6260 C   0  0  1  0  0  0  0  0  0  0  0  0
   -1.1420    2.1450   -1.3690 O   0  0  0  0  0  0  0  0  0  0  0  0
    0.1790    1.7320   -1.0660 C   0  0  0  0  0  0  0  0  0  0  0  0
    0.5010    0.9850    0.0600 C   0  0  0  0  0  0  0  0  0  0  0  0
    1.8100    0.6170    0.1650 C   0  0  0  0  0  0  0  0  0  0  0  0
    2.7300    1.0260   -0.8250 C   0  0  0  0  0  0  0  0  0  0  0  0
    2.4230    1.7540   -1.8880 N   0  0  0  0  0  0  0  0  0  0  0  0
    1.1290    2.1090   -2.0100 C   0  0  0  0  0  0  0  0  0  0  0  0
    0.8410    2.9240   -3.1650 N   0  0  0  0  0  0  0  0  0  0  0  0
    2.4230   -0.3890    1.0700 C   0  0  0  0  0  0  0  0  0  0  0  0
    1.7320   -1.4860    1.5680 C   0  0  0  0  0  0  0  0  0  0  0  0
    2.6320   -2.2030    2.2910 N   0  0  0  0  0  0  0  0  0  0  0  0
    3.8060   -1.6320    2.2740 N   0  0  0  0  0  0  0  0  0  0  0  0
    5.0070   -2.1460    2.9610 C   0  0  0  0  0  0  0  0  0  0  0  0
    3.7110   -0.5250    1.5410 C   0  0  0  0  0  0  0  0  0  0  0  0
    4.8470    0.3440    1.3390 C   0  0  0  0  0  0  0  0  0  0  0  0
    5.7720    1.0410    1.1850 N   0  0  0  0  0  0  0  0  0  0  0  0
    0.3220   -1.7700    1.4260 C   0  0  0  0  0  0  0  0  0  0  0  0
   -0.2190   -1.7720    0.0870 N   0  0  0  0  0  0  0  0  0  0  0  0
    0.6430   -2.0230   -1.0740 C   0  0  0  0  0  0  0  0  0  0  0  0
   -1.6370   -1.6290   -0.1960 C   0  0  0  0  0  0  0  0  0  0  0  0
   -2.1520   -2.6690   -0.8570 O   0  0  0  0  0  0  0  0  0  0  0  0
   -2.6340   -0.6190    0.0790 C   0  0  0  0  0  0  0  0  0  0  0  0
   -3.5290   -1.0430    1.1320 C   0  0  0  0  0  0  0  0  0  0  0  0
   -4.5220   -0.2790    1.5880 C   0  0  0  0  0  0  0  0  0  0  0  0
   -4.7390    0.9710    1.0570 C   0  0  0  0  0  0  0  0  0  0  0  0
   -5.7610    1.7000    1.5640 F   0  0  0  0  0  0  0  0  0  0  0  0
   -3.9180    1.3930    0.0630 C   0  0  0  0  0  0  0  0  0  0  0  0
   -2.8470    0.6240   -0.4630 C   0  0  0  0  0  0  0  0  0  0  0  0
  2  1  1  6
  2  3  1  0
  2 30  1  0
  3  4  1  0
  4  5  1  0
  4  9  2  0
  5  6  2  0
  6  7  1  0
  6 11  1  0
  7  8  2  0
  8  9  1  0
  9 10  1  0
 11 12  1  0
 11 16  2  0
 12 13  2  0
 12 19  1  0
 13 14  1  0
 14 15  1  0
 14 16  1  0
 16 17  1  0
 17 18  3  0
 19 20  1  0
 20 21  1  0
 20 22  1  0
 22 23  2  0
 22 24  1  0
 24 25  2  0
 24 30  1  0
 25 26  1  0
 26 27  2  0
 27 28  1  0
 27 29  1  0
 29 30  2  0
M  END
