
     RDKit          3D

 29 31  0  0  0  0  0  0  0  0999 V2000
    6.6640    0.7450   -2.0070 C   0  0  0  0  0  0  0  0  0  0  0  0
    5.8010   -0.4670   -1.6920 C   0  0  0  0  0  0  0  0  0  0  0  0
    5.8970   -0.8630   -0.2870 C   0  0  0  0  0  0  0  0  0  0  0  0
    4.9210   -0.9210    0.5840 C   0  0  0  0  0  0  0  0  0  0  0  0
    3.5530   -0.5690    0.2010 C   0  0  0  0  0  0  0  0  0  0  0  0
    2.6480   -0.6600    1.1440 C   0  0  0  0  0  0  0  0  0  0  0  0
    1.2520   -0.3330    0.8670 C   0  0  0  0  0  0  0  0  0  0  0  0
    0.3230   -0.4560    1.8360 N   0  0  0  0  0  0  0  0  0  0  0  0
   -0.9460   -0.1570    1.6140 C   0  0  0  0  0  0  0  0  0  0  0  0
   -1.9090   -0.2700    2.7590 C   0  0  0  0  0  0  0  0  0  0  0  0
   -1.2180   -0.7450    3.8910 O   0  0  0  0  0  0  0  0  0  0  0  0
   -1.3500    0.2890    0.3760 C   0  0  0  0  0  0  0  0  0  0  0  0
   -2.7150    0.5830    0.0510 C   0  0  0  0  0  0  0  0  0  0  0  0
   -3.6420   -0.3410   -0.0880 C   0  0  0  0  0  0  0  0  0  0  0  0
   -3.4920   -1.7700    0.0440 C   0  0  0  0  0  0  0  0  0  0  0  0
   -2.4590   -2.4450    0.3120 O   0  0  0  0  0  0  0  0  0  0  0  0
   -4.7640   -2.3460   -0.1900 N   0  0  0  0  0  0  0  0  0  0  0  0
   -5.7070   -1.3270   -0.4640 C   0  0  0  0  0  0  0  0  0  0  0  0
   -6.9730   -1.0930   -0.7520 O   0  0  0  0  0  0  0  0  0  0  0  0
   -7.1620    0.1890   -0.8820 N   0  0  0  0  0  0  0  0  0  0  0  0
   -6.0060    0.8620   -0.6800 C   0  0  0  0  0  0  0  0  0  0  0  0
   -5.7820    2.3230   -0.7270 C   0  0  0  0  0  0  0  0  0  0  0  0
   -5.0700    2.7710   -1.9880 C   0  0  0  0  0  0  0  0  0  0  0  0
   -5.0660   -0.1110   -0.4110 C   0  0  0  0  0  0  0  0  0  0  0  0
   -0.3880    0.4160   -0.6240 C   0  0  0  0  0  0  0  0  0  0  0  0
   -0.7180    0.8230   -1.7710 O   0  0  0  0  0  0  0  0  0  0  0  0
    0.8690    0.1020   -0.3390 N   0  0  0  0  0  0  0  0  0  0  0  0
    7.2650   -1.2580    0.2600 C   0  0  0  0  0  0  0  0  0  0  0  0
    8.1620   -0.2350    0.1530 F   0  0  0  0  0  0  0  0  0  0  0  0
  1  2  1  0
  2  3  1  0
  3  4  2  3
  3 28  1  0
  4  5  1  0
  5  6  2  3
  6  7  1  0
  7  8  2  0
  7 27  1  0
  8  9  1  0
  9 10  1  0
  9 12  2  0
 10 11  1  0
 12 13  1  0
 12 25  1  0
 13 14  2  3
 14 15  1  0
 14 24  1  0
 15 16  2  0
 15 17  1  0
 17 18  1  0
 18 19  1  0
 18 24  2  0
 19 20  1  0
 20 21  2  0
 21 22  1  0
 21 24  1  0
 22 23  1  0
 25 26  2  0
 25 27  1  0
 28 29  1  0
M  END
