
     RDKit          3D

 29 31  0  0  0  0  0  0  0  0999 V2000
   -2.3190    5.4630   -1.2290 C   0  0  0  0  0  0  0  0  0  0  0  0
   -1.7660    4.2890   -0.7060 O   0  0  0  0  0  0  0  0  0  0  0  0
   -2.5210    3.4070    0.0350 C   0  0  0  0  0  0  0  0  0  0  0  0
   -3.8470    3.5390    0.3510 C   0  0  0  0  0  0  0  0  0  0  0  0
   -4.1690    2.4350    1.0920 C   0  0  0  0  0  0  0  0  0  0  0  0
   -3.1080    1.6820    1.2190 O   0  0  0  0  0  0  0  0  0  0  0  0
   -2.0860    2.2000    0.6120 C   0  0  0  0  0  0  0  0  0  0  0  0
   -0.7320    1.7580    0.4780 C   0  0  0  0  0  0  0  0  0  0  0  0
   -0.2710    0.5580    0.0800 C   0  0  0  0  0  0  0  0  0  0  0  0
   -1.2350   -0.4150   -0.2630 C   0  0  0  0  0  0  0  0  0  0  0  0
   -2.5140   -0.1000   -0.2020 O   0  0  0  0  0  0  0  0  0  0  0  0
   -1.1050   -1.7600   -0.6920 N   0  0  0  0  0  0  0  0  0  0  0  0
   -2.2830   -2.5820   -0.9920 C   0  0  0  0  0  0  0  0  0  0  0  0
   -3.1440   -2.7370    0.2000 C   0  0  0  0  0  0  0  0  0  0  0  0
   -4.3830   -3.3350    0.1630 C   0  0  0  0  0  0  0  0  0  0  0  0
   -4.9250   -3.3310    1.4210 C   0  0  0  0  0  0  0  0  0  0  0  0
   -4.0050   -2.7290    2.2050 N   0  0  0  0  0  0  0  0  0  0  0  0
   -2.9420   -2.3750    1.4770 N   0  0  0  0  0  0  0  0  0  0  0  0
    1.1610    0.4670    0.0690 C   0  0  0  0  0  0  0  0  0  0  0  0
    1.7760    1.5640    0.4470 O   0  0  0  0  0  0  0  0  0  0  0  0
    2.0110   -0.5750   -0.2720 N   0  0  0  0  0  0  0  0  0  0  0  0
    3.4290   -0.4530   -0.2250 C   0  0  0  0  0  0  0  0  0  0  0  0
    4.1500   -1.6510   -0.0660 C   0  0  0  0  0  0  0  0  0  0  0  0
    5.5240   -1.6710   -0.0320 C   0  0  0  0  0  0  0  0  0  0  0  0
    6.2800   -2.9450    0.1370 C   0  0  0  0  0  0  0  0  0  0  0  0
    6.2370   -0.4900   -0.1560 C   0  0  0  0  0  0  0  0  0  0  0  0
    5.5600    0.6920   -0.3120 C   0  0  0  0  0  0  0  0  0  0  0  0
    6.2460    1.8640   -0.4350 F   0  0  0  0  0  0  0  0  0  0  0  0
    4.1640    0.6800   -0.3430 C   0  0  0  0  0  0  0  0  0  0  0  0
  1  2  1  0
  2  3  1  0
  3  4  1  0
  3  7  2  0
  4  5  2  0
  5  6  1  0
  6  7  1  0
  7  8  1  0
  8  9  2  3
  9 10  1  0
  9 19  1  0
 10 11  2  0
 10 12  1  0
 12 13  1  0
 13 14  1  0
 14 15  2  0
 14 18  1  0
 15 16  1  0
 16 17  2  0
 17 18  1  0
 19 20  2  0
 19 21  1  0
 21 22  1  0
 22 23  2  0
 22 29  1  0
 23 24  1  0
 24 25  1  0
 24 26  2  0
 26 27  1  0
 27 28  1  0
 27 29  2  0
M  END
