
     RDKit          3D

 25 27  0  0  0  0  0  0  0  0999 V2000
   -2.9810    2.9590    0.8840 C   0  0  0  0  0  0  0  0  0  0  0  0
   -2.4840    1.9460   -0.0160 C   0  0  0  0  0  0  0  0  0  0  0  0
   -1.6010    2.3210   -0.8700 O   0  0  0  0  0  0  0  0  0  0  0  0
   -2.8690    0.5150   -0.0790 C   0  0  0  0  0  0  0  0  0  0  0  0
   -3.7570    0.0030    0.7250 C   0  0  0  0  0  0  0  0  0  0  0  0
   -4.4080    0.8360    1.7230 N   0  0  0  0  0  0  0  0  0  0  0  0
   -4.1570   -1.3830    0.7050 N   0  0  0  0  0  0  0  0  0  0  0  0
   -3.5370   -2.2170   -0.2490 C   0  0  0  0  0  0  0  0  0  0  0  0
   -3.6910   -3.5590   -0.5150 N   0  0  0  0  0  0  0  0  0  0  0  0
   -2.8650   -3.8690   -1.5190 C   0  0  0  0  0  0  0  0  0  0  0  0
   -2.2150   -2.7670   -1.8720 N   0  0  0  0  0  0  0  0  0  0  0  0
   -2.6080   -1.7060   -1.0990 C   0  0  0  0  0  0  0  0  0  0  0  0
   -2.2010   -0.3170   -1.0980 C   0  0  2  0  0  0  0  0  0  0  0  0
   -0.7190   -0.1470   -1.0550 C   0  0  0  0  0  0  0  0  0  0  0  0
    0.0290   -0.0750   -2.2070 C   0  0  0  0  0  0  0  0  0  0  0  0
    1.3870    0.0810   -2.1760 C   0  0  0  0  0  0  0  0  0  0  0  0
    2.2240    0.1620   -3.4020 C   0  0  0  0  0  0  0  0  0  0  0  0
    2.0570    0.1710   -0.9510 C   0  0  0  0  0  0  0  0  0  0  0  0
    1.3460    0.1030    0.2180 C   0  0  0  0  0  0  0  0  0  0  0  0
    1.9840    0.1970    1.4930 C   0  0  0  0  0  0  0  0  0  0  0  0
    3.1560    0.3660    1.8380 N   0  0  0  0  0  0  0  0  0  0  0  0
    4.3970    0.5450    1.1740 C   0  0  1  0  0  0  0  0  0  0  0  0
    5.4320    1.0660    2.2160 C   0  0  0  0  0  0  0  0  0  0  0  0
    4.9860   -0.6720    0.6370 N   0  0  0  0  0  0  0  0  0  0  0  0
   -0.0510   -0.0580    0.1280 C   0  0  0  0  0  0  0  0  0  0  0  0
  1  2  1  0
  2  3  2  0
  2  4  1  0
  4  5  2  0
  4 13  1  0
  5  6  1  0
  5  7  1  0
  7  8  1  0
  8  9  1  0
  8 12  2  0
  9 10  1  0
 10 11  2  0
 11 12  1  0
 12 13  1  0
 13 14  1  1
 14 15  2  0
 14 25  1  0
 15 16  1  0
 16 17  1  0
 16 18  2  0
 18 19  1  0
 19 20  1  0
 19 25  2  0
 20 21  2  3
 21 22  1  0
 22 23  1  1
 22 24  1  0
M  CHG  1  21   1
M  END
