
     RDKit          3D

 25 27  0  0  0  0  0  0  0  0999 V2000
    1.8880   -2.5530    1.3300 C   0  0  0  0  0  0  0  0  0  0  0  0
    0.6680   -2.1350    0.5420 C   0  0  1  0  0  0  0  0  0  0  0  0
   -0.4010   -3.1080    0.8380 N   0  0  0  0  0  0  0  0  0  0  0  0
    0.2660   -0.7300    0.7850 C   0  0  1  0  0  0  0  0  0  0  0  0
    1.4430    0.1250    0.3210 C   0  0  0  0  0  0  0  0  0  0  0  0
    1.3600    1.3410    0.6050 O   0  0  0  0  0  0  0  0  0  0  0  0
    2.5540   -0.3420   -0.3690 N   0  0  0  0  0  0  0  0  0  0  0  0
    3.6860    0.3820   -0.8180 C   0  0  0  0  0  0  0  0  0  0  0  0
    3.9270    1.6690   -0.4500 C   0  0  0  0  0  0  0  0  0  0  0  0
    5.0280    2.3850   -0.8980 C   0  0  0  0  0  0  0  0  0  0  0  0
    5.8820    1.7910   -1.7190 N   0  0  0  0  0  0  0  0  0  0  0  0
    5.6710    0.5260   -2.0980 C   0  0  0  0  0  0  0  0  0  0  0  0
    4.6070   -0.1960   -1.6780 C   0  0  0  0  0  0  0  0  0  0  0  0
   -0.7980   -0.1990    0.0190 N   0  0  0  0  0  0  0  0  0  0  0  0
   -0.5010   -0.0810   -1.4290 C   0  0  0  0  0  0  0  0  0  0  0  0
   -0.7720    1.3640   -1.8680 C   0  0  0  0  0  0  0  0  0  0  0  0
   -2.1830    1.5170   -2.3730 C   0  0  0  0  0  0  0  0  0  0  0  0
   -3.1320    1.5190   -1.2620 C   0  0  0  0  0  0  0  0  0  0  0  0
   -3.1040    0.9950   -0.0530 C   0  0  0  0  0  0  0  0  0  0  0  0
   -4.2800    1.2580    0.7030 N   0  0  0  0  0  0  0  0  0  0  0  0
   -4.3220    0.7010    2.0090 C   0  0  0  0  0  0  0  0  0  0  0  0
   -5.5290    0.9880    2.7460 N   0  0  0  0  0  0  0  0  0  0  0  0
   -3.3640   -0.0220    2.5460 C   0  0  0  0  0  0  0  0  0  0  0  0
   -2.1570   -0.2960    1.7840 C   0  0  0  0  0  0  0  0  0  0  0  0
   -2.0410    0.1830    0.5710 C   0  0  0  0  0  0  0  0  0  0  0  0
  2  1  1  1
  2  3  1  0
  2  4  1  0
  4  5  1  0
  4 14  1  6
  5  6  2  0
  5  7  1  0
  7  8  1  0
  8  9  2  0
  8 13  1  0
  9 10  1  0
 10 11  2  0
 11 12  1  0
 12 13  2  0
 14 15  1  0
 14 25  1  0
 15 16  1  0
 16 17  1  0
 17 18  1  0
 18 19  2  0
 19 20  1  0
 19 25  1  0
 20 21  1  0
 21 22  1  0
 21 23  2  0
 23 24  1  0
 24 25  2  0
M  CHG  1   3   1
M  END
