
     RDKit          3D

 25 27  0  0  0  0  0  0  0  0999 V2000
    6.8480    1.6350   -0.5380 C   0  0  0  0  0  0  0  0  0  0  0  0
    5.8550    0.7020    0.0700 C   0  0  0  0  0  0  0  0  0  0  0  0
    6.2810   -0.4870    0.4600 C   0  0  0  0  0  0  0  0  0  0  0  0
    7.6550   -0.8820    0.3110 N   0  0  0  0  0  0  0  0  0  0  0  0
    5.3270   -1.3680    1.0380 N   0  0  0  0  0  0  0  0  0  0  0  0
    3.9350   -1.0370    1.2180 C   0  0  0  0  0  0  0  0  0  0  0  0
    3.5790    0.3200    0.7430 C   0  0  0  0  0  0  0  0  0  0  0  0
    2.2280    0.7460    0.8740 N   0  0  0  0  0  0  0  0  0  0  0  0
    1.7710    1.8800    0.0950 C   0  0  0  0  0  0  0  0  0  0  0  0
    0.3970    2.1920    0.3190 N   0  0  0  0  0  0  0  0  0  0  0  0
   -0.6490    1.2950    0.0490 C   0  0  0  0  0  0  0  0  0  0  0  0
   -1.9680    1.6110    0.3010 C   0  0  0  0  0  0  0  0  0  0  0  0
   -2.9910    0.7020    0.0210 C   0  0  0  0  0  0  0  0  0  0  0  0
   -2.6730   -0.5270   -0.5160 C   0  0  0  0  0  0  0  0  0  0  0  0
   -3.6250   -1.4940   -0.8270 O   0  0  0  0  0  0  0  0  0  0  0  0
   -4.9840   -1.2770   -0.6120 C   0  0  0  0  0  0  0  0  0  0  0  0
   -5.8000   -0.7190   -1.5740 C   0  0  0  0  0  0  0  0  0  0  0  0
   -7.1400   -0.5220   -1.3210 C   0  0  0  0  0  0  0  0  0  0  0  0
   -7.7310   -0.8590   -0.1290 C   0  0  0  0  0  0  0  0  0  0  0  0
   -9.1140   -0.6520    0.1230 N   0  0  0  0  0  0  0  0  0  0  0  0
   -6.9160   -1.4230    0.8480 C   0  0  0  0  0  0  0  0  0  0  0  0
   -5.5730   -1.6190    0.5900 C   0  0  0  0  0  0  0  0  0  0  0  0
   -1.3450   -0.8640   -0.7790 C   0  0  0  0  0  0  0  0  0  0  0  0
   -0.3550    0.0630   -0.4880 C   0  0  0  0  0  0  0  0  0  0  0  0
    4.4940    1.0610    0.2310 N   0  0  0  0  0  0  0  0  0  0  0  0
  1  2  1  0
  2  3  2  0
  2 25  1  0
  3  4  1  0
  3  5  1  0
  5  6  1  0
  6  7  1  0
  7  8  1  0
  7 25  2  0
  8  9  1  0
  9 10  1  0
 10 11  1  0
 11 12  2  0
 11 24  1  0
 12 13  1  0
 13 14  2  0
 14 15  1  0
 14 23  1  0
 15 16  1  0
 16 17  2  0
 16 22  1  0
 17 18  1  0
 18 19  2  0
 19 20  1  0
 19 21  1  0
 21 22  2  0
 23 24  2  0
M  CHG  1   4   1
M  END
