
     RDKit          3D

 25 27  0  0  0  0  0  0  0  0999 V2000
    6.5950   -0.9110    0.6630 C   0  0  0  0  0  0  0  0  0  0  0  0
    5.9440    0.4130    0.2700 C   0  0  1  0  0  0  0  0  0  0  0  0
    5.7040    0.4630   -1.2170 C   0  0  0  0  0  0  0  0  0  0  0  0
    4.2970    0.8570   -1.5600 C   0  0  0  0  0  0  0  0  0  0  0  0
    4.0710    1.7100   -2.5070 N   0  0  0  0  0  0  0  0  0  0  0  0
    3.2860    0.2330   -0.7830 N   0  0  0  0  0  0  0  0  0  0  0  0
    3.4960    0.0750    0.4760 C   0  0  0  0  0  0  0  0  0  0  0  0
    2.4690   -0.5740    1.3430 C   0  0  0  0  0  0  0  0  0  0  0  0
    1.3060   -0.9390    0.4590 C   0  0  0  0  0  0  0  0  0  0  0  0
    0.1490   -0.4130    0.7360 C   0  0  0  0  0  0  0  0  0  0  0  0
   -1.1240   -0.5680    0.0860 C   0  0  0  0  0  0  0  0  0  0  0  0
   -2.2660    0.1090    0.5660 C   0  0  0  0  0  0  0  0  0  0  0  0
   -3.4900   -0.0220   -0.0360 C   0  0  0  0  0  0  0  0  0  0  0  0
   -4.5950    0.6520    0.4540 C   0  0  0  0  0  0  0  0  0  0  0  0
   -4.4730    1.5160    1.6230 C   0  0  0  0  0  0  0  0  0  0  0  0
   -5.7590    2.1010    1.9320 N   0  0  0  0  0  0  0  0  0  0  0  0
   -5.8360    0.5130   -0.1640 C   0  0  0  0  0  0  0  0  0  0  0  0
   -5.9460   -0.3040   -1.2670 C   0  0  0  0  0  0  0  0  0  0  0  0
   -7.0520   -0.4370   -1.8300 O   0  0  0  0  0  0  0  0  0  0  0  0
   -4.8720   -0.9580   -1.7420 N   0  0  0  0  0  0  0  0  0  0  0  0
   -3.6660   -0.8210   -1.1390 C   0  0  0  0  0  0  0  0  0  0  0  0
   -2.5780   -1.4960   -1.6340 C   0  0  0  0  0  0  0  0  0  0  0  0
   -1.3140   -1.3570   -1.0080 C   0  0  0  0  0  0  0  0  0  0  0  0
   -0.2600   -2.1020   -1.6090 N   0  0  0  0  0  0  0  0  0  0  0  0
    4.7210    0.5370    1.0180 N   0  0  0  0  0  0  0  0  0  0  0  0
  2  1  1  6
  2  3  1  0
  2 25  1  0
  3  4  1  0
  4  5  2  0
  4  6  1  0
  6  7  2  0
  7  8  1  0
  7 25  1  0
  8  9  1  0
  9 10  2  3
 10 11  1  0
 11 12  2  0
 11 23  1  0
 12 13  1  0
 13 14  1  0
 13 21  2  0
 14 15  1  0
 14 17  2  0
 15 16  1  0
 17 18  1  0
 18 19  2  0
 18 20  1  0
 20 21  1  0
 21 22  1  0
 22 23  2  0
 23 24  1  0
M  CHG  1  16   1
M  END
