
     RDKit          3D

 25 27  0  0  0  0  0  0  0  0999 V2000
   -3.5020   -0.3960   -4.8860 C   0  0  0  0  0  0  0  0  0  0  0  0
   -3.1070    0.2290   -3.7970 C   0  0  0  0  0  0  0  0  0  0  0  0
   -2.4480   -0.2990   -2.6560 N   0  0  0  0  0  0  0  0  0  0  0  0
   -2.2010    0.7270   -1.7040 C   0  0  0  0  0  0  0  0  0  0  0  0
   -1.5240    0.5420   -0.3560 C   0  0  2  0  0  0  0  0  0  0  0  0
   -2.4790   -0.3530    0.4120 C   0  0  0  0  0  0  0  0  0  0  0  0
   -1.4730    1.9180    0.2090 C   0  0  0  0  0  0  0  0  0  0  0  0
   -0.8640    2.1420    1.5280 C   0  0  0  0  0  0  0  0  0  0  0  0
   -0.9920    3.6380    1.9170 C   0  0  0  0  0  0  0  0  0  0  0  0
   -0.2800   -0.0870   -0.6370 N   0  0  0  0  0  0  0  0  0  0  0  0
    0.6470   -0.6170    0.3140 C   0  0  0  0  0  0  0  0  0  0  0  0
    0.3220   -0.5300    1.4980 O   0  0  0  0  0  0  0  0  0  0  0  0
    1.8620   -1.2070   -0.0510 N   0  0  0  0  0  0  0  0  0  0  0  0
    2.8250   -1.7440    0.8270 C   0  0  0  0  0  0  0  0  0  0  0  0
    3.9330   -2.4320    0.2950 C   0  0  0  0  0  0  0  0  0  0  0  0
    4.9080   -2.9690    1.0990 C   0  0  0  0  0  0  0  0  0  0  0  0
    4.8710   -2.8740    2.4650 C   0  0  0  0  0  0  0  0  0  0  0  0
    5.6950   -3.3110    3.4800 C   0  0  0  0  0  0  0  0  0  0  0  0
    5.1030   -2.8970    4.6230 N   0  0  0  0  0  0  0  0  0  0  0  0
    3.9870   -2.2480    4.3420 N   0  0  0  0  0  0  0  0  0  0  0  0
    3.8000   -2.2080    3.0110 C   0  0  0  0  0  0  0  0  0  0  0  0
    2.7970   -1.6540    2.1930 C   0  0  0  0  0  0  0  0  0  0  0  0
   -2.6660    1.8450   -2.1890 C   0  0  0  0  0  0  0  0  0  0  0  0
   -3.2660    1.6520   -3.5190 C   0  0  0  0  0  0  0  0  0  0  0  0
   -3.8060    2.5550   -4.2530 N   0  0  0  0  0  0  0  0  0  0  0  0
  1  2  2  0
  2  3  1  0
  2 24  1  0
  3  4  1  0
  4  5  1  0
  4 23  2  0
  5  6  1  1
  5  7  1  0
  5 10  1  0
  7  8  1  0
  8  9  1  0
 10 11  1  0
 11 12  2  0
 11 13  1  0
 13 14  1  0
 14 15  2  0
 14 22  1  0
 15 16  1  0
 16 17  2  0
 17 18  1  0
 17 21  1  0
 18 19  2  0
 19 20  1  0
 20 21  1  0
 21 22  2  0
 23 24  1  0
 24 25  2  0
M  CHG  1  25   1
M  END
