
     RDKit          3D

 25 27  0  0  0  0  0  0  0  0999 V2000
   -1.3920    3.5250   -0.7840 C   0  0  0  0  0  0  0  0  0  0  0  0
   -2.2810    3.0820    0.3280 C   0  0  1  0  0  0  0  0  0  0  0  0
   -3.5110    2.3620   -0.1090 C   0  0  0  0  0  0  0  0  0  0  0  0
   -3.2920    1.0280   -0.7120 C   0  0  0  0  0  0  0  0  0  0  0  0
   -2.1990    0.1900   -0.1420 C   0  0  2  0  0  0  0  0  0  0  0  0
   -2.6990   -0.8150    0.6430 O   0  0  0  0  0  0  0  0  0  0  0  0
   -2.5300   -2.0960    0.1580 C   0  0  0  0  0  0  0  0  0  0  0  0
   -3.1900   -2.4020   -1.1400 C   0  0  0  0  0  0  0  0  0  0  0  0
   -4.6160   -2.2440   -1.1180 N   0  0  0  0  0  0  0  0  0  0  0  0
   -1.0740    0.9810    0.4490 C   0  0  2  0  0  0  0  0  0  0  0  0
   -0.1710    0.2030    1.2290 N   0  0  0  0  0  0  0  0  0  0  0  0
   -0.4040   -0.5240    2.4500 C   0  0  0  0  0  0  0  0  0  0  0  0
    0.6680   -1.6250    2.4050 C   0  0  0  0  0  0  0  0  0  0  0  0
    1.8020   -0.8230    1.9150 N   0  0  0  0  0  0  0  0  0  0  0  0
    1.2090    0.0010    0.9030 C   0  0  0  0  0  0  0  0  0  0  0  0
    1.8260    0.4840   -0.1170 N   0  0  0  0  0  0  0  0  0  0  0  0
    3.1960    0.2170   -0.3410 C   0  0  0  0  0  0  0  0  0  0  0  0
    4.1020    1.2550   -0.5270 C   0  0  0  0  0  0  0  0  0  0  0  0
    5.4450    1.0280   -0.7380 C   0  0  0  0  0  0  0  0  0  0  0  0
    5.8660   -0.2870   -0.7590 C   0  0  0  0  0  0  0  0  0  0  0  0
    7.2480   -0.5370   -0.9750 N   0  0  0  0  0  0  0  0  0  0  0  0
    4.9860   -1.3250   -0.5770 C   0  0  0  0  0  0  0  0  0  0  0  0
    3.6300   -1.0840   -0.3640 C   0  0  0  0  0  0  0  0  0  0  0  0
    2.7820   -2.2070   -0.1940 N   0  0  0  0  0  0  0  0  0  0  0  0
   -1.5820    2.1410    1.3020 C   0  0  0  0  0  0  0  0  0  0  0  0
  2  1  1  6
  2  3  1  0
  2 25  1  0
  3  4  1  0
  4  5  1  0
  5  6  1  1
  5 10  1  0
  6  7  1  0
  7  8  1  0
  8  9  1  0
 10 11  1  1
 10 25  1  0
 11 12  1  0
 11 15  1  0
 12 13  1  0
 13 14  1  0
 14 15  1  0
 15 16  2  3
 16 17  1  0
 17 18  2  0
 17 23  1  0
 18 19  1  0
 19 20  2  0
 20 21  1  0
 20 22  1  0
 22 23  2  0
 23 24  1  0
M  CHG  1   9   1
M  END
