
     RDKit          3D

 18 20  0  0  0  0  0  0  0  0999 V2000
   -4.8880    1.0660   -0.1360 N   0  0  0  0  0  0  0  0  0  0  0  0
   -3.5380    0.6400    0.0300 C   0  0  0  0  0  0  0  0  0  0  0  0
   -2.5070    1.3870   -0.4140 N   0  0  0  0  0  0  0  0  0  0  0  0
   -1.2330    0.9760   -0.2520 C   0  0  0  0  0  0  0  0  0  0  0  0
   -0.1430    1.7350   -0.7240 N   0  0  0  0  0  0  0  0  0  0  0  0
   -0.9820   -0.2270    0.3790 C   0  0  0  0  0  0  0  0  0  0  0  0
    0.1520   -0.9180    0.6910 C   0  0  0  0  0  0  0  0  0  0  0  0
    1.5290   -0.5330    0.4550 C   0  0  0  0  0  0  0  0  0  0  0  0
    2.0750    0.6570    0.8740 C   0  0  0  0  0  0  0  0  0  0  0  0
    3.4090    0.9880    0.6050 C   0  0  0  0  0  0  0  0  0  0  0  0
    4.2310    0.1300   -0.0950 C   0  0  0  0  0  0  0  0  0  0  0  0
    5.5250    0.4770   -0.3440 F   0  0  0  0  0  0  0  0  0  0  0  0
    3.7010   -1.0660   -0.5220 C   0  0  0  0  0  0  0  0  0  0  0  0
    2.3890   -1.3850   -0.2530 C   0  0  0  0  0  0  0  0  0  0  0  0
   -0.2710   -2.0810    1.3240 C   0  0  0  0  0  0  0  0  0  0  0  0
   -1.5870   -2.1220    1.4080 N   0  0  0  0  0  0  0  0  0  0  0  0
   -2.1330   -1.0320    0.8590 C   0  0  0  0  0  0  0  0  0  0  0  0
   -3.3490   -0.5390    0.6500 N   0  0  0  0  0  0  0  0  0  0  0  0
  1  2  1  0
  2  3  2  0
  2 18  1  0
  3  4  1  0
  4  5  1  0
  4  6  2  0
  6  7  1  0
  6 17  1  0
  7  8  1  0
  7 15  2  0
  8  9  2  0
  8 14  1  0
  9 10  1  0
 10 11  2  0
 11 12  1  0
 11 13  1  0
 13 14  2  0
 15 16  1  0
 16 17  2  0
 17 18  1  0
M  END
