
     RDKit          3D

 18 20  0  0  0  0  0  0  0  0999 V2000
   -5.5240    0.4840   -0.6720 N   0  0  0  0  0  0  0  0  0  0  0  0
   -4.1360    0.3410   -0.3380 C   0  0  0  0  0  0  0  0  0  0  0  0
   -3.7240    0.1410    0.9640 C   0  0  0  0  0  0  0  0  0  0  0  0
   -2.3860    0.0060    1.2680 C   0  0  0  0  0  0  0  0  0  0  0  0
   -1.3970    0.0600    0.3070 C   0  0  0  0  0  0  0  0  0  0  0  0
    0.0070   -0.0860    0.6550 C   0  0  0  0  0  0  0  0  0  0  0  0
    1.0770   -0.0460   -0.2340 C   0  0  0  0  0  0  0  0  0  0  0  0
    2.2500   -0.2210    0.4640 C   0  0  0  0  0  0  0  0  0  0  0  0
    3.5870   -0.2440   -0.0970 C   0  0  0  0  0  0  0  0  0  0  0  0
    3.9290   -0.0930   -1.4420 C   0  0  0  0  0  0  0  0  0  0  0  0
    5.2480   -0.1760   -1.5300 N   0  0  0  0  0  0  0  0  0  0  0  0
    5.8040   -0.3700   -0.3470 N   0  0  0  0  0  0  0  0  0  0  0  0
    4.7970   -0.4140    0.5430 C   0  0  0  0  0  0  0  0  0  0  0  0
    4.9360   -0.5980    1.8790 F   0  0  0  0  0  0  0  0  0  0  0  0
    1.8960   -0.3630    1.7410 N   0  0  0  0  0  0  0  0  0  0  0  0
    0.5790   -0.2830    1.8530 N   0  0  0  0  0  0  0  0  0  0  0  0
   -1.8120    0.2600   -0.9930 C   0  0  0  0  0  0  0  0  0  0  0  0
   -3.1500    0.3960   -1.3000 C   0  0  0  0  0  0  0  0  0  0  0  0
  1  2  1  0
  2  3  2  0
  2 18  1  0
  3  4  1  0
  4  5  2  0
  5  6  1  0
  5 17  1  0
  6  7  2  0
  6 16  1  0
  7  8  1  0
  8  9  1  0
  8 15  2  0
  9 10  1  0
  9 13  2  0
 10 11  2  0
 11 12  1  0
 12 13  1  0
 13 14  1  0
 15 16  1  0
 17 18  2  0
M  END
