
     RDKit          3D

 17 19  0  0  0  0  0  0  0  0999 V2000
    5.6520    0.5810   -0.1050 C   0  0  0  0  0  0  0  0  0  0  0  0
    4.1840    0.3310   -0.0610 C   0  0  0  0  0  0  0  0  0  0  0  0
    3.6580   -0.7990    0.5300 C   0  0  0  0  0  0  0  0  0  0  0  0
    2.2800   -1.0000    0.5530 C   0  0  0  0  0  0  0  0  0  0  0  0
    1.4180   -0.0860   -0.0080 C   0  0  0  0  0  0  0  0  0  0  0  0
   -0.0310   -0.2490   -0.0100 C   0  0  0  0  0  0  0  0  0  0  0  0
   -0.9680    0.5660   -0.5210 N   0  0  0  0  0  0  0  0  0  0  0  0
   -2.2100    0.0440   -0.3120 C   0  0  0  0  0  0  0  0  0  0  0  0
   -2.0370   -1.1300    0.3480 C   0  0  0  0  0  0  0  0  0  0  0  0
   -0.7130   -1.2890    0.5210 N   0  0  0  0  0  0  0  0  0  0  0  0
   -3.3610   -1.7820    0.6240 C   0  0  0  0  0  0  0  0  0  0  0  0
   -4.2640   -0.5420    0.6200 C   0  0  0  0  0  0  0  0  0  0  0  0
   -3.6650    0.2430   -0.5150 C   0  0  1  0  0  0  0  0  0  0  0  0
   -4.0290    1.6340   -0.4920 N   0  0  0  0  0  0  0  0  0  0  0  0
    1.9910    1.0260   -0.5860 C   0  0  0  0  0  0  0  0  0  0  0  0
    1.0980    1.9840   -1.1730 N   0  0  0  0  0  0  0  0  0  0  0  0
    3.3240    1.2110   -0.6030 N   0  0  0  0  0  0  0  0  0  0  0  0
  1  2  1  0
  2  3  2  0
  2 17  1  0
  3  4  1  0
  4  5  2  0
  5  6  1  0
  5 15  1  0
  6  7  2  0
  6 10  1  0
  7  8  1  0
  8  9  2  0
  8 13  1  0
  9 10  1  0
  9 11  1  0
 11 12  1  0
 12 13  1  0
 13 14  1  1
 15 16  1  0
 15 17  2  0
M  END
