
     RDKit          3D

 18 20  0  0  0  0  0  0  0  0999 V2000
    5.4680    1.1530   -0.2410 N   0  0  0  0  0  0  0  0  0  0  0  0
    4.1520    0.6490   -0.0630 C   0  0  0  0  0  0  0  0  0  0  0  0
    3.0470    1.3310   -0.3250 N   0  0  0  0  0  0  0  0  0  0  0  0
    1.9810    0.5700   -0.0490 C   0  0  0  0  0  0  0  0  0  0  0  0
    0.6350    0.8150   -0.1500 C   0  0  0  0  0  0  0  0  0  0  0  0
   -0.2990   -0.1630    0.2070 C   0  0  0  0  0  0  0  0  0  0  0  0
   -1.7300    0.1040    0.0970 C   0  0  0  0  0  0  0  0  0  0  0  0
   -2.2550    1.3080    0.5500 C   0  0  0  0  0  0  0  0  0  0  0  0
   -3.6030    1.5760    0.4540 C   0  0  0  0  0  0  0  0  0  0  0  0
   -4.4890    0.6700   -0.0910 C   0  0  0  0  0  0  0  0  0  0  0  0
   -3.9730   -0.5270   -0.5420 C   0  0  0  0  0  0  0  0  0  0  0  0
   -4.8570   -1.4170   -1.0800 F   0  0  0  0  0  0  0  0  0  0  0  0
   -2.6240   -0.7950   -0.4460 C   0  0  0  0  0  0  0  0  0  0  0  0
    0.2090   -1.3630    0.6590 C   0  0  0  0  0  0  0  0  0  0  0  0
   -0.6870   -2.3850    1.0330 N   0  0  0  0  0  0  0  0  0  0  0  0
    1.5510   -1.5740    0.7470 N   0  0  0  0  0  0  0  0  0  0  0  0
    2.4500   -0.6360    0.4040 C   0  0  0  0  0  0  0  0  0  0  0  0
    3.7950   -0.5590    0.3850 N   0  0  0  0  0  0  0  0  0  0  0  0
  1  2  1  0
  2  3  2  0
  2 18  1  0
  3  4  1  0
  4  5  2  0
  4 17  1  0
  5  6  1  0
  6  7  1  0
  6 14  2  0
  7  8  2  0
  7 13  1  0
  8  9  1  0
  9 10  2  0
 10 11  1  0
 11 12  1  0
 11 13  2  0
 14 15  1  0
 14 16  1  0
 16 17  2  0
 17 18  1  0
M  END
