
     RDKit          3D

 17 19  0  0  0  0  0  0  0  0999 V2000
   -4.6510   -0.8790    0.2550 N   0  0  0  0  0  0  0  0  0  0  0  0
   -3.2560   -0.6220    0.2120 C   0  0  0  0  0  0  0  0  0  0  0  0
   -2.3770   -1.6820    0.3690 C   0  0  0  0  0  0  0  0  0  0  0  0
   -1.0200   -1.4400    0.3280 C   0  0  0  0  0  0  0  0  0  0  0  0
   -0.5650   -0.1540    0.1320 C   0  0  0  0  0  0  0  0  0  0  0  0
    0.8380    0.0500    0.0960 N   0  0  0  0  0  0  0  0  0  0  0  0
    1.7670   -1.0500    0.2600 C   0  0  0  0  0  0  0  0  0  0  0  0
    3.1600   -0.5450    0.1790 C   0  0  0  0  0  0  0  0  0  0  0  0
    3.5270    0.7350   -0.0160 N   0  0  0  0  0  0  0  0  0  0  0  0
    4.8590    0.8440   -0.0370 C   0  0  0  0  0  0  0  0  0  0  0  0
    5.3380   -0.4340    0.1550 C   0  0  0  0  0  0  0  0  0  0  0  0
    4.2760   -1.2840    0.2870 N   0  0  0  0  0  0  0  0  0  0  0  0
   -1.4420    0.8920   -0.0230 C   0  0  0  0  0  0  0  0  0  0  0  0
   -1.2750    2.2350   -0.2270 C   0  0  0  0  0  0  0  0  0  0  0  0
   -2.5290    2.8400   -0.3140 C   0  0  0  0  0  0  0  0  0  0  0  0
   -3.4450    1.8560   -0.1620 N   0  0  0  0  0  0  0  0  0  0  0  0
   -2.8020    0.6660    0.0150 C   0  0  0  0  0  0  0  0  0  0  0  0
  1  2  1  0
  2  3  2  0
  2 17  1  0
  3  4  1  0
  4  5  2  0
  5  6  1  0
  5 13  1  0
  6  7  1  0
  7  8  1  0
  8  9  2  0
  8 12  1  0
  9 10  1  0
 10 11  2  0
 11 12  1  0
 13 14  1  0
 13 17  2  0
 14 15  2  0
 15 16  1  0
 16 17  1  0
M  END
