
     RDKit          3D

 10 10  0  0  0  0  0  0  0  0999 V2000
    2.4020   -0.3610    0.9770 O   0  0  0  0  0  0  0  0  0  0  0  0
    1.9980   -0.5310   -0.3230 C   0  0  2  0  0  0  0  0  0  0  0  0
    2.6360    0.3970   -1.1210 O   0  0  0  0  0  0  0  0  0  0  0  0
    0.5160   -0.2650   -0.3980 C   0  0  1  0  0  0  0  0  0  0  0  0
   -0.2920   -1.1920    0.4740 C   0  0  0  0  0  0  0  0  0  0  0  0
   -1.6760   -1.1060    0.0080 N   0  0  0  0  0  0  0  0  0  0  0  0
   -1.9860    0.2040   -0.5180 C   0  0  0  0  0  0  0  0  0  0  0  0
   -1.2540    1.2870    0.2680 C   0  0  0  0  0  0  0  0  0  0  0  0
    0.2480    1.1470    0.0750 C   0  0  1  0  0  0  0  0  0  0  0  0
    0.8280    1.3680    1.3270 O   0  0  0  0  0  0  0  0  0  0  0  0
  2  1  1  1
  2  3  1  0
  2  4  1  0
  4  5  1  1
  4  9  1  0
  5  6  1  0
  6  7  1  0
  7  8  1  0
  8  9  1  0
  9 10  1  1
M  CHG  1   6   1
M  END
