
     RDKit          3D

 18 19  0  0  0  0  0  0  0  0999 V2000
   -0.5170    2.7450    2.3500 C   0  0  0  0  0  0  0  0  0  0  0  0
   -1.4060    2.5910    1.4480 C   0  0  0  0  0  0  0  0  0  0  0  0
   -1.6010    1.7060    0.3680 C   0  0  0  0  0  0  0  0  0  0  0  0
   -2.7070    1.8880   -0.3960 C   0  0  0  0  0  0  0  0  0  0  0  0
   -3.5460    2.9230   -0.0500 F   0  0  0  0  0  0  0  0  0  0  0  0
   -3.0120    1.0520   -1.5340 C   0  0  0  0  0  0  0  0  0  0  0  0
   -2.2580    0.0510   -1.9280 C   0  0  0  0  0  0  0  0  0  0  0  0
   -1.0860   -0.2310   -1.2060 N   0  0  0  0  0  0  0  0  0  0  0  0
   -0.7570    0.5910   -0.0640 C   0  0  0  0  0  0  0  0  0  0  0  0
    0.2990    0.2710    0.6530 C   0  0  0  0  0  0  0  0  0  0  0  0
    1.1930   -0.8430    0.2530 C   0  0  0  0  0  0  0  0  0  0  0  0
    1.7880   -0.9130   -0.9810 C   0  0  0  0  0  0  0  0  0  0  0  0
    2.5920   -1.9940   -1.2840 C   0  0  0  0  0  0  0  0  0  0  0  0
    3.2400   -2.1430   -2.5310 N   0  0  0  0  0  0  0  0  0  0  0  0
    2.7340   -2.9160   -0.3210 N   0  0  0  0  0  0  0  0  0  0  0  0
    2.1690   -2.8610    0.8690 N   0  0  0  0  0  0  0  0  0  0  0  0
    1.3750   -1.8280    1.2140 C   0  0  0  0  0  0  0  0  0  0  0  0
    0.7480   -1.7430    2.5000 N   0  0  0  0  0  0  0  0  0  0  0  0
  1  2  2  0
  2  3  1  0
  3  4  2  0
  3  9  1  0
  4  5  1  0
  4  6  1  0
  6  7  2  0
  7  8  1  0
  8  9  1  0
  9 10  2  3
 10 11  1  0
 11 12  2  0
 11 17  1  0
 12 13  1  0
 13 14  1  0
 13 15  2  0
 15 16  1  0
 16 17  2  0
 17 18  1  0
M  END
