
     RDKit          3D

 22 22  0  0  0  0  0  0  0  0999 V2000
    3.8960    1.8910    0.7470 O   0  0  0  0  0  0  0  0  0  0  0  0
    4.7120    0.7860    0.7570 C   0  0  0  0  0  0  0  0  0  0  0  0
    4.5890   -0.0240   -0.5120 C   0  0  2  0  0  0  0  0  0  0  0  0
    4.9380    0.7570   -1.5860 O   0  0  0  0  0  0  0  0  0  0  0  0
    3.2470   -0.6890   -0.6440 C   0  0  0  0  0  0  0  0  0  0  0  0
    2.2040    0.1760   -0.7840 O   0  0  0  0  0  0  0  0  0  0  0  0
    0.9410   -0.4630   -0.9150 C   0  0  2  0  0  0  0  0  0  0  0  0
    0.6220   -0.2480   -2.2240 O   0  0  0  0  0  0  0  0  0  0  0  0
    0.0790    0.1110    0.1400 C   0  0  2  0  0  0  0  0  0  0  0  0
    0.7730   -0.2860    1.3300 O   0  0  0  0  0  0  0  0  0  0  0  0
    0.5620   -1.6100    1.6130 C   0  0  0  0  0  0  0  0  0  0  0  0
   -0.2040   -2.3540    0.7970 O   0  0  0  0  0  0  0  0  0  0  0  0
   -1.3010   -1.8610    0.1890 C   0  0  0  0  0  0  0  0  0  0  0  0
   -1.2980   -0.3420    0.3400 C   0  0  1  0  0  0  0  0  0  0  0  0
   -1.5070   -0.2450    1.7800 O   0  0  0  0  0  0  0  0  0  0  0  0
   -2.4630    0.3600   -0.1430 C   0  0  1  0  0  0  0  0  0  0  0  0
   -2.7280    0.6780   -1.5500 C   0  0  0  0  0  0  0  0  0  0  0  0
   -1.7720    1.4930   -2.1000 O   0  0  0  0  0  0  0  0  0  0  0  0
   -3.7000   -0.4750    0.3010 C   0  0  0  0  0  0  0  0  0  0  0  0
   -4.7890    0.2770   -0.2010 O   0  0  0  0  0  0  0  0  0  0  0  0
   -2.6860    1.6820    0.6170 C   0  0  0  0  0  0  0  0  0  0  0  0
   -2.8790    1.4180    1.9450 O   0  0  0  0  0  0  0  0  0  0  0  0
  1  2  1  0
  2  3  1  0
  3  4  1  6
  3  5  1  0
  5  6  1  0
  6  7  1  0
  7  8  1  6
  7  9  1  0
  9 10  1  1
  9 14  1  0
 10 11  1  0
 11 12  1  0
 12 13  1  0
 13 14  1  0
 14 15  1  1
 14 16  1  0
 16 17  1  6
 16 19  1  0
 16 21  1  0
 17 18  1  0
 19 20  1  0
 21 22  1  0
M  END
