
     RDKit          3D

 22 22  0  0  0  0  0  0  0  0999 V2000
   -0.9690    2.9920   -0.2090 C   0  0  0  0  0  0  0  0  0  0  0  0
   -0.6570    1.6350   -0.0690 O   0  0  0  0  0  0  0  0  0  0  0  0
   -1.8440    0.9620    0.1370 C   0  0  0  0  0  0  0  0  0  0  0  0
   -1.7860   -0.4950    0.3160 C   0  0  2  0  0  0  0  0  0  0  0  0
   -1.2710   -1.1230   -0.8130 O   0  0  0  0  0  0  0  0  0  0  0  0
   -3.2610   -0.9650    0.4050 C   0  0  2  0  0  0  0  0  0  0  0  0
   -3.2920   -2.3550    0.5390 O   0  0  0  0  0  0  0  0  0  0  0  0
   -4.0480   -0.6250   -0.8210 C   0  0  0  0  0  0  0  0  0  0  0  0
   -5.3680   -1.1350   -0.6660 O   0  0  0  0  0  0  0  0  0  0  0  0
   -1.1480   -0.9950    1.5680 C   0  0  1  0  0  0  0  0  0  0  0  0
   -1.4780   -2.3760    1.6930 O   0  0  0  0  0  0  0  0  0  0  0  0
    0.3490   -1.0010    1.6250 C   0  0  1  0  0  0  0  0  0  0  0  0
    0.5920   -1.5670    2.9570 O   0  0  0  0  0  0  0  0  0  0  0  0
    0.9470   -1.9120    0.8170 O   0  0  0  0  0  0  0  0  0  0  0  0
    2.1410   -1.7030    0.2540 C   0  0  0  0  0  0  0  0  0  0  0  0
    2.3540   -0.5340   -0.6490 C   0  0  2  0  0  0  0  0  0  0  0  0
    3.8480   -0.5330   -1.0050 C   0  0  0  0  0  0  0  0  0  0  0  0
    4.3860    0.2500   -0.0110 O   0  0  0  0  0  0  0  0  0  0  0  0
    3.4390    1.2210    0.2000 C   0  0  1  0  0  0  0  0  0  0  0  0
    3.6910    2.3450   -0.8000 C   0  0  0  0  0  0  0  0  0  0  0  0
    2.7120    3.3110   -0.5560 O   0  0  0  0  0  0  0  0  0  0  0  0
    2.1920    0.6900   -0.0240 O   0  0  0  0  0  0  0  0  0  0  0  0
  1  2  1  0
  2  3  1  0
  3  4  1  0
  4  5  1  6
  4  6  1  0
  4 10  1  0
  6  7  1  6
  6  8  1  0
  8  9  1  0
 10 11  1  6
 10 12  1  0
 12 13  1  1
 12 14  1  0
 14 15  1  0
 16 15  1  1
 16 17  1  0
 16 22  1  0
 17 18  1  0
 18 19  1  0
 19 20  1  6
 19 22  1  0
 20 21  1  0
M  END
