
     RDKit          3D

 22 22  0  0  0  0  0  0  0  0999 V2000
    3.3230    1.2400    1.1860 O   0  0  0  0  0  0  0  0  0  0  0  0
    2.4820    0.7830    0.3890 C   0  0  0  0  0  0  0  0  0  0  0  0
    2.9110    0.2290   -0.7680 O   0  0  0  0  0  0  0  0  0  0  0  0
    4.1390    0.0210   -1.3120 C   0  0  0  0  0  0  0  0  0  0  0  0
    5.0970   -0.9360   -0.7190 C   0  0  1  0  0  0  0  0  0  0  0  0
    6.2670   -0.9250   -1.5590 O   0  0  0  0  0  0  0  0  0  0  0  0
    5.6240   -0.6690    0.6480 C   0  0  0  0  0  0  0  0  0  0  0  0
    6.2580    0.5660    0.7600 O   0  0  0  0  0  0  0  0  0  0  0  0
    1.0510    0.8700    0.7530 C   0  0  2  0  0  0  0  0  0  0  0  0
    0.8850    1.4800    1.9870 O   0  0  0  0  0  0  0  0  0  0  0  0
    0.4360   -0.5070    0.7860 C   0  0  0  0  0  0  0  0  0  0  0  0
   -1.0450   -0.1420    0.7110 C   0  0  1  0  0  0  0  0  0  0  0  0
   -1.4720   -0.0700    2.0410 O   0  0  0  0  0  0  0  0  0  0  0  0
   -1.0420    1.1920    0.0700 C   0  0  2  0  0  0  0  0  0  0  0  0
   -1.8560    1.1800   -1.1910 C   0  0  0  0  0  0  0  0  0  0  0  0
   -3.1690    0.9960   -1.1400 O   0  0  0  0  0  0  0  0  0  0  0  0
   -3.7860   -0.0820   -0.6530 C   0  0  0  0  0  0  0  0  0  0  0  0
   -5.3200    0.0480   -0.7990 C   0  0  2  0  0  0  0  0  0  0  0  0
   -5.7650    1.1590   -0.1080 O   0  0  0  0  0  0  0  0  0  0  0  0
   -5.9990   -1.1700   -0.2380 C   0  0  0  0  0  0  0  0  0  0  0  0
   -5.7220   -1.3500    1.1180 O   0  0  0  0  0  0  0  0  0  0  0  0
    0.2960    1.5050   -0.2300 O   0  0  0  0  0  0  0  0  0  0  0  0
  1  2  2  0
  2  3  1  0
  2  9  1  0
  3  4  1  0
  4  5  1  0
  5  6  1  6
  5  7  1  0
  7  8  1  0
  9 10  1  1
  9 11  1  0
  9 22  1  0
 11 12  1  0
 12 13  1  1
 12 14  1  0
 14 15  1  6
 14 22  1  0
 15 16  1  0
 16 17  1  0
 17 18  1  0
 18 19  1  1
 18 20  1  0
 20 21  1  0
M  END
