
     RDKit          3D

 22 22  0  0  0  0  0  0  0  0999 V2000
   -5.5730   -1.6870    2.1790 C   0  0  0  0  0  0  0  0  0  0  0  0
   -5.2290   -0.5150    1.4890 O   0  0  0  0  0  0  0  0  0  0  0  0
   -4.2220   -0.7760    0.5800 C   0  0  1  0  0  0  0  0  0  0  0  0
   -4.7860   -0.4420   -0.8050 C   0  0  0  0  0  0  0  0  0  0  0  0
   -3.8250   -0.6820   -1.7620 O   0  0  0  0  0  0  0  0  0  0  0  0
   -2.9980    0.0790    0.8230 C   0  0  2  0  0  0  0  0  0  0  0  0
   -3.2790    1.4110    0.7270 O   0  0  0  0  0  0  0  0  0  0  0  0
   -2.4690    1.9820   -0.2250 C   0  0  0  0  0  0  0  0  0  0  0  0
   -1.3740    0.9460   -0.4360 C   0  0  1  0  0  0  0  0  0  0  0  0
   -1.1470    0.8830   -1.7950 O   0  0  0  0  0  0  0  0  0  0  0  0
   -0.2070    1.3700    0.3880 C   0  0  0  0  0  0  0  0  0  0  0  0
    0.9100    0.6030    0.3400 O   0  0  0  0  0  0  0  0  0  0  0  0
    1.5650    0.4530   -0.8380 C   0  0  2  0  0  0  0  0  0  0  0  0
    1.4420   -0.9100   -1.2020 O   0  0  0  0  0  0  0  0  0  0  0  0
    3.0600    0.6920   -0.7380 C   0  0  2  0  0  0  0  0  0  0  0  0
    3.5690    0.4960   -2.0430 O   0  0  0  0  0  0  0  0  0  0  0  0
    3.7150   -0.3690    0.1210 C   0  0  0  0  0  0  0  0  0  0  0  0
    5.2020   -0.0880    0.1900 C   0  0  2  0  0  0  0  0  0  0  0  0
    5.7950   -0.1050   -1.0470 O   0  0  0  0  0  0  0  0  0  0  0  0
    5.8620   -1.0640    1.1700 C   0  0  0  0  0  0  0  0  0  0  0  0
    5.8020   -2.3670    0.7250 O   0  0  0  0  0  0  0  0  0  0  0  0
   -1.9510   -0.2410    0.0080 O   0  0  0  0  0  0  0  0  0  0  0  0
  1  2  1  0
  2  3  1  0
  3  4  1  6
  3  6  1  0
  4  5  1  0
  6  7  1  6
  6 22  1  0
  7  8  1  0
  8  9  1  0
  9 10  1  6
  9 11  1  0
  9 22  1  0
 11 12  1  0
 12 13  1  0
 13 14  1  1
 13 15  1  0
 15 16  1  6
 15 17  1  0
 17 18  1  0
 18 19  1  6
 18 20  1  0
 20 21  1  0
M  END
