
     RDKit          3D

 22 22  0  0  0  0  0  0  0  0999 V2000
    3.5200    2.1350   -0.7960 C   0  0  0  0  0  0  0  0  0  0  0  0
    2.1940    1.8830   -0.5220 O   0  0  0  0  0  0  0  0  0  0  0  0
    1.5870    1.2280   -1.5770 C   0  0  0  0  0  0  0  0  0  0  0  0
    0.1480    0.8950   -1.4070 C   0  0  1  0  0  0  0  0  0  0  0  0
   -0.3120    0.2840   -2.6080 O   0  0  0  0  0  0  0  0  0  0  0  0
   -0.2570    0.1180   -0.2190 C   0  0  1  0  0  0  0  0  0  0  0  0
    0.1380    0.8170    1.0470 C   0  0  0  0  0  0  0  0  0  0  0  0
   -0.5320    2.1340    1.1430 C   0  0  0  0  0  0  0  0  0  0  0  0
   -1.4120    2.5740    0.3670 O   0  0  0  0  0  0  0  0  0  0  0  0
   -0.1870    3.0240    2.1890 O   0  0  0  0  0  0  0  0  0  0  0  0
   -0.8310    4.2740    2.2680 C   0  0  0  0  0  0  0  0  0  0  0  0
   -1.6810    0.0940   -0.2400 O   0  0  0  0  0  0  0  0  0  0  0  0
   -2.0920   -0.8970    0.6110 C   0  0  2  0  0  0  0  0  0  0  0  0
   -2.3580   -0.3760    1.8540 O   0  0  0  0  0  0  0  0  0  0  0  0
   -1.1050   -1.9810    0.5120 C   0  0  2  0  0  0  0  0  0  0  0  0
   -1.6640   -2.9550   -0.3670 O   0  0  0  0  0  0  0  0  0  0  0  0
   -0.7510   -2.7270    1.7440 C   0  0  0  0  0  0  0  0  0  0  0  0
    0.1840   -3.7430    1.4210 O   0  0  0  0  0  0  0  0  0  0  0  0
    0.0780   -1.3410   -0.2010 C   0  0  1  0  0  0  0  0  0  0  0  0
    0.2770   -2.0130   -1.5100 C   0  0  1  0  0  0  0  0  0  0  0  0
    0.6030   -3.3670   -1.1910 O   0  0  0  0  0  0  0  0  0  0  0  0
   -0.9130   -2.1570   -2.2400 O   0  0  0  0  0  0  0  0  0  0  0  0
  1  2  1  0
  2  3  1  0
  3  4  1  0
  4  5  1  6
  4  6  1  0
  6  7  1  1
  6 12  1  0
  6 19  1  0
  7  8  1  0
  8  9  2  0
  8 10  1  0
 10 11  1  0
 12 13  1  0
 13 14  1  1
 13 15  1  0
 15 16  1  6
 15 17  1  0
 15 19  1  0
 17 18  1  0
 19 20  1  6
 20 21  1  1
 20 22  1  0
M  END
