
     RDKit          3D

 22 22  0  0  0  0  0  0  0  0999 V2000
    0.6970    1.0020   -1.8150 C   0  0  0  0  0  0  0  0  0  0  0  0
    0.1840    0.3620   -0.5060 C   0  0  2  0  0  0  0  0  0  0  0  0
   -1.2720    0.6190   -0.4870 C   0  0  2  0  0  0  0  0  0  0  0  0
   -1.9330    0.1950   -1.8140 C   0  0  0  0  0  0  0  0  0  0  0  0
   -1.4210    2.0340   -0.5190 O   0  0  0  0  0  0  0  0  0  0  0  0
   -2.0960    0.1290    0.6170 C   0  0  1  0  0  0  0  0  0  0  0  0
   -1.6960    0.7090    1.8360 O   0  0  0  0  0  0  0  0  0  0  0  0
   -3.5250    0.6680    0.4120 C   0  0  0  0  0  0  0  0  0  0  0  0
   -4.3340    0.2850    1.4850 O   0  0  0  0  0  0  0  0  0  0  0  0
   -2.2640   -1.3440    0.7890 C   0  0  0  0  0  0  0  0  0  0  0  0
   -1.1720   -2.0520    1.1870 O   0  0  0  0  0  0  0  0  0  0  0  0
    0.9810    1.0470    0.5750 C   0  0  0  0  0  0  0  0  0  0  0  0
    2.3870    0.4540    0.6690 C   0  0  2  0  0  0  0  0  0  0  0  0
    2.4820   -0.4440    1.7580 O   0  0  0  0  0  0  0  0  0  0  0  0
    3.3450    1.5660    0.8900 C   0  0  0  0  0  0  0  0  0  0  0  0
    4.0710    1.5830    1.9300 O   0  0  0  0  0  0  0  0  0  0  0  0
    3.5000    2.6190    0.0030 O   0  0  0  0  0  0  0  0  0  0  0  0
    2.7500   -0.2560   -0.4410 O   0  0  0  0  0  0  0  0  0  0  0  0
    1.8410   -1.1800   -0.8810 C   0  0  1  0  0  0  0  0  0  0  0  0
    2.3030   -2.5490   -0.3750 C   0  0  0  0  0  0  0  0  0  0  0  0
    3.5710   -2.7590   -0.9190 O   0  0  0  0  0  0  0  0  0  0  0  0
    0.5470   -0.9800   -0.4660 O   0  0  0  0  0  0  0  0  0  0  0  0
  2  1  1  6
  2  3  1  0
  2 12  1  0
  2 22  1  0
  3  4  1  6
  3  5  1  0
  3  6  1  0
  6  7  1  1
  6  8  1  0
  6 10  1  0
  8  9  1  0
 10 11  1  0
 12 13  1  0
 13 14  1  1
 13 15  1  0
 13 18  1  0
 15 16  2  0
 15 17  1  0
 18 19  1  0
 19 20  1  1
 19 22  1  0
 20 21  1  0
M  END
