
     RDKit          3D

 22 22  0  0  0  0  0  0  0  0999 V2000
   -2.5370   -2.9620    0.5890 C   0  0  0  0  0  0  0  0  0  0  0  0
   -1.4150   -2.1780    0.8060 O   0  0  0  0  0  0  0  0  0  0  0  0
   -1.7410   -0.8780    0.8900 C   0  0  1  0  0  0  0  0  0  0  0  0
   -1.5480   -0.3880    2.2060 O   0  0  0  0  0  0  0  0  0  0  0  0
   -1.1430    0.0840   -0.1040 C   0  0  1  0  0  0  0  0  0  0  0  0
   -1.5270   -0.3260   -1.5030 C   0  0  0  0  0  0  0  0  0  0  0  0
   -2.9100   -0.3350   -1.7170 O   0  0  0  0  0  0  0  0  0  0  0  0
   -1.9050    1.3490    0.1840 C   0  0  2  0  0  0  0  0  0  0  0  0
   -3.2710    0.9660   -0.0680 O   0  0  0  0  0  0  0  0  0  0  0  0
   -1.6720    2.5260   -0.6580 C   0  0  0  0  0  0  0  0  0  0  0  0
   -2.6610    3.4800   -0.2550 O   0  0  0  0  0  0  0  0  0  0  0  0
    0.3600    0.2200   -0.0390 C   0  0  2  0  0  0  0  0  0  0  0  0
    1.0570   -1.0660   -0.2740 C   0  0  0  0  0  0  0  0  0  0  0  0
    2.5450   -1.1070   -0.2380 C   0  0  2  0  0  0  0  0  0  0  0  0
    2.7890   -2.5410   -0.5200 O   0  0  0  0  0  0  0  0  0  0  0  0
    3.1310   -1.0140    1.0010 O   0  0  0  0  0  0  0  0  0  0  0  0
    4.3970   -0.5040    1.0130 C   0  0  0  0  0  0  0  0  0  0  0  0
    4.5430    0.7700    0.5160 O   0  0  0  0  0  0  0  0  0  0  0  0
    0.8530    1.0480    1.0670 C   0  0  0  0  0  0  0  0  0  0  0  0
    1.7560    1.9210    0.5510 O   0  0  0  0  0  0  0  0  0  0  0  0
    1.7450    1.8180   -0.8140 C   0  0  0  0  0  0  0  0  0  0  0  0
    0.6860    1.0200   -1.1660 O   0  0  0  0  0  0  0  0  0  0  0  0
  1  2  1  0
  2  3  1  0
  3  4  1  1
  3  5  1  0
  5  6  1  6
  5  8  1  0
  5 12  1  0
  6  7  1  0
  8  9  1  6
  8 10  1  0
 10 11  1  0
 12 13  1  6
 12 19  1  0
 12 22  1  0
 13 14  1  0
 14 15  1  1
 14 16  1  0
 16 17  1  0
 17 18  1  0
 19 20  1  0
 20 21  1  0
 21 22  1  0
M  END
