
     RDKit          3D

 31 32  0  0  0  0  0  0  0  0999 V2000
    7.7760    2.6530    0.1200 C   0  0  0  0  0  0  0  0  0  0  0  0
    6.6970    1.6570   -0.1370 C   0  0  0  0  0  0  0  0  0  0  0  0
    6.8790    0.2930    0.4830 C   0  0  2  0  0  0  0  0  0  0  0  0
    8.0150   -0.3690    0.1010 O   0  0  0  0  0  0  0  0  0  0  0  0
    5.6280   -0.5050    0.2740 C   0  0  0  0  0  0  0  0  0  0  0  0
    4.4850    0.1550   -0.0180 C   0  0  0  0  0  0  0  0  0  0  0  0
    3.2230   -0.5360   -0.1020 C   0  0  0  0  0  0  0  0  0  0  0  0
    2.1660    0.1360   -0.3710 O   0  0  0  0  0  0  0  0  0  0  0  0
    1.1450    0.5440   -1.0770 C   0  0  0  0  0  0  0  0  0  0  0  0
    0.9640    0.0410   -2.2020 O   0  0  0  0  0  0  0  0  0  0  0  0
    0.2500    1.6230   -0.4670 C   0  0  0  0  0  0  0  0  0  0  0  0
   -0.6260    0.9890    0.5530 C   0  0  0  0  0  0  0  0  0  0  0  0
   -1.5730    0.1230   -0.1000 O   0  0  0  0  0  0  0  0  0  0  0  0
   -2.6500   -0.2980    0.7780 C   0  0  0  0  0  0  0  0  0  0  0  0
   -2.5930   -0.0110    1.9350 O   0  0  0  0  0  0  0  0  0  0  0  0
   -3.7720   -1.0120    0.1860 N   0  0  0  0  0  0  0  0  0  0  0  0
   -5.0400   -0.6810    0.8490 C   0  0  0  0  0  0  0  0  0  0  0  0
   -4.9130   -0.3700    2.0900 O   0  0  0  0  0  0  0  0  0  0  0  0
   -6.3000   -0.6520    0.1750 C   0  0  2  0  0  0  0  0  0  0  0  0
   -7.0990   -1.7070   -0.4020 C   0  0  0  0  0  0  0  0  0  0  0  0
   -8.4590   -1.0610   -0.6990 C   0  0  0  0  0  0  0  0  0  0  0  0
   -9.3040   -1.7350   -1.2140 O   0  0  0  0  0  0  0  0  0  0  0  0
   -8.7580    0.3580   -0.3620 C   0  0  0  0  0  0  0  0  0  0  0  0
   -7.5790    1.2770   -0.4940 C   0  0  0  0  0  0  0  0  0  0  0  0
   -6.3550    0.5980   -0.6450 N   0  0  1  0  0  0  0  0  0  0  0  0
   -5.3230    1.3560   -0.2300 O   0  0  0  0  0  0  0  0  0  0  0  0
    3.2100   -1.8850    0.1130 C   0  0  0  0  0  0  0  0  0  0  0  0
    2.0320   -2.5780    0.0560 O   0  0  0  0  0  0  0  0  0  0  0  0
    4.4010   -2.5470    0.3990 C   0  0  0  0  0  0  0  0  0  0  0  0
    5.6000   -1.8600    0.4800 C   0  0  0  0  0  0  0  0  0  0  0  0
    6.8310   -2.5300    0.7010 N   0  0  0  0  0  0  0  0  0  0  0  0
  1  2  1  0
  2  3  1  0
  3  4  1  6
  3  5  1  0
  5  6  2  0
  5 30  1  0
  6  7  1  0
  7  8  1  0
  7 27  2  0
  8  9  1  0
  9 10  2  0
  9 11  1  0
 11 12  1  0
 12 13  1  0
 13 14  1  0
 14 15  2  0
 14 16  1  0
 16 17  1  0
 17 18  2  0
 19 17  1  6
 19 20  1  0
 19 25  1  0
 20 21  1  0
 21 22  2  0
 21 23  1  0
 23 24  1  0
 24 25  1  0
 25 26  1  1
 27 28  1  0
 27 29  1  0
 29 30  2  0
 30 31  1  0
M  CHG  2  25   1  26  -1
M  END
