
     RDKit          3D

 31 32  0  0  0  0  0  0  0  0999 V2000
   -3.9930   -1.6340    1.6560 O   0  0  0  0  0  0  0  0  0  0  0  0
   -3.7310   -1.0160    0.5940 C   0  0  0  0  0  0  0  0  0  0  0  0
   -2.4010   -0.4710    0.4070 C   0  0  0  0  0  0  0  0  0  0  0  0
   -1.9880    0.1980   -0.6510 C   0  0  0  0  0  0  0  0  0  0  0  0
   -0.6220    0.7150   -0.7580 C   0  0  0  0  0  0  0  0  0  0  0  0
   -0.1440    1.4120   -1.8250 C   0  0  0  0  0  0  0  0  0  0  0  0
    1.1680    1.7180   -1.5500 C   0  0  0  0  0  0  0  0  0  0  0  0
    1.4470    1.1910   -0.3110 C   0  0  0  0  0  0  0  0  0  0  0  0
    2.7260    1.2770    0.3800 C   0  0  0  0  0  0  0  0  0  0  0  0
    2.8890    0.7610    1.5220 O   0  0  0  0  0  0  0  0  0  0  0  0
    3.8560    1.9350   -0.1770 N   0  0  0  0  0  0  0  0  0  0  0  0
    5.1280    2.0290    0.4920 C   0  0  0  0  0  0  0  0  0  0  0  0
    5.8880    0.7580    0.4420 C   0  0  0  0  0  0  0  0  0  0  0  0
    5.4260   -0.3760   -0.1910 C   0  0  0  0  0  0  0  0  0  0  0  0
    6.1860   -1.5290   -0.1980 C   0  0  0  0  0  0  0  0  0  0  0  0
    7.4220   -1.6070    0.4140 C   0  0  0  0  0  0  0  0  0  0  0  0
    8.1790   -2.7780    0.3990 O   0  0  0  0  0  0  0  0  0  0  0  0
    7.8790   -0.4610    1.0490 C   0  0  0  0  0  0  0  0  0  0  0  0
    7.1190    0.6940    1.0570 C   0  0  0  0  0  0  0  0  0  0  0  0
    0.3560    0.6110    0.1080 O   0  0  0  0  0  0  0  0  0  0  0  0
   -4.7470   -0.8790   -0.3720 N   0  0  0  0  0  0  0  0  0  0  0  0
   -6.0650   -1.3810   -0.2800 C   0  0  0  0  0  0  0  0  0  0  0  0
   -7.1880   -0.7750   -0.1690 C   0  0  0  0  0  0  0  0  0  0  0  0
   -7.6240    0.6020   -0.0850 C   0  0  0  0  0  0  0  0  0  0  0  0
   -6.6690    1.6290   -0.0600 N   0  0  0  0  0  0  0  0  0  0  0  0
   -5.4620    1.5910    0.0440 O   0  0  0  0  0  0  0  0  0  0  0  0
   -7.1970    2.9460   -0.1410 O   0  0  0  0  0  0  0  0  0  0  0  0
   -6.1390   -2.9140   -0.3660 C   0  0  1  0  0  0  0  0  0  0  0  0
   -7.4610   -3.2470   -0.3640 F   0  0  0  0  0  0  0  0  0  0  0  0
   -5.5590   -3.2950   -1.5760 F   0  0  0  0  0  0  0  0  0  0  0  0
   -5.4590   -3.4170    0.7040 F   0  0  0  0  0  0  0  0  0  0  0  0
  1  2  2  0
  2  3  1  0
  2 21  1  0
  3  4  2  3
  4  5  1  0
  5  6  2  0
  5 20  1  0
  6  7  1  0
  7  8  2  0
  8  9  1  0
  8 20  1  0
  9 10  2  0
  9 11  1  0
 11 12  1  0
 12 13  1  0
 13 14  2  0
 13 19  1  0
 14 15  1  0
 15 16  2  0
 16 17  1  0
 16 18  1  0
 18 19  2  0
 21 22  1  0
 22 23  2  3
 22 28  1  0
 23 24  1  0
 24 25  1  0
 25 26  2  0
 25 27  1  0
 28 29  1  6
 28 30  1  0
 28 31  1  0
M  CHG  2  25   1  27  -1
M  END
