
     RDKit          3D

 29 31  0  0  0  0  0  0  0  0999 V2000
    5.4440    1.4720   -2.7530 C   0  0  0  0  0  0  0  0  0  0  0  0
    4.7620    1.0060   -1.5870 N   0  0  0  0  0  0  0  0  0  0  0  0
    3.4970    1.5510   -1.0840 C   0  0  0  0  0  0  0  0  0  0  0  0
    2.9620    2.4300   -1.7310 O   0  0  0  0  0  0  0  0  0  0  0  0
    3.0800    0.9820    0.2240 C   0  0  0  0  0  0  0  0  0  0  0  0
    3.6350    1.7150    1.3040 C   0  0  0  0  0  0  0  0  0  0  0  0
    3.6980    1.1060    2.5060 C   0  0  0  0  0  0  0  0  0  0  0  0
    3.2610   -0.1780    2.6590 C   0  0  0  0  0  0  0  0  0  0  0  0
    3.4040   -0.7540    3.8830 F   0  0  0  0  0  0  0  0  0  0  0  0
    2.7240   -0.8650    1.5790 C   0  0  0  0  0  0  0  0  0  0  0  0
    2.6070   -0.2770    0.3260 C   0  0  0  0  0  0  0  0  0  0  0  0
    1.7980   -0.8810   -0.7370 C   0  0  1  0  0  0  0  0  0  0  0  0
    2.3710   -2.3250   -0.9890 C   0  0  0  0  0  0  0  0  0  0  0  0
    0.5130   -1.0980   -0.4040 O   0  0  0  0  0  0  0  0  0  0  0  0
   -0.6940   -1.3000   -0.0930 C   0  0  0  0  0  0  0  0  0  0  0  0
   -1.7670   -0.4790   -0.4000 N   0  0  0  0  0  0  0  0  0  0  0  0
   -3.0280   -0.7870   -0.0550 C   0  0  0  0  0  0  0  0  0  0  0  0
   -4.2160    0.0040   -0.3820 C   0  0  0  0  0  0  0  0  0  0  0  0
   -5.2870   -0.5390   -1.0860 C   0  0  0  0  0  0  0  0  0  0  0  0
   -6.4490    0.1260   -1.3450 C   0  0  0  0  0  0  0  0  0  0  0  0
   -6.5350    1.4180   -0.8760 C   0  0  0  0  0  0  0  0  0  0  0  0
   -5.5200    2.0070   -0.1630 N   0  0  0  0  0  0  0  0  0  0  0  0
   -4.3920    1.3070    0.0700 C   0  0  0  0  0  0  0  0  0  0  0  0
   -3.3350    1.8510    0.7790 O   0  0  0  0  0  0  0  0  0  0  0  0
   -3.4780    3.1240    1.3110 C   0  0  0  0  0  0  0  0  0  0  0  0
   -3.3330   -1.9520    0.6330 C   0  0  0  0  0  0  0  0  0  0  0  0
   -2.3520   -2.7530    0.9360 N   0  0  0  0  0  0  0  0  0  0  0  0
   -1.0670   -2.4720    0.6060 C   0  0  0  0  0  0  0  0  0  0  0  0
   -0.1480   -3.4760    0.9050 N   0  0  0  0  0  0  0  0  0  0  0  0
  1  2  1  0
  2  3  1  0
  3  4  2  0
  3  5  1  0
  5  6  2  0
  5 11  1  0
  6  7  1  0
  7  8  2  0
  8  9  1  0
  8 10  1  0
 10 11  2  0
 11 12  1  0
 12 13  1  1
 12 14  1  0
 14 15  1  0
 15 16  2  0
 15 28  1  0
 16 17  1  0
 17 18  1  0
 17 26  2  0
 18 19  2  0
 18 23  1  0
 19 20  1  0
 20 21  2  0
 21 22  1  0
 22 23  2  0
 23 24  1  0
 24 25  1  0
 26 27  1  0
 27 28  2  0
 28 29  1  0
M  END
