
     RDKit          3D

 31 32  0  0  0  0  0  0  0  0999 V2000
    6.2920   -2.3840    0.1290 C   0  0  0  0  0  0  0  0  0  0  0  0
    6.2860   -1.1020    0.9460 C   0  0  0  0  0  0  0  0  0  0  0  0
    5.0390   -0.4560    0.6730 O   0  0  0  0  0  0  0  0  0  0  0  0
    4.7150   -0.0780   -0.6350 C   0  0  0  0  0  0  0  0  0  0  0  0
    5.5130   -0.3040   -1.5600 O   0  0  0  0  0  0  0  0  0  0  0  0
    3.4270    0.5820   -0.8800 C   0  0  0  0  0  0  0  0  0  0  0  0
    3.0020    0.9910   -2.0840 N   0  0  0  0  0  0  0  0  0  0  0  0
    1.7820    1.5490   -1.9190 C   0  0  0  0  0  0  0  0  0  0  0  0
    0.9660    2.1280   -3.0150 C   0  0  0  0  0  0  0  0  0  0  0  0
    1.4370    1.4910   -0.6000 C   0  0  0  0  0  0  0  0  0  0  0  0
    0.2260    1.9590    0.0710 C   0  0  0  0  0  0  0  0  0  0  0  0
    0.2720    3.1660    0.4970 O   0  0  0  0  0  0  0  0  0  0  0  0
   -0.9160    1.1820    0.2560 N   0  0  0  0  0  0  0  0  0  0  0  0
   -2.0670    1.7120    0.9260 C   0  0  0  0  0  0  0  0  0  0  0  0
   -2.8080    0.6050    1.6630 C   0  0  0  0  0  0  0  0  0  0  0  0
   -3.1620   -0.5660    0.7580 C   0  0  1  0  0  0  0  0  0  0  0  0
   -4.6070   -0.6560    0.6470 C   0  0  0  0  0  0  0  0  0  0  0  0
   -5.2750   -1.6980    1.0490 C   0  0  0  0  0  0  0  0  0  0  0  0
   -4.7560   -2.8750    1.6370 C   0  0  0  0  0  0  0  0  0  0  0  0
   -3.5900   -3.1800    1.8970 O   0  0  0  0  0  0  0  0  0  0  0  0
   -5.4170    0.4620    0.0290 C   0  0  2  0  0  0  0  0  0  0  0  0
   -5.0720    0.6800   -1.2880 F   0  0  0  0  0  0  0  0  0  0  0  0
   -5.3720    1.5900    0.7930 F   0  0  0  0  0  0  0  0  0  0  0  0
   -6.7590    0.0830   -0.0100 F   0  0  0  0  0  0  0  0  0  0  0  0
   -2.4640   -0.3620   -0.5740 C   0  0  2  0  0  0  0  0  0  0  0  0
   -2.5370   -1.4880   -1.4430 N   0  0  0  0  0  0  0  0  0  0  0  0
   -3.0800   -1.3710   -2.5550 O   0  0  0  0  0  0  0  0  0  0  0  0
   -2.0310   -2.7160   -1.1080 O   0  0  0  0  0  0  0  0  0  0  0  0
   -0.9770   -0.1680   -0.2160 C   0  0  0  0  0  0  0  0  0  0  0  0
    2.4720    0.8830    0.0530 C   0  0  0  0  0  0  0  0  0  0  0  0
    2.5560    0.5960    1.4960 C   0  0  0  0  0  0  0  0  0  0  0  0
  1  2  1  0
  2  3  1  0
  3  4  1  0
  4  5  2  0
  4  6  1  0
  6  7  1  0
  6 30  2  0
  7  8  1  0
  8  9  1  0
  8 10  2  0
 10 11  1  0
 10 30  1  0
 11 12  2  0
 11 13  1  0
 13 14  1  0
 13 29  1  0
 14 15  1  0
 15 16  1  0
 16 17  1  6
 16 25  1  0
 17 18  2  3
 17 21  1  0
 18 19  1  0
 19 20  2  0
 21 22  1  6
 21 23  1  0
 21 24  1  0
 25 26  1  6
 25 29  1  0
 26 27  2  0
 26 28  1  0
 30 31  1  0
M  CHG  2  26   1  28  -1
M  END
