
     RDKit          3D

 31 32  0  0  0  0  0  0  0  0999 V2000
   -6.8100   -1.0300   -2.3620 C   0  0  0  0  0  0  0  0  0  0  0  0
   -5.8880   -0.2890   -1.8060 C   0  0  0  0  0  0  0  0  0  0  0  0
   -5.6390    0.9810   -2.3700 C   0  0  0  0  0  0  0  0  0  0  0  0
   -6.3830    1.3400   -3.4720 F   0  0  0  0  0  0  0  0  0  0  0  0
   -4.7080    1.8280   -1.8590 C   0  0  0  0  0  0  0  0  0  0  0  0
   -3.9730    1.4330   -0.7410 C   0  0  0  0  0  0  0  0  0  0  0  0
   -4.1590    0.2040   -0.1320 C   0  0  0  0  0  0  0  0  0  0  0  0
   -3.4550   -0.0910    1.0610 N   0  0  0  0  0  0  0  0  0  0  0  0
   -2.2350    0.5090    1.4680 C   0  0  0  0  0  0  0  0  0  0  0  0
   -1.6940    1.3640    0.7440 O   0  0  0  0  0  0  0  0  0  0  0  0
   -1.5980    0.1020    2.7840 C   0  0  0  0  0  0  0  0  0  0  0  0
   -0.3760    0.7320    2.9630 O   0  0  0  0  0  0  0  0  0  0  0  0
    0.6700    0.5050    2.1030 C   0  0  0  0  0  0  0  0  0  0  0  0
    0.5590   -0.3660    1.0610 C   0  0  0  0  0  0  0  0  0  0  0  0
    1.6210   -0.5720    0.2120 C   0  0  0  0  0  0  0  0  0  0  0  0
    2.8130    0.1270    0.4390 C   0  0  0  0  0  0  0  0  0  0  0  0
    3.8650   -0.0920   -0.4680 N   0  0  0  0  0  0  0  0  0  0  0  0
    5.2150    0.0960   -0.1520 C   0  0  0  0  0  0  0  0  0  0  0  0
    5.5000    0.4830    1.0450 O   0  0  0  0  0  0  0  0  0  0  0  0
    6.3500   -0.1020   -1.0510 C   0  0  1  0  0  0  0  0  0  0  0  0
    7.2700   -1.1550   -0.3950 C   0  0  0  0  0  0  0  0  0  0  0  0
    6.1350   -0.5100   -2.3760 N   0  0  0  0  0  0  0  0  0  0  0  0
    5.0790   -0.7470   -2.9720 O   0  0  0  0  0  0  0  0  0  0  0  0
    7.2790   -0.6840   -3.1810 O   0  0  0  0  0  0  0  0  0  0  0  0
    2.9120    0.9970    1.4860 C   0  0  0  0  0  0  0  0  0  0  0  0
    1.8380    1.2190    2.3610 C   0  0  0  0  0  0  0  0  0  0  0  0
    1.9290    2.0910    3.4170 O   0  0  0  0  0  0  0  0  0  0  0  0
   -5.1280   -0.6360   -0.6960 C   0  0  0  0  0  0  0  0  0  0  0  0
   -5.2910   -1.8290   -0.1790 C   0  0  0  0  0  0  0  0  0  0  0  0
   -4.6060   -2.2970    0.9100 F   0  0  0  0  0  0  0  0  0  0  0  0
   -6.1550   -2.7500   -0.6690 F   0  0  0  0  0  0  0  0  0  0  0  0
  1  2  2  0
  2  3  1  0
  2 28  1  0
  3  4  1  0
  3  5  2  0
  5  6  1  0
  6  7  2  0
  7  8  1  0
  7 28  1  0
  8  9  1  0
  9 10  2  0
  9 11  1  0
 11 12  1  0
 12 13  1  0
 13 14  2  0
 13 26  1  0
 14 15  1  0
 15 16  2  0
 16 17  1  0
 16 25  1  0
 17 18  1  0
 18 19  2  0
 18 20  1  0
 20 21  1  1
 20 22  1  0
 22 23  2  0
 22 24  1  0
 25 26  2  0
 26 27  1  0
 28 29  2  3
 29 30  1  0
 29 31  1  0
M  CHG  2  22   1  24  -1
M  END
