
     RDKit          3D

 31 32  0  0  0  0  0  0  0  0999 V2000
   -2.4120    2.6880   -1.1910 C   0  0  0  0  0  0  0  0  0  0  0  0
   -2.4900    1.4660   -0.3260 C   0  0  0  0  0  0  0  0  0  0  0  0
   -3.5210    0.6280   -0.3170 C   0  0  0  0  0  0  0  0  0  0  0  0
   -4.5440    1.0700   -1.2370 N   0  0  0  0  0  0  0  0  0  0  0  0
   -5.4180    1.9080   -0.7420 O   0  0  0  0  0  0  0  0  0  0  0  0
   -3.4850   -0.6400    0.3390 C   0  0  0  0  0  0  0  0  0  0  0  0
   -4.4640   -1.4820    0.5610 C   0  0  0  0  0  0  0  0  0  0  0  0
   -5.8380   -1.6810    0.3760 C   0  0  0  0  0  0  0  0  0  0  0  0
   -6.8990   -0.8120   -0.1750 C   0  0  0  0  0  0  0  0  0  0  0  0
   -8.1640   -1.4440   -0.0210 F   0  0  0  0  0  0  0  0  0  0  0  0
   -6.3180   -2.9010    0.8640 C   0  0  0  0  0  0  0  0  0  0  0  0
   -7.5980   -3.2120    0.7520 F   0  0  0  0  0  0  0  0  0  0  0  0
   -5.4560   -3.7500    1.4470 F   0  0  0  0  0  0  0  0  0  0  0  0
   -2.1950   -1.2500    0.8140 C   0  0  0  0  0  0  0  0  0  0  0  0
   -2.2620   -2.3500    1.5100 O   0  0  0  0  0  0  0  0  0  0  0  0
   -0.9060   -0.8140    0.6010 N   0  0  0  0  0  0  0  0  0  0  0  0
    0.2660   -1.5240    1.1750 C   0  0  0  0  0  0  0  0  0  0  0  0
    1.5060   -0.8060    0.7660 C   0  0  0  0  0  0  0  0  0  0  0  0
    1.4000    0.2150    0.0510 O   0  0  0  0  0  0  0  0  0  0  0  0
    2.7860   -1.2310    1.1510 N   0  0  0  0  0  0  0  0  0  0  0  0
    4.0260   -0.6360    0.8260 C   0  0  0  0  0  0  0  0  0  0  0  0
    5.1640   -1.2450    1.3520 C   0  0  0  0  0  0  0  0  0  0  0  0
    6.4110   -0.7410    1.0920 C   0  0  0  0  0  0  0  0  0  0  0  0
    6.5990    0.3780    0.3080 C   0  0  0  0  0  0  0  0  0  0  0  0
    5.4910    1.0000   -0.2230 C   0  0  0  0  0  0  0  0  0  0  0  0
    4.2240    0.4670    0.0560 C   0  0  0  0  0  0  0  0  0  0  0  0
    5.6600    2.1120   -1.0030 O   0  0  0  0  0  0  0  0  0  0  0  0
    6.9020    2.5670   -1.5080 C   0  0  0  0  0  0  0  0  0  0  0  0
    8.0550    2.0200   -0.7460 C   0  0  0  0  0  0  0  0  0  0  0  0
    9.1570    2.6110   -0.8550 O   0  0  0  0  0  0  0  0  0  0  0  0
    7.8620    0.8980    0.0380 O   0  0  0  0  0  0  0  0  0  0  0  0
  1  2  1  0
  2  3  2  3
  3  4  1  0
  3  6  1  0
  4  5  1  0
  6  7  2  3
  6 14  1  0
  7  8  1  0
  8  9  1  0
  8 11  2  3
  9 10  1  0
 11 12  1  0
 11 13  1  0
 14 15  2  0
 14 16  1  0
 16 17  1  0
 17 18  1  0
 18 19  2  0
 18 20  1  0
 20 21  1  0
 21 22  2  0
 21 26  1  0
 22 23  1  0
 23 24  2  0
 24 25  1  0
 24 31  1  0
 25 26  2  0
 25 27  1  0
 27 28  1  0
 28 29  1  0
 29 30  2  0
 29 31  1  0
M  CHG  2   4   1   5  -1
M  END
