
     RDKit          3D

 31 32  0  0  0  0  0  0  0  0999 V2000
    6.9200   -0.9400   -1.9040 C   0  0  0  0  0  0  0  0  0  0  0  0
    7.3780   -1.3290   -0.7630 C   0  0  0  0  0  0  0  0  0  0  0  0
    6.8460   -1.3330    0.5680 C   0  0  0  0  0  0  0  0  0  0  0  0
    5.6980   -0.9440    1.1240 O   0  0  0  0  0  0  0  0  0  0  0  0
    4.5310   -0.3980    0.8160 C   0  0  0  0  0  0  0  0  0  0  0  0
    4.3100   -0.1010   -0.3710 O   0  0  0  0  0  0  0  0  0  0  0  0
    3.4620   -0.1190    1.8240 C   0  0  0  0  0  0  0  0  0  0  0  0
    2.3300    0.4580    1.2420 O   0  0  0  0  0  0  0  0  0  0  0  0
    2.2900    1.6410    0.5620 C   0  0  0  0  0  0  0  0  0  0  0  0
    3.3560    2.2920    0.4320 O   0  0  0  0  0  0  0  0  0  0  0  0
    1.0610    2.1960   -0.0280 C   0  0  0  0  0  0  0  0  0  0  0  0
    0.9360    3.3790   -0.7260 C   0  0  0  0  0  0  0  0  0  0  0  0
   -0.3440    3.5170   -1.0930 N   0  0  0  0  0  0  0  0  0  0  0  0
   -1.0100    2.4680   -0.6470 N   0  0  0  0  0  0  0  0  0  0  0  0
   -0.2000    1.6250    0.0130 C   0  0  0  0  0  0  0  0  0  0  0  0
   -0.4660    0.5040    0.5890 N   0  0  0  0  0  0  0  0  0  0  0  0
   -1.7250   -0.1030    0.6510 C   0  0  0  0  0  0  0  0  0  0  0  0
   -1.9150   -1.1540   -0.0080 O   0  0  0  0  0  0  0  0  0  0  0  0
   -2.8450    0.4350    1.4580 C   0  0  0  0  0  0  0  0  0  0  0  0
   -4.0330   -0.2740    1.3610 O   0  0  0  0  0  0  0  0  0  0  0  0
   -4.7910   -0.4800    0.2250 C   0  0  0  0  0  0  0  0  0  0  0  0
   -4.4940    0.0000   -1.0210 C   0  0  0  0  0  0  0  0  0  0  0  0
   -5.2940   -0.2380   -2.1250 C   0  0  0  0  0  0  0  0  0  0  0  0
   -6.4260   -0.9810   -1.9760 C   0  0  0  0  0  0  0  0  0  0  0  0
   -7.2290   -1.2360   -3.0220 F   0  0  0  0  0  0  0  0  0  0  0  0
   -6.7430   -1.4700   -0.7440 C   0  0  0  0  0  0  0  0  0  0  0  0
   -5.9450   -1.2310    0.3540 C   0  0  0  0  0  0  0  0  0  0  0  0
   -6.3560   -1.7970    1.6620 C   0  0  0  0  0  0  0  0  0  0  0  0
    7.7130   -1.8590    1.4990 C   0  0  0  0  0  0  0  0  0  0  0  0
    7.3350   -1.9170    2.7710 F   0  0  0  0  0  0  0  0  0  0  0  0
    8.8880   -2.2840    1.0880 F   0  0  0  0  0  0  0  0  0  0  0  0
  1  2  2  0
  2  3  1  0
  3  4  1  0
  3 29  2  3
  4  5  1  0
  5  6  2  0
  5  7  1  0
  7  8  1  0
  8  9  1  0
  9 10  2  0
  9 11  1  0
 11 12  2  0
 11 15  1  0
 12 13  1  0
 13 14  1  0
 14 15  1  0
 15 16  2  3
 16 17  1  0
 17 18  2  0
 17 19  1  0
 19 20  1  0
 20 21  1  0
 21 22  2  0
 21 27  1  0
 22 23  1  0
 23 24  2  0
 24 25  1  0
 24 26  1  0
 26 27  2  0
 27 28  1  0
 29 30  1  0
 29 31  1  0
M  END
