
     RDKit          3D

 31 32  0  0  0  0  0  0  0  0999 V2000
    4.1300    0.8600    3.0590 C   0  0  0  0  0  0  0  0  0  0  0  0
    4.1870    0.4770    1.6240 C   0  0  0  0  0  0  0  0  0  0  0  0
    3.1060   -0.0180    0.9180 C   0  0  0  0  0  0  0  0  0  0  0  0
    3.5030   -0.2660   -0.3720 C   0  0  0  0  0  0  0  0  0  0  0  0
    2.7290   -0.8100   -1.5140 C   0  0  0  0  0  0  0  0  0  0  0  0
    1.3490   -1.0760   -1.1870 N   0  0  0  0  0  0  0  0  0  0  0  0
    0.4440   -0.0380   -0.7950 C   0  0  0  0  0  0  0  0  0  0  0  0
    0.9630    1.0990   -0.7720 O   0  0  0  0  0  0  0  0  0  0  0  0
   -0.9450   -0.2180   -0.4470 C   0  0  0  0  0  0  0  0  0  0  0  0
   -1.4460   -1.4560   -0.4900 C   0  0  0  0  0  0  0  0  0  0  0  0
   -2.7970   -1.8390   -0.1820 C   0  0  0  0  0  0  0  0  0  0  0  0
   -3.2690   -3.0490   -0.2210 C   0  0  0  0  0  0  0  0  0  0  0  0
   -4.7350   -3.2540    0.1380 C   0  0  0  0  0  0  0  0  0  0  0  0
   -5.4820   -3.8300   -0.9460 N   0  0  0  0  0  0  0  0  0  0  0  0
   -6.4410   -3.1690   -1.4430 O   0  0  0  0  0  0  0  0  0  0  0  0
   -5.2390   -5.0500   -1.4950 O   0  0  0  0  0  0  0  0  0  0  0  0
   -2.5440   -4.2670   -0.5830 C   0  0  2  0  0  0  0  0  0  0  0  0
   -1.2030   -4.2710   -0.3070 F   0  0  0  0  0  0  0  0  0  0  0  0
   -2.7630   -4.5510   -1.9410 F   0  0  0  0  0  0  0  0  0  0  0  0
   -3.0720   -5.3700    0.0930 F   0  0  0  0  0  0  0  0  0  0  0  0
   -1.7730    0.8840   -0.0650 C   0  0  0  0  0  0  0  0  0  0  0  0
   -1.5580    2.1570    0.0590 C   0  0  0  0  0  0  0  0  0  0  0  0
   -0.3930    2.8680   -0.1540 O   0  0  0  0  0  0  0  0  0  0  0  0
   -0.1740    4.2190    0.1030 C   0  0  0  0  0  0  0  0  0  0  0  0
   -1.1660    4.8500    1.0420 C   0  0  0  0  0  0  0  0  0  0  0  0
   -2.4890    4.4090    0.6340 N   0  0  0  0  0  0  0  0  0  0  0  0
   -2.7010    3.0120    0.4910 C   0  0  0  0  0  0  0  0  0  0  0  0
   -3.8370    2.5550    0.7330 O   0  0  0  0  0  0  0  0  0  0  0  0
    4.8450    0.0990   -0.3950 C   0  0  0  0  0  0  0  0  0  0  0  0
    5.7300    0.0100   -1.5980 C   0  0  0  0  0  0  0  0  0  0  0  0
    5.2020    0.5270    0.7920 O   0  0  0  0  0  0  0  0  0  0  0  0
  1  2  1  0
  2  3  2  0
  2 31  1  0
  3  4  1  0
  4  5  1  0
  4 29  2  0
  5  6  1  0
  6  7  1  0
  7  8  2  0
  7  9  1  0
  9 10  2  3
  9 21  1  0
 10 11  1  0
 11 12  2  3
 12 13  1  0
 12 17  1  0
 13 14  1  0
 14 15  2  0
 14 16  1  0
 17 18  1  6
 17 19  1  0
 17 20  1  0
 21 22  2  3
 22 23  1  0
 22 27  1  0
 23 24  1  0
 24 25  1  0
 25 26  1  0
 26 27  1  0
 27 28  2  0
 29 30  1  0
 29 31  1  0
M  CHG  2  14   1  16  -1
M  END
