
     RDKit          3D

 31 32  0  0  0  0  0  0  0  0999 V2000
   -5.1690   -2.8920   -0.9910 C   0  0  0  0  0  0  0  0  0  0  0  0
   -4.0580   -1.9640   -0.7390 C   0  0  0  0  0  0  0  0  0  0  0  0
   -2.7940   -2.3860   -0.7100 O   0  0  0  0  0  0  0  0  0  0  0  0
   -2.0360   -1.3320   -0.4650 C   0  0  0  0  0  0  0  0  0  0  0  0
   -0.5340   -1.3710   -0.3500 C   0  0  0  0  0  0  0  0  0  0  0  0
   -0.0610    0.0250   -0.0700 C   0  0  0  0  0  0  0  0  0  0  0  0
    1.4240    0.1120    0.0640 C   0  0  0  0  0  0  0  0  0  0  0  0
    2.0010   -0.6780    1.1630 C   0  0  0  0  0  0  0  0  0  0  0  0
    1.2550   -1.3290    1.9190 O   0  0  0  0  0  0  0  0  0  0  0  0
    3.4430   -0.6820    1.3440 C   0  0  0  0  0  0  0  0  0  0  0  0
    4.0290   -1.4100    2.3590 C   0  0  0  0  0  0  0  0  0  0  0  0
    5.4110   -1.3880    2.5020 C   0  0  0  0  0  0  0  0  0  0  0  0
    6.1770   -0.6690    1.6650 N   0  0  0  0  0  0  0  0  0  0  0  0
    5.6490    0.0650    0.6500 C   0  0  0  0  0  0  0  0  0  0  0  0
    6.5530    0.8070   -0.1950 C   0  0  0  0  0  0  0  0  0  0  0  0
    6.0910    1.5280   -1.1890 C   0  0  0  0  0  0  0  0  0  0  0  0
    7.0440    2.2940   -2.0580 C   0  0  1  0  0  0  0  0  0  0  0  0
    7.3290    3.4920   -1.3930 F   0  0  0  0  0  0  0  0  0  0  0  0
    8.2030    1.5960   -2.2910 F   0  0  0  0  0  0  0  0  0  0  0  0
    6.4760    2.6230   -3.2740 F   0  0  0  0  0  0  0  0  0  0  0  0
    4.2910    0.0390    0.5150 C   0  0  0  0  0  0  0  0  0  0  0  0
   -2.8230   -0.2350   -0.3380 N   0  0  0  0  0  0  0  0  0  0  0  0
   -4.0910   -0.6120   -0.5060 C   0  0  0  0  0  0  0  0  0  0  0  0
   -5.2910    0.2120   -0.4580 C   0  0  0  0  0  0  0  0  0  0  0  0
   -6.4440   -0.2650   -0.6310 O   0  0  0  0  0  0  0  0  0  0  0  0
   -5.2200    1.5790   -0.2160 O   0  0  0  0  0  0  0  0  0  0  0  0
   -6.3380    2.4320   -0.1490 C   0  0  0  0  0  0  0  0  0  0  0  0
   -7.2630    2.1270    0.9400 C   0  0  0  0  0  0  0  0  0  0  0  0
   -8.3520    2.7580    1.0530 O   0  0  0  0  0  0  0  0  0  0  0  0
   -6.9780    1.1390    1.8870 N   0  0  0  0  0  0  0  0  0  0  0  0
   -7.8580    0.8580    2.9080 O   0  0  0  0  0  0  0  0  0  0  0  0
  1  2  1  0
  2  3  1  0
  2 23  2  0
  3  4  1  0
  4  5  1  0
  4 22  2  0
  5  6  1  0
  6  7  1  0
  7  8  1  0
  8  9  2  0
  8 10  1  0
 10 11  2  0
 10 21  1  0
 11 12  1  0
 12 13  2  0
 13 14  1  0
 14 15  1  0
 14 21  2  0
 15 16  2  3
 16 17  1  0
 17 18  1  1
 17 19  1  0
 17 20  1  0
 22 23  1  0
 23 24  1  0
 24 25  2  0
 24 26  1  0
 26 27  1  0
 27 28  1  0
 28 29  2  0
 28 30  1  0
 30 31  1  0
M  CHG  2  13   1  31  -1
M  END
