
     RDKit          3D

 31 32  0  0  0  0  0  0  0  0999 V2000
   -5.2270   -2.7340    0.1340 C   0  0  0  0  0  0  0  0  0  0  0  0
   -4.0920   -1.8770    0.3170 O   0  0  0  0  0  0  0  0  0  0  0  0
   -3.3590   -1.9260    1.4660 C   0  0  0  0  0  0  0  0  0  0  0  0
   -3.7460   -2.7700    2.3480 O   0  0  0  0  0  0  0  0  0  0  0  0
   -2.1830   -1.1350    1.8240 C   0  0  0  0  0  0  0  0  0  0  0  0
   -1.6520   -0.2440    0.7280 C   0  0  2  0  0  0  0  0  0  0  0  0
   -2.7400    0.6830    0.2970 C   0  0  0  0  0  0  0  0  0  0  0  0
   -3.5450    1.2510    1.2770 C   0  0  0  0  0  0  0  0  0  0  0  0
   -4.5690    2.0820    0.8960 C   0  0  0  0  0  0  0  0  0  0  0  0
   -4.8230    2.3700   -0.4240 C   0  0  0  0  0  0  0  0  0  0  0  0
   -5.9500    3.2720   -0.8060 C   0  0  0  0  0  0  0  0  0  0  0  0
   -4.0190    1.8000   -1.3210 N   0  0  0  0  0  0  0  0  0  0  0  0
   -2.9890    0.9700   -1.0130 C   0  0  0  0  0  0  0  0  0  0  0  0
   -2.1390    0.4060   -2.0850 C   0  0  2  0  0  0  0  0  0  0  0  0
   -1.1320    1.3600   -2.3150 O   0  0  0  0  0  0  0  0  0  0  0  0
   -2.9010    0.2430   -3.2540 O   0  0  0  0  0  0  0  0  0  0  0  0
   -1.6400   -0.9310   -1.7010 C   0  0  0  0  0  0  0  0  0  0  0  0
   -0.9390   -0.9610   -0.3360 C   0  0  1  0  0  0  0  0  0  0  0  0
    0.4800   -0.6130   -0.6030 C   0  0  0  0  0  0  0  0  0  0  0  0
    1.4360   -0.7790    0.4840 C   0  0  0  0  0  0  0  0  0  0  0  0
    1.0670   -1.0390    1.6390 O   0  0  0  0  0  0  0  0  0  0  0  0
    2.8560   -0.6570    0.2940 N   0  0  0  0  0  0  0  0  0  0  0  0
    3.7560   -0.8200    1.3330 N   0  0  0  0  0  0  0  0  0  0  0  0
    5.1450   -0.8030    1.0520 C   0  0  0  0  0  0  0  0  0  0  0  0
    5.5040   -0.6360   -0.1400 O   0  0  0  0  0  0  0  0  0  0  0  0
    6.1600   -0.9780    2.1380 C   0  0  0  0  0  0  0  0  0  0  0  0
    7.4390   -0.9060    1.5910 O   0  0  0  0  0  0  0  0  0  0  0  0
    7.9280    0.2000    0.9280 C   0  0  0  0  0  0  0  0  0  0  0  0
    7.1580    1.1970    0.8200 O   0  0  0  0  0  0  0  0  0  0  0  0
    9.1920    0.2770    0.3870 O   0  0  0  0  0  0  0  0  0  0  0  0
    9.6300    1.4430   -0.2770 C   0  0  0  0  0  0  0  0  0  0  0  0
  1  2  1  0
  2  3  1  0
  3  4  2  0
  3  5  1  0
  6  5  1  1
  6  7  1  0
  6 18  1  0
  7  8  2  0
  7 13  1  0
  8  9  1  0
  9 10  2  0
 10 11  1  0
 10 12  1  0
 12 13  2  0
 13 14  1  0
 14 15  1  6
 14 16  1  0
 14 17  1  0
 17 18  1  0
 18 19  1  6
 19 20  1  0
 20 21  2  0
 20 22  1  0
 22 23  1  0
 23 24  1  0
 24 25  2  0
 24 26  1  0
 26 27  1  0
 27 28  1  0
 28 29  2  0
 28 30  1  0
 30 31  1  0
M  CHG  2  12   1  15  -1
M  END
