
     RDKit          3D

 31 33  0  0  0  0  0  0  0  0999 V2000
   -7.4400    1.7630    1.8450 N   0  0  0  0  0  0  0  0  0  0  0  0
   -6.7570    0.9550    0.9060 C   0  0  0  0  0  0  0  0  0  0  0  0
   -7.4350    0.3390   -0.0720 N   0  0  0  0  0  0  0  0  0  0  0  0
   -6.8170   -0.4400   -0.9850 C   0  0  0  0  0  0  0  0  0  0  0  0
   -5.4850   -0.5970   -0.9060 N   0  0  0  0  0  0  0  0  0  0  0  0
   -4.7210   -0.0190    0.0400 C   0  0  0  0  0  0  0  0  0  0  0  0
   -5.3920    0.7780    0.9660 C   0  0  0  0  0  0  0  0  0  0  0  0
   -4.4360    1.2380    1.7930 N   0  0  0  0  0  0  0  0  0  0  0  0
   -3.2490    0.7520    1.3990 C   0  0  0  0  0  0  0  0  0  0  0  0
   -3.4080   -0.0250    0.3180 N   0  0  0  0  0  0  0  0  0  0  0  0
   -2.4130   -0.7340   -0.4180 C   0  0  2  0  0  0  0  0  0  0  0  0
   -1.3800   -1.1920    0.4050 O   0  0  0  0  0  0  0  0  0  0  0  0
   -0.3600   -1.5360   -0.4490 C   0  0  2  0  0  0  0  0  0  0  0  0
    0.9980   -1.4700    0.1920 C   0  0  0  0  0  0  0  0  0  0  0  0
    1.2970   -0.1910    0.6560 O   0  0  0  0  0  0  0  0  0  0  0  0
    2.8080   -0.1060    1.3720 P   0  0  1  0  0  0  0  0  0  0  0  0
    2.7090    0.0500    2.8800 O   0  0  0  0  0  0  0  0  0  0  0  0
    3.6160   -1.5640    1.0870 O   0  0  0  0  0  0  0  0  0  0  0  0
    3.6360    1.2080    0.7570 O   0  0  0  0  0  0  0  0  0  0  0  0
    4.9440    0.7530   -0.2100 P   0  0  2  0  0  0  0  0  0  0  0  0
    5.3880    1.9920   -0.9780 O   0  0  0  0  0  0  0  0  0  0  0  0
    4.5040   -0.4000   -1.3630 O   0  0  0  0  0  0  0  0  0  0  0  0
    6.2250    0.2630    0.7430 O   0  0  0  0  0  0  0  0  0  0  0  0
    7.6720    0.6130   -0.0560 P   0  0  1  0  0  0  0  0  0  0  0  0
    7.6510    0.0120   -1.4370 O   0  0  0  0  0  0  0  0  0  0  0  0
    7.8300    2.2980   -0.1180 O   0  0  0  0  0  0  0  0  0  0  0  0
    8.9290   -0.0710    0.8790 O   0  0  0  0  0  0  0  0  0  0  0  0
   -0.4280   -0.6090   -1.6370 C   0  0  1  0  0  0  0  0  0  0  0  0
   -0.6560   -1.3780   -2.7710 O   0  0  0  0  0  0  0  0  0  0  0  0
   -1.6530    0.2250   -1.3200 C   0  0  1  0  0  0  0  0  0  0  0  0
   -2.3680    0.5540   -2.4610 O   0  0  0  0  0  0  0  0  0  0  0  0
  1  2  1  0
  2  3  2  0
  2  7  1  0
  3  4  1  0
  4  5  2  0
  5  6  1  0
  6  7  2  0
  6 10  1  0
  7  8  1  0
  8  9  2  0
  9 10  1  0
 11 10  1  1
 11 12  1  0
 11 30  1  0
 12 13  1  0
 13 14  1  1
 13 28  1  0
 14 15  1  0
 15 16  1  0
 16 17  2  0
 16 18  1  1
 16 19  1  0
 19 20  1  0
 20 21  2  0
 20 22  1  6
 20 23  1  0
 23 24  1  0
 24 25  2  0
 24 26  1  6
 24 27  1  0
 28 29  1  6
 28 30  1  0
 30 31  1  6
M  END
