
     RDKit          3D

 30 31  0  0  0  0  0  0  0  0999 V2000
    1.8880   -4.2190   -3.4430 O   0  0  0  0  0  0  0  0  0  0  0  0
    2.8110   -3.8490   -2.2490 P   0  0  0  0  0  0  0  0  0  0  0  0
    2.4040   -2.4840   -1.1570 N   0  0  0  0  0  0  0  0  0  0  0  0
    1.6770   -1.3620   -1.6420 C   0  0  0  0  0  0  0  0  0  0  0  0
    1.3280   -1.3480   -2.8420 O   0  0  0  0  0  0  0  0  0  0  0  0
    1.3430   -0.2240   -0.7110 C   0  0  1  0  0  0  0  0  0  0  0  0
    2.6220    0.3330   -0.1360 C   0  0  0  0  0  0  0  0  0  0  0  0
    3.4130    0.7280   -1.2360 O   0  0  0  0  0  0  0  0  0  0  0  0
    4.9230    1.3900   -0.7010 P   0  0  0  0  0  0  0  0  0  0  0  0
    4.6600    2.4500    0.6370 O   0  0  0  0  0  0  0  0  0  0  0  0
    5.9790    0.1190   -0.1840 O   0  0  0  0  0  0  0  0  0  0  0  0
    0.6120    0.7370   -1.5060 N   0  0  0  0  0  0  0  0  0  0  0  0
   -0.7650    0.3710   -1.2530 C   0  0  0  0  0  0  0  0  0  0  0  0
   -1.7270    0.3550   -2.0820 O   0  0  0  0  0  0  0  0  0  0  0  0
   -0.7210    0.0380    0.1710 C   0  0  1  0  0  0  0  0  0  0  0  0
   -0.7380    1.2300    1.0710 C   0  0  0  0  0  0  0  0  0  0  0  0
   -1.8330    2.0630    1.0650 O   0  0  0  0  0  0  0  0  0  0  0  0
   -2.1880    2.9120    0.0630 C   0  0  0  0  0  0  0  0  0  0  0  0
   -1.5000    3.0150   -0.9620 O   0  0  0  0  0  0  0  0  0  0  0  0
   -3.3370    3.7160    0.1210 O   0  0  0  0  0  0  0  0  0  0  0  0
   -3.7540    4.7970   -1.1960 P   0  0  0  0  0  0  0  0  0  0  0  0
   -2.6430    5.7230   -1.7560 O   0  0  0  0  0  0  0  0  0  0  0  0
   -1.8580   -0.8760    0.5600 C   0  0  0  0  0  0  0  0  0  0  0  0
   -2.7120   -1.2520   -0.3400 N   0  0  0  0  0  0  0  0  0  0  0  0
   -3.7620   -2.1110    0.0760 C   0  0  0  0  0  0  0  0  0  0  0  0
   -4.6480   -2.5340   -0.7300 O   0  0  0  0  0  0  0  0  0  0  0  0
   -3.8690   -2.5380    1.4240 N   0  0  0  0  0  0  0  0  0  0  0  0
   -3.2380   -1.7180    2.4380 C   0  0  0  0  0  0  0  0  0  0  0  0
   -1.9650   -1.2980    1.9070 N   0  0  0  0  0  0  0  0  0  0  0  0
    0.4970   -0.6600    0.3010 O   0  0  0  0  0  0  0  0  0  0  0  0
  1  2  2  0
  2  3  1  0
  3  4  1  0
  4  5  2  0
  4  6  1  0
  6  7  1  1
  6 12  1  0
  6 30  1  0
  7  8  1  0
  8  9  1  0
  9 10  1  0
  9 11  1  0
 12 13  1  0
 13 14  2  0
 13 15  1  0
 15 16  1  1
 15 23  1  0
 15 30  1  0
 16 17  1  0
 17 18  1  0
 18 19  2  0
 18 20  1  0
 20 21  1  0
 21 22  2  0
 23 24  2  0
 23 29  1  0
 24 25  1  0
 25 26  2  0
 25 27  1  0
 27 28  1  0
 28 29  1  0
M  END
