
     RDKit          3D

 31 33  0  0  0  0  0  0  0  0999 V2000
   -0.4150    0.6200    3.1570 O   0  0  0  0  0  0  0  0  0  0  0  0
   -1.2800    0.5410    2.2330 C   0  0  0  0  0  0  0  0  0  0  0  0
   -1.0410    1.0710    0.9840 O   0  0  0  0  0  0  0  0  0  0  0  0
   -2.0660    1.3420    0.0450 C   0  0  1  0  0  0  0  0  0  0  0  0
   -2.3430    2.7980   -0.0550 C   0  0  0  0  0  0  0  0  0  0  0  0
   -1.7270    3.6590    0.6240 O   0  0  0  0  0  0  0  0  0  0  0  0
   -3.3280    3.2040   -0.9420 O   0  0  0  0  0  0  0  0  0  0  0  0
   -1.8030    0.7960   -1.2940 C   0  0  0  0  0  0  0  0  0  0  0  0
   -0.6570    0.8350   -1.9240 N   0  0  0  0  0  0  0  0  0  0  0  0
    0.4500    1.4090   -1.3790 O   0  0  0  0  0  0  0  0  0  0  0  0
    1.6470    0.5350   -0.4590 P   0  0  0  0  0  0  0  0  0  0  0  0
    1.4920   -1.1810   -0.6170 O   0  0  0  0  0  0  0  0  0  0  0  0
    3.2510    1.0720   -0.7850 O   0  0  0  0  0  0  0  0  0  0  0  0
    4.2380   -0.1630   -1.4780 P   0  0  0  0  0  0  0  0  0  0  0  0
    3.3820   -1.6140   -1.8030 O   0  0  0  0  0  0  0  0  0  0  0  0
    5.7400   -0.4290   -0.5590 N   0  0  0  0  0  0  0  0  0  0  0  0
    6.2330    0.2040    0.6470 C   0  0  0  0  0  0  0  0  0  0  0  0
    7.7340    0.0890    0.4550 C   0  0  0  0  0  0  0  0  0  0  0  0
    7.8310   -1.2520   -0.0460 O   0  0  0  0  0  0  0  0  0  0  0  0
    6.7360   -1.3770   -0.9220 C   0  0  0  0  0  0  0  0  0  0  0  0
    6.6710   -2.2030   -1.8670 O   0  0  0  0  0  0  0  0  0  0  0  0
   -3.0210    0.2290   -1.7560 N   0  0  0  0  0  0  0  0  0  0  0  0
   -3.8510    0.1580   -0.7880 C   0  0  0  0  0  0  0  0  0  0  0  0
   -5.1680   -0.3690   -0.9370 N   0  0  0  0  0  0  0  0  0  0  0  0
   -5.6010   -1.3590   -2.3860 P   0  0  0  0  0  0  0  0  0  0  0  0
   -4.1980   -2.2570   -2.9410 O   0  0  0  0  0  0  0  0  0  0  0  0
   -6.7470   -2.5560   -1.8260 O   0  0  0  0  0  0  0  0  0  0  0  0
   -3.2880    0.6630    0.4120 N   0  0  0  0  0  0  0  0  0  0  0  0
   -3.6590    0.6340    1.8110 C   0  0  0  0  0  0  0  0  0  0  0  0
   -2.5630   -0.1370    2.5240 C   0  0  1  0  0  0  0  0  0  0  0  0
   -2.5100   -1.4030    1.8960 O   0  0  0  0  0  0  0  0  0  0  0  0
  1  2  2  0
  2  3  1  0
  2 30  1  0
  3  4  1  0
  4  5  1  6
  4  8  1  0
  4 28  1  0
  5  6  2  0
  5  7  1  0
  8  9  2  3
  8 22  1  0
  9 10  1  0
 10 11  1  0
 11 12  1  0
 11 13  1  0
 13 14  1  0
 14 15  1  0
 14 16  1  0
 16 17  1  0
 16 20  1  0
 17 18  1  0
 18 19  1  0
 19 20  1  0
 20 21  2  0
 22 23  2  0
 23 24  1  0
 23 28  1  0
 24 25  1  0
 25 26  1  0
 25 27  1  0
 28 29  1  0
 29 30  1  0
 30 31  1  6
M  END
