
     RDKit          3D

 31 33  0  0  0  0  0  0  0  0999 V2000
    2.8850   -0.8730    1.3830 O   0  0  0  0  0  0  0  0  0  0  0  0
    1.7020   -0.6230    0.9310 C   0  0  0  0  0  0  0  0  0  0  0  0
    0.5720   -1.3110    1.5140 C   0  0  0  0  0  0  0  0  0  0  0  0
   -0.7320   -1.0950    0.9910 N   0  0  0  0  0  0  0  0  0  0  0  0
   -1.1300   -1.6120   -0.2760 C   0  0  0  0  0  0  0  0  0  0  0  0
   -2.6260   -1.6090   -0.5180 C   0  0  1  0  0  0  0  0  0  0  0  0
   -3.0460   -3.2370   -1.3050 P   0  0  0  0  0  0  0  0  0  0  0  0
   -4.5720   -3.2200   -2.0790 O   0  0  0  0  0  0  0  0  0  0  0  0
   -1.7680   -3.6850   -2.3540 O   0  0  0  0  0  0  0  0  0  0  0  0
   -3.4190   -1.4530    0.6620 N   0  0  0  0  0  0  0  0  0  0  0  0
   -3.0820   -0.2090    1.2940 C   0  0  1  0  0  0  0  0  0  0  0  0
   -3.1770    1.2550    0.1940 P   0  0  0  0  0  0  0  0  0  0  0  0
   -1.8460    1.4280   -0.8770 O   0  0  0  0  0  0  0  0  0  0  0  0
   -5.1110    1.3720   -0.8480 P   0  0  0  0  0  0  0  0  0  0  0  0
   -6.3250    1.7210    0.3610 O   0  0  0  0  0  0  0  0  0  0  0  0
   -5.1260    2.6290   -2.0180 O   0  0  0  0  0  0  0  0  0  0  0  0
   -3.7420    0.0050    2.5100 O   0  0  0  0  0  0  0  0  0  0  0  0
   -2.8640    0.8330    3.1310 O   0  0  0  0  0  0  0  0  0  0  0  0
   -1.5990    0.3030    2.8740 N   0  0  0  0  0  0  0  0  0  0  0  0
   -1.6670   -0.3530    1.7580 C   0  0  0  0  0  0  0  0  0  0  0  0
    1.6580    0.3250   -0.1070 N   0  0  0  0  0  0  0  0  0  0  0  0
    2.8600    0.9530   -0.6170 C   0  0  0  0  0  0  0  0  0  0  0  0
    4.0810    0.6780   -0.1470 N   0  0  0  0  0  0  0  0  0  0  0  0
    4.9590    1.4230   -0.8290 C   0  0  0  0  0  0  0  0  0  0  0  0
    6.3840    1.4420   -0.6510 C   0  0  0  0  0  0  0  0  0  0  0  0
    7.1130    2.1890   -1.3550 O   0  0  0  0  0  0  0  0  0  0  0  0
    6.9800    0.6410    0.2970 O   0  0  0  0  0  0  0  0  0  0  0  0
    8.2990    0.6310    0.4920 O   0  0  0  0  0  0  0  0  0  0  0  0
    8.6400    1.7110    1.1860 O   0  0  0  0  0  0  0  0  0  0  0  0
    4.1840    2.1510   -1.7270 C   0  0  0  0  0  0  0  0  0  0  0  0
    2.9200    1.8360   -1.5660 O   0  0  0  0  0  0  0  0  0  0  0  0
  1  2  2  0
  2  3  1  0
  2 21  1  0
  3  4  1  0
  4  5  1  0
  4 20  1  0
  5  6  1  0
  6  7  1  1
  6 10  1  0
  7  8  1  0
  7  9  1  0
 10 11  1  0
 11 12  1  6
 11 17  1  0
 11 20  1  0
 12 13  1  0
 12 14  1  0
 14 15  1  0
 14 16  1  0
 17 18  1  0
 18 19  1  0
 19 20  2  0
 21 22  1  0
 22 23  2  0
 22 31  1  0
 23 24  1  0
 24 25  1  0
 24 30  2  0
 25 26  2  0
 25 27  1  0
 27 28  1  0
 28 29  1  0
 30 31  1  0
M  END
