
     RDKit          3D

 26 28  0  0  0  0  0  0  0  0999 V2000
    7.2270   -0.3990    0.7470 C   0  0  0  0  0  0  0  0  0  0  0  0
    5.7220   -0.5900    0.7880 C   0  0  0  0  0  0  0  0  0  0  0  0
    5.1600    0.0400   -0.3130 O   0  0  0  0  0  0  0  0  0  0  0  0
    3.4470   -0.1920   -0.2430 P   0  0  0  0  0  0  0  0  0  0  0  0
    2.5390    1.3890    0.0230 C   0  0  0  0  0  0  0  0  0  0  0  0
    1.0830    1.0980   -0.0160 C   0  0  0  0  0  0  0  0  0  0  0  0
    0.3840    1.1520   -1.2020 C   0  0  0  0  0  0  0  0  0  0  0  0
   -0.9560    0.8850   -1.2590 C   0  0  0  0  0  0  0  0  0  0  0  0
   -1.7110    0.5380   -0.1130 C   0  0  0  0  0  0  0  0  0  0  0  0
   -3.1550    0.3770   -0.2810 C   0  0  0  0  0  0  0  0  0  0  0  0
   -3.9380    1.3640   -1.4920 S   0  0  0  0  0  0  0  0  0  0  0  0
   -5.5740    1.0480   -1.6190 N   0  0  0  0  0  0  0  0  0  0  0  0
   -6.0830    0.1060   -0.8070 C   0  0  0  0  0  0  0  0  0  0  0  0
   -7.3330   -0.0770   -0.9600 O   0  0  0  0  0  0  0  0  0  0  0  0
   -5.3910   -0.5970    0.0870 N   0  0  0  0  0  0  0  0  0  0  0  0
   -5.8510   -1.5850    0.8840 C   0  0  0  0  0  0  0  0  0  0  0  0
   -7.0660   -1.9720    0.9270 O   0  0  0  0  0  0  0  0  0  0  0  0
   -4.8670   -2.0960    1.6140 N   0  0  0  0  0  0  0  0  0  0  0  0
   -3.7120   -1.4490    1.3140 C   0  0  0  0  0  0  0  0  0  0  0  0
   -2.6150   -1.7280    1.8450 O   0  0  0  0  0  0  0  0  0  0  0  0
   -3.9870   -0.4810    0.3520 C   0  0  0  0  0  0  0  0  0  0  0  0
   -1.0180    0.4900    1.0550 C   0  0  0  0  0  0  0  0  0  0  0  0
    0.3650    0.7650    1.1020 C   0  0  0  0  0  0  0  0  0  0  0  0
    2.8430   -1.0970   -1.5720 O   0  0  0  0  0  0  0  0  0  0  0  0
    3.6730   -0.7800   -3.0400 P   0  0  0  0  0  0  0  0  0  0  0  0
    3.9130    0.6270   -3.6270 O   0  0  0  0  0  0  0  0  0  0  0  0
  1  2  1  0
  2  3  1  0
  3  4  1  0
  4  5  1  0
  4 24  1  0
  5  6  1  0
  6  7  2  0
  6 23  1  0
  7  8  1  0
  8  9  2  0
  9 10  1  0
  9 22  1  0
 10 11  1  0
 10 21  2  0
 11 12  1  0
 12 13  1  0
 13 14  2  0
 13 15  1  0
 15 16  1  0
 15 21  1  0
 16 17  2  0
 16 18  1  0
 18 19  1  0
 19 20  2  0
 19 21  1  0
 22 23  2  0
 24 25  1  0
 25 26  2  0
M  END
