
     RDKit          3D

 20 19  0  0  0  0  0  0  0  0999 V2000
   -4.1580   -2.0970   -0.3550 C   0  0  0  0  0  0  0  0  0  0  0  0
   -3.1760   -0.9310   -0.2250 C   0  0  0  0  0  0  0  0  0  0  0  0
   -2.3760   -0.8480   -1.3370 O   0  0  0  0  0  0  0  0  0  0  0  0
   -1.0030    0.3220   -0.9500 P   0  0  0  0  0  0  0  0  0  0  0  0
   -1.5450    1.2080    0.3430 O   0  0  0  0  0  0  0  0  0  0  0  0
   -1.3880    2.5880    0.0650 C   0  0  0  0  0  0  0  0  0  0  0  0
   -2.7940    3.2170    0.1430 C   0  0  0  0  0  0  0  0  0  0  0  0
    0.4340   -0.6810   -1.1730 C   0  0  2  0  0  0  0  0  0  0  0  0
   -0.1910   -2.4930   -1.1310 P   0  0  0  0  0  0  0  0  0  0  0  0
   -1.1200   -2.7070    0.1650 O   0  0  0  0  0  0  0  0  0  0  0  0
    1.7380   -0.4890   -0.5880 C   0  0  0  0  0  0  0  0  0  0  0  0
    2.2370   -1.3190    0.5450 C   0  0  0  0  0  0  0  0  0  0  0  0
    1.8290   -2.5260    0.7340 C   0  0  0  0  0  0  0  0  0  0  0  0
    2.0990   -3.4110    1.7030 F   0  0  0  0  0  0  0  0  0  0  0  0
    2.4260    0.6960   -0.7310 C   0  0  0  0  0  0  0  0  0  0  0  0
    3.7250    0.7900   -0.1710 C   0  0  0  0  0  0  0  0  0  0  0  0
    4.2310   -0.2520    0.4310 O   0  0  0  0  0  0  0  0  0  0  0  0
    4.5590    1.9090   -0.1660 O   0  0  0  0  0  0  0  0  0  0  0  0
    5.7970    1.6860    0.4460 O   0  0  0  0  0  0  0  0  0  0  0  0
    6.4540    0.8640   -0.3800 O   0  0  0  0  0  0  0  0  0  0  0  0
  1  2  1  0
  2  3  1  0
  3  4  1  0
  4  5  1  0
  8  4  1  1
  5  6  1  0
  6  7  1  0
  8  9  1  0
  8 11  1  0
  9 10  2  0
 11 12  1  0
 11 15  2  3
 12 13  2  3
 13 14  1  0
 15 16  1  0
 16 17  2  0
 16 18  1  0
 18 19  1  0
 19 20  1  0
M  END
