
     RDKit          3D

 25 26  0  0  0  0  0  0  0  0999 V2000
    4.5970    3.5650   -1.0740 C   0  0  0  0  0  0  0  0  0  0  0  0
    4.5180    2.5400   -0.0090 C   0  0  0  0  0  0  0  0  0  0  0  0
    5.6880    2.4740    1.1240 S   0  0  0  0  0  0  0  0  0  0  0  0
    3.4570    1.5970    0.0740 N   0  0  0  0  0  0  0  0  0  0  0  0
    3.3740    0.6140    1.0870 C   0  0  0  0  0  0  0  0  0  0  0  0
    4.3210    0.6210    1.9380 O   0  0  0  0  0  0  0  0  0  0  0  0
    2.3020   -0.3670    1.2020 C   0  0  0  0  0  0  0  0  0  0  0  0
    2.3510   -1.2970    2.2340 C   0  0  0  0  0  0  0  0  0  0  0  0
    1.3470   -2.2050    2.3290 C   0  0  0  0  0  0  0  0  0  0  0  0
    0.2980   -2.2070    1.4180 C   0  0  0  0  0  0  0  0  0  0  0  0
   -0.9940   -3.4920    1.6610 P   0  0  0  0  0  0  0  0  0  0  0  0
   -1.8430   -3.0990    3.1290 O   0  0  0  0  0  0  0  0  0  0  0  0
   -0.2210   -5.0370    1.8160 O   0  0  0  0  0  0  0  0  0  0  0  0
    0.2250   -1.2990    0.3880 C   0  0  0  0  0  0  0  0  0  0  0  0
   -0.8730   -1.3580   -0.5020 N   0  0  0  0  0  0  0  0  0  0  0  0
   -1.0420   -0.4510   -1.6150 C   0  0  2  0  0  0  0  0  0  0  0  0
    0.2690   -0.4610   -2.8960 P   0  0  0  0  0  0  0  0  0  0  0  0
    0.4940    0.8040   -3.7720 O   0  0  0  0  0  0  0  0  0  0  0  0
   -1.4900    0.9540   -1.1800 C   0  0  0  0  0  0  0  0  0  0  0  0
   -2.7960    0.3720   -0.9800 N   0  0  0  0  0  0  0  0  0  0  0  0
   -3.9270    1.1800   -1.2840 C   0  0  0  0  0  0  0  0  0  0  0  0
   -4.1180    2.3470   -0.3560 C   0  0  0  0  0  0  0  0  0  0  0  0
   -4.2930    1.9850    0.9650 O   0  0  0  0  0  0  0  0  0  0  0  0
   -2.4670   -0.5020   -2.1210 C   0  0  0  0  0  0  0  0  0  0  0  0
    1.2480   -0.3810    0.3010 C   0  0  0  0  0  0  0  0  0  0  0  0
  1  2  1  0
  2  3  2  0
  2  4  1  0
  4  5  1  0
  5  6  2  0
  5  7  1  0
  7  8  2  0
  7 25  1  0
  8  9  1  0
  9 10  2  0
 10 11  1  0
 10 14  1  0
 11 12  1  0
 11 13  1  0
 14 15  1  0
 14 25  2  0
 16 15  1  1
 16 17  1  0
 16 19  1  0
 16 24  1  0
 17 18  2  0
 19 20  1  0
 20 21  1  0
 20 24  1  0
 21 22  1  0
 22 23  1  0
M  END
