
     RDKit          3D

 25 27  0  0  0  0  0  0  0  0999 V2000
    6.8400    0.3100   -1.1220 O   0  0  0  0  0  0  0  0  0  0  0  0
    6.0020   -0.8820   -1.6540 P   0  0  0  0  0  0  0  0  0  0  0  0
    5.2600   -2.1530   -0.5200 C   0  0  0  0  0  0  0  0  0  0  0  0
    4.4560   -1.4980    0.5840 C   0  0  0  0  0  0  0  0  0  0  0  0
    3.4310   -0.7500    0.0250 O   0  0  0  0  0  0  0  0  0  0  0  0
    2.5440   -0.0230    1.3290 P   0  0  0  0  0  0  0  0  0  0  0  0
    3.3440    1.3480    1.9580 O   0  0  0  0  0  0  0  0  0  0  0  0
    0.8860    0.2180    0.9340 O   0  0  0  0  0  0  0  0  0  0  0  0
    0.3620    1.0580   -0.0130 C   0  0  0  0  0  0  0  0  0  0  0  0
    1.1380    1.8700   -0.8240 C   0  0  0  0  0  0  0  0  0  0  0  0
    0.5810    2.7060   -1.7690 C   0  0  0  0  0  0  0  0  0  0  0  0
   -0.7950    2.7040   -1.8790 C   0  0  0  0  0  0  0  0  0  0  0  0
   -1.5620    3.7860   -3.1070 S   0  0  0  0  0  0  0  0  0  0  0  0
   -1.5570    1.9170   -1.0940 N   0  0  0  0  0  0  0  0  0  0  0  0
   -1.0120    1.0890   -0.1580 C   0  0  0  0  0  0  0  0  0  0  0  0
   -1.8280    0.2660    0.6600 N   0  0  0  0  0  0  0  0  0  0  0  0
   -1.8100    0.3960    2.1000 C   0  0  0  0  0  0  0  0  0  0  0  0
   -3.2830    0.5020    2.5230 C   0  0  0  0  0  0  0  0  0  0  0  0
   -3.8970   -0.7120    2.1290 O   0  0  0  0  0  0  0  0  0  0  0  0
   -3.7360   -1.2050    0.8450 C   0  0  0  0  0  0  0  0  0  0  0  0
   -4.5640   -2.1510    0.2920 C   0  0  0  0  0  0  0  0  0  0  0  0
   -4.3300   -2.5800   -0.9850 C   0  0  0  0  0  0  0  0  0  0  0  0
   -3.2650   -2.0490   -1.6820 C   0  0  0  0  0  0  0  0  0  0  0  0
   -2.4420   -1.1220   -1.1610 N   0  0  0  0  0  0  0  0  0  0  0  0
   -2.6870   -0.7100    0.0980 C   0  0  0  0  0  0  0  0  0  0  0  0
  1  2  2  0
  2  3  1  0
  3  4  1  0
  4  5  1  0
  5  6  1  0
  6  7  1  0
  6  8  1  0
  8  9  1  0
  9 10  2  0
  9 15  1  0
 10 11  1  0
 11 12  2  0
 12 13  1  0
 12 14  1  0
 14 15  2  0
 15 16  1  0
 16 17  1  0
 16 25  1  0
 17 18  1  0
 18 19  1  0
 19 20  1  0
 20 21  2  0
 20 25  1  0
 21 22  1  0
 22 23  2  0
 23 24  1  0
 24 25  2  0
M  END
