
     RDKit          3D

 26 27  0  0  0  0  0  0  0  0999 V2000
    2.9810    0.9020   -3.3870 C   0  0  0  0  0  0  0  0  0  0  0  0
    1.9460   -0.0490   -2.7550 C   0  0  0  0  0  0  0  0  0  0  0  0
    2.6430   -0.9620   -2.0450 O   0  0  0  0  0  0  0  0  0  0  0  0
    2.2560   -1.0350   -0.3280 P   0  0  0  0  0  0  0  0  0  0  0  0
    1.0630    0.3450    0.1500 C   0  0  0  0  0  0  0  0  0  0  0  0
   -0.3040   -0.1600    0.1830 C   0  0  0  0  0  0  0  0  0  0  0  0
   -0.5700   -1.4550    0.4330 C   0  0  0  0  0  0  0  0  0  0  0  0
   -1.8010   -1.9930    0.2370 C   0  0  0  0  0  0  0  0  0  0  0  0
   -2.2280   -3.5930    0.8200 S   0  0  1  0  0  0  0  0  0  0  0  0
   -3.4510   -3.4520    2.0370 N   0  0  0  0  0  0  0  0  0  0  0  0
   -2.5780   -4.5650   -0.2490 O   0  0  0  0  0  0  0  0  0  0  0  0
   -1.0130   -4.1770    1.5550 O   0  0  0  0  0  0  0  0  0  0  0  0
   -2.7810   -1.1510   -0.2480 C   0  0  0  0  0  0  0  0  0  0  0  0
   -4.0970   -1.7840   -0.5770 C   0  0  0  0  0  0  0  0  0  0  0  0
   -2.5540    0.1910   -0.5140 C   0  0  0  0  0  0  0  0  0  0  0  0
   -1.3260    0.7650   -0.3030 C   0  0  0  0  0  0  0  0  0  0  0  0
   -0.9640    2.1570   -0.1200 C   0  0  0  0  0  0  0  0  0  0  0  0
   -1.4930    3.3570   -0.5080 N   0  0  0  0  0  0  0  0  0  0  0  0
   -2.6820    4.0500   -0.2030 C   0  0  0  0  0  0  0  0  0  0  0  0
   -2.9260    5.3620   -0.7930 N   0  0  0  0  0  0  0  0  0  0  0  0
   -3.4860    3.5290    0.5540 O   0  0  0  0  0  0  0  0  0  0  0  0
    4.2870   -0.2630    0.5240 P   0  0  0  0  0  0  0  0  0  0  0  0
    5.0110   -1.6880    1.1740 O   0  0  0  0  0  0  0  0  0  0  0  0
    4.4490   -1.6190    2.4800 C   0  0  0  0  0  0  0  0  0  0  0  0
    4.5780   -0.1710    2.9070 C   0  0  0  0  0  0  0  0  0  0  0  0
    3.8620    0.5730    1.9550 O   0  0  0  0  0  0  0  0  0  0  0  0
  1  2  1  0
  2  3  1  0
  3  4  1  0
  4  5  1  0
  4 22  1  0
  5  6  1  0
  6  7  2  0
  6 16  1  0
  7  8  1  0
  8  9  1  0
  8 13  2  0
  9 10  1  1
  9 11  2  0
  9 12  2  0
 13 14  1  0
 13 15  1  0
 15 16  2  0
 16 17  1  0
 17 18  1  0
 18 19  1  0
 19 20  1  0
 19 21  2  0
 22 23  1  0
 22 26  1  0
 23 24  1  0
 24 25  1  0
 25 26  1  0
M  END
