
     RDKit          3D

 26 28  0  0  0  0  0  0  0  0999 V2000
   -4.7210   -3.5310   -0.9950 C   0  0  0  0  0  0  0  0  0  0  0  0
   -4.0630   -2.3890   -0.2560 C   0  0  0  0  0  0  0  0  0  0  0  0
   -4.7050   -2.0330    0.8930 C   0  0  0  0  0  0  0  0  0  0  0  0
   -4.1240   -0.9530    1.5860 C   0  0  0  0  0  0  0  0  0  0  0  0
   -3.0460   -0.3380    1.1250 C   0  0  0  0  0  0  0  0  0  0  0  0
   -2.0470    1.1170    1.5950 S   0  0  0  0  0  0  0  0  0  0  0  0
   -0.8560    1.0210    0.1090 C   0  0  0  0  0  0  0  0  0  0  0  0
    0.1400    2.0640   -0.0180 C   0  0  0  0  0  0  0  0  0  0  0  0
   -0.0050    3.3470    0.0980 O   0  0  0  0  0  0  0  0  0  0  0  0
    1.1330    3.9820   -0.1050 C   0  0  0  0  0  0  0  0  0  0  0  0
    1.2600    5.4140   -0.0570 N   0  0  0  0  0  0  0  0  0  0  0  0
    0.1670    6.1360   -0.1960 C   0  0  0  0  0  0  0  0  0  0  0  0
    0.1230    7.9320   -0.1680 P   0  0  0  0  0  0  0  0  0  0  0  0
    0.2210    8.8470    1.0480 O   0  0  0  0  0  0  0  0  0  0  0  0
    2.0690    3.0830   -0.3620 N   0  0  0  0  0  0  0  0  0  0  0  0
    1.4960    1.8440   -0.3190 C   0  0  0  0  0  0  0  0  0  0  0  0
    2.2310    0.2250   -0.5780 P   0  0  0  0  0  0  0  0  0  0  0  0
    2.8930    0.2260   -2.2400 O   0  0  0  0  0  0  0  0  0  0  0  0
    3.7030   -0.0700    0.3740 O   0  0  0  0  0  0  0  0  0  0  0  0
    3.5300   -1.4470    0.7880 C   0  0  0  0  0  0  0  0  0  0  0  0
    4.5640   -2.2460    0.0870 C   0  0  0  0  0  0  0  0  0  0  0  0
    4.4860   -3.5940    0.3700 O   0  0  0  0  0  0  0  0  0  0  0  0
    5.3510   -4.2260   -0.5230 O   0  0  0  0  0  0  0  0  0  0  0  0
   -1.3600    0.0140   -0.4270 N   0  0  0  0  0  0  0  0  0  0  0  0
   -2.3450   -0.7030   -0.0890 C   0  0  0  0  0  0  0  0  0  0  0  0
   -2.9450   -1.7930   -0.7540 C   0  0  0  0  0  0  0  0  0  0  0  0
  1  2  1  0
  2  3  2  0
  2 26  1  0
  3  4  1  0
  4  5  2  0
  5  6  1  0
  5 25  1  0
  6  7  1  0
  7  8  1  0
  7 24  2  0
  8  9  1  0
  8 16  2  0
  9 10  1  0
 10 11  1  0
 10 15  2  0
 11 12  2  3
 12 13  1  0
 13 14  2  0
 15 16  1  0
 16 17  1  0
 17 18  1  0
 17 19  1  0
 19 20  1  0
 20 21  1  0
 21 22  1  0
 22 23  1  0
 24 25  1  0
 25 26  2  0
M  END
