
     RDKit          3D

 19 18  0  0  0  0  0  0  0  0999 V2000
    5.6470   -1.7820    1.4020 C   0  0  0  0  0  0  0  0  0  0  0  0
    4.6350   -1.0510    0.9200 C   0  0  0  0  0  0  0  0  0  0  0  0
    4.7680    0.3360    1.0010 O   0  0  0  0  0  0  0  0  0  0  0  0
    3.4890   -1.7040    0.3570 C   0  0  0  0  0  0  0  0  0  0  0  0
    2.4180   -1.1460   -0.1560 C   0  0  0  0  0  0  0  0  0  0  0  0
    2.1800    0.2570   -0.2550 C   0  0  0  0  0  0  0  0  0  0  0  0
    1.1110    0.7860   -0.7660 C   0  0  0  0  0  0  0  0  0  0  0  0
   -0.0050    0.0550   -1.3160 C   0  0  0  0  0  0  0  0  0  0  0  0
   -0.1350   -1.2790   -1.3950 F   0  0  0  0  0  0  0  0  0  0  0  0
   -1.0270    0.7820   -1.8030 C   0  0  0  0  0  0  0  0  0  0  0  0
   -0.9350    2.1550   -1.7420 O   0  0  0  0  0  0  0  0  0  0  0  0
   -2.1820    0.0660   -2.3710 C   0  0  0  0  0  0  0  0  0  0  0  0
   -3.3620    0.3840   -1.6740 O   0  0  0  0  0  0  0  0  0  0  0  0
   -3.1200   -0.0190   -0.3430 C   0  0  0  0  0  0  0  0  0  0  0  0
   -4.5550    0.3110    0.7570 P   0  0  0  0  0  0  0  0  0  0  0  0
   -5.0270   -1.0960    1.6570 O   0  0  0  0  0  0  0  0  0  0  0  0
   -4.2400    1.6150    1.8660 O   0  0  0  0  0  0  0  0  0  0  0  0
   -5.1960    2.9910    1.4580 P   0  0  0  0  0  0  0  0  0  0  0  0
   -4.9570    3.7130    0.0900 O   0  0  0  0  0  0  0  0  0  0  0  0
  1  2  2  0
  2  3  1  0
  2  4  1  0
  4  5  2  3
  5  6  1  0
  6  7  2  3
  7  8  1  0
  8  9  1  0
  8 10  2  3
 10 11  1  0
 10 12  1  0
 12 13  1  0
 13 14  1  0
 14 15  1  0
 15 16  1  0
 15 17  1  0
 17 18  1  0
 18 19  2  0
M  END
