
     RDKit          3D

 19 19  0  0  0  0  0  0  0  0999 V2000
   -1.6500    1.8850    0.9960 C   0  0  0  0  0  0  0  0  0  0  0  0
   -2.6150    0.8630    0.4900 C   0  0  1  0  0  0  0  0  0  0  0  0
   -3.4020    1.3870   -0.7050 C   0  0  0  0  0  0  0  0  0  0  0  0
   -2.1950   -0.5270    0.3950 C   0  0  2  0  0  0  0  0  0  0  0  0
   -3.4710   -1.2720   -0.1090 C   0  0  0  0  0  0  0  0  0  0  0  0
   -2.0700   -1.0200    1.7250 O   0  0  0  0  0  0  0  0  0  0  0  0
   -1.0180   -1.0260   -0.3170 C   0  0  1  0  0  0  0  0  0  0  0  0
   -1.1240   -2.5690   -0.0310 C   0  0  0  0  0  0  0  0  0  0  0  0
   -1.1380   -1.1050   -1.8250 C   0  0  0  0  0  0  0  0  0  0  0  0
   -1.3870    0.0330   -2.4890 O   0  0  0  0  0  0  0  0  0  0  0  0
    0.3410   -0.7610    0.1540 C   0  0  0  0  0  0  0  0  0  0  0  0
    0.9710    0.4520    0.2860 N   0  0  0  0  0  0  0  0  0  0  0  0
    1.3660    1.1840   -0.8770 C   0  0  0  0  0  0  0  0  0  0  0  0
    2.2010    2.3860   -0.4750 C   0  0  0  0  0  0  0  0  0  0  0  0
    3.4630    2.0780   -0.0470 O   0  0  0  0  0  0  0  0  0  0  0  0
    4.0040    0.9300   -0.5480 C   0  0  0  0  0  0  0  0  0  0  0  0
    3.3300   -0.2480    0.1230 C   0  0  1  0  0  0  0  0  0  0  0  0
    4.2910   -1.0580    0.8760 N   0  0  0  0  0  0  0  0  0  0  0  0
    2.2000    0.2150    1.0360 C   0  0  0  0  0  0  0  0  0  0  0  0
  2  1  1  6
  2  3  1  0
  2  4  1  0
  4  5  1  6
  4  6  1  0
  4  7  1  0
  7  8  1  1
  7  9  1  0
  7 11  1  0
  9 10  1  0
 11 12  1  0
 12 13  1  0
 12 19  1  0
 13 14  1  0
 14 15  1  0
 15 16  1  0
 16 17  1  0
 17 18  1  1
 17 19  1  0
M  CHG  1  18   1
M  END
