
     RDKit          3D

 20 20  0  0  0  0  0  0  0  0999 V2000
   -0.6040   -0.0840   -2.5080 C   0  0  0  0  0  0  0  0  0  0  0  0
   -0.4210   -1.2860   -1.6360 C   0  0  1  0  0  0  0  0  0  0  0  0
   -0.3710   -2.4960   -2.6030 C   0  0  0  0  0  0  0  0  0  0  0  0
    0.9190   -1.1420   -0.9920 C   0  0  0  0  0  0  0  0  0  0  0  0
    1.7770   -2.0310   -1.1890 O   0  0  0  0  0  0  0  0  0  0  0  0
    1.2650   -0.0750   -0.1850 O   0  0  0  0  0  0  0  0  0  0  0  0
    2.5160    0.0830    0.4310 C   0  0  1  0  0  0  0  0  0  0  0  0
    3.2470    1.3180    0.0200 C   0  0  0  0  0  0  0  0  0  0  0  0
    3.6300    2.0960    1.2540 C   0  0  0  0  0  0  0  0  0  0  0  0
    4.3090    1.1530    2.2080 C   0  0  0  0  0  0  0  0  0  0  0  0
    3.5080    0.1270    2.6320 O   0  0  0  0  0  0  0  0  0  0  0  0
    2.3390   -0.0310    1.9270 C   0  0  0  0  0  0  0  0  0  0  0  0
   -1.4920   -1.5890   -0.6710 C   0  0  1  0  0  0  0  0  0  0  0  0
   -1.0910   -2.8310    0.0360 N   0  0  0  0  0  0  0  0  0  0  0  0
   -1.9150   -0.5920    0.3240 C   0  0  0  0  0  0  0  0  0  0  0  0
   -2.4620    0.7090   -0.1720 C   0  0  0  0  0  0  0  0  0  0  0  0
   -2.8830    1.5620    1.0480 C   0  0  2  0  0  0  0  0  0  0  0  0
   -3.8840    0.8910    1.8160 N   0  0  0  0  0  0  0  0  0  0  0  0
   -3.4340    2.8330    0.5230 C   0  0  0  0  0  0  0  0  0  0  0  0
   -4.5790    3.1330    0.7850 O   0  0  0  0  0  0  0  0  0  0  0  0
  2  1  1  6
  2  3  1  0
  2  4  1  0
  2 13  1  0
  4  5  2  0
  4  6  1  0
  7  6  1  6
  7  8  1  0
  7 12  1  0
  8  9  1  0
  9 10  1  0
 10 11  1  0
 11 12  1  0
 13 14  1  1
 13 15  1  0
 15 16  1  0
 16 17  1  0
 17 18  1  6
 17 19  1  0
 19 20  2  0
M  CHG  1  14   1
M  END
