
     RDKit          3D

 20 20  0  0  0  0  0  0  0  0999 V2000
   -5.7570   -0.6980   -0.7860 C   0  0  0  0  0  0  0  0  0  0  0  0
   -5.2990    0.6790   -1.1880 C   0  0  1  0  0  0  0  0  0  0  0  0
   -5.7830    1.0040   -2.5910 C   0  0  0  0  0  0  0  0  0  0  0  0
   -5.8160    1.7140   -0.2230 C   0  0  0  0  0  0  0  0  0  0  0  0
   -3.8810    0.6680   -1.2340 O   0  0  0  0  0  0  0  0  0  0  0  0
   -3.0730    0.3830   -0.1670 C   0  0  0  0  0  0  0  0  0  0  0  0
   -3.5930    0.1090    0.9360 O   0  0  0  0  0  0  0  0  0  0  0  0
   -1.6490    0.4030   -0.3350 N   0  0  0  0  0  0  0  0  0  0  0  0
   -0.8510    0.0970    0.8110 C   0  0  0  0  0  0  0  0  0  0  0  0
    0.6130    0.1840    0.4670 C   0  0  1  0  0  0  0  0  0  0  0  0
    0.8950    1.6110    0.0330 C   0  0  0  0  0  0  0  0  0  0  0  0
    0.5890    2.5150    1.0590 O   0  0  0  0  0  0  0  0  0  0  0  0
    1.3690   -0.1420    1.7380 C   0  0  0  0  0  0  0  0  0  0  0  0
    2.7130   -0.1300    1.6020 O   0  0  0  0  0  0  0  0  0  0  0  0
    3.3010   -1.0000    0.7500 C   0  0  2  0  0  0  0  0  0  0  0  0
    4.2370   -1.9880    1.4160 C   0  0  0  0  0  0  0  0  0  0  0  0
    5.6040   -1.3720    1.3030 C   0  0  0  0  0  0  0  0  0  0  0  0
    5.4610   -0.1570    0.4290 C   0  0  0  0  0  0  0  0  0  0  0  0
    4.1740   -0.4370   -0.3210 C   0  0  1  0  0  0  0  0  0  0  0  0
    4.5110   -1.5080   -1.2760 N   0  0  0  0  0  0  0  0  0  0  0  0
  2  1  1  1
  2  3  1  0
  2  4  1  0
  2  5  1  0
  5  6  1  0
  6  7  2  0
  6  8  1  0
  8  9  1  0
 10  9  1  1
 10 11  1  0
 10 13  1  0
 11 12  1  0
 13 14  1  0
 15 14  1  1
 15 16  1  0
 15 19  1  0
 16 17  1  0
 17 18  1  0
 18 19  1  0
 19 20  1  6
M  CHG  1  20   1
M  END
