
     RDKit          3D

 20 20  0  0  0  0  0  0  0  0999 V2000
   -0.9520   -1.7780   -1.7470 C   0  0  0  0  0  0  0  0  0  0  0  0
   -1.4600   -1.5920   -0.3500 C   0  0  1  0  0  0  0  0  0  0  0  0
   -2.7840   -2.3820   -0.3010 C   0  0  0  0  0  0  0  0  0  0  0  0
   -0.5670   -2.2640    0.6370 C   0  0  0  0  0  0  0  0  0  0  0  0
   -1.8080   -0.1770   -0.0680 C   0  0  1  0  0  0  0  0  0  0  0  0
   -2.2850   -0.0430    1.3190 N   0  0  0  0  0  0  0  0  0  0  0  0
   -0.7390    0.8440   -0.2570 C   0  0  2  0  0  0  0  0  0  0  0  0
    0.2850    0.6290    0.6070 O   0  0  0  0  0  0  0  0  0  0  0  0
    1.5590    0.7820    0.1970 C   0  0  0  0  0  0  0  0  0  0  0  0
    2.0920   -0.0210   -0.9230 C   0  0  1  0  0  0  0  0  0  0  0  0
    3.4570    0.5720   -1.2820 C   0  0  0  0  0  0  0  0  0  0  0  0
    4.5050    0.0960   -0.2900 C   0  0  0  0  0  0  0  0  0  0  0  0
    4.4950   -1.4180   -0.3570 C   0  0  0  0  0  0  0  0  0  0  0  0
    3.1070   -1.8680    0.0390 C   0  0  0  0  0  0  0  0  0  0  0  0
    2.1240   -1.3690   -0.7920 O   0  0  0  0  0  0  0  0  0  0  0  0
   -1.4270    2.1710    0.0550 C   0  0  0  0  0  0  0  0  0  0  0  0
   -1.0210    2.8620    0.9840 O   0  0  0  0  0  0  0  0  0  0  0  0
   -2.4830    2.5600   -0.7100 O   0  0  0  0  0  0  0  0  0  0  0  0
   -3.2070    3.7630   -0.5270 C   0  0  0  0  0  0  0  0  0  0  0  0
   -3.8120    3.8450    0.7690 N   0  0  0  0  0  0  0  0  0  0  0  0
  2  1  1  6
  2  3  1  0
  2  4  1  0
  2  5  1  0
  5  6  1  1
  5  7  1  0
  7  8  1  1
  7 16  1  0
  8  9  1  0
 10  9  1  1
 10 11  1  0
 10 15  1  0
 11 12  1  0
 12 13  1  0
 13 14  1  0
 14 15  1  0
 16 17  2  0
 16 18  1  0
 18 19  1  0
 19 20  1  0
M  CHG  1   6   1
M  END
