
     RDKit          3D

 20 20  0  0  0  0  0  0  0  0999 V2000
   -1.5980   -3.5570    0.8360 C   0  0  0  0  0  0  0  0  0  0  0  0
   -1.9740   -2.1730    1.2500 C   0  0  0  0  0  0  0  0  0  0  0  0
   -1.8500   -1.1660    0.1110 C   0  0  2  0  0  0  0  0  0  0  0  0
   -2.7710   -1.5940   -1.0150 C   0  0  0  0  0  0  0  0  0  0  0  0
   -0.4400   -1.1290   -0.3830 C   0  0  0  0  0  0  0  0  0  0  0  0
    0.0020    0.1530   -0.9950 C   0  0  2  0  0  0  0  0  0  0  0  0
   -0.0840   -0.0120   -2.4010 O   0  0  0  0  0  0  0  0  0  0  0  0
    1.4840    0.3310   -0.7210 C   0  0  0  0  0  0  0  0  0  0  0  0
    2.2430   -0.8440   -1.1650 N   0  0  0  0  0  0  0  0  0  0  0  0
    3.6550   -0.4860   -1.1550 C   0  0  0  0  0  0  0  0  0  0  0  0
    4.1660   -0.6680    0.2800 C   0  0  0  0  0  0  0  0  0  0  0  0
    5.4960   -0.3530    0.3940 O   0  0  0  0  0  0  0  0  0  0  0  0
   -0.7550    1.3700   -0.6070 C   0  0  2  0  0  0  0  0  0  0  0  0
   -0.1190    2.1970    0.4420 C   0  0  0  0  0  0  0  0  0  0  0  0
    1.1270    2.7380    0.1790 O   0  0  0  0  0  0  0  0  0  0  0  0
   -0.6310    2.4570    1.5890 N   0  0  0  0  0  0  0  0  0  0  0  0
    0.0270    3.2720    2.5890 C   0  0  0  0  0  0  0  0  0  0  0  0
   -2.1980    1.0470   -0.3070 C   0  0  2  0  0  0  0  0  0  0  0  0
   -2.9990    2.2120    0.1390 C   0  0  0  0  0  0  0  0  0  0  0  0
   -2.2590    0.0580    0.6590 O   0  0  0  0  0  0  0  0  0  0  0  0
  1  2  1  0
  2  3  1  0
  3  4  1  6
  3  5  1  0
  3 20  1  0
  5  6  1  0
  6  7  1  6
  6  8  1  0
  6 13  1  0
  8  9  1  0
  9 10  1  0
 10 11  1  0
 11 12  1  0
 13 14  1  1
 13 18  1  0
 14 15  1  0
 14 16  2  3
 16 17  1  0
 18 19  1  1
 18 20  1  0
M  CHG  1   9   1
M  END
