
     RDKit          3D

 22 22  0  0  0  0  0  0  0  0999 V2000
   -1.8510    3.0670    0.1230 N   0  0  0  0  0  0  0  0  0  0  0  0
   -0.7310    2.1070    0.2200 C   0  0  2  0  0  0  0  0  0  0  0  0
   -0.1310    1.9740   -1.1070 C   0  0  0  0  0  0  0  0  0  0  0  0
    0.9820    1.0820   -1.2390 N   0  0  0  0  0  0  0  0  0  0  0  0
    2.1680    1.1940   -0.5830 C   0  0  0  0  0  0  0  0  0  0  0  0
    2.1680    2.2120    0.1830 O   0  0  0  0  0  0  0  0  0  0  0  0
    3.3960    0.5970   -0.4400 N   0  0  0  0  0  0  0  0  0  0  0  0
    4.0820   -0.4950   -0.9290 C   0  0  0  0  0  0  0  0  0  0  0  0
    3.5170   -1.2100   -1.7360 O   0  0  0  0  0  0  0  0  0  0  0  0
    5.3600   -0.7260   -0.4880 O   0  0  0  0  0  0  0  0  0  0  0  0
    6.1620   -1.7700   -0.8850 C   0  0  0  0  0  0  0  0  0  0  0  0
    7.4900   -1.6200   -0.1350 C   0  0  0  0  0  0  0  0  0  0  0  0
    7.3050   -1.6660    1.2440 O   0  0  0  0  0  0  0  0  0  0  0  0
   -1.3780    0.8140    0.6760 C   0  0  2  0  0  0  0  0  0  0  0  0
   -0.4970   -0.2230    0.8300 O   0  0  0  0  0  0  0  0  0  0  0  0
   -2.4400    0.3620   -0.3200 C   0  0  0  0  0  0  0  0  0  0  0  0
   -3.1330   -0.8110    0.1770 N   0  0  0  0  0  0  0  0  0  0  0  0
   -4.5500   -0.7570   -0.1290 C   0  0  2  0  0  0  0  0  0  0  0  0
   -5.4390   -0.4000    1.0310 C   0  0  0  0  0  0  0  0  0  0  0  0
   -6.3850   -1.3050    0.5050 O   0  0  0  0  0  0  0  0  0  0  0  0
   -5.2800   -2.0520    0.0360 C   0  0  2  0  0  0  0  0  0  0  0  0
   -4.8420   -2.8750    1.0600 O   0  0  0  0  0  0  0  0  0  0  0  0
  2  1  1  6
  2  3  1  0
  2 14  1  0
  3  4  1  0
  4  5  1  0
  5  6  2  0
  5  7  1  0
  7  8  1  0
  8  9  2  0
  8 10  1  0
 10 11  1  0
 11 12  1  0
 12 13  1  0
 14 15  1  6
 14 16  1  0
 16 17  1  0
 18 17  1  1
 18 19  1  0
 18 21  1  0
 19 20  1  0
 20 21  1  0
 21 22  1  1
M  CHG  2   1   1  17   1
M  END
