
     RDKit          3D

 23 23  0  0  0  0  0  0  0  0999 V2000
   -0.4810   -2.0970    1.0260 C   0  0  0  0  0  0  0  0  0  0  0  0
   -0.7320   -0.9470    0.0410 C   0  0  2  0  0  0  0  0  0  0  0  0
    0.4660   -0.7130   -0.6780 O   0  0  0  0  0  0  0  0  0  0  0  0
    1.6710   -0.3480   -0.0560 C   0  0  0  0  0  0  0  0  0  0  0  0
    1.5670   -0.2540    1.1940 O   0  0  0  0  0  0  0  0  0  0  0  0
    2.8510   -0.1200   -0.7920 N   0  0  0  0  0  0  0  0  0  0  0  0
    4.0800    0.2440   -0.1480 C   0  0  1  0  0  0  0  0  0  0  0  0
    3.8000    1.4060    0.6260 O   0  0  0  0  0  0  0  0  0  0  0  0
    4.6560   -0.7980    0.7520 C   0  0  0  0  0  0  0  0  0  0  0  0
    3.8310   -1.1320    1.7860 O   0  0  0  0  0  0  0  0  0  0  0  0
    5.1130    0.6500   -1.1410 C   0  0  0  0  0  0  0  0  0  0  0  0
    5.5850    1.9750   -1.1430 N   0  0  0  0  0  0  0  0  0  0  0  0
    5.5300   -0.2080   -1.9470 O   0  0  0  0  0  0  0  0  0  0  0  0
   -1.1500    0.2340    0.8600 C   0  0  0  0  0  0  0  0  0  0  0  0
   -2.6130    0.0180    1.2310 C   0  0  2  0  0  0  0  0  0  0  0  0
   -3.0650    1.1070    2.2150 C   0  0  0  0  0  0  0  0  0  0  0  0
   -2.8320   -1.2380    1.8750 N   0  0  0  0  0  0  0  0  0  0  0  0
   -3.3860    0.1240    0.1210 O   0  0  0  0  0  0  0  0  0  0  0  0
   -2.9780   -0.4920   -1.0050 C   0  0  1  0  0  0  0  0  0  0  0  0
   -2.8000    0.5750   -2.0940 C   0  0  0  0  0  0  0  0  0  0  0  0
   -4.0880    1.2510   -2.3180 N   0  0  0  0  0  0  0  0  0  0  0  0
   -1.7840   -1.3560   -0.9380 C   0  0  2  0  0  0  0  0  0  0  0  0
   -2.2120   -2.6770   -0.6600 O   0  0  0  0  0  0  0  0  0  0  0  0
  2  1  1  1
  2  3  1  0
  2 14  1  0
  2 22  1  0
  3  4  1  0
  4  5  2  0
  4  6  1  0
  6  7  1  0
  7  8  1  1
  7  9  1  0
  7 11  1  0
  9 10  1  0
 11 12  1  0
 11 13  2  0
 14 15  1  0
 15 16  1  1
 15 17  1  0
 15 18  1  0
 18 19  1  0
 19 20  1  6
 19 22  1  0
 20 21  1  0
 22 23  1  1
M  CHG  1  21   1
M  END
