
     RDKit          3D

 23 23  0  0  0  0  0  0  0  0999 V2000
    0.2210    3.9630    0.6320 C   0  0  0  0  0  0  0  0  0  0  0  0
   -0.1410    2.7620   -0.1790 C   0  0  0  0  0  0  0  0  0  0  0  0
   -0.5810    2.8580   -1.3520 O   0  0  0  0  0  0  0  0  0  0  0  0
   -0.0030    1.4350    0.3400 N   0  0  0  0  0  0  0  0  0  0  0  0
   -0.3390    0.2850   -0.4100 C   0  0  2  0  0  0  0  0  0  0  0  0
   -1.3490   -0.6030    0.2700 C   0  0  1  0  0  0  0  0  0  0  0  0
   -2.6750   -0.0980    0.2560 N   0  0  0  0  0  0  0  0  0  0  0  0
   -3.1320    0.4930    1.3060 C   0  0  0  0  0  0  0  0  0  0  0  0
   -2.3310    0.6460    2.4710 N   0  0  0  0  0  0  0  0  0  0  0  0
   -4.4500    1.0270    1.3730 N   0  0  0  0  0  0  0  0  0  0  0  0
   -1.2140   -1.9850   -0.2930 C   0  0  0  0  0  0  0  0  0  0  0  0
   -0.8540   -2.0390   -1.7470 C   0  0  2  0  0  0  0  0  0  0  0  0
   -0.5060   -3.4530   -2.0640 C   0  0  0  0  0  0  0  0  0  0  0  0
   -1.3290   -4.4020   -1.8650 O   0  0  0  0  0  0  0  0  0  0  0  0
    0.7270   -3.8120   -2.5930 O   0  0  0  0  0  0  0  0  0  0  0  0
    0.2370   -1.2600   -2.0720 O   0  0  0  0  0  0  0  0  0  0  0  0
    0.7530   -0.5940   -0.9130 C   0  0  1  0  0  0  0  0  0  0  0  0
    2.0590    0.0090   -1.2430 C   0  0  2  0  0  0  0  0  0  0  0  0
    2.8740   -1.0940   -1.6780 O   0  0  0  0  0  0  0  0  0  0  0  0
    2.8110    0.5900   -0.0840 C   0  0  2  0  0  0  0  0  0  0  0  0
    4.1200    0.9810   -0.5610 O   0  0  0  0  0  0  0  0  0  0  0  0
    3.1040   -0.3500    1.0350 C   0  0  0  0  0  0  0  0  0  0  0  0
    1.9720   -0.8280    1.6710 O   0  0  0  0  0  0  0  0  0  0  0  0
  1  2  1  0
  2  3  2  0
  2  4  1  0
  5  4  1  1
  5  6  1  0
  5 17  1  0
  6  7  1  6
  6 11  1  0
  7  8  2  3
  8  9  1  0
  8 10  1  0
 11 12  1  0
 12 13  1  1
 12 16  1  0
 13 14  2  0
 13 15  1  0
 17 16  1  6
 17 18  1  0
 18 19  1  1
 18 20  1  0
 20 21  1  6
 20 22  1  0
 22 23  1  0
M  CHG  1   7   1
M  END
