
     RDKit          3D

 23 23  0  0  0  0  0  0  0  0999 V2000
    4.1270    0.8670    1.8970 C   0  0  0  0  0  0  0  0  0  0  0  0
    3.9510    1.6800    0.6190 C   0  0  2  0  0  0  0  0  0  0  0  0
    5.0960    1.6490   -0.1420 O   0  0  0  0  0  0  0  0  0  0  0  0
    3.6210    3.1320    0.9610 C   0  0  0  0  0  0  0  0  0  0  0  0
    3.4400    3.7720   -0.2660 O   0  0  0  0  0  0  0  0  0  0  0  0
    2.7630    1.1450   -0.0810 C   0  0  0  0  0  0  0  0  0  0  0  0
    1.6760    1.1460    0.5620 O   0  0  0  0  0  0  0  0  0  0  0  0
    2.7480    0.6420   -1.3910 N   0  0  0  0  0  0  0  0  0  0  0  0
    1.5820    0.1520   -1.9880 N   0  0  0  0  0  0  0  0  0  0  0  0
    0.8230   -0.8900   -1.3560 C   0  0  0  0  0  0  0  0  0  0  0  0
    1.1920   -1.3850   -0.2530 O   0  0  0  0  0  0  0  0  0  0  0  0
   -0.3650   -1.4070   -1.9360 N   0  0  0  0  0  0  0  0  0  0  0  0
   -1.1490   -2.4590   -1.3200 C   0  0  2  0  0  0  0  0  0  0  0  0
   -1.2730   -3.6600   -2.2340 C   0  0  0  0  0  0  0  0  0  0  0  0
   -2.4810   -3.4700   -2.9080 O   0  0  0  0  0  0  0  0  0  0  0  0
   -3.3630   -2.9620   -1.9860 C   0  0  0  0  0  0  0  0  0  0  0  0
   -2.5720   -2.0510   -1.0780 C   0  0  1  0  0  0  0  0  0  0  0  0
   -2.8740   -2.2210    0.2410 O   0  0  0  0  0  0  0  0  0  0  0  0
   -3.2880   -1.1700    0.9810 C   0  0  0  0  0  0  0  0  0  0  0  0
   -2.3440   -0.0350    1.1830 C   0  0  1  0  0  0  0  0  0  0  0  0
   -1.9780    0.5560    0.0030 O   0  0  0  0  0  0  0  0  0  0  0  0
   -3.0670    0.9910    2.0680 C   0  0  0  0  0  0  0  0  0  0  0  0
   -2.1830    2.1140    2.3490 N   0  0  0  0  0  0  0  0  0  0  0  0
  2  1  1  1
  2  3  1  0
  2  4  1  0
  2  6  1  0
  4  5  1  0
  6  7  2  0
  6  8  1  0
  8  9  1  0
  9 10  1  0
 10 11  2  0
 10 12  1  0
 13 12  1  6
 13 14  1  0
 13 17  1  0
 14 15  1  0
 15 16  1  0
 16 17  1  0
 17 18  1  1
 18 19  1  0
 19 20  1  0
 20 21  1  6
 20 22  1  0
 22 23  1  0
M  CHG  1  23   1
M  END
