
     RDKit          3D

 23 24  0  0  0  0  0  0  0  0999 V2000
   -5.6750    0.8020   -1.5740 N   0  0  0  0  0  0  0  0  0  0  0  0
   -5.3000   -0.1130   -0.5070 C   0  0  1  0  0  0  0  0  0  0  0  0
   -3.9680   -0.6530   -0.8290 C   0  0  0  0  0  0  0  0  0  0  0  0
   -3.7370   -1.4360   -1.8000 O   0  0  0  0  0  0  0  0  0  0  0  0
   -3.0520   -0.1480    0.1110 N   0  0  0  0  0  0  0  0  0  0  0  0
   -1.6320    0.0140   -0.1110 C   0  0  0  0  0  0  0  0  0  0  0  0
   -0.9830   -1.2810    0.3200 C   0  0  1  0  0  0  0  0  0  0  0  0
   -1.4130   -2.3840   -0.3720 O   0  0  0  0  0  0  0  0  0  0  0  0
    0.4950   -1.0850    0.3670 C   0  0  1  0  0  0  0  0  0  0  0  0
    1.1580   -0.7640   -0.9230 C   0  0  0  0  0  0  0  0  0  0  0  0
    2.4210    0.0100   -0.4340 C   0  0  2  0  0  0  0  0  0  0  0  0
    2.4370    1.2900   -1.1320 N   0  0  0  0  0  0  0  0  0  0  0  0
    3.5840   -0.8390   -0.7790 C   0  0  0  0  0  0  0  0  0  0  0  0
    4.8430   -0.3010   -0.5760 O   0  0  0  0  0  0  0  0  0  0  0  0
    5.4590    0.0870    0.5670 C   0  0  0  0  0  0  0  0  0  0  0  0
    4.9270   -0.0070    1.6860 O   0  0  0  0  0  0  0  0  0  0  0  0
    6.7790    0.6330    0.5380 N   0  0  0  0  0  0  0  0  0  0  0  0
    7.4160    1.0270    1.6570 O   0  0  0  0  0  0  0  0  0  0  0  0
    2.1370    0.1080    1.0140 C   0  0  0  0  0  0  0  0  0  0  0  0
    0.7170    0.1000    1.1160 O   0  0  0  0  0  0  0  0  0  0  0  0
   -3.7800    0.1660    1.3120 C   0  0  0  0  0  0  0  0  0  0  0  0
   -5.1130    0.6220    0.8010 C   0  0  1  0  0  0  0  0  0  0  0  0
   -5.0870    2.0030    0.6370 O   0  0  0  0  0  0  0  0  0  0  0  0
  2  1  1  6
  2  3  1  0
  2 22  1  0
  3  4  2  0
  3  5  1  0
  5  6  1  0
  5 21  1  0
  6  7  1  0
  7  8  1  6
  7  9  1  0
  9 10  1  6
  9 20  1  0
 10 11  1  0
 11 12  1  6
 11 13  1  0
 11 19  1  0
 13 14  1  0
 14 15  1  0
 15 16  2  0
 15 17  1  0
 17 18  1  0
 19 20  1  0
 21 22  1  0
 22 23  1  6
M  CHG  1  12   1
M  END
