
     RDKit          3D

 22 22  0  0  0  0  0  0  0  0999 V2000
   -0.2730   -1.7980   -0.0520 C   0  0  0  0  0  0  0  0  0  0  0  0
   -0.6370   -0.3390    0.0740 C   0  0  1  0  0  0  0  0  0  0  0  0
   -0.6290    0.1570    1.3490 O   0  0  0  0  0  0  0  0  0  0  0  0
    0.1490    0.5380   -0.8610 C   0  0  2  0  0  0  0  0  0  0  0  0
   -0.2010    0.1190   -2.3340 C   0  0  0  0  0  0  0  0  0  0  0  0
    0.1240   -1.1920   -2.5700 O   0  0  0  0  0  0  0  0  0  0  0  0
    1.5950    0.3420   -0.8680 C   0  0  0  0  0  0  0  0  0  0  0  0
    2.3060    0.2570   -1.7800 O   0  0  0  0  0  0  0  0  0  0  0  0
    2.2790    0.2170    0.6900 N   0  0  0  0  0  0  0  0  0  0  0  0
    3.6420   -0.0550    0.2290 C   0  0  0  0  0  0  0  0  0  0  0  0
    4.0480   -0.2230   -0.8530 O   0  0  0  0  0  0  0  0  0  0  0  0
    4.2610   -0.0580    1.5170 N   0  0  0  0  0  0  0  0  0  0  0  0
    5.8890   -0.2290    0.9500 C   0  0  0  0  0  0  0  0  0  0  0  0
    6.7720   -0.2490    2.0290 N   0  0  0  0  0  0  0  0  0  0  0  0
    5.9850   -0.2950   -0.2140 O   0  0  0  0  0  0  0  0  0  0  0  0
   -2.1100   -0.2810   -0.3930 C   0  0  1  0  0  0  0  0  0  0  0  0
   -2.9200   -1.1200    0.5110 N   0  0  0  0  0  0  0  0  0  0  0  0
   -2.6900    1.0860   -0.3630 C   0  0  1  0  0  0  0  0  0  0  0  0
   -4.1360    1.0290   -0.7870 C   0  0  0  0  0  0  0  0  0  0  0  0
   -4.8360    1.2420    0.3730 O   0  0  0  0  0  0  0  0  0  0  0  0
   -3.9870    1.7810    1.3070 C   0  0  0  0  0  0  0  0  0  0  0  0
   -2.6780    1.5510    0.9580 O   0  0  0  0  0  0  0  0  0  0  0  0
  2  1  1  1
  2  3  1  0
  2  4  1  0
  2 16  1  0
  4  5  1  6
  4  7  1  0
  5  6  1  0
  7  8  2  0
  7  9  1  0
  9 10  1  0
 10 11  2  0
 10 12  1  0
 12 13  1  0
 13 14  1  0
 13 15  2  0
 16 17  1  1
 16 18  1  0
 18 19  1  1
 18 22  1  0
 19 20  1  0
 20 21  1  0
 21 22  1  0
M  CHG  1  17   1
M  END
