
     RDKit          3D

 23 23  0  0  0  0  0  0  0  0999 V2000
   -5.5340    1.3930    1.9610 N   0  0  0  0  0  0  0  0  0  0  0  0
   -4.1900    1.1840    1.6000 C   0  0  0  0  0  0  0  0  0  0  0  0
   -3.2090    1.4600    2.3520 O   0  0  0  0  0  0  0  0  0  0  0  0
   -3.8840    0.5980    0.2650 C   0  0  2  0  0  0  0  0  0  0  0  0
   -4.9300   -0.3620   -0.1990 C   0  0  0  0  0  0  0  0  0  0  0  0
   -4.6330   -0.8210   -1.4790 O   0  0  0  0  0  0  0  0  0  0  0  0
   -5.6240   -1.6860   -1.9380 C   0  0  0  0  0  0  0  0  0  0  0  0
   -5.2800   -2.1180   -3.2140 O   0  0  0  0  0  0  0  0  0  0  0  0
   -2.6170    0.0150    0.3060 N   0  0  0  0  0  0  0  0  0  0  0  0
   -1.4390    0.5670   -0.4580 C   0  0  0  0  0  0  0  0  0  0  0  0
   -1.6670    1.5340   -1.0950 O   0  0  0  0  0  0  0  0  0  0  0  0
   -0.3390   -0.2450   -0.2010 N   0  0  0  0  0  0  0  0  0  0  0  0
    0.8370    0.6760   -1.1200 C   0  0  0  0  0  0  0  0  0  0  0  0
    0.3580    1.5960   -1.6440 O   0  0  0  0  0  0  0  0  0  0  0  0
    2.1280    0.0730   -1.0140 C   0  0  1  0  0  0  0  0  0  0  0  0
    3.0390    0.7510   -1.8570 O   0  0  0  0  0  0  0  0  0  0  0  0
    4.2120   -0.0250   -1.9480 C   0  0  0  0  0  0  0  0  0  0  0  0
    4.7840   -0.2840   -0.5590 C   0  0  0  0  0  0  0  0  0  0  0  0
    4.0280    0.6760    0.3690 C   0  0  2  0  0  0  0  0  0  0  0  0
    4.7420    0.9640    1.6160 C   0  0  0  0  0  0  0  0  0  0  0  0
    5.0570   -0.1020    2.4840 N   0  0  0  0  0  0  0  0  0  0  0  0
    2.6240    0.1970    0.4370 C   0  0  2  0  0  0  0  0  0  0  0  0
    2.4630   -1.0500    1.0210 O   0  0  0  0  0  0  0  0  0  0  0  0
  1  2  1  0
  2  3  2  0
  2  4  1  0
  4  5  1  1
  4  9  1  0
  5  6  1  0
  6  7  1  0
  7  8  1  0
  9 10  1  0
 10 11  2  0
 10 12  1  0
 12 13  1  0
 13 14  2  0
 15 13  1  1
 15 16  1  0
 15 22  1  0
 16 17  1  0
 17 18  1  0
 18 19  1  0
 19 20  1  1
 19 22  1  0
 20 21  1  0
 22 23  1  6
M  CHG  1  21   1
M  END
