
     RDKit          3D

 23 23  0  0  0  0  0  0  0  0999 V2000
   -2.3680   -0.8270   -1.8660 N   0  0  0  0  0  0  0  0  0  0  0  0
   -2.8860    0.0550   -0.8960 C   0  0  0  0  0  0  0  0  0  0  0  0
   -4.0940    0.3920   -0.9940 O   0  0  0  0  0  0  0  0  0  0  0  0
   -2.0260    0.5620    0.1980 C   0  0  2  0  0  0  0  0  0  0  0  0
   -0.8350    1.3380   -0.3510 C   0  0  1  0  0  0  0  0  0  0  0  0
   -1.2350    2.7870   -0.3660 C   0  0  0  0  0  0  0  0  0  0  0  0
   -0.2120    3.6580   -0.8620 N   0  0  0  0  0  0  0  0  0  0  0  0
    0.3420    1.1320    0.4350 N   0  0  0  0  0  0  0  0  0  0  0  0
    0.6840   -0.2500    0.5640 C   0  0  2  0  0  0  0  0  0  0  0  0
    1.1650   -0.5080    1.8700 O   0  0  0  0  0  0  0  0  0  0  0  0
    1.7420   -0.6100   -0.2880 O   0  0  0  0  0  0  0  0  0  0  0  0
    2.8780    0.1550   -0.0010 C   0  0  0  0  0  0  0  0  0  0  0  0
    4.0250   -0.2190   -0.9070 C   0  0  0  0  0  0  0  0  0  0  0  0
    5.2010    0.6790   -0.5020 C   0  0  0  0  0  0  0  0  0  0  0  0
    6.3130    0.3970   -1.2960 O   0  0  0  0  0  0  0  0  0  0  0  0
   -0.4030   -1.1040    0.3930 O   0  0  0  0  0  0  0  0  0  0  0  0
   -1.4760   -0.5620    1.0510 C   0  0  2  0  0  0  0  0  0  0  0  0
   -2.5670   -1.5170    1.3080 C   0  0  0  0  0  0  0  0  0  0  0  0
   -3.5870   -1.0910    1.9090 O   0  0  0  0  0  0  0  0  0  0  0  0
   -2.5540   -2.8790    0.9300 N   0  0  0  0  0  0  0  0  0  0  0  0
   -3.6590   -3.7280    1.2230 C   0  0  0  0  0  0  0  0  0  0  0  0
   -4.6560   -3.2470    1.8280 O   0  0  0  0  0  0  0  0  0  0  0  0
   -3.6490   -5.0510    0.8560 O   0  0  0  0  0  0  0  0  0  0  0  0
  1  2  1  0
  2  3  2  0
  4  2  1  6
  4  5  1  0
  4 17  1  0
  5  6  1  1
  5  8  1  0
  6  7  1  0
  8  9  1  0
  9 10  1  1
  9 11  1  0
  9 16  1  0
 11 12  1  0
 12 13  1  0
 13 14  1  0
 14 15  1  0
 16 17  1  0
 17 18  1  6
 18 19  2  0
 18 20  1  0
 20 21  1  0
 21 22  2  0
 21 23  1  0
M  CHG  1   7   1
M  END
