
     RDKit          3D

 12 13  0  0  0  0  0  0  0  0999 V2000
    2.0700    2.2250   -0.2460 O   0  0  0  0  0  0  0  0  0  0  0  0
    1.5840    0.9560   -0.1900 C   0  0  0  0  0  0  0  0  0  0  0  0
    2.4940   -0.1090   -0.3000 C   0  0  0  0  0  0  0  0  0  0  0  0
    2.0570   -1.4040   -0.2490 C   0  0  0  0  0  0  0  0  0  0  0  0
    3.2270   -2.6990   -0.3900 Cl  0  0  0  0  0  0  0  0  0  0  0  0
    0.7150   -1.6300   -0.0890 C   0  0  0  0  0  0  0  0  0  0  0  0
   -0.2300   -0.6290    0.0260 C   0  0  0  0  0  0  0  0  0  0  0  0
    0.2360    0.6850   -0.0290 C   0  0  0  0  0  0  0  0  0  0  0  0
   -0.7500    1.7520    0.0900 C   0  0  0  0  0  0  0  0  0  0  0  0
   -1.9860    1.4620    0.2380 N   0  0  0  0  0  0  0  0  0  0  0  0
   -2.5750    0.1690    0.3070 C   0  0  0  0  0  0  0  0  0  0  0  0
   -1.6520   -0.9880    0.1950 C   0  0  0  0  0  0  0  0  0  0  0  0
  1  2  1  0
  2  3  2  0
  2  8  1  0
  3  4  1  0
  4  5  1  0
  4  6  2  0
  6  7  1  0
  7  8  2  0
  7 12  1  0
  8  9  1  0
  9 10  2  0
 10 11  1  0
 11 12  1  0
M  END
