
     RDKit          3D

 12 12  0  0  0  0  0  0  0  0999 V2000
   -1.0690    2.5760   -0.5280 O   0  0  0  0  0  0  0  0  0  0  0  0
   -1.0980    1.2300   -0.1390 C   0  0  1  0  0  0  0  0  0  0  0  0
   -2.5320    0.7720   -0.1880 C   0  0  0  0  0  0  0  0  0  0  0  0
   -2.5510   -0.7130   -0.3500 C   0  0  0  0  0  0  0  0  0  0  0  0
   -1.7850   -1.3430    0.7570 C   0  0  0  0  0  0  0  0  0  0  0  0
   -0.3150   -1.1620    0.7340 C   0  0  0  0  0  0  0  0  0  0  0  0
    0.2610   -0.8020   -0.5390 N   0  0  0  0  0  0  0  0  0  0  0  0
    1.6880   -0.8000   -0.3960 C   0  0  0  0  0  0  0  0  0  0  0  0
    2.2480    0.2940    0.4440 C   0  0  0  0  0  0  0  0  0  0  0  0
    3.7760    0.1580    0.5310 C   0  0  0  0  0  0  0  0  0  0  0  0
    4.3370    1.5080    1.5500 Cl  0  0  0  0  0  0  0  0  0  0  0  0
   -0.2510    0.4220   -1.0710 C   0  0  0  0  0  0  0  0  0  0  0  0
  2  1  1  6
  2  3  1  0
  2 12  1  0
  3  4  1  0
  4  5  1  0
  5  6  1  0
  6  7  1  0
  7  8  1  0
  7 12  1  0
  8  9  1  0
  9 10  1  0
 10 11  1  0
M  END
