
     RDKit          3D

 12 12  0  0  0  0  0  0  0  0999 V2000
    0.8940    2.8000    0.8750 C   0  0  0  0  0  0  0  0  0  0  0  0
    1.6520    1.7090    0.9310 C   0  0  0  0  0  0  0  0  0  0  0  0
    3.3000    1.7930    1.5590 Cl  0  0  0  0  0  0  0  0  0  0  0  0
    1.1740    0.4200    0.4880 C   0  0  0  0  0  0  0  0  0  0  0  0
    1.9690   -0.6220    0.5680 C   0  0  0  0  0  0  0  0  0  0  0  0
    1.5130   -1.9650    0.1220 C   0  0  0  0  0  0  0  0  0  0  0  0
   -0.1500    0.3530   -0.0160 N   0  0  0  0  0  0  0  0  0  0  0  0
   -0.4630    0.3900   -1.4250 C   0  0  0  0  0  0  0  0  0  0  0  0
   -1.5720   -0.5610   -1.8070 C   0  0  0  0  0  0  0  0  0  0  0  0
   -2.5460   -0.7000   -0.8590 O   0  0  0  0  0  0  0  0  0  0  0  0
   -2.0640   -0.9840    0.4080 C   0  0  0  0  0  0  0  0  0  0  0  0
   -1.3100    0.2400    0.8840 C   0  0  0  0  0  0  0  0  0  0  0  0
  1  2  2  0
  2  3  1  0
  2  4  1  0
  4  5  2  3
  4  7  1  0
  5  6  1  0
  7  8  1  0
  7 12  1  0
  8  9  1  0
  9 10  1  0
 10 11  1  0
 11 12  1  0
M  END
