
     RDKit          3D

 28 29  0  0  0  0  0  0  0  0999 V2000
   -0.6770    1.2220   -3.7500 C   0  0  0  0  0  0  0  0  0  0  0  0
   -0.3950    0.5010   -2.4150 C   0  0  0  0  0  0  0  0  0  0  0  0
    0.7900    0.7690   -1.9100 C   0  0  0  0  0  0  0  0  0  0  0  0
    1.4960    0.3810   -0.7780 N   0  0  0  0  0  0  0  0  0  0  0  0
    2.4010   -0.6490   -0.4810 C   0  0  0  0  0  0  0  0  0  0  0  0
    3.4300   -0.4920    0.3210 C   0  0  0  0  0  0  0  0  0  0  0  0
    4.3920   -1.6040    0.6370 C   0  0  0  0  0  0  0  0  0  0  0  0
    3.7470    0.7910    0.9190 C   0  0  0  0  0  0  0  0  0  0  0  0
    3.1230    1.8620    0.7420 O   0  0  0  0  0  0  0  0  0  0  0  0
    4.9290    0.9240    1.8520 C   0  0  0  0  0  0  0  0  0  0  0  0
    5.0170    2.3540    2.3060 C   0  0  1  0  0  0  0  0  0  0  0  0
    5.1890    3.1410    1.1640 F   0  0  0  0  0  0  0  0  0  0  0  0
    3.7880    2.6900    2.8790 F   0  0  0  0  0  0  0  0  0  0  0  0
    6.0470    2.5570    3.1750 F   0  0  0  0  0  0  0  0  0  0  0  0
    2.3030   -2.0440   -1.0680 C   0  0  0  0  0  0  0  0  0  0  0  0
    1.3690   -2.8570   -0.3400 N   0  0  0  0  0  0  0  0  0  0  0  0
    0.2080   -2.1730    0.1180 C   0  0  0  0  0  0  0  0  0  0  0  0
   -0.1030   -1.2750    0.9730 C   0  0  0  0  0  0  0  0  0  0  0  0
   -1.2980   -0.5450    1.4600 C   0  0  0  0  0  0  0  0  0  0  0  0
   -1.9900    0.3240    0.4380 C   0  0  2  0  0  0  0  0  0  0  0  0
   -3.1990    0.7910    1.1010 N   0  0  0  0  0  0  0  0  0  0  0  0
   -3.9500    1.7160    0.3240 C   0  0  0  0  0  0  0  0  0  0  0  0
   -5.3650    1.2210    0.2560 C   0  0  0  0  0  0  0  0  0  0  0  0
   -5.4650    0.3150    1.4710 C   0  0  0  0  0  0  0  0  0  0  0  0
   -4.0680   -0.2760    1.5150 C   0  0  0  0  0  0  0  0  0  0  0  0
   -2.3540   -0.3550   -0.8090 C   0  0  0  0  0  0  0  0  0  0  0  0
   -1.4900   -0.2910   -1.9770 C   0  0  0  0  0  0  0  0  0  0  0  0
   -1.8300   -1.2190   -2.8470 O   0  0  0  0  0  0  0  0  0  0  0  0
  1  2  1  0
  2  3  2  0
  2 27  1  0
  3  4  1  0
  4  5  1  0
  5  6  2  3
  5 15  1  0
  6  7  1  0
  6  8  1  0
  8  9  2  0
  8 10  1  0
 10 11  1  0
 11 12  1  6
 11 13  1  0
 11 14  1  0
 15 16  1  0
 16 17  1  0
 17 18  2  0
 18 19  1  0
 19 20  1  0
 20 21  1  1
 20 26  1  0
 21 22  1  0
 21 25  1  0
 22 23  1  0
 23 24  1  0
 24 25  1  0
 26 27  1  0
 27 28  2  0
M  CHG  1  16   1
M  END
