
     RDKit          3D

 11 12  0  0  0  0  0  0  0  0999 V2000
    3.0430   -0.4000    0.4680 C   0  0  0  0  0  0  0  0  0  0  0  0
    2.1350   -0.5020   -0.7330 C   0  0  0  0  0  0  0  0  0  0  0  0
    0.6900   -0.4500   -0.3680 C   0  0  0  0  0  0  0  0  0  0  0  0
   -0.1500   -1.5180   -0.3020 N   0  0  0  0  0  0  0  0  0  0  0  0
   -1.3850   -1.1340    0.0600 C   0  0  0  0  0  0  0  0  0  0  0  0
   -2.5680   -2.0290    0.2420 C   0  0  0  0  0  0  0  0  0  0  0  0
   -1.3810    0.2330    0.2460 C   0  0  0  0  0  0  0  0  0  0  0  0
   -0.0850    0.6340   -0.0250 C   0  0  0  0  0  0  0  0  0  0  0  0
   -0.0650    2.1110    0.1770 C   0  0  0  0  0  0  0  0  0  0  0  0
   -1.5310    2.4480   -0.1330 C   0  0  0  0  0  0  0  0  0  0  0  0
   -2.1500    1.3660    0.5920 O   0  0  0  0  0  0  0  0  0  0  0  0
  1  2  1  0
  2  3  1  0
  3  4  1  0
  3  8  2  0
  4  5  1  0
  5  6  1  0
  5  7  2  0
  7  8  1  0
  7 11  1  0
  8  9  1  0
  9 10  1  0
 10 11  1  0
M  END
