
     RDKit          3D

 12 13  0  0  0  0  0  0  0  0999 V2000
   -3.1800   -0.2860   -0.5840 C   0  0  0  0  0  0  0  0  0  0  0  0
   -1.7520    0.0260   -0.2420 C   0  0  0  0  0  0  0  0  0  0  0  0
   -1.4150    1.1980    0.4010 C   0  0  0  0  0  0  0  0  0  0  0  0
   -0.0980    1.4770    0.7110 C   0  0  0  0  0  0  0  0  0  0  0  0
    0.3510    2.9710    1.5340 Cl  0  0  0  0  0  0  0  0  0  0  0  0
    0.9340    0.6060    0.3960 C   0  0  0  0  0  0  0  0  0  0  0  0
    0.6000   -0.5630   -0.2460 C   0  0  0  0  0  0  0  0  0  0  0  0
   -0.7340   -0.8460   -0.5600 C   0  0  0  0  0  0  0  0  0  0  0  0
    1.8450   -1.2920   -0.4610 C   0  0  0  0  0  0  0  0  0  0  0  0
    1.9520   -2.3590   -1.1220 O   0  0  0  0  0  0  0  0  0  0  0  0
    2.9430   -0.5700    0.2230 C   0  0  0  0  0  0  0  0  0  0  0  0
    2.3350    0.6880    0.6160 N   0  0  0  0  0  0  0  0  0  0  0  0
  1  2  1  0
  2  3  2  0
  2  8  1  0
  3  4  1  0
  4  5  1  0
  4  6  2  0
  6  7  1  0
  6 12  1  0
  7  8  2  0
  7  9  1  0
  9 10  2  0
  9 11  1  0
 11 12  1  0
M  END
