
     RDKit          3D

 12 13  0  0  0  0  0  0  0  0999 V2000
    2.2980    1.9800   -0.2090 O   0  0  0  0  0  0  0  0  0  0  0  0
    1.9060    0.6930   -0.0150 C   0  0  0  0  0  0  0  0  0  0  0  0
    2.8270   -0.2820    0.3640 C   0  0  0  0  0  0  0  0  0  0  0  0
    4.4870    0.2630    0.5680 Cl  0  0  0  0  0  0  0  0  0  0  0  0
    2.4740   -1.5680    0.5650 N   0  0  0  0  0  0  0  0  0  0  0  0
    1.1920   -1.9400    0.3980 C   0  0  0  0  0  0  0  0  0  0  0  0
    0.2400   -1.0140    0.0230 C   0  0  0  0  0  0  0  0  0  0  0  0
    0.6090    0.3010   -0.1810 C   0  0  0  0  0  0  0  0  0  0  0  0
   -0.4430    1.2410   -0.5760 C   0  0  0  0  0  0  0  0  0  0  0  0
   -1.7520    1.0040    0.1370 C   0  0  0  0  0  0  0  0  0  0  0  0
   -2.1760   -0.4160    0.1930 C   0  0  0  0  0  0  0  0  0  0  0  0
   -1.1600   -1.4210   -0.1630 C   0  0  0  0  0  0  0  0  0  0  0  0
  1  2  1  0
  2  3  2  0
  2  8  1  0
  3  4  1  0
  3  5  1  0
  5  6  2  0
  6  7  1  0
  7  8  2  0
  7 12  1  0
  8  9  1  0
  9 10  1  0
 10 11  1  0
 11 12  1  0
M  END
