
     RDKit          3D

 12 13  0  0  0  0  0  0  0  0999 V2000
   -3.4630   -1.4920   -0.1050 O   0  0  0  0  0  0  0  0  0  0  0  0
   -2.3790   -0.8530   -0.0680 C   0  0  0  0  0  0  0  0  0  0  0  0
   -2.4390    0.5290   -0.0370 C   0  0  0  0  0  0  0  0  0  0  0  0
   -1.2820    1.2830    0.0040 C   0  0  0  0  0  0  0  0  0  0  0  0
   -0.0520    0.6540    0.0140 C   0  0  0  0  0  0  0  0  0  0  0  0
    1.1070    1.4040    0.0550 C   0  0  0  0  0  0  0  0  0  0  0  0
    2.3320    0.7820    0.0660 C   0  0  0  0  0  0  0  0  0  0  0  0
    3.8010    1.7680    0.1180 Cl  0  0  0  0  0  0  0  0  0  0  0  0
    2.4010   -0.5840    0.0350 C   0  0  0  0  0  0  0  0  0  0  0  0
    1.2250   -1.3210   -0.0060 C   0  0  0  0  0  0  0  0  0  0  0  0
   -0.0220   -0.7320   -0.0170 C   0  0  0  0  0  0  0  0  0  0  0  0
   -1.1700   -1.4310   -0.0570 N   0  0  0  0  0  0  0  0  0  0  0  0
  1  2  2  0
  2  3  1  0
  2 12  1  0
  3  4  2  0
  4  5  1  0
  5  6  2  0
  5 11  1  0
  6  7  1  0
  7  8  1  0
  7  9  2  0
  9 10  1  0
 10 11  2  0
 11 12  1  0
M  END
