
     RDKit          3D

 23 24  0  0  0  0  0  0  0  0999 V2000
   -3.9220    2.6330    0.4340 C   0  0  0  0  0  0  0  0  0  0  0  0
   -3.5190    1.4430    1.3030 C   0  0  0  0  0  0  0  0  0  0  0  0
   -3.9780    0.2030    0.6900 C   0  0  0  0  0  0  0  0  0  0  0  0
   -3.3060   -0.8350    0.2660 C   0  0  0  0  0  0  0  0  0  0  0  0
   -4.0210   -1.9890   -0.3280 C   0  0  0  0  0  0  0  0  0  0  0  0
   -5.9430   -1.9540   -0.4690 Br  0  0  0  0  0  0  0  0  0  0  0  0
   -3.3610   -3.0390   -0.7610 C   0  0  0  0  0  0  0  0  0  0  0  0
   -1.9180   -3.1430   -0.6910 C   0  0  0  0  0  0  0  0  0  0  0  0
   -1.1840   -2.1700   -0.1800 C   0  0  0  0  0  0  0  0  0  0  0  0
    0.2460   -2.3020   -0.1250 N   0  0  0  0  0  0  0  0  0  0  0  0
   -1.8340   -0.9660    0.3250 C   0  0  0  0  0  0  0  0  0  0  0  0
   -1.1500   -0.0250    0.8150 N   0  0  0  0  0  0  0  0  0  0  0  0
    0.2410   -0.0190    0.9310 C   0  0  0  0  0  0  0  0  0  0  0  0
    1.0660    0.5420    0.0140 C   0  0  0  0  0  0  0  0  0  0  0  0
    0.3990    1.1450   -1.1110 C   0  0  0  0  0  0  0  0  0  0  0  0
    1.1170    1.7680   -2.1450 N   0  0  0  0  0  0  0  0  0  0  0  0
   -0.8480    1.1270   -1.1920 O   0  0  0  0  0  0  0  0  0  0  0  0
    2.4840    0.4760    0.2600 C   0  0  0  0  0  0  0  0  0  0  0  0
    2.8630   -0.1050    1.3210 O   0  0  0  0  0  0  0  0  0  0  0  0
    3.5220    0.9820   -0.5390 N   0  0  0  0  0  0  0  0  0  0  0  0
    4.9210    0.8770   -0.2320 C   0  0  2  0  0  0  0  0  0  0  0  0
    5.3620   -0.5370    0.1710 C   0  0  0  0  0  0  0  0  0  0  0  0
    5.4880    0.6730    1.0780 C   0  0  0  0  0  0  0  0  0  0  0  0
  1  2  1  0
  2  3  1  0
  3  4  2  3
  4  5  1  0
  4 11  1  0
  5  6  1  0
  5  7  2  0
  7  8  1  0
  8  9  2  0
  9 10  1  0
  9 11  1  0
 11 12  2  3
 12 13  1  0
 13 14  2  3
 14 15  1  0
 14 18  1  0
 15 16  1  0
 15 17  2  0
 18 19  2  0
 18 20  1  0
 21 20  1  1
 21 22  1  0
 21 23  1  0
 22 23  1  0
M  END
