
     RDKit          3D

 23 24  0  0  0  0  0  0  0  0999 V2000
   -2.8660   -1.0140    2.5010 C   0  0  0  0  0  0  0  0  0  0  0  0
   -3.4440    0.0390    1.6350 C   0  0  0  0  0  0  0  0  0  0  0  0
   -3.9310    1.1440    2.2720 C   0  0  0  0  0  0  0  0  0  0  0  0
   -4.4980    2.1490    1.5610 C   0  0  0  0  0  0  0  0  0  0  0  0
   -4.9600    3.1890    2.0830 O   0  0  0  0  0  0  0  0  0  0  0  0
   -4.5530    1.9980    0.2240 N   0  0  0  0  0  0  0  0  0  0  0  0
   -4.0920    0.9360   -0.4480 C   0  0  0  0  0  0  0  0  0  0  0  0
   -4.4340    0.8320   -1.9420 C   0  0  0  0  0  0  0  0  0  0  0  0
   -3.5020   -0.1110    0.2160 C   0  0  0  0  0  0  0  0  0  0  0  0
   -3.0510   -1.3270   -0.3230 C   0  0  0  0  0  0  0  0  0  0  0  0
   -1.8230   -1.3740   -1.1030 N   0  0  0  0  0  0  0  0  0  0  0  0
   -0.6340   -0.8400   -0.4450 C   0  0  0  0  0  0  0  0  0  0  0  0
   -0.6300   -0.2030    0.5270 O   0  0  0  0  0  0  0  0  0  0  0  0
    0.6860   -1.1620   -1.0640 N   0  0  0  0  0  0  0  0  0  0  0  0
    1.8630   -0.7230   -0.4240 C   0  0  0  0  0  0  0  0  0  0  0  0
    2.2130    0.7270   -0.3790 C   0  0  0  0  0  0  0  0  0  0  0  0
    3.4010    0.9050    0.4300 N   0  0  0  0  0  0  0  0  0  0  0  0
    4.6850    0.3770    0.0890 C   0  0  0  0  0  0  0  0  0  0  0  0
    5.6970    0.3450    0.9280 C   0  0  0  0  0  0  0  0  0  0  0  0
    6.8940   -0.2610    0.3110 C   0  0  0  0  0  0  0  0  0  0  0  0
    6.3910   -0.6090   -1.0510 C   0  0  0  0  0  0  0  0  0  0  0  0
    7.4660   -1.5270   -2.3500 Br  0  0  0  0  0  0  0  0  0  0  0  0
    5.1400   -0.2200   -1.1340 C   0  0  0  0  0  0  0  0  0  0  0  0
  1  2  1  0
  2  3  2  0
  2  9  1  0
  3  4  1  0
  4  5  2  0
  4  6  1  0
  6  7  1  0
  7  8  1  0
  7  9  2  0
  9 10  1  0
 10 11  1  0
 11 12  1  0
 12 13  2  0
 12 14  1  0
 14 15  1  0
 15 16  1  0
 16 17  1  0
 17 18  1  0
 18 19  2  0
 18 23  1  0
 19 20  1  0
 20 21  1  0
 21 22  1  0
 21 23  2  0
M  END
