
     RDKit          3D

 11 12  0  0  0  0  0  0  0  0999 V2000
   -3.3990    0.2720    0.1490 N   0  0  0  0  0  0  0  0  0  0  0  0
   -1.9740    0.1230    0.0020 C   0  0  0  0  0  0  0  0  0  0  0  0
   -1.2890   -0.0940   -1.1360 N   0  0  0  0  0  0  0  0  0  0  0  0
    0.0400   -0.1780   -0.8710 C   0  0  0  0  0  0  0  0  0  0  0  0
    1.1720   -0.3830   -1.6240 C   0  0  0  0  0  0  0  0  0  0  0  0
    2.3820   -0.4120   -1.0360 N   0  0  0  0  0  0  0  0  0  0  0  0
    2.5350   -0.2440    0.2910 C   0  0  0  0  0  0  0  0  0  0  0  0
    3.8100   -0.2780    0.8870 O   0  0  0  0  0  0  0  0  0  0  0  0
    1.4320   -0.0460    1.0140 N   0  0  0  0  0  0  0  0  0  0  0  0
    0.1890   -0.0060    0.4850 C   0  0  0  0  0  0  0  0  0  0  0  0
   -1.0490    0.1730    0.9730 N   0  0  0  0  0  0  0  0  0  0  0  0
  1  2  1  0
  2  3  2  0
  2 11  1  0
  3  4  1  0
  4  5  2  0
  4 10  1  0
  5  6  1  0
  6  7  2  0
  7  8  1  0
  7  9  1  0
  9 10  2  0
 10 11  1  0
M  END
