
     RDKit          3D

 23 24  0  0  0  0  0  0  0  0999 V2000
   -3.9750    1.1150    1.4630 C   0  0  0  0  0  0  0  0  0  0  0  0
   -3.3170    0.7640    0.1400 C   0  0  1  0  0  0  0  0  0  0  0  0
   -1.9590    0.3570    0.3240 N   0  0  0  0  0  0  0  0  0  0  0  0
   -0.9230    1.0880   -0.1990 C   0  0  0  0  0  0  0  0  0  0  0  0
   -1.1700    2.1620   -0.8700 O   0  0  0  0  0  0  0  0  0  0  0  0
    0.4090    0.9090   -0.1560 N   0  0  0  0  0  0  0  0  0  0  0  0
    1.7140    0.6490   -0.0610 C   0  0  0  0  0  0  0  0  0  0  0  0
    2.3760    1.5700   -0.6720 O   0  0  0  0  0  0  0  0  0  0  0  0
    2.4240   -0.3650    0.5350 N   0  0  0  0  0  0  0  0  0  0  0  0
    3.8240   -0.3400    0.4420 C   0  0  0  0  0  0  0  0  0  0  0  0
    4.4350   -1.2840   -0.2530 C   0  0  0  0  0  0  0  0  0  0  0  0
    5.8870   -1.3040   -0.3840 C   0  0  0  0  0  0  0  0  0  0  0  0
    6.6730   -0.4010    0.1700 C   0  0  0  0  0  0  0  0  0  0  0  0
    6.0890    0.6420    0.9310 N   0  0  0  0  0  0  0  0  0  0  0  0
    4.6470    0.6790    1.0730 C   0  0  0  0  0  0  0  0  0  0  0  0
    4.1050    1.6290    1.7920 C   0  0  0  0  0  0  0  0  0  0  0  0
    5.2070    2.9510    2.6060 Br  0  0  0  0  0  0  0  0  0  0  0  0
   -4.0170   -0.3310   -0.5680 C   0  0  0  0  0  0  0  0  0  0  0  0
   -4.8730   -0.0860   -1.6410 C   0  0  0  0  0  0  0  0  0  0  0  0
   -5.5240   -1.1110   -2.2980 C   0  0  0  0  0  0  0  0  0  0  0  0
   -5.3090   -2.3870   -1.8700 C   0  0  0  0  0  0  0  0  0  0  0  0
   -4.4630   -2.5980   -0.8130 C   0  0  0  0  0  0  0  0  0  0  0  0
   -3.8330   -1.5970   -0.1780 N   0  0  0  0  0  0  0  0  0  0  0  0
  2  1  1  1
  2  3  1  0
  2 18  1  0
  3  4  1  0
  4  5  2  0
  4  6  1  0
  6  7  1  0
  7  8  2  0
  7  9  1  0
  9 10  1  0
 10 11  2  0
 10 15  1  0
 11 12  1  0
 12 13  2  0
 13 14  1  0
 14 15  1  0
 15 16  2  3
 16 17  1  0
 18 19  2  0
 18 23  1  0
 19 20  1  0
 20 21  2  0
 21 22  1  0
 22 23  2  0
M  END
