
     RDKit          3D

 11 12  0  0  0  0  0  0  0  0999 V2000
    3.2710    0.1640    0.2250 N   0  0  0  0  0  0  0  0  0  0  0  0
    1.8820   -0.0920    0.0990 C   0  0  0  0  0  0  0  0  0  0  0  0
    1.4330   -1.2770   -0.1290 N   0  0  0  0  0  0  0  0  0  0  0  0
    0.0790   -1.6740   -0.2770 C   0  0  0  0  0  0  0  0  0  0  0  0
   -0.9010   -0.5810   -0.1480 C   0  0  0  0  0  0  0  0  0  0  0  0
   -2.2610   -0.5250   -0.2180 N   0  0  0  0  0  0  0  0  0  0  0  0
   -2.6820    0.7350   -0.0280 C   0  0  0  0  0  0  0  0  0  0  0  0
   -3.8870    1.1080   -0.0350 O   0  0  0  0  0  0  0  0  0  0  0  0
   -1.5720    1.4660    0.1620 N   0  0  0  0  0  0  0  0  0  0  0  0
   -0.4590    0.6950    0.0960 C   0  0  0  0  0  0  0  0  0  0  0  0
    0.9350    0.9630    0.2240 N   0  0  0  0  0  0  0  0  0  0  0  0
  1  2  1  0
  2  3  2  0
  2 11  1  0
  3  4  1  0
  4  5  1  0
  5  6  1  0
  5 10  2  0
  6  7  1  0
  7  8  2  0
  7  9  1  0
  9 10  1  0
 10 11  1  0
M  END
