
     RDKit          3D

 23 23  0  0  0  0  0  0  0  0999 V2000
   -5.6410   -0.6180    0.5390 C   0  0  0  0  0  0  0  0  0  0  0  0
   -5.4150   -1.7610   -0.0010 C   0  0  0  0  0  0  0  0  0  0  0  0
   -6.9130   -2.7830   -0.7010 Br  0  0  0  0  0  0  0  0  0  0  0  0
   -4.0560   -2.3210   -0.1830 C   0  0  0  0  0  0  0  0  0  0  0  0
   -3.9880   -3.5270   -0.7120 C   0  0  0  0  0  0  0  0  0  0  0  0
   -2.7080   -4.2070   -0.9560 C   0  0  0  0  0  0  0  0  0  0  0  0
   -2.8520   -1.5800    0.2180 C   0  0  0  0  0  0  0  0  0  0  0  0
   -2.6910   -0.3570   -0.6850 C   0  0  0  0  0  0  0  0  0  0  0  0
   -1.5480    0.3850   -0.2940 N   0  0  0  0  0  0  0  0  0  0  0  0
   -1.5910    1.0770    0.9420 C   0  0  0  0  0  0  0  0  0  0  0  0
   -0.1420    1.2800    1.3960 C   0  0  0  0  0  0  0  0  0  0  0  0
    0.5930    2.1050    0.3830 C   0  0  1  0  0  0  0  0  0  0  0  0
    0.9950    3.3790    0.9630 N   0  0  0  0  0  0  0  0  0  0  0  0
    1.8440    1.4030   -0.0810 C   0  0  0  0  0  0  0  0  0  0  0  0
    1.7660    0.3200   -0.7260 O   0  0  0  0  0  0  0  0  0  0  0  0
    3.1440    1.9620    0.2110 N   0  0  0  0  0  0  0  0  0  0  0  0
    4.2790    1.2670   -0.2360 N   0  0  0  0  0  0  0  0  0  0  0  0
    5.1940    0.6620    0.6770 C   0  0  0  0  0  0  0  0  0  0  0  0
    4.9460    0.7780    1.9010 O   0  0  0  0  0  0  0  0  0  0  0  0
    6.4070   -0.0860    0.2580 C   0  0  0  0  0  0  0  0  0  0  0  0
    7.1170   -0.6140    1.4560 C   0  0  0  0  0  0  0  0  0  0  0  0
   -0.2390    2.3880   -0.8290 C   0  0  0  0  0  0  0  0  0  0  0  0
   -0.9700    1.1740   -1.3650 C   0  0  0  0  0  0  0  0  0  0  0  0
  1  2  2  0
  2  3  1  0
  2  4  1  0
  4  5  2  3
  4  7  1  0
  5  6  1  0
  7  8  1  0
  8  9  1  0
  9 10  1  0
  9 23  1  0
 10 11  1  0
 11 12  1  0
 12 13  1  1
 12 14  1  0
 12 22  1  0
 14 15  2  0
 14 16  1  0
 16 17  1  0
 17 18  1  0
 18 19  2  0
 18 20  1  0
 20 21  1  0
 22 23  1  0
M  END
