
     RDKit          3D

 23 24  0  0  0  0  0  0  0  0999 V2000
   -4.4910    1.8960    1.6750 C   0  0  0  0  0  0  0  0  0  0  0  0
   -3.7600    1.9510    0.3750 C   0  0  0  0  0  0  0  0  0  0  0  0
   -2.5820    1.0200    0.3760 C   0  0  0  0  0  0  0  0  0  0  0  0
   -1.5550    1.3040    1.4040 C   0  0  0  0  0  0  0  0  0  0  0  0
   -2.4880    0.0090   -0.4360 C   0  0  0  0  0  0  0  0  0  0  0  0
   -3.5450   -0.3390   -1.4470 C   0  0  0  0  0  0  0  0  0  0  0  0
   -3.6470   -1.8250   -1.6960 C   0  0  0  0  0  0  0  0  0  0  0  0
   -2.9410   -2.6270   -0.6210 C   0  0  0  0  0  0  0  0  0  0  0  0
   -1.5230   -2.1620   -0.4940 C   0  0  0  0  0  0  0  0  0  0  0  0
   -1.2890   -0.8380   -0.4020 C   0  0  0  0  0  0  0  0  0  0  0  0
   -0.0020   -0.2960   -0.2900 N   0  0  0  0  0  0  0  0  0  0  0  0
    1.2140   -1.0180   -0.1490 C   0  0  0  0  0  0  0  0  0  0  0  0
    1.2410   -2.2580   -0.1060 O   0  0  0  0  0  0  0  0  0  0  0  0
    2.4780   -0.3560   -0.0500 N   0  0  0  0  0  0  0  0  0  0  0  0
    3.7190   -1.0880    0.0940 C   0  0  0  0  0  0  0  0  0  0  0  0
    4.8880   -0.1740    0.1760 C   0  0  0  0  0  0  0  0  0  0  0  0
    5.9160   -0.1350   -0.6430 C   0  0  0  0  0  0  0  0  0  0  0  0
    6.1210   -1.2780   -2.1490 Br  0  0  0  0  0  0  0  0  0  0  0  0
    6.8710    0.9020   -0.2360 C   0  0  0  0  0  0  0  0  0  0  0  0
    7.9550    1.2140   -0.7850 O   0  0  0  0  0  0  0  0  0  0  0  0
    6.3420    1.5240    0.9350 N   0  0  0  0  0  0  0  0  0  0  0  0
    5.1160    0.8540    1.1830 C   0  0  0  0  0  0  0  0  0  0  0  0
    4.3220    1.1210    2.1640 N   0  0  0  0  0  0  0  0  0  0  0  0
  1  2  1  0
  2  3  1  0
  3  4  1  0
  3  5  2  3
  5  6  1  0
  5 10  1  0
  6  7  1  0
  7  8  1  0
  8  9  1  0
  9 10  2  0
 10 11  1  0
 11 12  1  0
 12 13  2  0
 12 14  1  0
 14 15  1  0
 15 16  1  0
 16 17  2  0
 16 22  1  0
 17 18  1  0
 17 19  1  0
 19 20  2  0
 19 21  1  0
 21 22  1  0
 22 23  2  0
M  END
