
     RDKit          3D

 23 24  0  0  0  0  0  0  0  0999 V2000
    0.6870    2.4090   -1.2680 N   0  0  0  0  0  0  0  0  0  0  0  0
    1.0220    1.2760   -0.9900 C   0  0  0  0  0  0  0  0  0  0  0  0
    1.3940   -0.0520   -0.6800 C   0  0  0  0  0  0  0  0  0  0  0  0
    2.4860   -0.6160   -1.0780 C   0  0  0  0  0  0  0  0  0  0  0  0
    3.5470   -0.0670   -1.8950 C   0  0  0  0  0  0  0  0  0  0  0  0
    4.6480   -0.7880   -2.2330 C   0  0  0  0  0  0  0  0  0  0  0  0
    5.5320    0.0500   -3.0630 C   0  0  0  0  0  0  0  0  0  0  0  0
    4.8320    1.3430   -3.1770 C   0  0  0  0  0  0  0  0  0  0  0  0
    3.6850    1.2300   -2.4840 C   0  0  0  0  0  0  0  0  0  0  0  0
    0.4620   -0.8820    0.1720 C   0  0  0  0  0  0  0  0  0  0  0  0
    0.8010   -2.0300    0.4240 O   0  0  0  0  0  0  0  0  0  0  0  0
   -0.7250   -0.2580    0.6080 N   0  0  0  0  0  0  0  0  0  0  0  0
   -1.6860   -0.9050    1.4090 C   0  0  0  0  0  0  0  0  0  0  0  0
   -1.4420   -2.1400    1.9670 C   0  0  0  0  0  0  0  0  0  0  0  0
   -2.3730   -2.7540    2.8010 C   0  0  0  0  0  0  0  0  0  0  0  0
   -2.0110   -4.4610    3.5610 Br  0  0  0  0  0  0  0  0  0  0  0  0
   -3.5400   -2.0950    3.0520 C   0  0  0  0  0  0  0  0  0  0  0  0
   -3.8120   -0.8500    2.5020 C   0  0  0  0  0  0  0  0  0  0  0  0
   -2.8980   -0.2370    1.6770 C   0  0  0  0  0  0  0  0  0  0  0  0
   -3.1620    1.0040    1.0490 N   0  0  0  0  0  0  0  0  0  0  0  0
   -4.2120    1.8930    1.3670 C   0  0  0  0  0  0  0  0  0  0  0  0
   -4.3350    3.1230    0.6110 N   0  0  0  0  0  0  0  0  0  0  0  0
   -5.0120    1.6410    2.2620 O   0  0  0  0  0  0  0  0  0  0  0  0
  1  2  3  0
  2  3  1  0
  3  4  2  3
  3 10  1  0
  4  5  1  0
  5  6  2  0
  5  9  1  0
  6  7  1  0
  7  8  1  0
  8  9  2  0
 10 11  2  0
 10 12  1  0
 12 13  1  0
 13 14  2  0
 13 19  1  0
 14 15  1  0
 15 16  1  0
 15 17  2  0
 17 18  1  0
 18 19  2  0
 19 20  1  0
 20 21  1  0
 21 22  1  0
 21 23  2  0
M  END
