
     RDKit          3D

 23 24  0  0  0  0  0  0  0  0999 V2000
   -4.4520    0.6460    1.7890 C   0  0  0  0  0  0  0  0  0  0  0  0
   -3.5150   -0.1360    1.3160 C   0  0  0  0  0  0  0  0  0  0  0  0
   -3.1990   -1.2620    2.1610 N   0  0  0  0  0  0  0  0  0  0  0  0
   -2.3120   -2.1060    1.8420 C   0  0  0  0  0  0  0  0  0  0  0  0
   -2.0760   -3.1870    2.7360 N   0  0  0  0  0  0  0  0  0  0  0  0
   -1.4570   -2.0370    0.6570 C   0  0  0  0  0  0  0  0  0  0  0  0
   -1.7930   -1.0180   -0.2680 N   0  0  0  0  0  0  0  0  0  0  0  0
   -1.1510   -1.0050   -1.5360 C   0  0  0  0  0  0  0  0  0  0  0  0
    0.2830   -0.6080   -1.5000 C   0  0  0  0  0  0  0  0  0  0  0  0
    1.0100   -0.8350   -2.6600 C   0  0  0  0  0  0  0  0  0  0  0  0
    2.3410   -0.5130   -2.7660 C   0  0  0  0  0  0  0  0  0  0  0  0
    3.3670   -0.8100   -4.3410 Br  0  0  0  0  0  0  0  0  0  0  0  0
    2.9700    0.0540   -1.6820 C   0  0  0  0  0  0  0  0  0  0  0  0
    2.2540    0.2860   -0.5140 C   0  0  0  0  0  0  0  0  0  0  0  0
    2.8710    0.8570    0.5910 O   0  0  0  0  0  0  0  0  0  0  0  0
    4.2550    1.2020    0.5080 C   0  0  0  0  0  0  0  0  0  0  0  0
    4.7220    1.7890    1.7680 C   0  0  0  0  0  0  0  0  0  0  0  0
    6.0660    2.1960    1.8860 N   0  0  0  0  0  0  0  0  0  0  0  0
    3.9110    1.9210    2.7330 O   0  0  0  0  0  0  0  0  0  0  0  0
    0.9210   -0.0480   -0.4420 C   0  0  0  0  0  0  0  0  0  0  0  0
   -2.7870   -0.0070    0.0740 C   0  0  0  0  0  0  0  0  0  0  0  0
   -2.9480    0.9880   -0.7480 C   0  0  0  0  0  0  0  0  0  0  0  0
   -3.8400    2.1360   -0.6280 C   0  0  0  0  0  0  0  0  0  0  0  0
  1  2  2  0
  2  3  1  0
  2 21  1  0
  3  4  2  0
  4  5  1  0
  4  6  1  0
  6  7  1  0
  7  8  1  0
  7 21  1  0
  8  9  1  0
  9 10  2  0
  9 20  1  0
 10 11  1  0
 11 12  1  0
 11 13  2  0
 13 14  1  0
 14 15  1  0
 14 20  2  0
 15 16  1  0
 16 17  1  0
 17 18  1  0
 17 19  2  0
 21 22  2  3
 22 23  1  0
M  END
