
     RDKit          3D

 13 14  0  0  0  0  0  0  0  0999 V2000
   -1.3520    2.0750   -0.6470 C   0  0  0  0  0  0  0  0  0  0  0  0
   -1.2000    0.6500   -0.2490 C   0  0  0  0  0  0  0  0  0  0  0  0
   -2.3050   -0.1600   -0.0920 C   0  0  0  0  0  0  0  0  0  0  0  0
   -2.1530   -1.4930    0.2800 C   0  0  0  0  0  0  0  0  0  0  0  0
   -3.2530   -2.3630    0.4540 N   0  0  0  0  0  0  0  0  0  0  0  0
   -0.8870   -1.9110    0.4680 N   0  0  0  0  0  0  0  0  0  0  0  0
    0.2040   -1.1400    0.3210 C   0  0  0  0  0  0  0  0  0  0  0  0
    1.4840   -1.6210    0.5270 C   0  0  0  0  0  0  0  0  0  0  0  0
    2.5950   -0.8150    0.3720 C   0  0  0  0  0  0  0  0  0  0  0  0
    2.4850    0.5210    0.0010 C   0  0  0  0  0  0  0  0  0  0  0  0
    3.6150    1.3580   -0.1620 N   0  0  0  0  0  0  0  0  0  0  0  0
    1.1990    0.9850   -0.2010 C   0  0  0  0  0  0  0  0  0  0  0  0
    0.0840    0.1860   -0.0470 C   0  0  0  0  0  0  0  0  0  0  0  0
  1  2  1  0
  2  3  2  0
  2 13  1  0
  3  4  1  0
  4  5  1  0
  4  6  2  0
  6  7  1  0
  7  8  2  0
  7 13  1  0
  8  9  1  0
  9 10  2  0
 10 11  1  0
 10 12  1  0
 12 13  2  0
M  END
