
     RDKit          3D

 38 41  0  0  0  0  0  0  0  0999 V2000
   -8.7830    0.8990    0.0570 C   0  0  0  0  0  0  0  0  0  0  0  0
   -7.6720    0.5800    0.9010 N   0  0  0  0  0  0  0  0  0  0  0  0
   -6.4710    0.2450    0.1080 C   0  0  2  0  0  0  0  0  0  0  0  0
   -5.3860   -0.0480    1.0470 C   0  0  0  0  0  0  0  0  0  0  0  0
   -4.0900   -0.4390    0.5060 C   0  0  0  0  0  0  0  0  0  0  0  0
   -3.9230   -0.6450   -0.6990 O   0  0  0  0  0  0  0  0  0  0  0  0
   -3.0280   -0.5650    1.4720 N   0  0  0  0  0  0  0  0  0  0  0  0
   -1.7350   -0.9240    1.0980 C   0  0  0  0  0  0  0  0  0  0  0  0
   -0.9070   -1.3980    2.1300 C   0  0  0  0  0  0  0  0  0  0  0  0
    0.3820   -1.7480    1.8290 C   0  0  0  0  0  0  0  0  0  0  0  0
    0.8780   -1.6500    0.5610 C   0  0  0  0  0  0  0  0  0  0  0  0
    2.2630   -2.0380    0.2890 C   0  0  0  0  0  0  0  0  0  0  0  0
    2.7380   -1.9320   -0.9900 N   0  0  0  0  0  0  0  0  0  0  0  0
    3.9950   -2.2670   -1.3230 C   0  0  0  0  0  0  0  0  0  0  0  0
    4.4140   -2.1650   -2.4960 O   0  0  0  0  0  0  0  0  0  0  0  0
    4.8500   -2.7270   -0.3960 N   0  0  0  0  0  0  0  0  0  0  0  0
    6.2180   -3.1000   -0.7110 C   0  0  0  0  0  0  0  0  0  0  0  0
    7.0350   -1.8730   -0.5370 C   0  0  0  0  0  0  0  0  0  0  0  0
    7.5190   -1.6060    0.5850 O   0  0  0  0  0  0  0  0  0  0  0  0
    7.2520   -1.0440   -1.6020 O   0  0  0  0  0  0  0  0  0  0  0  0
    8.0300    0.1590   -1.4990 C   0  0  0  0  0  0  0  0  0  0  0  0
    7.3630    1.0470   -0.4910 C   0  0  0  0  0  0  0  0  0  0  0  0
    7.9330    1.4660    0.6120 C   0  0  0  0  0  0  0  0  0  0  0  0
    6.9670    2.3090    1.3330 C   0  0  0  0  0  0  0  0  0  0  0  0
    5.7530    2.3200    0.4920 C   0  0  0  0  0  0  0  0  0  0  0  0
    6.0090    1.5800   -0.5590 C   0  0  0  0  0  0  0  0  0  0  0  0
    5.1590    1.3230   -1.5910 F   0  0  0  0  0  0  0  0  0  0  0  0
    4.4020   -2.8380    0.8630 C   0  0  0  0  0  0  0  0  0  0  0  0
    5.1970   -3.2680    1.7390 O   0  0  0  0  0  0  0  0  0  0  0  0
    3.1180   -2.4950    1.1990 N   0  0  0  0  0  0  0  0  0  0  0  0
    0.0780   -1.2000   -0.3960 N   0  0  0  0  0  0  0  0  0  0  0  0
   -1.1940   -0.8410   -0.1610 C   0  0  0  0  0  0  0  0  0  0  0  0
   -6.1780    1.4070   -0.7960 C   0  0  0  0  0  0  0  0  0  0  0  0
   -6.4060    2.6720   -0.4110 C   0  0  0  0  0  0  0  0  0  0  0  0
   -6.0150    3.5540   -1.5070 C   0  0  0  0  0  0  0  0  0  0  0  0
   -5.5230    2.6600   -2.5660 C   0  0  0  0  0  0  0  0  0  0  0  0
   -5.6340    1.4140   -2.1230 C   0  0  0  0  0  0  0  0  0  0  0  0
   -5.2930    0.3540   -2.9300 F   0  0  0  0  0  0  0  0  0  0  0  0
  1  2  1  0
  2  3  1  0
  3  4  1  1
  3 33  1  0
  4  5  1  0
  5  6  2  0
  5  7  1  0
  7  8  1  0
  8  9  2  0
  8 32  1  0
  9 10  1  0
 10 11  2  0
 11 12  1  0
 11 31  1  0
 12 13  2  0
 12 30  1  0
 13 14  1  0
 14 15  2  0
 14 16  1  0
 16 17  1  0
 16 28  1  0
 17 18  1  0
 18 19  2  0
 18 20  1  0
 20 21  1  0
 21 22  1  0
 22 23  2  0
 22 26  1  0
 23 24  1  0
 24 25  1  0
 25 26  2  0
 26 27  1  0
 28 29  2  0
 28 30  1  0
 31 32  2  0
 33 34  2  0
 33 37  1  0
 34 35  1  0
 35 36  1  0
 36 37  2  0
 37 38  1  0
M  CHG  1   2   1
M  END
