
     RDKit          3D

 38 41  0  0  0  0  0  0  0  0999 V2000
   -5.9120   -4.5910   -0.2400 C   0  0  0  0  0  0  0  0  0  0  0  0
   -4.8060   -3.6930    0.0070 N   0  0  0  0  0  0  0  0  0  0  0  0
   -5.0200   -2.3360    0.0770 C   0  0  0  0  0  0  0  0  0  0  0  0
   -3.9810   -1.4640    0.2130 C   0  0  0  0  0  0  0  0  0  0  0  0
   -4.0920    0.0080    0.3800 C   0  0  0  0  0  0  0  0  0  0  0  0
   -5.3830    0.5390    0.4250 N   0  0  0  0  0  0  0  0  0  0  0  0
   -5.6830    1.6890   -0.4030 C   0  0  1  0  0  0  0  0  0  0  0  0
   -6.9780    1.3690   -1.1600 C   0  0  0  0  0  0  0  0  0  0  0  0
   -8.0510    2.2540   -0.5600 C   0  0  0  0  0  0  0  0  0  0  0  0
   -7.2770    3.4220   -0.1320 N   0  0  0  0  0  0  0  0  0  0  0  0
   -6.0840    2.8790    0.3810 C   0  0  0  0  0  0  0  0  0  0  0  0
   -5.4720    3.3670    1.3730 O   0  0  0  0  0  0  0  0  0  0  0  0
   -2.6940   -1.9500    0.2740 C   0  0  0  0  0  0  0  0  0  0  0  0
   -1.5800   -1.0340    0.1930 C   0  0  0  0  0  0  0  0  0  0  0  0
   -0.2780   -1.4850    0.4150 O   0  0  0  0  0  0  0  0  0  0  0  0
    0.4230   -0.3230    0.3070 N   0  0  0  0  0  0  0  0  0  0  0  0
    1.4910   -0.0420   -0.6050 C   0  0  0  0  0  0  0  0  0  0  0  0
    1.7920   -0.9280   -1.3900 O   0  0  0  0  0  0  0  0  0  0  0  0
    2.1350    1.1960   -0.5200 N   0  0  0  0  0  0  0  0  0  0  0  0
    3.2870    1.7460   -1.1690 C   0  0  0  0  0  0  0  0  0  0  0  0
    4.4630    1.0530   -0.5580 C   0  0  0  0  0  0  0  0  0  0  0  0
    4.6570   -0.2730   -0.5340 C   0  0  0  0  0  0  0  0  0  0  0  0
    5.7950   -0.8790    0.0500 C   0  0  0  0  0  0  0  0  0  0  0  0
    6.6990   -0.0080    0.5920 C   0  0  0  0  0  0  0  0  0  0  0  0
    6.5030    1.3510    0.5580 C   0  0  0  0  0  0  0  0  0  0  0  0
    5.4180    1.9700    0.0030 C   0  0  0  0  0  0  0  0  0  0  0  0
    5.1590    3.2620   -0.0520 O   0  0  0  0  0  0  0  0  0  0  0  0
    5.7970    4.3530    0.4820 C   0  0  0  0  0  0  0  0  0  0  0  0
    5.1850    5.4720    0.7950 C   0  0  0  0  0  0  0  0  0  0  0  0
    5.8830    6.5290    1.3200 F   0  0  0  0  0  0  0  0  0  0  0  0
    3.8650    5.6470    0.6460 F   0  0  0  0  0  0  0  0  0  0  0  0
    7.8760   -0.6020    1.3030 C   0  0  0  0  0  0  0  0  0  0  0  0
    7.6100   -2.0790    1.5480 C   0  0  0  0  0  0  0  0  0  0  0  0
    7.2580   -2.7200    0.3080 N   0  0  0  0  0  0  0  0  0  0  0  0
    5.9060   -2.3470   -0.0790 C   0  0  0  0  0  0  0  0  0  0  0  0
   -2.5010   -3.3270    0.2110 C   0  0  0  0  0  0  0  0  0  0  0  0
   -3.5630   -4.1770    0.0760 C   0  0  0  0  0  0  0  0  0  0  0  0
   -3.3950   -5.4450    0.0120 O   0  0  0  0  0  0  0  0  0  0  0  0
  1  2  1  0
  2  3  1  0
  2 37  1  0
  3  4  2  0
  4  5  1  0
  4 13  1  0
  5  6  1  0
  7  6  1  1
  7  8  1  0
  7 11  1  0
  8  9  1  0
  9 10  1  0
 10 11  1  0
 11 12  2  0
 13 14  1  0
 13 36  2  0
 14 15  1  0
 15 16  1  0
 16 17  1  0
 17 18  2  0
 17 19  1  0
 19 20  1  0
 20 21  1  0
 21 22  2  0
 21 26  1  0
 22 23  1  0
 23 24  2  0
 23 35  1  0
 24 25  1  0
 24 32  1  0
 25 26  2  0
 26 27  1  0
 27 28  1  0
 28 29  2  3
 29 30  1  0
 29 31  1  0
 32 33  1  0
 33 34  1  0
 34 35  1  0
 36 37  1  0
 37 38  2  0
M  CHG  1   6   1
M  END
