
     RDKit          3D

 38 41  0  0  0  0  0  0  0  0999 V2000
   -0.0550    3.3520   -0.3370 C   0  0  0  0  0  0  0  0  0  0  0  0
   -0.5200    2.6140    0.8990 C   0  0  0  0  0  0  0  0  0  0  0  0
   -1.8080    1.9220    0.5640 C   0  0  0  0  0  0  0  0  0  0  0  0
   -3.0530    2.4580    0.4370 C   0  0  0  0  0  0  0  0  0  0  0  0
   -3.4290    3.8440    0.5980 C   0  0  0  0  0  0  0  0  0  0  0  0
   -4.6200    4.2200    0.4540 O   0  0  0  0  0  0  0  0  0  0  0  0
   -3.9340    1.4580    0.1240 N   0  0  0  0  0  0  0  0  0  0  0  0
   -3.3060    0.2680    0.0400 C   0  0  0  0  0  0  0  0  0  0  0  0
   -3.8230   -1.0470   -0.2330 C   0  0  0  0  0  0  0  0  0  0  0  0
   -3.0050   -2.0400   -0.1900 O   0  0  0  0  0  0  0  0  0  0  0  0
   -5.1350   -1.3930   -0.5470 N   0  0  0  0  0  0  0  0  0  0  0  0
   -5.4670   -2.8220   -0.7920 C   0  0  0  0  0  0  0  0  0  0  0  0
   -6.6250   -3.2790    0.0320 C   0  0  0  0  0  0  0  0  0  0  0  0
   -7.7250   -2.2280    0.0810 C   0  0  0  0  0  0  0  0  0  0  0  0
   -7.4920   -1.2370   -1.0360 C   0  0  0  0  0  0  0  0  0  0  0  0
   -6.2090   -0.4570   -0.6590 C   0  0  0  0  0  0  0  0  0  0  0  0
   -1.9540    0.5720    0.3180 C   0  0  0  0  0  0  0  0  0  0  0  0
   -0.8500   -0.3690    0.3790 C   0  0  0  0  0  0  0  0  0  0  0  0
   -0.1070   -0.4490    1.4130 O   0  0  0  0  0  0  0  0  0  0  0  0
   -0.5300   -1.2400   -0.6960 N   0  0  0  0  0  0  0  0  0  0  0  0
    0.5530   -2.1790   -0.6550 C   0  0  0  0  0  0  0  0  0  0  0  0
    1.8900   -1.6010   -0.5260 C   0  0  0  0  0  0  0  0  0  0  0  0
    2.8610   -2.4070   -0.4450 O   0  0  0  0  0  0  0  0  0  0  0  0
    2.1880   -0.2150   -0.4860 N   0  0  0  0  0  0  0  0  0  0  0  0
    3.5330    0.2490   -0.3570 C   0  0  0  0  0  0  0  0  0  0  0  0
    4.6550   -0.5110   -0.2570 N   0  0  0  0  0  0  0  0  0  0  0  0
    5.7390    0.2810   -0.1510 C   0  0  0  0  0  0  0  0  0  0  0  0
    5.2400    1.5600   -0.1890 C   0  0  0  0  0  0  0  0  0  0  0  0
    3.9130    1.4970   -0.3130 O   0  0  0  0  0  0  0  0  0  0  0  0
    6.1090    2.7180   -0.1000 C   0  0  0  0  0  0  0  0  0  0  0  0
    7.4000    2.5320    0.0190 C   0  0  0  0  0  0  0  0  0  0  0  0
    8.0490    1.2180    0.0710 C   0  0  0  0  0  0  0  0  0  0  0  0
    9.3050    1.0980    0.1870 N   0  0  0  0  0  0  0  0  0  0  0  0
    7.1880    0.0550   -0.0170 C   0  0  0  0  0  0  0  0  0  0  0  0
    7.6130   -1.1730    0.0150 C   0  0  0  0  0  0  0  0  0  0  0  0
    6.6960   -2.3330   -0.0770 C   0  0  2  0  0  0  0  0  0  0  0  0
    7.3680   -3.5240    0.1340 F   0  0  0  0  0  0  0  0  0  0  0  0
    6.0980   -2.4090   -1.3400 F   0  0  0  0  0  0  0  0  0  0  0  0
  1  2  1  0
  2  3  1  0
  3  4  2  0
  3 17  1  0
  4  5  1  0
  4  7  1  0
  5  6  2  0
  7  8  1  0
  8  9  1  0
  8 17  2  0
  9 10  2  0
  9 11  1  0
 11 12  1  0
 11 16  1  0
 12 13  1  0
 13 14  1  0
 14 15  1  0
 15 16  1  0
 17 18  1  0
 18 19  2  0
 18 20  1  0
 20 21  1  0
 21 22  1  0
 22 23  2  0
 22 24  1  0
 24 25  1  0
 25 26  2  0
 25 29  1  0
 26 27  1  0
 27 28  2  0
 27 34  1  0
 28 29  1  0
 28 30  1  0
 30 31  2  0
 31 32  1  0
 32 33  2  0
 32 34  1  0
 34 35  2  3
 35 36  1  0
 36 37  1  6
 36 38  1  0
M  CHG  1  33   1
M  END
