
     RDKit          3D

 38 42  0  0  0  0  0  0  0  0999 V2000
    7.9900    1.9300   -1.8590 N   0  0  0  0  0  0  0  0  0  0  0  0
    6.7770    1.4500   -1.3150 C   0  0  0  0  0  0  0  0  0  0  0  0
    6.3950    0.1530   -1.5870 C   0  0  0  0  0  0  0  0  0  0  0  0
    5.1960   -0.2630   -1.0260 C   0  0  0  0  0  0  0  0  0  0  0  0
    4.4380    0.5980   -0.2370 C   0  0  0  0  0  0  0  0  0  0  0  0
    3.2360    0.1480    0.3120 C   0  0  0  0  0  0  0  0  0  0  0  0
    2.8610   -1.2400    0.0210 C   0  0  0  0  0  0  0  0  0  0  0  0
    1.6100   -1.6580    0.5720 N   0  0  0  0  0  0  0  0  0  0  0  0
    0.4170   -1.0190    0.1080 C   0  0  0  0  0  0  0  0  0  0  0  0
    0.4900   -0.0960   -0.7710 O   0  0  0  0  0  0  0  0  0  0  0  0
   -0.9070   -1.3900    0.6220 C   0  0  2  0  0  0  0  0  0  0  0  0
   -1.3330   -2.7000   -0.0210 C   0  0  0  0  0  0  0  0  0  0  0  0
   -0.3680   -3.7660    0.2710 C   0  0  0  0  0  0  0  0  0  0  0  0
   -0.4430   -4.4870    1.4450 C   0  0  0  0  0  0  0  0  0  0  0  0
    0.4510   -5.5070    1.6800 C   0  0  0  0  0  0  0  0  0  0  0  0
    1.4370   -5.8420    0.7660 C   0  0  0  0  0  0  0  0  0  0  0  0
    1.5160   -5.1290   -0.4030 C   0  0  0  0  0  0  0  0  0  0  0  0
    0.6310   -4.1120   -0.6460 C   0  0  0  0  0  0  0  0  0  0  0  0
   -1.9040   -0.3660    0.2360 N   0  0  0  0  0  0  0  0  0  0  0  0
   -2.6430    0.3270    1.2050 C   0  0  0  0  0  0  0  0  0  0  0  0
   -2.4240    0.0440    2.4240 O   0  0  0  0  0  0  0  0  0  0  0  0
   -3.6360    1.3420    0.9100 C   0  0  0  0  0  0  0  0  0  0  0  0
   -4.1420    2.1640    1.9060 C   0  0  0  0  0  0  0  0  0  0  0  0
   -5.0800    3.1080    1.6050 C   0  0  0  0  0  0  0  0  0  0  0  0
   -5.5320    3.2520    0.3080 C   0  0  0  0  0  0  0  0  0  0  0  0
   -6.4460    4.1690   -0.0000 N   0  0  0  0  0  0  0  0  0  0  0  0
   -6.8880    4.3150   -1.2530 C   0  0  0  0  0  0  0  0  0  0  0  0
   -7.7650    5.1940   -1.5450 O   0  0  0  0  0  0  0  0  0  0  0  0
   -6.4290    3.5340   -2.2900 C   0  0  0  0  0  0  0  0  0  0  0  0
   -5.4730    2.5650   -2.0090 C   0  0  0  0  0  0  0  0  0  0  0  0
   -5.0300    1.7990   -3.0520 O   0  0  0  0  0  0  0  0  0  0  0  0
   -5.0300    2.4320   -0.7030 C   0  0  0  0  0  0  0  0  0  0  0  0
   -4.0850    1.4850   -0.3830 C   0  0  0  0  0  0  0  0  0  0  0  0
    2.5230    1.0230    1.0810 C   0  0  0  0  0  0  0  0  0  0  0  0
    2.9380    2.3100    1.3290 C   0  0  0  0  0  0  0  0  0  0  0  0
    4.1220    2.7560    0.7890 C   0  0  0  0  0  0  0  0  0  0  0  0
    4.8600    1.8850    0.0070 C   0  0  0  0  0  0  0  0  0  0  0  0
    6.0310    2.2710   -0.5480 N   0  0  0  0  0  0  0  0  0  0  0  0
  1  2  1  0
  2  3  2  0
  2 38  1  0
  3  4  1  0
  4  5  2  0
  5  6  1  0
  5 37  1  0
  6  7  1  0
  6 34  2  0
  7  8  1  0
  8  9  1  0
  9 10  2  0
  9 11  1  0
 11 12  1  6
 11 19  1  0
 12 13  1  0
 13 14  2  0
 13 18  1  0
 14 15  1  0
 15 16  2  0
 16 17  1  0
 17 18  2  0
 19 20  1  0
 20 21  2  0
 20 22  1  0
 22 23  2  0
 22 33  1  0
 23 24  1  0
 24 25  2  0
 25 26  1  0
 25 32  1  0
 26 27  1  0
 27 28  2  0
 27 29  1  0
 29 30  2  0
 30 31  1  0
 30 32  1  0
 32 33  2  0
 34 35  1  0
 35 36  2  0
 36 37  1  0
 37 38  2  0
M  END
