
     RDKit          3D

 38 40  0  0  0  0  0  0  0  0999 V2000
    6.9130   -1.3030   -0.0140 C   0  0  0  0  0  0  0  0  0  0  0  0
    5.8910   -1.6420   -1.0930 C   0  0  0  0  0  0  0  0  0  0  0  0
    4.9220   -0.6750   -1.3470 N   0  0  0  0  0  0  0  0  0  0  0  0
    5.2300    0.5590   -1.9180 C   0  0  0  0  0  0  0  0  0  0  0  0
    6.0200    1.4920   -1.0370 C   0  0  0  0  0  0  0  0  0  0  0  0
    3.6240   -0.8090   -0.8590 C   0  0  2  0  0  0  0  0  0  0  0  0
    3.5160   -0.8450    0.6550 C   0  0  0  0  0  0  0  0  0  0  0  0
    2.1520   -1.3280    1.0890 C   0  0  0  0  0  0  0  0  0  0  0  0
    1.1210   -1.0810    0.0930 N   0  0  0  0  0  0  0  0  0  0  0  0
   -0.0250   -0.3550    0.4760 C   0  0  0  0  0  0  0  0  0  0  0  0
   -0.1050    0.1040    1.6730 O   0  0  0  0  0  0  0  0  0  0  0  0
   -1.1240   -0.0730   -0.3320 O   0  0  0  0  0  0  0  0  0  0  0  0
   -2.1780    0.6700    0.2450 C   0  0  0  0  0  0  0  0  0  0  0  0
   -3.0940    0.0640    0.9650 C   0  0  0  0  0  0  0  0  0  0  0  0
   -2.9040   -1.3970    1.0990 C   0  0  0  0  0  0  0  0  0  0  0  0
   -3.1150   -1.9910    2.3120 C   0  0  0  0  0  0  0  0  0  0  0  0
   -2.9360   -3.3520    2.4780 C   0  0  0  0  0  0  0  0  0  0  0  0
   -3.1410   -3.9560    3.6870 F   0  0  0  0  0  0  0  0  0  0  0  0
   -2.5350   -4.1400    1.3990 C   0  0  0  0  0  0  0  0  0  0  0  0
   -2.3300   -3.5240    0.1900 C   0  0  0  0  0  0  0  0  0  0  0  0
   -1.8930   -4.2350   -0.9460 N   0  0  0  0  0  0  0  0  0  0  0  0
   -1.5220   -5.5710   -1.0140 C   0  0  0  0  0  0  0  0  0  0  0  0
   -1.5260   -6.2920    0.0180 O   0  0  0  0  0  0  0  0  0  0  0  0
   -1.1240   -6.2140   -2.1940 O   0  0  0  0  0  0  0  0  0  0  0  0
   -2.5260   -2.1670    0.0910 N   0  0  0  0  0  0  0  0  0  0  0  0
   -4.2330    0.7430    1.5660 C   0  0  2  0  0  0  0  0  0  0  0  0
   -5.4990    0.2050    0.9850 N   0  0  0  0  0  0  0  0  0  0  0  0
   -4.3110    2.1980    1.4450 C   0  0  0  0  0  0  0  0  0  0  0  0
   -3.2660    2.8170    0.6170 C   0  0  0  0  0  0  0  0  0  0  0  0
   -3.3490    4.2770    0.3840 C   0  0  0  0  0  0  0  0  0  0  0  0
   -4.2730    4.9320    0.9200 O   0  0  0  0  0  0  0  0  0  0  0  0
   -2.4510    5.0090   -0.4140 N   0  0  0  0  0  0  0  0  0  0  0  0
   -2.5780    6.4460   -0.6100 C   0  0  0  0  0  0  0  0  0  0  0  0
   -3.8900    6.8520   -1.2220 C   0  0  0  0  0  0  0  0  0  0  0  0
   -4.1240    6.3090   -2.4480 F   0  0  0  0  0  0  0  0  0  0  0  0
   -2.3040    2.1020    0.0840 C   0  0  0  0  0  0  0  0  0  0  0  0
    1.3520   -1.5920   -1.2420 C   0  0  0  0  0  0  0  0  0  0  0  0
    2.8070   -1.9680   -1.3680 C   0  0  0  0  0  0  0  0  0  0  0  0
  1  2  1  0
  2  3  1  0
  3  4  1  0
  6  3  1  1
  4  5  1  0
  6  7  1  0
  6 38  1  0
  7  8  1  0
  8  9  1  0
  9 10  1  0
  9 37  1  0
 10 11  2  0
 10 12  1  0
 12 13  1  0
 13 14  2  0
 13 36  1  0
 14 15  1  0
 14 26  1  0
 15 16  2  0
 15 25  1  0
 16 17  1  0
 17 18  1  0
 17 19  2  0
 19 20  1  0
 20 21  1  0
 20 25  2  0
 21 22  1  0
 22 23  2  0
 22 24  1  0
 26 27  1  6
 26 28  1  0
 28 29  1  0
 29 30  1  0
 29 36  2  0
 30 31  2  0
 30 32  1  0
 32 33  1  0
 33 34  1  0
 34 35  1  0
 37 38  1  0
M  CHG  1  27   1
M  END
