
     RDKit          3D

 38 41  0  0  0  0  0  0  0  0999 V2000
   10.0100    0.6790   -4.9160 C   0  0  0  0  0  0  0  0  0  0  0  0
    8.8740    1.4740   -4.2930 C   0  0  0  0  0  0  0  0  0  0  0  0
    8.1580    0.6050   -3.3360 C   0  0  0  0  0  0  0  0  0  0  0  0
    8.4710   -0.5900   -3.0950 O   0  0  0  0  0  0  0  0  0  0  0  0
    7.0390    1.1600   -2.6430 N   0  0  0  0  0  0  0  0  0  0  0  0
    6.2800    0.4090   -1.7090 C   0  0  0  0  0  0  0  0  0  0  0  0
    6.6290   -0.7740   -1.5000 O   0  0  0  0  0  0  0  0  0  0  0  0
    5.1110    0.9800   -0.9940 C   0  0  0  0  0  0  0  0  0  0  0  0
    4.4890   -0.0780   -0.0760 C   0  0  0  0  0  0  0  0  0  0  0  0
    3.3300    0.5060    0.6170 N   0  0  0  0  0  0  0  0  0  0  0  0
    3.3040    1.1820    1.8680 C   0  0  0  0  0  0  0  0  0  0  0  0
    1.8750    1.2260    2.2810 C   0  0  0  0  0  0  0  0  0  0  0  0
    1.1060    0.6090    1.2210 N   0  0  0  0  0  0  0  0  0  0  0  0
   -0.2730    0.2100    1.2830 C   0  0  0  0  0  0  0  0  0  0  0  0
   -0.7630   -0.3030    0.2500 O   0  0  0  0  0  0  0  0  0  0  0  0
   -1.0230    0.3940    2.4570 N   0  0  0  0  0  0  0  0  0  0  0  0
   -2.3790    0.0340    2.5810 C   0  0  0  0  0  0  0  0  0  0  0  0
   -2.9050   -0.1020    3.8810 C   0  0  0  0  0  0  0  0  0  0  0  0
   -4.2270   -0.4330    4.0500 C   0  0  0  0  0  0  0  0  0  0  0  0
   -5.0880   -0.6440    2.9900 C   0  0  0  0  0  0  0  0  0  0  0  0
   -6.4930   -0.9980    3.2750 C   0  0  0  0  0  0  0  0  0  0  0  0
   -7.0230   -1.1290    4.5490 C   0  0  0  0  0  0  0  0  0  0  0  0
   -8.3400   -1.4610    4.4090 C   0  0  0  0  0  0  0  0  0  0  0  0
   -8.5820   -1.5250    3.0680 C   0  0  0  0  0  0  0  0  0  0  0  0
   -9.7560   -1.8220    2.4700 F   0  0  0  0  0  0  0  0  0  0  0  0
   -7.4600   -1.2430    2.4630 O   0  0  0  0  0  0  0  0  0  0  0  0
   -4.6070   -0.5190    1.7100 C   0  0  0  0  0  0  0  0  0  0  0  0
   -5.4150   -0.7130    0.5650 N   0  0  0  0  0  0  0  0  0  0  0  0
   -4.8260   -0.5570   -0.7180 C   0  0  0  0  0  0  0  0  0  0  0  0
   -4.7260    0.6410   -1.2460 C   0  0  0  0  0  0  0  0  0  0  0  0
   -5.2150    1.7160   -0.5010 F   0  0  0  0  0  0  0  0  0  0  0  0
   -4.1330    0.8800   -2.5610 C   0  0  0  0  0  0  0  0  0  0  0  0
   -3.6530   -0.2390   -3.2520 N   0  0  0  0  0  0  0  0  0  0  0  0
   -3.7810   -1.5010   -2.6540 C   0  0  0  0  0  0  0  0  0  0  0  0
   -4.3200   -1.7130   -1.4690 C   0  0  0  0  0  0  0  0  0  0  0  0
   -3.2540   -0.1810    1.5620 C   0  0  0  0  0  0  0  0  0  0  0  0
    1.9930    0.4800    0.1130 C   0  0  0  0  0  0  0  0  0  0  0  0
    1.6530    0.3630   -1.1050 O   0  0  0  0  0  0  0  0  0  0  0  0
  1  2  1  0
  2  3  1  0
  3  4  2  0
  3  5  1  0
  5  6  1  0
  6  7  2  0
  6  8  1  0
  8  9  1  0
  9 10  1  0
 10 11  1  0
 10 37  1  0
 11 12  1  0
 12 13  1  0
 13 14  1  0
 13 37  1  0
 14 15  2  0
 14 16  1  0
 16 17  1  0
 17 18  2  0
 17 36  1  0
 18 19  1  0
 19 20  2  0
 20 21  1  0
 20 27  1  0
 21 22  2  0
 21 26  1  0
 22 23  1  0
 23 24  2  0
 24 25  1  0
 24 26  1  0
 27 28  1  0
 27 36  2  0
 28 29  1  0
 29 30  2  0
 29 35  1  0
 30 31  1  0
 30 32  1  0
 32 33  1  0
 33 34  1  0
 34 35  2  0
 37 38  2  0
M  CHG  1  33   1
M  END
