
     RDKit          3D

 40 43  0  0  0  0  0  0  0  0999 V2000
   -3.2210   -0.9380    2.0190 C   0  0  0  0  0  0  0  0  0  0  0  0
   -3.1530   -0.1980    0.6950 C   0  0  2  0  0  0  0  0  0  0  0  0
   -4.1420   -0.7570   -0.2440 C   0  0  0  0  0  0  0  0  0  0  0  0
   -5.6180   -0.6880    0.2150 C   0  0  2  0  0  0  0  0  0  0  0  0
   -6.3530   -1.3470   -0.8900 C   0  0  0  0  0  0  0  0  0  0  0  0
   -7.8040   -1.5600   -0.8090 C   0  0  0  0  0  0  0  0  0  0  0  0
   -8.1920   -2.3020   -2.1180 C   0  0  0  0  0  0  0  0  0  0  0  0
   -7.4580   -3.4900   -2.0920 O   0  0  0  0  0  0  0  0  0  0  0  0
   -5.9320    0.7340    0.4550 C   0  0  0  0  0  0  0  0  0  0  0  0
   -7.2410    1.1900    0.8710 C   0  0  0  0  0  0  0  0  0  0  0  0
   -8.2980    1.7080    0.1940 C   0  0  0  0  0  0  0  0  0  0  0  0
   -9.3980    2.0620    0.8280 C   0  0  0  0  0  0  0  0  0  0  0  0
   -9.4800    1.9020    2.2040 C   0  0  0  0  0  0  0  0  0  0  0  0
   -7.8440    1.1940    2.5740 S   0  0  0  0  0  0  0  0  0  0  0  0
   -1.7800   -0.5440    0.0950 C   0  0  0  0  0  0  0  0  0  0  0  0
   -0.6890    0.3710    0.4600 C   0  0  2  0  0  0  0  0  0  0  0  0
   -0.4880    1.2730   -0.6260 O   0  0  0  0  0  0  0  0  0  0  0  0
    0.5860   -0.3880    0.5680 C   0  0  0  0  0  0  0  0  0  0  0  0
    0.6720   -1.3980    1.3170 O   0  0  0  0  0  0  0  0  0  0  0  0
    1.7250   -0.0350   -0.1320 O   0  0  0  0  0  0  0  0  0  0  0  0
    2.9400   -0.7980   -0.0200 C   0  0  1  0  0  0  0  0  0  0  0  0
    3.3440   -0.8170    1.4190 C   0  0  0  0  0  0  0  0  0  0  0  0
    2.7150   -2.1680   -0.5020 C   0  0  0  0  0  0  0  0  0  0  0  0
    1.4390   -2.5330   -1.0500 N   0  0  0  0  0  0  0  0  0  0  0  0
    3.5780   -3.0950   -0.4810 O   0  0  0  0  0  0  0  0  0  0  0  0
    3.9980   -0.1270   -0.8920 C   0  0  2  0  0  0  0  0  0  0  0  0
    5.2990   -0.8420   -0.8730 C   0  0  0  0  0  0  0  0  0  0  0  0
    6.2790   -0.0000   -1.7340 C   0  0  0  0  0  0  0  0  0  0  0  0
    6.4650    1.2050   -0.9750 N   0  0  0  0  0  0  0  0  0  0  0  0
    7.7130    1.5950   -0.4610 C   0  0  0  0  0  0  0  0  0  0  0  0
    7.8050    2.6540    0.2220 O   0  0  0  0  0  0  0  0  0  0  0  0
    8.8920    0.8560   -0.6710 N   0  0  0  0  0  0  0  0  0  0  0  0
   10.1950    1.2290   -0.1430 C   0  0  1  0  0  0  0  0  0  0  0  0
   11.2650    0.1990   -0.2470 C   0  0  0  0  0  0  0  0  0  0  0  0
   11.3220    1.4140   -1.1090 C   0  0  0  0  0  0  0  0  0  0  0  0
    5.3000    2.0320   -0.7520 C   0  0  0  0  0  0  0  0  0  0  0  0
    4.0480    1.3110   -0.4770 C   0  0  0  0  0  0  0  0  0  0  0  0
   -0.9220    1.2450    1.6450 C   0  0  0  0  0  0  0  0  0  0  0  0
   -2.3560    1.6720    1.7960 C   0  0  0  0  0  0  0  0  0  0  0  0
   -3.1650    1.1600    0.7890 O   0  0  0  0  0  0  0  0  0  0  0  0
  2  1  1  1
  2  3  1  0
  2 15  1  0
  2 40  1  0
  4  3  1  6
  4  5  1  0
  4  9  1  0
  5  6  1  0
  6  7  1  0
  7  8  1  0
  9 10  1  0
 10 11  2  0
 10 14  1  0
 11 12  1  0
 12 13  2  0
 13 14  1  0
 15 16  1  0
 16 17  1  6
 16 18  1  0
 16 38  1  0
 18 19  2  0
 18 20  1  0
 20 21  1  0
 21 22  1  1
 21 23  1  0
 21 26  1  0
 23 24  1  0
 23 25  2  0
 26 27  1  1
 26 37  1  0
 27 28  1  0
 28 29  1  0
 29 30  1  0
 29 36  1  0
 30 31  2  0
 30 32  1  0
 33 32  1  6
 33 34  1  0
 33 35  1  0
 34 35  1  0
 36 37  1  0
 38 39  1  0
 39 40  1  0
M  END
