
     RDKit          3D

 40 43  0  0  0  0  0  0  0  0999 V2000
    7.7680    1.9190   -1.9030 C   0  0  0  0  0  0  0  0  0  0  0  0
    6.5150    2.7020   -1.5990 C   0  0  0  0  0  0  0  0  0  0  0  0
    5.2730    1.8550   -1.8680 C   0  0  0  0  0  0  0  0  0  0  0  0
    5.3680    0.6490   -0.9670 C   0  0  1  0  0  0  0  0  0  0  0  0
    5.3920    0.9640    0.3850 O   0  0  0  0  0  0  0  0  0  0  0  0
    4.3440   -0.3790   -1.3080 C   0  0  2  0  0  0  0  0  0  0  0  0
    2.9580    0.0980   -1.2070 C   0  0  0  0  0  0  0  0  0  0  0  0
    2.5900    1.1220   -1.8840 O   0  0  0  0  0  0  0  0  0  0  0  0
    1.9090   -0.4900   -0.3910 C   0  0  0  0  0  0  0  0  0  0  0  0
    0.6160    0.0480   -0.3250 C   0  0  0  0  0  0  0  0  0  0  0  0
   -0.3780   -0.5020    0.4380 C   0  0  0  0  0  0  0  0  0  0  0  0
   -1.7030   -0.0170    0.5610 N   0  0  0  0  0  0  0  0  0  0  0  0
   -2.2410    1.1410   -0.0040 C   0  0  0  0  0  0  0  0  0  0  0  0
   -1.5020    1.8660   -0.7040 O   0  0  0  0  0  0  0  0  0  0  0  0
   -3.6910    1.5450    0.2110 C   0  0  1  0  0  0  0  0  0  0  0  0
   -3.7780    2.8700   -0.4100 N   0  0  0  0  0  0  0  0  0  0  0  0
   -4.4210    3.1860   -1.6050 C   0  0  0  0  0  0  0  0  0  0  0  0
   -4.1020    4.1860   -2.2810 O   0  0  0  0  0  0  0  0  0  0  0  0
   -5.4760    2.3320   -2.0610 N   0  0  0  0  0  0  0  0  0  0  0  0
   -5.7380    1.2280   -1.1990 C   0  0  0  0  0  0  0  0  0  0  0  0
   -6.8980    0.8070   -1.0780 O   0  0  0  0  0  0  0  0  0  0  0  0
   -4.5960    0.5800   -0.4420 C   0  0  1  0  0  0  0  0  0  0  0  0
   -3.8500   -0.1540   -1.5500 C   0  0  0  0  0  0  0  0  0  0  0  0
   -4.8130   -1.1470   -2.2320 C   0  0  0  0  0  0  0  0  0  0  0  0
   -5.2040   -0.4440    0.4510 C   0  0  0  0  0  0  0  0  0  0  0  0
   -5.1240   -0.1950    1.9120 C   0  0  0  0  0  0  0  0  0  0  0  0
   -4.8610    1.2200    2.2350 C   0  0  2  0  0  0  0  0  0  0  0  0
   -6.0320    2.1380    2.3440 C   0  0  0  0  0  0  0  0  0  0  0  0
   -7.2420    1.7350    3.6040 S   0  0  0  0  0  0  0  0  0  0  0  0
   -8.2270    0.2830    3.3160 C   0  0  0  0  0  0  0  0  0  0  0  0
   -3.8060    1.7140    1.5440 O   0  0  0  0  0  0  0  0  0  0  0  0
   -0.0030   -1.6510    1.1540 C   0  0  0  0  0  0  0  0  0  0  0  0
    1.2420   -2.2010    1.1140 C   0  0  0  0  0  0  0  0  0  0  0  0
    2.2150   -1.6120    0.3290 C   0  0  0  0  0  0  0  0  0  0  0  0
    3.5870   -2.1580    0.2460 C   0  0  0  0  0  0  0  0  0  0  0  0
    4.5430   -1.6260   -0.4750 C   0  0  0  0  0  0  0  0  0  0  0  0
    5.9030   -2.2090   -0.4930 C   0  0  0  0  0  0  0  0  0  0  0  0
    6.0860   -3.3060    0.3020 O   0  0  0  0  0  0  0  0  0  0  0  0
    6.1520   -3.0270    1.6570 C   0  0  0  0  0  0  0  0  0  0  0  0
    6.2700   -4.3110    2.4560 C   0  0  0  0  0  0  0  0  0  0  0  0
  1  2  1  0
  2  3  1  0
  3  4  1  0
  4  5  1  1
  4  6  1  0
  6  7  1  1
  6 36  1  0
  7  8  2  0
  7  9  1  0
  9 10  2  0
  9 34  1  0
 10 11  1  0
 11 12  1  0
 11 32  2  0
 12 13  1  0
 13 14  2  0
 15 13  1  1
 15 16  1  0
 15 22  1  0
 15 31  1  0
 16 17  1  0
 17 18  2  0
 17 19  1  0
 19 20  1  0
 20 21  2  0
 20 22  1  0
 22 23  1  6
 22 25  1  0
 23 24  1  0
 25 26  1  0
 26 27  1  0
 27 28  1  6
 27 31  1  0
 28 29  1  0
 29 30  1  0
 32 33  1  0
 33 34  2  0
 34 35  1  0
 35 36  2  0
 36 37  1  0
 37 38  1  0
 38 39  1  0
 39 40  1  0
M  END
