
     RDKit          3D

 40 42  0  0  0  0  0  0  0  0999 V2000
   -7.7890    0.3670   -1.6210 C   0  0  0  0  0  0  0  0  0  0  0  0
   -6.7480    1.4440   -1.5300 C   0  0  0  0  0  0  0  0  0  0  0  0
   -6.1410    1.5700   -0.1410 C   0  0  2  0  0  0  0  0  0  0  0  0
   -7.2610    1.9080    0.8540 C   0  0  0  0  0  0  0  0  0  0  0  0
   -5.1620    2.7060   -0.1150 C   0  0  0  0  0  0  0  0  0  0  0  0
   -5.5670    0.3140    0.1890 O   0  0  0  0  0  0  0  0  0  0  0  0
   -4.9260    0.1840    1.4000 C   0  0  0  0  0  0  0  0  0  0  0  0
   -4.8650    1.1820    2.1580 O   0  0  0  0  0  0  0  0  0  0  0  0
   -4.3210   -1.0770    1.8110 C   0  0  0  0  0  0  0  0  0  0  0  0
   -3.1170   -1.4600    0.9720 C   0  0  2  0  0  0  0  0  0  0  0  0
   -3.5050   -1.6280   -0.4560 C   0  0  0  0  0  0  0  0  0  0  0  0
   -4.5070   -2.6010   -0.8140 N   0  0  0  0  0  0  0  0  0  0  0  0
   -3.0030   -0.9600   -1.3880 O   0  0  0  0  0  0  0  0  0  0  0  0
   -2.4780   -2.7070    1.4720 C   0  0  0  0  0  0  0  0  0  0  0  0
   -1.8590   -2.5730    2.8500 C   0  0  0  0  0  0  0  0  0  0  0  0
   -0.8040   -1.4710    2.8470 C   0  0  0  0  0  0  0  0  0  0  0  0
   -0.8620   -0.7460    1.5880 N   0  0  0  0  0  0  0  0  0  0  0  0
    0.3330   -0.4500    0.9000 C   0  0  0  0  0  0  0  0  0  0  0  0
    1.4370   -0.8020    1.3780 O   0  0  0  0  0  0  0  0  0  0  0  0
    0.2860    0.2690   -0.3770 C   0  0  0  0  0  0  0  0  0  0  0  0
    1.5910    0.4010   -0.8880 O   0  0  0  0  0  0  0  0  0  0  0  0
    2.3840   -0.6330   -1.1960 C   0  0  0  0  0  0  0  0  0  0  0  0
    1.8510   -1.7990   -0.9840 O   0  0  0  0  0  0  0  0  0  0  0  0
    3.7620   -0.6630   -1.7310 C   0  0  0  0  0  0  0  0  0  0  0  0
    4.3590    0.4480   -2.0080 C   0  0  0  0  0  0  0  0  0  0  0  0
    3.5000    1.6580   -1.7380 C   0  0  2  0  0  0  0  0  0  0  0  0
    4.0270    2.7740   -2.5080 O   0  0  0  0  0  0  0  0  0  0  0  0
    3.6440    2.0920   -0.3430 C   0  0  0  0  0  0  0  0  0  0  0  0
    4.7490    1.8640    0.4050 C   0  0  0  0  0  0  0  0  0  0  0  0
    5.9660    1.1720   -0.0030 C   0  0  2  0  0  0  0  0  0  0  0  0
    7.1300    1.4910    0.9410 C   0  0  0  0  0  0  0  0  0  0  0  0
    6.8130    1.0750    2.3210 C   0  0  0  0  0  0  0  0  0  0  0  0
    6.3840    1.8860    3.2110 N   0  0  0  0  0  0  0  0  0  0  0  0
    6.4410    1.5020   -1.3840 C   0  0  0  0  0  0  0  0  0  0  0  0
    5.7740    0.6750   -2.4730 C   0  0  1  0  0  0  0  0  0  0  0  0
    6.5910   -0.8330   -2.8480 S   0  0  0  0  0  0  0  0  0  0  0  0
    5.5670   -2.1780   -2.3900 C   0  0  0  0  0  0  0  0  0  0  0  0
    6.1010   -3.5540   -2.5490 C   0  0  0  0  0  0  0  0  0  0  0  0
    4.3700   -2.0100   -1.9220 C   0  0  0  0  0  0  0  0  0  0  0  0
   -2.1270   -0.3220    1.0210 C   0  0  0  0  0  0  0  0  0  0  0  0
  1  2  1  0
  2  3  1  0
  3  4  1  1
  3  5  1  0
  3  6  1  0
  6  7  1  0
  7  8  2  0
  7  9  1  0
 10  9  1  1
 10 11  1  0
 10 14  1  0
 10 40  1  0
 11 12  1  0
 11 13  2  0
 14 15  1  0
 15 16  1  0
 16 17  1  0
 17 18  1  0
 17 40  1  0
 18 19  2  0
 18 20  1  0
 20 21  1  0
 21 22  1  0
 22 23  2  0
 22 24  1  0
 24 25  2  0
 24 39  1  0
 25 26  1  0
 25 35  1  0
 26 27  1  6
 26 28  1  0
 28 29  2  0
 29 30  1  0
 30 31  1  1
 30 34  1  0
 31 32  1  0
 32 33  2  0
 35 34  1  1
 35 36  1  0
 36 37  1  0
 37 38  1  0
 37 39  2  0
M  END
