
     RDKit          3D

 40 43  0  0  0  0  0  0  0  0999 V2000
   -1.3600    0.4620   -2.7400 C   0  0  0  0  0  0  0  0  0  0  0  0
   -2.4410   -0.2890   -1.9770 C   0  0  0  0  0  0  0  0  0  0  0  0
   -1.8320   -1.2920   -1.0450 C   0  0  0  0  0  0  0  0  0  0  0  0
   -0.9360   -0.5730   -0.0310 C   0  0  0  0  0  0  0  0  0  0  0  0
   -1.5560    0.0510    1.0020 C   0  0  0  0  0  0  0  0  0  0  0  0
   -2.9040    0.2440    1.5090 C   0  0  0  0  0  0  0  0  0  0  0  0
   -2.9950    0.9590    2.6080 O   0  0  0  0  0  0  0  0  0  0  0  0
   -4.1170   -0.1970    1.0350 N   0  0  0  0  0  0  0  0  0  0  0  0
   -5.3960    0.1300    1.7330 C   0  0  0  0  0  0  0  0  0  0  0  0
   -6.4890   -0.5030    0.9490 C   0  0  2  0  0  0  0  0  0  0  0  0
   -6.4690    0.0200   -0.3370 O   0  0  0  0  0  0  0  0  0  0  0  0
   -7.8240   -0.4840    1.5880 C   0  0  2  0  0  0  0  0  0  0  0  0
   -8.7900   -1.1880    0.6190 C   0  0  0  0  0  0  0  0  0  0  0  0
   -9.3960   -0.1210   -0.2300 C   0  0  0  0  0  0  0  0  0  0  0  0
   -9.5140    1.0350    0.7110 C   0  0  2  0  0  0  0  0  0  0  0  0
   -9.1170    2.3540    0.1030 C   0  0  0  0  0  0  0  0  0  0  0  0
   -8.3830    3.0050    1.2820 C   0  0  0  0  0  0  0  0  0  0  0  0
   -7.6650    1.9310    1.7980 O   0  0  0  0  0  0  0  0  0  0  0  0
   -8.4720    0.8320    1.7820 C   0  0  2  0  0  0  0  0  0  0  0  0
   -0.1620    0.7870    1.8890 S   0  0  0  0  0  0  0  0  0  0  0  0
    1.1410    0.1770    0.7550 C   0  0  0  0  0  0  0  0  0  0  0  0
    2.4670    0.5340    1.0500 N   0  0  0  0  0  0  0  0  0  0  0  0
    3.5830    0.7630    0.2410 C   0  0  0  0  0  0  0  0  0  0  0  0
    3.4810    0.7150   -0.9860 O   0  0  0  0  0  0  0  0  0  0  0  0
    4.8490    1.0610    0.8080 N   0  0  0  0  0  0  0  0  0  0  0  0
    6.0920    1.3210    0.1900 C   0  0  0  0  0  0  0  0  0  0  0  0
    6.8140    0.2540   -0.5600 C   0  0  2  0  0  0  0  0  0  0  0  0
    7.1780   -0.9570    0.1890 C   0  0  0  0  0  0  0  0  0  0  0  0
    8.0500   -0.9600    1.3550 C   0  0  2  0  0  0  0  0  0  0  0  0
    7.6800   -0.1700    2.5570 C   0  0  0  0  0  0  0  0  0  0  0  0
    9.5440   -0.8300    1.0450 C   0  0  0  0  0  0  0  0  0  0  0  0
    8.0050    0.8780   -1.3070 C   0  0  0  0  0  0  0  0  0  0  0  0
    7.8770    0.3290   -2.7030 C   0  0  0  0  0  0  0  0  0  0  0  0
    7.1010   -0.8060   -2.5130 O   0  0  0  0  0  0  0  0  0  0  0  0
    6.0200   -0.2040   -1.7630 C   0  0  0  0  0  0  0  0  0  0  0  0
    0.4200   -0.5160   -0.1540 C   0  0  0  0  0  0  0  0  0  0  0  0
    1.1580   -1.4290   -1.1010 C   0  0  0  0  0  0  0  0  0  0  0  0
    0.5470   -2.0230   -2.0160 O   0  0  0  0  0  0  0  0  0  0  0  0
    2.4960   -1.6840   -1.0250 O   0  0  0  0  0  0  0  0  0  0  0  0
    3.0570   -2.5990   -1.9830 C   0  0  0  0  0  0  0  0  0  0  0  0
  1  2  1  0
  2  3  1  0
  3  4  1  0
  4  5  2  0
  4 36  1  0
  5  6  1  0
  5 20  1  0
  6  7  2  0
  6  8  1  0
  8  9  1  0
  9 10  1  0
 10 11  1  6
 10 12  1  0
 12 13  1  6
 12 19  1  0
 13 14  1  0
 15 14  1  6
 15 16  1  0
 15 19  1  0
 16 17  1  0
 17 18  1  0
 19 18  1  6
 20 21  1  0
 21 22  1  0
 21 36  2  0
 22 23  1  0
 23 24  2  0
 23 25  1  0
 25 26  1  0
 27 26  1  1
 27 28  1  0
 27 32  1  0
 27 35  1  0
 28 29  1  0
 29 30  1  1
 29 31  1  0
 32 33  1  0
 33 34  1  0
 34 35  1  0
 36 37  1  0
 37 38  2  0
 37 39  1  0
 39 40  1  0
M  END
