
     RDKit          3D

 40 44  0  0  0  0  0  0  0  0999 V2000
   -1.5990   -0.0400    1.9280 O   0  0  0  0  0  0  0  0  0  0  0  0
   -2.0330   -0.0710    0.7380 C   0  0  0  0  0  0  0  0  0  0  0  0
   -1.1710   -0.3960   -0.3370 N   0  0  0  0  0  0  0  0  0  0  0  0
    0.2110   -0.7120   -0.2050 C   0  0  1  0  0  0  0  0  0  0  0  0
    0.6550   -2.0130   -0.7740 C   0  0  0  0  0  0  0  0  0  0  0  0
   -0.0370   -3.1740   -0.1660 C   0  0  0  0  0  0  0  0  0  0  0  0
   -1.2000   -3.6390   -0.7250 C   0  0  0  0  0  0  0  0  0  0  0  0
   -1.9020   -4.7080   -0.2170 C   0  0  0  0  0  0  0  0  0  0  0  0
   -1.4480   -5.3700    0.9070 C   0  0  0  0  0  0  0  0  0  0  0  0
   -0.2830   -4.9190    1.4840 C   0  0  0  0  0  0  0  0  0  0  0  0
    0.4200   -3.8340    0.9600 C   0  0  0  0  0  0  0  0  0  0  0  0
    1.0230    0.4150   -0.6690 C   0  0  0  0  0  0  0  0  0  0  0  0
    0.5570    1.5810   -0.4180 O   0  0  0  0  0  0  0  0  0  0  0  0
    2.2460    0.2450   -1.3520 N   0  0  0  0  0  0  0  0  0  0  0  0
    2.9690    1.4540   -1.7480 C   0  0  0  0  0  0  0  0  0  0  0  0
    3.3760    2.2520   -0.5170 C   0  0  0  0  0  0  0  0  0  0  0  0
    4.2880    1.4110    0.3140 C   0  0  0  0  0  0  0  0  0  0  0  0
    3.7640    0.7040    1.3750 C   0  0  0  0  0  0  0  0  0  0  0  0
    4.5760   -0.1340    2.1430 C   0  0  0  0  0  0  0  0  0  0  0  0
    3.8820   -1.0170    3.4760 Cl  0  0  0  0  0  0  0  0  0  0  0  0
    5.9050   -0.2200    1.7980 C   0  0  0  0  0  0  0  0  0  0  0  0
    6.4570    0.4650    0.7560 C   0  0  0  0  0  0  0  0  0  0  0  0
    5.6140    1.2960    0.0080 C   0  0  0  0  0  0  0  0  0  0  0  0
    6.1550    2.0520   -1.0640 N   0  0  0  0  0  0  0  0  0  0  0  0
    6.6980    1.6300   -2.2110 C   0  0  0  0  0  0  0  0  0  0  0  0
    7.0800    2.7190   -2.9110 N   0  0  0  0  0  0  0  0  0  0  0  0
    6.7860    3.7990   -2.2220 N   0  0  0  0  0  0  0  0  0  0  0  0
    6.2240    3.3940   -1.1000 N   0  0  0  0  0  0  0  0  0  0  0  0
   -3.4300    0.2330    0.4900 C   0  0  0  0  0  0  0  0  0  0  0  0
   -4.2370   -0.7160   -0.0830 C   0  0  0  0  0  0  0  0  0  0  0  0
   -5.5670   -0.4790   -0.3630 C   0  0  0  0  0  0  0  0  0  0  0  0
   -6.0920    0.7520   -0.0540 C   0  0  0  0  0  0  0  0  0  0  0  0
   -7.3780    0.9980   -0.3250 N   0  0  0  0  0  0  0  0  0  0  0  0
   -7.9220    2.1910   -0.0420 C   0  0  0  0  0  0  0  0  0  0  0  0
   -9.1410    2.4020   -0.3080 O   0  0  0  0  0  0  0  0  0  0  0  0
   -7.1870    3.2000    0.5320 C   0  0  0  0  0  0  0  0  0  0  0  0
   -5.8360    2.9870    0.8340 C   0  0  0  0  0  0  0  0  0  0  0  0
   -5.1040    4.0000    1.4060 O   0  0  0  0  0  0  0  0  0  0  0  0
   -5.3200    1.7440    0.5250 C   0  0  0  0  0  0  0  0  0  0  0  0
   -3.9950    1.4550    0.7850 C   0  0  0  0  0  0  0  0  0  0  0  0
  1  2  2  0
  2  3  1  0
  2 29  1  0
  3  4  1  0
  4  5  1  6
  4 12  1  0
  5  6  1  0
  6  7  2  0
  6 11  1  0
  7  8  1  0
  8  9  2  0
  9 10  1  0
 10 11  2  0
 12 13  2  0
 12 14  1  0
 14 15  1  0
 15 16  1  0
 16 17  1  0
 17 18  2  0
 17 23  1  0
 18 19  1  0
 19 20  1  0
 19 21  2  0
 21 22  1  0
 22 23  2  0
 23 24  1  0
 24 25  1  0
 24 28  1  0
 25 26  2  0
 26 27  1  0
 27 28  2  0
 29 30  2  0
 29 40  1  0
 30 31  1  0
 31 32  2  0
 32 33  1  0
 32 39  1  0
 33 34  1  0
 34 35  2  0
 34 36  1  0
 36 37  2  0
 37 38  1  0
 37 39  1  0
 39 40  2  0
M  END
