
     RDKit          3D

 40 42  0  0  0  0  0  0  0  0999 V2000
    9.4420   -2.3920   -1.0010 C   0  0  0  0  0  0  0  0  0  0  0  0
    8.2550   -2.5550   -0.0020 C   0  0  1  0  0  0  0  0  0  0  0  0
    8.5760   -3.7640    0.8200 C   0  0  0  0  0  0  0  0  0  0  0  0
    8.3900   -1.3100    0.8820 C   0  0  0  0  0  0  0  0  0  0  0  0
    6.9830   -2.6040   -0.7630 C   0  0  0  0  0  0  0  0  0  0  0  0
    5.7110   -2.7920   -0.0650 C   0  0  0  0  0  0  0  0  0  0  0  0
    5.2850   -1.8690    0.9240 N   0  0  0  0  0  0  0  0  0  0  0  0
    5.4820   -2.0220    2.3430 C   0  0  0  0  0  0  0  0  0  0  0  0
    4.3240   -2.6870    3.0490 C   0  0  0  0  0  0  0  0  0  0  0  0
    3.9990   -4.0600    2.5790 C   0  0  0  0  0  0  0  0  0  0  0  0
    2.9060   -4.4960    3.3730 O   0  0  0  0  0  0  0  0  0  0  0  0
    4.5780   -0.6880    0.4820 C   0  0  0  0  0  0  0  0  0  0  0  0
    4.4280   -0.5660   -0.7600 O   0  0  0  0  0  0  0  0  0  0  0  0
    4.0600    0.3060    1.3680 C   0  0  0  0  0  0  0  0  0  0  0  0
    3.4120    1.3990    1.0640 C   0  0  0  0  0  0  0  0  0  0  0  0
    3.0630    1.8630   -0.2560 C   0  0  0  0  0  0  0  0  0  0  0  0
    2.3860    3.0120   -0.4340 C   0  0  0  0  0  0  0  0  0  0  0  0
    1.9660    3.6050   -1.7280 C   0  0  0  0  0  0  0  0  0  0  0  0
    0.9140    4.5950   -1.3560 C   0  0  0  0  0  0  0  0  0  0  0  0
    0.6220    4.2890    0.0800 C   0  0  1  0  0  0  0  0  0  0  0  0
   -0.2480    3.0820    0.3020 C   0  0  0  0  0  0  0  0  0  0  0  0
   -1.6050    3.2830   -0.1140 N   0  0  0  0  0  0  0  0  0  0  0  0
   -2.5610    2.2440    0.0350 C   0  0  0  0  0  0  0  0  0  0  0  0
   -2.1580    1.1690    0.5450 O   0  0  0  0  0  0  0  0  0  0  0  0
   -3.9830    2.4210   -0.3970 C   0  0  0  0  0  0  0  0  0  0  0  0
   -4.3970    3.5420   -0.9320 C   0  0  0  0  0  0  0  0  0  0  0  0
   -6.1330    3.3370   -1.2960 S   0  0  0  0  0  0  0  0  0  0  0  0
   -6.3590    1.9180   -0.1190 C   0  0  1  0  0  0  0  0  0  0  0  0
   -7.3980    1.0660   -0.5810 N   0  0  0  0  0  0  0  0  0  0  0  0
   -8.6150    0.8060    0.0810 C   0  0  0  0  0  0  0  0  0  0  0  0
   -8.7640    1.4130    1.1980 O   0  0  0  0  0  0  0  0  0  0  0  0
   -9.6970   -0.0660   -0.3730 C   0  0  2  0  0  0  0  0  0  0  0  0
   -9.2910   -1.5420   -0.4790 C   0  0  0  0  0  0  0  0  0  0  0  0
  -10.2540   -2.0270   -1.5330 C   0  0  0  0  0  0  0  0  0  0  0  0
  -10.6790   -0.9450   -2.2830 O   0  0  0  0  0  0  0  0  0  0  0  0
  -10.0390    0.1750   -1.8330 C   0  0  1  0  0  0  0  0  0  0  0  0
  -10.8370    1.4590   -2.0150 C   0  0  0  0  0  0  0  0  0  0  0  0
  -11.0890    1.6460   -3.3730 O   0  0  0  0  0  0  0  0  0  0  0  0
   -4.9750    1.3490   -0.2610 C   0  0  0  0  0  0  0  0  0  0  0  0
    1.9280    3.9000    0.5520 O   0  0  0  0  0  0  0  0  0  0  0  0
  2  1  1  6
  2  3  1  0
  2  4  1  0
  2  5  1  0
  5  6  1  0
  6  7  1  0
  7  8  1  0
  7 12  1  0
  8  9  1  0
  9 10  1  0
 10 11  1  0
 12 13  2  0
 12 14  1  0
 14 15  2  3
 15 16  1  0
 16 17  2  3
 17 18  1  0
 17 40  1  0
 18 19  1  0
 19 20  1  0
 20 21  1  6
 20 40  1  0
 21 22  1  0
 22 23  1  0
 23 24  2  0
 23 25  1  0
 25 26  2  0
 25 39  1  0
 26 27  1  0
 27 28  1  0
 28 29  1  6
 28 39  1  0
 29 30  1  0
 30 31  2  0
 32 30  1  6
 32 33  1  0
 32 36  1  0
 33 34  1  0
 34 35  1  0
 35 36  1  0
 36 37  1  1
 37 38  1  0
M  END
