
     RDKit          3D

 40 43  0  0  0  0  0  0  0  0999 V2000
   -0.2450   -5.9630    0.8450 C   0  0  0  0  0  0  0  0  0  0  0  0
   -0.8460   -5.0450    0.1170 C   0  0  0  0  0  0  0  0  0  0  0  0
   -2.3360   -5.0730   -0.0410 C   0  0  0  0  0  0  0  0  0  0  0  0
   -2.9400   -3.8640    0.4570 N   0  0  0  0  0  0  0  0  0  0  0  0
   -2.5690   -2.6250   -0.1280 C   0  0  0  0  0  0  0  0  0  0  0  0
   -1.7280   -2.5620   -1.0670 O   0  0  0  0  0  0  0  0  0  0  0  0
   -3.1600   -1.3350    0.3470 C   0  0  0  0  0  0  0  0  0  0  0  0
   -2.6600   -0.1290   -0.3270 C   0  0  2  0  0  0  0  0  0  0  0  0
   -1.1960    0.0200   -0.1370 N   0  0  0  0  0  0  0  0  0  0  0  0
   -0.3120    0.0930   -1.2080 C   0  0  0  0  0  0  0  0  0  0  0  0
   -0.8490    0.0300   -2.3890 O   0  0  0  0  0  0  0  0  0  0  0  0
    1.1160    0.2290   -1.1110 C   0  0  0  0  0  0  0  0  0  0  0  0
    1.9170    0.3870   -2.1810 O   0  0  0  0  0  0  0  0  0  0  0  0
    3.1560    0.4830   -1.8280 C   0  0  0  0  0  0  0  0  0  0  0  0
    4.6090    0.7030   -2.8590 S   0  0  0  0  0  0  0  0  0  0  0  0
    6.1030    0.7750   -1.8730 C   0  0  0  0  0  0  0  0  0  0  0  0
    6.4250   -0.5340   -1.1790 C   0  0  2  0  0  0  0  0  0  0  0  0
    6.6060   -1.6030   -2.2190 C   0  0  0  0  0  0  0  0  0  0  0  0
    7.1490   -2.7310   -1.6550 O   0  0  0  0  0  0  0  0  0  0  0  0
    7.0870   -2.7020   -0.2740 C   0  0  0  0  0  0  0  0  0  0  0  0
    5.7760   -2.1510    0.2390 C   0  0  1  0  0  0  0  0  0  0  0  0
    5.7880   -2.2690    1.7500 C   0  0  0  0  0  0  0  0  0  0  0  0
    5.5290   -0.8710   -0.1900 O   0  0  0  0  0  0  0  0  0  0  0  0
    3.2010    0.3900   -0.4980 N   0  0  0  0  0  0  0  0  0  0  0  0
    1.9210    0.2290   -0.0280 C   0  0  0  0  0  0  0  0  0  0  0  0
    1.6690    0.1050    1.4310 C   0  0  0  0  0  0  0  0  0  0  0  0
    1.1800    1.4120    1.9850 C   0  0  0  0  0  0  0  0  0  0  0  0
   -3.3080    1.1610    0.1270 C   0  0  1  0  0  0  0  0  0  0  0  0
   -4.8040    1.1320   -0.1040 C   0  0  0  0  0  0  0  0  0  0  0  0
   -5.1520    0.9450   -1.5410 C   0  0  0  0  0  0  0  0  0  0  0  0
   -2.9590    1.4600    1.5620 C   0  0  0  0  0  0  0  0  0  0  0  0
   -3.7760    2.5300    2.2050 C   0  0  0  0  0  0  0  0  0  0  0  0
   -3.8670    3.6910    1.3100 C   0  0  0  0  0  0  0  0  0  0  0  0
   -4.3840    4.8360    1.7540 C   0  0  0  0  0  0  0  0  0  0  0  0
   -4.4950    5.9540    0.9660 O   0  0  0  0  0  0  0  0  0  0  0  0
   -4.1120    5.9670   -0.3940 C   0  0  0  0  0  0  0  0  0  0  0  0
   -3.5420    4.6780   -0.8450 C   0  0  0  0  0  0  0  0  0  0  0  0
   -3.4170    3.6000   -0.0660 C   0  0  0  0  0  0  0  0  0  0  0  0
   -2.8000    2.3550   -0.6580 C   0  0  1  0  0  0  0  0  0  0  0  0
   -1.4060    2.4630   -0.5850 O   0  0  0  0  0  0  0  0  0  0  0  0
  1  2  2  0
  2  3  1  0
  3  4  1  0
  4  5  1  0
  5  6  2  0
  5  7  1  0
  8  7  1  1
  8  9  1  0
  8 28  1  0
  9 10  1  0
 10 11  2  0
 10 12  1  0
 12 13  1  0
 12 25  2  0
 13 14  1  0
 14 15  1  0
 14 24  2  0
 15 16  1  0
 17 16  1  6
 17 18  1  0
 17 23  1  0
 18 19  1  0
 19 20  1  0
 20 21  1  0
 21 22  1  1
 21 23  1  0
 24 25  1  0
 25 26  1  0
 26 27  1  0
 28 29  1  1
 28 31  1  0
 28 39  1  0
 29 30  1  0
 31 32  1  0
 32 33  1  0
 33 34  2  0
 33 38  1  0
 34 35  1  0
 35 36  1  0
 36 37  1  0
 37 38  2  0
 38 39  1  0
 39 40  1  1
M  END
