
     RDKit          3D

 40 43  0  0  0  0  0  0  0  0999 V2000
  -10.6540   -1.2240   -1.0570 C   0  0  0  0  0  0  0  0  0  0  0  0
   -9.5880   -0.5520   -0.4210 O   0  0  0  0  0  0  0  0  0  0  0  0
   -8.4370   -0.2700   -1.1720 C   0  0  0  0  0  0  0  0  0  0  0  0
   -8.3780   -0.6440   -2.4950 C   0  0  0  0  0  0  0  0  0  0  0  0
   -7.2470   -0.3720   -3.2530 C   0  0  0  0  0  0  0  0  0  0  0  0
   -7.1410   -0.7640   -4.6730 C   0  0  0  0  0  0  0  0  0  0  0  0
   -6.1870    0.2840   -2.6440 C   0  0  0  0  0  0  0  0  0  0  0  0
   -6.1890    0.6820   -1.3280 C   0  0  0  0  0  0  0  0  0  0  0  0
   -5.1400    1.3440   -0.6590 N   0  0  0  0  0  0  0  0  0  0  0  0
   -3.9710    1.8480   -1.2860 C   0  0  0  0  0  0  0  0  0  0  0  0
   -3.7870    1.7490   -2.5100 O   0  0  0  0  0  0  0  0  0  0  0  0
   -2.9190    2.5220   -0.4660 C   0  0  0  0  0  0  0  0  0  0  0  0
   -1.8220    3.0340   -1.3210 C   0  0  0  0  0  0  0  0  0  0  0  0
   -1.1080    1.9560   -2.0520 C   0  0  0  0  0  0  0  0  0  0  0  0
   -0.4780    0.9290   -1.1760 C   0  0  0  0  0  0  0  0  0  0  0  0
   -0.7820   -0.1790   -0.6670 N   0  0  0  0  0  0  0  0  0  0  0  0
   -0.0070   -0.8950    0.0890 C   0  0  0  0  0  0  0  0  0  0  0  0
    1.2310   -0.4490    0.3720 C   0  0  0  0  0  0  0  0  0  0  0  0
    2.3290   -0.9680    1.1300 C   0  0  0  0  0  0  0  0  0  0  0  0
    2.1880   -2.0960    1.6580 O   0  0  0  0  0  0  0  0  0  0  0  0
    3.4750   -0.2130    1.2430 O   0  0  0  0  0  0  0  0  0  0  0  0
    4.5690   -0.7150    1.9840 C   0  0  2  0  0  0  0  0  0  0  0  0
    4.7170    0.1780    3.2380 C   0  0  0  0  0  0  0  0  0  0  0  0
    5.8420   -0.5660    1.2610 C   0  0  0  0  0  0  0  0  0  0  0  0
    5.8120   -0.0180    0.1290 O   0  0  0  0  0  0  0  0  0  0  0  0
    7.1060   -0.9910    1.7430 N   0  0  0  0  0  0  0  0  0  0  0  0
    8.3190   -0.8040    0.9800 C   0  0  2  0  0  0  0  0  0  0  0  0
    9.3640   -1.8680    0.8850 C   0  0  1  0  0  0  0  0  0  0  0  0
   10.0620   -2.0920   -0.4040 C   0  0  0  0  0  0  0  0  0  0  0  0
   10.9600   -1.0250   -0.8810 C   0  0  0  0  0  0  0  0  0  0  0  0
   10.6590    0.3510   -0.3640 C   0  0  0  0  0  0  0  0  0  0  0  0
   10.6770    0.2800    1.1410 C   0  0  1  0  0  0  0  0  0  0  0  0
   10.6120    1.4960    1.7740 O   0  0  0  0  0  0  0  0  0  0  0  0
    9.6310   -0.6670    1.6320 C   0  0  1  0  0  0  0  0  0  0  0  0
    1.2580    1.1290   -0.5300 S   0  0  0  0  0  0  0  0  0  0  0  0
   -7.3660    0.3740   -0.6160 C   0  0  0  0  0  0  0  0  0  0  0  0
   -7.4580    0.7380    0.7160 O   0  0  0  0  0  0  0  0  0  0  0  0
   -7.1420   -0.0460    1.8250 C   0  0  2  0  0  0  0  0  0  0  0  0
   -8.4950   -0.5030    2.4280 C   0  0  0  0  0  0  0  0  0  0  0  0
   -6.3720    0.6190    2.9050 C   0  0  0  0  0  0  0  0  0  0  0  0
  1  2  1  0
  2  3  1  0
  3  4  2  0
  3 36  1  0
  4  5  1  0
  5  6  1  0
  5  7  2  0
  7  8  1  0
  8  9  1  0
  8 36  2  0
  9 10  1  0
 10 11  2  0
 10 12  1  0
 12 13  1  0
 13 14  1  0
 14 15  1  0
 15 16  2  0
 15 35  1  0
 16 17  1  0
 17 18  2  0
 18 19  1  0
 18 35  1  0
 19 20  2  0
 19 21  1  0
 21 22  1  0
 22 23  1  1
 22 24  1  0
 24 25  2  0
 24 26  1  0
 27 26  1  1
 27 28  1  0
 27 34  1  0
 28 29  1  6
 28 34  1  0
 29 30  1  0
 30 31  1  0
 31 32  1  0
 32 33  1  1
 34 32  1  6
 36 37  1  0
 37 38  1  0
 38 39  1  1
 38 40  1  0
M  END
