
     RDKit          3D

 39 43  0  0  0  0  0  0  0  0999 V2000
   -1.0760   -0.8060    4.4730 C   0  0  0  0  0  0  0  0  0  0  0  0
   -2.3970   -1.4410    4.5260 C   0  0  0  0  0  0  0  0  0  0  0  0
   -3.4540   -1.3090    3.8070 C   0  0  0  0  0  0  0  0  0  0  0  0
   -3.8360   -0.5320    2.6780 C   0  0  0  0  0  0  0  0  0  0  0  0
   -5.0910   -0.7520    2.2580 O   0  0  0  0  0  0  0  0  0  0  0  0
   -3.2030    0.4140    1.9030 N   0  0  0  0  0  0  0  0  0  0  0  0
   -3.9740    0.9840    0.7630 C   0  0  0  0  0  0  0  0  0  0  0  0
   -3.7770    0.1860   -0.4450 C   0  0  0  0  0  0  0  0  0  0  0  0
   -3.0000   -0.9470   -0.4090 C   0  0  0  0  0  0  0  0  0  0  0  0
   -2.8200   -1.7010   -1.5210 N   0  0  0  0  0  0  0  0  0  0  0  0
   -3.3750   -1.3970   -2.6980 C   0  0  0  0  0  0  0  0  0  0  0  0
   -3.1830   -2.1270   -3.7150 O   0  0  0  0  0  0  0  0  0  0  0  0
   -4.1600   -0.2650   -2.7630 C   0  0  0  0  0  0  0  0  0  0  0  0
   -4.3570    0.5170   -1.6450 C   0  0  0  0  0  0  0  0  0  0  0  0
   -5.2350    1.6350   -2.0540 C   0  0  0  0  0  0  0  0  0  0  0  0
   -5.2250    1.6200   -3.4870 N   0  0  0  0  0  0  0  0  0  0  0  0
   -4.8810    0.2970   -3.9190 C   0  0  0  0  0  0  0  0  0  0  0  0
   -1.9000    0.9810    1.9900 C   0  0  0  0  0  0  0  0  0  0  0  0
   -0.7610    0.6290    1.3750 N   0  0  0  0  0  0  0  0  0  0  0  0
    0.2020    1.4850    1.7320 C   0  0  0  0  0  0  0  0  0  0  0  0
    1.5500    1.4980    1.3240 C   0  0  0  0  0  0  0  0  0  0  0  0
    2.0120    0.5140    0.4400 N   0  0  0  0  0  0  0  0  0  0  0  0
    3.3070    0.3880   -0.1170 C   0  0  0  0  0  0  0  0  0  0  0  0
    4.1620    1.2200    0.1800 O   0  0  0  0  0  0  0  0  0  0  0  0
    3.6620   -0.6480   -0.9990 N   0  0  0  0  0  0  0  0  0  0  0  0
    4.9060   -0.8720   -1.6170 C   0  0  0  0  0  0  0  0  0  0  0  0
    6.0180   -0.0740   -1.5070 C   0  0  0  0  0  0  0  0  0  0  0  0
    7.2170   -0.3800   -2.1750 C   0  0  0  0  0  0  0  0  0  0  0  0
    7.3390   -1.4910   -2.9710 C   0  0  0  0  0  0  0  0  0  0  0  0
    8.4730   -1.8150   -3.6270 F   0  0  0  0  0  0  0  0  0  0  0  0
    6.2360   -2.2970   -3.0900 C   0  0  0  0  0  0  0  0  0  0  0  0
    6.3490   -3.5220   -3.9550 C   0  0  0  0  0  0  0  0  0  0  0  0
    5.0680   -1.9980   -2.4380 C   0  0  0  0  0  0  0  0  0  0  0  0
    4.0120   -2.8220   -2.5860 F   0  0  0  0  0  0  0  0  0  0  0  0
    2.2980    2.5100    1.8600 C   0  0  0  0  0  0  0  0  0  0  0  0
    1.7810    3.4690    2.7460 C   0  0  0  0  0  0  0  0  0  0  0  0
    0.4580    3.4160    3.1150 C   0  0  0  0  0  0  0  0  0  0  0  0
   -0.3240    2.4100    2.5940 C   0  0  0  0  0  0  0  0  0  0  0  0
   -1.6250    2.0860    2.7450 N   0  0  0  0  0  0  0  0  0  0  0  0
  1  2  1  0
  2  3  2  3
  3  4  1  0
  4  5  2  0
  4  6  1  0
  6  7  1  0
  6 18  1  0
  7  8  1  0
  8  9  2  0
  8 14  1  0
  9 10  1  0
 10 11  1  0
 11 12  2  0
 11 13  1  0
 13 14  2  0
 13 17  1  0
 14 15  1  0
 15 16  1  0
 16 17  1  0
 18 19  2  0
 18 39  1  0
 19 20  1  0
 20 21  2  0
 20 38  1  0
 21 22  1  0
 21 35  1  0
 22 23  1  0
 23 24  2  0
 23 25  1  0
 25 26  1  0
 26 27  2  0
 26 33  1  0
 27 28  1  0
 28 29  2  0
 29 30  1  0
 29 31  1  0
 31 32  1  0
 31 33  2  0
 33 34  1  0
 35 36  2  0
 36 37  1  0
 37 38  2  0
 38 39  1  0
M  END
