
     RDKit          3D

 39 43  0  0  0  0  0  0  0  0999 V2000
  -10.4720   -3.0470    1.4350 C   0  0  0  0  0  0  0  0  0  0  0  0
   -9.7970   -2.2470    0.6390 C   0  0  0  0  0  0  0  0  0  0  0  0
   -8.4100   -1.8470    0.6720 C   0  0  0  0  0  0  0  0  0  0  0  0
   -8.0060   -1.3610   -0.4910 C   0  0  0  0  0  0  0  0  0  0  0  0
   -6.6640   -0.8610   -0.8150 C   0  0  0  0  0  0  0  0  0  0  0  0
   -6.4360   -0.4360   -1.9520 O   0  0  0  0  0  0  0  0  0  0  0  0
   -5.6720   -0.8800    0.1860 N   0  0  0  0  0  0  0  0  0  0  0  0
   -4.3450   -0.4150   -0.0350 C   0  0  0  0  0  0  0  0  0  0  0  0
   -4.0560    0.0220   -1.1540 O   0  0  0  0  0  0  0  0  0  0  0  0
   -3.3580   -0.4610    1.0500 C   0  0  0  0  0  0  0  0  0  0  0  0
   -2.0620    0.0920    0.5190 C   0  0  0  0  0  0  0  0  0  0  0  0
   -1.0560   -0.6180   -0.0890 C   0  0  0  0  0  0  0  0  0  0  0  0
   -0.0690    0.3210   -0.4060 C   0  0  0  0  0  0  0  0  0  0  0  0
   -0.4710    1.5270   -0.0060 N   0  0  0  0  0  0  0  0  0  0  0  0
    0.2690    2.7600   -0.1500 C   0  0  0  0  0  0  0  0  0  0  0  0
   -0.2920    3.8950    0.2960 C   0  0  0  0  0  0  0  0  0  0  0  0
    0.5280    5.1290    0.1120 C   0  0  0  0  0  0  0  0  0  0  0  0
    0.9230    5.1030   -1.3580 C   0  0  0  0  0  0  0  0  0  0  0  0
    1.9380    4.0190   -1.5480 C   0  0  0  0  0  0  0  0  0  0  0  0
    1.6170    2.8030   -0.7520 C   0  0  1  0  0  0  0  0  0  0  0  0
    2.6310    2.5290    0.2550 N   0  0  0  0  0  0  0  0  0  0  0  0
    3.5270    1.4350    0.1370 C   0  0  0  0  0  0  0  0  0  0  0  0
    3.4840    0.6440   -0.8620 O   0  0  0  0  0  0  0  0  0  0  0  0
    4.5220    1.1510    1.1160 N   0  0  0  0  0  0  0  0  0  0  0  0
    5.3820    0.0340    0.9210 C   0  0  0  0  0  0  0  0  0  0  0  0
    5.2890   -0.7650   -0.1580 N   0  0  0  0  0  0  0  0  0  0  0  0
    6.1410   -1.7980   -0.2620 C   0  0  0  0  0  0  0  0  0  0  0  0
    6.1030   -2.7250   -1.4210 C   0  0  0  0  0  0  0  0  0  0  0  0
    7.1130   -2.0630    0.7120 C   0  0  0  0  0  0  0  0  0  0  0  0
    7.1860   -1.2290    1.8050 C   0  0  0  0  0  0  0  0  0  0  0  0
    6.3120   -0.2110    1.8620 N   0  0  0  0  0  0  0  0  0  0  0  0
    8.2940   -1.6870    2.7200 C   0  0  0  0  0  0  0  0  0  0  0  0
    9.1520   -2.5000    1.7720 C   0  0  0  0  0  0  0  0  0  0  0  0
    8.1440   -3.1050    0.8430 C   0  0  0  0  0  0  0  0  0  0  0  0
   -1.6570    1.3730    0.5410 N   0  0  0  0  0  0  0  0  0  0  0  0
   -9.1400   -1.4110   -1.4290 C   0  0  2  0  0  0  0  0  0  0  0  0
   -9.0320   -2.5270   -2.2400 F   0  0  0  0  0  0  0  0  0  0  0  0
   -9.1640   -0.2820   -2.2440 F   0  0  0  0  0  0  0  0  0  0  0  0
  -10.3480   -1.5210   -0.5640 C   0  0  0  0  0  0  0  0  0  0  0  0
  1  2  2  0
  2  3  1  0
  2 39  1  0
  3  4  2  0
  4  5  1  0
  4 36  1  0
  5  6  2  0
  5  7  1  0
  7  8  1  0
  8  9  2  0
  8 10  1  0
 10 11  1  0
 11 12  1  0
 11 35  2  0
 12 13  2  0
 13 14  1  0
 14 15  1  0
 14 35  1  0
 15 16  2  0
 15 20  1  0
 16 17  1  0
 17 18  1  0
 18 19  1  0
 19 20  1  0
 20 21  1  1
 21 22  1  0
 22 23  2  0
 22 24  1  0
 24 25  1  0
 25 26  2  0
 25 31  1  0
 26 27  1  0
 27 28  1  0
 27 29  2  0
 29 30  1  0
 29 34  1  0
 30 31  2  0
 30 32  1  0
 32 33  1  0
 33 34  1  0
 36 37  1  6
 36 38  1  0
 36 39  1  0
M  END
