
     RDKit          3D

 39 43  0  0  0  0  0  0  0  0999 V2000
   -2.3680   -3.8550   -1.6960 C   0  0  0  0  0  0  0  0  0  0  0  0
   -1.6320   -2.8770   -0.9090 N   0  0  0  0  0  0  0  0  0  0  0  0
   -0.3860   -3.0480   -0.5280 N   0  0  0  0  0  0  0  0  0  0  0  0
    0.0490   -1.9860    0.1910 C   0  0  0  0  0  0  0  0  0  0  0  0
    1.3900   -1.8420    0.7860 C   0  0  0  0  0  0  0  0  0  0  0  0
    1.6720   -0.8020    1.4000 O   0  0  0  0  0  0  0  0  0  0  0  0
    2.3590   -2.8640    0.6700 N   0  0  0  0  0  0  0  0  0  0  0  0
    3.6650   -2.8330    1.2000 C   0  0  0  0  0  0  0  0  0  0  0  0
    4.1260   -3.6940    2.0760 C   0  0  0  0  0  0  0  0  0  0  0  0
    5.4910   -3.3570    2.3890 C   0  0  0  0  0  0  0  0  0  0  0  0
    5.8320   -2.3250    1.7170 N   0  0  0  0  0  0  0  0  0  0  0  0
    4.7420   -1.8990    0.9170 C   0  0  0  0  0  0  0  0  0  0  0  0
    4.7300   -0.8700    0.1200 C   0  0  0  0  0  0  0  0  0  0  0  0
    5.9040   -0.0400   -0.0460 C   0  0  0  0  0  0  0  0  0  0  0  0
    5.7100    1.3440   -0.0500 C   0  0  0  0  0  0  0  0  0  0  0  0
    6.7750    2.2000   -0.2170 C   0  0  0  0  0  0  0  0  0  0  0  0
    8.0480    1.7080   -0.3830 C   0  0  0  0  0  0  0  0  0  0  0  0
    9.1940    2.6310   -0.5630 C   0  0  0  0  0  0  0  0  0  0  0  0
    9.6470    2.9890    0.7230 O   0  0  0  0  0  0  0  0  0  0  0  0
    8.2660    0.3530   -0.3840 C   0  0  0  0  0  0  0  0  0  0  0  0
    7.1790   -0.4840   -0.2140 C   0  0  0  0  0  0  0  0  0  0  0  0
    7.4280   -1.8090   -0.2340 F   0  0  0  0  0  0  0  0  0  0  0  0
   -1.0230   -1.1250    0.2360 C   0  0  0  0  0  0  0  0  0  0  0  0
   -2.0710   -1.6700   -0.4440 C   0  0  0  0  0  0  0  0  0  0  0  0
   -3.3910   -1.2260   -0.7020 N   0  0  0  0  0  0  0  0  0  0  0  0
   -3.9100    0.0340   -0.2320 C   0  0  0  0  0  0  0  0  0  0  0  0
   -3.1410    0.7320    0.4150 O   0  0  0  0  0  0  0  0  0  0  0  0
   -5.2340    0.4240   -0.5090 N   0  0  0  0  0  0  0  0  0  0  0  0
   -5.8250    1.6350   -0.0930 C   0  0  0  0  0  0  0  0  0  0  0  0
   -5.1080    2.6430    0.5150 C   0  0  0  0  0  0  0  0  0  0  0  0
   -5.6940    3.8100    0.8840 N   0  0  0  0  0  0  0  0  0  0  0  0
   -6.9840    4.0040    0.6650 C   0  0  0  0  0  0  0  0  0  0  0  0
   -7.7980    3.0590    0.0620 C   0  0  0  0  0  0  0  0  0  0  0  0
   -9.1320    3.2830   -0.1510 C   0  0  0  0  0  0  0  0  0  0  0  0
   -9.9380    2.3430   -0.7450 C   0  0  0  0  0  0  0  0  0  0  0  0
   -9.3720    1.1560   -1.1270 C   0  0  0  0  0  0  0  0  0  0  0  0
  -10.0990    0.1840   -1.7160 F   0  0  0  0  0  0  0  0  0  0  0  0
   -8.0040    0.9300   -0.9070 C   0  0  0  0  0  0  0  0  0  0  0  0
   -7.1880    1.8630   -0.3150 C   0  0  0  0  0  0  0  0  0  0  0  0
  1  2  1  0
  2  3  1  0
  2 24  1  0
  3  4  2  0
  4  5  1  0
  4 23  1  0
  5  6  2  0
  5  7  1  0
  7  8  1  0
  8  9  2  0
  8 12  1  0
  9 10  1  0
 10 11  2  0
 11 12  1  0
 12 13  2  3
 13 14  1  0
 14 15  2  0
 14 21  1  0
 15 16  1  0
 16 17  2  0
 17 18  1  0
 17 20  1  0
 18 19  1  0
 20 21  2  0
 21 22  1  0
 23 24  2  0
 24 25  1  0
 25 26  1  0
 26 27  2  0
 26 28  1  0
 28 29  1  0
 29 30  2  0
 29 39  1  0
 30 31  1  0
 31 32  2  0
 32 33  1  0
 33 34  2  0
 33 39  1  0
 34 35  1  0
 35 36  2  0
 36 37  1  0
 36 38  1  0
 38 39  2  0
M  END
