
     RDKit          3D

 39 41  0  0  0  0  0  0  0  0999 V2000
   -7.8190    2.8720   -2.2460 C   0  0  0  0  0  0  0  0  0  0  0  0
   -7.9370    1.4550   -1.9290 N   0  0  0  0  0  0  0  0  0  0  0  0
   -6.6190    0.9910   -1.4170 C   0  0  0  0  0  0  0  0  0  0  0  0
   -6.7870   -0.3890   -0.9370 C   0  0  0  0  0  0  0  0  0  0  0  0
   -8.0570   -0.9850   -1.0730 C   0  0  0  0  0  0  0  0  0  0  0  0
   -8.3040   -2.2660   -0.6370 C   0  0  0  0  0  0  0  0  0  0  0  0
   -7.2420   -2.9220   -0.0630 C   0  0  0  0  0  0  0  0  0  0  0  0
   -7.4810   -4.3340    0.3870 C   0  0  0  0  0  0  0  0  0  0  0  0
   -6.0110   -2.3730    0.0840 C   0  0  0  0  0  0  0  0  0  0  0  0
   -5.7330   -1.0550   -0.3620 C   0  0  0  0  0  0  0  0  0  0  0  0
   -4.4910   -0.5390   -0.2100 O   0  0  0  0  0  0  0  0  0  0  0  0
   -3.9460    0.4090    0.5370 C   0  0  0  0  0  0  0  0  0  0  0  0
   -4.7850    1.0270    1.3340 O   0  0  0  0  0  0  0  0  0  0  0  0
   -2.5720    0.8070    0.5310 C   0  0  0  0  0  0  0  0  0  0  0  0
   -1.4850    0.3660    0.0480 C   0  0  0  0  0  0  0  0  0  0  0  0
   -1.1970   -0.8180   -0.7150 C   0  0  0  0  0  0  0  0  0  0  0  0
   -1.9730   -1.9510   -0.7130 C   0  0  0  0  0  0  0  0  0  0  0  0
   -1.6190   -3.0510   -1.4580 C   0  0  0  0  0  0  0  0  0  0  0  0
   -0.4580   -3.0700   -2.2400 C   0  0  0  0  0  0  0  0  0  0  0  0
   -0.0700   -4.2590   -2.7870 C   0  0  0  0  0  0  0  0  0  0  0  0
    0.3060   -5.3540   -3.2800 N   0  0  0  0  0  0  0  0  0  0  0  0
    0.3260   -1.9550   -2.2620 C   0  0  0  0  0  0  0  0  0  0  0  0
   -0.0340   -0.8810   -1.5310 C   0  0  0  0  0  0  0  0  0  0  0  0
   -0.2670    1.2450    0.3010 C   0  0  1  0  0  0  0  0  0  0  0  0
   -0.8390    2.5760    0.4830 O   0  0  0  0  0  0  0  0  0  0  0  0
    0.5860    1.0240    1.4270 C   0  0  0  0  0  0  0  0  0  0  0  0
    1.3010   -0.1800    1.8130 C   0  0  1  0  0  0  0  0  0  0  0  0
    0.2370   -1.1590    2.0700 O   0  0  0  0  0  0  0  0  0  0  0  0
    2.2600   -0.8430    0.8860 C   0  0  0  0  0  0  0  0  0  0  0  0
    3.3760    0.0010    0.3530 C   0  0  0  0  0  0  0  0  0  0  0  0
    4.2380    0.4960    1.4130 N   0  0  0  0  0  0  0  0  0  0  0  0
    5.5760    0.6520    0.9640 C   0  0  2  0  0  0  0  0  0  0  0  0
    6.4280   -0.3650    1.7260 C   0  0  0  0  0  0  0  0  0  0  0  0
    7.8630   -0.2580    1.2490 C   0  0  0  0  0  0  0  0  0  0  0  0
    8.4280    1.1080    1.5570 C   0  0  0  0  0  0  0  0  0  0  0  0
    7.3790    2.1000    1.8950 C   0  0  0  0  0  0  0  0  0  0  0  0
    6.1780    1.9940    0.9440 C   0  0  1  0  0  0  0  0  0  0  0  0
    6.7180    2.3230   -0.4530 C   0  0  0  0  0  0  0  0  0  0  0  0
    5.2620    3.1430    1.3200 C   0  0  0  0  0  0  0  0  0  0  0  0
  1  2  1  0
  2  3  1  0
  3  4  1  0
  4  5  2  0
  4 10  1  0
  5  6  1  0
  6  7  2  0
  7  8  1  0
  7  9  1  0
  9 10  2  0
 10 11  1  0
 11 12  1  0
 12 13  2  0
 12 14  1  0
 14 15  2  3
 15 16  1  0
 15 24  1  0
 16 17  2  0
 16 23  1  0
 17 18  1  0
 18 19  2  0
 19 20  1  0
 19 22  1  0
 20 21  3  0
 22 23  2  0
 24 25  1  1
 24 26  1  0
 26 27  1  0
 27 28  1  6
 27 29  1  0
 29 30  1  0
 30 31  1  0
 32 31  1  1
 32 33  1  0
 32 37  1  0
 33 34  1  0
 34 35  1  0
 35 36  1  0
 36 37  1  0
 37 38  1  6
 37 39  1  0
M  CHG  1  31   1
M  END
