
     RDKit          3D

 39 43  0  0  0  0  0  0  0  0999 V2000
    3.1830   -3.7060    2.1310 C   0  0  0  0  0  0  0  0  0  0  0  0
    2.6860   -2.6190    1.2890 N   0  0  0  0  0  0  0  0  0  0  0  0
    3.1510   -1.3010    1.6200 C   0  0  0  0  0  0  0  0  0  0  0  0
    4.4180   -1.0280    0.8440 C   0  0  0  0  0  0  0  0  0  0  0  0
    4.9160   -1.8200   -0.1200 N   0  0  0  0  0  0  0  0  0  0  0  0
    6.0570   -1.2240   -0.5620 C   0  0  0  0  0  0  0  0  0  0  0  0
    6.2450   -0.0580    0.1470 C   0  0  0  0  0  0  0  0  0  0  0  0
    7.3080    0.9300    0.0530 C   0  0  0  0  0  0  0  0  0  0  0  0
    7.3010    2.0290    0.8800 C   0  0  0  0  0  0  0  0  0  0  0  0
    8.2640    3.0010    0.8480 C   0  0  0  0  0  0  0  0  0  0  0  0
    9.2830    2.8600   -0.0610 C   0  0  0  0  0  0  0  0  0  0  0  0
    9.3430    1.7820   -0.9140 C   0  0  0  0  0  0  0  0  0  0  0  0
    8.3290    0.8130   -0.8390 C   0  0  0  0  0  0  0  0  0  0  0  0
    8.4150   -0.2250   -1.6830 F   0  0  0  0  0  0  0  0  0  0  0  0
    5.2070   -0.0010    0.9880 O   0  0  0  0  0  0  0  0  0  0  0  0
    1.8020   -2.8420    0.2190 C   0  0  0  0  0  0  0  0  0  0  0  0
    1.4220   -4.0070   -0.0250 O   0  0  0  0  0  0  0  0  0  0  0  0
    1.3390   -1.7720   -0.5840 N   0  0  0  0  0  0  0  0  0  0  0  0
    0.4700   -2.0540   -1.6280 N   0  0  0  0  0  0  0  0  0  0  0  0
   -0.7090   -1.5050   -1.6220 C   0  0  0  0  0  0  0  0  0  0  0  0
   -1.0680   -0.6290   -0.5350 C   0  0  0  0  0  0  0  0  0  0  0  0
   -2.2800   -0.0700   -0.5340 C   0  0  0  0  0  0  0  0  0  0  0  0
   -3.2590   -0.2960   -1.5650 C   0  0  0  0  0  0  0  0  0  0  0  0
   -4.4470    0.2610   -1.5500 C   0  0  0  0  0  0  0  0  0  0  0  0
   -4.8860    1.1560   -0.4940 C   0  0  0  0  0  0  0  0  0  0  0  0
   -6.0560    0.6120    0.1610 N   0  0  0  0  0  0  0  0  0  0  0  0
   -6.6330    1.3240    1.2270 C   0  0  0  0  0  0  0  0  0  0  0  0
   -7.9120    1.6340    1.3580 C   0  0  0  0  0  0  0  0  0  0  0  0
   -8.0420    2.3770    2.6220 C   0  0  0  0  0  0  0  0  0  0  0  0
   -6.6830    2.4580    3.2060 C   0  0  0  0  0  0  0  0  0  0  0  0
   -5.8710    1.8390    2.3800 C   0  0  0  0  0  0  0  0  0  0  0  0
   -4.5370    1.6910    2.5500 F   0  0  0  0  0  0  0  0  0  0  0  0
   -5.3780   -0.0230   -2.6380 C   0  0  0  0  0  0  0  0  0  0  0  0
   -6.7010    0.5450   -2.6980 N   0  0  0  0  0  0  0  0  0  0  0  0
   -5.0840   -0.8030   -3.6220 N   0  0  0  0  0  0  0  0  0  0  0  0
   -3.8310   -1.4500   -3.7290 C   0  0  0  0  0  0  0  0  0  0  0  0
   -3.4970   -2.2180   -4.6660 O   0  0  0  0  0  0  0  0  0  0  0  0
   -2.8520   -1.1970   -2.6550 C   0  0  0  0  0  0  0  0  0  0  0  0
   -1.6680   -1.7600   -2.6830 C   0  0  0  0  0  0  0  0  0  0  0  0
  1  2  1  0
  2  3  1  0
  2 16  1  0
  3  4  1  0
  4  5  2  0
  4 15  1  0
  5  6  1  0
  6  7  2  0
  7  8  1  0
  7 15  1  0
  8  9  2  0
  8 13  1  0
  9 10  1  0
 10 11  2  0
 11 12  1  0
 12 13  2  0
 13 14  1  0
 16 17  2  0
 16 18  1  0
 18 19  1  0
 19 20  2  3
 20 21  1  0
 20 39  1  0
 21 22  2  0
 22 23  1  0
 23 24  2  0
 23 38  1  0
 24 25  1  0
 24 33  1  0
 25 26  1  0
 26 27  1  0
 27 28  2  0
 27 31  1  0
 28 29  1  0
 29 30  1  0
 30 31  2  0
 31 32  1  0
 33 34  1  0
 33 35  2  0
 35 36  1  0
 36 37  2  0
 36 38  1  0
 38 39  2  0
M  END
