
     RDKit          3D

 39 41  0  0  0  0  0  0  0  0999 V2000
    1.9030    9.7750    0.0700 C   0  0  0  0  0  0  0  0  0  0  0  0
    1.4370    8.4550    0.1660 C   0  0  0  0  0  0  0  0  0  0  0  0
    1.0460    7.3760    0.2320 C   0  0  0  0  0  0  0  0  0  0  0  0
    2.0890    6.4240    0.8630 C   0  0  0  0  0  0  0  0  0  0  0  0
    1.7760    5.1740    0.9120 C   0  0  0  0  0  0  0  0  0  0  0  0
    0.6570    4.5310    0.4770 C   0  0  0  0  0  0  0  0  0  0  0  0
    0.7780    3.1240    0.1510 C   0  0  0  0  0  0  0  0  0  0  0  0
    1.8980    2.6680   -0.5240 C   0  0  0  0  0  0  0  0  0  0  0  0
    2.2330    1.3240   -0.7720 C   0  0  0  0  0  0  0  0  0  0  0  0
    1.2890    0.4050   -0.2760 C   0  0  0  0  0  0  0  0  0  0  0  0
    1.3900   -0.9740   -0.5000 O   0  0  0  0  0  0  0  0  0  0  0  0
    2.4720   -1.4900   -1.1880 C   0  0  0  0  0  0  0  0  0  0  0  0
    3.4880   -2.2680   -0.4500 C   0  0  0  0  0  0  0  0  0  0  0  0
    4.0190   -1.5910    0.6050 O   0  0  0  0  0  0  0  0  0  0  0  0
    5.2850   -1.1380    0.4630 C   0  0  0  0  0  0  0  0  0  0  0  0
    6.1630   -2.3600    0.3310 C   0  0  0  0  0  0  0  0  0  0  0  0
    5.6850   -3.6110    0.5860 C   0  0  0  0  0  0  0  0  0  0  0  0
    6.4610   -4.7440    0.3400 C   0  0  0  0  0  0  0  0  0  0  0  0
    7.7310   -4.5550   -0.1700 C   0  0  0  0  0  0  0  0  0  0  0  0
    8.5030   -5.7970   -0.4680 C   0  0  0  0  0  0  0  0  0  0  0  0
    8.2370   -3.3060   -0.4090 C   0  0  0  0  0  0  0  0  0  0  0  0
    7.4570   -2.1680   -0.1730 C   0  0  0  0  0  0  0  0  0  0  0  0
    0.1710    0.8260    0.3950 C   0  0  0  0  0  0  0  0  0  0  0  0
   -0.9420   -0.1810    0.6370 C   0  0  0  0  0  0  0  0  0  0  0  0
   -2.1600    0.5310    0.6090 N   0  0  0  0  0  0  0  0  0  0  0  0
   -3.3090   -0.1510    0.0110 C   0  0  0  0  0  0  0  0  0  0  0  0
   -3.1650   -1.2970   -0.4360 O   0  0  0  0  0  0  0  0  0  0  0  0
   -4.5180    0.5390   -0.0380 N   0  0  0  0  0  0  0  0  0  0  0  0
   -5.7860    0.0090   -0.4070 C   0  0  2  0  0  0  0  0  0  0  0  0
   -6.8500    0.7690    0.2190 C   0  0  0  0  0  0  0  0  0  0  0  0
   -5.8230   -1.5090   -0.0100 C   0  0  2  0  0  0  0  0  0  0  0  0
   -7.3100   -1.8370   -0.0710 C   0  0  0  0  0  0  0  0  0  0  0  0
   -7.9680   -1.7040   -1.3740 C   0  0  0  0  0  0  0  0  0  0  0  0
   -9.3900   -1.6820   -1.1740 O   0  0  0  0  0  0  0  0  0  0  0  0
   -5.2380   -1.8370    1.1870 N   0  0  0  0  0  0  0  0  0  0  0  0
   -4.9580   -3.2530    1.2550 C   0  0  0  0  0  0  0  0  0  0  0  0
   -0.1310    2.1830    0.6340 C   0  0  0  0  0  0  0  0  0  0  0  0
   -0.3090    5.4030   -0.1080 C   0  0  0  0  0  0  0  0  0  0  0  0
   -0.0820    6.7770   -0.1880 C   0  0  0  0  0  0  0  0  0  0  0  0
  1  2  3  0
  2  3  1  0
  3  4  2  0
  3 39  1  0
  4  5  1  0
  5  6  2  0
  6  7  1  0
  6 38  1  0
  7  8  2  0
  7 37  1  0
  8  9  1  0
  9 10  2  0
 10 11  1  0
 10 23  1  0
 11 12  1  0
 12 13  1  0
 13 14  1  0
 14 15  1  0
 15 16  1  0
 16 17  2  0
 16 22  1  0
 17 18  1  0
 18 19  2  0
 19 20  1  0
 19 21  1  0
 21 22  2  0
 23 24  1  0
 23 37  2  0
 24 25  1  0
 25 26  1  0
 26 27  2  0
 26 28  1  0
 28 29  1  0
 29 30  1  1
 29 31  1  0
 31 32  1  1
 31 35  1  0
 32 33  1  0
 33 34  1  0
 35 36  1  0
 38 39  2  0
M  END
