
     RDKit          3D

 39 43  0  0  0  0  0  0  0  0999 V2000
    8.5050   -0.9970    1.1160 C   0  0  0  0  0  0  0  0  0  0  0  0
    7.5760   -0.4090    0.1500 C   0  0  0  0  0  0  0  0  0  0  0  0
    7.8630    0.6270   -0.6510 C   0  0  0  0  0  0  0  0  0  0  0  0
    9.2190    1.1590   -0.4840 C   0  0  0  0  0  0  0  0  0  0  0  0
    9.6680    2.1130   -1.1880 N   0  0  0  0  0  0  0  0  0  0  0  0
    8.9740    2.7100   -2.1290 F   0  0  0  0  0  0  0  0  0  0  0  0
    6.9280    1.2450   -1.6070 C   0  0  0  0  0  0  0  0  0  0  0  0
    5.6170    0.6740   -1.5630 N   0  0  0  0  0  0  0  0  0  0  0  0
    4.3720    0.9260   -2.2450 C   0  0  0  0  0  0  0  0  0  0  0  0
    4.2490    1.8520   -3.0990 O   0  0  0  0  0  0  0  0  0  0  0  0
    3.3630    0.0340   -1.8320 C   0  0  0  0  0  0  0  0  0  0  0  0
    1.9430   -0.1210   -2.0620 N   0  0  0  0  0  0  0  0  0  0  0  0
    1.1310   -0.0050   -0.8710 C   0  0  0  0  0  0  0  0  0  0  0  0
    1.8720    0.3200    0.1480 O   0  0  0  0  0  0  0  0  0  0  0  0
   -0.2410   -0.2230   -0.7440 N   0  0  0  0  0  0  0  0  0  0  0  0
   -0.9190   -0.0450    0.5360 C   0  0  1  0  0  0  0  0  0  0  0  0
   -1.0110    1.4740    0.7500 C   0  0  0  0  0  0  0  0  0  0  0  0
   -2.1640   -0.7650    0.6730 C   0  0  0  0  0  0  0  0  0  0  0  0
   -3.3740   -0.3370    0.0600 C   0  0  0  0  0  0  0  0  0  0  0  0
   -4.5020   -1.0680    0.2570 C   0  0  0  0  0  0  0  0  0  0  0  0
   -5.8800   -0.7310   -0.1280 C   0  0  0  0  0  0  0  0  0  0  0  0
   -6.6900   -1.6610   -0.3540 O   0  0  0  0  0  0  0  0  0  0  0  0
   -6.4280    0.5840   -0.2520 N   0  0  0  0  0  0  0  0  0  0  0  0
   -7.7760    0.8090   -0.5610 C   0  0  0  0  0  0  0  0  0  0  0  0
   -8.6020    0.0870   -1.3330 C   0  0  0  0  0  0  0  0  0  0  0  0
   -9.9780    0.3300   -1.4230 C   0  0  0  0  0  0  0  0  0  0  0  0
  -10.5560    1.3590   -0.6960 C   0  0  0  0  0  0  0  0  0  0  0  0
  -11.8660    1.6290   -0.7550 F   0  0  0  0  0  0  0  0  0  0  0  0
   -9.7180    2.1000    0.0970 C   0  0  0  0  0  0  0  0  0  0  0  0
   -8.3810    1.8550    0.1740 C   0  0  0  0  0  0  0  0  0  0  0  0
   -4.4340   -2.2000    1.0490 N   0  0  0  0  0  0  0  0  0  0  0  0
   -3.2770   -2.5720    1.6130 C   0  0  0  0  0  0  0  0  0  0  0  0
   -2.1860   -1.8530    1.4110 N   0  0  0  0  0  0  0  0  0  0  0  0
    0.1150   -0.4790    1.5830 C   0  0  2  0  0  0  0  0  0  0  0  0
    0.5760   -1.8890    1.3610 C   0  0  0  0  0  0  0  0  0  0  0  0
   -0.0200   -1.4230    2.6620 C   0  0  0  0  0  0  0  0  0  0  0  0
    3.9350   -0.7860   -0.9100 C   0  0  0  0  0  0  0  0  0  0  0  0
    5.3280   -0.4110   -0.7160 C   0  0  0  0  0  0  0  0  0  0  0  0
    6.2220   -0.9490    0.1020 C   0  0  0  0  0  0  0  0  0  0  0  0
  1  2  1  0
  2  3  2  0
  2 39  1  0
  3  4  1  0
  3  7  1  0
  4  5  2  3
  5  6  1  0
  7  8  1  0
  8  9  1  0
  8 38  1  0
  9 10  2  0
  9 11  1  0
 11 12  1  0
 11 37  2  0
 12 13  1  0
 13 14  2  0
 13 15  1  0
 15 16  1  0
 16 17  1  1
 16 18  1  0
 16 34  1  0
 18 19  2  0
 18 33  1  0
 19 20  1  0
 20 21  1  0
 20 31  2  0
 21 22  2  0
 21 23  1  0
 23 24  1  0
 24 25  2  0
 24 30  1  0
 25 26  1  0
 26 27  2  0
 27 28  1  0
 27 29  1  0
 29 30  2  0
 31 32  1  0
 32 33  2  0
 34 35  1  6
 34 36  1  0
 35 36  1  0
 37 38  1  0
 38 39  2  0
M  END
