
     RDKit          3D

 39 43  0  0  0  0  0  0  0  0999 V2000
   -7.1840   -1.2850    2.4150 C   0  0  0  0  0  0  0  0  0  0  0  0
   -6.9720   -0.8710    1.0170 C   0  0  0  0  0  0  0  0  0  0  0  0
   -8.0210   -0.7330    0.1970 C   0  0  0  0  0  0  0  0  0  0  0  0
   -8.2240   -0.3460   -1.2030 C   0  0  0  0  0  0  0  0  0  0  0  0
   -7.2730    0.6670   -1.7500 C   0  0  0  0  0  0  0  0  0  0  0  0
   -5.9190    0.1970   -1.7370 N   0  0  0  0  0  0  0  0  0  0  0  0
   -5.1380   -0.2170   -0.6100 C   0  0  0  0  0  0  0  0  0  0  0  0
   -5.5790   -0.6690    0.5540 C   0  0  0  0  0  0  0  0  0  0  0  0
   -4.6360   -1.0490    1.5700 C   0  0  0  0  0  0  0  0  0  0  0  0
   -5.0590   -1.4690    2.6690 O   0  0  0  0  0  0  0  0  0  0  0  0
   -3.2680   -0.9280    1.2890 N   0  0  0  0  0  0  0  0  0  0  0  0
   -2.8650   -0.9280   -0.1200 C   0  0  2  0  0  0  0  0  0  0  0  0
   -1.4140   -0.8490   -0.2480 C   0  0  0  0  0  0  0  0  0  0  0  0
   -0.7660   -1.9930    0.2970 C   0  0  0  0  0  0  0  0  0  0  0  0
    0.5960   -2.0960    0.3050 C   0  0  0  0  0  0  0  0  0  0  0  0
    1.2760   -1.0810   -0.2140 N   0  0  0  0  0  0  0  0  0  0  0  0
    0.7850    0.0360   -0.7490 C   0  0  0  0  0  0  0  0  0  0  0  0
    1.5230    1.0220   -1.2370 O   0  0  0  0  0  0  0  0  0  0  0  0
    2.7740    1.4120   -1.4930 C   0  0  0  0  0  0  0  0  0  0  0  0
    3.8120    1.2660   -0.4470 C   0  0  0  0  0  0  0  0  0  0  0  0
    4.4100    2.3160    0.2570 C   0  0  0  0  0  0  0  0  0  0  0  0
    4.0390    3.7270    0.1490 C   0  0  0  0  0  0  0  0  0  0  0  0
    2.7870    4.2320    0.0570 C   0  0  0  0  0  0  0  0  0  0  0  0
    2.5890    5.6000   -0.0450 C   0  0  0  0  0  0  0  0  0  0  0  0
    1.3460    6.1340   -0.1530 F   0  0  0  0  0  0  0  0  0  0  0  0
    3.6650    6.4950   -0.0540 C   0  0  0  0  0  0  0  0  0  0  0  0
    4.9660    5.9860    0.0450 C   0  0  0  0  0  0  0  0  0  0  0  0
    6.0560    6.8340    0.0510 F   0  0  0  0  0  0  0  0  0  0  0  0
    5.1130    4.6370    0.1420 C   0  0  0  0  0  0  0  0  0  0  0  0
    5.3860    1.7530    0.9790 N   0  0  0  0  0  0  0  0  0  0  0  0
    5.4420    0.4960    0.7760 O   0  0  0  0  0  0  0  0  0  0  0  0
    4.5070    0.1190   -0.0960 C   0  0  0  0  0  0  0  0  0  0  0  0
    4.3290   -1.2430   -0.5520 N   0  0  0  0  0  0  0  0  0  0  0  0
    5.3820   -2.1370   -0.0840 C   0  0  0  0  0  0  0  0  0  0  0  0
    5.5810   -3.3400   -0.7880 N   0  0  0  0  0  0  0  0  0  0  0  0
    6.9720   -3.7700   -0.4090 C   0  0  0  0  0  0  0  0  0  0  0  0
    4.7850   -4.4830   -0.4040 C   0  0  0  0  0  0  0  0  0  0  0  0
   -0.6300    0.1280   -0.7520 C   0  0  0  0  0  0  0  0  0  0  0  0
   -3.7160   -0.0790   -0.8580 N   0  0  0  0  0  0  0  0  0  0  0  0
  1  2  1  0
  2  3  2  0
  2  8  1  0
  3  4  1  0
  4  5  1  0
  5  6  1  0
  6  7  1  0
  7  8  2  0
  7 39  1  0
  8  9  1  0
  9 10  2  0
  9 11  1  0
 11 12  1  0
 12 13  1  1
 12 39  1  0
 13 14  2  0
 13 38  1  0
 14 15  1  0
 15 16  2  0
 16 17  1  0
 17 18  1  0
 17 38  2  0
 18 19  1  0
 19 20  1  0
 20 21  1  0
 20 32  2  0
 21 22  1  0
 21 30  2  0
 22 23  2  0
 22 29  1  0
 23 24  1  0
 24 25  1  0
 24 26  2  0
 26 27  1  0
 27 28  1  0
 27 29  2  0
 30 31  1  0
 31 32  1  0
 32 33  1  0
 33 34  1  0
 34 35  1  0
 35 36  1  0
 35 37  1  0
M  END
