
     RDKit          3D

 39 43  0  0  0  0  0  0  0  0999 V2000
    6.9700    2.4170   -0.6140 C   0  0  0  0  0  0  0  0  0  0  0  0
    5.9340    1.3820   -0.2710 C   0  0  0  0  0  0  0  0  0  0  0  0
    6.2480    0.1260   -0.3900 C   0  0  0  0  0  0  0  0  0  0  0  0
    7.5870   -0.3360   -0.8470 C   0  0  0  0  0  0  0  0  0  0  0  0
    8.0950   -1.2650    0.1770 N   0  0  0  0  0  0  0  0  0  0  0  0
    7.1970   -2.2960    0.5110 C   0  0  0  0  0  0  0  0  0  0  0  0
    7.6220   -3.4000    0.9210 O   0  0  0  0  0  0  0  0  0  0  0  0
    5.7260   -2.0650    0.3740 C   0  0  0  0  0  0  0  0  0  0  0  0
    4.9360   -3.2820    0.6470 C   0  0  1  0  0  0  0  0  0  0  0  0
    5.7590   -4.3650    0.1040 F   0  0  0  0  0  0  0  0  0  0  0  0
    4.7560   -3.5800    1.9600 F   0  0  0  0  0  0  0  0  0  0  0  0
    5.2070   -0.9420   -0.0390 C   0  0  0  0  0  0  0  0  0  0  0  0
    3.8950   -0.5140   -0.0630 N   0  0  0  0  0  0  0  0  0  0  0  0
    2.6860   -1.0150    0.3400 C   0  0  0  0  0  0  0  0  0  0  0  0
    2.5850   -2.0930    0.9000 O   0  0  0  0  0  0  0  0  0  0  0  0
    1.3940   -0.2880    0.1280 C   0  0  0  0  0  0  0  0  0  0  0  0
    1.3970    1.0690    0.3380 C   0  0  0  0  0  0  0  0  0  0  0  0
    0.1950    1.7720    0.1390 C   0  0  0  0  0  0  0  0  0  0  0  0
   -0.9420    1.0990   -0.2580 C   0  0  0  0  0  0  0  0  0  0  0  0
   -2.1540    1.8530   -0.4550 N   0  0  0  0  0  0  0  0  0  0  0  0
   -2.5630    2.4590   -1.5730 C   0  0  0  0  0  0  0  0  0  0  0  0
   -3.7720    3.0700   -1.3370 C   0  0  0  0  0  0  0  0  0  0  0  0
   -4.0780    2.8040   -0.0190 C   0  0  0  0  0  0  0  0  0  0  0  0
   -3.0790    2.0760    0.4600 N   0  0  0  0  0  0  0  0  0  0  0  0
   -5.3980    3.4450    0.2860 C   0  0  0  0  0  0  0  0  0  0  0  0
   -5.4410    4.5170   -0.7090 N   0  0  0  0  0  0  0  0  0  0  0  0
   -4.8880    3.8920   -1.8720 C   0  0  0  0  0  0  0  0  0  0  0  0
   -0.9480   -0.2540   -0.4690 C   0  0  0  0  0  0  0  0  0  0  0  0
   -2.1710   -0.9260   -0.8900 C   0  0  0  0  0  0  0  0  0  0  0  0
   -3.1440   -1.2000    0.2110 C   0  0  0  0  0  0  0  0  0  0  0  0
   -2.8490   -0.8760    1.3800 O   0  0  0  0  0  0  0  0  0  0  0  0
   -4.3750   -1.8160   -0.0760 N   0  0  0  0  0  0  0  0  0  0  0  0
   -5.3990   -2.1330    0.8450 C   0  0  0  0  0  0  0  0  0  0  0  0
   -6.4880   -2.8560    0.3810 C   0  0  0  0  0  0  0  0  0  0  0  0
   -7.5390   -3.2000    1.2030 C   0  0  0  0  0  0  0  0  0  0  0  0
   -7.5620   -2.8390    2.5330 C   0  0  0  0  0  0  0  0  0  0  0  0
   -6.4940   -2.1330    2.9790 N   0  0  0  0  0  0  0  0  0  0  0  0
   -5.4520   -1.7930    2.1650 C   0  0  0  0  0  0  0  0  0  0  0  0
    0.2540   -0.9290   -0.2650 C   0  0  0  0  0  0  0  0  0  0  0  0
  1  2  1  0
  2  3  2  3
  3  4  1  0
  3 12  1  0
  4  5  1  0
  5  6  1  0
  6  7  2  0
  6  8  1  0
  8  9  1  0
  8 12  2  0
  9 10  1  6
  9 11  1  0
 12 13  1  0
 13 14  1  0
 14 15  2  0
 14 16  1  0
 16 17  2  0
 16 39  1  0
 17 18  1  0
 18 19  2  0
 19 20  1  0
 19 28  1  0
 20 21  1  0
 20 24  1  0
 21 22  2  0
 22 23  1  0
 22 27  1  0
 23 24  2  0
 23 25  1  0
 25 26  1  0
 26 27  1  0
 28 29  1  0
 28 39  2  0
 29 30  1  0
 30 31  2  0
 30 32  1  0
 32 33  1  0
 33 34  2  0
 33 38  1  0
 34 35  1  0
 35 36  2  0
 36 37  1  0
 37 38  2  0
M  END
