
     RDKit          3D

 39 43  0  0  0  0  0  0  0  0999 V2000
   -3.2350   -5.0350    2.6350 C   0  0  0  0  0  0  0  0  0  0  0  0
   -2.9670   -3.7040    1.9900 C   0  0  0  0  0  0  0  0  0  0  0  0
   -1.7930   -3.4220    1.3560 C   0  0  0  0  0  0  0  0  0  0  0  0
   -1.5230   -2.1910    0.7480 C   0  0  0  0  0  0  0  0  0  0  0  0
   -0.2450   -1.9720    0.0770 C   0  0  0  0  0  0  0  0  0  0  0  0
   -0.1760   -1.4270   -1.0470 O   0  0  0  0  0  0  0  0  0  0  0  0
    0.9890   -2.3770    0.6780 N   0  0  0  0  0  0  0  0  0  0  0  0
    2.2690   -2.2180    0.0970 C   0  0  0  0  0  0  0  0  0  0  0  0
    2.9240   -3.3630   -0.1310 C   0  0  0  0  0  0  0  0  0  0  0  0
    2.4200   -4.7030    0.1710 C   0  0  1  0  0  0  0  0  0  0  0  0
    1.3190   -5.1830   -0.7370 C   0  0  0  0  0  0  0  0  0  0  0  0
    3.4560   -5.6280    0.0510 F   0  0  0  0  0  0  0  0  0  0  0  0
    2.0040   -4.7690    1.4700 F   0  0  0  0  0  0  0  0  0  0  0  0
    2.8870   -0.9510   -0.2450 C   0  0  0  0  0  0  0  0  0  0  0  0
    4.1390   -0.9870   -0.7840 F   0  0  0  0  0  0  0  0  0  0  0  0
    2.3250    0.2250   -0.0570 C   0  0  0  0  0  0  0  0  0  0  0  0
    2.9270    1.5030   -0.3960 C   0  0  0  0  0  0  0  0  0  0  0  0
    2.9100    2.6410    0.3420 N   0  0  0  0  0  0  0  0  0  0  0  0
    3.5370    3.6020   -0.2730 N   0  0  0  0  0  0  0  0  0  0  0  0
    3.7490    4.9750    0.1660 C   0  0  0  0  0  0  0  0  0  0  0  0
    4.0130    3.1550   -1.4680 C   0  0  0  0  0  0  0  0  0  0  0  0
    3.6290    1.8260   -1.5520 C   0  0  0  0  0  0  0  0  0  0  0  0
    4.0580    1.3570   -2.7130 C   0  0  0  0  0  0  0  0  0  0  0  0
    4.7600    2.3700   -3.3940 N   0  0  0  0  0  0  0  0  0  0  0  0
    4.6790    3.4910   -2.5550 C   0  0  0  0  0  0  0  0  0  0  0  0
   -2.5030   -1.2480    0.8120 C   0  0  0  0  0  0  0  0  0  0  0  0
   -2.3080    0.0350    0.2280 N   0  0  0  0  0  0  0  0  0  0  0  0
   -2.6190    0.3660   -1.1380 C   0  0  0  0  0  0  0  0  0  0  0  0
   -1.6990    1.4660   -1.6820 C   0  0  0  0  0  0  0  0  0  0  0  0
   -1.9680    2.6480   -0.8190 C   0  0  0  0  0  0  0  0  0  0  0  0
   -2.1790    3.9080   -1.3010 C   0  0  0  0  0  0  0  0  0  0  0  0
   -2.4250    4.9590   -0.4300 C   0  0  0  0  0  0  0  0  0  0  0  0
   -2.4570    4.7310    0.9270 C   0  0  0  0  0  0  0  0  0  0  0  0
   -2.2450    3.4680    1.4000 C   0  0  0  0  0  0  0  0  0  0  0  0
   -2.0020    2.4280    0.5380 C   0  0  0  0  0  0  0  0  0  0  0  0
   -1.7750    1.0560    1.1130 C   0  0  0  0  0  0  0  0  0  0  0  0
   -3.6820   -1.5310    1.4480 N   0  0  0  0  0  0  0  0  0  0  0  0
   -4.7030   -0.5370    1.5090 C   0  0  0  0  0  0  0  0  0  0  0  0
   -3.9180   -2.7200    2.0240 C   0  0  0  0  0  0  0  0  0  0  0  0
  1  2  1  0
  2  3  2  0
  2 39  1  0
  3  4  1  0
  4  5  1  0
  4 26  2  0
  5  6  2  0
  5  7  1  0
  7  8  1  0
  8  9  2  3
  8 14  1  0
  9 10  1  0
 10 11  1  6
 10 12  1  0
 10 13  1  0
 14 15  1  0
 14 16  2  3
 16 17  1  0
 17 18  2  0
 17 22  1  0
 18 19  1  0
 19 20  1  0
 19 21  1  0
 21 22  1  0
 21 25  2  0
 22 23  2  0
 23 24  1  0
 24 25  1  0
 26 27  1  0
 26 37  1  0
 27 28  1  0
 27 36  1  0
 28 29  1  0
 29 30  1  0
 30 31  2  0
 30 35  1  0
 31 32  1  0
 32 33  2  0
 33 34  1  0
 34 35  2  0
 35 36  1  0
 37 38  1  0
 37 39  2  0
M  CHG  2  24   1  37   1
M  END
