
     RDKit          3D

 38 42  0  0  0  0  0  0  0  0999 V2000
    7.7670    2.8960    5.0030 N   0  0  0  0  0  0  0  0  0  0  0  0
    7.1970    1.8130    4.7050 C   0  0  0  0  0  0  0  0  0  0  0  0
    6.5200    0.4720    4.3420 C   0  0  0  0  0  0  0  0  0  0  0  0
    5.1470    0.9010    4.1540 N   0  0  0  0  0  0  0  0  0  0  0  0
    4.2200   -0.0080    3.4390 C   0  0  0  0  0  0  0  0  0  0  0  0
    4.5730   -1.0570    3.0130 O   0  0  0  0  0  0  0  0  0  0  0  0
    2.8810    0.4760    3.2860 N   0  0  0  0  0  0  0  0  0  0  0  0
    1.8800   -0.1090    2.4700 C   0  0  0  0  0  0  0  0  0  0  0  0
    0.5420    0.2390    2.6020 C   0  0  0  0  0  0  0  0  0  0  0  0
   -0.4150   -0.1800    1.7460 C   0  0  0  0  0  0  0  0  0  0  0  0
   -0.0570   -0.9860    0.6950 C   0  0  0  0  0  0  0  0  0  0  0  0
   -1.1130   -1.2860   -0.3340 C   0  0  0  0  0  0  0  0  0  0  0  0
   -1.2210   -0.1840   -1.1850 C   0  0  0  0  0  0  0  0  0  0  0  0
   -0.4640    1.0430   -1.0510 C   0  0  1  0  0  0  0  0  0  0  0  0
    0.7840    1.1060   -1.8510 C   0  0  0  0  0  0  0  0  0  0  0  0
    0.5320    0.9260   -3.3070 C   0  0  0  0  0  0  0  0  0  0  0  0
    1.0510    0.2000   -4.3240 N   0  0  0  0  0  0  0  0  0  0  0  0
    0.5460    0.7610   -5.4610 N   0  0  0  0  0  0  0  0  0  0  0  0
   -0.2550    1.7820   -5.2210 C   0  0  0  0  0  0  0  0  0  0  0  0
   -0.2670    1.8790   -3.8030 C   0  0  0  0  0  0  0  0  0  0  0  0
   -1.2020    2.5470   -2.8840 C   0  0  0  0  0  0  0  0  0  0  0  0
   -1.3020    2.1680   -1.5390 C   0  0  0  0  0  0  0  0  0  0  0  0
   -2.1880    2.9310   -0.8370 O   0  0  0  0  0  0  0  0  0  0  0  0
   -2.9410    2.6370    0.2930 C   0  0  0  0  0  0  0  0  0  0  0  0
   -3.9930    1.5930    0.2160 C   0  0  1  0  0  0  0  0  0  0  0  0
   -4.6170    1.5800    1.4880 F   0  0  0  0  0  0  0  0  0  0  0  0
   -4.9730    1.8580   -0.7050 F   0  0  0  0  0  0  0  0  0  0  0  0
   -2.2090   -0.4040   -2.1930 C   0  0  0  0  0  0  0  0  0  0  0  0
   -2.4780    0.4560   -3.0360 O   0  0  0  0  0  0  0  0  0  0  0  0
   -2.8310   -1.5220   -2.2050 N   0  0  0  0  0  0  0  0  0  0  0  0
   -2.7910   -2.5990   -1.4630 C   0  0  0  0  0  0  0  0  0  0  0  0
   -3.3730   -3.7470   -1.5120 C   0  0  0  0  0  0  0  0  0  0  0  0
   -3.2180   -4.8530   -0.7350 C   0  0  0  0  0  0  0  0  0  0  0  0
   -2.2330   -4.6880    0.3170 C   0  0  0  0  0  0  0  0  0  0  0  0
   -1.5720   -3.4970    0.4480 C   0  0  0  0  0  0  0  0  0  0  0  0
   -1.7390   -2.4040   -0.3410 C   0  0  0  0  0  0  0  0  0  0  0  0
    1.1980   -1.3380    0.5350 N   0  0  0  0  0  0  0  0  0  0  0  0
    2.1660   -0.9270    1.3850 C   0  0  0  0  0  0  0  0  0  0  0  0
  1  2  3  0
  2  3  1  0
  3  4  1  0
  4  5  1  0
  5  6  2  0
  5  7  1  0
  7  8  1  0
  8  9  2  0
  8 38  1  0
  9 10  1  0
 10 11  2  0
 11 12  1  0
 11 37  1  0
 12 13  2  0
 12 36  1  0
 14 13  1  6
 13 28  1  0
 14 15  1  0
 14 22  1  0
 15 16  1  0
 16 17  2  0
 16 20  1  0
 17 18  1  0
 18 19  1  0
 19 20  2  0
 20 21  1  0
 21 22  2  0
 22 23  1  0
 23 24  1  0
 24 25  1  0
 25 26  1  1
 25 27  1  0
 28 29  2  0
 28 30  1  0
 30 31  1  0
 31 32  2  0
 31 36  1  0
 32 33  1  0
 33 34  2  0
 34 35  1  0
 35 36  2  0
 37 38  2  0
M  END
