
     RDKit          3D

 39 43  0  0  0  0  0  0  0  0999 V2000
    7.4530   -1.8830   -4.1550 C   0  0  0  0  0  0  0  0  0  0  0  0
    6.7520   -1.1770   -3.0880 N   0  0  0  0  0  0  0  0  0  0  0  0
    6.0700   -1.8180   -2.0290 C   0  0  0  0  0  0  0  0  0  0  0  0
    6.0470   -3.0640   -1.9800 O   0  0  0  0  0  0  0  0  0  0  0  0
    5.3900   -1.0370   -0.9900 C   0  0  0  0  0  0  0  0  0  0  0  0
    5.3320    0.3500   -0.9000 C   0  0  0  0  0  0  0  0  0  0  0  0
    4.6090    0.6840    0.2220 C   0  0  0  0  0  0  0  0  0  0  0  0
    4.3010    2.0780    0.7120 C   0  0  0  0  0  0  0  0  0  0  0  0
    4.2430   -0.4850    0.7890 N   0  0  0  0  0  0  0  0  0  0  0  0
    3.4790   -0.5230    1.9900 C   0  0  0  0  0  0  0  0  0  0  0  0
    4.0610   -0.6260    3.2290 C   0  0  0  0  0  0  0  0  0  0  0  0
    3.3500   -0.6570    4.4100 C   0  0  0  0  0  0  0  0  0  0  0  0
    4.0350   -0.7680    5.7140 C   0  0  0  0  0  0  0  0  0  0  0  0
    1.9800   -0.5820    4.3580 C   0  0  0  0  0  0  0  0  0  0  0  0
    1.3730   -0.4790    3.1260 C   0  0  0  0  0  0  0  0  0  0  0  0
    2.0800   -0.4470    1.9410 C   0  0  0  0  0  0  0  0  0  0  0  0
    1.4720   -0.3710    0.5960 C   0  0  0  0  0  0  0  0  0  0  0  0
    0.0750   -0.2370    0.6610 N   0  0  0  0  0  0  0  0  0  0  0  0
   -0.4490    0.9620    1.1680 C   0  0  0  0  0  0  0  0  0  0  0  0
   -0.8680    1.9670    0.1290 C   0  0  0  0  0  0  0  0  0  0  0  0
   -1.4760    1.4060   -1.0960 C   0  0  0  0  0  0  0  0  0  0  0  0
   -2.5080    0.4200   -0.8930 N   0  0  2  0  0  0  0  0  0  0  0  0
   -3.7150    1.1040   -0.5780 C   0  0  2  0  0  0  0  0  0  0  0  0
   -4.1630    1.0700    0.8390 C   0  0  0  0  0  0  0  0  0  0  0  0
   -5.6050    1.6080    0.6790 C   0  0  0  0  0  0  0  0  0  0  0  0
   -6.0200    0.8810   -0.5660 C   0  0  0  0  0  0  0  0  0  0  0  0
   -7.2280    0.4850   -1.0700 C   0  0  0  0  0  0  0  0  0  0  0  0
   -7.2960   -0.2130   -2.2990 C   0  0  0  0  0  0  0  0  0  0  0  0
   -8.4930   -0.5460   -2.6930 C   0  0  0  0  0  0  0  0  0  0  0  0
   -8.7920   -1.2000   -3.8050 F   0  0  0  0  0  0  0  0  0  0  0  0
   -6.1790   -0.5150   -3.0200 C   0  0  0  0  0  0  0  0  0  0  0  0
   -6.1050   -1.1520   -4.1630 C   0  0  0  0  0  0  0  0  0  0  0  0
   -7.0580   -1.6560   -4.9000 F   0  0  0  0  0  0  0  0  0  0  0  0
   -4.8290   -1.3270   -4.6800 F   0  0  0  0  0  0  0  0  0  0  0  0
   -4.9840   -0.0910   -2.4640 N   0  0  0  0  0  0  0  0  0  0  0  0
   -4.9110    0.5650   -1.3130 C   0  0  0  0  0  0  0  0  0  0  0  0
   -2.1500   -0.6920   -0.0870 C   0  0  0  0  0  0  0  0  0  0  0  0
   -0.7050   -1.0710   -0.1500 C   0  0  0  0  0  0  0  0  0  0  0  0
    4.7070   -1.4910    0.0680 N   0  0  0  0  0  0  0  0  0  0  0  0
  1  2  1  0
  2  3  1  0
  3  4  2  0
  3  5  1  0
  5  6  1  0
  5 39  2  0
  6  7  2  0
  7  8  1  0
  7  9  1  0
  9 10  1  0
  9 39  1  0
 10 11  2  0
 10 16  1  0
 11 12  1  0
 12 13  1  0
 12 14  2  0
 14 15  1  0
 15 16  2  0
 16 17  1  0
 17 18  1  0
 18 19  1  0
 18 38  1  0
 19 20  1  0
 20 21  1  0
 22 21  1  1
 22 23  1  0
 22 37  1  0
 23 24  1  1
 23 36  1  0
 24 25  1  0
 25 26  1  0
 26 27  2  0
 26 36  1  0
 27 28  1  0
 28 29  2  3
 28 31  1  0
 29 30  1  0
 31 32  2  3
 31 35  1  0
 32 33  1  0
 32 34  1  0
 35 36  2  0
 37 38  1  0
M  CHG  1  22   1
M  END
