
     RDKit          3D

 39 43  0  0  0  0  0  0  0  0999 V2000
   -1.1860   -3.5960    1.6860 C   0  0  0  0  0  0  0  0  0  0  0  0
   -2.2790   -3.2930    0.6980 C   0  0  1  0  0  0  0  0  0  0  0  0
   -2.6940   -4.5670    0.0030 C   0  0  0  0  0  0  0  0  0  0  0  0
   -3.4800   -2.7580    1.4520 C   0  0  0  0  0  0  0  0  0  0  0  0
   -4.2460   -1.8760    0.4930 C   0  0  0  0  0  0  0  0  0  0  0  0
   -3.4100   -0.6270    0.2570 C   0  0  0  0  0  0  0  0  0  0  0  0
   -2.0320   -0.9660    0.0100 N   0  0  2  0  0  0  0  0  0  0  0  0
   -1.5140   -0.0790   -1.0630 C   0  0  2  0  0  0  0  0  0  0  0  0
   -0.3880   -0.7730   -1.6450 C   0  0  0  0  0  0  0  0  0  0  0  0
   -0.3640   -1.4500   -2.7920 C   0  0  0  0  0  0  0  0  0  0  0  0
   -1.4420   -1.6650   -3.7480 C   0  0  2  0  0  0  0  0  0  0  0  0
   -1.7830   -3.0210   -3.8070 F   0  0  0  0  0  0  0  0  0  0  0  0
   -0.9400   -1.3960   -5.0540 F   0  0  0  0  0  0  0  0  0  0  0  0
   -2.5310   -0.8830   -3.6110 F   0  0  0  0  0  0  0  0  0  0  0  0
    0.9080   -0.6700   -0.9420 N   0  0  0  0  0  0  0  0  0  0  0  0
    1.1440    0.4300   -0.3190 C   0  0  0  0  0  0  0  0  0  0  0  0
    2.4320    0.6210    0.3860 C   0  0  0  0  0  0  0  0  0  0  0  0
    2.5370    1.5080    1.4370 C   0  0  0  0  0  0  0  0  0  0  0  0
    3.7140    1.7260    2.1290 C   0  0  0  0  0  0  0  0  0  0  0  0
    4.8330    1.0260    1.7490 C   0  0  0  0  0  0  0  0  0  0  0  0
    4.7770    0.1270    0.7020 C   0  0  0  0  0  0  0  0  0  0  0  0
    5.9610   -0.5710    0.3470 N   0  0  0  0  0  0  0  0  0  0  0  0
    6.1250   -1.9820    0.0120 C   0  0  0  0  0  0  0  0  0  0  0  0
    7.3620   -2.0110   -0.8580 C   0  0  0  0  0  0  0  0  0  0  0  0
    8.2560   -0.9990   -0.1770 C   0  0  0  0  0  0  0  0  0  0  0  0
    7.2700    0.0270    0.2500 C   0  0  0  0  0  0  0  0  0  0  0  0
    7.5780    1.2360    0.4840 O   0  0  0  0  0  0  0  0  0  0  0  0
    3.5710   -0.0680    0.0270 C   0  0  0  0  0  0  0  0  0  0  0  0
    0.1220    1.3680   -0.0690 N   0  0  0  0  0  0  0  0  0  0  0  0
   -1.0990    1.1980   -0.3970 C   0  0  0  0  0  0  0  0  0  0  0  0
   -2.0180    2.2400   -0.1380 N   0  0  0  0  0  0  0  0  0  0  0  0
   -1.6570    3.6450   -0.2500 C   0  0  0  0  0  0  0  0  0  0  0  0
   -2.7810    4.5390    0.1050 C   0  0  0  0  0  0  0  0  0  0  0  0
   -3.8170    4.7970   -0.7460 C   0  0  0  0  0  0  0  0  0  0  0  0
   -4.8360    5.6560   -0.3450 C   0  0  0  0  0  0  0  0  0  0  0  0
   -4.8220    6.2460    0.8750 N   0  0  0  0  0  0  0  0  0  0  0  0
   -3.7990    5.9970    1.7220 C   0  0  0  0  0  0  0  0  0  0  0  0
   -2.7650    5.1370    1.3450 C   0  0  0  0  0  0  0  0  0  0  0  0
   -1.8450   -2.3110   -0.3830 C   0  0  0  0  0  0  0  0  0  0  0  0
  2  1  1  1
  2  3  1  0
  2  4  1  0
  2 39  1  0
  4  5  1  0
  5  6  1  0
  7  6  1  6
  7  8  1  0
  7 39  1  0
  8  9  1  1
  8 30  1  0
  9 10  2  3
  9 15  1  0
 10 11  1  0
 11 12  1  6
 11 13  1  0
 11 14  1  0
 15 16  2  0
 16 17  1  0
 16 29  1  0
 17 18  2  0
 17 28  1  0
 18 19  1  0
 19 20  2  0
 20 21  1  0
 21 22  1  0
 21 28  2  0
 22 23  1  0
 22 26  1  0
 23 24  1  0
 24 25  1  0
 25 26  1  0
 26 27  2  0
 29 30  2  0
 30 31  1  0
 31 32  1  0
 32 33  1  0
 33 34  2  0
 33 38  1  0
 34 35  1  0
 35 36  2  0
 36 37  1  0
 37 38  2  0
M  CHG  2   7   1  36   1
M  END
