
     RDKit          3D

 39 43  0  0  0  0  0  0  0  0999 V2000
    5.6740    0.1750    0.4400 C   0  0  0  0  0  0  0  0  0  0  0  0
    4.4670    0.7440    0.9310 N   0  0  2  0  0  0  0  0  0  0  0  0
    4.5090    0.5800    2.3950 C   0  0  0  0  0  0  0  0  0  0  0  0
    3.2430    0.0380    0.4800 C   0  0  1  0  0  0  0  0  0  0  0  0
    2.1020    0.8300    0.9950 C   0  0  0  0  0  0  0  0  0  0  0  0
    0.7840    0.3870    0.7520 N   0  0  2  0  0  0  0  0  0  0  0  0
    0.5290   -1.0300    0.9640 C   0  0  0  0  0  0  0  0  0  0  0  0
   -0.5710   -1.1840    1.9330 C   0  0  0  0  0  0  0  0  0  0  0  0
   -0.7410   -0.1230    2.6810 O   0  0  0  0  0  0  0  0  0  0  0  0
   -1.4420   -2.2150    2.2030 N   0  0  0  0  0  0  0  0  0  0  0  0
   -2.2640   -3.0680    1.4120 C   0  0  0  0  0  0  0  0  0  0  0  0
   -2.6390   -4.2120    2.1840 C   0  0  0  0  0  0  0  0  0  0  0  0
   -3.4520   -5.2090    1.6940 C   0  0  0  0  0  0  0  0  0  0  0  0
   -3.9150   -5.1100    0.4340 C   0  0  0  0  0  0  0  0  0  0  0  0
   -3.5680   -4.0320   -0.3140 C   0  0  0  0  0  0  0  0  0  0  0  0
   -2.7240   -2.9530    0.1370 C   0  0  0  0  0  0  0  0  0  0  0  0
   -2.5690   -1.9840   -0.9240 C   0  0  0  0  0  0  0  0  0  0  0  0
   -2.6270   -0.6860   -1.0510 C   0  0  0  0  0  0  0  0  0  0  0  0
   -2.3870   -0.1320   -2.4600 C   0  0  1  0  0  0  0  0  0  0  0  0
   -1.5250   -0.9510   -3.1030 F   0  0  0  0  0  0  0  0  0  0  0  0
   -3.6510   -0.3230   -3.1050 F   0  0  0  0  0  0  0  0  0  0  0  0
   -2.1000    1.1340   -2.5320 F   0  0  0  0  0  0  0  0  0  0  0  0
   -2.9430    0.3530   -0.0670 C   0  0  0  0  0  0  0  0  0  0  0  0
   -2.1800    1.5620   -0.2180 N   0  0  0  0  0  0  0  0  0  0  0  0
   -0.9020    1.7700   -0.3830 C   0  0  0  0  0  0  0  0  0  0  0  0
   -0.6570    3.1300   -0.4610 N   0  0  0  0  0  0  0  0  0  0  0  0
   -1.8120    3.7860   -0.3430 C   0  0  0  0  0  0  0  0  0  0  0  0
   -2.1400    5.1480   -0.3590 C   0  0  0  0  0  0  0  0  0  0  0  0
   -3.4380    5.5660   -0.2220 C   0  0  0  0  0  0  0  0  0  0  0  0
   -4.4140    4.6030   -0.0680 C   0  0  0  0  0  0  0  0  0  0  0  0
   -4.0580    3.2700   -0.0560 C   0  0  0  0  0  0  0  0  0  0  0  0
   -2.7570    2.8270   -0.1930 C   0  0  0  0  0  0  0  0  0  0  0  0
    0.2370    0.8140   -0.5150 C   0  0  0  0  0  0  0  0  0  0  0  0
    3.2940   -0.1410   -0.9880 C   0  0  0  0  0  0  0  0  0  0  0  0
    2.8240   -1.2960   -1.5640 C   0  0  0  0  0  0  0  0  0  0  0  0
    2.9080   -1.4740   -2.9310 C   0  0  0  0  0  0  0  0  0  0  0  0
    3.4660   -0.4810   -3.6800 N   0  0  0  0  0  0  0  0  0  0  0  0
    3.9230    0.6410   -3.1140 C   0  0  0  0  0  0  0  0  0  0  0  0
    3.8620    0.8700   -1.7550 C   0  0  0  0  0  0  0  0  0  0  0  0
  2  1  1  6
  2  3  1  0
  2  4  1  0
  4  5  1  6
  4 34  1  0
  6  5  1  6
  6  7  1  0
  6 33  1  0
  7  8  1  0
  8  9  2  0
  8 10  1  0
 10 11  1  0
 11 12  2  0
 11 16  1  0
 12 13  1  0
 13 14  2  0
 14 15  1  0
 15 16  2  0
 16 17  1  0
 17 18  2  0
 18 19  1  0
 18 23  1  0
 19 20  1  6
 19 21  1  0
 19 22  1  0
 23 24  1  0
 24 25  1  0
 24 32  1  0
 25 26  2  0
 25 33  1  0
 26 27  1  0
 27 28  2  0
 27 32  1  0
 28 29  1  0
 29 30  2  0
 30 31  1  0
 31 32  2  0
 34 35  2  0
 34 39  1  0
 35 36  1  0
 36 37  2  0
 37 38  1  0
 38 39  2  0
M  CHG  2   2   1   6   1
M  END
